#------------------------------------------------------------------------------
#$Date: 2016-03-21 01:21:50 +0200 (Mon, 21 Mar 2016) $
#$Revision: 178377 $
#$URL: svn://www.crystallography.net/cod/cif/4/00/21/4002113.cif $
#------------------------------------------------------------------------------
#
# This file is available in the Crystallography Open Database (COD),
# http://www.crystallography.net/
#
# All data on this site have been placed in the public domain by the
# contributors.
#
data_4002113
loop_
_publ_author_name
'Nanthamathee, Chompoonoot'
'Ling, Sanliang'
'Slater, Ben'
'Attfield, Martin P.'
_publ_section_title
;
 Contradistinct Thermoresponsive Behavior of Isostructural MIL-53 Type
 Metal--Organic Frameworks by Modifying the Framework Inorganic Anion
;
_journal_name_full               'Chemistry of Materials'
_journal_page_first              141223143002002
_journal_paper_doi               10.1021/cm503311x
_journal_year                    2014
_chemical_formula_sum            'C8 Al O5'
_chemical_formula_weight         203.07
_chemical_name_systematic        ' ?'
_space_group_IT_number           74
_symmetry_cell_setting           orthorhombic
_symmetry_space_group_name_Hall  '-I 2b 2'
_symmetry_space_group_name_H-M   'I m m a'
_audit_creation_date             2014-08-28T12:16
_audit_creation_method           'from EXP file using GSAS2CIF'
_audit_update_record
' 2014-08-28T12:16  Initial CIF as created by GSAS2CIF'
_cell_angle_alpha                90.0
_cell_angle_beta                 90.0
_cell_angle_gamma                90.0
_cell_formula_units_Z            4
_cell_length_a                   6.62913(6)
_cell_length_b                   16.74572(17)
_cell_length_c                   12.80987(23)
_cell_volume                     1422.02(3)
_computing_structure_refinement  GSAS
_diffrn_radiation_polarisn_ratio 0.95
_diffrn_radiation_probe          x-ray
_diffrn_radiation_wavelength     0.825993
_exptl_absorpt_correction_T_max  1.00000
_exptl_absorpt_correction_T_min  1.00000
_exptl_absorpt_process_details
;   GSAS Absorption/surface roughness correction: function number 0
 No correction is applied.
;
_pd_block_id                     2014-08-28T12:16|350K|300k|i11
_pd_calc_method                  'Rietveld Refinement'
_pd_instr_location               ' ?'
_pd_meas_2theta_range_inc        0.003
_pd_meas_2theta_range_max        149.9955
_pd_meas_2theta_range_min        0.0015
_pd_meas_number_of_points        49999
_pd_phase_name                   300K
_pd_proc_2theta_range_inc        0.003
_pd_proc_2theta_range_max        150.00438
_pd_proc_2theta_range_min        0.010376
_pd_proc_info_datetime           2014-08-28T12:16:50
_pd_proc_info_excluded_regions   ' ?'
_pd_proc_ls_background_function
;   GSAS Background function number 1 with  2 terms.
 Shifted Chebyshev function of 1st kind
      1:    0.00000     2:    0.00000    
;
_pd_proc_ls_peak_cutoff          0.00100
_pd_proc_ls_profile_function
;
 CW Profile function number 4 with  18 terms
 Pseudovoigt profile coefficients as parameterized in
 P. Thompson, D.E. Cox & J.B. Hastings (1987). J. Appl. Cryst.,20,79-83.
 Asymmetry correction of L.W. Finger, D.E. Cox & A. P. Jephcoat (1994).
 J. Appl. Cryst.,27,892-900.
 Microstrain broadening by P.W. Stephens,  (1999). J. Appl. Cryst.,32,281-289.
 Peak tails are ignored  where the intensity is below 0.0010 times the peak
   Aniso. broadening axis   1.0   0.0   1.0
;
_pd_proc_ls_prof_R_factor        0.0358
_pd_proc_ls_prof_wR_expected     0.0232
_pd_proc_ls_prof_wR_factor       0.0476
_pd_proc_number_of_points        49999
_pd_spec_mounting                ' ?'
_refine_ls_goodness_of_fit_all   2.06
_refine_ls_matrix_type           full
_refine_ls_number_parameters     27
_refine_ls_number_restraints     0
_refine_ls_R_Fsqd_factor         0.21891
_refine_ls_shift/su_max          0.06
_refine_ls_shift/su_mean         0.01
_reflns_d_resolution_high        1.209
_reflns_d_resolution_low         8.373
_reflns_limit_h_max              5
_reflns_limit_h_min              0
_reflns_limit_k_max              13
_reflns_limit_k_min              0
_reflns_limit_l_max              10
_reflns_limit_l_min              0
_reflns_number_total             252
_cod_data_source_file            aloh350K.cif
_cod_data_source_block           350K_publ
_cod_depositor_comments
;
The following automatic conversions were performed:

'_geom_bond_publ_flag' value 'N' changed to 'n' according to
/home/saulius/struct/COD-crude-data--automatic-downloads/rss-feeds/ACS/lib/dictionaries/cif_core.dic
dictionary named 'cif_core.dic' version 2.4.2 from 2011-04-26 (18
times).

'_geom_angle_publ_flag' value 'N' changed to 'n' according
to
/home/saulius/struct/COD-crude-data--automatic-downloads/rss-feeds/ACS/lib/dictionaries/cif_core.dic
dictionary named 'cif_core.dic' version 2.4.2 from 2011-04-26 (24
times).

Automatic conversion script
Id: cif_fix_values 2935 2014-11-11 08:27:57Z andrius 
;
_cod_original_cell_volume        1422.018(32)
_cod_database_code               4002113
#BEGIN Tags that were not found in dictionaries:
_gsas_exptl_extinct_corr_t_min   1.00000
_gsas_exptl_extinct_corr_t_max   1.00000
#END Tags that were not found in dictionaries
loop_
_symmetry_equiv_pos_site_id
_symmetry_equiv_pos_as_xyz
1 +x,+y,+z
2 -x,+y,+z
3 +x,-y+1/2,+z
4 -x,-y+1/2,+z
-1 -x,-y,-z
-2 +x,-y,-z
-3 -x,+y+1/2,-z
-4 +x,+y+1/2,-z
101 +x+1/2,+y+1/2,+z+1/2
102 -x+1/2,+y+1/2,+z+1/2
103 +x+1/2,-y,+z+1/2
104 -x+1/2,-y,+z+1/2
-101 -x+1/2,-y+1/2,-z+1/2
-102 +x+1/2,-y+1/2,-z+1/2
-103 -x+1/2,+y,-z+1/2
-104 +x+1/2,+y,-z+1/2
loop_
_atom_site_type_symbol
_atom_site_label
_atom_site_fract_x
_atom_site_fract_y
_atom_site_fract_z
_atom_site_occupancy
_atom_site_thermal_displace_type
_atom_site_U_iso_or_equiv
_atom_site_symmetry_multiplicity
Al Al1 0.25 0.25 0.75 1.0 Uiso 0.0213(10) 4
O O2 0.0 0.25 0.6846(4) 1.0 Uiso 0.0165(8) 4
O O1 0.16623(31) 0.16774(14) 0.84358(21) 1.0 Uiso 0.0165(8) 16
C C3 -0.1915(4) 0.03516(30) 0.9670(4) 1.0 Uiso 0.0375(14) 16
C C2 0.0 0.0619(4) 0.9457(5) 1.0 Uiso 0.0375(14) 8
C C1 0.0 0.1385(4) 0.8708(6) 1.0 Uiso 0.0375(14) 8
loop_
_atom_type_symbol
_atom_type_number_in_cell
_atom_type_scat_dispersion_real
_atom_type_scat_dispersion_imag
_atom_type_scat_Cromer_Mann_a1
_atom_type_scat_Cromer_Mann_a2
_atom_type_scat_Cromer_Mann_a3
_atom_type_scat_Cromer_Mann_a4
_atom_type_scat_Cromer_Mann_b1
_atom_type_scat_Cromer_Mann_b2
_atom_type_scat_Cromer_Mann_b3
_atom_type_scat_Cromer_Mann_b4
_atom_type_scat_Cromer_Mann_c
_atom_type_scat_source
Al 4.0 0.000 0.000 6.42020 3.03870 1.90020 0.74260 1.59360 31.5472 1.96460
85.0886 1.11510 International_Tables_Vol_C
O 20.0 0.000 0.000 3.04850 13.2771 2.28680 5.70110 1.54630 0.32390 0.86700
32.9089 0.25080 International_Tables_Vol_C
C 32.0 0.000 0.000 2.31000 20.8439 1.02000 10.2075 1.58860 0.56870 0.86500
51.6512 0.21560 International_Tables_Vol_C
loop_
_geom_angle_atom_site_label_1
_geom_angle_atom_site_label_2
_geom_angle_atom_site_label_3
_geom_angle
_geom_angle_site_symmetry_1
_geom_angle_site_symmetry_3
_geom_angle_publ_flag
O2 Al1 O2 180.0 1_555 -101_546 n
O2 Al1 O1 91.36(12) 1_555 1_555 n
O2 Al1 O1 91.36(12) 1_555 3_555 n
O2 Al1 O1 88.64(12) 1_555 -101_566 n
O2 Al1 O1 88.64(12) 1_555 -103_566 n
O2 Al1 O1 88.64(12) -101_566 1_555 n
O2 Al1 O1 88.64(12) -101_566 3_555 n
O2 Al1 O1 91.36(12) -101_566 -101_566 n
O2 Al1 O1 91.36(12) -101_566 -103_566 n
O1 Al1 O1 92.39(17) 1_555 3_555 n
O1 Al1 O1 180.0 1_555 -101_566 n
O1 Al1 O1 87.61(17) 1_555 -103_566 n
O1 Al1 O1 87.61(17) 3_555 -101_566 n
O1 Al1 O1 180.0 3_555 -103_566 n
O1 Al1 O1 92.39(17) -101_566 -103_566 n
Al1 O2 Al1 126.35(30) 1_555 2_555 n
Al1 O1 C1 135.4(4) 1_555 1_555 n
C3 C3 C2 112.4(4) -2_557 1_555 n
C3 C2 C3 135.1(7) 1_555 2_555 n
C3 C2 C1 112.3(4) 1_555 1_555 n
C3 C2 C1 112.3(4) 2_555 1_555 n
O1 C1 O1 122.8(6) 1_555 2_555 n
O1 C1 C2 118.61(31) 1_555 1_555 n
O1 C1 C2 118.61(31) 2_555 1_555 n
loop_
_geom_bond_atom_site_label_1
_geom_bond_atom_site_label_2
_geom_bond_distance
_geom_bond_site_symmetry_2
_geom_bond_publ_flag
Al1 O2 1.8571(25) 1_555 n
Al1 O2 1.8571(25) -101_445 n
Al1 O1 1.9087(20) 1_555 n
Al1 O1 1.9087(20) 3_555 n
Al1 O1 1.9087(20) -101_445 n
Al1 O1 1.9087(20) -103_445 n
O2 Al1 1.8571(25) 1_555 n
O2 Al1 1.8571(25) 2_555 n
O1 Al1 1.9087(20) 1_555 n
O1 C1 1.2553(32) 1_555 n
C3 C3 1.450(7) -2_557 n
C3 C2 1.3735(30) 1_555 n
C2 C3 1.3735(30) 1_555 n
C2 C3 1.3735(30) 2_555 n
C2 C1 1.601(6) 1_555 n
C1 O1 1.2553(32) 1_555 n
C1 O1 1.2553(32) 2_555 n
C1 C2 1.601(6) 1_555 n
loop_
_pd_meas_intensity_total
_pd_proc_ls_weight
_pd_proc_intensity_bkg_calc
_pd_calc_intensity_total
13.6(19) 0.0 0.00 .
12.6(19) 0.0 0.00 .
18.0(23) 0.0 0.00 .
22.8(27) 0.0 0.00 .
24.8(25) 0.0 0.00 .
94(6) 0.0 0.0 .
91(5) 0.0 0.0 .
597(13) 0.0 0.0 .
1110(17) 0.0 0.0 .
2239(26) 0.0 0.0 .
2495(26) 0.0 0.0 .
2546(26) 0.0 0.0 .
2597(27) 0.0 0.0 .
1038(18) 0.0 0.0 .
92(5) 0.0 0.0 .
50(4) 0.0 0.0 .
48(4) 0.0 0.0 .
40.0(34) 0.0 0.00 .
33.6(32) 0.0 0.00 .
54(4) 0.0 0.0 .
207(8) 0.0 0.0 .
296(9) 0.0 0.0 .
634(13) 0.0 0.0 .
856(16) 0.0 0.0 .
932(17) 0.0 0.0 .
1099(17) 0.0 0.0 .
1256(18) 0.0 0.0 .
1378(20) 0.0 0.0 .
1710(23) 0.0 0.0 .
1825(23) 0.0 0.0 .
2009(23) 0.0 0.0 .
1934(23) 0.0 0.0 .
1792(23) 0.0 0.0 .
1524(22) 0.0 0.0 .
1170(18) 0.0 0.0 .
651(13) 0.0 0.0 .
315(9) 0.0 0.0 .
215(8) 0.0 0.0 .
130(6) 0.0 0.0 .
80(5) 0.0 0.0 .
41.7(34) 0.0 0.00 .
33.5(30) 0.0 0.00 .
32.8(32) 0.0 0.00 .
30.2(30) 0.0 0.00 .
28.3(29) 0.0 0.00 .
17.6(22) 0.0 0.00 .
26.0(28) 0.0 0.00 .
31.7(30) 0.0 0.00 .
27.8(29) 0.0 0.00 .
24.9(32) 0.0 0.00 .
33.0(30) 0.0 0.00 .
33.3(30) 0.0 0.00 .
24.1(25) 0.0 0.00 .
31.6(32) 0.0 0.00 .
25.7(26) 0.0 0.00 .
26.5(27) 0.0 0.00 .
31.4(30) 0.0 0.00 .
32.0(32) 0.0 0.00 .
26.2(26) 0.0 0.00 .
33.5(31) 0.0 0.00 .
34.9(31) 0.0 0.00 .
41.7(34) 0.0 0.00 .
33.9(32) 0.0 0.00 .
30.4(30) 0.0 0.00 .
42.5(34) 0.0 0.00 .
31.8(30) 0.0 0.00 .
32.4(31) 0.0 0.00 .
28.5(30) 0.0 0.00 .
24.3(27) 0.0 0.00 .
32.2(30) 0.0 0.00 .
32.5(30) 0.0 0.00 .
31.5(31) 0.0 0.00 .
34.4(33) 0.0 0.00 .
31.0(31) 0.0 0.00 .
27.8(28) 0.0 0.00 .
33.5(30) 0.0 0.00 .
33.9(32) 0.0 0.00 .
37.0(34) 0.0 0.00 .
35.0(32) 0.0 0.00 .
35.1(31) 0.0 0.00 .
35.0(31) 0.0 0.00 .
36.4(32) 0.0 0.00 .
38.9(34) 0.0 0.00 .
38.2(34) 0.0 0.00 .
28.8(28) 0.0 0.00 .
24.3(26) 0.0 0.00 .
42(4) 0.0 0.0 .
32.8(30) 0.0 0.00 .
35.6(33) 0.0 0.00 .
35.2(31) 0.0 0.00 .
42.3(35) 0.0 0.00 .
34.0(31) 0.0 0.00 .
31.7(31) 0.0 0.00 .
51(4) 0.0 0.0 .
47(4) 0.0 0.0 .
61(4) 0.0 0.0 .
63(4) 0.0 0.0 .
75(5) 0.0 0.0 .
73(5) 0.0 0.0 .
82(5) 0.0 0.0 .
102(5) 0.0 0.0 .
113(6) 0.0 0.0 .
131(6) 0.0 0.0 .
118(6) 0.0 0.0 .
128(6) 0.0 0.0 .
135(6) 0.0 0.0 .
136(6) 0.0 0.0 .
174(7) 0.0 0.0 .
180(7) 0.0 0.0 .
192(7) 0.0 0.0 .
182(7) 0.0 0.0 .
197(8) 0.0 0.0 .
201(8) 0.0 0.0 .
202(7) 0.0 0.0 .
217(8) 0.0 0.0 .
245(8) 0.0 0.0 .
230(8) 0.0 0.0 .
274(9) 0.0 0.0 .
274(9) 0.0 0.0 .
270(8) 0.0 0.0 .
261(9) 0.0 0.0 .
285(9) 0.0 0.0 .
274(9) 0.0 0.0 .
307(9) 0.0 0.0 .
295(9) 0.0 0.0 .
312(9) 0.0 0.0 .
347(10) 0.0 0.0 .
344(10) 0.0 0.0 .
352(10) 0.0 0.0 .
383(10) 0.0 0.0 .
370(10) 0.0 0.0 .
361(11) 0.0 0.0 .
379(10) 0.0 0.0 .
404(10) 0.0 0.0 .
399(10) 0.0 0.0 .
418(11) 0.0 0.0 .
412(11) 0.0 0.0 .
415(11) 0.0 0.0 .
429(11) 0.0 0.0 .
441(11) 0.0 0.0 .
465(12) 0.0 0.0 .
465(12) 0.0 0.0 .
459(12) 0.0 0.0 .
483(11) 0.0 0.0 .
473(11) 0.0 0.0 .
475(12) 0.0 0.0 .
480(12) 0.0 0.0 .
474(12) 0.0 0.0 .
486(11) 0.0 0.0 .
497(12) 0.0 0.0 .
493(12) 0.0 0.0 .
512(12) 0.0 0.0 .
510(12) 0.0 0.0 .
504(12) 0.0 0.0 .
557(13) 0.0 0.0 .
514(12) 0.0 0.0 .
526(12) 0.0 0.0 .
543(12) 0.0 0.0 .
512(12) 0.0 0.0 .
512(12) 0.0 0.0 .
569(13) 0.0 0.0 .
534(12) 0.0 0.0 .
557(12) 0.0 0.0 .
578(12) 0.0 0.0 .
534(12) 0.0 0.0 .
547(13) 0.0 0.0 .
569(13) 0.0 0.0 .
568(12) 0.0 0.0 .
559(12) 0.0 0.0 .
560(13) 0.0 0.0 .
577(13) 0.0 0.0 .
603(13) 0.0 0.0 .
603(13) 0.0 0.0 .
577(12) 0.0 0.0 .
599(13) 0.0 0.0 .
584(14) 0.0 0.0 .
605(13) 0.0 0.0 .
636(13) 0.0 0.0 .
615(13) 0.0 0.0 .
630(13) 0.0 0.0 .
626(14) 0.0 0.0 .
607(13) 0.0 0.0 .
595(13) 0.0 0.0 .
651(13) 0.0 0.0 .
647(14) 0.0 0.0 .
644(14) 0.0 0.0 .
647(14) 0.0 0.0 .
628(13) 0.0 0.0 .
642(13) 0.0 0.0 .
610(13) 0.0 0.0 .
640(14) 0.0 0.0 .
677(14) 0.0 0.0 .
639(13) 0.0 0.0 .
674(14) 0.0 0.0 .
669(14) 0.0 0.0 .
695(14) 0.0 0.0 .
651(14) 0.0 0.0 .
653(13) 0.0 0.0 .
689(14) 0.0 0.0 .
653(14) 0.0 0.0 .
690(14) 0.0 0.0 .
680(14) 0.0 0.0 .
697(14) 0.0 0.0 .
667(14) 0.0 0.0 .
679(14) 0.0 0.0 .
691(14) 0.0 0.0 .
726(14) 0.0 0.0 .
702(14) 0.0 0.0 .
723(14) 0.0 0.0 .
707(14) 0.0 0.0 .
700(14) 0.0 0.0 .
690(14) 0.0 0.0 .
703(14) 0.0 0.0 .
708(14) 0.0 0.0 .
733(15) 0.0 0.0 .
704(14) 0.0 0.0 .
711(14) 0.0 0.0 .
772(14) 0.0 0.0 .
768(15) 0.0 0.0 .
714(15) 0.0 0.0 .
759(15) 0.0 0.0 .
745(14) 0.0 0.0 .
768(14) 0.0 0.0 .
755(15) 0.0 0.0 .
752(15) 0.0 0.0 .
746(15) 0.0 0.0 .
731(14) 0.0 0.0 .
786(15) 0.0 0.0 .
805(15) 0.0 0.0 .
767(16) 0.0 0.0 .
817(16) 0.0 0.0 .
786(15) 0.0 0.0 .
774(15) 0.0 0.0 .
768(15) 0.0 0.0 .
779(16) 0.0 0.0 .
794(15) 0.0 0.0 .
784(15) 0.0 0.0 .
811(15) 0.0 0.0 .
837(16) 0.0 0.0 .
846(16) 0.0 0.0 .
827(16) 0.0 0.0 .
805(15) 0.0 0.0 .
788(15) 0.0 0.0 .
821(16) 0.0 0.0 .
843(16) 0.0 0.0 .
835(16) 0.0 0.0 .
815(15) 0.0 0.0 .
796(15) 0.0 0.0 .
834(16) 0.0 0.0 .
804(15) 0.0 0.0 .
803(15) 0.0 0.0 .
840(15) 0.0 0.0 .
854(15) 0.0 0.0 .
835(16) 0.0 0.0 .
816(15) 0.0 0.0 .
848(16) 0.0 0.0 .
836(15) 0.0 0.0 .
863(16) 0.0 0.0 .
876(16) 0.0 0.0 .
875(16) 0.0 0.0 .
859(15) 0.0 0.0 .
862(15) 0.0 0.0 .
869(16) 0.0 0.0 .
826(16) 0.0 0.0 .
905(16) 0.0 0.0 .
883(16) 0.0 0.0 .
871(15) 0.0 0.0 .
872(16) 0.0 0.0 .
882(16) 0.0 0.0 .
848(15) 0.0 0.0 .
874(16) 0.0 0.0 .
856(15) 0.0 0.0 .
881(16) 0.0 0.0 .
877(16) 0.0 0.0 .
855(16) 0.0 0.0 .
864(15) 0.0 0.0 .
924(16) 0.0 0.0 .
886(16) 0.0 0.0 .
864(17) 0.0 0.0 .
934(16) 0.0 0.0 .
907(16) 0.0 0.0 .
893(16) 0.0 0.0 .
919(16) 0.0 0.0 .
914(17) 0.0 0.0 .
914(16) 0.0 0.0 .
889(15) 0.0 0.0 .
936(16) 0.0 0.0 .
906(16) 0.0 0.0 .
931(17) 0.0 0.0 .
908(16) 0.0 0.0 .
929(16) 0.0 0.0 .
905(16) 0.0 0.0 .
911(16) 0.0 0.0 .
936(17) 0.0 0.0 .
925(16) 0.0 0.0 .
908(16) 0.0 0.0 .
864(16) 0.0 0.0 .
945(17) 0.0 0.0 .
946(17) 0.0 0.0 .
904(16) 0.0 0.0 .
953(16) 0.0 0.0 .
936(16) 0.0 0.0 .
965(17) 0.0 0.0 .
942(17) 0.0 0.0 .
960(16) 0.0 0.0 .
960(16) 0.0 0.0 .
988(17) 0.0 0.0 .
953(17) 0.0 0.0 .
957(17) 0.0 0.0 .
937(16) 0.0 0.0 .
935(16) 0.0 0.0 .
927(16) 0.0 0.0 .
935(17) 0.0 0.0 .
983(17) 0.0 0.0 .
985(17) 0.0 0.0 .
915(16) 0.0 0.0 .
929(17) 0.0 0.0 .
932(17) 0.0 0.0 .
927(16) 0.0 0.0 .
932(16) 0.0 0.0 .
961(16) 0.0 0.0 .
973(17) 0.0 0.0 .
910(16) 0.0 0.0 .
936(16) 0.0 0.0 .
980(16) 0.0 0.0 .
971(16) 0.0 0.0 .
976(17) 0.0 0.0 .
958(17) 0.0 0.0 .
967(17) 0.0 0.0 .
962(16) 0.0 0.0 .
1006(16) 0.0 0.0 .
991(17) 0.0 0.0 .
965(17) 0.0 0.0 .
987(17) 0.0 0.0 .
995(16) 0.0 0.0 .
1031(17) 0.0 0.0 .
1029(17) 0.0 0.0 .
977(17) 0.0 0.0 .
993(17) 0.0 0.0 .
1009(16) 0.0 0.0 .
1076(17) 0.0 0.0 .
1015(17) 0.0 0.0 .
964(17) 0.0 0.0 .
1048(17) 0.0 0.0 .
1028(17) 0.0 0.0 .
1001(17) 0.0 0.0 .
1025(17) 0.0 0.0 .
1030(17) 0.0 0.0 .
1008(17) 0.0 0.0 .
981(16) 0.0 0.0 .
988(17) 0.0 0.0 .
999(17) 0.0 0.0 .
1044(17) 0.0 0.0 .
1046(17) 0.0 0.0 .
1101(17) 0.0 0.0 .
1046(17) 0.0 0.0 .
1064(18) 0.0 0.0 .
1091(18) 0.0 0.0 .
1082(17) 0.0 0.0 .
1104(17) 0.0 0.0 .
1087(18) 0.0 0.0 .
1072(18) 0.0 0.0 .
1057(17) 0.0 0.0 .
1099(17) 0.0 0.0 .
1094(17) 0.0 0.0 .
1088(18) 0.0 0.0 .
1089(18) 0.0 0.0 .
1084(18) 0.0 0.0 .
1103(17) 0.0 0.0 .
1081(17) 0.0 0.0 .
1123(18) 0.0 0.0 .
1126(19) 0.0 0.0 .
1083(17) 0.0 0.0 .
1155(18) 0.0 0.0 .
1111(17) 0.0 0.0 .
1116(18) 0.0 0.0 .
1135(19) 0.0 0.0 .
1126(18) 0.0 0.0 .
1145(18) 0.0 0.0 .
1136(18) 0.0 0.0 .
1142(18) 0.0 0.0 .
1170(19) 0.0 0.0 .
1150(18) 0.0 0.0 .
1105(17) 0.0 0.0 .
1150(18) 0.0 0.0 .
1104(18) 0.0 0.0 .
1176(19) 0.0 0.0 .
1153(18) 0.0 0.0 .
1185(18) 0.0 0.0 .
1200(18) 0.0 0.0 .
1213(19) 0.0 0.0 .
1165(19) 0.0 0.0 .
1161(18) 0.0 0.0 .
1172(18) 0.0 0.0 .
1232(18) 0.0 0.0 .
1154(18) 0.0 0.0 .
1207(19) 0.0 0.0 .
1246(19) 0.0 0.0 .
1191(18) 0.0 0.0 .
1212(18) 0.0 0.0 .
1174(19) 0.0 0.0 .
1187(19) 0.0 0.0 .
1177(18) 0.0 0.0 .
1168(18) 0.0 0.0 .
1248(19) 0.0 0.0 .
1227(19) 0.0 0.0 .
1250(19) 0.0 0.0 .
1202(18) 0.0 0.0 .
1197(18) 0.0 0.0 .
1234(19) 0.0 0.0 .
1290(20) 0.0 0.0 .
1216(19) 0.0 0.0 .
1253(19) 0.0 0.0 .
1244(18) 0.0 0.0 .
1199(19) 0.0 0.0 .
1247(19) 0.0 0.0 .
1269(19) 0.0 0.0 .
1207(18) 0.0 0.0 .
1206(18) 0.0 0.0 .
1246(19) 0.0 0.0 .
1265(19) 0.0 0.0 .
1241(19) 0.0 0.0 .
1210(18) 0.0 0.0 .
1244(18) 0.0 0.0 .
1285(19) 0.0 0.0 .
1226(19) 0.0 0.0 .
1218(19) 0.0 0.0 .
1248(18) 0.0 0.0 .
1245(18) 0.0 0.0 .
1233(19) 0.0 0.0 .
1285(20) 0.0 0.0 .
1217(19) 0.0 0.0 .
1237(18) 0.0 0.0 .
1265(18) 0.0 0.0 .
1262(19) 0.0 0.0 .
1271(20) 0.0 0.0 .
1292(19) 0.0 0.0 .
1219(18) 0.0 0.0 .
1268(19) 0.0 0.0 .
1252(19) 0.0 0.0 .
1238(19) 0.0 0.0 .
1281(19) 0.0 0.0 .
1241(18) 0.0 0.0 .
1188(18) 0.0 0.0 .
1269(19) 0.0 0.0 .
1274(19) 0.0 0.0 .
1210(19) 0.0 0.0 .
1262(18) 0.0 0.0 .
1244(19) 0.0 0.0 .
1229(19) 0.0 0.0 .
1301(20) 0.0 0.0 .
1282(19) 0.0 0.0 .
1254(18) 0.0 0.0 .
1235(19) 0.0 0.0 .
1282(19) 0.0 0.0 .
1273(19) 0.0 0.0 .
1228(19) 0.0 0.0 .
1238(18) 0.0 0.0 .
1259(19) 0.0 0.0 .
1277(20) 0.0 0.0 .
1289(19) 0.0 0.0 .
1273(19) 0.0 0.0 .
1204(18) 0.0 0.0 .
1223(19) 0.0 0.0 .
1215(19) 0.0 0.0 .
1244(19) 0.0 0.0 .
1274(19) 0.0 0.0 .
1238(18) 0.0 0.0 .
1242(19) 0.0 0.0 .
1248(19) 0.0 0.0 .
1251(19) 0.0 0.0 .
1269(19) 0.0 0.0 .
1293(19) 0.0 0.0 .
1272(19) 0.0 0.0 .
1279(20) 0.0 0.0 .
1221(19) 0.0 0.0 .
1235(18) 0.0 0.0 .
1234(18) 0.0 0.0 .
1306(19) 0.0 0.0 .
1281(20) 0.0 0.0 .
1325(20) 0.0 0.0 .
1208(18) 0.0 0.0 .
1253(18) 0.0 0.0 .
1241(19) 0.0 0.0 .
1255(20) 0.0 0.0 .
1216(19) 0.0 0.0 .
1297(19) 0.0 0.0 .
1257(18) 0.0 0.0 .
1226(19) 0.0 0.0 .
1256(20) 0.0 0.0 .
1270(19) 0.0 0.0 .
1245(18) 0.0 0.0 .
1290(19) 0.0 0.0 .
1284(19) 0.0 0.0 .
1234(19) 0.0 0.0 .
1236(19) 0.0 0.0 .
1210(18) 0.0 0.0 .
1227(18) 0.0 0.0 .
1295(19) 0.0 0.0 .
1298(20) 0.0 0.0 .
1293(19) 0.0 0.0 .
1247(18) 0.0 0.0 .
1257(19) 0.0 0.0 .
1271(19) 0.0 0.0 .
1289(19) 0.0 0.0 .
1274(19) 0.0 0.0 .
1284(19) 0.0 0.0 .
1244(19) 0.0 0.0 .
1238(19) 0.0 0.0 .
1258(19) 0.0 0.0 .
1226(19) 0.0 0.0 .
1253(18) 0.0 0.0 .
1256(19) 0.0 0.0 .
1232(19) 0.0 0.0 .
1276(19) 0.0 0.0 .
1274(19) 0.0 0.0 .
1247(18) 0.0 0.0 .
1227(19) 0.0 0.0 .
1258(20) 0.0 0.0 .
1248(19) 0.0 0.0 .
1276(19) 0.0 0.0 .
1196(18) 0.0 0.0 .
1246(19) 0.0 0.0 .
1288(20) 0.0 0.0 .
1224(19) 0.0 0.0 .
1240(18) 0.0 0.0 .
1248(18) 0.0 0.0 .
1275(19) 0.0 0.0 .
1213(19) 0.0 0.0 .
1252(19) 0.0 0.0 .
1255(18) 0.0 0.0 .
1242(18) 0.0 0.0 .
1237(19) 0.0 0.0 .
1303(20) 0.0 0.0 .
1277(19) 0.0 0.0 .
1247(18) 0.0 0.0 .
1251(19) 0.0 0.0 .
1208(19) 0.0 0.0 .
1168(19) 0.0 0.0 .
1278(19) 0.0 0.0 .
1245(18) 0.0 0.0 .
1226(18) 0.0 0.0 .
1234(19) 0.0 0.0 .
1251(19) 0.0 0.0 .
1218(19) 0.0 0.0 .
1234(18) 0.0 0.0 .
1242(19) 0.0 0.0 .
1230(19) 0.0 0.0 .
1232(19) 0.0 0.0 .
1265(19) 0.0 0.0 .
1226(18) 0.0 0.0 .
1222(18) 0.0 0.0 .
1236(19) 0.0 0.0 .
1226(19) 0.0 0.0 .
1223(19) 0.0 0.0 .
1267(18) 0.0 0.0 .
1165(18) 0.0 0.0 .
1211(19) 0.0 0.0 .
1240(19) 0.0 0.0 .
1190(18) 0.0 0.0 .
1251(18) 0.0 0.0 .
1262(19) 0.0 0.0 .
1245(19) 0.0 0.0 .
1158(18) 0.0 0.0 .
1214(18) 0.0 0.0 .
1237(18) 0.0 0.0 .
1263(19) 0.0 0.0 .
1250(19) 0.0 0.0 .
1187(18) 0.0 0.0 .
1220(18) 0.0 0.0 .
1217(18) 0.0 0.0 .
1194(19) 0.0 0.0 .
1226(19) 0.0 0.0 .
1253(19) 0.0 0.0 .
1207(18) 0.0 0.0 .
1196(18) 0.0 0.0 .
1191(19) 0.0 0.0 .
1206(19) 0.0 0.0 .
1217(19) 0.0 0.0 .
1232(18) 0.0 0.0 .
1180(18) 0.0 0.0 .
1171(18) 0.0 0.0 .
1221(20) 0.0 0.0 .
1209(19) 0.0 0.0 .
1241(18) 0.0 0.0 .
1213(18) 0.0 0.0 .
1197(19) 0.0 0.0 .
1209(19) 0.0 0.0 .
1199(19) 0.0 0.0 .
1221(18) 0.0 0.0 .
1250(19) 0.0 0.0 .
1199(19) 0.0 0.0 .
1191(19) 0.0 0.0 .
1205(19) 0.0 0.0 .
1233(18) 0.0 0.0 .
1254(19) 0.0 0.0 .
1220(19) 0.0 0.0 .
1217(19) 0.0 0.0 .
1210(19) 0.0 0.0 .
1172(18) 0.0 0.0 .
1157(18) 0.0 0.0 .
1186(19) 0.0 0.0 .
1160(18) 0.0 0.0 .
1211(19) 0.0 0.0 .
1230(18) 0.0 0.0 .
1107(18) 0.0 0.0 .
1168(18) 0.0 0.0 .
1154(18) 0.0 0.0 .
1183(18) 0.0 0.0 .
1208(18) 0.0 0.0 .
1142(18) 0.0 0.0 .
1167(19) 0.0 0.0 .
1167(18) 0.0 0.0 .
1186(18) 0.0 0.0 .
1159(18) 0.0 0.0 .
1137(18) 0.0 0.0 .
1170(19) 0.0 0.0 .
1172(18) 0.0 0.0 .
1193(18) 0.0 0.0 .
1167(18) 0.0 0.0 .
1176(19) 0.0 0.0 .
1158(19) 0.0 0.0 .
1157(18) 0.0 0.0 .
1110(17) 0.0 0.0 .
1119(17) 0.0 0.0 .
1177(18) 0.0 0.0 .
1173(19) 0.0 0.0 .
1182(18) 0.0 0.0 .
1160(18) 0.0 0.0 .
1169(18) 0.0 0.0 .
1169(18) 0.0 0.0 .
1176(19) 0.0 0.0 .
1141(18) 0.0 0.0 .
1126(17) 0.0 0.0 .
1085(17) 0.0 0.0 .
1193(19) 0.0 0.0 .
1162(19) 0.0 0.0 .
1135(18) 0.0 0.0 .
1150(18) 0.0 0.0 .
1167(18) 0.0 0.0 .
1158(18) 0.0 0.0 .
1170(19) 0.0 0.0 .
1146(18) 0.0 0.0 .
1136(17) 0.0 0.0 .
1152(18) 0.0 0.0 .
1141(18) 0.0 0.0 .
1180(19) 0.0 0.0 .
1187(19) 0.0 0.0 .
1128(17) 0.0 0.0 .
1170(18) 0.0 0.0 .
1196(19) 0.0 0.0 .
1210(19) 0.0 0.0 .
1136(18) 0.0 0.0 .
1150(18) 0.0 0.0 .
1148(18) 0.0 0.0 .
1124(18) 0.0 0.0 .
1118(18) 0.0 0.0 .
1098(18) 0.0 0.0 .
1133(17) 0.0 0.0 .
1119(18) 0.0 0.0 .
1116(18) 0.0 0.0 .
1115(18) 0.0 0.0 .
1079(17) 0.0 0.0 .
1134(17) 0.0 0.0 .
1076(18) 0.0 0.0 .
1103(18) 0.0 0.0 .
1123(18) 0.0 0.0 .
1141(18) 0.0 0.0 .
1107(17) 0.0 0.0 .
1161(18) 0.0 0.0 .
1134(18) 0.0 0.0 .
1108(18) 0.0 0.0 .
1141(18) 0.0 0.0 .
1134(18) 0.0 0.0 .
1195(19) 0.0 0.0 .
1108(18) 0.0 0.0 .
1155(18) 0.0 0.0 .
1122(17) 0.0 0.0 .
1088(17) 0.0 0.0 .
1153(18) 0.0 0.0 .
1096(18) 0.0 0.0 .
1125(18) 0.0 0.0 .
1144(18) 0.0 0.0 .
1121(17) 0.0 0.0 .
1137(18) 0.0 0.0 .
1111(18) 0.0 0.0 .
1110(18) 0.0 0.0 .
1169(18) 0.0 0.0 .
1126(17) 0.0 0.0 .
1104(18) 0.0 0.0 .
1141(19) 0.0 0.0 .
1155(18) 0.0 0.0 .
1049(17) 0.0 0.0 .
1087(17) 0.0 0.0 .
1087(18) 0.0 0.0 .
1105(18) 0.0 0.0 .
1098(18) 0.0 0.0 .
1139(18) 0.0 0.0 .
1108(18) 0.0 0.0 .
1090(18) 0.0 0.0 .
1116(18) 0.0 0.0 .
1169(18) 0.0 0.0 .
1100(17) 0.0 0.0 .
1077(17) 0.0 0.0 .
1136(18) 0.0 0.0 .
1135(18) 0.0 0.0 .
1068(17) 0.0 0.0 .
1078(17) 0.0 0.0 .
1117(18) 0.0 0.0 .
1096(18) 0.0 0.0 .
1104(18) 0.0 0.0 .
1143(18) 0.0 0.0 .
1063(17) 0.0 0.0 .
1075(18) 0.0 0.0 .
1103(18) 0.0 0.0 .
1074(18) 0.0 0.0 .
1087(17) 0.0 0.0 .
1072(17) 0.0 0.0 .
1017(17) 0.0 0.0 .
1131(19) 0.0 0.0 .
1090(18) 0.0 0.0 .
1044(17) 0.0 0.0 .
1080(17) 0.0 0.0 .
1103(18) 0.0 0.0 .
1075(18) 0.0 0.0 .
1110(18) 0.0 0.0 .
1083(17) 0.0 0.0 .
1092(17) 0.0 0.0 .
1085(18) 0.0 0.0 .
1046(18) 0.0 0.0 .
1046(17) 0.0 0.0 .
1009(16) 0.0 0.0 .
1041(17) 0.0 0.0 .
1048(17) 0.0 0.0 .
1094(18) 0.0 0.0 .
1041(17) 0.0 0.0 .
1001(16) 0.0 0.0 .
1048(17) 0.0 0.0 .
1036(17) 0.0 0.0 .
1043(18) 0.0 0.0 .
1039(17) 0.0 0.0 .
1037(17) 0.0 0.0 .
1000(16) 0.0 0.0 .
1037(17) 0.0 0.0 .
1071(18) 0.0 0.0 .
997(17) 0.0 0.0 .
1019(17) 0.0 0.0 .
1037(17) 0.0 0.0 .
1013(17) 0.0 0.0 .
1018(17) 0.0 0.0 .
1050(17) 0.0 0.0 .
1041(17) 0.0 0.0 .
1029(17) 0.0 0.0 .
1038(17) 0.0 0.0 .
1030(17) 0.0 0.0 .
1038(17) 0.0 0.0 .
1025(17) 0.0 0.0 .
1067(17) 0.0 0.0 .
1043(17) 0.0 0.0 .
1021(17) 0.0 0.0 .
1038(17) 0.0 0.0 .
1037(17) 0.0 0.0 .
1058(17) 0.0 0.0 .
1065(18) 0.0 0.0 .
1072(18) 0.0 0.0 .
1058(17) 0.0 0.0 .
1042(17) 0.0 0.0 .
1017(17) 0.0 0.0 .
1037(18) 0.0 0.0 .
1056(17) 0.0 0.0 .
1033(17) 0.0 0.0 .
1052(17) 0.0 0.0 .
1061(18) 0.0 0.0 .
1007(18) 0.0 0.0 .
1013(17) 0.0 0.0 .
1048(17) 0.0 0.0 .
1028(17) 0.0 0.0 .
1028(17) 0.0 0.0 .
1034(18) 0.0 0.0 .
1010(17) 0.0 0.0 .
988(16) 0.0 0.0 .
1030(17) 0.0 0.0 .
1000(17) 0.0 0.0 .
1027(18) 0.0 0.0 .
1030(17) 0.0 0.0 .
1037(17) 0.0 0.0 .
1029(17) 0.0 0.0 .
1038(17) 0.0 0.0 .
1033(18) 0.0 0.0 .
1046(17) 0.0 0.0 .
1043(17) 0.0 0.0 .
1037(17) 0.0 0.0 .
1051(17) 0.0 0.0 .
1002(17) 0.0 0.0 .
940(17) 0.0 0.0 .
1007(16) 0.0 0.0 .
1015(17) 0.0 0.0 .
976(17) 0.0 0.0 .
1004(17) 0.0 0.0 .
1020(17) 0.0 0.0 .
1016(17) 0.0 0.0 .
1052(17) 0.0 0.0 .
980(17) 0.0 0.0 .
1007(17) 0.0 0.0 .
981(17) 0.0 0.0 .
1025(17) 0.0 0.0 .
1011(17) 0.0 0.0 .
1059(18) 0.0 0.0 .
991(17) 0.0 0.0 .
976(16) 0.0 0.0 .
975(16) 0.0 0.0 .
980(17) 0.0 0.0 .
976(17) 0.0 0.0 .
1047(17) 0.0 0.0 .
1017(17) 0.0 0.0 .
1026(17) 0.0 0.0 .
990(17) 0.0 0.0 .
962(17) 0.0 0.0 .
970(17) 0.0 0.0 .
969(16) 0.0 0.0 .
970(16) 0.0 0.0 .
950(17) 0.0 0.0 .
975(17) 0.0 0.0 .
975(17) 0.0 0.0 .
983(16) 0.0 0.0 .
986(16) 0.0 0.0 .
972(17) 0.0 0.0 .
972(17) 0.0 0.0 .
1010(17) 0.0 0.0 .
962(16) 0.0 0.0 .
992(16) 0.0 0.0 .
1005(17) 0.0 0.0 .
979(17) 0.0 0.0 .
971(17) 0.0 0.0 .
949(16) 0.0 0.0 .
961(16) 0.0 0.0 .
982(17) 0.0 0.0 .
956(17) 0.0 0.0 .
986(17) 0.0 0.0 .
988(16) 0.0 0.0 .
973(16) 0.0 0.0 .
982(17) 0.0 0.0 .
989(17) 0.0 0.0 .
959(17) 0.0 0.0 .
958(16) 0.0 0.0 .
1010(17) 0.0 0.0 .
993(17) 0.0 0.0 .
1033(18) 0.0 0.0 .
935(16) 0.0 0.0 .
935(16) 0.0 0.0 .
973(16) 0.0 0.0 .
1001(17) 0.0 0.0 .
969(17) 0.0 0.0 .
889(16) 0.0 0.0 .
962(16) 0.0 0.0 .
979(16) 0.0 0.0 .
983(17) 0.0 0.0 .
954(17) 0.0 0.0 .
904(16) 0.0 0.0 .
958(16) 0.0 0.0 .
974(17) 0.0 0.0 .
929(17) 0.0 0.0 .
988(17) 0.0 0.0 .
1000(17) 0.0 0.0 .
962(16) 0.0 0.0 .
957(17) 0.0 0.0 .
999(17) 0.0 0.0 .
942(16) 0.0 0.0 .
946(16) 0.0 0.0 .
959(16) 0.0 0.0 .
947(17) 0.0 0.0 .
935(17) 0.0 0.0 .
925(16) 0.0 0.0 .
926(16) 0.0 0.0 .
935(16) 0.0 0.0 .
946(16) 0.0 0.0 .
923(17) 0.0 0.0 .
948(17) 0.0 0.0 .
966(16) 0.0 0.0 .
954(16) 0.0 0.0 .
932(16) 0.0 0.0 .
959(17) 0.0 0.0 .
977(17) 0.0 0.0 .
947(16) 0.0 0.0 .
968(16) 0.0 0.0 .
934(16) 0.0 0.0 .
926(17) 0.0 0.0 .
977(17) 0.0 0.0 .
865(15) 0.0 0.0 .
937(16) 0.0 0.0 .
941(16) 0.0 0.0 .
944(17) 0.0 0.0 .
952(16) 0.0 0.0 .
919(16) 0.0 0.0 .
928(16) 0.0 0.0 .
952(17) 0.0 0.0 .
935(17) 0.0 0.0 .
914(16) 0.0 0.0 .
928(16) 0.0 0.0 .
926(16) 0.0 0.0 .
917(16) 0.0 0.0 .
914(16) 0.0 0.0 .
920(16) 0.0 0.0 .
923(16) 0.0 0.0 .
911(16) 0.0 0.0 .
908(16) 0.0 0.0 .
896(16) 0.0 0.0 .
924(16) 0.0 0.0 .
944(16) 0.0 0.0 .
913(16) 0.0 0.0 .
919(16) 0.0 0.0 .
941(17) 0.0 0.0 .
888(16) 0.0 0.0 .
920(16) 0.0 0.0 .
965(17) 0.0 0.0 .
960(17) 0.0 0.0 .
906(16) 0.0 0.0 .
908(16) 0.0 0.0 .
921(16) 0.0 0.0 .
973(17) 0.0 0.0 .
930(17) 0.0 0.0 .
919(16) 0.0 0.0 .
928(16) 0.0 0.0 .
962(16) 0.0 0.0 .
943(16) 0.0 0.0 .
913(17) 0.0 0.0 .
904(16) 0.0 0.0 .
894(16) 0.0 0.0 .
900(16) 0.0 0.0 .
882(16) 0.0 0.0 .
915(17) 0.0 0.0 .
890(16) 0.0 0.0 .
910(16) 0.0 0.0 .
908(16) 0.0 0.0 .
919(16) 0.0 0.0 .
903(17) 0.0 0.0 .
919(16) 0.0 0.0 .
894(16) 0.0 0.0 .
908(16) 0.0 0.0 .
904(16) 0.0 0.0 .
892(16) 0.0 0.0 .
888(16) 0.0 0.0 .
848(15) 0.0 0.0 .
884(16) 0.0 0.0 .
921(16) 0.0 0.0 .
937(17) 0.0 0.0 .
909(16) 0.0 0.0 .
882(15) 0.0 0.0 .
884(16) 0.0 0.0 .
923(16) 0.0 0.0 .
898(16) 0.0 0.0 .
926(16) 0.0 0.0 .
875(15) 0.0 0.0 .
905(16) 0.0 0.0 .
880(16) 0.0 0.0 .
885(16) 0.0 0.0 .
876(16) 0.0 0.0 .
885(15) 0.0 0.0 .
899(16) 0.0 0.0 .
904(16) 0.0 0.0 .
937(17) 0.0 0.0 .
846(15) 0.0 0.0 .
872(15) 0.0 0.0 .
874(16) 0.0 0.0 .
848(16) 0.0 0.0 .
831(15) 0.0 0.0 .
919(16) 0.0 0.0 .
896(16) 0.0 0.0 .
898(16) 0.0 0.0 .
878(16) 0.0 0.0 .
848(16) 0.0 0.0 .
884(16) 0.0 0.0 .
869(15) 0.0 0.0 .
884(16) 0.0 0.0 .
890(16) 0.0 0.0 .
907(16) 0.0 0.0 .
905(16) 0.0 0.0 .
808(15) 0.0 0.0 .
873(16) 0.0 0.0 .
858(16) 0.0 0.0 .
840(16) 0.0 0.0 .
832(15) 0.0 0.0 .
830(15) 0.0 0.0 .
810(15) 0.0 0.0 .
878(17) 0.0 0.0 .
855(16) 0.0 0.0 .
842(15) 0.0 0.0 .
847(15) 0.0 0.0 .
813(15) 0.0 0.0 .
886(16) 0.0 0.0 .
867(16) 0.0 0.0 .
855(15) 0.0 0.0 .
827(15) 0.0 0.0 .
867(16) 0.0 0.0 .
883(16) 0.0 0.0 .
858(16) 0.0 0.0 .
863(15) 0.0 0.0 .
849(15) 0.0 0.0 .
859(16) 0.0 0.0 .
835(16) 0.0 0.0 .
869(16) 0.0 0.0 .
800(15) 0.0 0.0 .
856(15) 0.0 0.0 .
868(16) 0.0 0.0 .
842(16) 0.0 0.0 .
833(15) 0.0 0.0 .
848(15) 0.0 0.0 .
869(16) 0.0 0.0 .
849(16) 0.0 0.0 .
873(16) 0.0 0.0 .
835(16) 0.0 0.0 .
874(15) 0.0 0.0 .
835(15) 0.0 0.0 .
844(16) 0.0 0.0 .
870(16) 0.0 0.0 .
822(15) 0.0 0.0 .
846(15) 0.0 0.0 .
824(16) 0.0 0.0 .
839(16) 0.0 0.0 .
820(15) 0.0 0.0 .
832(15) 0.0 0.0 .
841(15) 0.0 0.0 .
836(16) 0.0 0.0 .
833(16) 0.0 0.0 .
853(15) 0.0 0.0 .
871(15) 0.0 0.0 .
824(15) 0.0 0.0 .
820(15) 0.0 0.0 .
839(16) 0.0 0.0 .
837(15) 0.0 0.0 .
846(15) 0.0 0.0 .
844(15) 0.0 0.0 .
819(15) 0.0 0.0 .
807(16) 0.0 0.0 .
810(15) 0.0 0.0 .
820(15) 0.0 0.0 .
797(15) 0.0 0.0 .
821(15) 0.0 0.0 .
796(16) 0.0 0.0 .
818(15) 0.0 0.0 .
802(15) 0.0 0.0 .
834(15) 0.0 0.0 .
788(15) 0.0 0.0 .
815(16) 0.0 0.0 .
817(15) 0.0 0.0 .
792(15) 0.0 0.0 .
794(15) 0.0 0.0 .
830(15) 0.0 0.0 .
852(16) 0.0 0.0 .
828(16) 0.0 0.0 .
803(15) 0.0 0.0 .
810(15) 0.0 0.0 .
783(15) 0.0 0.0 .
803(16) 0.0 0.0 .
776(15) 0.0 0.0 .
783(14) 0.0 0.0 .
789(15) 0.0 0.0 .
768(15) 0.0 0.0 .
781(15) 0.0 0.0 .
788(15) 0.0 0.0 .
828(15) 0.0 0.0 .
791(15) 0.0 0.0 .
799(15) 0.0 0.0 .
767(15) 0.0 0.0 .
778(15) 0.0 0.0 .
773(14) 0.0 0.0 .
772(15) 0.0 0.0 .
856(16) 0.0 0.0 .
788(15) 0.0 0.0 .
741(14) 0.0 0.0 .
764(14) 0.0 0.0 .
824(16) 0.0 0.0 .
823(16) 0.0 0.0 .
794(15) 0.0 0.0 .
780(15) 0.0 0.0 .
785(14) 0.0 0.0 .
818(15) 0.0 0.0 .
762(15) 0.0 0.0 .
789(15) 0.0 0.0 .
800(15) 0.0 0.0 .
814(15) 0.0 0.0 .
801(15) 0.0 0.0 .
765(15) 0.0 0.0 .
791(15) 0.0 0.0 .
793(15) 0.0 0.0 .
771(14) 0.0 0.0 .
772(15) 0.0 0.0 .
811(16) 0.0 0.0 .
770(15) 0.0 0.0 .
748(14) 0.0 0.0 .
799(15) 0.0 0.0 .
744(14) 0.0 0.0 .
798(16) 0.0 0.0 .
758(15) 0.0 0.0 .
760(14) 0.0 0.0 .
773(15) 0.0 0.0 .
799(15) 0.0 0.0 .
769(15) 0.0 0.0 .
780(15) 0.0 0.0 .
773(14) 0.0 0.0 .
783(15) 0.0 0.0 .
772(15) 0.0 0.0 .
798(15) 0.0 0.0 .
770(15) 0.0 0.0 .
755(14) 0.0 0.0 .
758(14) 0.0 0.0 .
785(15) 0.0 0.0 .
755(15) 0.0 0.0 .
770(15) 0.0 0.0 .
780(14) 0.0 0.0 .
799(15) 0.0 0.0 .
749(15) 0.0 0.0 .
757(15) 0.0 0.0 .
758(14) 0.0 0.0 .
758(14) 0.0 0.0 .
768(15) 0.0 0.0 .
764(15) 0.0 0.0 .
789(15) 0.0 0.0 .
726(14) 0.0 0.0 .
768(14) 0.0 0.0 .
784(15) 0.0 0.0 .
725(15) 0.0 0.0 .
758(15) 0.0 0.0 .
790(15) 0.0 0.0 .
757(14) 0.0 0.0 .
777(15) 0.0 0.0 .
750(15) 0.0 0.0 .
789(15) 0.0 0.0 .
766(14) 0.0 0.0 .
778(14) 0.0 0.0 .
790(15) 0.0 0.0 .
776(15) 0.0 0.0 .
793(15) 0.0 0.0 .
766(14) 0.0 0.0 .
751(14) 0.0 0.0 .
726(15) 0.0 0.0 .
734(15) 0.0 0.0 .
747(15) 0.0 0.0 .
745(14) 0.0 0.0 .
732(14) 0.0 0.0 .
746(15) 0.0 0.0 .
753(15) 0.0 0.0 .
749(15) 0.0 0.0 .
717(14) 0.0 0.0 .
744(14) 0.0 0.0 .
781(15) 0.0 0.0 .
723(15) 0.0 0.0 .
745(15) 0.0 0.0 .
745(14) 0.0 0.0 .
742(14) 0.0 0.0 .
742(14) 0.0 0.0 .
781(15) 0.0 0.0 .
725(14) 0.0 0.0 .
739(14) 0.0 0.0 .
799(15) 0.0 0.0 .
747(15) 0.0 0.0 .
774(15) 0.0 0.0 .
756(15) 0.0 0.0 .
756(14) 0.0 0.0 .
746(14) 0.0 0.0 .
754(15) 0.0 0.0 .
716(14) 0.0 0.0 .
762(15) 0.0 0.0 .
745(14) 0.0 0.0 .
740(15) 0.0 0.0 .
723(14) 0.0 0.0 .
724(14) 0.0 0.0 .
752(14) 0.0 0.0 .
725(14) 0.0 0.0 .
762(15) 0.0 0.0 .
710(15) 0.0 0.0 .
727(15) 0.0 0.0 .
713(14) 0.0 0.0 .
751(14) 0.0 0.0 .
724(15) 0.0 0.0 .
754(15) 0.0 0.0 .
716(14) 0.0 0.0 .
728(14) 0.0 0.0 .
729(14) 0.0 0.0 .
770(15) 0.0 0.0 .
704(14) 0.0 0.0 .
738(15) 0.0 0.0 .
731(14) 0.0 0.0 .
726(14) 0.0 0.0 .
731(14) 0.0 0.0 .
740(15) 0.0 0.0 .
736(15) 0.0 0.0 .
709(14) 0.0 0.0 .
688(14) 0.0 0.0 .
726(14) 0.0 0.0 .
744(15) 0.0 0.0 .
756(15) 0.0 0.0 .
723(14) 0.0 0.0 .
729(14) 0.0 0.0 .
767(15) 0.0 0.0 .
757(15) 0.0 0.0 .
712(14) 0.0 0.0 .
693(14) 0.0 0.0 .
699(14) 0.0 0.0 .
712(14) 0.0 0.0 .
743(15) 0.0 0.0 .
736(15) 0.0 0.0 .
717(14) 0.0 0.0 .
727(14) 0.0 0.0 .
651(14) 0.0 0.0 .
729(15) 0.0 0.0 .
727(14) 0.0 0.0 .
712(14) 0.0 0.0 .
740(14) 0.0 0.0 .
707(14) 0.0 0.0 .
706(14) 0.0 0.0 .
716(14) 0.0 0.0 .
682(14) 0.0 0.0 .
715(14) 0.0 0.0 .
742(15) 0.0 0.0 .
718(14) 0.0 0.0 .
741(14) 0.0 0.0 .
724(14) 0.0 0.0 .
688(14) 0.0 0.0 .
709(15) 0.0 0.0 .
708(14) 0.0 0.0 .
716(14) 0.0 0.0 .
713(14) 0.0 0.0 .
708(14) 0.0 0.0 .
701(14) 0.0 0.0 .
721(15) 0.0 0.0 .
736(14) 0.0 0.0 .
689(14) 0.0 0.0 .
690(14) 0.0 0.0 .
703(14) 0.0 0.0 .
703(14) 0.0 0.0 .
651(13) 0.0 0.0 .
712(14) 0.0 0.0 .
718(14) 0.0 0.0 .
738(15) 0.0 0.0 .
739(15) 0.0 0.0 .
715(14) 0.0 0.0 .
714(14) 0.0 0.0 .
729(15) 0.0 0.0 .
693(15) 0.0 0.0 .
737(15) 0.0 0.0 .
727(14) 0.0 0.0 .
707(14) 0.0 0.0 .
656(14) 0.0 0.0 .
710(15) 0.0 0.0 .
729(14) 0.0 0.0 .
687(14) 0.0 0.0 .
682(14) 0.0 0.0 .
690(14) 0.0 0.0 .
702(14) 0.0 0.0 .
714(15) 0.0 0.0 .
679(14) 0.0 0.0 .
723(14) 0.0 0.0 .
706(14) 0.0 0.0 .
704(14) 0.0 0.0 .
681(14) 0.0 0.0 .
695(14) 0.0 0.0 .
687(14) 0.0 0.0 .
691(14) 0.0 0.0 .
700(14) 0.0 0.0 .
702(14) 0.0 0.0 .
656(13) 0.0 0.0 .
708(14) 0.0 0.0 .
670(14) 0.0 0.0 .
699(14) 0.0 0.0 .
709(14) 0.0 0.0 .
722(14) 0.0 0.0 .
679(14) 0.0 0.0 .
678(14) 0.0 0.0 .
688(14) 0.0 0.0 .
711(14) 0.0 0.0 .
716(14) 0.0 0.0 .
695(14) 0.0 0.0 .
661(14) 0.0 0.0 .
686(14) 0.0 0.0 .
669(14) 0.0 0.0 .
660(13) 0.0 0.0 .
680(14) 0.0 0.0 .
676(14) 0.0 0.0 .
738(15) 0.0 0.0 .
706(14) 0.0 0.0 .
707(14) 0.0 0.0 .
679(14) 0.0 0.0 .
691(15) 0.0 0.0 .
697(14) 0.0 0.0 .
695(14) 0.0 0.0 .
672(13) 0.0 0.0 .
693(14) 0.0 0.0 .
696(15) 0.0 0.0 .
654(14) 0.0 0.0 .
684(14) 0.0 0.0 .
691(14) 0.0 0.0 .
689(14) 0.0 0.0 .
678(14) 0.0 0.0 .
663(14) 0.0 0.0 .
680(14) 0.0 0.0 .
649(13) 0.0 0.0 .
707(14) 0.0 0.0 .
670(14) 0.0 0.0 .
689(14) 0.0 0.0 .
660(13) 0.0 0.0 .
668(14) 0.0 0.0 .
637(13) 0.0 0.0 .
695(15) 0.0 0.0 .
675(14) 0.0 0.0 .
690(14) 0.0 0.0 .
690(14) 0.0 0.0 .
676(14) 0.0 0.0 .
680(14) 0.0 0.0 .
705(14) 0.0 0.0 .
665(13) 0.0 0.0 .
673(14) 0.0 0.0 .
653(14) 0.0 0.0 .
692(14) 0.0 0.0 .
685(14) 0.0 0.0 .
682(14) 0.0 0.0 .
684(14) 0.0 0.0 .
702(14) 0.0 0.0 .
668(14) 0.0 0.0 .
658(13) 0.0 0.0 .
665(13) 0.0 0.0 .
688(14) 0.0 0.0 .
707(15) 0.0 0.0 .
700(14) 0.0 0.0 .
641(13) 0.0 0.0 .
668(13) 0.0 0.0 .
690(14) 0.0 0.0 .
639(14) 0.0 0.0 .
673(14) 0.0 0.0 .
696(14) 0.0 0.0 .
671(13) 0.0 0.0 .
653(13) 0.0 0.0 .
668(14) 0.0 0.0 .
666(14) 0.0 0.0 .
691(14) 0.0 0.0 .
709(14) 0.0 0.0 .
701(14) 0.0 0.0 .
686(14) 0.0 0.0 .
653(14) 0.0 0.0 .
672(14) 0.0 0.0 .
677(14) 0.0 0.0 .
670(14) 0.0 0.0 .
659(14) 0.0 0.0 .
667(14) 0.0 0.0 .
655(13) 0.0 0.0 .
720(14) 0.0 0.0 .
657(14) 0.0 0.0 .
653(14) 0.0 0.0 .
667(14) 0.0 0.0 .
657(13) 0.0 0.0 .
675(14) 0.0 0.0 .
677(14) 0.0 0.0 .
656(14) 0.0 0.0 .
683(14) 0.0 0.0 .
674(13) 0.0 0.0 .
693(14) 0.0 0.0 .
678(14) 0.0 0.0 .
659(14) 0.0 0.0 .
657(14) 0.0 0.0 .
681(13) 0.0 0.0 .
665(14) 0.0 0.0 .
650(14) 0.0 0.0 .
663(14) 0.0 0.0 .
635(13) 0.0 0.0 .
656(13) 0.0 0.0 .
641(14) 0.0 0.0 .
664(14) 0.0 0.0 .
689(14) 0.0 0.0 .
663(14) 0.0 0.0 .
663(13) 0.0 0.0 .
662(14) 0.0 0.0 .
665(14) 0.0 0.0 .
640(13) 0.0 0.0 .
654(13) 0.0 0.0 .
646(13) 0.0 0.0 .
650(14) 0.0 0.0 .
682(15) 0.0 0.0 .
670(14) 0.0 0.0 .
675(14) 0.0 0.0 .
664(13) 0.0 0.0 .
636(13) 0.0 0.0 .
698(15) 0.0 0.0 .
671(14) 0.0 0.0 .
674(14) 0.0 0.0 .
661(13) 0.0 0.0 .
663(14) 0.0 0.0 .
683(15) 0.0 0.0 .
702(14) 0.0 0.0 .
699(14) 0.0 0.0 .
675(13) 0.0 0.0 .
693(14) 0.0 0.0 .
705(15) 0.0 0.0 .
673(14) 0.0 0.0 .
694(14) 0.0 0.0 .
710(14) 0.0 0.0 .
657(14) 0.0 0.0 .
680(14) 0.0 0.0 .
697(14) 0.0 0.0 .
711(14) 0.0 0.0 .
695(14) 0.0 0.0 .
678(14) 0.0 0.0 .
690(14) 0.0 0.0 .
682(14) 0.0 0.0 .
700(14) 0.0 0.0 .
676(14) 0.0 0.0 .
653(14) 0.0 0.0 .
673(14) 0.0 0.0 .
632(14) 0.0 0.0 .
696(14) 0.0 0.0 .
673(14) 0.0 0.0 .
657(14) 0.0 0.0 .
675(14) 0.0 0.0 .
665(14) 0.0 0.0 .
656(13) 0.0 0.0 .
669(14) 0.0 0.0 .
650(14) 0.0 0.0 .
682(14) 0.0 0.0 .
715(14) 0.0 0.0 .
673(13) 0.0 0.0 .
653(14) 0.0 0.0 .
739(15) 0.0 0.0 .
692(14) 0.0 0.0 .
702(14) 0.0 0.0 .
683(13) 0.0 0.0 .
686(14) 0.0 0.0 .
651(14) 0.0 0.0 .
668(14) 0.0 0.0 .
664(14) 0.0 0.0 .
684(14) 0.0 0.0 .
707(14) 0.0 0.0 .
673(14) 0.0 0.0 .
681(14) 0.0 0.0 .
717(14) 0.0 0.0 .
659(13) 0.0 0.0 .
723(14) 0.0 0.0 .
682(15) 0.0 0.0 .
686(14) 0.0 0.0 .
694(14) 0.0 0.0 .
699(14) 0.0 0.0 .
723(14) 0.0 0.0 .
702(15) 0.0 0.0 .
683(14) 0.0 0.0 .
707(14) 0.0 0.0 .
701(14) 0.0 0.0 .
689(14) 0.0 0.0 .
694(15) 0.0 0.0 .
691(14) 0.0 0.0 .
688(14) 0.0 0.0 .
691(14) 0.0 0.0 .
690(14) 0.0 0.0 .
649(14) 0.0 0.0 .
708(14) 0.0 0.0 .
705(14) 0.0 0.0 .
715(14) 0.0 0.0 .
715(15) 0.0 0.0 .
665(14) 0.0 0.0 .
676(14) 0.0 0.0 .
691(14) 0.0 0.0 .
706(14) 0.0 0.0 .
709(14) 0.0 0.0 .
685(14) 0.0 0.0 .
680(14) 0.0 0.0 .
711(14) 0.0 0.0 .
669(14) 0.0 0.0 .
724(15) 0.0 0.0 .
725(15) 0.0 0.0 .
717(14) 0.0 0.0 .
730(14) 0.0 0.0 .
701(14) 0.0 0.0 .
731(15) 0.0 0.0 .
687(14) 0.0 0.0 .
722(14) 0.0 0.0 .
701(14) 0.0 0.0 .
705(14) 0.0 0.0 .
733(15) 0.0 0.0 .
713(14) 0.0 0.0 .
736(14) 0.0 0.0 .
704(14) 0.0 0.0 .
768(15) 0.0 0.0 .
716(15) 0.0 0.0 .
723(14) 0.0 0.0 .
741(14) 0.0 0.0 .
746(14) 0.0 0.0 .
763(15) 0.0 0.0 .
774(16) 0.0 0.0 .
758(15) 0.0 0.0 .
748(14) 0.0 0.0 .
760(14) 0.0 0.0 .
761(15) 0.0 0.0 .
804(16) 0.0 0.0 .
823(16) 0.0 0.0 .
789(15) 0.0 0.0 .
811(15) 0.0 0.0 .
823(15) 0.0 0.0 .
847(16) 0.0 0.0 .
822(15) 0.0 0.0 .
854(15) 0.0 0.0 .
863(15) 0.0 0.0 .
877(16) 0.0 0.0 .
856(16) 0.0 0.0 .
874(16) 0.0 0.0 .
873(15) 0.0 0.0 .
893(16) 0.0 0.0 .
912(16) 0.0 0.0 .
903(16) 0.0 0.0 .
945(16) 0.0 0.0 .
930(16) 0.0 0.0 .
954(16) 0.0 0.0 .
969(17) 0.0 0.0 .
1007(17) 0.0 0.0 .
1033(17) 0.0 0.0 .
1024(17) 0.0 0.0 .
1101(17) 0.0 0.0 .
1137(18) 0.0 0.0 .
1180(19) 0.0 0.0 .
1197(18) 0.0 0.0 .
1232(18) 0.0 0.0 .
1304(19) 0.0 0.0 .
1341(20) 0.0 0.0 .
1452(21) 0.0 0.0 .
1564(21) 0.0 0.0 .
1684(21) 0.0 0.0 .
1884(23) 0.0 0.0 .
1989(24) 0.0 0.0 .
2302(26) 0.0 0.0 .
2760(28) 0.0 0.0 .
3284(30) 0.0 0.0 .
4031(34) 0.0 0.0 .
4964(39) 0.0 0. .
6175(42) 0.0 0. .
7714(46) 0.0 0. .
9425(51) 0.0 0. .
11576(58) 0.0 0. .
13753(66) 0.0 0. .
16195(69) 0.0 0. .
18761(72) 0.0 0. .
21220(77) 0.0 0. .
23608(84) 0.0 0. .
26265(92) 0.0 0. .
28976(94) 0.0 0. .
31597(95) 0.0 0. .
35440(100) 0.0 0. .
40240(110) 0.0 0. .
46030(120) 0.0 0. .
53510(130) 0.0 0. .
63040(140) 0.0 0. .
73980(150) 0.0 0. .
85040(170) 0.0 0. .
91390(180) 0.0 0. .
87480(170) 0.0 0. .
72320(150) 0.0 0. .
55310(130) 0.0 0. .
40150(110) 0.0 0. .
29197(95) 0.0 0. .
21565(80) 0.0 0. .
16087(67) 0.0 0. .
12592(60) 0.0 0. .
10150(55) 0.0 0. .
8223(49) 0.0 0. .
6960(45) 0.0 0. .
5842(40) 0.0 0. .
4981(38) 0.0 0. .
4397(36) 0.0 0. .
3863(34) 0.0 0.0 .
3541(32) 0.0 0.0 .
3151(29) 0.0 0.0 .
2888(29) 0.0 0.0 .
2658(28) 0.0 0.0 .
2430(27) 0.0 0.0 .
2180(25) 0.0 0.0 .
2055(24) 0.0 0.0 .
1896(24) 0.0 0.0 .
1793(23) 0.0 0.0 .
1709(22) 0.0 0.0 .
1624(21) 0.0 0.0 .
1582(21) 0.0 0.0 .
1490(21) 0.0 0.0 .
1417(21) 0.0 0.0 .
1356(20) 0.0 0.0 .
1332(19) 0.0 0.0 .
1283(19) 0.0 0.0 .
1245(19) 0.0 0.0 .
1138(19) 0.0 0.0 .
1119(18) 0.0 0.0 .
1107(17) 0.0 0.0 .
1032(17) 0.0 0.0 .
1034(17) 0.0 0.0 .
1023(18) 0.0 0.0 .
995(17) 0.0 0.0 .
984(16) 0.0 0.0 .
947(16) 0.0 0.0 .
936(16) 0.0 0.0 .
926(17) 0.0 0.0 .
913(16) 0.0 0.0 .
852(15) 0.0 0.0 .
920(16) 0.0 0.0 .
856(16) 0.0 0.0 .
863(16) 0.0 0.0 .
842(16) 0.0 0.0 .
849(15) 0.0 0.0 .
790(15) 0.0 0.0 .
806(15) 0.0 0.0 .
798(15) 0.0 0.0 .
799(15) 0.0 0.0 .
812(15) 0.0 0.0 .
750(14) 0.0 0.0 .
806(15) 0.0 0.0 .
755(15) 0.0 0.0 .
749(15) 0.0 0.0 .
722(14) 0.0 0.0 .
755(15) 0.0 0.0 .
760(15) 0.0 0.0 .
766(15) 0.0 0.0 .
752(14) 0.0 0.0 .
751(14) 0.0 0.0 .
726(14) 0.0 0.0 .
750(15) 0.0 0.0 .
744(15) 0.0 0.0 .
769(15) 0.0 0.0 .
725(14) 0.0 0.0 .
703(14) 0.0 0.0 .
725(15) 0.0 0.0 .
717(14) 0.0 0.0 .
689(14) 0.0 0.0 .
693(14) 0.0 0.0 .
708(14) 0.0 0.0 .
704(15) 0.0 0.0 .
698(14) 0.0 0.0 .
706(14) 0.0 0.0 .
707(14) 0.0 0.0 .
732(15) 0.0 0.0 .
733(15) 0.0 0.0 .
668(14) 0.0 0.0 .
658(13) 0.0 0.0 .
674(14) 0.0 0.0 .
699(14) 0.0 0.0 .
682(14) 0.0 0.0 .
678(14) 0.0 0.0 .
630(13) 0.0 0.0 .
635(13) 0.0 0.0 .
649(14) 0.0 0.0 .
659(14) 0.0 0.0 .
667(14) 0.0 0.0 .
688(14) 0.0 0.0 .
656(13) 0.0 0.0 .
670(14) 0.0 0.0 .
630(14) 0.0 0.0 .
614(13) 0.0 0.0 .
670(14) 0.0 0.0 .
627(13) 0.0 0.0 .
643(13) 0.0 0.0 .
663(14) 0.0 0.0 .
676(14) 0.0 0.0 .
641(13) 0.0 0.0 .
640(13) 0.0 0.0 .
658(14) 0.0 0.0 .
670(14) 0.0 0.0 .
639(14) 0.0 0.0 .
644(13) 0.0 0.0 .
668(14) 0.0 0.0 .
656(14) 0.0 0.0 .
662(14) 0.0 0.0 .
638(14) 0.0 0.0 .
608(13) 0.0 0.0 .
645(14) 0.0 0.0 .
623(13) 0.0 0.0 .
616(13) 0.0 0.0 .
652(13) 0.00528 635.8 61.2
667(13) 0.00528 635.6 60.2
643(14) 0.00503 635.2 59.2
628(14) 0.00516 634.7 58.3
641(14) 0.00515 634.2 57.3
638(13) 0.00534 633.8 56.4
653(13) 0.00540 633.3 55.5
631(13) 0.00528 632.8 0.0
625(14) 0.00511 632.4 0.0
623(13) 0.00531 631.9 0.0
637(13) 0.00547 631.5 0.0
648(13) 0.00547 631.0 0.0
630(13) 0.00526 630.5 0.0
616(14) 0.00506 630.1 0.0
607(13) 0.00537 629.6 0.0
618(13) 0.00563 629.1 0.0
656(13) 0.00540 628.7 0.0
648(14) 0.00498 628.2 0.0
624(14) 0.00495 627.8 0.0
638(14) 0.00514 627.3 0.0
622(13) 0.00567 626.8 0.0
625(13) 0.00558 626.4 0.0
630(13) 0.00535 625.9 0.0
626(14) 0.00492 625.4 0.0
585(13) 0.00569 625.0 0.0
634(13) 0.00553 624.5 0.0
624(13) 0.00555 624.1 0.0
633(13) 0.00530 623.6 0.0
621(14) 0.00515 623.1 0.0
617(13) 0.00529 622.7 0.0
621(13) 0.00569 622.2 0.0
616(13) 0.00563 621.7 0.0
632(13) 0.00526 621.3 0.0
645(14) 0.00482 620.8 0.0
609(13) 0.00533 620.4 0.0
592(13) 0.00599 619.9 0.0
615(13) 0.00562 619.4 0.0
618(14) 0.00515 619.0 0.0
605(13) 0.00528 618.5 0.0
621(13) 0.00525 618.0 0.0
622(13) 0.00567 617.6 0.0
583(13) 0.00588 617.1 0.0
623(13) 0.00533 616.7 0.0
607(13) 0.00539 616.2 0.0
617(13) 0.00540 615.7 0.0
596(13) 0.00592 615.3 0.0
606(13) 0.00551 614.8 0.0
574(13) 0.00559 614.3 0.0
596(13) 0.00544 613.9 0.0
599(13) 0.00563 613.4 0.0
613(13) 0.00574 613.0 0.0
608(13) 0.00540 612.5 0.0
597(14) 0.00521 612.0 0.0
574(13) 0.00569 611.6 0.0
573(13) 0.00604 611.1 0.0
567(12) 0.00614 610.6 0.0
639(14) 0.00516 610.2 0.0
588(13) 0.00543 609.7 0.0
603(13) 0.00539 609.3 0.0
580(13) 0.00589 608.8 0.0
598(13) 0.00588 608.3 0.0
602(13) 0.00555 607.9 0.0
611(14) 0.00508 607.4 0.0
569(13) 0.00574 606.9 0.0
611(13) 0.00569 606.5 0.0
595(13) 0.00591 606.0 0.0
571(13) 0.00581 605.6 0.0
600(14) 0.00502 605.1 0.0
609(13) 0.00533 604.6 0.0
567(12) 0.00609 604.2 0.0
596(13) 0.00592 603.7 0.0
578(13) 0.00574 603.2 0.0
618(14) 0.00492 602.8 0.0
594(13) 0.00561 602.3 0.0
564(12) 0.00622 601.9 0.0
586(12) 0.00606 601.4 0.0
604(13) 0.00552 600.9 0.0
606(14) 0.00507 600.5 0.0
567(13) 0.00581 600.0 0.0
575(12) 0.00607 599.5 0.0
571(13) 0.00603 599.1 0.0
578(13) 0.00587 598.6 0.0
581(13) 0.00550 598.2 0.0
577(13) 0.00565 597.7 0.0
597(13) 0.00587 597.2 0.0
627(13) 0.00547 596.8 0.0
586(13) 0.00582 596.3 0.0
593(13) 0.00531 595.8 0.8
584(13) 0.00559 595.4 0.8
583(13) 0.00602 594.9 0.8
581(13) 0.00576 594.4 0.8
564(13) 0.00582 594.0 0.8
607(13) 0.00529 593.5 0.9
623(13) 0.00541 593.1 0.9
606(13) 0.00582 592.6 0.9
618(13) 0.00534 592.1 0.9
589(13) 0.00532 591.7 0.9
553(13) 0.00596 591.2 0.9
577(13) 0.00570 590.7 1.0
574(12) 0.00619 590.3 1.0
606(13) 0.00537 589.8 1.0
612(14) 0.00517 589.4 1.0
598(13) 0.00546 588.9 1.0
599(13) 0.00582 588.4 1.0
617(13) 0.00568 588.0 1.1
617(13) 0.00533 587.5 1.1
622(14) 0.00505 587.0 1.1
572(13) 0.00567 586.6 1.1
599(13) 0.00577 586.1 1.1
586(13) 0.00599 585.7 1.2
579(13) 0.00565 585.2 1.2
591(13) 0.00528 584.7 1.2
585(13) 0.00547 584.3 1.2
558(12) 0.00625 583.8 1.3
583(13) 0.00598 583.3 1.3
576(13) 0.00579 582.9 1.3
569(13) 0.00547 582.4 1.3
566(13) 0.00579 582.0 1.4
569(12) 0.00614 581.5 1.4
576(13) 0.00602 581.0 1.4
570(13) 0.00583 580.6 1.4
590(14) 0.00523 580.1 1.5
587(13) 0.00572 579.6 1.5
593(13) 0.00594 579.5 1.5
547(12) 0.00637 579.3 1.6
588(13) 0.00558 579.2 1.6
616(14) 0.00495 579.1 1.7
571(13) 0.00586 578.9 1.7
550(12) 0.00638 578.8 1.7
582(13) 0.00595 578.7 1.8
583(13) 0.00570 578.5 1.8
606(14) 0.00510 578.4 1.9
576(13) 0.00583 578.3 1.9
576(12) 0.00607 578.1 1.9
566(12) 0.00611 578.0 2.0
606(13) 0.00538 577.9 2.0
572(13) 0.00561 577.7 2.1
549(12) 0.00608 577.6 2.2
575(12) 0.00610 577.5 2.2
529(12) 0.00652 577.3 2.3
583(13) 0.00553 577.2 2.3
561(13) 0.00568 577.0 2.4
579(13) 0.00565 576.9 2.5
574(12) 0.00613 576.8 2.5
567(12) 0.00608 576.6 2.6
574(13) 0.00582 576.5 2.7
569(13) 0.00571 576.4 2.8
588(13) 0.00567 576.2 2.8
581(12) 0.00606 576.1 2.9
595(13) 0.00554 576.0 3.0
539(12) 0.00613 575.8 3.1
578(13) 0.00559 575.7 3.2
587(13) 0.00582 575.6 3.3
597(13) 0.00592 575.4 3.4
555(13) 0.00587 575.3 3.5
591(13) 0.00524 575.2 3.6
554(13) 0.00605 575.0 3.8
560(12) 0.00612 574.9 3.9
597(13) 0.00591 574.8 4.0
601(13) 0.00550 574.6 4.2
590(13) 0.00543 574.5 4.3
590(13) 0.00562 574.4 4.5
551(12) 0.00636 574.2 4.7
561(12) 0.00621 574.1 4.9
567(13) 0.00587 574.0 5.1
612(14) 0.00497 573.8 5.3
574(13) 0.00583 573.7 5.5
581(13) 0.00597 573.6 5.7
545(12) 0.00638 573.4 5.9
575(13) 0.00567 573.3 6.2
566(13) 0.00541 573.2 6.5
551(13) 0.00604 573.0 6.8
576(12) 0.00611 572.9 7.1
574(13) 0.00604 572.8 7.5
560(13) 0.00596 572.6 7.8
588(13) 0.00529 572.5 8.2
571(13) 0.00578 572.4 8.6
576(12) 0.00608 572.2 9.1
573(13) 0.00602 572.1 9.6
546(12) 0.00609 572.0 10.1
562(13) 0.00578 571.8 10.7
606(13) 0.00550 571.7 11.4
588(13) 0.00595 571.6 12.1
583(13) 0.00590 571.4 12.8
600(13) 0.00548 571.3 13.7
590(13) 0.00530 571.2 14.6
575(13) 0.00559 571.0 15.6
588(12) 0.00605 570.9 16.7
616(13) 0.00562 570.8 18.0
616(13) 0.00529 570.6 19.4
579(13) 0.00568 570.5 20.9
609(13) 0.00546 570.4 22.7
598(13) 0.00589 570.2 24.7
614(13) 0.00559 570.1 26.9
605(13) 0.00546 570.0 29.5
613(13) 0.00535 569.8 32.4
645(13) 0.00527 569.7 35.8
648(13) 0.00544 569.6 39.8
666(14) 0.00512 569.4 44.5
641(14) 0.00514 569.3 50.2
708(15) 0.00447 569.1 57.2
703(14) 0.00489 569.0 66.4
785(15) 0.00454 568.9 78.5
789(15) 0.00424 568.7 95.1
817(16) 0.00391 568.6 118.2
847(16) 0.00385 568.5 150.6
901(16) 0.00379 568.3 195.4
912(16) 0.00391 568.2 255.7
946(16) 0.00356 568.1 334.0
974(17) 0.003290 567.9 431.1
1043(17) 0.003214 567.8 545.4
1108(17) 0.003204 567.7 670.6
1184(18) 0.003081 567.5 794.2
1280(19) 0.002621 567.4 896.0
1319(20) 0.002403 567.3 951.2
1325(19) 0.002571 567.1 942.5
1310(19) 0.002735 567.0 872.8
1194(18) 0.003030 566.9 762.9
1098(18) 0.003013 566.7 637.2
974(18) 0.003150 566.6 513.9
853(16) 0.00392 566.5 403.8
787(15) 0.00454 566.3 311.6
685(14) 0.00519 566.2 238.2
633(13) 0.00533 566.1 182.3
654(14) 0.00480 565.9 141.1
625(13) 0.00537 565.8 111.4
587(13) 0.00602 565.7 90.2
636(13) 0.00550 565.5 74.9
579(13) 0.00565 565.4 63.7
584(13) 0.00536 565.3 55.2
585(13) 0.00566 565.1 48.5
572(12) 0.00617 565.0 43.1
597(13) 0.00570 564.9 38.6
590(13) 0.00559 564.7 34.8
562(13) 0.00567 564.6 31.6
578(13) 0.00562 564.5 28.7
564(12) 0.00626 564.3 26.3
572(13) 0.00590 564.2 24.1
548(13) 0.00604 564.1 22.2
555(13) 0.00562 563.9 20.5
582(13) 0.00571 563.8 19.0
540(12) 0.00647 563.7 17.6
555(13) 0.00599 563.5 16.4
597(13) 0.00526 563.4 15.3
578(13) 0.00565 563.3 14.3
583(13) 0.00572 563.1 13.4
541(12) 0.00640 563.0 12.6
566(13) 0.00597 562.9 11.9
552(13) 0.00582 562.7 11.2
567(13) 0.00556 562.6 10.6
568(13) 0.00596 562.5 10.0
572(12) 0.00610 562.3 9.5
550(13) 0.00584 562.2 9.0
528(13) 0.00592 562.1 8.5
559(13) 0.00575 561.9 8.1
569(13) 0.00589 561.8 7.7
565(12) 0.00613 561.7 7.4
564(13) 0.00590 561.5 7.0
548(13) 0.00586 561.4 6.7
537(13) 0.00602 561.3 6.4
531(12) 0.00635 561.1 6.1
571(12) 0.00617 561.0 5.9
546(13) 0.00596 560.8 5.6
584(13) 0.00533 560.7 5.4
578(13) 0.00571 560.6 5.2
568(12) 0.00612 560.4 5.0
571(12) 0.00606 560.3 4.8
583(13) 0.00565 560.2 4.6
568(13) 0.00544 560.0 4.5
551(13) 0.00584 559.9 4.3
549(12) 0.00623 559.8 4.1
586(13) 0.00590 559.6 4.0
566(13) 0.00589 559.5 3.9
558(13) 0.00548 559.4 3.7
529(12) 0.00631 559.2 3.6
543(12) 0.00647 559.1 3.5
571(12) 0.00612 559.0 3.4
587(13) 0.00563 558.8 3.3
549(13) 0.00552 558.7 3.2
528(12) 0.00626 558.6 3.1
533(12) 0.00651 558.4 3.0
532(12) 0.00652 558.3 2.9
542(12) 0.00607 558.2 2.8
551(13) 0.00575 558.0 2.7
567(13) 0.00568 557.9 2.7
550(12) 0.00638 557.8 2.6
550(12) 0.00627 557.6 2.5
550(13) 0.00593 557.5 2.4
545(13) 0.00595 557.4 2.4
566(13) 0.00569 557.2 2.3
522(12) 0.00664 557.1 2.3
574(13) 0.00592 557.0 2.2
532(12) 0.00609 556.8 2.1
548(13) 0.00573 556.7 2.1
573(13) 0.00587 556.6 2.0
556(12) 0.00631 556.4 2.0
542(12) 0.00633 556.3 1.9
540(12) 0.00610 556.2 1.9
544(13) 0.00597 556.0 1.8
586(13) 0.00549 555.9 1.8
555(12) 0.00633 555.8 1.8
552(13) 0.00597 555.7 1.7
542(13) 0.00601 555.6 1.7
529(12) 0.00624 555.4 1.6
559(13) 0.00603 555.3 1.6
552(12) 0.00634 555.2 1.6
543(12) 0.00608 555.1 1.5
591(13) 0.00545 555.0 1.5
567(13) 0.00594 554.9 1.5
583(13) 0.00588 554.8 1.4
565(12) 0.00623 554.7 1.4
546(13) 0.00598 554.6 1.4
510(12) 0.00608 554.5 1.4
556(13) 0.00574 554.4 1.3
556(12) 0.00623 554.3 1.3
532(12) 0.00656 554.2 1.3
532(12) 0.00638 554.1 1.2
583(13) 0.00530 554.0 1.2
520(12) 0.00659 553.9 1.2
547(12) 0.00643 553.8 1.2
542(12) 0.00642 553.7 1.2
512(12) 0.00655 553.6 1.1
523(13) 0.00587 553.5 1.1
578(13) 0.00565 553.4 1.1
536(12) 0.00646 553.3 1.1
548(12) 0.00638 553.2 1.1
556(13) 0.00595 553.1 1.0
567(13) 0.00547 553.0 1.0
541(13) 0.00599 552.9 1.0
520(12) 0.00675 552.8 1.0
541(12) 0.00627 552.7 1.0
553(13) 0.00588 552.6 0.9
550(13) 0.00553 552.5 0.9
503(12) 0.00649 552.4 0.9
547(12) 0.00640 552.3 0.9
559(12) 0.00612 552.2 0.9
512(12) 0.00655 552.1 0.9
535(13) 0.00600 552.0 0.9
537(12) 0.00614 551.9 0.8
553(12) 0.00637 551.8 0.8
549(12) 0.00619 551.6 0.0
553(13) 0.00583 551.5 0.0
518(12) 0.00610 551.4 0.0
533(12) 0.00616 551.3 0.0
550(12) 0.00639 551.2 0.0
540(12) 0.00609 551.1 0.0
541(13) 0.00595 551.0 0.0
538(13) 0.00595 550.9 0.0
556(13) 0.00585 550.8 0.0
518(12) 0.00674 550.7 0.0
541(12) 0.00612 550.6 0.0
521(12) 0.00611 550.5 0.0
502(12) 0.00664 550.4 0.0
570(13) 0.00592 550.3 0.0
540(12) 0.00646 550.2 0.0
538(12) 0.00607 550.1 0.0
531(13) 0.00596 550.0 0.0
565(13) 0.00576 549.9 0.0
536(12) 0.00640 549.8 0.0
541(12) 0.00649 549.7 0.0
537(13) 0.00588 549.6 0.0
547(13) 0.00574 549.5 0.0
547(12) 0.00608 549.4 0.0
541(12) 0.00642 549.3 0.0
568(12) 0.00618 549.2 0.0
549(12) 0.00610 549.1 0.0
545(13) 0.00580 549.0 0.0
537(12) 0.00615 548.9 0.0
510(12) 0.00695 548.8 0.0
550(12) 0.00629 548.7 0.0
527(12) 0.00624 548.6 0.0
556(13) 0.00553 548.5 0.0
539(13) 0.00594 548.4 0.0
550(12) 0.00643 548.3 0.0
543(12) 0.00636 548.2 0.0
525(12) 0.00613 548.1 0.0
552(13) 0.00557 548.0 0.0
533(12) 0.00612 547.9 0.0
556(12) 0.00638 547.7 0.0
546(12) 0.00641 547.6 0.0
533(12) 0.00621 547.5 0.0
526(13) 0.00592 547.4 0.0
520(12) 0.00611 547.3 0.0
545(12) 0.00639 547.2 0.0
539(12) 0.00640 547.1 0.0
547(13) 0.00604 547.0 0.0
541(13) 0.00592 546.9 0.0
529(12) 0.00631 546.8 0.0
506(12) 0.00698 546.7 0.0
553(12) 0.00613 546.6 0.0
550(13) 0.00578 546.5 0.0
529(13) 0.00594 546.4 0.0
525(12) 0.00621 546.3 0.0
543(12) 0.00650 546.2 0.0
540(12) 0.00627 546.1 0.0
549(13) 0.00602 546.0 0.0
588(13) 0.00533 545.9 0.0
543(12) 0.00615 545.8 0.0
536(12) 0.00651 545.7 0.0
537(12) 0.00616 545.6 0.0
568(13) 0.00566 545.5 0.0
530(12) 0.00616 545.4 0.0
541(12) 0.00617 545.3 0.0
549(12) 0.00638 545.2 0.0
570(13) 0.00568 545.1 0.0
558(13) 0.00560 545.0 0.0
528(12) 0.00605 544.9 0.0
538(12) 0.00633 544.8 0.0
526(12) 0.00662 544.7 0.0
526(12) 0.00609 544.6 0.0
514(13) 0.00601 544.5 0.0
551(13) 0.00584 544.4 0.0
541(12) 0.00638 544.3 0.0
520(12) 0.00675 544.2 0.0
496(12) 0.00652 544.1 0.0
529(13) 0.00575 543.9 0.0
534(13) 0.00599 543.8 0.0
538(12) 0.00642 543.7 0.0
526(12) 0.00654 543.6 0.0
573(13) 0.00577 543.5 0.0
529(13) 0.00572 543.4 0.0
529(12) 0.00622 543.4 0.0
525(12) 0.00667 543.4 0.0
517(12) 0.00669 543.4 0.0
557(13) 0.00586 543.4 0.0
547(13) 0.00560 543.4 0.0
528(12) 0.00626 543.4 0.0
564(12) 0.00623 543.4 0.0
533(12) 0.00656 543.4 0.0
569(13) 0.00568 543.4 0.0
544(13) 0.00569 543.4 0.0
552(13) 0.00598 543.4 0.0
562(12) 0.00625 543.4 0.0
560(12) 0.00608 543.4 0.0
556(13) 0.00594 543.4 0.0
544(13) 0.00593 543.4 0.0
546(12) 0.00606 543.4 0.0
549(12) 0.00637 543.4 0.0
547(12) 0.00640 543.4 0.0
571(13) 0.00579 543.4 0.0
559(13) 0.00562 543.5 0.0
536(13) 0.00596 543.5 0.0
550(12) 0.00634 543.5 0.0
519(12) 0.00665 543.5 0.0
540(12) 0.00612 543.5 0.0
554(13) 0.00592 543.5 0.0
572(13) 0.00590 543.5 0.0
568(12) 0.00613 543.5 0.0
567(13) 0.00583 543.5 0.0
571(13) 0.00547 543.5 0.0
558(13) 0.00586 543.5 0.0
543(12) 0.00624 543.5 0.0
548(12) 0.00636 543.5 0.0
537(12) 0.00619 543.5 0.0
575(13) 0.00543 543.5 0.0
543(13) 0.00592 543.5 0.0
529(12) 0.00641 543.5 0.0
530(12) 0.00660 543.5 0.0
545(13) 0.00598 543.6 0.0
568(13) 0.00568 543.6 0.0
552(13) 0.00604 543.6 0.0
539(12) 0.00647 543.6 0.0
534(12) 0.00657 543.6 0.0
519(12) 0.00644 543.6 0.0
524(13) 0.00601 543.6 0.0
514(12) 0.00638 543.6 0.0
542(12) 0.00638 543.6 0.0
527(12) 0.00660 543.6 0.0
536(12) 0.00613 543.6 0.0
546(13) 0.00573 543.6 0.0
581(13) 0.00560 543.6 0.0
551(12) 0.00640 543.6 0.0
524(12) 0.00660 543.6 0.0
549(13) 0.00597 543.6 0.0
522(13) 0.00585 543.6 0.0
521(12) 0.00627 543.6 0.0
541(12) 0.00646 543.6 0.0
580(13) 0.00593 543.7 0.0
529(12) 0.00637 543.7 0.0
568(13) 0.00546 543.7 0.0
558(13) 0.00590 543.7 0.0
552(12) 0.00628 543.7 0.0
542(12) 0.00634 543.7 0.0
550(13) 0.00586 543.7 0.0
548(13) 0.00560 543.7 0.0
572(13) 0.00551 543.7 0.0
566(12) 0.00620 543.7 0.0
543(12) 0.00632 543.7 0.0
546(12) 0.00614 543.7 0.0
543(13) 0.00587 543.7 0.0
529(12) 0.00620 543.7 0.0
544(12) 0.00647 543.7 0.0
534(12) 0.00634 543.7 0.0
574(13) 0.00559 543.7 0.0
517(12) 0.00632 543.7 0.0
555(13) 0.00599 543.8 0.0
509(12) 0.00680 543.8 0.0
520(12) 0.00641 543.8 0.0
534(13) 0.00578 543.8 0.0
520(12) 0.00616 543.8 0.0
524(12) 0.00651 543.8 0.0
539(12) 0.00649 543.8 0.0
540(12) 0.00611 543.8 0.0
530(13) 0.00599 543.8 0.0
553(13) 0.00587 543.8 0.0
557(12) 0.00615 543.8 0.0
520(12) 0.00670 543.8 0.0
530(12) 0.00606 543.8 0.0
562(13) 0.00560 543.8 0.0
531(12) 0.00626 543.8 0.0
549(12) 0.00623 543.8 0.0
530(12) 0.00655 543.8 0.0
535(13) 0.00601 543.8 0.0
540(13) 0.00593 543.9 0.0
525(12) 0.00632 543.9 0.0
555(12) 0.00611 543.9 0.0
539(12) 0.00651 543.9 0.0
551(12) 0.00606 543.9 0.0
550(13) 0.00572 543.9 0.0
547(13) 0.00601 543.9 0.0
512(12) 0.00684 543.9 0.0
538(12) 0.00643 543.9 0.0
508(12) 0.00641 543.9 0.0
533(13) 0.00579 543.9 0.0
549(12) 0.00607 543.9 0.0
534(12) 0.00650 543.9 0.0
534(12) 0.00633 543.9 0.0
555(13) 0.00598 543.9 0.0
563(13) 0.00541 543.9 0.0
536(13) 0.00598 543.9 0.0
513(12) 0.00681 543.9 0.0
548(12) 0.00627 543.9 0.0
514(12) 0.00636 544.0 0.0
529(13) 0.00567 544.0 0.0
535(13) 0.00602 544.0 0.0
531(12) 0.00656 544.0 0.0
545(12) 0.00637 544.0 0.0
565(13) 0.00581 544.0 0.0
539(13) 0.00592 544.0 0.0
547(13) 0.00600 544.0 0.0
551(12) 0.00636 544.0 0.0
539(12) 0.00631 544.0 0.0
548(13) 0.00598 544.0 0.0
561(13) 0.00564 544.0 0.0
545(13) 0.00597 544.0 0.0
540(12) 0.00645 544.0 0.0
534(12) 0.00636 544.0 0.0
515(12) 0.00657 544.0 0.0
544(13) 0.00600 544.0 0.0
521(12) 0.00655 544.0 0.0
514(12) 0.00683 544.1 0.0
548(12) 0.00612 544.1 0.0
561(13) 0.00572 544.1 0.0
540(13) 0.00597 544.1 0.0
555(13) 0.00601 544.1 0.0
547(12) 0.00638 544.1 0.0
546(13) 0.00597 544.1 0.0
511(12) 0.00631 544.1 0.0
549(13) 0.00594 544.1 0.0
565(12) 0.00611 544.1 0.0
570(12) 0.00616 544.1 0.0
576(13) 0.00574 544.1 0.0
534(13) 0.00591 544.1 0.0
525(12) 0.00611 544.1 0.0
515(12) 0.00654 544.1 0.0
523(12) 0.00673 544.1 0.0
547(12) 0.00608 544.1 0.0
518(12) 0.00615 544.1 0.0
514(12) 0.00646 544.1 0.0
510(12) 0.00678 544.2 0.0
541(12) 0.00647 544.2 0.0
564(13) 0.00580 544.2 0.0
563(13) 0.00539 544.2 0.0
560(13) 0.00581 544.2 0.0
528(12) 0.00666 544.2 0.0
586(13) 0.00597 544.2 0.0
541(12) 0.00619 544.2 0.0
568(13) 0.00546 544.2 0.0
548(13) 0.00586 544.2 0.0
510(12) 0.00686 544.2 0.0
523(12) 0.00662 544.2 0.0
536(13) 0.00604 544.2 0.0
519(13) 0.00596 544.2 0.0
559(13) 0.00581 544.2 0.0
518(12) 0.00674 544.2 0.0
503(12) 0.00689 544.2 0.0
538(12) 0.00613 544.2 0.0
534(13) 0.00587 544.3 0.0
546(13) 0.00592 544.3 0.0
528(12) 0.00657 544.3 0.0
538(12) 0.00635 544.3 0.0
558(13) 0.00584 544.3 0.0
556(13) 0.00567 544.3 0.0
523(12) 0.00639 544.3 0.0
535(12) 0.00656 544.3 0.0
542(12) 0.00613 544.3 0.0
542(13) 0.00597 544.3 0.0
543(13) 0.00599 544.4 0.0
522(12) 0.00644 544.4 0.0
511(12) 0.00682 544.5 0.0
526(12) 0.00622 544.6 0.0
552(13) 0.00573 544.6 0.0
537(13) 0.00604 544.7 0.0
534(12) 0.00641 544.7 0.0
537(12) 0.00652 544.8 0.0
534(13) 0.00592 544.9 0.0
510(12) 0.00628 544.9 0.0
534(12) 0.00621 545.0 0.0
535(12) 0.00639 545.1 0.0
562(12) 0.00626 545.1 0.0
572(13) 0.00553 545.2 0.0
532(13) 0.00589 545.2 0.0
520(12) 0.00636 545.3 0.0
570(13) 0.00603 545.4 0.0
580(12) 0.00607 545.4 0.0
548(12) 0.00611 545.5 0.0
550(13) 0.00554 545.6 0.0
568(13) 0.00568 545.6 0.0
554(12) 0.00625 545.7 0.0
521(12) 0.00670 545.7 0.0
562(13) 0.00591 545.8 0.0
542(13) 0.00583 545.9 0.0
560(13) 0.00591 545.9 0.0
541(12) 0.00643 546.0 0.0
532(12) 0.00667 546.1 0.0
545(12) 0.00607 546.1 0.0
555(13) 0.00555 546.2 0.0
523(12) 0.00638 546.2 0.0
542(12) 0.00651 546.3 0.0
537(12) 0.00647 546.4 0.0
578(13) 0.00574 546.4 0.0
542(13) 0.00582 546.5 0.0
543(13) 0.00590 546.6 0.0
513(12) 0.00680 546.6 0.0
519(12) 0.00681 546.7 0.0
533(12) 0.00609 546.7 0.0
557(13) 0.00553 546.8 0.0
551(13) 0.00594 546.9 0.0
530(12) 0.00663 546.9 0.0
563(12) 0.00614 547.0 0.0
553(13) 0.00585 547.1 0.0
515(12) 0.00607 547.1 0.0
560(13) 0.00568 547.2 0.0
567(12) 0.00618 547.2 0.0
541(12) 0.00625 547.3 0.0
533(12) 0.00619 547.4 0.0
551(13) 0.00573 547.4 0.0
563(13) 0.00598 547.5 0.0
561(12) 0.00628 547.6 0.0
539(12) 0.00623 547.6 0.0
562(13) 0.00578 547.7 0.0
548(13) 0.00592 547.7 0.0
558(12) 0.00606 547.8 0.0
546(12) 0.00642 547.9 0.0
529(12) 0.00644 547.9 0.0
503(12) 0.00640 548.0 0.0
571(13) 0.00569 548.1 0.0
567(12) 0.00606 548.1 0.0
539(12) 0.00649 548.2 0.0
552(13) 0.00604 548.2 0.0
540(13) 0.00591 548.3 0.0
590(13) 0.00539 548.4 0.0
565(13) 0.00592 548.4 0.0
584(13) 0.00600 548.5 0.0
578(13) 0.00567 548.6 0.0
578(13) 0.00540 548.6 0.0
577(13) 0.00556 548.7 0.0
546(12) 0.00639 548.7 0.0
583(12) 0.00609 548.8 0.0
541(13) 0.00594 548.9 0.0
569(13) 0.00543 548.9 0.0
560(13) 0.00593 549.0 0.0
574(12) 0.00615 549.1 0.0
554(12) 0.00632 549.1 0.0
545(13) 0.00596 549.2 0.0
552(13) 0.00550 549.2 0.0
576(13) 0.00566 549.3 0.0
576(12) 0.00607 549.4 0.0
576(13) 0.00604 549.4 0.0
544(12) 0.00611 549.5 0.0
564(13) 0.00548 549.6 0.0
564(13) 0.00582 549.6 0.0
553(12) 0.00631 549.7 0.0
551(12) 0.00617 549.7 0.0
538(12) 0.00621 549.8 0.0
520(12) 0.00609 549.9 0.0
518(12) 0.00628 549.9 0.0
558(12) 0.00627 550.0 0.0
539(12) 0.00641 550.1 0.0
504(12) 0.00649 550.1 0.0
549(13) 0.00569 550.2 0.0
565(13) 0.00558 550.2 0.0
590(13) 0.00600 550.3 0.0
539(12) 0.00611 550.4 0.0
560(13) 0.00567 550.4 0.0
563(13) 0.00563 550.5 0.0
563(13) 0.00580 550.6 0.0
537(12) 0.00648 550.6 0.0
549(13) 0.00602 550.7 0.0
490(12) 0.00666 550.7 0.0
547(13) 0.00595 550.8 0.0
575(13) 0.00593 550.9 0.0
568(12) 0.00618 550.9 0.0
563(13) 0.00591 551.0 0.0
527(12) 0.00620 551.1 0.0
555(13) 0.00584 551.1 0.0
513(12) 0.00659 551.2 0.0
546(12) 0.00641 551.2 0.0
585(13) 0.00546 551.3 0.0
551(13) 0.00560 551.4 0.0
526(12) 0.00629 551.4 0.0
577(13) 0.00589 551.5 0.0
544(12) 0.00650 551.6 0.0
529(12) 0.00611 551.6 0.0
554(13) 0.00573 551.7 0.0
563(13) 0.00594 551.7 0.0
553(12) 0.00625 551.8 0.0
542(12) 0.00648 551.9 0.0
516(12) 0.00618 551.9 0.0
541(13) 0.00563 552.0 0.0
563(13) 0.00592 552.0 0.0
550(12) 0.00637 552.1 0.0
537(12) 0.00645 552.2 0.0
571(13) 0.00577 552.2 0.0
583(14) 0.00517 552.3 0.0
524(12) 0.00638 552.4 0.0
557(12) 0.00633 552.4 0.0
584(13) 0.00593 552.5 0.0
574(13) 0.00572 552.5 0.1
581(14) 0.00521 552.6 0.1
533(12) 0.00628 552.7 0.1
597(13) 0.00585 552.7 0.1
584(13) 0.00605 552.8 0.1
548(13) 0.00600 552.9 0.1
544(13) 0.00562 552.9 0.1
529(12) 0.00611 553.0 0.1
556(12) 0.00629 553.0 0.1
554(12) 0.00624 553.1 0.1
544(13) 0.00601 553.2 0.1
534(13) 0.00598 553.2 0.1
552(13) 0.00594 553.3 0.1
529(12) 0.00655 553.4 0.1
547(12) 0.00615 553.4 0.1
544(13) 0.00601 553.5 0.1
574(13) 0.00549 553.5 0.1
522(12) 0.00638 553.6 0.1
559(12) 0.00622 553.7 0.1
553(12) 0.00609 553.7 0.1
548(13) 0.00586 553.8 0.1
574(13) 0.00560 553.9 0.1
568(13) 0.00592 553.9 0.1
562(12) 0.00627 554.0 0.1
550(13) 0.00600 554.0 0.1
543(13) 0.00575 554.1 0.1
539(13) 0.00586 554.2 0.1
537(12) 0.00622 554.2 0.1
505(12) 0.00690 554.3 0.1
512(12) 0.00642 554.4 0.2
536(13) 0.00588 554.4 0.2
553(13) 0.00594 554.5 0.2
547(12) 0.00629 554.5 0.2
543(12) 0.00646 554.6 0.2
546(12) 0.00608 554.7 0.2
537(13) 0.00595 554.7 0.2
565(13) 0.00589 554.8 0.2
558(12) 0.00621 554.9 0.2
532(12) 0.00660 554.9 0.3
554(13) 0.00590 555.0 0.3
548(13) 0.00548 555.0 0.3
557(13) 0.00587 555.1 0.3
561(12) 0.00621 555.2 0.3
547(12) 0.00638 555.2 0.4
557(13) 0.00603 555.3 0.4
578(13) 0.00537 555.4 0.5
542(13) 0.00602 555.4 0.5
541(12) 0.00640 555.5 0.6
541(12) 0.00641 555.5 0.6
561(13) 0.00591 555.6 0.7
547(13) 0.00556 555.7 0.8
526(12) 0.00616 555.7 0.9
531(12) 0.00665 555.8 1.0
562(12) 0.00618 555.9 1.1
530(12) 0.00621 555.9 1.2
537(13) 0.00572 556.0 1.4
522(12) 0.00614 556.0 1.6
549(12) 0.00640 556.1 1.8
548(12) 0.00627 556.2 2.0
543(13) 0.00592 556.2 2.2
539(13) 0.00594 556.3 2.4
533(12) 0.00624 556.4 2.6
548(12) 0.00638 556.4 2.8
566(13) 0.00601 556.5 3.0
565(13) 0.00583 556.5 3.2
590(13) 0.00553 556.6 3.3
547(12) 0.00617 556.7 3.3
562(12) 0.00623 556.7 3.3
584(13) 0.00569 556.8 3.2
576(13) 0.00568 556.9 3.1
555(13) 0.00576 556.9 2.9
552(12) 0.00607 557.0 2.7
567(12) 0.00617 557.0 2.5
587(13) 0.00557 557.1 2.3
584(13) 0.00536 557.2 2.1
560(13) 0.00590 557.2 1.8
583(13) 0.00570 557.3 1.7
573(12) 0.00616 557.4 1.5
547(13) 0.00596 557.4 1.3
559(13) 0.00581 557.5 1.2
556(12) 0.00610 557.5 1.0
594(13) 0.00571 557.6 0.9
532(12) 0.00657 557.7 0.8
556(13) 0.00586 557.7 0.7
571(13) 0.00543 557.8 0.6
540(13) 0.00602 557.9 0.6
554(12) 0.00630 557.9 0.5
549(12) 0.00641 558.0 0.5
571(13) 0.00582 558.0 0.4
565(13) 0.00560 558.1 0.4
522(12) 0.00641 558.2 0.4
566(13) 0.00602 558.2 0.3
550(12) 0.00639 558.3 0.3
557(13) 0.00583 558.4 0.3
551(13) 0.00553 558.4 0.3
560(13) 0.00600 558.5 0.2
557(12) 0.00623 558.5 0.2
543(12) 0.00645 558.6 0.2
555(13) 0.00603 558.7 0.2
593(14) 0.00513 558.7 0.2
578(13) 0.00585 558.8 0.2
593(13) 0.00587 558.9 0.2
550(12) 0.00637 558.9 0.2
551(13) 0.00594 559.0 0.2
514(12) 0.00612 559.0 0.2
550(13) 0.00599 559.1 0.1
544(12) 0.00637 559.2 0.1
569(12) 0.00613 559.2 0.1
565(13) 0.00581 559.3 0.1
555(13) 0.00566 559.4 0.1
557(13) 0.00595 559.4 0.1
607(13) 0.00579 559.5 0.1
575(13) 0.00601 559.5 0.1
588(13) 0.00552 559.8 0.1
577(13) 0.00532 560.0 0.1
519(12) 0.00631 560.3 0.1
544(12) 0.00643 560.5 0.1
605(13) 0.00563 560.8 0.1
582(13) 0.00563 561.0 0.1
572(13) 0.00562 561.3 0.1
595(13) 0.00559 561.5 0.1
567(12) 0.00620 561.8 0.1
579(13) 0.00554 562.1 0.1
553(13) 0.00589 562.3 0.1
543(13) 0.00597 562.6 0.1
573(13) 0.00575 562.8 0.1
560(12) 0.00622 563.1 0.1
591(13) 0.00574 563.3 0.1
580(13) 0.00558 563.6 0.1
581(13) 0.00571 563.8 0.1
573(13) 0.00586 564.1 0.1
507(12) 0.00687 564.3 0.1
563(13) 0.00573 564.6 0.1
562(13) 0.00570 564.9 0.1
567(13) 0.00581 565.1 0.0
579(13) 0.00584 565.4 0.0
578(12) 0.00608 565.6 0.0
556(13) 0.00582 565.9 0.0
571(13) 0.00556 566.1 0.0
566(13) 0.00592 566.4 0.0
556(12) 0.00626 566.6 0.0
546(12) 0.00646 566.9 0.0
582(13) 0.00571 567.1 0.0
552(13) 0.00571 567.4 0.0
538(12) 0.00624 567.7 0.0
613(13) 0.00571 567.9 0.0
572(12) 0.00610 568.2 0.0
553(13) 0.00592 568.4 0.0
554(13) 0.00544 568.7 0.0
578(13) 0.00571 568.9 0.0
543(12) 0.00646 569.2 0.0
576(13) 0.00582 569.4 0.0
562(13) 0.00584 569.7 0.0
542(13) 0.00584 569.9 0.0
554(13) 0.00574 570.2 0.0
563(12) 0.00609 570.5 0.0
564(12) 0.00612 570.7 0.0
592(13) 0.00553 571.0 6.9
569(13) 0.00539 571.2 7.0
552(13) 0.00602 571.5 7.1
589(13) 0.00585 571.7 7.2
559(12) 0.00606 572.0 7.3
587(13) 0.00560 572.2 7.4
567(13) 0.00565 572.5 7.6
566(13) 0.00562 572.7 7.7
564(12) 0.00610 573.0 7.8
542(12) 0.00636 573.3 7.9
564(13) 0.00563 573.5 8.1
578(13) 0.00561 573.8 8.2
516(12) 0.00648 574.0 8.4
595(13) 0.00588 574.3 8.5
581(13) 0.00582 574.5 8.7
555(13) 0.00592 574.8 8.8
575(13) 0.00564 575.0 9.0
538(13) 0.00604 575.3 9.1
571(12) 0.00615 575.5 9.3
572(13) 0.00585 575.8 9.5
581(13) 0.00550 576.1 9.7
556(13) 0.00590 576.3 9.8
599(13) 0.00569 576.6 10.0
582(13) 0.00602 576.8 10.2
575(13) 0.00556 577.1 10.4
583(13) 0.00544 577.3 10.6
601(13) 0.00537 577.6 10.8
557(12) 0.00615 577.8 11.1
583(13) 0.00592 578.1 11.3
569(13) 0.00577 578.3 11.5
562(13) 0.00550 578.6 11.8
529(12) 0.00611 578.8 12.0
567(12) 0.00610 579.1 12.3
570(12) 0.00623 579.4 12.5
573(13) 0.00584 579.6 12.8
572(13) 0.00536 579.9 13.1
557(13) 0.00583 580.1 13.4
583(13) 0.00600 580.4 13.7
581(13) 0.00601 580.6 14.0
583(13) 0.00545 580.9 14.3
539(13) 0.00572 581.1 14.6
552(12) 0.00607 581.4 15.0
577(13) 0.00603 581.6 15.3
580(12) 0.00606 581.9 15.7
527(12) 0.00658 582.2 16.1
566(13) 0.00552 582.4 16.5
565(13) 0.00586 582.7 16.9
567(12) 0.00619 582.9 17.3
573(12) 0.00607 583.2 17.8
571(13) 0.00574 583.4 18.2
561(13) 0.00568 583.7 18.7
584(13) 0.00564 583.9 19.2
548(12) 0.00640 584.2 19.7
576(13) 0.00594 584.4 20.3
578(13) 0.00566 584.7 20.8
629(14) 0.00491 585.0 21.4
581(13) 0.00558 585.2 22.0
581(12) 0.00609 585.5 22.7
583(13) 0.00581 585.7 23.3
586(13) 0.00561 586.0 24.0
546(13) 0.00592 586.2 24.8
594(13) 0.00556 586.5 25.5
561(12) 0.00620 586.7 26.3
583(13) 0.00583 587.0 27.2
598(13) 0.00549 587.2 28.0
570(13) 0.00573 587.5 29.0
578(13) 0.00580 587.8 29.9
617(13) 0.00573 588.0 30.9
570(13) 0.00585 588.3 32.0
616(14) 0.00519 588.5 33.1
577(13) 0.00577 588.8 34.3
590(13) 0.00582 589.0 35.6
607(13) 0.00582 589.3 36.9
592(13) 0.00557 589.5 38.3
568(13) 0.00574 589.8 39.7
614(13) 0.00529 590.0 41.3
587(13) 0.00589 590.3 42.9
603(13) 0.00587 590.6 44.7
580(13) 0.00565 590.8 46.5
594(13) 0.00531 591.1 48.5
582(13) 0.00575 591.3 50.6
606(13) 0.00576 591.6 52.9
586(13) 0.00598 591.8 55.3
577(13) 0.00561 592.1 57.8
588(13) 0.00534 592.3 60.6
621(13) 0.00542 592.6 63.5
617(13) 0.00559 592.8 66.7
607(13) 0.00577 593.1 70.1
629(14) 0.00519 593.4 73.8
628(14) 0.00483 593.6 77.7
633(14) 0.00517 593.9 82.0
608(13) 0.00581 594.1 86.7
636(13) 0.00549 594.4 91.8
620(13) 0.00537 594.6 97.3
677(15) 0.00449 594.9 103.3
644(14) 0.00520 595.1 109.9
654(13) 0.00540 595.4 117.2
605(13) 0.00574 595.6 125.1
637(14) 0.00516 595.9 134.0
655(14) 0.00491 596.2 143.8
682(14) 0.00483 596.4 154.7
663(13) 0.00536 596.7 166.8
674(14) 0.00521 596.9 180.5
715(14) 0.00460 597.2 195.8
678(14) 0.00475 597.4 213.2
748(15) 0.00435 597.7 233.0
774(14) 0.00464 597.9 255.6
768(15) 0.00456 598.2 281.6
790(15) 0.00419 598.4 311.8
843(16) 0.00379 598.7 346.9
878(16) 0.00381 599.0 388.4
958(16) 0.00376 599.2 438.0
1069(17) 0.003242 599.5 498.5
1173(19) 0.002845 599.7 574.6
1320(20) 0.002567 600.0 674.4
1624(22) 0.002102 600.2 811.5
2009(23) 0.001811 600.5 1008.4
2421(26) 0.001456 600.7 1298.7
3117(30) 0.001087 601.0 1729.0
3778(33) 0.000897 601.2 2354.2
4517(36) 0.000773 602. 3227.
5170(37) 0.000710 602. 4385.
6029(42) 0.000571 602. 5819.
7258(47) 0.000456 602. 7456.
8560(50) 0.000393 603. 9113.
10261(54) 0.0003409 603. 10468.
12140(58) 0.0002993 603. 11115.
12594(61) 0.0002676 603. 10803.
11281(59) 0.0002896 604. 9656.
9049(51) 0.000382 604. 8063.
6875(43) 0.000529 604. 6392.
5123(37) 0.000709 604. 4871.
3899(34) 0.000859 604.6 3610.6
2986(30) 0.001091 604.8 2637.3
2424(27) 0.001401 605.1 1928.4
1956(23) 0.001853 605.3 1434.8
1718(22) 0.002099 605.6 1099.9
1500(21) 0.002210 605.8 874.0
1334(20) 0.002405 606.1 718.5
1235(19) 0.002779 606.3 607.2
1105(17) 0.003266 606.6 523.8
1042(17) 0.003464 606.8 458.3
980(17) 0.00351 607.1 405.2
924(17) 0.003392 607.4 361.1
910(16) 0.00365 607.6 323.8
836(15) 0.00428 607.9 292.0
804(15) 0.00442 608.1 264.5
793(15) 0.00427 608.4 240.8
758(15) 0.00413 608.6 220.0
748(15) 0.00453 608.9 201.8
754(14) 0.00474 609.1 185.8
704(14) 0.00494 609.4 171.5
731(15) 0.00449 609.6 158.9
694(14) 0.00467 609.9 147.5
699(14) 0.00468 610.2 137.4
660(13) 0.00541 610.4 128.2
683(14) 0.00497 610.7 119.9
686(14) 0.00476 610.9 112.4
698(15) 0.00449 611.2 105.6
681(14) 0.00484 611.4 99.4
690(14) 0.00513 611.7 93.7
719(14) 0.00470 611.9 88.5
656(14) 0.00509 612.2 83.7
678(14) 0.00471 612.4 79.2
649(14) 0.00521 612.7 75.2
659(13) 0.00536 613.0 71.4
672(14) 0.00498 613.2 67.9
633(14) 0.00506 613.5 64.6
631(14) 0.00520 613.7 61.6
632(13) 0.00538 614.0 58.8
620(13) 0.00569 614.2 56.2
641(13) 0.00525 614.5 53.7
641(14) 0.00502 614.7 51.4
593(13) 0.00572 615.0 49.3
654(13) 0.00524 615.2 47.2
607(13) 0.00582 615.5 45.3
594(13) 0.00548 615.8 43.6
648(14) 0.00489 616.0 41.9
618(13) 0.00537 616.3 40.3
634(13) 0.00544 616.5 38.8
612(13) 0.00573 616.8 37.4
670(14) 0.00490 617.0 36.0
643(14) 0.00484 617.3 34.7
622(13) 0.00539 617.5 33.5
641(13) 0.00541 617.8 32.4
596(13) 0.00589 618.0 31.3
623(13) 0.00525 618.3 30.3
650(14) 0.00472 618.6 29.3
605(13) 0.00561 618.8 28.4
607(13) 0.00583 619.1 27.5
609(13) 0.00578 619.3 26.6
600(13) 0.00545 619.6 25.8
625(14) 0.00488 619.8 25.0
619(13) 0.00541 620.1 24.3
641(13) 0.00545 620.3 23.6
609(13) 0.00581 620.6 22.9
645(14) 0.00512 620.8 22.3
601(14) 0.00515 621.1 21.6
628(14) 0.00521 621.4 21.0
615(13) 0.00579 621.6 20.5
632(13) 0.00555 621.9 19.9
620(13) 0.00542 622.1 19.4
611(14) 0.00513 622.4 18.9
594(13) 0.00547 622.6 18.4
612(13) 0.00580 622.9 17.9
642(13) 0.00541 623.1 17.5
594(13) 0.00566 623.4 17.0
638(14) 0.00489 623.6 16.6
610(13) 0.00537 623.9 16.2
639(13) 0.00557 624.2 15.8
628(13) 0.00547 624.4 15.5
615(13) 0.00542 624.7 15.1
636(14) 0.00498 624.9 14.8
613(13) 0.00545 625.2 14.4
611(13) 0.00577 625.4 14.1
632(13) 0.00542 625.7 13.8
638(14) 0.00520 625.9 13.5
624(14) 0.00518 626.2 13.2
572(13) 0.00590 626.4 12.9
600(13) 0.00590 626.7 12.6
590(13) 0.00559 627.0 12.3
610(13) 0.00527 627.2 12.1
651(14) 0.00496 627.5 11.8
645(13) 0.00523 627.7 11.6
579(12) 0.00608 628.0 11.4
604(13) 0.00550 628.2 11.1
609(13) 0.00540 628.5 10.9
586(13) 0.00562 628.7 10.7
604(13) 0.00579 629.0 10.5
629(13) 0.00558 629.2 10.3
625(13) 0.00533 629.5 10.1
608(14) 0.00514 629.8 9.9
597(13) 0.00545 630.0 9.7
637(13) 0.00534 630.3 9.5
621(13) 0.00571 630.5 9.4
621(13) 0.00542 630.8 9.2
620(14) 0.00507 631.0 9.0
593(13) 0.00558 631.3 8.9
621(13) 0.00563 631.5 8.7
674(14) 0.00520 631.8 8.5
633(14) 0.00512 632.0 8.4
618(14) 0.00489 632.3 8.2
647(14) 0.00507 632.5 8.1
639(13) 0.00549 632.8 8.0
624(13) 0.00568 633.1 7.8
631(13) 0.00528 633.3 7.7
639(14) 0.00482 633.6 7.6
638(13) 0.00524 633.8 7.5
643(13) 0.00547 634.1 7.3
655(13) 0.00540 634.3 7.2
641(13) 0.00523 634.6 7.1
642(14) 0.00496 634.8 7.0
664(14) 0.00500 635.1 0.0
642(13) 0.00553 635.3 0.0
645(13) 0.00529 635.6 0.0
595(13) 0.00567 635.9 0.0
607(14) 0.00508 636.1 0.0
583(13) 0.00573 636.4 0.0
672(13) 0.00527 636.6 0.0
645(13) 0.00541 636.9 0.0
606(13) 0.00560 637.1 0.0
630(14) 0.00499 637.4 0.0
647(14) 0.00502 637.6 0.0
629(13) 0.00559 637.9 0.0
661(14) 0.00508 638.1 0.0
637(13) 0.00524 638.4 0.0
649(14) 0.00503 638.7 0.0
643(14) 0.00507 638.9 0.0
597(13) 0.00595 639.2 0.0
648(14) 0.00511 639.4 0.0
656(14) 0.00488 639.7 0.0
644(14) 0.00518 639.9 0.0
657(14) 0.00517 640.2 0.0
619(13) 0.00573 640.4 0.0
655(14) 0.00499 640.7 0.0
643(14) 0.00511 640.9 0.0
636(14) 0.00522 641.2 0.0
653(13) 0.00529 641.5 0.0
674(13) 0.00526 641.7 0.0
645(14) 0.00501 642.0 0.0
636(14) 0.00501 642.2 0.0
640(14) 0.00521 642.5 0.0
631(13) 0.00551 642.7 0.0
620(13) 0.00572 643.0 0.0
619(13) 0.00531 643.2 0.0
639(14) 0.00485 643.5 0.0
658(14) 0.00503 643.7 0.0
633(13) 0.00556 644.0 0.0
602(13) 0.00579 644.3 0.0
666(14) 0.00508 644.5 0.0
649(14) 0.00483 644.8 0.0
633(14) 0.00522 645.0 0.0
668(14) 0.00523 645.3 0.0
641(13) 0.00546 645.5 0.0
596(13) 0.00568 645.8 0.0
648(14) 0.00475 646.0 0.0
654(14) 0.00513 646.3 0.0
636(13) 0.00555 646.5 0.0
635(13) 0.00554 646.8 0.0
628(13) 0.00539 647.1 0.0
620(14) 0.00513 647.3 0.0
661(14) 0.00511 647.6 0.0
658(13) 0.00535 647.8 0.0
638(13) 0.00555 648.1 0.0
658(14) 0.00509 648.3 0.0
664(14) 0.00470 648.6 0.0
637(14) 0.00511 648.8 0.0
639(13) 0.00552 649.1 0.0
636(13) 0.00547 649.3 0.0
643(14) 0.00506 649.6 0.0
632(14) 0.00504 649.9 0.0
615(13) 0.00542 650.1 0.0
656(13) 0.00541 650.4 0.0
658(14) 0.00517 650.6 0.0
640(14) 0.00504 650.9 0.0
627(14) 0.00521 651.1 0.0
676(14) 0.00491 651.4 0.0
634(13) 0.00559 651.6 0.0
657(14) 0.00523 651.9 0.0
655(14) 0.00493 652.1 0.0
655(14) 0.00503 652.4 0.0
656(13) 0.00526 652.7 0.0
644(13) 0.00549 652.9 0.0
641(14) 0.00511 653.2 0.0
634(14) 0.00518 653.4 0.0
655(14) 0.00508 653.7 0.0
653(13) 0.00536 653.9 0.0
664(13) 0.00534 654.2 0.0
659(14) 0.00491 654.4 0.0
659(14) 0.00487 654.7 0.0
702(14) 0.00459 654.9 0.0
640(13) 0.00541 655.2 0.0
643(13) 0.00551 655.5 0.0
687(14) 0.00485 655.7 0.0
654(14) 0.00483 656.0 0.0
647(14) 0.00516 656.2 0.0
681(14) 0.00511 656.5 0.0
636(13) 0.00560 656.7 0.0
665(14) 0.00502 657.3 0.0
672(14) 0.00471 657.9 0.0
678(14) 0.00492 658.5 0.0
661(13) 0.00536 659.1 0.0
646(13) 0.00539 659.7 0.0
647(14) 0.00521 660.3 0.0
694(15) 0.00435 660.9 0.0
654(14) 0.00510 661.5 0.0
662(13) 0.00538 662.1 0.0
692(14) 0.00508 662.7 0.0
655(14) 0.00519 663.3 0.0
658(14) 0.00475 663.9 0.0
656(14) 0.00498 664.5 0.0
682(14) 0.00519 665.1 0.0
663(13) 0.00527 665.7 0.0
662(14) 0.00496 666.3 0.0
638(14) 0.00501 667.0 0.0
658(14) 0.00507 667.6 0.0
685(14) 0.00518 668.2 0.0
672(14) 0.00520 668.8 0.0
639(13) 0.00524 669.4 0.0
668(14) 0.00471 670.0 0.0
653(14) 0.00505 670.6 0.0
660(13) 0.00538 671.2 0.0
673(14) 0.00508 671.8 0.0
681(14) 0.00490 672.4 0.0
662(14) 0.00491 673.0 0.0
649(14) 0.00516 673.6 0.0
679(14) 0.00523 674.2 0.0
662(14) 0.00520 674.8 0.0
685(14) 0.00477 675.4 0.0
678(14) 0.00490 676.0 0.0
652(14) 0.00522 676.6 0.0
705(14) 0.00506 677.2 0.0
706(14) 0.00476 677.8 0.0
663(14) 0.00493 678.4 9.5
675(14) 0.00488 679.1 9.6
656(13) 0.00534 679.7 9.7
721(14) 0.00491 680.3 9.8
677(14) 0.00484 680.9 9.9
716(15) 0.00438 681.5 10.0
664(14) 0.00501 682.1 10.1
663(14) 0.00522 682.7 10.3
648(13) 0.00549 683.3 10.4
675(14) 0.00494 683.9 10.5
648(14) 0.00492 684.5 10.6
670(14) 0.00492 685.1 10.8
682(14) 0.00508 685.7 10.9
640(13) 0.00553 686.3 11.0
680(14) 0.00492 686.9 11.2
657(14) 0.00480 687.5 11.3
664(14) 0.00506 688.1 11.5
685(14) 0.00514 688.7 11.6
668(13) 0.00534 689.3 11.7
689(14) 0.00472 689.9 11.9
680(15) 0.00444 690.5 12.0
703(14) 0.00472 691.2 12.2
704(14) 0.00503 691.8 12.4
713(14) 0.00493 692.4 12.5
686(14) 0.00472 693.0 12.7
683(14) 0.00463 693.6 12.9
680(14) 0.00499 694.2 13.0
713(14) 0.00497 694.8 13.2
668(14) 0.00522 695.4 13.4
678(14) 0.00484 696.0 13.6
698(15) 0.00456 696.6 13.7
715(14) 0.00460 697.2 14.5
693(14) 0.00506 697.8 14.7
653(13) 0.00534 698.4 14.9
693(14) 0.00475 699.0 15.1
715(15) 0.00444 699.6 15.3
743(15) 0.00438 700.2 15.5
717(14) 0.00499 700.8 15.7
666(14) 0.00518 701.4 16.0
666(14) 0.00504 702.0 16.2
700(14) 0.00465 702.6 16.4
715(14) 0.00465 703.3 16.7
708(14) 0.00502 703.9 16.9
699(14) 0.00492 704.5 17.2
699(14) 0.00470 705.1 17.5
689(14) 0.00467 705.7 17.7
690(14) 0.00491 706.3 18.0
725(14) 0.00493 706.9 18.3
723(14) 0.00465 707.5 18.6
754(15) 0.00427 708.1 18.9
682(14) 0.00484 708.7 19.2
698(14) 0.00486 709.3 19.5
726(14) 0.00488 709.9 19.8
703(14) 0.00476 710.5 20.1
740(15) 0.00431 711.1 20.5
722(15) 0.00455 711.7 20.8
676(14) 0.00511 712.3 21.1
713(14) 0.00499 712.9 21.5
709(14) 0.00463 713.5 21.9
677(14) 0.00473 714.1 22.2
724(15) 0.00444 714.7 22.6
702(14) 0.00499 715.4 23.0
718(14) 0.00492 716.0 23.4
729(14) 0.00460 716.6 23.9
713(15) 0.00442 717.2 24.3
717(14) 0.00456 717.8 24.7
686(14) 0.00513 718.4 25.2
746(14) 0.00480 719.0 25.6
725(14) 0.00472 719.6 26.1
726(15) 0.00428 720.2 26.6
724(14) 0.00457 720.8 27.1
714(14) 0.00496 721.4 27.7
684(14) 0.00520 722.0 28.2
715(14) 0.00468 722.6 28.7
718(15) 0.00431 723.2 29.3
704(14) 0.00479 723.8 29.9
718(14) 0.00497 724.4 30.5
723(14) 0.00481 725.0 31.1
712(14) 0.00458 725.6 31.8
712(15) 0.00440 726.2 32.4
746(15) 0.00442 726.8 33.1
733(14) 0.00482 727.5 33.8
694(14) 0.00503 728.1 34.6
780(15) 0.00433 728.7 35.3
732(15) 0.00447 729.3 36.1
719(14) 0.00458 729.9 36.9
714(14) 0.00492 730.5 37.7
741(14) 0.00474 731.1 38.6
762(15) 0.00439 731.7 39.5
733(15) 0.00450 732.3 40.4
737(14) 0.00457 732.9 41.3
744(14) 0.00478 733.5 42.3
738(14) 0.00469 734.1 43.3
727(14) 0.00459 734.7 44.4
776(15) 0.00424 735.3 45.5
762(15) 0.00442 735.9 46.6
710(14) 0.00500 736.5 47.8
758(15) 0.00442 737.1 49.0
757(15) 0.00433 737.7 50.3
738(15) 0.00451 738.3 51.6
748(15) 0.00454 738.9 53.0
773(15) 0.00455 739.6 54.5
754(15) 0.00441 740.2 56.0
740(15) 0.00437 740.8 57.5
793(15) 0.00410 741.4 59.1
683(14) 0.00519 742.0 60.8
752(14) 0.00470 742.6 62.6
770(15) 0.00439 743.2 64.5
787(15) 0.00404 743.8 66.4
763(15) 0.00431 744.4 68.4
790(15) 0.00437 745.0 70.5
744(14) 0.00472 745.6 72.7
812(15) 0.00406 746.2 75.1
742(15) 0.00435 746.8 77.5
738(15) 0.00453 747.4 80.1
757(14) 0.00463 748.0 82.7
771(14) 0.00458 748.6 85.6
771(15) 0.00431 749.2 88.5
810(16) 0.00389 749.8 91.7
800(15) 0.00424 750.4 95.0
795(15) 0.00452 751.0 98.4
787(15) 0.00453 751.6 102.1
756(15) 0.00447 752.3 106.0
778(15) 0.00406 752.9 110.1
850(16) 0.00395 753.5 114.5
817(15) 0.00435 754.1 119.1
826(15) 0.00430 754.7 124.0
779(15) 0.00435 755.3 129.3
805(16) 0.00388 755.9 134.9
823(15) 0.00407 756.5 140.8
823(15) 0.00437 757.1 147.2
844(15) 0.00421 757.7 154.0
876(16) 0.00383 758.3 161.3
803(16) 0.00400 758.9 169.2
840(16) 0.00392 759.5 177.7
862(15) 0.00414 760.1 186.8
878(16) 0.00399 760.7 196.7
871(16) 0.00389 761.3 207.4
881(16) 0.00370 761.9 219.1
897(16) 0.00371 762.5 231.8
895(15) 0.00403 763.1 245.7
896(16) 0.00391 763.7 261.0
927(16) 0.00358 764.4 278.0
1001(17) 0.003254 765.0 296.9
1002(17) 0.003389 765.6 318.3
991(16) 0.00363 766.2 342.7
1065(17) 0.003268 766.8 371.4
1063(18) 0.003161 767.4 405.8
1117(18) 0.003018 768.0 448.0
1195(18) 0.002905 768.6 500.6
1276(19) 0.002828 769.2 566.8
1373(20) 0.002496 769.8 649.5
1487(21) 0.002209 770.4 750.8
1611(22) 0.002075 771.0 871.3
1704(22) 0.002036 771.6 1008.7
1784(22) 0.002045 772.2 1156.5
1935(24) 0.001749 772.8 1302.3
2105(25) 0.001581 773.4 1428.2
2282(26) 0.001502 774.0 1519.5
2349(25) 0.001531 774.6 1576.4
2484(26) 0.001476 775.2 1618.5
2393(26) 0.001437 775.8 1673.9
2470(27) 0.001325 776.5 1769.1
2644(28) 0.001304 777.1 1927.6
2927(28) 0.001232 777.7 2170.5
3353(30) 0.001095 778.3 2518.5
3828(33) 0.000906 778.9 2991.5
4574(38) 0.000706 779. 3607.
5472(40) 0.000621 780. 4380.
6402(42) 0.000565 781. 5318.
7524(45) 0.000487 781. 6415.
8780(50) 0.000392 782. 7646.
10023(56) 0.0003152 783. 8958.
11390(58) 0.0002993 783. 10252.
12529(59) 0.0002903 784. 11377.
13543(61) 0.0002659 784. 12146.
13721(63) 0.0002480 785. 12394.
13159(64) 0.0002410 786. 12060.
11962(59) 0.0002845 786. 11224.
10673(54) 0.0003429 787. 10058.
9181(51) 0.000389 787. 8747.
8016(49) 0.000422 788. 7435.
6872(46) 0.000474 789. 6211.
5905(41) 0.000584 789. 5124.
5149(37) 0.000716 790. 4193.
4433(35) 0.000799 790. 3420.
3787(33) 0.000901 791.0 2792.3
3343(31) 0.001006 791.6 2293.9
2997(29) 0.001147 792.2 1903.3
2668(27) 0.001367 792.8 1600.0
2455(26) 0.001428 793.4 1364.5
2150(25) 0.001595 794.0 1180.6
2015(24) 0.001649 794.6 1035.3
1883(23) 0.001800 795.2 918.4
1799(22) 0.002028 795.8 822.7
1683(22) 0.002061 796.4 742.7
1511(21) 0.002234 797.0 674.7
1456(20) 0.002340 797.6 616.2
1396(20) 0.002482 798.2 565.1
1360(19) 0.002674 798.8 520.2
1302(19) 0.002640 799.4 480.5
1301(20) 0.002524 800.0 445.1
1268(19) 0.002619 800.7 413.4
1185(18) 0.002925 801.3 385.0
1141(18) 0.003166 801.9 359.4
1181(19) 0.002818 802.5 336.2
1122(18) 0.002938 803.1 315.1
1118(18) 0.002993 803.7 296.0
1075(17) 0.003307 804.3 278.5
1045(17) 0.003432 804.9 262.5
1008(17) 0.003339 805.5 247.9
1003(17) 0.003223 806.1 234.4
972(17) 0.003505 806.7 222.0
991(16) 0.00356 807.3 210.5
977(16) 0.00367 807.9 199.9
937(16) 0.00368 808.5 190.1
953(17) 0.003286 809.1 181.0
984(17) 0.003403 809.7 172.5
953(16) 0.00376 810.3 164.6
960(16) 0.00373 810.9 157.2
951(16) 0.00359 811.5 150.3
901(17) 0.00351 812.1 143.9
936(17) 0.003486 812.8 137.8
902(16) 0.00395 813.4 132.1
878(15) 0.00411 814.0 126.8
935(16) 0.00363 814.6 121.8
943(17) 0.003353 815.2 117.1
922(16) 0.00363 815.8 112.6
887(15) 0.00405 816.4 108.4
861(15) 0.00413 817.0 104.4
874(16) 0.00384 817.6 100.6
889(16) 0.00362 818.2 97.1
916(16) 0.00359 818.8 93.7
903(16) 0.00397 819.4 90.5
916(16) 0.00380 820.0 87.5
897(16) 0.00377 820.6 84.6
913(17) 0.003471 821.2 81.8
863(16) 0.00392 821.8 79.2
869(15) 0.00412 822.4 76.7
858(15) 0.00404 823.0 74.3
841(15) 0.00402 823.6 72.0
825(15) 0.00404 824.2 69.9
871(16) 0.00382 824.9 67.8
891(15) 0.00401 825.5 65.8
810(15) 0.00420 826.1 63.9
854(16) 0.00388 826.7 62.1
831(16) 0.00398 827.3 60.3
850(16) 0.00397 827.9 58.7
831(15) 0.00432 828.5 57.1
848(16) 0.00401 829.1 55.5
867(16) 0.00381 829.7 54.1
862(16) 0.00386 830.3 52.7
864(16) 0.00393 830.9 51.3
868(15) 0.00413 831.5 50.0
877(16) 0.00376 832.1 48.7
831(16) 0.00397 832.7 47.5
880(16) 0.00371 833.3 46.3
841(15) 0.00410 833.9 45.2
856(15) 0.00417 834.5 44.1
850(16) 0.00386 835.1 43.1
831(16) 0.00386 835.7 42.1
842(16) 0.00394 836.3 41.1
823(15) 0.00429 837.0 40.2
851(15) 0.00421 837.6 39.2
836(16) 0.00388 838.2 38.4
836(16) 0.00380 838.8 37.5
801(15) 0.00419 839.4 38.0
797(15) 0.00440 840.0 37.3
817(15) 0.00436 840.6 36.5
860(16) 0.00393 841.2 35.8
887(17) 0.003418 841.8 35.1
819(15) 0.00407 842.4 34.5
846(15) 0.00422 843.0 33.8
845(15) 0.00421 843.6 33.2
875(16) 0.00386 844.2 32.6
851(16) 0.00369 844.8 32.0
845(16) 0.00394 845.4 31.5
836(15) 0.00430 846.0 30.9
850(15) 0.00416 846.6 30.4
877(16) 0.00384 847.2 29.9
819(16) 0.00389 847.8 29.5
798(15) 0.00413 848.4 29.0
828(15) 0.00426 849.0 28.5
845(15) 0.00418 849.7 28.1
827(16) 0.00401 850.3 27.7
839(16) 0.00387 850.9 27.3
826(15) 0.00403 851.5 26.9
815(15) 0.00437 852.1 26.5
838(15) 0.00416 852.7 26.2
832(16) 0.00399 853.3 25.9
834(16) 0.00390 853.9 25.5
840(16) 0.00401 854.5 25.2
902(16) 0.00399 855.1 24.9
858(15) 0.00409 855.7 24.7
868(16) 0.00383 856.3 24.4
871(16) 0.00377 856.9 24.1
857(16) 0.00395 857.5 23.9
839(15) 0.00426 858.0 23.7
840(15) 0.00407 858.6 23.5
850(16) 0.00388 859.2 23.3
846(16) 0.00393 859.8 23.1
850(15) 0.00409 860.4 22.9
877(15) 0.00409 861.0 22.8
838(15) 0.00402 861.6 22.7
863(16) 0.00380 862.2 22.6
859(16) 0.00389 862.7 22.5
828(15) 0.00428 863.3 22.4
849(15) 0.00419 863.9 22.4
861(16) 0.00391 864.5 22.3
841(16) 0.00388 865.1 22.3
914(16) 0.00360 865.7 22.3
872(15) 0.00401 866.3 22.4
877(15) 0.00406 866.9 22.4
882(16) 0.00374 867.4 22.5
860(16) 0.00366 868.0 22.7
853(16) 0.00392 868.6 22.8
874(16) 0.00400 869.2 23.0
870(15) 0.00413 869.8 23.3
868(16) 0.00391 870.4 23.6
906(17) 0.003396 871.0 23.9
842(15) 0.00402 871.6 24.3
836(15) 0.00427 872.1 24.8
882(15) 0.00402 872.7 25.3
877(16) 0.00382 873.3 25.9
862(16) 0.00371 873.9 26.6
885(16) 0.00383 874.5 27.4
870(15) 0.00413 875.1 28.4
888(16) 0.00397 875.7 29.4
868(16) 0.00396 876.3 30.7
860(16) 0.00367 876.8 32.1
893(16) 0.00371 877.4 33.8
897(16) 0.00398 878.0 35.7
880(16) 0.00399 878.6 38.0
879(16) 0.00378 879.2 40.6
924(17) 0.003398 879.8 43.7
921(16) 0.00363 880.4 47.5
949(16) 0.00381 881.0 52.0
934(16) 0.00376 881.5 57.4
951(17) 0.003469 882.1 64.1
945(17) 0.003404 882.7 72.6
993(17) 0.003383 883.3 83.8
996(16) 0.00361 883.9 100.0
1088(17) 0.003235 884.5 125.9
1226(19) 0.002711 885.1 171.1
1320(20) 0.002527 885.7 253.0
1487(21) 0.002278 886.2 397.2
1655(21) 0.002202 886.8 632.5
1867(23) 0.001879 887.4 978.2
2118(25) 0.001597 888.0 1425.1
2374(26) 0.001424 888.6 1916.2
2782(28) 0.001236 889.2 2337.3
3309(30) 0.001111 889.8 2533.5
3739(33) 0.000920 890.4 2398.9
3486(32) 0.000943 891.0 2016.0
2448(27) 0.001405 891.5 1528.8
1727(22) 0.002071 892.1 1064.3
1487(20) 0.002438 892.7 692.5
1276(19) 0.002645 893.3 432.4
1139(18) 0.002877 893.9 269.4
1082(18) 0.003151 894.5 175.4
1046(17) 0.003392 895.1 123.3
997(16) 0.00359 895.7 93.9
985(17) 0.003429 896.2 76.0
974(17) 0.003284 896.8 63.7
959(16) 0.00357 897.4 54.5
961(16) 0.00372 898.0 47.3
915(16) 0.00390 898.6 41.5
945(16) 0.00359 899.2 36.7
926(17) 0.003448 899.8 32.6
906(16) 0.00372 900.4 29.2
922(16) 0.00390 900.9 26.3
935(16) 0.00384 901.5 23.8
885(16) 0.00389 902.1 21.6
862(16) 0.00362 902.7 19.7
882(16) 0.00375 903.3 18.1
910(16) 0.00393 903.9 16.6
931(16) 0.00382 904.5 15.3
903(16) 0.00382 905.1 14.2
920(17) 0.003361 905.6 13.2
914(16) 0.00360 906.2 12.3
883(15) 0.00407 906.8 11.4
870(15) 0.00407 907.4 10.7
933(16) 0.00363 908.0 10.0
910(17) 0.003492 908.6 9.4
892(16) 0.00380 909.2 8.9
904(16) 0.00396 909.8 8.3
886(16) 0.00393 910.3 7.9
885(16) 0.00379 910.9 7.4
913(17) 0.003493 911.5 7.1
911(16) 0.00366 912.1 6.7
905(16) 0.00396 912.7 6.4
915(16) 0.00384 913.3 6.0
913(16) 0.00372 913.9 5.8
900(16) 0.00369 914.5 5.5
932(16) 0.00361 915.0 5.2
927(16) 0.00387 915.6 6.4
936(16) 0.00372 916.2 6.2
919(16) 0.00365 916.8 6.0
923(16) 0.00357 917.4 5.8
894(16) 0.00386 918.0 5.7
934(16) 0.00385 918.6 5.5
886(16) 0.00380 919.2 5.4
926(17) 0.003466 919.7 5.2
900(16) 0.00364 920.3 5.1
922(16) 0.00371 920.9 5.0
932(16) 0.00384 921.5 4.9
889(16) 0.00380 922.1 4.8
879(16) 0.00375 922.7 4.7
907(16) 0.00358 923.3 4.6
892(16) 0.00392 923.9 4.5
892(16) 0.00400 924.4 4.4
865(16) 0.00389 925.0 4.3
918(17) 0.003487 925.6 4.2
929(16) 0.00360 926.2 4.2
911(16) 0.00384 926.8 4.1
926(16) 0.00387 927.4 4.1
900(16) 0.00375 928.0 4.0
904(17) 0.003489 928.6 3.9
907(16) 0.00372 929.1 3.9
939(16) 0.00383 929.7 3.8
920(16) 0.00389 930.3 3.8
861(16) 0.00390 930.9 3.8
907(17) 0.003424 931.5 3.7
949(17) 0.00355 932.1 3.7
911(16) 0.00393 932.7 3.7
888(15) 0.00401 933.3 3.6
965(17) 0.003381 933.9 3.6
899(17) 0.003483 934.4 3.6
921(16) 0.00362 935.0 3.5
943(16) 0.00377 935.6 3.5
881(15) 0.00404 936.2 3.5
931(17) 0.00354 936.8 3.5
945(17) 0.003302 937.4 3.5
870(16) 0.00393 938.0 3.5
942(16) 0.00380 938.6 3.4
927(16) 0.00383 939.1 2.1
923(16) 0.00369 939.7 2.1
888(16) 0.00371 940.3 2.1
969(17) 0.003422 940.9 2.1
924(16) 0.00387 941.5 2.1
938(16) 0.00373 942.1 2.2
987(17) 0.003400 942.7 2.2
933(17) 0.003469 943.3 2.2
900(16) 0.00377 943.8 2.2
958(16) 0.00376 944.4 2.3
934(16) 0.00371 945.0 2.3
915(16) 0.00357 945.6 2.3
926(17) 0.00355 946.2 2.3
935(16) 0.00361 946.8 2.4
961(16) 0.00375 947.4 2.4
941(16) 0.00367 948.0 2.4
941(17) 0.00352 948.5 2.4
910(16) 0.00373 949.1 2.5
921(16) 0.00372 949.7 2.5
952(16) 0.00380 950.3 2.5
958(17) 0.003454 950.9 2.6
944(17) 0.003479 951.5 2.6
947(17) 0.00352 952.1 2.6
944(16) 0.00376 952.7 2.6
934(16) 0.00381 953.2 2.7
949(17) 0.003505 953.8 2.7
953(17) 0.003417 954.4 2.7
974(17) 0.003407 955.0 2.8
968(16) 0.00369 955.6 2.8
962(16) 0.00375 956.2 2.8
954(17) 0.003507 956.8 2.9
936(17) 0.003403 957.4 2.9
954(17) 0.00353 957.9 2.9
977(16) 0.00366 958.5 3.0
954(16) 0.00380 959.1 3.0
981(17) 0.003433 959.7 3.1
966(17) 0.003262 960.3 3.1
950(16) 0.00357 960.9 3.1
944(16) 0.00381 961.5 3.2
946(16) 0.00376 962.1 3.2
898(16) 0.00378 962.6 3.3
947(17) 0.003289 963.2 3.3
922(16) 0.00358 963.8 3.3
936(16) 0.00384 964.4 3.4
947(16) 0.00374 965.0 3.4
970(17) 0.00352 965.6 3.5
976(17) 0.003276 966.2 3.5
972(17) 0.003385 966.8 3.6
1023(17) 0.00353 967.4 3.6
907(16) 0.00387 968.0 3.7
951(17) 0.00351 968.5 3.7
942(17) 0.003481 969.1 3.8
998(17) 0.003360 969.7 3.8
987(16) 0.00366 970.3 3.9
951(16) 0.00362 970.9 3.9
976(17) 0.003421 971.5 4.0
989(17) 0.003270 972.1 4.1
997(17) 0.003265 972.7 4.1
955(16) 0.00377 973.3 4.2
996(17) 0.003467 973.9 4.2
960(17) 0.003440 974.5 4.3
975(17) 0.003346 975.1 4.4
982(17) 0.00352 975.6 4.4
992(16) 0.00362 976.2 4.5
973(17) 0.00355 976.8 4.6
979(17) 0.003428 977.4 4.6
976(17) 0.003430 978.0 4.7
976(17) 0.003490 978.6 4.8
959(16) 0.00374 979.2 4.9
973(17) 0.003498 979.8 4.9
974(17) 0.003414 980.4 5.0
999(17) 0.003295 981.0 5.1
965(16) 0.00360 981.6 5.2
917(16) 0.00393 982.1 5.3
983(17) 0.003375 982.7 5.4
997(17) 0.003259 983.3 5.5
1006(17) 0.003380 983.9 5.5
1016(17) 0.003453 984.5 5.6
995(16) 0.00365 985.1 5.7
972(17) 0.003448 985.7 5.8
989(17) 0.003293 986.3 5.9
955(16) 0.00361 986.9 6.1
996(16) 0.00358 987.5 6.2
954(16) 0.00379 988.1 6.3
990(17) 0.003397 988.7 6.4
982(17) 0.003193 989.2 6.5
1028(17) 0.003269 989.8 6.6
977(16) 0.00365 990.4 6.7
1004(16) 0.00359 991.0 6.9
999(17) 0.003384 991.6 7.0
993(17) 0.003196 992.2 7.1
1014(17) 0.003344 992.8 7.3
964(16) 0.00372 993.4 7.4
1016(17) 0.003485 994.0 7.6
998(17) 0.003376 994.6 7.7
998(17) 0.003214 995.2 7.9
1016(17) 0.003297 995.7 8.0
1011(17) 0.00355 996.3 8.2
1013(17) 0.003486 996.9 8.4
1020(17) 0.003304 997.5 8.6
988(17) 0.003314 998.1 8.7
1036(17) 0.003234 998.7 8.9
1015(16) 0.00357 999.3 9.1
1008(17) 0.003460 999.9 9.3
1026(17) 0.003226 1000.5 9.5
1012(17) 0.003261 1001.1 9.7
1026(17) 0.003276 1001.7 10.0
986(16) 0.00367 1002.3 10.2
1033(17) 0.003293 1002.8 10.4
1020(17) 0.003294 1003.4 10.7
1020(17) 0.003200 1004.0 10.9
998(17) 0.003458 1004.6 11.2
1045(17) 0.003451 1005.2 11.5
989(17) 0.003362 1005.8 11.8
1041(18) 0.003169 1006.4 12.1
1031(17) 0.003194 1007.0 12.4
1038(17) 0.003232 1007.6 12.7
1002(16) 0.00359 1008.2 13.0
1033(17) 0.003227 1008.8 13.3
1014(17) 0.003188 1009.3 13.7
1036(17) 0.003206 1009.9 14.1
1007(17) 0.003483 1010.5 14.5
1033(17) 0.003459 1011.1 14.9
1021(17) 0.003296 1011.7 15.3
1010(17) 0.003207 1012.3 15.7
999(17) 0.003362 1012.9 16.2
1021(17) 0.003433 1013.5 16.7
1054(17) 0.003415 1014.1 17.1
1030(17) 0.003309 1014.7 17.7
1004(17) 0.003287 1015.3 18.2
1030(17) 0.003331 1015.9 18.8
1035(17) 0.003441 1016.4 19.4
1051(17) 0.003448 1017.0 20.0
1002(17) 0.003346 1017.6 20.7
1064(18) 0.002908 1018.2 21.3
1040(17) 0.003216 1018.8 22.1
1030(17) 0.003462 1019.4 22.8
1088(17) 0.003326 1020.0 23.6
1045(17) 0.003278 1020.6 24.5
1047(18) 0.002991 1021.2 25.4
1066(18) 0.003143 1021.8 26.3
1030(17) 0.003486 1022.4 27.3
1058(17) 0.003387 1022.9 28.3
1048(17) 0.003237 1023.5 29.4
1016(18) 0.003114 1024.1 30.6
1056(17) 0.003187 1024.7 31.9
1041(17) 0.003463 1025.3 33.2
1064(17) 0.003394 1025.9 34.6
1058(18) 0.003124 1026.5 36.1
1022(17) 0.003172 1027.1 37.7
1030(17) 0.003301 1027.7 39.4
1085(17) 0.003316 1028.3 41.2
1060(17) 0.003339 1028.9 43.1
1063(18) 0.003112 1029.5 45.2
1034(18) 0.003136 1030.0 47.4
1086(18) 0.003080 1030.6 49.8
1079(17) 0.003333 1031.2 52.4
1082(17) 0.003225 1031.8 55.2
1037(17) 0.003190 1032.4 58.2
1070(18) 0.003079 1033.0 61.5
1095(18) 0.003098 1033.6 65.1
1088(17) 0.003320 1034.2 68.9
1101(18) 0.003120 1034.8 73.1
1036(17) 0.003262 1035.4 77.7
1082(18) 0.003089 1036.0 82.8
1065(17) 0.003263 1036.6 88.3
1101(17) 0.003291 1037.1 94.4
1136(18) 0.003002 1037.7 101.1
1179(19) 0.002826 1038.3 108.6
1177(19) 0.002841 1038.9 117.0
1140(18) 0.003038 1039.5 126.4
1136(17) 0.003192 1040.1 137.1
1193(19) 0.002787 1040.7 149.2
1181(19) 0.002733 1041.3 163.2
1171(19) 0.002836 1041.9 179.5
1194(18) 0.002937 1042.5 198.9
1246(18) 0.002909 1043.1 221.9
1255(19) 0.002767 1043.6 249.8
1286(19) 0.002572 1044.2 283.8
1318(19) 0.002588 1044.8 325.5
1340(19) 0.002619 1045.4 376.7
1446(20) 0.002513 1046.0 439.4
1522(21) 0.002229 1046.6 516.0
1564(22) 0.002044 1047.2 608.4
1688(22) 0.002029 1047.8 718.5
1870(23) 0.001926 1048.4 847.8
1986(23) 0.001845 1049.0 996.8
2117(24) 0.001643 1049.6 1164.8
2437(28) 0.001289 1050.2 1348.7
2642(28) 0.001295 1050.7 1542.6
2846(28) 0.001281 1051.3 1735.9
2974(28) 0.001227 1051.9 1913.2
3211(30) 0.001071 1052.5 2054.2
3243(32) 0.000980 1053.1 2138.1
3167(30) 0.001087 1053.7 2150.3
3047(29) 0.001209 1054.3 2088.6
2828(28) 0.001281 1054.9 1963.9
2745(28) 0.001230 1055.5 1796.1
2607(28) 0.001229 1056.1 1605.9
2359(26) 0.001440 1056.7 1410.8
2237(25) 0.001628 1057.2 1222.9
2039(24) 0.001772 1057.8 1049.3
1942(24) 0.001767 1058.4 893.9
1755(23) 0.001873 1059.0 758.2
1640(22) 0.002083 1059.6 642.0
1575(21) 0.002314 1060.2 544.1
1606(21) 0.002179 1060.8 462.7
1460(21) 0.002296 1061.4 395.7
1405(20) 0.002358 1062.0 340.9
1425(20) 0.002374 1062.6 296.4
1356(19) 0.002669 1063.2 260.1
1355(19) 0.002570 1063.8 230.4
1298(19) 0.002613 1064.3 205.9
1301(20) 0.002517 1064.9 185.5
1291(19) 0.002666 1065.5 168.3
1254(18) 0.002884 1066.1 153.6
1228(19) 0.002775 1066.7 140.9
1215(19) 0.002754 1067.3 129.8
1195(19) 0.002837 1067.9 120.0
1215(19) 0.002819 1068.5 111.4
1151(18) 0.003150 1069.1 103.6
1159(18) 0.002921 1069.7 96.6
1155(18) 0.002866 1070.3 90.3
1143(18) 0.002922 1070.8 84.6
1153(18) 0.003052 1071.4 79.4
1193(18) 0.003018 1072.0 74.7
1154(18) 0.002930 1072.6 70.4
1192(19) 0.002723 1073.2 66.4
1123(18) 0.003064 1073.8 62.8
1187(18) 0.002959 1074.4 59.4
1109(17) 0.003271 1075.0 56.3
1113(18) 0.003068 1075.6 53.4
1120(18) 0.002872 1076.2 50.8
1129(18) 0.002964 1076.8 48.3
1122(17) 0.003177 1077.4 46.1
1128(17) 0.003191 1077.9 43.9
1089(18) 0.003160 1078.5 41.9
1148(19) 0.002780 1079.1 40.1
1150(18) 0.002964 1079.7 38.3
1131(17) 0.003185 1080.3 36.7
1125(17) 0.003203 1080.9 35.2
1118(18) 0.003026 1081.5 33.8
1119(19) 0.002823 1082.1 32.4
1139(18) 0.003014 1082.7 31.2
1131(18) 0.003170 1083.3 30.0
1093(17) 0.003259 1083.9 28.8
1146(18) 0.002932 1084.4 27.8
1118(19) 0.002831 1085.0 26.8
1118(18) 0.002984 1085.6 25.8
1132(18) 0.003163 1086.2 24.9
1149(18) 0.003091 1086.8 24.1
1119(18) 0.002976 1087.4 23.3
1080(18) 0.002963 1088.0 22.5
1069(17) 0.003215 1088.6 21.7
1104(17) 0.003244 1089.2 21.1
1106(17) 0.003195 1089.8 20.4
1118(18) 0.002961 1090.4 19.8
1108(18) 0.002942 1091.0 19.2
1131(18) 0.002955 1091.5 18.6
1156(18) 0.003135 1092.1 18.0
1129(18) 0.003065 1092.7 17.5
1163(18) 0.002900 1093.3 17.0
1120(18) 0.002999 1093.9 16.5
1134(18) 0.003029 1094.5 16.1
1145(18) 0.003172 1095.1 15.6
1170(18) 0.002976 1095.7 15.2
1133(18) 0.002924 1096.3 14.8
1170(19) 0.002815 1096.9 14.4
1127(18) 0.003081 1097.5 14.0
1134(17) 0.003193 1098.0 13.7
1119(18) 0.003024 1098.6 13.3
1098(18) 0.003022 1099.2 13.0
1122(18) 0.002963 1099.8 12.7
1106(18) 0.003140 1100.4 12.4
1114(17) 0.003259 1101.0 12.1
1090(18) 0.003097 1101.6 11.8
1099(18) 0.002938 1102.2 11.5
1085(18) 0.003099 1102.8 11.3
1079(17) 0.003273 1103.4 11.0
1134(17) 0.003189 1104.0 10.8
1174(19) 0.002795 1104.6 10.5
1131(18) 0.002873 1105.1 10.3
1147(18) 0.002982 1105.7 10.1
1094(17) 0.003293 1106.3 9.9
1132(17) 0.003205 1106.9 9.7
1183(19) 0.002836 1107.5 9.5
1131(19) 0.002796 1108.1 9.3
1145(18) 0.003012 1108.7 9.1
1131(17) 0.003196 1109.3 8.9
1129(17) 0.003173 1109.9 8.7
1134(18) 0.003025 1110.5 8.6
1135(19) 0.002785 1111.1 8.4
1116(18) 0.003040 1111.7 8.2
1148(18) 0.003151 1112.2 8.1
1106(17) 0.003270 1112.8 7.9
1135(18) 0.002949 1113.4 7.8
1149(19) 0.002749 1114.0 7.7
1098(18) 0.003168 1114.6 7.5
1132(18) 0.003155 1115.2 7.4
1126(18) 0.003154 1115.8 7.3
1071(18) 0.003150 1116.4 7.1
1104(18) 0.002885 1117.0 7.0
1123(18) 0.002992 1117.6 6.9
1132(17) 0.003196 1118.2 6.8
1119(18) 0.003117 1118.7 6.7
1077(17) 0.003190 1119.3 6.6
1139(18) 0.002848 1119.9 6.5
1099(18) 0.003097 1120.5 6.4
1118(17) 0.003214 1121.1 6.3
1173(18) 0.002950 1121.7 6.2
1113(18) 0.003022 1122.3 6.1
1118(18) 0.002969 1122.9 6.0
1158(18) 0.002935 1123.5 5.9
1113(17) 0.003238 1124.1 5.8
1175(18) 0.002903 1124.7 5.8
1170(19) 0.002799 1125.3 5.7
1122(18) 0.002980 1125.8 5.6
1115(18) 0.003102 1126.4 5.5
1140(17) 0.003177 1126.8 5.5
1123(18) 0.003057 1127.0 5.4
1124(18) 0.002960 1127.2 5.3
1149(18) 0.002929 1127.5 5.3
1171(18) 0.003023 1127.7 5.2
1095(17) 0.003280 1127.9 5.1
1172(19) 0.002834 1128.1 5.1
1152(19) 0.002840 1128.3 5.0
1104(18) 0.003053 1128.5 5.0
1102(17) 0.003196 1128.7 4.9
1166(18) 0.003105 1128.9 4.9
1119(18) 0.003030 1129.1 4.8
1111(18) 0.002850 1129.3 4.8
1125(18) 0.002993 1129.5 4.7
1114(17) 0.003203 1129.7 4.7
1156(18) 0.003107 1129.9 4.7
1158(18) 0.002892 1130.1 4.6
1129(18) 0.002867 1130.3 4.6
1136(18) 0.003032 1130.5 4.6
1126(17) 0.003197 1130.8 4.5
1158(18) 0.003119 1131.0 4.5
1122(18) 0.003060 1131.2 4.5
1151(19) 0.002737 1131.4 4.4
1162(18) 0.002919 1131.6 4.4
1083(17) 0.003317 1131.8 4.4
1145(18) 0.003129 1132.0 4.4
1142(18) 0.002969 1132.2 4.3
1165(19) 0.002694 1132.4 4.3
1115(18) 0.003043 1132.6 4.3
1149(18) 0.003124 1132.8 4.3
1126(17) 0.003212 1133.0 4.3
1149(18) 0.002987 1133.2 4.3
1149(19) 0.002835 1133.4 4.3
1143(18) 0.002952 1133.6 4.3
1169(18) 0.003077 1133.9 4.3
1153(18) 0.003060 1134.1 4.3
1150(18) 0.002927 1134.3 4.3
1169(19) 0.002794 1134.5 4.3
1149(18) 0.002915 1134.7 4.3
1126(17) 0.003210 1134.9 4.3
1113(17) 0.003188 1135.1 4.3
1191(19) 0.002780 1135.3 4.3
1149(18) 0.002851 1135.5 4.4
1150(18) 0.002950 1135.7 4.4
1133(17) 0.003189 1135.9 4.4
1148(18) 0.003025 1136.1 4.5
1188(19) 0.002794 1136.3 4.5
1166(18) 0.002870 1136.5 4.6
1134(18) 0.003018 1136.7 4.6
1176(18) 0.003072 1137.0 4.7
1175(18) 0.002879 1137.2 4.7
1189(19) 0.002756 1137.4 4.8
1143(18) 0.002949 1137.6 4.9
1167(18) 0.002944 1137.8 5.0
1149(18) 0.003148 1138.0 5.1
1164(19) 0.002814 1138.2 5.2
1157(19) 0.002839 1138.4 5.3
1200(19) 0.002829 1138.6 5.4
1156(18) 0.003044 1138.8 5.6
1157(18) 0.003134 1139.0 5.7
1137(18) 0.003000 1139.2 5.9
1200(19) 0.002674 1139.4 6.1
1147(18) 0.002947 1139.6 6.3
1130(18) 0.003164 1139.8 6.5
1154(18) 0.003136 1140.0 6.8
1171(18) 0.002892 1140.3 7.1
1169(19) 0.002739 1140.5 7.4
1212(19) 0.002795 1140.7 7.7
1208(18) 0.002951 1140.9 8.1
1165(18) 0.003099 1141.1 8.6
1207(19) 0.002768 1141.3 9.1
1172(19) 0.002679 1141.5 9.7
1174(18) 0.002934 1141.7 10.4
1225(18) 0.002954 1141.9 11.3
1171(18) 0.003045 1142.1 12.3
1147(18) 0.002990 1142.3 13.5
1176(19) 0.002689 1142.5 14.9
1143(18) 0.002966 1142.7 16.6
1165(18) 0.003077 1142.9 18.7
1213(18) 0.002949 1143.1 21.2
1189(18) 0.002927 1143.4 24.2
1206(19) 0.002667 1143.6 27.7
1210(19) 0.002839 1143.8 31.8
1220(18) 0.002963 1144.0 36.6
1215(18) 0.002913 1144.2 42.0
1185(18) 0.002871 1144.4 48.0
1203(19) 0.002707 1144.6 54.7
1235(19) 0.002697 1144.8 61.8
1247(18) 0.002910 1145.0 69.1
1261(19) 0.002800 1145.2 76.2
1236(19) 0.002769 1145.4 82.7
1231(19) 0.002671 1145.6 87.9
1254(19) 0.002720 1145.8 91.1
1272(18) 0.002864 1146.0 92.0
1271(19) 0.002752 1146.2 90.4
1267(19) 0.002668 1146.4 86.6
1222(19) 0.002750 1146.7 81.0
1293(19) 0.002651 1146.9 74.3
1260(18) 0.002882 1147.1 67.0
1246(19) 0.002754 1147.3 59.8
1225(19) 0.002705 1147.5 52.8
1244(19) 0.002688 1147.7 46.3
1216(19) 0.002836 1147.9 40.4
1202(18) 0.003008 1148.1 35.2
1237(19) 0.002741 1148.3 30.6
1236(19) 0.002677 1148.5 26.7
1186(19) 0.002838 1148.7 23.3
1166(18) 0.003015 1148.9 20.5
1180(18) 0.003063 1149.1 18.2
1195(19) 0.002755 1149.3 16.2
1181(19) 0.002758 1149.5 14.6
1152(18) 0.002935 1149.8 11.9
1161(18) 0.003022 1150.0 10.8
1171(18) 0.003088 1150.2 9.9
1173(18) 0.002940 1150.4 9.2
1209(19) 0.002650 1150.6 8.6
1167(18) 0.002896 1150.8 8.1
1208(18) 0.002944 1151.0 7.7
1164(18) 0.003110 1151.2 7.4
1170(18) 0.002876 1151.4 7.1
1212(20) 0.002567 1151.6 6.9
1159(18) 0.002936 1151.8 6.7
1183(18) 0.003032 1152.0 6.6
1192(18) 0.003026 1152.2 6.5
1165(18) 0.002897 1152.4 6.5
1187(19) 0.002592 1152.6 6.5
1208(18) 0.002850 1152.9 6.6
1201(18) 0.003004 1153.1 6.6
1203(18) 0.002979 1153.3 6.7
1224(19) 0.002770 1153.5 6.8
1233(19) 0.002594 1153.7 7.0
1204(19) 0.002804 1153.9 7.1
1151(18) 0.003141 1154.1 7.2
1152(18) 0.003117 1154.3 7.3
1139(18) 0.002939 1154.5 7.4
1156(19) 0.002821 1154.7 7.5
1186(19) 0.002832 1154.9 7.5
1191(18) 0.003032 1155.1 7.5
1153(18) 0.003029 1155.3 7.4
1240(19) 0.002714 1155.5 7.3
1238(19) 0.002649 1155.7 7.1
1208(19) 0.002784 1155.9 6.9
1229(18) 0.002957 1156.2 6.6
1168(18) 0.002998 1156.4 6.3
1164(18) 0.002893 1156.6 6.0
1170(19) 0.002845 1156.8 5.7
1193(18) 0.002863 1157.0 5.3
1186(18) 0.003062 1157.2 5.0
1167(18) 0.002937 1157.4 4.7
1186(19) 0.002790 1157.6 4.4
1169(19) 0.002807 1157.8 4.1
1190(18) 0.002917 1158.0 3.8
1197(18) 0.003013 1158.2 3.6
1223(19) 0.002730 1158.4 3.3
1227(19) 0.002657 1158.6 3.1
1247(19) 0.002660 1158.8 2.9
1193(18) 0.002957 1159.0 2.7
1230(18) 0.002935 1159.3 2.5
1163(18) 0.002866 1159.5 2.4
1184(19) 0.002716 1159.7 2.2
1206(19) 0.002792 1159.9 2.1
1191(18) 0.002976 1160.1 2.0
1161(18) 0.003124 1160.3 1.9
1207(18) 0.002854 1160.5 1.8
1271(20) 0.002514 1160.7 1.7
1215(19) 0.002764 1160.9 1.6
1188(18) 0.002993 1161.1 1.5
1166(18) 0.003090 1161.3 1.4
1178(19) 0.002846 1161.5 1.4
1204(19) 0.002648 1161.7 1.3
1186(18) 0.002884 1161.9 1.3
1178(18) 0.003034 1162.1 1.2
1170(18) 0.003061 1162.3 1.2
1191(19) 0.002832 1162.6 1.1
1167(19) 0.002722 1162.8 1.1
1237(19) 0.002700 1163.0 1.0
1191(18) 0.003047 1163.2 1.0
1213(18) 0.002926 1163.4 1.0
1172(18) 0.002878 1163.6 0.9
1184(19) 0.002691 1163.8 0.9
1146(18) 0.002939 1164.0 0.9
1168(18) 0.003060 1164.2 0.9
1163(18) 0.003058 1164.4 0.8
1231(19) 0.002708 1164.6 0.8
1156(19) 0.002815 1164.8 0.8
1192(19) 0.002785 1165.0 0.8
1179(18) 0.003059 1165.2 0.7
1216(18) 0.002916 1165.4 0.7
1218(19) 0.002780 1165.7 0.7
1192(19) 0.002723 1165.9 0.7
1167(18) 0.002925 1166.1 0.7
1212(18) 0.002957 1166.3 0.6
1201(18) 0.002937 1166.5 0.6
1169(18) 0.002885 1166.7 0.6
1160(19) 0.002841 1166.9 0.6
1186(19) 0.002841 1167.1 0.6
1169(18) 0.003053 1167.3 0.6
1204(18) 0.002931 1167.5 0.6
1144(18) 0.002910 1167.7 0.5
1177(19) 0.002800 1167.9 0.5
1165(18) 0.002957 1168.1 0.5
1164(18) 0.003087 1168.3 0.5
1188(18) 0.002883 1168.5 0.5
1196(19) 0.002708 1168.8 0.5
1204(19) 0.002790 1169.0 0.5
1204(18) 0.002864 1169.2 0.5
1176(18) 0.003083 1169.4 0.5
1160(18) 0.002928 1169.6 0.4
1200(19) 0.002699 1169.8 0.4
1162(18) 0.002934 1170.0 0.4
1178(18) 0.002993 1170.2 0.4
1173(18) 0.003100 1170.4 0.4
1159(18) 0.002938 1170.6 0.4
1203(19) 0.002726 1170.8 0.4
1178(18) 0.002889 1171.0 0.4
1170(18) 0.003004 1171.2 0.4
1151(18) 0.003128 1171.4 0.4
1200(19) 0.002821 1171.6 0.4
1221(19) 0.002602 1171.8 0.4
1172(18) 0.002930 1172.1 0.4
1187(18) 0.003044 1172.3 0.3
1220(18) 0.002963 1172.5 0.3
1222(19) 0.002802 1172.4 0.3
1182(19) 0.002689 1172.1 0.3
1235(19) 0.002741 1171.8 0.3
1162(18) 0.003062 1171.4 0.3
1193(18) 0.003026 1171.1 0.3
1197(18) 0.002865 1170.8 0.3
1233(20) 0.002548 1170.5 0.3
1185(19) 0.002829 1170.1 0.3
1163(18) 0.003118 1169.8 0.3
1212(18) 0.002952 1169.5 0.3
1206(18) 0.002851 1169.2 0.3
1181(19) 0.002750 1168.8 0.3
1238(19) 0.002724 1168.5 0.3
1160(18) 0.003126 1168.2 0.3
1125(18) 0.003097 1167.9 0.3
1144(18) 0.002978 1167.5 0.3
1160(19) 0.002823 1167.2 0.3
1213(19) 0.002743 1166.9 0.3
1167(18) 0.003090 1166.6 0.3
1151(18) 0.003040 1166.2 0.2
1154(18) 0.002871 1165.9 0.2
1168(19) 0.002818 1165.6 0.2
1149(18) 0.002988 1165.3 0.2
1134(17) 0.003192 1164.9 0.2
1161(18) 0.003036 1164.6 0.2
1162(18) 0.002925 1164.3 0.2
1167(19) 0.002840 1164.0 0.2
1115(18) 0.003040 1163.6 0.2
1208(18) 0.003000 1163.3 0.2
1167(18) 0.002955 1163.0 0.2
1154(18) 0.002870 1162.7 0.2
1144(18) 0.002927 1162.3 0.2
1159(18) 0.002993 1162.0 0.2
1152(18) 0.003147 1161.7 0.2
1152(18) 0.002920 1161.4 0.2
1181(19) 0.002776 1161.0 0.2
1200(19) 0.002756 1160.7 0.2
1220(18) 0.002849 1160.4 0.2
1143(17) 0.003172 1160.0 0.2
1181(19) 0.002839 1159.7 0.2
1191(19) 0.002733 1159.4 0.2
1231(19) 0.002738 1159.1 0.2
1217(18) 0.002925 1158.7 0.2
1210(18) 0.003007 1158.4 0.2
1194(19) 0.002817 1158.1 0.2
1132(18) 0.002883 1157.8 0.2
1177(18) 0.002860 1157.4 0.2
1194(18) 0.002993 1157.1 0.2
1203(18) 0.002997 1156.8 0.2
1180(19) 0.002845 1156.5 0.2
1200(19) 0.002594 1156.1 0.2
1221(19) 0.002749 1155.8 0.2
1176(18) 0.003043 1155.5 0.2
1181(18) 0.003031 1155.2 0.2
1152(18) 0.002981 1154.8 0.2
1157(19) 0.002717 1154.5 0.2
1174(18) 0.002864 1154.2 0.2
1120(17) 0.003219 1153.9 0.2
1130(17) 0.003207 1153.5 0.1
1136(18) 0.003022 1153.2 0.1
1113(19) 0.002816 1152.9 0.1
1190(18) 0.002851 1152.6 0.1
1232(18) 0.002904 1152.2 0.1
1223(18) 0.002902 1151.9 0.1
1175(18) 0.002936 1151.6 0.1
1138(18) 0.002878 1151.3 0.1
1168(18) 0.002890 1150.9 0.1
1175(18) 0.003089 1150.6 0.1
1182(18) 0.002933 1150.3 0.1
1154(18) 0.002906 1150.0 0.1
1157(19) 0.002809 1149.6 0.1
1178(18) 0.002918 1149.3 0.1
1174(18) 0.003083 1149.0 0.1
1168(18) 0.002954 1148.7 0.1
1202(19) 0.002792 1148.3 0.1
1181(19) 0.002822 1148.0 0.1
1175(18) 0.002904 1147.7 0.1
1135(17) 0.003183 1147.4 0.1
1190(18) 0.002868 1147.0 0.1
1182(19) 0.002818 1146.7 0.1
1148(18) 0.002937 1146.4 0.1
1168(18) 0.002954 1146.1 0.1
1163(18) 0.003115 1145.7 0.1
1196(18) 0.002883 1145.4 0.1
1180(19) 0.002796 1145.1 0.1
1155(18) 0.002901 1144.8 0.1
1149(18) 0.003051 1144.4 0.1
1181(18) 0.003053 1144.1 0.1
1166(19) 0.002837 1143.8 0.1
1172(19) 0.002751 1143.5 0.1
1163(18) 0.002925 1143.1 0.1
1183(18) 0.002996 1142.8 0.1
1167(18) 0.003095 1142.5 0.1
1191(19) 0.002827 1142.2 0.1
1174(19) 0.002730 1141.8 0.1
1198(19) 0.002819 1141.5 0.1
1188(18) 0.003019 1141.2 0.1
1121(17) 0.003219 1140.9 0.1
1182(18) 0.002850 1140.5 0.1
1113(18) 0.002914 1140.2 0.1
1150(18) 0.002939 1139.9 0.1
1170(18) 0.003089 1139.6 0.1
1161(18) 0.003086 1139.2 0.1
1146(18) 0.002966 1138.9 0.1
1143(19) 0.002765 1138.6 0.1
1159(18) 0.002897 1138.3 0.1
1160(18) 0.003086 1137.9 0.1
1175(18) 0.003048 1137.6 0.1
1164(18) 0.002959 1137.3 0.1
1124(18) 0.002879 1137.0 0.1
1142(18) 0.002974 1136.6 0.1
1167(18) 0.003108 1136.3 0.1
1168(18) 0.003050 1136.0 0.1
1167(18) 0.002870 1135.7 0.1
1155(19) 0.002816 1135.3 0.1
1170(18) 0.002906 1135.0 0.1
1153(18) 0.003121 1134.7 0.1
1179(18) 0.002986 1134.4 0.1
1207(19) 0.002784 1134.0 0.1
1109(18) 0.003026 1133.7 0.1
1133(18) 0.002982 1133.4 0.1
1100(17) 0.003255 1133.1 0.1
1191(18) 0.002955 1132.7 0.1
1150(18) 0.002927 1132.4 0.1
1141(18) 0.002923 1132.1 0.1
1162(18) 0.002969 1131.8 0.1
1177(18) 0.003084 1131.4 0.1
1136(18) 0.003036 1131.1 0.1
1207(19) 0.002726 1130.8 0.1
1167(18) 0.002890 1130.5 0.1
1135(18) 0.003061 1130.1 0.1
1144(18) 0.003170 1129.8 0.1
1153(18) 0.002931 1129.5 0.1
1141(18) 0.002895 1129.2 0.1
1137(18) 0.002966 1128.8 0.1
1145(18) 0.003049 1128.5 0.1
1141(18) 0.003167 1128.2 0.1
1136(18) 0.002966 1127.9 0.1
1159(19) 0.002796 1127.5 0.1
1104(18) 0.002996 1127.2 0.1
1140(18) 0.003105 1126.9 0.1
1135(17) 0.003188 1126.6 0.1
1122(18) 0.003033 1126.2 0.1
1138(19) 0.002845 1125.9 0.1
1125(18) 0.003014 1125.6 0.1
1156(18) 0.003089 1125.3 0.1
1188(18) 0.003035 1124.9 0.1
1162(18) 0.002916 1124.6 0.1
1134(19) 0.002780 1124.3 0.1
1142(18) 0.002912 1124.0 0.1
1138(18) 0.003167 1123.6 0.1
1161(18) 0.003097 1123.3 0.1
1169(18) 0.002907 1123.0 0.1
1176(19) 0.002666 1122.6 0.1
1143(18) 0.003036 1122.3 0.1
1117(17) 0.003246 1122.0 0.1
1107(17) 0.003234 1121.7 0.1
1126(18) 0.002995 1121.3 0.1
1151(19) 0.002711 1121.0 0.1
1146(18) 0.002925 1120.7 0.1
1132(17) 0.003222 1120.4 0.1
1117(17) 0.003183 1120.0 0.1
1097(18) 0.003097 1119.7 0.1
1136(19) 0.002830 1119.4 0.1
1116(18) 0.003028 1119.1 0.1
1155(18) 0.003127 1118.7 0.1
1170(18) 0.003060 1118.4 0.1
1118(18) 0.002980 1118.1 0.1
1131(18) 0.002862 1117.8 0.1
1144(18) 0.002939 1117.4 0.1
1156(18) 0.003139 1117.1 0.1
1103(18) 0.003107 1116.8 0.1
1146(19) 0.002829 1116.5 0.1
1112(18) 0.002939 1116.1 0.1
1100(18) 0.003127 1115.8 0.1
1104(17) 0.003271 1115.5 0.1
1131(18) 0.003066 1115.2 0.1
1138(18) 0.002921 1114.8 0.1
1121(18) 0.002911 1114.5 0.1
1131(18) 0.003000 1114.2 0.1
1103(17) 0.003277 1113.9 0.1
1121(18) 0.003012 1113.5 0.1
1160(18) 0.002848 1113.2 0.1
1140(18) 0.002945 1112.9 0.1
1133(18) 0.003131 1112.6 0.1
1153(18) 0.003130 1112.2 0.1
1135(18) 0.002895 1111.9 0.1
1151(19) 0.002816 1111.6 0.1
1089(18) 0.003094 1111.3 0.1
1086(17) 0.003207 1110.9 0.1
1149(18) 0.003141 1110.6 0.1
1119(18) 0.003063 1110.3 0.1
1103(18) 0.002971 1110.0 0.1
1126(18) 0.002981 1109.6 0.1
1141(18) 0.003119 1109.3 0.1
1134(17) 0.003200 1109.0 0.1
1140(18) 0.002985 1108.7 0.1
1124(19) 0.002839 1108.3 0.1
1074(18) 0.003150 1108.0 0.1
1138(18) 0.003115 1107.7 0.1
1094(17) 0.003280 1107.4 0.1
1079(17) 0.003189 1107.0 0.1
1115(19) 0.002818 1106.7 0.1
1109(18) 0.003040 1106.4 0.1
1094(17) 0.003264 1106.1 0.1
1123(17) 0.003201 1105.7 0.1
1091(18) 0.003105 1105.4 0.1
1105(19) 0.002840 1105.1 0.1
1087(18) 0.003123 1104.8 0.1
1128(17) 0.003187 1104.4 0.1
1100(17) 0.003253 1104.1 0.1
1106(18) 0.003146 1103.7 0.1
1115(18) 0.002906 1103.1 0.1
1054(17) 0.003196 1102.5 0.1
1092(17) 0.003299 1101.9 0.1
1094(17) 0.003238 1101.3 0.1
1100(18) 0.003076 1100.7 0.1
1162(19) 0.002751 1100.1 0.1
1101(18) 0.003045 1099.5 0.1
1093(17) 0.003291 1098.9 0.1
1120(18) 0.003158 1098.3 0.1
1139(18) 0.002996 1097.7 0.1
1135(18) 0.002945 1097.1 0.1
1115(18) 0.003074 1096.5 0.1
1071(17) 0.003369 1095.9 0.1
1059(17) 0.003284 1095.3 0.1
1069(18) 0.003114 1094.7 0.1
1050(17) 0.003182 1094.1 0.1
1102(18) 0.003139 1093.5 0.1
1130(17) 0.003204 1092.9 0.1
1092(18) 0.003152 1092.3 0.1
1093(18) 0.003021 1091.7 0.1
1083(18) 0.003092 1091.1 0.1
1092(18) 0.003156 1090.6 0.1
1078(17) 0.003339 1090.0 0.1
1075(18) 0.003140 1089.4 0.1
1050(17) 0.003204 1088.8 0.1
1125(18) 0.003003 1088.2 0.1
1094(17) 0.003250 1087.6 0.1
1093(17) 0.003314 1087.0 0.1
1119(18) 0.002965 1086.4 0.1
1099(18) 0.002952 1085.8 0.1
1103(18) 0.003010 1085.2 0.1
1086(17) 0.003242 1084.6 0.1
1078(17) 0.003363 1084.0 0.1
1061(17) 0.003228 1083.4 0.1
1086(18) 0.002886 1082.8 0.1
1057(17) 0.003185 1082.2 0.1
1066(17) 0.003357 1081.6 0.1
1060(17) 0.003415 1081.0 0.1
1066(18) 0.003156 1080.4 0.1
1090(18) 0.002911 1079.8 0.1
1024(17) 0.003278 1079.2 0.1
1039(17) 0.003411 1078.6 0.1
1077(17) 0.003360 1078.1 0.1
1112(18) 0.003107 1077.5 0.1
1046(18) 0.003046 1076.9 0.1
1015(17) 0.003366 1076.3 0.1
1096(17) 0.003305 1075.7 0.1
1048(17) 0.003381 1075.1 0.1
1043(17) 0.003236 1074.5 0.1
1025(18) 0.003142 1073.9 0.1
1087(18) 0.003084 1073.3 0.1
1086(17) 0.003323 1072.7 0.1
1054(17) 0.003332 1072.1 0.1
1068(18) 0.003126 1071.5 0.1
1068(18) 0.002975 1070.9 0.1
1095(18) 0.003062 1070.3 0.1
1103(17) 0.003263 1069.7 0.1
1094(17) 0.003200 1069.1 0.1
1041(17) 0.003175 1068.5 0.1
1043(18) 0.003076 1067.9 0.1
1024(17) 0.003248 1067.3 0.1
1021(17) 0.003506 1066.7 0.1
1108(18) 0.003165 1066.1 0.1
1096(18) 0.003060 1065.5 0.1
1064(18) 0.003110 1065.0 0.1
1084(18) 0.003100 1064.4 0.1
1095(17) 0.003294 1063.8 0.1
1060(17) 0.003224 1063.2 0.1
1056(17) 0.003184 1062.6 0.1
1047(17) 0.003214 1062.0 0.1
1043(17) 0.003341 1061.4 0.1
1079(17) 0.003342 1060.8 0.1
1011(17) 0.003372 1060.2 0.1
1082(18) 0.003029 1059.6 0.1
1077(18) 0.003163 1059.0 0.1
1034(17) 0.003322 1058.4 0.1
1084(17) 0.003331 1057.8 0.1
1036(17) 0.003286 1057.2 0.1
1020(17) 0.003188 1056.6 0.1
1057(17) 0.003207 1056.0 0.1
1054(17) 0.003388 1055.4 0.1
1062(17) 0.003405 1054.8 0.1
1018(17) 0.003386 1054.2 0.1
1085(18) 0.002912 1053.6 0.1
1051(18) 0.003154 1053.0 0.1
987(16) 0.00361 1052.5 0.1
1010(17) 0.00355 1051.9 0.1
1042(17) 0.003237 1051.3 0.1
1122(19) 0.002784 1050.7 0.1
1059(17) 0.003203 1050.1 0.1
1034(17) 0.003481 1049.5 0.1
1040(17) 0.003415 1048.9 0.1
1048(17) 0.003220 1048.3 0.1
1041(18) 0.003030 1047.7 0.1
1048(17) 0.003243 1047.1 0.1
1061(17) 0.003402 1046.5 0.1
1083(17) 0.003300 1045.9 0.1
1046(17) 0.003207 1045.3 0.1
1036(18) 0.003052 1044.7 0.1
1018(17) 0.003300 1044.1 0.1
1039(17) 0.003454 1043.5 0.1
1042(17) 0.003388 1042.9 0.1
1015(17) 0.003353 1042.3 0.1
1024(17) 0.003200 1041.7 0.1
1036(17) 0.003258 1041.1 0.1
1068(17) 0.003381 1040.5 0.1
1053(17) 0.003341 1039.9 0.1
1043(17) 0.003273 1039.4 0.1
1017(17) 0.003264 1038.8 0.1
1051(18) 0.003153 1038.2 0.1
1038(17) 0.003473 1037.6 0.1
1027(17) 0.003409 1037.0 0.1
1051(18) 0.003167 1036.4 0.1
1002(17) 0.003270 1035.8 0.1
1032(17) 0.003304 1035.2 0.1
1081(17) 0.003340 1034.6 0.1
1057(17) 0.003227 1034.0 0.1
989(17) 0.003382 1033.4 0.1
1003(17) 0.003357 1032.8 0.1
1039(17) 0.003396 1032.2 0.1
1064(17) 0.003391 1031.6 0.1
1060(18) 0.003167 1031.0 0.1
1079(18) 0.003013 1030.4 0.1
1022(17) 0.003342 1029.8 0.1
1050(17) 0.003308 1029.2 0.1
1054(17) 0.003421 1028.6 0.1
1033(17) 0.003173 1028.0 0.1
1025(18) 0.003158 1027.4 0.1
1011(17) 0.003300 1026.9 0.1
1014(17) 0.003491 1026.3 0.1
1014(16) 0.00356 1025.7 0.1
983(17) 0.003404 1025.1 0.1
1051(18) 0.003046 1024.5 0.1
1020(17) 0.003371 1023.9 0.1
1052(17) 0.003396 1023.3 0.1
998(16) 0.00358 1022.7 0.1
1019(17) 0.003334 1022.1 0.1
1082(18) 0.002966 1021.5 0.1
1042(17) 0.003294 1020.9 0.1
998(16) 0.00356 1020.3 0.1
1034(17) 0.003487 1019.7 0.1
1062(18) 0.003123 1019.1 0.1
1001(18) 0.003089 1018.5 0.1
996(17) 0.003404 1017.9 0.1
1033(17) 0.003475 1017.3 0.1
1059(17) 0.003359 1016.7 0.1
1065(18) 0.003110 1016.1 0.1
1013(18) 0.003153 1015.5 0.1
1018(17) 0.003268 1014.9 0.1
1015(16) 0.00356 1014.3 0.1
1018(17) 0.003488 1013.8 0.1
964(17) 0.003478 1013.2 0.1
1017(18) 0.003075 1012.6 0.1
984(17) 0.003418 1012.0 0.1
1013(16) 0.00357 1011.4 0.1
1006(17) 0.00353 1010.8 0.1
1037(17) 0.003232 1010.2 0.1
976(17) 0.003381 1009.6 0.1
982(17) 0.003412 1009.0 0.1
1023(17) 0.00352 1008.4 0.1
1062(17) 0.003343 1007.8 0.1
1039(17) 0.003280 1007.2 0.1
1043(18) 0.003142 1006.6 0.2
1028(17) 0.003270 1006.0 0.2
1031(17) 0.003490 1005.4 0.2
980(17) 0.003468 1004.8 0.2
982(17) 0.003399 1004.2 0.2
955(17) 0.00354 1003.6 0.2
1005(17) 0.003404 1003.0 0.2
974(16) 0.00368 1002.4 0.2
968(17) 0.00352 1001.8 0.2
947(17) 0.00352 1001.3 0.2
973(17) 0.003453 1000.7 0.2
1021(17) 0.003408 1000.1 0.2
1025(17) 0.003505 999.5 0.2
997(17) 0.003372 998.9 0.2
1019(17) 0.003233 998.3 0.2
1010(17) 0.003328 997.7 0.2
995(16) 0.00356 997.1 0.2
948(16) 0.00380 996.5 0.2
958(17) 0.00353 995.9 0.2
981(17) 0.003279 995.3 0.2
946(16) 0.00364 994.7 0.2
1001(16) 0.00360 994.1 0.2
1017(17) 0.00354 993.5 0.2
976(17) 0.003479 992.9 0.2
980(17) 0.003241 992.3 0.2
989(17) 0.003418 991.7 0.2
983(16) 0.00365 991.1 0.2
955(16) 0.00376 990.5 0.2
937(16) 0.00363 989.9 0.2
962(17) 0.003227 989.3 0.3
1000(17) 0.003360 988.7 0.3
1053(17) 0.003425 988.2 0.3
1015(17) 0.003495 987.6 0.3
1001(17) 0.003357 987.0 0.3
960(17) 0.003293 986.4 0.3
974(17) 0.003484 985.8 0.3
981(16) 0.00369 985.2 0.3
970(16) 0.00368 984.6 0.3
984(17) 0.003404 984.0 0.3
983(17) 0.003238 983.4 0.3
983(17) 0.003387 982.8 0.3
991(16) 0.00365 982.2 0.3
994(17) 0.00354 981.6 0.3
948(17) 0.00352 981.0 0.3
989(17) 0.003230 980.4 0.3
1000(17) 0.003323 979.8 0.4
1005(16) 0.00360 979.2 0.4
1027(17) 0.003379 978.6 1.4
993(17) 0.003367 978.0 1.5
975(17) 0.003333 977.4 1.5
965(17) 0.003499 976.8 1.5
983(16) 0.00364 976.2 1.5
985(16) 0.00359 975.6 1.6
999(17) 0.003372 975.0 1.6
955(17) 0.00353 974.4 1.6
976(17) 0.003443 973.7 1.7
955(16) 0.00375 973.1 1.7
989(17) 0.003497 972.5 1.7
997(17) 0.003273 971.9 1.8
953(17) 0.003455 971.3 1.8
936(16) 0.00369 970.7 1.8
948(16) 0.00379 970.1 1.9
990(17) 0.003416 969.5 1.9
973(17) 0.003425 968.9 2.0
968(17) 0.003486 968.3 2.0
994(17) 0.003507 967.7 2.1
1015(17) 0.00356 967.1 2.1
962(17) 0.00353 966.5 2.2
990(17) 0.003216 965.9 2.2
966(17) 0.003452 965.3 2.3
945(16) 0.00374 964.7 2.3
987(16) 0.00366 964.1 2.4
954(17) 0.00354 963.5 2.4
968(17) 0.003302 962.8 2.5
931(16) 0.00366 962.2 2.5
1004(17) 0.00353 961.6 2.6
960(16) 0.00373 961.0 2.7
990(17) 0.003445 960.4 2.8
989(17) 0.003220 959.8 2.8
972(17) 0.003459 959.2 2.9
1007(16) 0.00357 958.6 3.0
952(16) 0.00375 958.0 3.1
977(17) 0.003464 957.4 3.2
975(17) 0.003184 956.8 3.3
952(17) 0.00351 956.2 3.4
958(16) 0.00378 955.6 3.5
946(16) 0.00378 955.0 3.6
960(17) 0.00352 954.4 3.7
961(17) 0.003308 953.8 3.8
917(16) 0.00370 953.2 3.9
968(16) 0.00371 952.6 4.1
969(16) 0.00364 952.0 4.2
948(17) 0.00352 951.3 4.4
941(17) 0.003477 950.7 4.5
965(17) 0.003505 950.1 4.7
1000(16) 0.00360 949.5 4.9
956(16) 0.00371 948.9 5.1
975(17) 0.003319 948.3 5.4
955(17) 0.003402 947.7 5.6
1002(17) 0.003386 947.1 5.9
1007(16) 0.00356 946.5 6.2
963(16) 0.00366 945.9 6.5
976(17) 0.003393 945.3 6.8
968(17) 0.003437 944.7 7.2
954(17) 0.00355 944.1 7.7
961(16) 0.00377 943.5 8.1
976(17) 0.00353 942.9 8.7
944(16) 0.00358 942.3 9.2
980(17) 0.003404 941.7 9.9
946(16) 0.00366 941.1 10.6
937(16) 0.00379 940.4 11.3
953(16) 0.00360 939.8 12.2
959(17) 0.003496 939.2 13.1
966(17) 0.003458 938.6 14.1
970(17) 0.00352 938.0 15.1
930(16) 0.00387 937.4 16.3
900(16) 0.00375 936.8 17.5
978(17) 0.003276 936.2 18.7
966(17) 0.003501 935.6 20.1
945(16) 0.00370 935.0 21.4
973(16) 0.00369 934.4 22.8
883(16) 0.00386 933.8 24.2
942(17) 0.003307 933.2 25.5
944(17) 0.00351 932.6 26.7
930(16) 0.00376 932.0 27.8
953(16) 0.00381 931.4 28.7
991(17) 0.003365 930.8 29.3
933(17) 0.003368 930.2 29.8
928(16) 0.00361 929.6 29.9
953(16) 0.00374 928.9 29.9
958(16) 0.00375 928.3 29.6
1005(17) 0.003299 927.7 29.2
939(17) 0.003368 927.1 28.7
962(17) 0.003458 926.5 28.1
911(16) 0.00395 925.9 27.5
956(16) 0.00364 925.3 26.9
908(16) 0.00376 924.7 26.4
942(17) 0.003403 924.1 25.9
972(17) 0.003410 923.5 25.6
950(16) 0.00380 922.9 25.4
951(16) 0.00368 922.3 25.3
946(16) 0.00359 921.7 25.4
999(17) 0.003179 921.1 25.6
956(16) 0.00358 920.5 26.0
967(16) 0.00372 919.9 26.6
944(16) 0.00369 919.3 27.4
975(17) 0.003367 918.7 28.4
930(17) 0.003487 918.1 29.7
969(17) 0.003388 917.4 31.2
984(16) 0.00363 916.8 33.0
940(16) 0.00369 916.2 35.1
917(16) 0.00363 915.6 37.6
951(17) 0.003418 915.0 41.8
947(16) 0.00363 914.4 45.3
950(16) 0.00376 913.8 49.3
971(17) 0.003499 913.2 54.0
936(17) 0.00355 912.6 59.6
1008(17) 0.003221 912.0 66.3
953(17) 0.00353 911.4 74.3
1026(17) 0.00352 910.8 84.1
980(17) 0.003448 910.2 96.4
1007(17) 0.003256 909.6 112.5
1064(18) 0.003144 909.0 134.9
1088(17) 0.003190 908.4 168.1
1126(17) 0.003200 907.8 219.6
1239(19) 0.002722 907.2 301.2
1309(20) 0.002549 906.5 428.3
1456(20) 0.002363 905.9 617.4
1675(22) 0.002114 905.3 880.5
1954(23) 0.001873 904.7 1217.4
2303(26) 0.001478 904.1 1606.1
2702(29) 0.001194 903.5 1994.0
3094(30) 0.001103 902.9 2289.9
3411(31) 0.001049 902.3 2388.1
3361(30) 0.001088 901.7 2244.5
2929(29) 0.001164 901.1 1922.0
2425(27) 0.001328 900.5 1528.0
1963(24) 0.001777 899.9 1146.1
1679(21) 0.002164 899.3 822.7
1511(20) 0.002416 898.7 574.5
1373(20) 0.002422 898.1 398.9
1222(20) 0.002547 897.5 282.0
1141(18) 0.002974 896.9 207.2
1067(17) 0.003375 896.3 160.0
1064(17) 0.003331 895.7 129.4
1016(17) 0.003311 895.0 108.4
971(17) 0.003291 894.4 93.1
1026(17) 0.003266 893.8 81.3
1022(17) 0.00351 893.2 71.7
962(16) 0.00372 892.6 63.9
927(16) 0.00358 892.0 57.3
952(17) 0.003354 891.4 51.7
939(16) 0.00362 890.8 46.9
985(16) 0.00366 890.2 42.8
966(16) 0.00360 889.6 39.2
954(16) 0.00356 889.0 36.1
1007(18) 0.003162 888.4 33.4
916(16) 0.00363 887.8 30.9
925(16) 0.00389 887.2 28.8
909(16) 0.00386 886.6 26.9
890(16) 0.00371 886.0 25.2
949(17) 0.003445 885.4 23.7
935(16) 0.00360 884.8 22.3
891(15) 0.00403 884.1 21.1
876(16) 0.00399 883.5 20.0
930(17) 0.00352 882.9 19.0
934(17) 0.003481 882.3 18.0
930(16) 0.00362 881.7 17.2
929(16) 0.00386 881.1 16.4
876(16) 0.00381 880.5 15.7
914(16) 0.00356 879.9 15.1
870(16) 0.00384 879.3 14.5
871(16) 0.00393 878.7 13.9
868(15) 0.00414 878.1 13.4
902(16) 0.00370 877.5 13.0
855(16) 0.00376 876.9 12.5
852(16) 0.00388 876.3 12.1
887(16) 0.00387 875.7 12.0
886(15) 0.00404 875.1 11.6
903(16) 0.00369 874.5 11.3
876(16) 0.00361 873.9 11.0
903(16) 0.00367 873.3 10.8
845(15) 0.00419 872.6 10.5
882(15) 0.00404 872.0 10.3
858(16) 0.00395 871.4 10.1
907(17) 0.003436 870.8 9.9
892(16) 0.00382 870.2 9.7
862(15) 0.00412 869.6 9.6
861(15) 0.00419 869.0 9.6
875(16) 0.00381 868.4 9.6
846(16) 0.00370 867.8 9.7
860(16) 0.00387 867.2 10.0
872(15) 0.00405 866.6 10.4
867(15) 0.00412 866.0 10.8
889(16) 0.00373 865.4 11.1
841(16) 0.00379 864.8 11.1
874(16) 0.00377 864.2 10.7
885(15) 0.00401 863.6 10.2
882(16) 0.00399 863.0 9.6
872(16) 0.00389 862.4 9.1
858(16) 0.00381 861.7 8.6
873(16) 0.00381 861.1 8.4
855(15) 0.00419 860.5 8.2
810(15) 0.00429 859.9 8.0
854(16) 0.00385 859.3 8.0
853(16) 0.00370 858.7 7.9
874(16) 0.00380 858.1 7.9
868(15) 0.00411 857.5 7.8
870(16) 0.00400 856.9 7.8
883(16) 0.00380 856.3 7.8
827(16) 0.00401 855.7 7.8
854(16) 0.00388 855.1 7.8
802(15) 0.00441 854.5 7.8
862(15) 0.00405 853.9 7.8
841(16) 0.00389 853.3 7.8
875(16) 0.00373 852.7 7.8
867(16) 0.00388 852.1 7.8
848(15) 0.00422 851.5 7.8
805(15) 0.00425 850.9 7.9
860(16) 0.00384 850.2 7.9
840(16) 0.00394 849.6 7.9
828(15) 0.00416 849.0 8.0
825(15) 0.00430 848.4 8.0
860(16) 0.00393 847.9 8.0
854(16) 0.00384 847.4 8.1
826(15) 0.00404 846.9 8.2
871(15) 0.00402 846.4 8.2
854(15) 0.00418 845.9 8.3
836(16) 0.00398 845.4 8.3
836(16) 0.00384 844.8 8.4
847(16) 0.00391 844.3 8.5
848(15) 0.00412 843.8 8.6
872(15) 0.00410 843.3 8.6
851(16) 0.00388 842.8 8.7
868(16) 0.00361 842.3 8.8
843(16) 0.00396 841.8 8.9
859(15) 0.00410 841.3 9.0
869(15) 0.00409 840.8 9.1
864(16) 0.00389 840.2 9.3
885(17) 0.00352 839.7 9.4
876(16) 0.00386 839.2 9.5
832(15) 0.00422 838.7 9.6
832(15) 0.00427 838.2 9.8
842(15) 0.00402 837.7 9.9
827(16) 0.00383 837.2 10.0
828(15) 0.00412 836.7 10.2
829(15) 0.00431 836.2 10.4
855(15) 0.00414 835.6 10.5
856(15) 0.00403 835.1 10.7
875(16) 0.00370 834.6 10.9
823(15) 0.00413 834.1 11.1
843(15) 0.00425 833.6 11.2
841(15) 0.00420 833.1 11.5
861(16) 0.00387 832.6 11.7
833(16) 0.00385 832.1 11.9
842(16) 0.00391 831.6 12.1
864(15) 0.00416 831.1 12.4
834(15) 0.00415 830.5 12.6
844(16) 0.00394 830.0 12.9
843(16) 0.00387 829.5 13.1
851(16) 0.00390 829.0 13.4
815(15) 0.00437 828.5 13.7
837(15) 0.00417 828.0 14.0
852(16) 0.00392 827.5 14.3
818(16) 0.00398 827.0 14.7
814(15) 0.00416 826.5 15.0
832(15) 0.00431 825.9 15.4
865(16) 0.00388 825.4 15.8
862(16) 0.00386 824.9 16.2
851(16) 0.00391 824.4 16.6
839(15) 0.00408 823.9 17.0
848(15) 0.00422 823.4 17.5
834(15) 0.00412 822.9 18.0
829(16) 0.00397 822.4 18.5
840(16) 0.00391 821.9 19.0
829(15) 0.00414 821.4 19.6
840(15) 0.00427 820.8 20.2
874(16) 0.00380 820.3 20.8
834(16) 0.00389 819.8 21.5
872(16) 0.00389 819.3 22.2
855(15) 0.00409 818.8 22.9
854(15) 0.00423 818.3 23.7
843(15) 0.00401 817.8 24.5
860(16) 0.00373 817.3 25.4
847(15) 0.00402 816.8 26.3
822(15) 0.00428 816.2 27.3
870(15) 0.00414 815.7 28.4
822(15) 0.00406 815.2 29.5
820(16) 0.00389 814.7 30.8
814(15) 0.00419 814.2 32.1
847(15) 0.00425 813.7 33.5
824(15) 0.00433 813.2 35.0
857(16) 0.00395 812.7 36.6
849(16) 0.00367 812.2 38.4
866(16) 0.00387 811.6 40.4
863(15) 0.00411 811.1 42.5
910(16) 0.00392 810.6 44.8
830(15) 0.00411 810.1 47.4
849(16) 0.00373 809.6 50.3
807(15) 0.00410 809.1 53.5
823(15) 0.00433 808.6 57.2
847(15) 0.00420 808.1 61.4
873(16) 0.00389 807.6 66.4
845(16) 0.00386 807.1 72.3
876(16) 0.00383 806.5 79.6
893(16) 0.00399 806.0 88.5
865(15) 0.00409 805.5 99.5
926(16) 0.00357 805.0 113.1
898(16) 0.00365 804.5 129.9
983(17) 0.003349 804.0 150.4
989(16) 0.00365 803.5 174.9
990(17) 0.00352 803.0 203.6
1017(17) 0.003227 802.5 236.3
1021(17) 0.003221 801.9 272.2
1071(17) 0.003205 801.4 309.7
1154(18) 0.003125 800.9 346.0
1143(18) 0.002990 800.4 376.8
1171(18) 0.002892 799.9 397.6
1231(19) 0.002721 799.4 404.9
1221(18) 0.002855 798.9 398.3
1204(18) 0.003009 798.4 380.9
1226(19) 0.002766 797.9 357.4
1135(18) 0.002922 797.3 332.4
1038(17) 0.003334 796.8 309.3
1071(17) 0.003242 796.3 290.4
1051(17) 0.003430 795.8 277.1
1050(17) 0.003243 795.3 270.0
1029(18) 0.003146 794.8 269.7
1015(17) 0.003282 794.3 276.5
1054(17) 0.003343 793.8 290.8
997(16) 0.00361 793.3 312.7
1020(17) 0.003346 792.8 342.9
1063(18) 0.003054 792.2 381.7
1152(18) 0.002941 791.7 429.9
1194(18) 0.002957 791.2 488.0
1265(18) 0.002868 790.7 556.5
1354(20) 0.002564 790.2 635.8
1437(21) 0.002283 789.7 725.9
1624(22) 0.002106 789.2 826.2
1706(21) 0.002133 788.7 935.1
1885(22) 0.001944 788.2 1050.0
2121(25) 0.001621 787.6 1166.5
2232(26) 0.001412 787.1 1277.9
2243(26) 0.001515 786.6 1375.8
2276(25) 0.001607 786.1 1450.0
2321(25) 0.001560 785.6 1491.6
2307(26) 0.001486 785.1 1494.5
2280(27) 0.001394 784.6 1458.4
2177(25) 0.001568 784.1 1388.1
1990(23) 0.001841 783.6 1292.4
1930(23) 0.001864 783.1 1181.3
1899(24) 0.001775 782.5 1063.7
1714(23) 0.001900 782.0 946.5
1631(22) 0.002115 781.5 834.4
1533(20) 0.002373 781.0 730.5
1463(20) 0.002425 780.5 636.3
1393(20) 0.002392 780.0 552.4
1303(20) 0.002483 779.5 478.9
1270(19) 0.002622 779.0 415.2
1181(18) 0.003031 778.5 360.7
1100(17) 0.003194 777.9 314.5
1099(18) 0.003032 777.4 275.6
1116(18) 0.002985 776.9 242.9
1075(18) 0.003125 776.4 215.5
1033(17) 0.003506 775.9 192.6
979(17) 0.00351 775.4 173.4
965(17) 0.003471 774.9 157.1
958(17) 0.003495 774.4 143.3
955(16) 0.00362 773.9 131.4
929(16) 0.00386 773.3 121.2
878(16) 0.00379 772.8 112.2
880(16) 0.00374 772.3 104.3
871(16) 0.00383 771.8 97.3
872(16) 0.00396 771.3 91.0
922(16) 0.00390 770.8 85.3
886(16) 0.00380 770.3 80.2
836(16) 0.00396 769.8 75.6
877(16) 0.00377 769.3 71.4
827(15) 0.00423 768.8 67.5
833(15) 0.00428 768.2 63.9
850(16) 0.00392 767.7 60.7
822(16) 0.00388 767.2 57.7
781(15) 0.00430 766.7 54.9
778(15) 0.00455 766.2 52.3
823(15) 0.00438 765.7 49.9
815(15) 0.00402 765.2 47.7
788(16) 0.00401 764.7 45.7
810(15) 0.00411 764.2 43.8
778(14) 0.00459 763.6 42.0
800(15) 0.00443 763.1 40.3
793(15) 0.00420 762.6 38.8
825(16) 0.00380 762.1 37.3
800(15) 0.00426 761.6 36.0
788(15) 0.00455 761.1 34.7
777(15) 0.00452 760.6 33.5
761(15) 0.00445 760.1 32.4
747(15) 0.00425 759.6 31.3
806(15) 0.00404 759.0 30.4
770(14) 0.00463 758.5 29.4
793(15) 0.00446 758.0 28.6
766(15) 0.00438 757.5 27.7
735(15) 0.00434 757.0 27.0
800(15) 0.00414 756.5 26.3
780(14) 0.00457 756.0 25.9
767(15) 0.00454 755.5 25.2
733(15) 0.00445 755.0 24.6
708(15) 0.00454 754.5 24.1
783(15) 0.00416 753.9 23.6
753(14) 0.00472 753.4 23.1
784(15) 0.00440 752.9 22.6
779(15) 0.00424 752.4 22.2
766(15) 0.00421 751.9 21.8
754(15) 0.00431 751.4 21.5
774(14) 0.00462 750.9 21.1
762(15) 0.00452 750.4 20.8
748(15) 0.00445 749.9 20.6
755(15) 0.00438 749.3 20.3
768(15) 0.00442 748.8 20.1
717(14) 0.00497 748.3 19.9
743(15) 0.00450 747.8 19.7
748(15) 0.00436 747.3 19.6
737(15) 0.00445 746.8 19.5
781(15) 0.00444 746.3 19.4
764(14) 0.00468 745.8 19.3
774(15) 0.00432 745.3 19.3
746(15) 0.00446 744.8 19.3
744(15) 0.00449 744.2 19.3
745(14) 0.00462 743.7 19.3
682(14) 0.00523 743.2 19.4
765(15) 0.00431 742.7 19.5
745(15) 0.00426 742.2 19.7
758(15) 0.00437 741.7 19.9
730(14) 0.00482 741.2 20.1
779(14) 0.00458 740.7 20.4
745(15) 0.00454 740.2 20.7
757(15) 0.00423 739.6 21.1
753(15) 0.00443 739.1 21.6
746(14) 0.00472 738.6 22.1
704(14) 0.00500 738.1 22.7
741(15) 0.00452 737.6 23.5
760(15) 0.00413 737.1 24.3
726(14) 0.00478 736.6 25.3
755(14) 0.00472 736.1 26.4
713(14) 0.00494 735.6 27.8
721(14) 0.00473 735.0 29.6
762(15) 0.00402 734.5 32.1
750(15) 0.00443 734.0 36.2
782(14) 0.00458 733.5 44.1
791(15) 0.00450 733.0 60.5
838(16) 0.00395 732.5 92.5
863(16) 0.00360 732.0 148.1
918(16) 0.00357 731.5 230.6
958(16) 0.00372 731.0 331.7
1061(17) 0.003353 730.5 427.8
1197(18) 0.002864 729.9 484.0
1368(20) 0.002339 729.4 474.0
1209(19) 0.002815 728.9 404.7
972(16) 0.00367 728.4 308.9
860(15) 0.00407 727.9 218.8
842(16) 0.00397 727.4 152.4
821(16) 0.00401 726.9 113.4
822(15) 0.00411 726.4 95.9
831(15) 0.00430 725.9 92.0
782(15) 0.00446 725.3 95.3
822(15) 0.00407 724.8 102.5
821(15) 0.00402 724.3 111.8
811(15) 0.00415 723.8 122.8
791(15) 0.00452 723.3 135.1
860(16) 0.00395 722.8 148.6
869(16) 0.00379 722.3 163.0
873(16) 0.00384 721.8 177.9
848(15) 0.00406 721.3 193.1
886(15) 0.00404 720.7 207.7
885(16) 0.00385 720.2 221.0
901(16) 0.00364 719.7 232.2
942(16) 0.00357 719.2 240.3
943(16) 0.00370 718.7 244.5
912(16) 0.00392 718.2 244.4
899(16) 0.00373 717.7 240.0
906(17) 0.00352 717.2 231.8
891(16) 0.00373 716.7 220.3
855(15) 0.00407 716.2 206.6
837(15) 0.00429 715.6 191.6
838(15) 0.00403 715.1 176.0
846(16) 0.00384 714.6 160.4
861(16) 0.00392 714.1 145.3
795(15) 0.00446 713.6 131.1
800(15) 0.00445 713.1 117.8
809(15) 0.00410 712.6 105.6
807(16) 0.00388 712.1 94.6
759(15) 0.00443 711.6 84.6
782(15) 0.00456 711.0 75.8
743(14) 0.00481 710.5 67.9
734(15) 0.00454 710.0 61.1
767(16) 0.00393 709.5 55.0
771(15) 0.00431 709.0 49.8
720(14) 0.00491 708.5 45.2
738(14) 0.00481 708.0 41.2
739(14) 0.00456 707.5 37.8
755(15) 0.00418 707.0 34.8
768(15) 0.00432 706.5 32.2
711(14) 0.00504 705.9 29.9
746(14) 0.00469 705.4 27.9
701(14) 0.00475 704.9 26.1
750(15) 0.00415 704.4 24.5
720(14) 0.00468 703.9 23.1
757(14) 0.00468 703.4 21.8
741(14) 0.00465 702.9 20.7
716(14) 0.00472 702.4 19.6
715(15) 0.00445 701.9 18.7
722(14) 0.00458 701.3 17.8
688(14) 0.00516 700.8 17.0
707(14) 0.00485 700.3 16.2
697(14) 0.00472 699.8 15.6
693(14) 0.00462 699.3 14.9
709(14) 0.00469 698.8 14.3
704(14) 0.00502 698.3 13.9
686(14) 0.00504 697.8 13.4
734(15) 0.00452 697.3 12.9
739(15) 0.00439 696.7 12.4
715(14) 0.00482 696.2 12.0
700(14) 0.00508 695.7 11.6
709(14) 0.00477 695.2 11.2
675(14) 0.00485 694.7 10.9
662(14) 0.00508 694.2 10.6
696(14) 0.00495 693.7 10.3
670(13) 0.00524 693.2 10.0
686(14) 0.00486 692.7 9.7
680(14) 0.00469 692.2 9.4
685(14) 0.00480 691.6 9.2
674(13) 0.00525 691.1 9.0
681(14) 0.00518 690.6 8.8
691(14) 0.00477 690.1 8.6
703(15) 0.00455 689.6 8.4
715(14) 0.00460 689.1 8.2
708(14) 0.00487 688.6 8.1
649(13) 0.00543 688.1 7.9
672(14) 0.00499 687.6 7.8
698(15) 0.00453 687.0 7.6
694(14) 0.00480 686.5 7.5
716(14) 0.00494 686.0 7.4
698(14) 0.00505 685.5 7.4
685(14) 0.00498 685.0 7.3
681(14) 0.00467 684.5 7.2
727(14) 0.00469 684.0 7.2
721(14) 0.00490 683.5 7.2
736(14) 0.00480 683.0 7.2
669(14) 0.00502 682.5 7.2
665(14) 0.00470 681.9 7.3
660(14) 0.00507 681.4 7.4
652(13) 0.00543 680.9 7.6
674(14) 0.00515 680.4 7.8
657(14) 0.00518 679.9 8.1
703(15) 0.00438 679.4 8.4
670(14) 0.00491 678.9 8.8
686(14) 0.00520 678.4 9.2
708(14) 0.00494 677.9 9.7
709(14) 0.00464 677.3 10.3
667(14) 0.00478 676.8 10.9
628(13) 0.00527 676.3 11.6
674(14) 0.00521 675.8 12.2
680(14) 0.00509 675.3 12.8
684(14) 0.00491 674.8 13.4
709(14) 0.00458 674.3 13.7
674(14) 0.00500 673.8 13.9
644(13) 0.00547 673.3 13.8
692(14) 0.00482 672.7 13.5
660(14) 0.00505 672.2 13.0
719(14) 0.00461 671.7 12.3
704(14) 0.00481 671.2 11.6
685(14) 0.00521 670.7 10.9
675(14) 0.00502 670.2 10.1
670(14) 0.00486 669.7 9.4
650(14) 0.00500 669.2 8.7
667(14) 0.00515 668.7 8.1
695(14) 0.00512 668.2 7.6
657(14) 0.00510 667.6 7.1
673(14) 0.00479 667.1 6.7
682(14) 0.00483 666.6 6.3
659(13) 0.00523 666.1 6.0
675(13) 0.00525 665.6 5.8
698(14) 0.00474 665.1 5.5
665(14) 0.00486 664.6 5.4
665(14) 0.00493 664.1 5.2
670(14) 0.00518 663.6 5.1
688(14) 0.00515 663.0 5.0
661(14) 0.00503 662.7 4.9
652(14) 0.00494 662.3 4.9
685(14) 0.00485 662.0 4.8
633(13) 0.00554 661.7 4.8
631(13) 0.00560 661.3 4.8
664(14) 0.00504 661.0 4.8
665(14) 0.00462 660.6 4.8
694(14) 0.00466 660.3 4.8
667(13) 0.00539 659.9 4.9
660(13) 0.00532 659.6 4.9
681(14) 0.00488 659.3 5.0
689(14) 0.00457 658.9 5.1
690(14) 0.00485 658.6 5.1
624(13) 0.00561 658.2 5.2
673(14) 0.00520 657.9 5.3
667(14) 0.00494 657.6 5.4
636(14) 0.00485 657.2 5.6
634(13) 0.00525 656.9 5.7
646(13) 0.00552 656.5 5.8
658(14) 0.00520 656.2 6.0
671(14) 0.00492 655.8 6.2
658(14) 0.00495 655.5 6.3
622(13) 0.00524 655.2 6.5
638(13) 0.00558 654.8 6.7
697(14) 0.00501 654.5 6.9
654(14) 0.00510 654.1 7.1
665(14) 0.00483 653.8 7.3
663(14) 0.00495 653.5 7.5
654(13) 0.00541 653.1 7.6
697(14) 0.00488 652.8 7.8
657(14) 0.00505 652.4 8.0
678(14) 0.00478 652.1 8.1
661(14) 0.00513 651.8 8.7
682(14) 0.00520 651.4 8.8
670(14) 0.00508 651.1 8.9
683(14) 0.00484 650.7 8.9
666(14) 0.00503 650.4 8.9
673(14) 0.00514 650.0 8.9
642(13) 0.00551 649.7 8.8
666(14) 0.00489 649.4 8.8
672(14) 0.00482 649.0 8.6
627(13) 0.00535 648.7 8.5
669(14) 0.00518 648.3 8.3
674(14) 0.00519 648.0 8.2
642(14) 0.00511 647.7 8.0
656(14) 0.00496 647.3 7.7
672(14) 0.00492 647.0 7.5
655(13) 0.00524 646.6 7.3
668(13) 0.00531 646.3 7.1
612(13) 0.00553 646.0 6.9
610(14) 0.00519 645.6 6.6
658(14) 0.00489 645.3 6.4
666(13) 0.00523 644.9 6.2
654(13) 0.00544 644.6 6.0
618(13) 0.00530 644.2 5.8
610(14) 0.00513 643.9 5.7
629(13) 0.00544 643.6 5.5
667(13) 0.00527 643.2 5.3
636(13) 0.00557 642.9 5.2
660(14) 0.00506 642.5 5.0
662(14) 0.00477 642.2 4.9
616(13) 0.00545 641.9 4.8
640(13) 0.00551 641.5 4.7
630(13) 0.00560 641.2 4.6
666(14) 0.00480 640.8 4.5
640(14) 0.00489 640.5 4.4
661(14) 0.00496 640.1 4.4
657(13) 0.00542 639.8 4.3
669(14) 0.00516 639.5 4.3
624(13) 0.00538 639.1 4.2
614(14) 0.00510 638.8 4.2
639(14) 0.00506 638.4 4.2
652(13) 0.00546 638.1 4.2
627(13) 0.00547 637.8 4.2
639(14) 0.00505 637.4 4.2
627(14) 0.00507 637.1 4.2
618(13) 0.00542 636.7 4.2
633(13) 0.00555 636.4 4.3
631(13) 0.00541 636.1 4.3
606(13) 0.00542 635.7 4.4
630(14) 0.00509 635.4 4.5
622(13) 0.00537 635.0 4.5
659(13) 0.00539 634.7 4.6
612(13) 0.00551 634.3 4.8
634(14) 0.00517 634.0 4.9
652(14) 0.00504 633.7 5.0
633(13) 0.00545 633.3 5.2
639(13) 0.00553 633.0 5.4
655(14) 0.00510 632.6 5.6
633(14) 0.00505 632.3 5.8
626(14) 0.00515 632.0 6.1
633(13) 0.00543 631.6 6.4
659(13) 0.00540 631.3 6.7
647(13) 0.00528 630.9 7.1
668(14) 0.00480 630.6 7.6
637(14) 0.00523 630.2 8.1
635(13) 0.00543 629.9 8.6
647(13) 0.00548 629.6 9.3
664(14) 0.00499 629.2 10.1
622(14) 0.00520 628.9 11.0
616(13) 0.00533 628.5 12.1
621(13) 0.00569 628.2 13.4
668(13) 0.00532 627.9 15.0
623(13) 0.00542 627.5 16.9
653(14) 0.00469 627.2 19.2
647(14) 0.00521 626.8 22.3
658(13) 0.00535 626.5 26.7
646(13) 0.00546 626.2 33.3
643(14) 0.00522 625.8 44.2
696(15) 0.00443 625.5 62.3
689(14) 0.00476 625.1 92.4
754(14) 0.00470 624.8 139.3
799(15) 0.00447 624.4 206.8
879(16) 0.00391 624.1 294.5
1004(18) 0.003151 623.8 394.6
1052(17) 0.003196 623.4 489.8
1134(18) 0.003165 623.1 552.2
1213(18) 0.002956 622.7 555.1
1191(19) 0.002795 622.4 497.2
1012(17) 0.003188 622.1 403.6
866(16) 0.00396 621.7 303.0
793(15) 0.00451 621.4 213.7
789(15) 0.00441 621.0 144.3
691(14) 0.00483 620.7 95.6
675(14) 0.00472 620.4 64.3
659(14) 0.00497 620.0 45.2
646(13) 0.00550 619.7 33.9
626(13) 0.00557 619.3 27.0
670(14) 0.00475 619.0 22.4
626(14) 0.00510 618.6 19.2
646(14) 0.00520 618.3 16.8
657(13) 0.00538 618.0 14.8
613(13) 0.00547 617.6 13.2
629(14) 0.00510 617.3 11.9
606(13) 0.00559 616.9 10.7
653(14) 0.00520 616.6 9.8
657(13) 0.00538 616.3 8.9
592(13) 0.00562 615.9 8.2
636(14) 0.00500 615.6 7.6
639(14) 0.00504 615.2 7.1
615(13) 0.00565 614.9 6.6
594(13) 0.00591 614.5 6.2
602(13) 0.00546 614.2 5.8
597(13) 0.00530 613.9 5.5
619(13) 0.00524 613.5 5.2
625(13) 0.00560 613.2 4.9
635(13) 0.00558 612.8 4.7
607(13) 0.00546 612.5 4.5
623(14) 0.00520 612.2 4.3
647(14) 0.00510 611.8 4.1
620(13) 0.00563 611.5 3.9
632(13) 0.00553 611.1 3.8
625(13) 0.00523 610.8 3.6
592(13) 0.00541 610.5 3.5
622(13) 0.00534 610.1 3.4
585(13) 0.00601 609.8 3.3
603(13) 0.00580 609.4 3.2
615(13) 0.00543 609.1 3.1
625(14) 0.00497 608.7 3.0
601(13) 0.00546 608.4 2.9
607(13) 0.00577 608.1 2.9
620(13) 0.00569 607.7 2.8
608(13) 0.00557 607.4 2.7
625(14) 0.00487 607.0 2.7
605(13) 0.00542 606.7 2.6
605(13) 0.00577 606.4 2.5
586(13) 0.00596 606.0 2.5
625(13) 0.00524 605.7 2.4
606(13) 0.00526 605.3 2.4
596(13) 0.00553 605.0 2.4
615(13) 0.00576 604.6 2.3
590(13) 0.00584 604.3 2.3
619(13) 0.00547 604.0 2.3
604(13) 0.00531 603.6 2.2
570(13) 0.00582 603.3 2.2
583(13) 0.00602 602.9 2.2
586(13) 0.00596 602.6 2.1
613(13) 0.00540 602.3 2.1
572(13) 0.00576 601.9 2.1
589(13) 0.00556 601.6 2.1
590(13) 0.00594 601.2 2.0
596(13) 0.00565 600.9 2.0
605(13) 0.00537 600.6 2.0
627(14) 0.00517 600.2 2.0
612(13) 0.00551 599.9 2.0
589(13) 0.00597 599.5 2.0
591(13) 0.00577 599.2 2.0
611(14) 0.00518 598.8 1.9
610(13) 0.00533 598.5 1.9
582(13) 0.00588 598.2 1.9
613(13) 0.00576 597.8 1.9
642(14) 0.00507 597.5 1.9
586(13) 0.00551 597.1 1.9
578(13) 0.00569 596.8 1.9
591(13) 0.00577 596.5 1.9
600(13) 0.00584 596.1 1.9
600(13) 0.00550 595.8 1.9
603(13) 0.00527 595.4 1.9
633(14) 0.00516 595.1 1.9
599(13) 0.00573 594.8 1.9
558(12) 0.00631 594.4 1.9
605(13) 0.00533 594.1 1.9
586(13) 0.00530 593.7 2.0
607(13) 0.00541 593.4 2.0
600(13) 0.00590 593.0 2.0
609(13) 0.00574 592.7 2.0
607(13) 0.00544 592.4 2.1
588(13) 0.00538 592.0 2.1
614(13) 0.00541 591.7 2.1
564(12) 0.00618 591.3 2.2
579(13) 0.00599 591.0 2.2
594(13) 0.00548 590.7 2.3
599(14) 0.00522 590.3 2.4
613(13) 0.00538 590.0 2.4
567(12) 0.00618 589.6 2.5
612(13) 0.00572 589.3 2.7
589(13) 0.00557 588.9 2.8
588(14) 0.00523 588.6 3.0
604(13) 0.00544 588.3 3.2
608(13) 0.00577 587.9 3.5
588(13) 0.00585 587.6 3.9
581(13) 0.00570 587.2 4.4
571(13) 0.00553 586.9 5.4
588(13) 0.00561 586.6 6.9
576(12) 0.00605 586.2 9.4
584(13) 0.00594 585.9 13.3
615(13) 0.00533 585.5 18.8
595(13) 0.00532 585.2 26.0
609(13) 0.00539 584.9 34.4
608(13) 0.00572 584.5 42.6
601(13) 0.00571 584.2 48.4
609(13) 0.00547 583.8 49.6
621(14) 0.00515 583.5 45.6
600(13) 0.00557 583.1 38.2
602(13) 0.00582 582.8 29.7
621(13) 0.00533 582.5 21.9
598(13) 0.00542 582.3 15.6
597(13) 0.00552 582.0 11.0
620(13) 0.00545 581.8 8.0
606(13) 0.00580 581.6 6.0
579(13) 0.00575 581.3 4.9
573(13) 0.00566 581.1 4.2
602(13) 0.00532 580.9 3.7
593(13) 0.00575 580.7 3.4
568(12) 0.00619 580.4 3.1
609(14) 0.00514 580.2 3.0
583(13) 0.00546 580.0 2.8
589(13) 0.00551 579.8 2.7
584(13) 0.00593 579.5 2.6
593(13) 0.00591 579.3 2.5
575(13) 0.00585 579.1 2.4
584(13) 0.00542 578.8 2.4
589(13) 0.00557 578.6 2.3
574(12) 0.00607 578.4 2.3
601(13) 0.00583 578.2 2.3
547(12) 0.00611 577.9 2.2
591(14) 0.00513 577.7 2.2
567(13) 0.00579 577.5 2.2
586(13) 0.00592 577.3 2.2
581(13) 0.00600 577.0 2.2
597(13) 0.00550 576.8 2.1
589(13) 0.00529 576.6 2.1
609(13) 0.00539 576.3 2.1
566(12) 0.00617 576.1 2.1
587(13) 0.00590 575.9 2.1
555(13) 0.00600 575.7 2.1
598(14) 0.00514 575.4 2.1
569(13) 0.00577 575.2 2.1
589(13) 0.00597 575.0 2.2
592(13) 0.00591 574.8 2.2
566(13) 0.00588 574.5 2.2
580(13) 0.00554 574.3 2.2
556(13) 0.00601 574.1 2.2
552(12) 0.00639 573.8 2.2
608(13) 0.00576 573.6 2.2
595(13) 0.00563 573.4 2.2
577(13) 0.00575 573.2 2.3
595(13) 0.00560 572.9 2.3
576(12) 0.00610 572.7 2.3
549(12) 0.00625 572.5 2.3
550(13) 0.00601 572.3 2.3
567(13) 0.00556 572.0 2.4
595(13) 0.00558 571.8 2.4
563(12) 0.00627 571.6 2.4
570(13) 0.00595 571.3 2.4
568(13) 0.00579 571.1 2.5
580(13) 0.00560 570.9 2.5
570(13) 0.00588 570.7 2.5
579(12) 0.00607 570.4 2.6
573(13) 0.00575 570.2 2.6
570(13) 0.00563 570.0 2.6
564(13) 0.00572 569.8 2.7
582(13) 0.00568 569.5 2.7
545(12) 0.00635 569.3 2.7
552(13) 0.00582 569.1 2.8
569(13) 0.00552 568.8 2.8
567(13) 0.00572 568.6 2.9
566(12) 0.00607 568.4 2.9
550(12) 0.00638 568.2 3.0
597(13) 0.00552 567.9 3.0
561(13) 0.00576 567.7 3.1
569(13) 0.00588 567.5 3.1
543(12) 0.00643 567.3 3.2
539(12) 0.00642 567.0 3.2
579(13) 0.00560 566.8 3.3
563(13) 0.00554 566.6 3.4
540(12) 0.00614 566.3 3.4
556(12) 0.00629 566.1 3.5
590(13) 0.00598 565.9 3.6
580(13) 0.00581 565.7 3.6
582(13) 0.00541 565.4 3.7
555(13) 0.00597 565.2 3.8
597(13) 0.00574 565.0 3.9
549(12) 0.00637 564.8 3.9
560(13) 0.00584 564.5 4.0
558(13) 0.00558 564.3 4.1
548(12) 0.00610 564.1 4.2
566(12) 0.00619 563.8 4.3
561(12) 0.00617 563.6 4.4
582(13) 0.00565 563.4 4.5
585(13) 0.00540 563.2 4.6
555(13) 0.00586 562.9 4.7
581(13) 0.00598 562.7 4.9
543(12) 0.00642 562.5 5.0
558(13) 0.00592 562.3 5.1
555(13) 0.00572 562.0 5.3
560(13) 0.00591 561.8 5.4
567(12) 0.00614 561.6 5.6
570(12) 0.00607 561.3 5.7
561(13) 0.00575 561.1 5.9
559(13) 0.00564 560.9 6.1
565(13) 0.00594 560.7 6.2
544(12) 0.00641 560.4 6.4
600(13) 0.00564 560.2 6.6
538(12) 0.00614 560.0 6.8
558(13) 0.00579 559.8 7.1
576(13) 0.00577 559.5 7.3
536(12) 0.00654 559.3 7.6
539(13) 0.00597 559.1 7.8
544(13) 0.00587 558.8 8.1
552(13) 0.00598 558.6 8.4
559(12) 0.00612 558.4 8.7
570(12) 0.00616 558.2 9.1
579(13) 0.00554 557.9 9.4
543(13) 0.00591 557.7 9.8
556(13) 0.00593 557.5 10.2
547(12) 0.00634 557.3 10.7
563(12) 0.00625 557.0 11.2
542(13) 0.00605 556.8 11.7
557(13) 0.00572 556.6 12.3
571(13) 0.00581 556.3 12.9
534(12) 0.00652 556.1 13.6
570(12) 0.00619 555.9 14.3
572(13) 0.00555 555.7 15.1
562(13) 0.00544 555.4 16.0
563(13) 0.00588 555.2 16.9
565(12) 0.00619 555.0 17.9
579(12) 0.00613 554.8 19.1
562(13) 0.00596 554.5 20.3
531(13) 0.00587 554.3 21.7
523(12) 0.00620 554.1 23.1
574(12) 0.00607 553.8 24.7
558(12) 0.00620 553.6 26.5
591(13) 0.00549 553.4 28.4
551(13) 0.00555 553.2 30.4
558(13) 0.00585 552.9 32.6
572(12) 0.00609 552.7 35.0
567(12) 0.00614 552.5 37.6
574(13) 0.00559 552.3 40.4
568(13) 0.00548 552.0 43.3
580(13) 0.00571 551.8 46.5
606(13) 0.00587 551.6 49.8
591(13) 0.00582 551.3 53.4
612(13) 0.00537 551.1 57.1
605(14) 0.00506 550.9 60.9
597(13) 0.00538 550.7 64.9
595(13) 0.00595 550.4 69.1
609(13) 0.00564 550.2 73.3
656(14) 0.00499 550.0 77.5
652(14) 0.00496 549.8 81.7
627(13) 0.00532 549.5 85.7
629(13) 0.00562 549.3 89.6
636(14) 0.00522 549.1 93.2
627(13) 0.00535 548.8 96.4
642(14) 0.00501 548.6 99.1
640(13) 0.00524 548.4 101.2
615(13) 0.00574 548.2 102.6
623(13) 0.00542 547.9 103.3
617(13) 0.00532 547.7 103.3
591(13) 0.00546 547.5 102.5
614(13) 0.00553 547.3 100.9
643(13) 0.00550 547.0 98.8
617(13) 0.00530 546.8 96.1
617(13) 0.00525 546.6 92.8
602(13) 0.00541 546.3 89.2
595(13) 0.00579 546.1 85.3
630(13) 0.00560 545.9 81.2
641(14) 0.00516 545.7 77.0
607(13) 0.00533 545.4 72.8
585(13) 0.00569 545.2 68.7
592(13) 0.00587 545.0 64.5
580(12) 0.00605 544.8 60.6
607(13) 0.00525 544.5 56.7
569(13) 0.00550 544.3 53.0
593(13) 0.00561 544.1 49.5
596(13) 0.00590 543.8 46.2
577(12) 0.00614 543.6 43.1
584(13) 0.00562 543.4 40.2
532(13) 0.00579 543.2 37.5
536(12) 0.00613 542.9 34.9
525(12) 0.00662 542.7 32.5
562(12) 0.00614 542.5 30.4
545(12) 0.00610 542.3 28.3
548(13) 0.00561 542.0 26.5
551(13) 0.00587 541.8 24.8
594(13) 0.00593 541.6 23.2
553(12) 0.00627 541.4 21.7
565(13) 0.00581 541.1 20.4
564(13) 0.00545 540.9 19.2
539(12) 0.00609 540.7 18.1
549(12) 0.00645 540.4 17.1
535(12) 0.00646 540.2 16.2
556(13) 0.00592 540.0 15.3
565(13) 0.00546 539.8 14.6
552(13) 0.00586 539.5 13.9
553(12) 0.00635 539.3 13.2
555(12) 0.00614 539.1 12.6
582(13) 0.00558 538.9 12.1
532(12) 0.00621 538.6 11.6
534(12) 0.00615 538.4 11.1
568(12) 0.00614 538.2 10.7
542(12) 0.00633 537.9 10.3
560(13) 0.00574 537.7 10.0
546(13) 0.00593 537.5 9.7
535(12) 0.00606 537.3 9.4
575(12) 0.00620 537.0 9.1
554(13) 0.00598 536.8 8.8
528(12) 0.00612 536.6 8.6
505(12) 0.00647 536.4 8.4
562(13) 0.00592 536.1 8.2
529(12) 0.00662 535.9 8.0
542(13) 0.00599 535.7 7.9
551(13) 0.00571 535.4 7.7
555(13) 0.00588 535.2 7.6
555(12) 0.00617 535.0 7.5
561(12) 0.00618 534.8 7.4
530(12) 0.00607 534.5 7.4
545(13) 0.00587 534.3 7.3
530(12) 0.00611 534.1 7.3
479(11) 0.00718 533.9 7.3
511(12) 0.00680 533.6 7.4
557(13) 0.00576 533.4 7.4
520(13) 0.00604 533.2 7.5
536(12) 0.00614 532.9 7.6
522(12) 0.00654 532.7 7.8
520(12) 0.00673 532.5 8.0
529(12) 0.00626 532.3 8.3
528(13) 0.00603 532.0 8.7
552(13) 0.00590 531.8 9.3
555(12) 0.00631 531.6 10.0
530(12) 0.00659 531.4 10.9
510(12) 0.00644 531.1 12.1
543(13) 0.00538 530.9 13.6
499(12) 0.00653 530.7 15.7
552(12) 0.00630 530.4 18.3
551(12) 0.00631 530.2 21.5
559(13) 0.00597 530.0 25.5
553(13) 0.00572 529.8 30.1
567(13) 0.00579 529.5 35.4
546(12) 0.00648 529.3 41.2
563(12) 0.00615 529.1 47.1
597(13) 0.00564 528.9 52.4
606(13) 0.00525 528.6 56.3
582(13) 0.00576 528.4 58.1
577(12) 0.00613 528.2 57.2
530(12) 0.00648 527.9 53.9
539(12) 0.00611 527.7 48.9
564(13) 0.00559 527.5 43.0
563(13) 0.00585 527.3 37.1
546(12) 0.00645 527.0 31.4
531(12) 0.00640 526.8 26.4
524(12) 0.00625 526.6 22.0
534(12) 0.00612 526.4 18.4
531(12) 0.00627 526.1 15.4
516(12) 0.00676 525.9 13.1
551(12) 0.00608 525.7 11.2
548(13) 0.00597 525.4 9.7
560(13) 0.00581 525.2 8.6
534(12) 0.00618 525.0 7.7
515(12) 0.00680 524.8 7.0
540(12) 0.00609 524.5 6.4
543(13) 0.00579 524.3 5.9
512(12) 0.00625 524.1 5.5
479(12) 0.00705 523.9 5.1
490(12) 0.00707 523.6 4.8
507(12) 0.00651 523.4 4.6
528(13) 0.00590 523.2 4.3
501(12) 0.00653 522.9 4.1
537(12) 0.00629 522.7 3.9
508(12) 0.00685 522.5 3.7
521(12) 0.00620 522.3 3.6
501(12) 0.00618 522.0 3.4
516(12) 0.00647 521.8 3.3
512(12) 0.00673 521.6 3.2
498(12) 0.00698 521.4 3.1
521(12) 0.00625 521.1 3.0
532(13) 0.00569 520.9 2.9
499(12) 0.00676 520.7 2.8
514(12) 0.00672 520.4 2.7
498(12) 0.00704 520.2 2.6
520(12) 0.00622 520.0 2.6
502(12) 0.00623 519.8 2.5
486(12) 0.00690 519.5 2.4
508(12) 0.00685 519.3 2.4
500(12) 0.00695 519.1 2.3
515(12) 0.00648 518.9 2.3
503(12) 0.00619 518.6 2.2
475(12) 0.00699 518.4 2.1
496(12) 0.00698 518.2 2.1
524(12) 0.00666 517.9 2.1
515(12) 0.00653 517.7 2.0
510(12) 0.00621 517.5 2.0
507(12) 0.00624 517.3 1.9
484(11) 0.00720 517.0 1.9
528(12) 0.00640 516.8 1.9
503(12) 0.00633 516.6 1.8
482(12) 0.00646 516.4 1.8
517(12) 0.00636 516.1 1.8
530(12) 0.00660 515.9 1.7
523(12) 0.00645 515.7 1.7
481(12) 0.00683 515.4 1.7
501(12) 0.00651 515.2 1.7
515(12) 0.00649 515.0 1.6
482(11) 0.00717 514.8 1.6
503(12) 0.00667 514.5 1.6
499(12) 0.00653 514.3 1.6
496(12) 0.00642 514.1 1.5
486(12) 0.00669 513.9 1.5
490(11) 0.00713 513.6 1.5
502(12) 0.00662 513.4 1.5
534(12) 0.00607 513.2 1.5
510(12) 0.00652 512.9 1.4
504(12) 0.00670 512.7 1.4
502(12) 0.00697 512.5 1.4
503(12) 0.00674 512.3 1.4
548(13) 0.00573 512.0 1.4
508(12) 0.00649 511.8 1.4
506(12) 0.00667 511.6 1.3
508(12) 0.00685 511.4 1.3
520(12) 0.00613 511.1 1.3
485(12) 0.00647 510.9 1.3
508(12) 0.00627 510.7 1.3
509(12) 0.00675 510.4 1.3
515(12) 0.00678 510.2 1.3
509(12) 0.00647 510.0 1.3
497(12) 0.00636 509.8 1.2
498(12) 0.00660 509.5 1.2
510(12) 0.00687 509.3 1.2
513(12) 0.00683 509.1 1.2
489(12) 0.00681 508.9 1.2
502(13) 0.00598 508.6 1.2
521(12) 0.00632 508.4 1.2
489(11) 0.00714 508.2 1.2
499(12) 0.00702 507.9 1.2
525(12) 0.00619 507.7 1.1
481(12) 0.00630 507.5 1.1
476(12) 0.00690 507.3 1.1
524(12) 0.00669 507.0 1.1
520(12) 0.00657 506.8 1.1
496(12) 0.00658 506.6 1.1
507(12) 0.00613 506.4 1.1
510(12) 0.00631 506.1 1.1
522(12) 0.00671 505.9 1.1
471(11) 0.00730 505.7 1.1
534(13) 0.00603 505.4 1.1
496(12) 0.00637 505.2 1.1
516(12) 0.00628 505.0 1.1
512(12) 0.00679 504.8 1.1
526(12) 0.00661 504.5 1.1
523(12) 0.00621 504.3 1.0
511(12) 0.00606 504.1 1.0
492(12) 0.00664 503.9 1.0
508(12) 0.00687 503.6 1.0
530(12) 0.00635 503.4 1.0
486(12) 0.00668 503.2 1.0
505(12) 0.00631 502.9 1.0
515(12) 0.00643 502.7 1.0
545(12) 0.00644 502.5 1.0
515(12) 0.00649 502.3 1.0
495(12) 0.00647 502.0 1.0
483(12) 0.00661 501.8 0.8
475(12) 0.00691 501.6 0.8
504(12) 0.00693 501.4 0.8
486(12) 0.00685 501.1 0.8
465(12) 0.00690 500.9 0.8
504(12) 0.00644 500.7 0.8
515(12) 0.00651 500.4 0.8
524(12) 0.00666 500.2 0.8
513(12) 0.00650 500.0 0.8
510(12) 0.00616 499.8 0.8
501(12) 0.00643 499.7 0.8
491(12) 0.00689 499.5 0.8
463(11) 0.00747 499.3 0.8
502(12) 0.00630 499.1 0.8
519(13) 0.00581 498.9 0.8
488(12) 0.00652 498.8 0.8
503(12) 0.00679 498.6 0.8
501(12) 0.00693 498.4 0.8
505(12) 0.00658 498.2 0.9
504(13) 0.00604 498.0 0.9
492(12) 0.00662 497.9 0.9
483(11) 0.00720 497.7 0.9
477(11) 0.00717 497.5 0.9
501(12) 0.00648 497.3 0.9
532(13) 0.00568 497.1 0.9
503(12) 0.00669 497.0 0.9
481(11) 0.00720 496.8 0.9
495(12) 0.00699 496.6 0.9
482(12) 0.00666 496.4 0.9
493(12) 0.00609 496.2 0.9
492(12) 0.00669 496.1 0.9
505(12) 0.00692 495.9 0.9
477(11) 0.00714 495.7 0.9
487(12) 0.00672 495.5 1.0
491(12) 0.00654 495.3 1.0
476(12) 0.00678 495.1 1.0
495(12) 0.00707 495.0 1.0
514(12) 0.00669 494.8 1.0
501(12) 0.00659 494.6 1.0
486(12) 0.00652 494.4 1.0
490(12) 0.00658 494.2 1.1
471(11) 0.00735 494.1 1.1
475(11) 0.00718 493.9 1.1
503(12) 0.00653 493.7 1.1
493(12) 0.00648 493.5 1.2
509(12) 0.00646 493.3 1.2
500(12) 0.00699 493.2 1.2
502(12) 0.00658 493.0 1.3
537(13) 0.00602 492.8 1.3
496(12) 0.00664 492.6 1.4
507(12) 0.00662 492.4 1.4
493(11) 0.00716 492.3 1.5
518(12) 0.00637 492.1 1.5
484(12) 0.00673 491.9 1.6
499(12) 0.00656 491.7 1.7
486(12) 0.00695 491.5 1.7
481(11) 0.00725 491.4 1.8
464(12) 0.00675 491.2 1.9
461(12) 0.00678 491.0 2.0
464(11) 0.00726 490.8 2.1
504(12) 0.00688 490.6 2.2
525(12) 0.00663 490.4 2.3
486(12) 0.00662 490.3 2.4
509(13) 0.00603 490.1 2.5
510(12) 0.00626 489.9 2.6
524(12) 0.00645 489.7 2.8
520(12) 0.00678 489.5 2.9
512(12) 0.00614 489.4 3.0
500(12) 0.00606 489.2 3.2
471(12) 0.00707 489.0 3.3
469(11) 0.00740 488.8 3.4
521(12) 0.00655 488.6 3.7
476(11) 0.00718 488.5 3.8
479(12) 0.00645 488.3 4.0
473(12) 0.00702 488.1 4.0
482(11) 0.00713 487.9 4.1
471(11) 0.00739 487.7 4.2
530(12) 0.00610 487.6 4.2
508(12) 0.00613 487.4 4.2
489(12) 0.00661 487.2 4.2
499(12) 0.00693 487.0 4.2
501(12) 0.00679 486.8 4.1
479(12) 0.00683 486.7 4.7
505(12) 0.00606 486.5 4.6
476(12) 0.00693 486.3 4.5
527(12) 0.00663 486.1 4.4
513(12) 0.00663 485.9 4.3
514(12) 0.00642 485.7 4.2
512(12) 0.00614 485.6 4.1
482(12) 0.00683 485.4 4.0
505(12) 0.00685 485.2 3.9
485(11) 0.00713 485.0 3.8
489(12) 0.00648 484.8 3.7
488(12) 0.00650 484.7 3.6
509(12) 0.00641 484.5 3.5
495(12) 0.00708 484.3 3.5
488(12) 0.00685 484.1 3.4
527(12) 0.00607 483.9 3.4
491(12) 0.00651 483.8 3.3
500(12) 0.00673 483.6 3.3
493(12) 0.00700 483.4 3.2
517(12) 0.00629 483.2 3.2
494(12) 0.00658 483.0 3.2
504(12) 0.00638 482.9 3.1
489(12) 0.00674 482.7 3.1
502(12) 0.00697 482.5 3.1
497(12) 0.00673 482.3 3.1
463(12) 0.00700 482.1 3.1
518(12) 0.00630 482.0 3.1
504(12) 0.00679 481.8 3.2
477(11) 0.00736 481.6 3.2
460(11) 0.00709 481.4 3.2
473(12) 0.00654 481.2 3.2
478(12) 0.00689 481.0 3.3
491(12) 0.00693 480.9 3.3
486(11) 0.00711 480.7 3.3
505(12) 0.00632 480.5 3.4
519(13) 0.00576 480.3 3.5
472(12) 0.00691 480.1 3.6
474(11) 0.00725 480.0 3.6
491(11) 0.00710 479.8 3.7
505(12) 0.00643 479.6 3.8
453(12) 0.00668 479.4 3.8
482(12) 0.00663 479.2 3.9
484(11) 0.00722 479.1 4.0
462(11) 0.00751 478.9 4.1
508(12) 0.00647 478.7 4.2
519(13) 0.00589 478.5 4.3
506(12) 0.00638 478.3 4.4
485(11) 0.00719 478.2 4.5
476(11) 0.00731 478.0 4.6
480(12) 0.00683 477.8 4.7
468(12) 0.00670 477.6 4.9
469(12) 0.00681 477.4 5.0
468(11) 0.00735 477.3 5.2
446(11) 0.00782 477.1 5.3
474(12) 0.00705 476.9 5.5
489(12) 0.00655 476.7 5.7
497(12) 0.00653 476.5 5.9
505(12) 0.00694 476.3 6.1
483(12) 0.00697 476.2 6.3
468(12) 0.00691 476.0 6.5
488(12) 0.00645 475.8 7.6
449(11) 0.00734 475.6 7.9
470(11) 0.00745 475.4 8.2
466(11) 0.00709 475.3 8.5
489(12) 0.00657 475.1 8.8
486(12) 0.00669 474.9 9.2
473(12) 0.00694 474.7 9.6
523(12) 0.00669 474.5 10.0
479(12) 0.00700 474.4 10.5
534(13) 0.00590 474.2 11.0
501(12) 0.00666 474.0 11.5
489(12) 0.00690 473.8 12.1
481(11) 0.00723 473.6 12.8
472(12) 0.00683 473.5 13.6
462(12) 0.00682 473.3 14.4
486(12) 0.00670 473.1 15.4
530(12) 0.00624 472.9 16.4
469(11) 0.00746 472.7 17.6
480(12) 0.00676 472.6 18.9
479(12) 0.00666 472.4 20.4
491(12) 0.00665 472.2 22.0
489(12) 0.00686 472.0 23.8
510(12) 0.00685 471.8 25.8
509(12) 0.00623 471.6 28.0
503(12) 0.00627 471.5 30.4
525(12) 0.00636 471.3 33.0
499(12) 0.00683 471.1 35.9
471(11) 0.00742 470.9 39.0
489(12) 0.00675 470.7 42.2
497(13) 0.00604 470.6 45.7
496(12) 0.00648 470.4 49.3
493(12) 0.00704 470.2 53.0
499(12) 0.00697 470.0 56.7
493(12) 0.00674 469.8 60.3
540(13) 0.00551 469.7 64.2
508(12) 0.00643 469.5 67.4
520(12) 0.00677 469.3 70.1
500(12) 0.00688 469.1 72.3
525(12) 0.00633 468.9 74.0
521(12) 0.00623 468.8 75.3
524(12) 0.00626 468.6 76.0
552(12) 0.00629 468.4 76.6
552(12) 0.00625 468.2 77.0
554(13) 0.00576 468.0 77.7
539(13) 0.00577 467.9 79.0
533(13) 0.00596 467.7 81.3
534(12) 0.00654 467.5 85.4
536(12) 0.00639 467.3 92.4
574(13) 0.00556 467.1 103.8
559(13) 0.00568 466.9 121.6
622(13) 0.00526 466.8 147.7
639(13) 0.00554 466.6 183.9
659(13) 0.00523 466.4 230.4
713(15) 0.00456 466.2 285.6
724(15) 0.00456 466.0 344.4
813(15) 0.00412 465.9 397.8
866(15) 0.00413 465.7 434.2
945(16) 0.00360 465.5 447.5
918(16) 0.00360 465.3 444.6
842(16) 0.00397 465.1 440.2
858(16) 0.00395 465.0 447.4
892(15) 0.00402 464.8 473.6
919(16) 0.00365 464.6 520.2
1021(17) 0.003193 464.4 582.7
1120(18) 0.002957 464.2 650.1
1203(18) 0.002903 464.1 704.9
1238(18) 0.002931 463.9 727.2
1192(19) 0.002799 463.7 705.4
1095(18) 0.002983 463.5 643.6
1001(17) 0.003402 463.3 557.9
935(16) 0.00380 463.2 464.9
846(15) 0.00423 463.0 376.3
782(15) 0.00426 462.8 298.6
713(15) 0.00451 462.6 234.1
635(13) 0.00531 462.4 183.0
644(13) 0.00538 462.2 144.0
595(13) 0.00593 462.1 115.1
595(13) 0.00556 461.9 94.0
546(13) 0.00596 461.7 78.7
539(12) 0.00626 461.5 67.4
536(12) 0.00647 461.3 58.9
533(12) 0.00662 461.2 52.3
516(12) 0.00643 461.0 47.1
515(13) 0.00582 460.8 42.7
508(12) 0.00629 460.6 39.1
499(12) 0.00702 460.4 36.0
500(12) 0.00692 460.3 33.3
488(12) 0.00672 460.1 31.0
494(12) 0.00611 459.9 29.0
497(12) 0.00657 459.7 27.2
476(11) 0.00731 459.5 25.7
478(11) 0.00719 459.4 24.3
487(12) 0.00666 459.2 23.0
503(12) 0.00618 459.0 22.0
475(12) 0.00695 458.8 21.0
493(12) 0.00704 458.6 20.1
516(12) 0.00672 458.5 19.3
480(12) 0.00679 458.3 18.7
490(12) 0.00644 458.1 18.0
458(11) 0.00708 457.9 17.5
499(12) 0.00700 457.7 17.0
457(11) 0.00724 457.5 16.6
467(12) 0.00687 457.4 16.2
475(12) 0.00669 457.2 15.8
461(12) 0.00707 457.0 15.5
470(11) 0.00741 456.8 15.3
465(11) 0.00710 456.6 15.0
470(12) 0.00690 456.5 14.8
484(12) 0.00667 456.3 14.7
440(11) 0.00732 456.1 14.5
465(11) 0.00743 455.9 14.4
459(11) 0.00724 455.7 14.4
455(12) 0.00695 455.6 14.3
437(11) 0.00766 455.4 14.3
471(11) 0.00709 455.2 14.3
476(11) 0.00730 455.0 14.3
452(11) 0.00717 454.8 14.4
476(12) 0.00666 454.7 14.3
486(12) 0.00681 454.5 14.4
469(11) 0.00725 454.3 14.6
449(11) 0.00776 454.1 14.7
485(12) 0.00675 453.9 14.9
456(12) 0.00703 453.8 15.1
473(12) 0.00681 453.6 15.3
507(12) 0.00680 453.4 15.6
455(11) 0.00772 453.3 15.9
471(11) 0.00709 453.2 16.2
446(12) 0.00693 453.0 16.5
467(12) 0.00681 452.9 16.9
508(12) 0.00685 452.8 17.3
479(11) 0.00720 452.7 17.7
470(12) 0.00707 452.6 18.2
463(12) 0.00653 452.4 18.8
490(12) 0.00657 452.3 19.3
503(12) 0.00692 452.2 20.0
503(12) 0.00689 452.1 20.6
451(11) 0.00747 451.9 21.4
465(12) 0.00652 451.8 22.2
472(12) 0.00697 451.7 23.0
483(11) 0.00721 451.6 24.0
476(12) 0.00702 451.4 25.0
447(11) 0.00732 451.3 26.1
498(12) 0.00609 451.2 27.4
478(12) 0.00691 451.1 28.7
502(12) 0.00695 451.0 30.2
474(11) 0.00729 450.8 31.8
487(12) 0.00667 450.7 33.5
493(12) 0.00629 450.6 35.5
478(12) 0.00692 450.5 37.7
482(11) 0.00721 450.3 40.0
491(12) 0.00684 450.2 42.7
499(12) 0.00654 450.1 45.7
516(13) 0.00604 450.0 49.0
498(12) 0.00666 449.8 52.7
485(11) 0.00717 449.7 56.9
507(12) 0.00661 449.6 61.7
512(12) 0.00632 449.5 67.2
477(12) 0.00672 449.4 73.5
501(12) 0.00662 449.2 80.9
563(12) 0.00622 449.1 89.6
546(12) 0.00620 449.0 100.2
545(13) 0.00590 448.9 113.4
572(13) 0.00564 448.7 130.0
573(13) 0.00581 448.6 151.7
583(13) 0.00600 448.5 180.2
624(13) 0.00525 448.4 218.1
657(14) 0.00486 448.2 268.3
723(14) 0.00458 448.1 334.0
806(15) 0.00430 448.0 418.0
905(16) 0.00397 447.9 522.8
1042(17) 0.003269 447.8 648.9
1198(19) 0.002713 447.6 794.6
1346(20) 0.002548 447.5 953.7
1566(21) 0.002273 447.4 1114.2
1725(22) 0.002109 447.3 1255.9
1792(23) 0.001915 447.1 1351.9
1908(24) 0.001657 447.0 1378.5
1706(22) 0.002030 446.9 1328.0
1642(21) 0.002184 446.8 1214.9
1426(20) 0.002560 446.6 1065.4
1294(19) 0.002606 446.5 904.6
1138(19) 0.002795 446.4 750.2
1036(17) 0.003303 446.3 612.0
909(16) 0.00394 446.2 494.3
823(15) 0.00428 446.0 398.1
803(15) 0.00406 445.9 322.0
758(15) 0.00412 445.8 263.5
728(14) 0.00465 445.7 219.6
672(13) 0.00531 445.5 187.2
667(14) 0.00523 445.4 163.6
617(13) 0.00549 445.3 146.4
666(15) 0.00455 445.2 133.9
614(13) 0.00547 445.0 124.9
614(13) 0.00575 444.9 118.8
613(13) 0.00561 444.8 114.9
578(13) 0.00576 444.7 113.2
640(14) 0.00480 444.6 113.6
585(13) 0.00552 444.4 116.4
591(13) 0.00593 444.3 122.2
604(13) 0.00579 444.2 131.9
640(14) 0.00516 444.1 146.9
639(14) 0.00505 443.9 168.9
657(14) 0.00502 443.8 199.7
711(14) 0.00498 443.7 241.5
791(15) 0.00432 443.6 296.2
841(16) 0.00386 443.4 364.7
911(16) 0.00360 443.3 446.6
1016(17) 0.003405 443.2 539.1
1035(17) 0.003484 443.1 636.0
1194(18) 0.002864 443.0 725.9
1278(19) 0.002641 442.8 792.2
1365(20) 0.002450 442.7 817.9
1336(19) 0.002646 442.6 794.9
1337(19) 0.002709 442.5 729.9
1144(18) 0.002924 442.3 639.3
1021(18) 0.003161 442.2 540.1
849(16) 0.00391 442.1 444.2
728(14) 0.00479 442.0 358.4
698(14) 0.00501 441.8 285.8
671(14) 0.00491 441.7 226.8
597(13) 0.00545 441.6 180.6
560(13) 0.00604 441.5 145.4
587(13) 0.00580 441.4 119.0
591(13) 0.00590 441.2 99.4
536(13) 0.00595 441.1 84.8
548(13) 0.00561 441.0 73.8
512(12) 0.00636 440.9 65.2
501(12) 0.00680 440.7 58.3
493(11) 0.00709 440.6 52.7
474(12) 0.00701 440.5 48.0
506(13) 0.00604 440.4 44.0
505(12) 0.00631 440.2 40.5
472(11) 0.00732 440.1 37.5
503(12) 0.00686 440.0 34.8
486(12) 0.00669 439.9 32.4
485(12) 0.00625 439.7 30.3
495(12) 0.00635 439.6 28.4
477(11) 0.00735 439.5 26.7
467(11) 0.00723 439.4 25.1
455(12) 0.00705 439.3 23.7
431(11) 0.00738 439.1 22.4
453(11) 0.00712 439.0 21.3
459(11) 0.00762 438.9 20.2
482(12) 0.00697 438.8 19.2
468(12) 0.00692 438.6 18.3
436(12) 0.00703 438.5 17.5
448(12) 0.00683 438.4 16.7
428(11) 0.00805 438.3 16.0
461(11) 0.00737 438.1 15.3
443(11) 0.00730 438.0 14.7
433(11) 0.00743 437.9 14.1
441(11) 0.00747 437.8 13.6
454(11) 0.00760 437.7 13.1
407(11) 0.00822 437.5 12.6
466(12) 0.00694 437.4 12.1
456(12) 0.00699 437.3 11.7
451(11) 0.00714 437.2 11.3
445(11) 0.00775 437.0 10.9
452(11) 0.00730 436.9 10.6
442(11) 0.00745 436.8 10.3
460(12) 0.00697 436.7 9.9
447(11) 0.00731 436.5 9.6
444(11) 0.00785 436.4 9.3
436(11) 0.00744 436.3 9.1
449(12) 0.00680 436.2 8.8
430(11) 0.00755 436.1 8.6
474(12) 0.00705 435.9 8.3
464(11) 0.00742 435.8 8.1
457(12) 0.00699 435.7 7.9
440(12) 0.00696 435.6 7.7
443(11) 0.00725 435.4 7.5
451(11) 0.00760 435.3 7.3
437(11) 0.00782 435.2 7.1
445(11) 0.00733 435.1 7.0
438(12) 0.00697 434.9 6.8
446(11) 0.00721 434.8 6.7
445(11) 0.00776 434.7 6.5
436(11) 0.00801 434.6 6.4
437(11) 0.00729 434.5 6.2
423(11) 0.00728 434.3 6.1
429(11) 0.00769 434.2 6.0
434(11) 0.00779 434.1 5.8
429(11) 0.00804 434.0 5.7
448(11) 0.00713 433.8 5.6
460(12) 0.00644 433.7 5.6
446(11) 0.00722 433.6 5.5
401(10) 0.00859 433.5 5.4
433(11) 0.00786 433.3 5.3
428(11) 0.00780 433.2 5.2
454(12) 0.00685 433.1 5.2
445(11) 0.00754 433.0 5.1
446(11) 0.00783 432.9 5.0
422(11) 0.00811 432.7 5.0
451(12) 0.00687 432.6 4.9
442(12) 0.00669 432.5 5.4
437(11) 0.00719 432.4 5.3
441(11) 0.00783 432.2 5.3
461(11) 0.00734 432.1 5.2
458(12) 0.00703 432.0 5.2
419(11) 0.00727 431.9 5.1
415(11) 0.00779 431.7 5.0
439(11) 0.00783 431.6 5.0
457(11) 0.00740 431.5 4.9
448(11) 0.00717 431.4 4.9
440(11) 0.00714 431.3 4.8
409(11) 0.00793 431.1 4.8
428(11) 0.00806 431.0 4.8
429(11) 0.00766 430.9 4.7
449(12) 0.00686 430.8 4.7
429(11) 0.00727 430.6 4.6
446(11) 0.00740 430.5 4.6
462(11) 0.00749 430.4 4.6
425(11) 0.00762 430.3 4.5
423(11) 0.00736 430.1 4.5
440(11) 0.00719 430.0 4.5
435(11) 0.00770 429.9 4.4
462(11) 0.00750 429.8 4.4
443(11) 0.00752 429.7 4.4
435(11) 0.00734 429.5 4.4
430(11) 0.00761 429.4 4.4
432(11) 0.00774 429.3 4.3
446(11) 0.00776 429.2 4.3
448(11) 0.00727 429.1 4.3
462(12) 0.00666 428.9 4.3
434(11) 0.00771 428.8 4.3
461(11) 0.00748 428.7 4.3
425(11) 0.00804 428.6 4.2
410(11) 0.00790 428.5 4.2
426(12) 0.00702 428.4 4.2
442(11) 0.00714 428.2 4.2
418(11) 0.00816 428.1 4.2
449(11) 0.00785 428.0 4.2
441(11) 0.00756 427.9 4.2
442(12) 0.00691 427.8 4.2
427(11) 0.00778 427.7 4.2
412(11) 0.00836 427.5 4.2
419(11) 0.00819 427.4 4.2
434(11) 0.00763 427.3 4.2
407(11) 0.00754 427.2 4.2
436(11) 0.00720 427.1 4.2
422(11) 0.00826 427.0 4.2
447(11) 0.00763 426.8 4.3
429(11) 0.00771 426.7 4.3
425(11) 0.00721 426.6 4.3
421(11) 0.00771 426.5 4.3
426(11) 0.00800 426.4 4.4
407(11) 0.00825 426.3 4.4
418(11) 0.00768 426.1 4.5
425(11) 0.00730 426.0 4.5
424(11) 0.00768 425.9 4.6
433(11) 0.00791 425.8 4.6
456(11) 0.00733 425.7 4.7
422(11) 0.00771 425.6 4.7
458(12) 0.00647 425.4 4.8
452(11) 0.00717 425.3 4.9
429(11) 0.00805 425.2 5.0
418(11) 0.00788 425.1 5.1
405(11) 0.00785 425.0 5.2
415(11) 0.00772 424.9 5.3
436(11) 0.00741 424.7 5.5
403(10) 0.00857 424.6 5.7
433(11) 0.00749 424.5 5.9
437(11) 0.00735 424.4 6.2
426(11) 0.00760 424.3 6.5
440(11) 0.00772 424.2 7.0
433(11) 0.00789 424.0 7.6
432(11) 0.00746 423.9 8.4
408(11) 0.00776 423.8 9.9
430(11) 0.00767 423.7 12.7
440(11) 0.00773 423.6 18.0
468(11) 0.00739 423.5 27.4
450(11) 0.00719 423.3 42.6
456(12) 0.00690 423.2 64.2
494(12) 0.00654 423.1 90.5
532(12) 0.00642 423.0 116.7
578(13) 0.00605 422.9 134.7
573(13) 0.00576 422.8 136.6
567(13) 0.00535 422.6 121.4
502(12) 0.00652 422.5 96.2
473(11) 0.00733 422.4 69.4
482(11) 0.00719 422.3 46.7
474(12) 0.00701 422.2 30.3
424(11) 0.00745 422.1 19.9
455(12) 0.00702 421.9 14.0
430(11) 0.00790 421.8 10.9
432(11) 0.00790 421.7 9.3
461(11) 0.00712 421.6 8.3
471(12) 0.00659 421.5 7.8
457(12) 0.00699 421.4 7.4
443(11) 0.00777 421.2 7.1
440(11) 0.00783 421.1 6.9
437(11) 0.00746 421.0 6.7
436(11) 0.00725 420.9 6.6
440(11) 0.00762 420.8 6.5
457(11) 0.00759 420.7 6.4
421(11) 0.00810 420.5 6.4
444(11) 0.00731 420.4 6.3
437(11) 0.00725 420.3 6.3
413(11) 0.00797 420.2 6.3
438(11) 0.00793 420.1 6.3
414(11) 0.00811 420.0 6.3
410(11) 0.00783 419.8 6.4
430(11) 0.00710 419.7 6.4
446(11) 0.00712 419.6 6.5
414(11) 0.00828 419.5 6.5
426(11) 0.00791 419.4 6.6
443(11) 0.00735 419.3 6.6
436(11) 0.00742 419.1 6.7
413(11) 0.00809 419.0 6.8
447(11) 0.00777 418.9 6.9
435(11) 0.00761 418.8 7.0
437(11) 0.00718 418.7 7.0
432(11) 0.00726 418.6 7.1
428(11) 0.00760 418.4 7.2
430(11) 0.00807 418.3 7.3
431(11) 0.00753 418.2 7.5
433(12) 0.00702 418.1 7.6
401(11) 0.00786 418.0 7.8
408(11) 0.00835 417.9 8.0
425(11) 0.00810 417.7 8.2
414(11) 0.00801 417.6 8.4
444(12) 0.00680 417.5 8.6
404(11) 0.00789 417.4 8.8
422(11) 0.00806 417.3 9.0
458(11) 0.00757 417.2 9.3
424(11) 0.00763 417.0 9.5
421(11) 0.00760 416.9 9.8
405(11) 0.00813 416.8 10.1
410(11) 0.00824 416.7 10.5
429(11) 0.00803 416.6 10.8
410(11) 0.00801 416.5 11.2
424(11) 0.00712 416.3 11.6
403(11) 0.00831 416.2 12.1
398(10) 0.00850 416.1 12.6
415(11) 0.00836 416.0 13.1
433(11) 0.00727 415.9 13.7
438(12) 0.00688 415.8 14.3
427(11) 0.00786 415.6 15.1
442(11) 0.00793 415.5 15.8
445(11) 0.00762 415.4 16.7
447(11) 0.00730 415.3 17.7
449(12) 0.00700 415.2 18.8
468(12) 0.00702 415.1 20.1
454(11) 0.00764 414.9 21.5
430(11) 0.00798 414.8 23.2
435(11) 0.00754 414.7 25.3
437(12) 0.00700 414.6 27.8
451(12) 0.00705 414.5 30.9
467(11) 0.00743 414.4 34.8
459(11) 0.00746 414.2 39.8
461(11) 0.00727 414.1 46.1
467(12) 0.00667 414.0 54.1
515(12) 0.00613 413.9 64.0
504(12) 0.00690 413.8 76.2
499(12) 0.00672 413.7 90.7
479(12) 0.00687 413.5 107.6
543(13) 0.00596 413.4 126.4
542(12) 0.00614 413.3 146.5
540(12) 0.00651 413.2 166.4
577(13) 0.00581 413.1 183.7
639(14) 0.00508 413.0 195.7
655(14) 0.00500 412.8 200.0
612(13) 0.00560 412.7 195.8
631(13) 0.00558 412.6 184.3
566(13) 0.00586 412.5 168.1
562(13) 0.00579 412.4 150.1
548(13) 0.00601 412.3 132.5
498(12) 0.00671 412.1 116.4
498(12) 0.00700 412.0 102.7
500(12) 0.00643 411.9 91.6
488(12) 0.00639 411.8 83.3
477(12) 0.00675 411.7 77.5
476(11) 0.00730 411.6 74.2
477(11) 0.00727 411.4 73.0
477(12) 0.00703 411.3 73.8
487(12) 0.00640 411.2 76.3
493(12) 0.00668 411.1 80.5
519(12) 0.00671 411.0 86.1
516(12) 0.00671 410.9 93.1
518(12) 0.00625 410.7 101.4
515(13) 0.00589 410.6 110.9
540(12) 0.00611 410.5 121.4
533(12) 0.00653 410.4 132.8
590(13) 0.00594 410.3 144.7
561(13) 0.00602 410.2 156.7
621(14) 0.00492 410.0 168.2
600(13) 0.00563 409.9 178.4
608(13) 0.00571 409.8 186.5
646(13) 0.00548 409.7 191.6
653(14) 0.00503 409.6 193.1
619(14) 0.00498 409.5 190.9
651(14) 0.00510 409.3 185.1
604(13) 0.00586 409.2 176.4
605(13) 0.00570 409.1 165.6
543(12) 0.00620 409.0 153.5
547(13) 0.00559 408.9 140.8
510(12) 0.00621 408.8 128.2
523(12) 0.00663 408.6 116.1
551(12) 0.00616 408.5 104.7
524(12) 0.00633 408.4 94.2
512(12) 0.00632 408.3 84.7
495(12) 0.00658 408.2 76.1
480(11) 0.00724 408.1 68.6
491(12) 0.00692 407.9 62.0
488(12) 0.00679 407.8 56.3
485(12) 0.00668 407.7 51.3
459(11) 0.00716 407.6 47.1
469(11) 0.00744 407.5 43.5
483(12) 0.00689 407.4 40.4
454(12) 0.00704 407.2 37.8
427(11) 0.00761 407.1 35.6
460(11) 0.00710 407.0 33.7
463(11) 0.00747 406.9 32.2
451(11) 0.00714 406.8 30.8
456(12) 0.00700 406.7 29.7
462(11) 0.00712 406.5 28.8
440(11) 0.00767 406.4 28.0
465(11) 0.00744 406.3 27.3
429(11) 0.00754 406.2 26.8
419(11) 0.00743 406.1 26.3
453(12) 0.00704 406.0 26.0
441(11) 0.00766 405.8 25.7
419(11) 0.00810 405.7 25.5
429(11) 0.00747 405.6 25.4
428(11) 0.00728 405.5 25.3
415(11) 0.00776 405.4 25.3
443(11) 0.00767 405.3 25.4
421(11) 0.00818 405.1 25.6
432(11) 0.00759 405.0 25.8
437(12) 0.00700 404.9 26.0
412(11) 0.00796 404.8 26.4
430(11) 0.00792 404.7 26.8
445(11) 0.00779 404.6 27.3
449(12) 0.00705 404.4 27.8
418(11) 0.00731 404.3 28.4
444(11) 0.00738 404.2 29.1
428(11) 0.00807 404.1 29.9
410(11) 0.00833 404.0 30.7
412(11) 0.00805 403.9 31.7
427(11) 0.00713 403.7 32.7
446(11) 0.00724 403.6 33.8
417(11) 0.00831 403.5 35.0
439(11) 0.00779 403.4 36.3
426(11) 0.00775 403.3 37.6
449(12) 0.00686 403.2 39.1
445(11) 0.00728 403.0 40.7
435(11) 0.00796 402.9 42.4
459(11) 0.00732 402.8 44.2
445(11) 0.00710 402.7 46.0
400(11) 0.00772 402.6 48.0
406(11) 0.00780 402.5 50.1
439(11) 0.00776 402.3 52.3
438(11) 0.00753 402.2 54.5
424(11) 0.00781 402.1 56.8
433(11) 0.00736 402.0 59.0
444(11) 0.00717 401.9 61.2
452(11) 0.00758 401.8 63.2
461(11) 0.00731 401.6 64.9
471(12) 0.00685 401.5 66.4
467(12) 0.00695 401.4 67.5
420(11) 0.00777 401.3 68.5
414(11) 0.00832 401.2 69.6
441(11) 0.00755 401.1 70.7
429(11) 0.00740 400.9 72.2
426(11) 0.00748 400.8 74.0
466(11) 0.00717 400.7 76.4
465(11) 0.00748 400.6 79.2
464(11) 0.00714 400.5 82.8
484(12) 0.00649 400.4 87.0
455(11) 0.00725 400.2 92.0
470(11) 0.00720 400.1 97.9
471(11) 0.00735 400.0 104.9
504(12) 0.00636 399.9 113.0
494(12) 0.00639 399.8 122.4
511(12) 0.00655 399.7 133.3
472(11) 0.00728 399.5 145.9
491(11) 0.00711 399.4 160.4
493(12) 0.00684 399.3 176.9
542(13) 0.00571 399.2 195.7
554(13) 0.00584 399.1 216.9
525(12) 0.00663 399.0 240.9
590(13) 0.00592 398.8 267.6
636(14) 0.00521 398.7 297.1
659(14) 0.00471 398.6 329.6
706(14) 0.00479 398.5 364.9
737(14) 0.00481 398.4 402.8
809(15) 0.00441 398.3 442.8
856(16) 0.00398 398.1 484.4
880(17) 0.00352 398.0 526.4
917(16) 0.00362 397.9 567.6
935(16) 0.00384 397.8 606.2
1003(17) 0.00355 397.7 640.1
981(17) 0.003429 397.6 667.0
975(17) 0.003233 397.4 685.0
976(17) 0.003470 397.3 692.6
958(16) 0.00375 397.2 689.3
951(16) 0.00360 397.1 675.3
902(16) 0.00365 397.0 652.0
868(16) 0.00364 396.9 621.5
872(16) 0.00373 396.7 585.8
815(15) 0.00435 396.6 547.1
781(15) 0.00446 396.5 507.3
799(15) 0.00415 396.4 467.7
737(15) 0.00429 396.3 429.5
740(15) 0.00441 396.2 393.3
703(14) 0.00505 396.0 359.7
672(14) 0.00511 395.9 328.8
666(14) 0.00485 395.8 300.8
656(14) 0.00511 395.7 275.7
655(14) 0.00509 395.6 253.3
616(13) 0.00573 395.5 233.6
637(13) 0.00526 395.3 216.3
598(13) 0.00540 395.2 201.2
580(13) 0.00572 395.1 188.1
580(13) 0.00589 395.0 176.8
571(12) 0.00618 394.9 167.1
565(13) 0.00582 394.8 158.7
528(12) 0.00616 394.6 151.4
515(12) 0.00649 394.5 145.1
505(12) 0.00678 394.4 139.6
521(12) 0.00669 394.3 134.8
523(12) 0.00619 394.2 130.5
526(12) 0.00608 394.1 126.6
515(12) 0.00638 393.9 123.1
501(12) 0.00705 393.8 119.9
509(12) 0.00680 393.7 117.0
500(12) 0.00648 393.6 114.3
530(13) 0.00576 393.5 112.0
500(12) 0.00673 393.4 109.9
498(12) 0.00700 393.2 108.1
495(12) 0.00705 393.1 106.6
540(13) 0.00600 393.0 105.5
499(12) 0.00638 392.9 104.8
497(12) 0.00668 392.8 104.6
493(11) 0.00711 392.7 104.9
497(12) 0.00698 392.5 105.6
484(12) 0.00683 392.4 106.9
504(13) 0.00592 392.3 108.8
493(12) 0.00671 392.2 111.3
527(12) 0.00661 392.1 114.3
506(12) 0.00692 392.0 117.8
510(12) 0.00646 391.8 121.7
520(13) 0.00582 391.7 125.8
508(12) 0.00617 391.6 129.9
524(12) 0.00662 391.5 133.8
507(12) 0.00673 391.4 137.1
533(12) 0.00630 391.3 139.4
532(13) 0.00586 391.1 140.3
542(13) 0.00584 391.0 139.5
522(12) 0.00668 390.9 137.0
555(13) 0.00604 390.8 132.8
492(12) 0.00670 390.7 127.2
563(13) 0.00559 390.6 120.5
522(12) 0.00617 390.4 113.1
476(11) 0.00726 390.3 105.4
491(12) 0.00679 390.2 97.6
477(12) 0.00674 390.1 90.1
450(12) 0.00708 390.0 82.8
451(11) 0.00730 389.9 76.0
415(11) 0.00835 389.7 69.7
433(11) 0.00759 389.6 64.0
424(11) 0.00738 389.5 58.7
423(11) 0.00746 389.4 54.0
444(11) 0.00735 389.3 49.8
446(11) 0.00775 389.2 46.0
409(11) 0.00807 389.0 42.6
417(11) 0.00767 388.9 39.6
429(11) 0.00753 388.8 37.0
394(10) 0.00869 388.7 34.6
424(11) 0.00808 388.6 32.5
412(11) 0.00796 388.5 30.7
420(11) 0.00733 388.3 29.0
413(11) 0.00761 388.2 27.6
394(10) 0.00845 388.1 26.2
427(11) 0.00805 388.0 25.0
409(11) 0.00787 387.9 23.9
402(11) 0.00768 387.8 22.9
437(11) 0.00752 387.6 22.0
423(11) 0.00788 387.5 21.1
424(11) 0.00813 387.4 20.3
427(11) 0.00761 387.3 19.6
397(11) 0.00758 387.2 18.9
366(10) 0.00906 387.1 18.2
377(10) 0.00901 386.9 17.6
411(11) 0.00832 386.8 17.1
408(11) 0.00789 386.7 16.5
411(11) 0.00711 386.6 16.0
398(11) 0.00822 386.5 15.5
416(11) 0.00817 386.4 15.1
367(10) 0.00920 386.2 14.6
389(11) 0.00838 386.1 14.2
408(11) 0.00757 386.0 13.8
414(11) 0.00778 385.9 13.5
434(11) 0.00792 385.8 13.1
430(11) 0.00795 385.7 12.8
376(10) 0.00848 385.5 12.4
407(11) 0.00734 385.4 12.1
415(11) 0.00787 385.3 11.8
367(10) 0.00925 385.2 11.5
363(10) 0.00908 385.1 11.2
389(11) 0.00809 385.0 11.0
375(11) 0.00812 384.8 10.7
368(10) 0.00882 384.7 10.5
384(10) 0.00890 384.6 10.2
406(11) 0.00810 384.5 10.0
366(10) 0.00882 384.4 9.8
387(11) 0.00796 384.3 9.6
403(11) 0.00796 384.1 9.4
376(10) 0.00901 384.0 9.2
380(10) 0.00866 383.9 9.0
378(10) 0.00843 383.8 8.8
393(11) 0.00792 383.7 8.6
387(10) 0.00844 383.6 8.5
394(10) 0.00875 383.5 8.3
397(11) 0.00829 383.3 8.1
411(11) 0.00760 383.2 8.0
389(11) 0.00838 383.1 7.8
398(11) 0.00827 383.0 7.7
353(10) 0.00963 382.9 7.5
391(11) 0.00816 382.8 7.4
359(10) 0.00909 382.6 7.3
392(11) 0.00806 382.5 7.1
404(11) 0.00830 382.4 7.0
398(10) 0.00860 382.3 6.9
349(10) 0.00944 382.2 6.8
387(11) 0.00801 382.1 6.7
387(11) 0.00824 381.9 6.5
405(10) 0.00844 381.8 6.4
385(10) 0.00902 381.7 6.3
376(10) 0.00851 381.6 6.2
389(11) 0.00762 381.5 6.1
395(11) 0.00810 381.4 6.0
376(10) 0.00885 381.2 5.9
415(11) 0.00824 381.1 5.8
395(11) 0.00833 381.0 5.8
381(11) 0.00795 380.9 5.7
408(11) 0.00788 380.8 5.6
393(10) 0.00872 380.7 5.5
382(10) 0.00866 380.5 5.4
387(11) 0.00837 380.4 5.3
393(11) 0.00766 380.3 5.3
396(11) 0.00813 380.2 5.2
381(10) 0.00879 380.1 5.1
398(10) 0.00858 380.0 5.0
372(10) 0.00884 379.8 5.0
375(11) 0.00837 379.7 4.9
389(11) 0.00831 379.6 4.8
401(10) 0.00858 379.5 4.8
387(10) 0.00875 379.4 4.7
429(11) 0.00740 379.3 4.6
413(11) 0.00738 379.1 4.6
382(10) 0.00848 379.0 4.5
354(10) 0.00967 378.9 4.4
394(10) 0.00842 378.8 4.4
381(11) 0.00837 378.7 4.3
395(11) 0.00805 378.6 4.3
428(11) 0.00762 378.4 4.2
366(10) 0.00926 378.3 4.2
375(10) 0.00858 378.2 4.1
389(11) 0.00812 378.1 4.1
369(10) 0.00851 378.0 4.0
380(10) 0.00847 377.9 4.0
393(10) 0.00878 377.7 3.9
376(10) 0.00885 377.6 3.9
385(11) 0.00839 377.5 3.8
372(10) 0.00872 377.4 3.8
385(10) 0.00860 377.3 3.7
396(10) 0.00860 377.2 3.7
395(10) 0.00839 377.0 3.6
394(11) 0.00816 376.9 3.6
393(11) 0.00825 376.8 3.6
407(11) 0.00832 376.7 3.5
364(10) 0.00929 376.6 3.5
366(10) 0.00884 376.5 3.4
390(11) 0.00808 376.3 3.4
389(11) 0.00838 376.2 3.4
383(10) 0.00878 376.1 3.3
397(10) 0.00867 376.0 3.3
360(10) 0.00887 375.9 3.3
381(11) 0.00801 375.8 3.2
383(10) 0.00845 375.6 3.2
351(10) 0.00963 375.5 3.2
350(10) 0.00971 375.4 3.1
354(10) 0.00923 375.3 3.1
352(10) 0.00881 375.2 3.1
379(10) 0.00879 375.1 3.0
395(10) 0.00859 374.9 3.0
375(10) 0.00895 374.8 3.0
359(10) 0.00886 374.7 2.9
376(11) 0.00787 374.6 2.9
371(10) 0.00881 374.5 2.9
353(10) 0.00972 374.4 2.9
367(10) 0.00927 374.2 2.8
381(10) 0.00845 374.1 2.8
380(11) 0.00802 374.0 2.8
377(10) 0.00859 373.9 2.8
382(10) 0.00896 373.8 2.8
385(10) 0.00889 373.7 2.8
393(11) 0.00809 373.5 2.7
369(10) 0.00853 373.4 2.7
377(11) 0.00836 373.3 2.7
371(10) 0.00915 373.2 2.7
384(10) 0.00856 373.1 2.6
396(11) 0.00803 373.0 2.6
377(11) 0.00818 373.0 2.6
383(11) 0.00814 372.9 2.6
386(10) 0.00881 372.8 2.6
377(10) 0.00862 372.7 2.5
352(10) 0.00895 372.6 2.5
377(11) 0.00825 372.5 2.5
368(10) 0.00884 372.4 2.5
376(10) 0.00905 372.3 2.5
360(10) 0.00914 372.2 2.4
381(11) 0.00827 372.2 2.4
404(11) 0.00783 372.1 2.4
377(10) 0.00886 372.0 2.4
373(10) 0.00909 371.9 2.4
375(10) 0.00860 371.8 2.3
374(11) 0.00838 371.7 2.3
364(10) 0.00885 371.6 2.3
363(10) 0.00938 371.5 2.3
361(10) 0.00933 371.5 2.3
344(10) 0.00930 371.4 2.3
352(10) 0.00854 371.3 2.3
373(11) 0.00830 371.2 2.2
372(10) 0.00884 371.1 2.2
394(10) 0.00867 371.0 2.2
381(11) 0.00823 370.9 2.2
393(11) 0.00765 370.8 2.2
371(10) 0.00869 370.7 2.2
402(10) 0.00849 370.7 2.2
397(10) 0.00862 370.6 2.1
381(10) 0.00840 370.5 2.1
399(11) 0.00732 370.4 2.1
361(10) 0.00918 370.3 2.1
383(10) 0.00889 370.2 2.1
369(10) 0.00918 370.1 2.1
375(10) 0.00855 370.0 2.1
375(11) 0.00806 370.0 2.1
370(10) 0.00872 369.9 2.0
371(10) 0.00934 369.8 2.0
360(10) 0.00933 369.7 2.0
395(11) 0.00804 369.6 2.0
353(10) 0.00864 369.5 2.0
368(10) 0.00855 369.4 2.0
352(10) 0.00962 369.3 2.0
367(10) 0.00921 369.2 2.0
387(11) 0.00812 369.2 2.0
357(10) 0.00865 369.1 1.9
372(10) 0.00841 369.0 1.9
373(10) 0.00925 368.9 1.9
369(10) 0.00895 368.8 1.9
367(10) 0.00882 368.7 1.9
376(11) 0.00820 368.6 1.9
382(10) 0.00842 368.5 1.9
400(10) 0.00852 368.5 1.9
361(10) 0.00938 368.4 1.9
376(10) 0.00870 368.3 1.9
367(10) 0.00875 368.2 1.9
351(10) 0.00910 368.1 1.9
355(10) 0.00961 368.0 1.8
370(10) 0.00881 367.9 1.8
349(10) 0.00924 367.8 1.8
367(10) 0.00852 367.7 1.8
383(10) 0.00858 367.7 1.8
385(10) 0.00889 367.6 1.8
358(10) 0.00864 367.5 1.8
353(10) 0.00861 367.4 1.8
376(11) 0.00822 367.3 1.8
375(10) 0.00872 367.2 1.8
357(10) 0.00953 367.1 1.8
391(11) 0.00781 367.0 1.8
358(10) 0.00867 367.0 1.8
372(10) 0.00860 366.9 1.8
356(10) 0.00928 366.8 1.8
354(10) 0.00968 366.7 1.8
373(10) 0.00872 366.6 1.8
379(11) 0.00818 366.5 1.7
387(11) 0.00827 366.4 1.7
378(10) 0.00900 366.3 1.7
373(10) 0.00916 366.2 1.7
387(10) 0.00842 366.2 1.7
370(11) 0.00819 366.1 1.7
342(10) 0.00937 366.0 1.7
362(10) 0.00937 365.9 1.7
331(9) 0.01013 365.8 1.7
373(10) 0.00858 365.7 1.7
379(11) 0.00760 365.6 1.7
341(10) 0.00910 365.5 1.7
377(10) 0.00901 365.5 1.7
385(10) 0.00862 365.4 1.7
362(10) 0.00887 365.3 1.7
363(11) 0.00816 365.2 1.7
388(11) 0.00815 365.1 1.7
382(10) 0.00891 365.0 1.7
378(10) 0.00889 364.9 1.7
380(10) 0.00862 364.8 1.7
369(10) 0.00841 364.7 1.7
380(10) 0.00846 364.7 1.7
371(10) 0.00920 364.6 1.7
386(10) 0.00859 364.5 1.7
373(10) 0.00852 364.4 1.7
354(10) 0.00852 364.3 1.7
350(10) 0.00890 364.2 1.7
371(10) 0.00916 364.1 1.7
366(10) 0.00907 364.0 1.7
364(10) 0.00869 364.0 1.7
350(10) 0.00904 363.9 1.8
360(10) 0.00890 363.8 1.8
375(10) 0.00906 363.7 1.8
363(10) 0.00921 363.6 1.8
342(10) 0.00936 363.5 1.8
358(10) 0.00874 363.4 1.8
345(10) 0.00928 363.3 1.8
391(10) 0.00877 363.2 1.8
314(9) 0.01039 363.2 1.8
353(10) 0.00868 363.1 1.8
346(10) 0.00894 363.0 1.8
360(10) 0.00886 362.9 1.9
371(10) 0.00926 362.8 1.9
356(10) 0.00887 362.7 1.9
377(11) 0.00818 362.6 1.9
363(10) 0.00871 362.5 1.9
374(10) 0.00890 362.5 2.0
391(10) 0.00883 362.4 2.0
366(10) 0.00880 362.3 2.0
387(11) 0.00797 362.2 2.0
369(10) 0.00900 362.1 2.1
368(10) 0.00929 362.0 2.1
367(10) 0.00934 361.9 2.2
371(10) 0.00860 361.8 2.2
377(11) 0.00808 361.7 2.3
366(10) 0.00880 361.7 2.3
378(10) 0.00914 361.6 2.4
355(10) 0.00960 361.5 2.5
376(10) 0.00863 361.4 2.6
357(10) 0.00851 361.3 2.7
370(10) 0.00871 361.2 2.9
353(10) 0.00968 361.1 3.1
338(10) 0.00979 361.0 3.4
348(10) 0.00898 361.0 3.9
353(10) 0.00849 360.9 4.8
363(10) 0.00894 360.8 6.0
379(10) 0.00899 360.7 7.7
392(10) 0.00874 360.6 9.9
378(10) 0.00856 360.5 12.6
372(11) 0.00811 360.4 15.5
387(11) 0.00832 360.3 17.9
393(10) 0.00881 360.2 19.2
380(10) 0.00862 360.2 18.7
380(10) 0.00846 360.1 16.8
401(11) 0.00735 360.0 14.1
342(10) 0.00941 359.9 11.4
373(10) 0.00920 359.8 9.0
344(10) 0.00942 359.7 7.1
353(10) 0.00894 359.6 5.8
353(10) 0.00871 359.5 4.9
348(10) 0.00922 359.5 4.4
365(10) 0.00936 359.4 4.1
345(10) 0.00937 359.3 3.9
353(10) 0.00856 359.2 3.8
381(11) 0.00831 359.1 3.8
336(10) 0.00981 359.0 3.8
373(10) 0.00918 358.9 3.8
341(10) 0.00951 358.8 3.9
323(10) 0.00964 358.7 3.9
380(11) 0.00807 358.7 4.0
371(10) 0.00892 358.6 4.1
369(10) 0.00918 358.5 4.2
375(10) 0.00861 358.4 4.3
359(10) 0.00881 358.3 4.4
372(10) 0.00874 358.2 4.6
382(10) 0.00870 358.1 4.7
364(10) 0.00929 358.0 4.9
377(10) 0.00842 358.0 5.1
352(10) 0.00874 357.9 5.3
347(10) 0.00934 357.8 5.5
351(10) 0.00953 357.7 5.7
354(10) 0.00971 357.6 5.9
392(11) 0.00830 357.5 6.1
386(11) 0.00789 357.4 6.4
370(10) 0.00871 357.3 6.6
388(10) 0.00868 357.2 6.9
388(10) 0.00882 357.2 7.1
387(11) 0.00817 357.1 7.4
356(10) 0.00876 357.0 7.6
361(10) 0.00859 356.9 7.9
379(10) 0.00902 356.8 8.2
409(11) 0.00834 356.7 8.4
379(10) 0.00853 356.6 8.7
370(11) 0.00821 356.5 9.0
368(10) 0.00851 356.5 9.2
329(9) 0.01026 356.4 9.4
383(10) 0.00875 356.3 9.6
387(11) 0.00835 356.2 9.8
379(11) 0.00802 356.1 10.0
358(10) 0.00897 356.0 10.1
386(10) 0.00883 355.9 10.2
372(10) 0.00901 355.8 10.3
359(10) 0.00914 355.7 10.3
370(10) 0.00839 355.7 10.3
368(10) 0.00865 355.6 10.3
361(10) 0.00949 355.5 10.2
356(10) 0.00925 355.4 10.1
384(11) 0.00813 355.3 10.0
349(10) 0.00901 355.2 9.8
345(10) 0.00926 355.1 9.6
390(10) 0.00884 355.0 9.4
361(10) 0.00912 355.0 9.2
362(10) 0.00906 354.9 9.0
379(11) 0.00836 354.8 8.8
371(10) 0.00844 354.7 8.5
371(10) 0.00922 354.6 8.3
362(10) 0.00898 354.5 8.0
361(10) 0.00854 354.4 7.8
357(10) 0.00888 354.3 7.6
357(10) 0.00918 354.2 7.3
369(10) 0.00923 354.2 7.1
363(10) 0.00888 354.1 6.9
371(11) 0.00827 354.0 6.7
389(11) 0.00790 353.9 6.5
357(10) 0.00931 353.8 6.3
345(10) 0.00990 353.7 6.1
357(10) 0.00897 353.6 6.0
343(10) 0.00906 353.5 5.8
383(10) 0.00844 353.5 5.7
399(10) 0.00841 353.4 5.6
353(10) 0.00959 353.3 5.5
350(10) 0.00868 353.2 5.4
365(11) 0.00813 353.1 5.4
345(10) 0.00923 353.0 5.3
344(10) 0.00971 352.9 5.3
374(10) 0.00910 352.8 5.3
353(10) 0.00895 352.7 5.3
383(11) 0.00774 352.7 5.4
390(11) 0.00804 352.6 5.5
346(10) 0.00983 352.5 5.6
339(10) 0.00981 352.4 5.8
342(10) 0.00938 352.3 6.1
346(10) 0.00862 352.2 6.5
347(10) 0.00917 352.1 6.9
371(10) 0.00923 352.0 7.5
386(10) 0.00869 352.0 8.3
381(11) 0.00837 351.9 9.3
368(11) 0.00792 351.8 10.4
362(10) 0.00890 351.7 11.8
334(9) 0.01011 351.6 13.4
346(10) 0.00969 351.5 15.3
365(10) 0.00876 351.4 17.4
363(11) 0.00824 351.3 19.6
331(10) 0.00936 351.2 21.8
357(10) 0.00943 351.2 23.8
374(10) 0.00898 351.1 25.4
364(10) 0.00903 351.0 26.3
394(11) 0.00803 350.9 26.4
371(11) 0.00834 350.8 25.6
347(10) 0.00992 350.7 24.1
372(10) 0.00893 350.6 22.1
347(10) 0.00910 350.5 19.9
363(10) 0.00840 350.5 17.7
359(10) 0.00908 350.4 15.5
383(10) 0.00899 350.3 13.6
357(10) 0.00928 350.2 11.9
338(10) 0.00947 350.1 10.4
342(10) 0.00934 350.0 9.2
359(10) 0.00917 349.9 8.2
354(10) 0.00960 349.8 7.3
381(10) 0.00839 349.7 6.7
341(10) 0.00926 349.7 6.1
352(10) 0.00877 349.6 5.7
359(10) 0.00887 349.5 5.4
330(9) 0.01018 349.4 5.1
335(10) 0.00947 349.3 4.9
335(10) 0.00970 349.2 4.8
346(10) 0.00954 349.1 4.6
354(10) 0.00959 349.0 4.6
372(10) 0.00910 349.0 4.5
336(10) 0.00965 348.9 4.5
335(10) 0.00898 348.8 4.5
342(10) 0.00932 348.7 4.5
349(10) 0.00958 348.6 4.5
346(10) 0.00989 348.5 4.6
350(10) 0.00927 348.4 4.7
363(11) 0.00822 348.3 4.8
346(10) 0.00913 348.2 4.9
350(10) 0.00967 348.2 5.0
345(10) 0.00975 348.1 5.2
366(10) 0.00901 348.0 5.5
366(11) 0.00802 347.9 5.7
349(10) 0.00919 347.8 6.0
348(10) 0.00984 347.7 6.3
345(10) 0.00958 347.6 6.7
389(11) 0.00799 347.5 7.1
363(10) 0.00845 347.5 7.6
367(10) 0.00890 347.4 8.1
373(10) 0.00915 347.3 8.6
340(10) 0.00996 347.2 9.2
400(11) 0.00786 347.1 9.9
348(10) 0.00885 347.0 10.5
349(10) 0.00935 346.9 11.2
378(10) 0.00908 346.8 11.9
359(10) 0.00933 346.7 12.7
365(10) 0.00874 346.7 13.4
353(10) 0.00879 346.6 14.0
359(10) 0.00903 346.5 14.6
351(10) 0.00963 346.4 15.1
371(10) 0.00896 346.3 15.5
327(9) 0.01012 346.2 15.7
335(10) 0.00933 346.1 15.7
375(10) 0.00851 346.0 15.6
352(10) 0.00970 346.0 15.4
335(10) 0.00958 345.9 15.0
348(10) 0.00921 345.8 14.5
373(11) 0.00833 345.7 13.9
335(10) 0.00936 345.6 13.2
351(10) 0.00976 345.5 12.5
369(10) 0.00881 345.4 11.8
357(10) 0.00888 345.3 11.1
349(10) 0.00929 345.2 10.4
372(10) 0.00885 345.2 9.8
377(10) 0.00907 345.1 9.2
366(10) 0.00890 345.0 8.6
348(10) 0.00884 344.9 8.0
333(10) 0.00951 344.8 7.6
361(10) 0.00914 344.7 7.1
378(10) 0.00901 344.7 6.7
352(10) 0.00897 344.6 6.4
351(10) 0.00852 344.6 6.0
335(10) 0.00951 344.5 5.8
341(10) 0.00985 344.5 5.5
346(10) 0.00987 344.4 5.3
332(10) 0.00935 344.4 5.1
325(10) 0.00926 344.3 4.9
355(10) 0.00879 344.2 4.8
365(10) 0.00918 344.2 4.7
350(10) 0.00974 344.1 4.6
350(10) 0.00904 344.1 4.5
335(10) 0.00877 344.0 4.5
328(10) 0.00956 344.0 4.4
340(10) 0.00988 343.9 4.4
341(10) 0.00990 343.9 4.4
341(10) 0.00954 343.8 4.4
365(11) 0.00804 343.8 4.4
339(10) 0.00940 343.7 4.4
348(10) 0.00982 343.7 4.5
327(10) 0.01007 343.6 4.5
351(10) 0.00915 343.6 4.6
338(10) 0.00905 343.5 4.7
330(10) 0.00955 343.5 4.7
346(10) 0.00990 343.4 4.8
339(10) 0.01002 343.3 4.9
337(10) 0.00978 343.3 5.0
360(10) 0.00851 343.2 5.2
337(10) 0.00956 343.2 5.3
368(10) 0.00917 343.1 5.4
337(10) 0.00996 343.1 5.6
351(10) 0.00912 343.0 5.8
336(10) 0.00956 343.0 5.9
352(10) 0.00946 342.9 6.1
351(10) 0.00965 342.9 6.3
320(10) 0.01005 342.8 6.5
353(10) 0.00892 342.8 6.7
369(10) 0.00865 342.7 7.0
375(10) 0.00883 342.7 7.2
360(10) 0.00946 342.6 7.4
336(10) 0.00961 342.6 7.7
336(10) 0.00930 342.5 7.9
355(10) 0.00857 342.4 8.1
354(10) 0.00907 342.4 8.3
330(9) 0.01019 342.3 8.6
344(10) 0.00929 342.3 8.8
351(10) 0.00894 342.2 8.9
343(10) 0.00902 342.2 9.1
328(9) 0.01012 342.1 9.3
362(10) 0.00930 342.1 9.4
326(10) 0.00994 342.0 9.5
365(10) 0.00854 342.0 9.5
350(10) 0.00939 341.9 9.6
349(10) 0.00937 341.9 9.6
348(10) 0.00977 341.8 9.5
363(10) 0.00898 341.8 9.5
334(10) 0.00940 341.7 9.4
384(11) 0.00836 341.7 9.3
359(10) 0.00943 341.6 9.2
348(10) 0.00965 341.5 9.1
327(10) 0.00994 341.5 9.0
321(10) 0.00947 341.4 8.9
348(10) 0.00915 341.4 8.8
358(10) 0.00941 341.3 8.7
349(10) 0.00979 341.3 8.6
343(10) 0.00926 341.2 8.5
348(11) 0.00830 341.2 8.4
332(10) 0.00964 341.1 8.4
326(9) 0.01015 341.1 8.3
322(9) 0.01044 341.0 8.3
343(10) 0.00933 341.0 8.2
363(11) 0.00829 340.9 8.2
345(10) 0.00940 340.9 8.2
341(10) 0.01001 340.8 8.3
359(10) 0.00928 340.8 8.3
360(10) 0.00881 340.7 8.4
315(10) 0.00937 340.6 8.5
313(10) 0.00970 340.6 8.6
350(10) 0.00966 340.5 8.7
354(10) 0.00932 340.5 8.8
357(10) 0.00872 340.4 9.0
345(10) 0.00891 340.4 9.2
328(10) 0.00983 340.3 9.4
339(10) 0.00999 340.3 9.6
359(10) 0.00925 340.2 9.9
365(10) 0.00872 340.2 10.1
346(10) 0.00889 340.1 10.4
349(10) 0.00903 340.1 10.7
352(10) 0.00965 340.0 11.1
349(10) 0.00944 340.0 11.4
351(10) 0.00911 339.9 11.8
339(10) 0.00941 339.9 12.3
359(10) 0.00916 339.8 12.8
381(10) 0.00892 339.8 13.4
333(10) 0.00960 339.7 14.0
322(10) 0.00965 339.6 14.7
359(10) 0.00888 339.6 15.5
365(10) 0.00887 339.5 16.3
364(10) 0.00930 339.5 17.3
345(10) 0.00933 339.4 18.3
359(11) 0.00814 339.4 19.5
346(10) 0.00873 339.3 20.8
361(10) 0.00920 339.3 22.2
375(10) 0.00906 339.2 23.7
372(10) 0.00863 339.2 25.4
362(10) 0.00856 339.1 27.3
358(10) 0.00910 339.1 29.4
350(10) 0.00976 339.0 31.6
361(10) 0.00941 339.0 34.0
371(10) 0.00859 338.9 36.7
367(10) 0.00844 338.9 39.5
387(11) 0.00830 338.8 42.6
388(10) 0.00879 338.7 45.9
381(10) 0.00907 338.7 49.3
409(11) 0.00793 338.6 53.0
443(12) 0.00690 338.6 56.9
406(11) 0.00827 338.5 60.9
417(11) 0.00810 338.5 65.0
441(11) 0.00783 338.4 69.2
441(11) 0.00715 338.4 73.3
443(12) 0.00663 338.3 77.4
439(11) 0.00740 338.3 81.3
441(11) 0.00776 338.2 84.9
422(11) 0.00827 338.2 88.1
462(12) 0.00688 338.1 90.8
471(12) 0.00641 338.1 92.8
398(11) 0.00816 338.0 94.2
447(11) 0.00770 338.0 94.8
431(11) 0.00801 337.9 94.7
444(11) 0.00736 337.8 93.9
421(11) 0.00750 337.8 92.4
436(11) 0.00738 337.7 90.5
433(11) 0.00792 337.7 88.1
415(11) 0.00806 337.6 85.4
421(11) 0.00743 337.6 82.5
396(11) 0.00810 337.5 79.5
431(11) 0.00766 337.5 76.3
446(11) 0.00778 337.4 73.2
397(10) 0.00847 337.4 70.1
429(11) 0.00726 337.3 67.0
403(11) 0.00799 337.3 64.0
403(11) 0.00825 337.2 61.0
409(11) 0.00837 337.2 58.2
406(11) 0.00816 337.1 55.4
404(11) 0.00794 337.1 52.7
402(11) 0.00791 337.0 50.1
408(11) 0.00808 336.9 47.6
387(10) 0.00878 336.9 45.2
397(11) 0.00819 336.8 42.8
378(10) 0.00839 336.8 40.6
369(10) 0.00873 336.7 38.5
402(10) 0.00843 336.7 36.2
425(11) 0.00815 336.6 34.2
388(10) 0.00839 336.6 32.4
346(10) 0.00883 336.5 30.6
379(10) 0.00843 336.5 29.0
356(10) 0.00964 336.4 27.4
381(10) 0.00895 336.4 25.9
348(10) 0.00909 336.3 24.5
384(11) 0.00777 336.3 23.2
366(10) 0.00865 336.2 21.9
357(10) 0.00938 336.2 20.8
367(10) 0.00939 336.1 19.7
367(10) 0.00895 336.0 18.6
372(11) 0.00835 336.0 17.7
359(10) 0.00914 335.9 16.8
369(10) 0.00913 335.9 15.9
365(10) 0.00933 335.8 15.1
388(11) 0.00814 335.8 14.4
346(10) 0.00887 335.7 13.6
366(10) 0.00883 335.7 13.0
345(10) 0.00990 335.6 12.4
339(10) 0.00981 335.6 11.8
318(10) 0.00982 335.5 11.2
349(10) 0.00847 335.5 10.7
348(10) 0.00921 335.4 10.2
348(10) 0.00978 335.4 9.8
339(10) 0.00990 335.3 9.3
335(10) 0.00951 335.3 8.9
351(10) 0.00867 335.2 8.5
343(10) 0.00938 335.1 8.2
341(10) 0.00994 335.1 7.9
345(10) 0.00939 335.0 7.6
337(10) 0.00934 335.0 7.3
342(10) 0.00905 334.9 7.0
365(10) 0.00867 334.9 6.7
335(10) 0.01002 334.8 6.5
334(10) 0.00959 334.8 6.2
341(10) 0.00937 334.7 6.0
331(10) 0.00957 334.7 5.8
341(10) 0.00942 334.6 5.6
339(9) 0.01008 334.6 5.4
328(10) 0.00965 334.5 5.3
349(10) 0.00893 334.5 5.1
336(10) 0.00916 334.4 5.0
307(9) 0.01083 334.4 4.8
365(10) 0.00930 334.3 4.7
356(10) 0.00894 334.3 4.5
349(10) 0.00901 334.2 4.4
338(10) 0.00942 334.1 4.3
331(9) 0.01023 334.1 4.2
367(10) 0.00930 334.0 4.0
342(10) 0.00933 334.0 3.9
321(10) 0.00962 333.9 3.8
345(10) 0.00895 333.9 3.7
313(9) 0.01054 333.8 3.6
349(10) 0.00979 333.8 3.5
329(10) 0.01001 333.7 3.5
348(10) 0.00911 333.7 3.4
338(10) 0.00957 333.6 3.3
334(10) 0.00992 333.6 3.2
338(10) 0.00998 333.5 3.1
355(10) 0.00902 333.5 3.1
347(10) 0.00881 333.4 3.0
356(10) 0.00896 333.4 2.9
324(9) 0.01010 333.3 2.9
321(9) 0.01043 333.2 2.8
325(10) 0.00995 333.2 2.7
329(10) 0.00907 333.1 2.7
326(10) 0.00926 333.1 2.6
331(9) 0.01011 333.0 2.6
323(9) 0.01038 333.0 2.5
369(10) 0.00855 332.9 2.5
342(10) 0.00892 332.9 2.4
308(9) 0.01048 332.8 2.4
331(10) 0.01007 332.8 2.3
347(10) 0.00956 332.7 2.3
318(10) 0.00989 332.7 2.2
359(11) 0.00824 332.6 2.2
336(10) 0.00941 332.6 2.2
340(10) 0.00969 332.5 2.1
309(9) 0.01096 332.5 2.1
352(10) 0.00864 332.4 2.0
329(10) 0.00943 332.3 2.0
335(10) 0.00938 332.3 2.0
339(10) 0.00989 332.2 1.9
310(9) 0.01081 332.2 1.9
329(10) 0.00962 332.1 1.9
330(10) 0.00934 332.1 1.8
323(10) 0.00981 332.0 1.8
334(9) 0.01020 332.0 1.8
341(10) 0.00942 331.9 1.8
341(10) 0.00929 331.9 1.7
371(10) 0.00840 331.8 1.7
333(10) 0.00979 331.8 1.7
358(10) 0.00947 331.7 1.7
348(10) 0.00915 331.7 1.6
351(10) 0.00867 331.6 1.6
329(10) 0.00960 331.6 1.6
325(10) 0.00990 331.5 1.6
319(9) 0.01052 331.4 1.5
324(10) 0.00952 331.4 1.5
346(10) 0.00869 331.3 1.5
351(10) 0.00914 331.3 1.5
338(10) 0.00992 331.2 1.4
327(9) 0.01036 331.2 1.4
324(10) 0.00976 331.1 1.4
333(10) 0.00906 331.1 1.4
337(10) 0.00952 331.0 1.4
329(9) 0.01019 331.0 1.4
327(9) 0.01021 330.9 1.3
317(9) 0.01033 330.9 1.3
352(10) 0.00842 330.8 1.3
330(9) 0.01008 330.8 1.3
326(9) 0.01026 330.7 1.3
318(9) 0.01073 330.7 1.3
315(9) 0.01013 330.6 1.2
331(10) 0.00923 330.5 1.2
349(10) 0.00920 330.5 1.2
334(9) 0.01021 330.4 1.7
351(10) 0.00954 330.4 1.7
353(10) 0.00873 330.3 1.7
330(10) 0.00905 330.3 1.7
333(10) 0.00975 330.2 1.6
342(10) 0.00993 330.2 1.6
329(9) 0.01017 330.1 1.6
362(10) 0.00883 330.1 1.6
355(10) 0.00862 330.0 1.6
333(10) 0.00937 330.0 1.6
331(9) 0.01020 329.9 1.6
351(10) 0.00971 329.9 1.6
330(10) 0.00980 329.8 1.6
334(10) 0.00926 329.8 1.6
327(10) 0.00921 329.7 1.6
317(9) 0.01066 329.6 1.6
341(10) 0.00958 329.6 1.6
340(10) 0.00950 329.5 1.6
329(10) 0.00952 329.5 1.6
325(10) 0.00965 329.4 1.6
339(9) 0.01012 329.4 1.6
326(10) 0.00970 329.3 1.5
320(10) 0.00991 329.3 1.5
339(10) 0.00926 329.2 1.5
332(10) 0.00955 329.2 1.5
327(9) 0.01044 329.1 1.5
348(10) 0.00935 329.1 1.5
337(10) 0.00927 329.0 1.5
368(10) 0.00846 329.0 1.5
324(9) 0.01032 328.9 1.5
328(9) 0.01019 328.9 1.5
364(10) 0.00862 328.8 1.5
355(10) 0.00861 328.8 1.5
334(10) 0.00952 328.7 1.5
328(9) 0.01023 328.6 1.5
309(9) 0.01069 328.6 1.5
318(10) 0.00999 328.5 1.5
342(10) 0.00887 328.6 1.5
336(10) 0.00955 328.6 1.5
329(9) 0.01035 328.6 1.5
344(10) 0.00979 328.7 1.5
357(10) 0.00883 328.7 1.5
345(10) 0.00877 328.7 1.6
351(10) 0.00892 328.7 1.6
324(9) 0.01050 328.8 1.6
352(10) 0.00954 328.8 1.6
347(10) 0.00943 328.8 2.1
336(10) 0.00899 328.9 2.1
332(10) 0.00976 328.9 2.1
344(10) 0.00998 328.9 2.2
333(9) 0.01016 329.0 2.2
347(10) 0.00922 329.0 2.2
336(10) 0.00901 329.0 2.2
331(10) 0.00978 329.1 2.2
347(10) 0.00983 329.1 2.2
338(10) 0.01001 329.1 2.3
320(10) 0.00983 329.2 2.3
340(10) 0.00851 329.2 2.3
331(10) 0.00954 329.2 2.3
349(10) 0.00981 329.3 2.3
331(10) 0.00980 329.3 2.4
328(10) 0.00930 329.3 2.4
318(10) 0.00937 329.3 2.4
315(9) 0.01017 329.4 2.4
353(10) 0.00962 329.4 2.4
352(10) 0.00907 329.4 2.5
334(10) 0.00936 329.5 2.5
342(10) 0.00909 329.5 2.5
344(10) 0.00939 329.5 2.6
333(9) 0.01027 329.6 2.6
342(10) 0.00939 329.6 2.6
345(10) 0.00918 329.6 2.6
330(10) 0.00942 329.7 2.7
348(10) 0.00919 329.7 2.7
337(10) 0.00994 329.7 2.8
331(10) 0.01001 329.8 2.8
342(10) 0.00938 329.8 2.8
327(10) 0.00996 329.8 2.9
342(10) 0.00951 329.9 2.9
345(10) 0.00975 329.9 3.0
347(10) 0.00917 329.9 3.0
338(10) 0.00917 329.9 3.1
358(10) 0.00901 330.0 3.1
337(10) 0.00973 330.0 3.2
325(9) 0.01038 330.0 3.2
327(10) 0.00965 330.1 3.3
326(10) 0.00907 330.1 3.3
328(10) 0.00953 330.1 3.4
357(10) 0.00911 330.2 3.5
347(10) 0.00988 330.2 3.6
335(10) 0.00945 330.2 3.6
327(10) 0.00907 330.3 3.7
335(10) 0.00930 330.3 3.8
346(10) 0.00951 330.3 3.9
328(9) 0.01020 330.4 4.0
322(10) 0.01006 330.4 4.2
333(10) 0.00884 330.4 4.3
335(10) 0.00977 330.5 4.4
350(10) 0.00964 330.5 4.6
333(10) 0.01006 330.5 4.7
346(10) 0.00891 330.5 4.9
341(10) 0.00906 330.6 5.1
353(10) 0.00912 330.6 5.2
341(10) 0.00995 330.6 5.4
338(10) 0.00974 330.7 5.7
333(10) 0.00956 330.7 5.9
362(11) 0.00833 330.7 6.2
340(10) 0.00952 330.8 6.4
319(9) 0.01057 330.8 6.7
345(10) 0.00954 330.8 6.9
332(10) 0.00988 330.9 7.2
346(10) 0.00873 330.9 7.4
354(10) 0.00912 330.9 7.7
368(10) 0.00923 331.0 7.9
328(10) 0.00974 331.0 8.1
339(10) 0.00911 331.0 8.3
326(10) 0.00951 331.1 8.4
324(10) 0.00960 331.1 8.5
334(9) 0.01015 331.1 8.6
331(10) 0.00966 331.1 8.7
329(10) 0.00930 331.2 8.7
332(10) 0.00921 331.2 8.8
328(10) 0.00950 331.2 8.8
342(10) 0.00986 331.3 8.8
368(10) 0.00866 331.3 8.8
327(10) 0.00966 331.3 8.8
341(10) 0.00933 331.4 8.9
336(10) 0.00980 331.4 8.9
341(10) 0.00984 331.4 9.0
371(10) 0.00855 331.5 9.1
343(10) 0.00921 331.5 9.3
372(11) 0.00837 331.5 9.4
336(10) 0.00992 331.6 9.6
335(10) 0.01004 331.6 9.8
340(10) 0.00921 331.6 10.0
324(10) 0.00927 331.7 10.3
350(10) 0.00883 331.7 10.6
345(10) 0.00980 331.7 11.0
355(10) 0.00956 331.7 11.4
355(10) 0.00877 331.8 11.8
335(10) 0.00924 331.8 12.3
371(10) 0.00858 331.8 12.8
331(10) 0.01003 331.9 13.4
342(10) 0.00991 331.9 14.0
343(10) 0.00932 331.9 14.7
351(10) 0.00847 332.0 15.5
364(10) 0.00878 332.0 16.6
357(10) 0.00956 332.0 17.5
348(10) 0.00974 332.1 18.6
367(10) 0.00878 332.1 19.9
358(11) 0.00832 332.1 21.3
376(10) 0.00840 332.2 22.8
338(10) 0.01005 332.2 24.6
364(10) 0.00926 332.2 26.7
364(10) 0.00873 332.3 29.0
371(11) 0.00804 332.3 31.7
368(10) 0.00897 332.3 34.9
398(10) 0.00859 332.3 38.6
404(11) 0.00832 332.4 43.1
415(11) 0.00782 332.4 48.5
437(12) 0.00696 332.4 55.4
431(11) 0.00747 332.5 64.3
439(11) 0.00787 332.5 76.9
451(11) 0.00736 332.5 95.5
499(12) 0.00623 332.6 124.4
547(13) 0.00589 332.6 169.4
614(13) 0.00531 332.6 238.5
705(14) 0.00502 332.7 338.8
821(15) 0.00413 332.7 475.8
888(16) 0.00375 332.7 647.2
1103(18) 0.002924 332.8 840.8
1329(20) 0.002474 332.8 1028.8
1563(20) 0.002330 332.8 1164.7
1698(22) 0.001988 332.9 1199.5
1626(22) 0.002026 332.9 1118.1
1326(20) 0.002505 332.9 954.4
966(16) 0.00362 332.9 759.8
821(15) 0.00429 333.0 573.6
662(14) 0.00496 333.0 416.2
591(13) 0.00535 333.0 295.6
541(13) 0.00598 333.1 209.8
500(12) 0.00666 333.1 152.3
449(11) 0.00771 333.1 115.4
429(11) 0.00757 333.2 92.0
393(11) 0.00783 333.2 76.9
400(11) 0.00780 333.2 66.7
398(10) 0.00852 333.3 59.3
390(10) 0.00879 333.3 53.8
388(11) 0.00828 333.3 49.4
393(11) 0.00772 333.4 46.0
402(11) 0.00803 333.4 43.2
373(10) 0.00928 333.4 41.0
395(10) 0.00861 333.5 39.2
357(10) 0.00936 333.5 37.9
367(11) 0.00828 333.5 36.8
356(10) 0.00886 333.5 36.1
360(10) 0.00940 333.6 35.6
390(10) 0.00869 333.6 35.3
355(10) 0.00923 333.6 35.3
379(11) 0.00788 333.7 35.5
379(10) 0.00840 333.7 35.9
374(10) 0.00910 333.7 36.5
355(10) 0.00953 333.8 37.3
361(10) 0.00891 333.8 38.3
363(10) 0.00860 333.8 39.5
373(10) 0.00878 333.9 40.9
377(10) 0.00917 333.9 42.6
389(10) 0.00870 333.9 44.6
358(10) 0.00900 334.0 46.9
384(11) 0.00788 334.0 49.5
353(10) 0.00898 334.0 52.6
388(10) 0.00881 334.1 56.1
403(11) 0.00839 334.1 60.3
375(10) 0.00856 334.1 65.2
393(11) 0.00792 334.1 71.0
414(11) 0.00769 334.2 78.0
421(11) 0.00815 334.2 86.5
428(11) 0.00784 334.2 96.8
447(11) 0.00733 334.3 109.4
442(11) 0.00719 334.3 124.7
463(12) 0.00698 334.3 143.3
502(12) 0.00697 334.4 165.8
510(12) 0.00643 334.4 192.7
520(12) 0.00614 334.4 224.7
563(13) 0.00567 334.5 261.9
608(13) 0.00546 334.5 304.7
638(13) 0.00553 334.5 353.0
720(14) 0.00467 334.6 405.9
777(15) 0.00423 334.6 462.4
860(16) 0.00390 334.6 519.9
954(16) 0.00362 334.7 574.8
972(16) 0.00370 334.7 622.3
1017(17) 0.003263 334.7 656.5
981(17) 0.003305 334.7 672.6
925(16) 0.00361 334.8 667.8
894(16) 0.00396 334.8 643.0
859(15) 0.00417 334.8 602.2
800(15) 0.00413 334.9 550.9
762(15) 0.00420 334.9 494.5
722(14) 0.00471 334.9 437.6
688(14) 0.00510 335.0 383.0
643(13) 0.00556 335.0 332.7
589(13) 0.00566 335.0 287.6
567(13) 0.00548 335.1 248.1
567(13) 0.00568 335.1 214.2
543(12) 0.00632 335.1 185.8
526(12) 0.00657 335.2 162.2
491(12) 0.00673 335.2 143.3
493(12) 0.00624 335.2 128.5
499(12) 0.00667 335.3 117.8
464(11) 0.00744 335.3 111.5
485(11) 0.00714 335.3 110.7
486(12) 0.00689 335.3 117.4
483(12) 0.00661 335.4 134.5
522(12) 0.00641 335.4 164.9
550(12) 0.00636 335.4 210.1
609(13) 0.00570 335.5 268.3
692(14) 0.00482 335.5 332.0
793(15) 0.00407 335.5 387.2
880(16) 0.00383 335.6 413.9
834(15) 0.00430 335.6 398.6
734(14) 0.00463 335.6 347.3
636(14) 0.00511 335.7 279.4
528(12) 0.00607 335.7 211.8
455(11) 0.00710 335.7 154.7
462(11) 0.00748 335.8 111.4
451(11) 0.00739 335.8 81.5
432(11) 0.00737 335.8 62.3
405(11) 0.00779 335.9 50.2
369(10) 0.00869 335.9 42.7
392(10) 0.00877 335.9 37.6
387(11) 0.00837 335.9 33.9
359(10) 0.00903 336.0 31.1
347(10) 0.00916 336.0 28.7
338(10) 0.00964 336.0 26.8
353(10) 0.00968 336.1 25.0
363(10) 0.00898 336.1 23.5
370(10) 0.00851 336.1 22.2
359(10) 0.00907 336.2 21.0
378(10) 0.00881 336.2 20.0
351(10) 0.00968 336.2 19.0
366(10) 0.00895 336.3 18.1
359(10) 0.00866 336.3 17.4
363(10) 0.00875 336.3 16.6
344(10) 0.00969 336.4 16.0
353(10) 0.00960 336.4 15.4
352(10) 0.00905 336.4 14.8
370(10) 0.00843 336.5 14.3
388(11) 0.00799 336.5 13.8
356(10) 0.00925 336.5 13.4
360(10) 0.00943 336.5 13.0
362(10) 0.00894 336.6 12.6
363(11) 0.00817 336.6 12.2
336(10) 0.00925 336.6 11.9
349(10) 0.00953 336.7 11.6
336(9) 0.01015 336.7 11.3
357(10) 0.00913 336.7 11.0
355(10) 0.00859 336.8 10.8
363(10) 0.00861 336.8 10.6
363(10) 0.00922 336.8 10.3
383(10) 0.00878 336.9 10.1
350(10) 0.00930 336.9 9.9
339(10) 0.00890 336.9 9.7
337(10) 0.00932 337.0 9.6
350(10) 0.00969 337.0 9.4
335(10) 0.00990 337.0 9.3
348(10) 0.00894 337.1 9.1
351(10) 0.00879 337.1 9.0
366(10) 0.00878 337.1 8.9
342(10) 0.00991 337.1 8.8
336(10) 0.00999 337.2 8.6
342(10) 0.00929 337.2 8.5
335(10) 0.00919 337.2 8.5
318(10) 0.00995 337.3 8.4
341(10) 0.00985 337.3 8.3
354(10) 0.00953 337.3 8.2
334(10) 0.00970 337.4 8.2
342(10) 0.00898 337.4 8.1
373(10) 0.00850 337.4 8.1
345(10) 0.00976 337.5 8.0
353(10) 0.00906 337.5 8.0
341(10) 0.00930 337.5 7.9
337(10) 0.00907 337.6 7.9
350(10) 0.00906 337.6 7.9
325(9) 0.01032 337.6 7.9
343(10) 0.00912 337.7 7.9
347(10) 0.00882 337.7 7.9
326(10) 0.00955 337.7 7.9
329(10) 0.01005 337.7 7.9
379(10) 0.00900 337.8 7.9
349(10) 0.00929 337.8 7.9
348(10) 0.00898 337.8 7.9
353(10) 0.00916 337.9 8.0
356(10) 0.00945 337.9 8.0
348(10) 0.00970 337.9 8.0
330(10) 0.00984 338.0 8.1
340(10) 0.00902 338.0 8.1
353(10) 0.00888 338.0 8.2
342(10) 0.00978 338.1 8.3
334(9) 0.01014 338.1 8.3
320(10) 0.00985 338.1 8.4
334(10) 0.00905 338.1 8.5
356(10) 0.00892 338.1 8.6
364(10) 0.00921 338.0 8.7
345(10) 0.00995 338.0 8.8
337(10) 0.00961 338.0 9.0
355(10) 0.00840 338.0 9.1
361(10) 0.00896 338.0 9.2
349(10) 0.00977 338.0 9.4
343(10) 0.00998 338.0 9.5
345(10) 0.00918 338.0 9.7
328(10) 0.00921 338.0 9.9
378(11) 0.00820 338.0 10.1
341(10) 0.00994 338.0 10.3
363(10) 0.00908 338.0 10.5
370(10) 0.00865 338.0 10.8
349(10) 0.00857 338.0 11.0
341(10) 0.00919 338.0 11.3
336(10) 0.00996 338.0 11.6
328(9) 0.01014 338.0 11.9
345(10) 0.00919 338.0 12.2
358(10) 0.00846 338.0 12.5
373(10) 0.00848 338.0 12.9
345(10) 0.00981 338.0 13.3
331(9) 0.01008 338.0 13.7
336(10) 0.00955 338.0 14.1
345(10) 0.00899 338.0 14.5
347(10) 0.00913 338.0 15.0
363(10) 0.00939 338.0 15.5
349(10) 0.00938 338.0 16.0
362(10) 0.00886 338.0 16.6
358(10) 0.00867 338.0 17.2
366(10) 0.00870 338.0 17.8
341(10) 0.00992 338.0 18.4
359(10) 0.00898 338.0 19.1
368(10) 0.00864 338.0 19.8
361(10) 0.00865 338.0 20.6
352(10) 0.00922 338.0 21.4
352(10) 0.00946 338.0 22.2
383(10) 0.00866 338.0 23.1
381(10) 0.00839 338.0 24.1
350(10) 0.00950 338.0 25.1
391(10) 0.00854 338.0 26.2
374(10) 0.00899 338.0 27.4
361(10) 0.00853 338.0 28.6
355(10) 0.00879 337.9 30.0
393(11) 0.00828 337.9 31.4
390(10) 0.00867 337.9 33.1
377(10) 0.00907 337.9 34.8
377(10) 0.00844 337.9 36.7
373(10) 0.00849 337.9 38.9
409(11) 0.00793 337.9 41.8
374(10) 0.00907 337.9 44.4
388(10) 0.00895 337.9 47.3
398(11) 0.00808 337.9 50.4
385(11) 0.00785 337.9 53.9
393(11) 0.00814 337.9 57.6
414(11) 0.00822 337.9 61.7
421(11) 0.00820 337.9 66.0
400(11) 0.00828 337.9 70.5
419(11) 0.00710 337.9 75.2
403(11) 0.00798 337.9 79.9
401(10) 0.00846 337.9 84.8
432(11) 0.00799 337.9 89.7
437(11) 0.00748 337.9 93.4
456(12) 0.00669 337.9 96.2
468(12) 0.00681 337.9 98.0
454(11) 0.00762 337.9 98.5
460(11) 0.00743 337.9 97.7
462(11) 0.00719 337.9 95.9
470(12) 0.00661 337.9 93.1
444(11) 0.00731 337.9 89.7
435(11) 0.00789 337.9 85.9
420(11) 0.00825 337.9 82.0
418(11) 0.00784 337.9 78.1
436(11) 0.00748 337.9 74.4
397(11) 0.00821 337.9 71.0
406(10) 0.00842 337.9 67.9
395(10) 0.00863 337.9 65.1
385(11) 0.00828 337.9 62.8
397(11) 0.00790 337.9 60.8
421(11) 0.00766 337.9 59.2
415(11) 0.00830 337.9 58.0
401(11) 0.00823 337.9 57.2
407(11) 0.00777 337.9 56.8
391(11) 0.00807 337.9 56.8
395(11) 0.00821 337.9 57.3
408(10) 0.00844 337.8 58.2
426(11) 0.00784 337.8 59.7
432(11) 0.00742 337.8 61.7
442(11) 0.00714 337.8 64.4
415(11) 0.00796 337.8 67.9
425(11) 0.00808 337.8 72.1
400(11) 0.00818 337.8 77.3
419(11) 0.00782 337.8 83.5
445(11) 0.00736 337.8 90.8
482(12) 0.00700 337.8 99.3
493(11) 0.00710 337.8 109.1
470(12) 0.00690 337.8 120.3
471(12) 0.00664 337.8 132.8
479(12) 0.00685 337.8 146.6
485(12) 0.00699 337.8 161.5
517(12) 0.00681 337.8 177.4
514(12) 0.00649 337.8 193.8
541(13) 0.00591 337.8 210.1
574(13) 0.00578 337.8 225.5
570(13) 0.00603 337.8 239.0
602(13) 0.00584 337.8 249.5
574(13) 0.00582 337.8 255.9
632(14) 0.00482 337.8 257.4
621(13) 0.00535 337.8 254.0
652(13) 0.00546 337.8 245.9
609(13) 0.00576 337.8 233.9
597(13) 0.00545 337.8 219.2
565(13) 0.00554 337.8 202.8
544(13) 0.00605 337.8 185.7
542(12) 0.00652 337.8 168.7
475(11) 0.00727 337.8 152.4
473(12) 0.00690 337.8 136.9
462(12) 0.00671 337.8 122.7
432(11) 0.00739 337.8 109.8
422(11) 0.00810 337.8 98.2
422(11) 0.00812 337.8 87.9
445(11) 0.00726 337.8 78.9
412(11) 0.00762 337.8 71.0
403(11) 0.00772 337.8 64.2
391(10) 0.00866 337.8 58.3
370(10) 0.00895 337.8 53.2
385(11) 0.00821 337.8 48.9
386(11) 0.00823 337.8 45.3
392(11) 0.00831 337.7 42.1
358(10) 0.00956 337.7 39.5
383(10) 0.00865 337.7 37.2
349(10) 0.00917 337.7 35.2
359(10) 0.00866 337.7 33.6
342(10) 0.00944 337.7 32.2
371(10) 0.00926 337.7 30.9
369(10) 0.00871 337.7 29.9
338(10) 0.00952 337.7 29.0
362(10) 0.00866 337.7 28.2
357(10) 0.00931 337.7 27.6
359(10) 0.00947 337.7 27.1
371(10) 0.00862 337.7 26.7
377(11) 0.00812 337.7 26.4
372(10) 0.00842 337.7 26.2
366(10) 0.00904 337.7 26.1
382(10) 0.00889 337.7 26.1
356(10) 0.00903 337.7 26.2
357(10) 0.00845 337.7 26.4
371(10) 0.00846 337.7 26.7
361(10) 0.00925 337.7 27.1
372(10) 0.00925 337.7 27.7
382(10) 0.00848 337.7 28.4
368(11) 0.00837 337.7 29.3
363(10) 0.00878 337.7 30.4
407(10) 0.00842 337.7 31.7
378(10) 0.00907 337.7 33.4
366(10) 0.00903 337.7 35.4
380(11) 0.00795 337.7 38.0
386(11) 0.00803 337.7 41.4
377(10) 0.00902 337.7 45.7
395(10) 0.00876 337.7 51.1
383(10) 0.00843 337.7 57.8
370(11) 0.00811 337.7 65.7
370(10) 0.00878 337.7 74.6
424(11) 0.00812 337.7 84.6
438(11) 0.00777 337.7 97.1
457(11) 0.00715 337.7 113.2
474(12) 0.00641 337.7 136.1
504(12) 0.00629 337.7 168.7
576(12) 0.00614 337.7 213.4
600(13) 0.00578 337.7 271.8
698(14) 0.00475 337.6 344.0
831(16) 0.00381 337.6 428.1
955(17) 0.00354 337.6 518.4
1085(17) 0.003333 337.6 604.7
1242(19) 0.002806 337.6 671.1
1269(19) 0.002642 337.6 699.9
1147(18) 0.002904 337.6 681.7
1101(18) 0.003074 337.6 622.7
948(16) 0.00379 337.6 539.4
866(16) 0.00401 337.6 448.4
787(15) 0.00418 337.6 361.8
727(15) 0.00440 337.6 285.6
643(13) 0.00533 337.6 222.7
594(13) 0.00593 337.6 173.1
545(12) 0.00620 337.6 135.5
534(13) 0.00604 337.6 107.9
469(12) 0.00706 337.6 88.0
451(11) 0.00731 337.6 73.8
449(11) 0.00768 337.6 63.5
445(11) 0.00740 337.6 55.9
459(12) 0.00691 337.6 50.1
475(12) 0.00676 337.6 45.6
461(11) 0.00738 337.6 41.9
403(10) 0.00853 337.6 38.9
406(11) 0.00795 337.6 36.3
412(11) 0.00746 337.6 34.2
413(11) 0.00761 337.6 32.4
405(10) 0.00840 337.6 30.8
376(10) 0.00911 337.6 29.5
370(10) 0.00852 337.6 28.4
405(11) 0.00757 337.6 27.5
411(11) 0.00772 337.6 26.8
371(10) 0.00918 337.6 26.3
372(10) 0.00909 337.6 25.8
387(10) 0.00854 337.6 25.5
391(11) 0.00771 337.6 25.3
369(10) 0.00872 337.6 25.2
375(10) 0.00901 337.6 25.2
407(11) 0.00837 337.6 25.3
395(11) 0.00828 337.6 25.5
381(11) 0.00804 337.6 25.9
395(11) 0.00807 337.6 26.4
385(10) 0.00890 337.5 27.0
417(11) 0.00797 337.5 27.7
389(11) 0.00838 337.5 28.7
414(11) 0.00751 337.5 29.8
434(11) 0.00730 337.5 31.1
374(10) 0.00906 337.5 32.6
393(10) 0.00870 337.5 34.5
399(11) 0.00805 337.5 36.7
404(11) 0.00771 337.5 39.3
401(11) 0.00792 337.5 42.6
430(11) 0.00796 337.5 46.7
425(11) 0.00797 337.5 51.9
414(11) 0.00775 337.5 58.6
457(12) 0.00675 337.5 67.5
459(12) 0.00686 337.5 79.0
462(11) 0.00749 337.5 94.1
483(12) 0.00687 337.5 113.5
509(12) 0.00631 337.5 138.1
565(13) 0.00566 337.5 168.6
575(13) 0.00581 337.5 205.2
630(13) 0.00558 337.5 247.7
663(14) 0.00501 337.5 294.9
724(15) 0.00445 337.5 344.3
768(15) 0.00419 337.5 391.2
825(15) 0.00410 337.5 429.3
867(15) 0.00414 337.5 451.1
919(16) 0.00369 337.5 451.2
929(17) 0.003447 337.5 429.7
802(15) 0.00415 337.5 391.9
744(14) 0.00463 337.5 345.0
658(13) 0.00536 337.5 295.7
584(13) 0.00555 337.5 248.6
520(12) 0.00608 337.5 206.1
505(12) 0.00629 337.5 169.5
450(11) 0.00755 337.5 139.0
446(11) 0.00774 337.5 114.4
417(11) 0.00771 337.5 95.1
418(11) 0.00716 337.5 80.0
386(10) 0.00848 337.5 68.6
403(10) 0.00855 337.5 59.9
426(11) 0.00813 337.5 53.3
403(11) 0.00783 337.5 48.2
410(11) 0.00732 337.5 44.2
398(11) 0.00775 337.4 41.1
386(10) 0.00880 337.4 38.6
388(10) 0.00873 337.4 36.6
365(10) 0.00892 337.4 34.9
395(11) 0.00787 337.4 33.6
407(11) 0.00808 337.4 32.5
381(10) 0.00902 337.4 31.7
386(10) 0.00878 337.4 31.1
376(10) 0.00842 337.4 30.7
359(11) 0.00824 337.4 30.5
381(11) 0.00833 337.4 30.5
375(10) 0.00894 337.4 30.7
371(10) 0.00884 337.4 31.1
366(10) 0.00884 337.4 31.6
374(10) 0.00843 337.4 32.4
389(11) 0.00816 337.4 33.5
372(10) 0.00916 337.4 34.8
377(10) 0.00888 337.4 36.4
394(11) 0.00810 337.4 38.4
400(11) 0.00786 337.4 40.9
378(10) 0.00867 337.4 44.0
379(10) 0.00904 337.4 48.0
398(11) 0.00824 337.4 53.2
410(11) 0.00786 337.4 60.1
423(11) 0.00755 337.4 69.5
436(11) 0.00747 337.4 82.5
422(11) 0.00816 337.4 100.3
445(11) 0.00749 337.4 124.4
466(12) 0.00693 337.4 156.3
500(12) 0.00646 337.4 197.1
554(13) 0.00592 337.4 247.1
628(13) 0.00561 337.4 305.3
664(14) 0.00513 337.4 368.6
774(15) 0.00430 337.4 430.7
851(16) 0.00392 337.4 481.5
869(16) 0.00398 337.4 508.5
833(15) 0.00428 337.4 503.3
754(15) 0.00438 337.4 467.8
695(14) 0.00472 337.4 412.2
706(14) 0.00473 337.4 348.7
616(13) 0.00567 337.4 286.4
568(12) 0.00620 337.4 230.4
565(13) 0.00582 337.3 183.2
526(13) 0.00577 337.3 145.2
486(12) 0.00672 337.3 115.8
441(11) 0.00774 337.3 93.6
444(11) 0.00783 337.3 77.4
438(11) 0.00756 337.3 65.5
398(11) 0.00787 337.3 56.9
415(11) 0.00785 337.3 50.4
422(11) 0.00805 337.3 45.5
408(10) 0.00841 337.3 41.7
403(11) 0.00808 337.3 38.6
376(11) 0.00800 337.3 36.1
379(10) 0.00856 337.3 34.0
375(10) 0.00903 337.3 32.2
386(10) 0.00874 337.3 30.7
404(11) 0.00796 337.3 29.5
401(11) 0.00746 337.3 28.5
370(10) 0.00854 337.3 27.7
356(10) 0.00949 337.3 27.1
371(10) 0.00908 337.3 26.7
379(11) 0.00836 337.3 26.6
393(11) 0.00775 337.3 27.0
386(11) 0.00829 337.3 28.0
400(10) 0.00854 337.3 29.8
354(10) 0.00929 337.3 33.0
390(11) 0.00816 337.3 38.0
407(11) 0.00774 337.3 45.1
403(11) 0.00788 337.3 54.4
431(11) 0.00800 337.3 65.4
419(11) 0.00807 337.3 76.9
455(11) 0.00711 337.3 86.7
477(12) 0.00648 337.3 91.9
466(12) 0.00684 337.3 90.1
439(11) 0.00792 337.3 82.1
449(11) 0.00740 337.3 70.7
421(11) 0.00789 337.3 58.7
409(11) 0.00785 337.3 47.8
381(10) 0.00869 337.3 38.9
422(11) 0.00812 337.3 32.3
392(11) 0.00836 337.3 27.5
384(11) 0.00807 337.3 24.3
382(11) 0.00814 337.3 22.2
356(10) 0.00915 337.2 20.8
376(10) 0.00904 337.2 19.9
364(10) 0.00880 337.2 19.3
377(11) 0.00838 337.2 18.8
394(11) 0.00819 337.2 18.5
383(10) 0.00876 337.2 18.2
386(10) 0.00880 337.2 18.0
381(11) 0.00828 337.2 17.9
363(10) 0.00862 337.2 17.8
384(10) 0.00844 337.2 17.7
379(10) 0.00905 337.2 17.7
352(10) 0.00965 337.2 17.7
361(10) 0.00904 337.2 17.8
368(11) 0.00829 337.2 17.8
380(10) 0.00848 337.2 17.9
363(10) 0.00935 337.2 18.0
363(10) 0.00933 337.2 18.2
362(10) 0.00894 337.2 18.3
357(10) 0.00877 337.2 18.5
359(10) 0.00909 337.2 18.7
370(10) 0.00907 337.2 18.9
354(10) 0.00959 337.2 19.2
387(11) 0.00821 337.2 19.5
374(11) 0.00801 337.2 19.7
368(11) 0.00831 337.2 20.0
350(10) 0.00952 337.2 20.4
363(10) 0.00932 337.2 20.7
381(10) 0.00846 337.2 21.1
395(11) 0.00764 337.2 21.5
375(10) 0.00877 337.2 21.9
377(10) 0.00910 337.2 22.4
351(10) 0.00927 337.2 22.8
388(11) 0.00838 337.2 23.3
365(10) 0.00861 337.2 23.8
358(10) 0.00895 337.2 24.4
408(10) 0.00849 337.2 25.0
392(10) 0.00850 337.2 25.6
386(11) 0.00821 337.2 26.2
378(11) 0.00807 337.2 26.9
395(11) 0.00783 337.2 27.6
355(10) 0.00965 337.2 28.4
352(10) 0.00909 337.2 29.2
377(11) 0.00835 337.2 30.1
363(10) 0.00881 337.1 31.0
397(11) 0.00820 337.1 31.9
360(10) 0.00949 337.1 32.9
368(10) 0.00890 337.1 34.0
371(10) 0.00866 337.1 35.1
388(11) 0.00823 337.1 36.3
395(11) 0.00836 337.1 37.6
351(10) 0.00977 337.1 38.9
353(10) 0.00890 337.1 40.3
364(11) 0.00838 337.1 41.9
365(10) 0.00875 337.1 43.5
374(10) 0.00864 337.1 45.2
387(10) 0.00889 337.1 47.1
380(11) 0.00821 337.1 49.1
373(11) 0.00814 337.1 51.3
379(11) 0.00814 337.1 53.6
400(11) 0.00836 337.1 56.1
410(11) 0.00832 337.1 58.8
379(10) 0.00852 337.1 61.8
407(11) 0.00760 337.1 65.0
403(11) 0.00816 337.1 68.6
385(10) 0.00859 337.1 72.5
436(11) 0.00791 337.1 76.8
413(11) 0.00790 337.1 81.6
392(11) 0.00811 337.1 86.9
406(11) 0.00813 337.1 92.8
438(11) 0.00793 337.1 99.3
436(11) 0.00795 337.1 106.6
477(12) 0.00691 337.1 114.7
469(12) 0.00647 337.1 123.8
427(11) 0.00772 337.1 133.9
465(11) 0.00746 337.1 145.2
458(11) 0.00743 337.1 157.7
494(12) 0.00653 337.1 171.6
500(12) 0.00618 337.1 187.0
484(12) 0.00684 337.1 203.9
528(12) 0.00658 337.1 222.4
575(13) 0.00603 337.1 242.8
586(13) 0.00563 337.1 264.9
617(14) 0.00519 337.1 288.8
629(14) 0.00513 337.1 314.5
643(13) 0.00544 337.1 341.9
691(14) 0.00494 337.0 371.0
729(15) 0.00455 337.0 401.5
802(15) 0.00402 337.0 433.1
793(15) 0.00414 337.0 465.2
901(16) 0.00395 337.0 497.4
929(16) 0.00374 337.0 529.0
896(16) 0.00375 337.0 558.8
944(17) 0.003428 337.0 585.9
978(17) 0.003410 337.0 609.1
941(16) 0.00383 337.0 627.3
985(17) 0.003464 337.0 639.5
965(17) 0.003393 337.0 645.0
896(16) 0.00373 337.0 643.4
917(16) 0.00375 337.0 634.9
887(15) 0.00407 337.0 620.0
898(16) 0.00375 337.0 599.6
894(16) 0.00367 337.0 574.7
825(15) 0.00403 337.0 546.4
819(15) 0.00426 337.0 516.0
798(15) 0.00450 337.0 484.5
711(14) 0.00468 337.0 452.6
732(15) 0.00446 337.0 421.1
724(15) 0.00456 337.0 390.4
686(14) 0.00507 337.0 361.1
662(13) 0.00534 337.0 333.3
649(14) 0.00519 337.0 307.2
649(14) 0.00482 337.0 283.0
612(13) 0.00553 337.0 260.6
554(12) 0.00628 337.0 240.0
550(12) 0.00636 337.0 221.3
553(13) 0.00583 337.0 204.4
542(13) 0.00577 337.0 189.2
522(12) 0.00630 337.0 175.6
542(12) 0.00634 337.0 163.7
508(12) 0.00672 337.0 153.3
486(12) 0.00653 337.0 144.3
499(12) 0.00607 337.0 136.8
472(12) 0.00693 337.0 130.7
495(12) 0.00699 337.0 126.0
450(11) 0.00769 337.0 122.6
495(12) 0.00660 337.0 120.6
487(12) 0.00630 337.0 119.9
465(12) 0.00683 336.9 120.3
483(11) 0.00717 336.9 121.8
465(11) 0.00718 336.9 124.1
489(12) 0.00654 336.9 126.9
470(12) 0.00648 336.9 129.4
497(12) 0.00673 336.9 131.1
501(12) 0.00690 336.9 131.3
463(11) 0.00735 336.9 129.5
487(12) 0.00668 336.9 125.6
475(12) 0.00672 336.9 120.3
454(11) 0.00726 336.9 114.1
457(11) 0.00748 336.9 107.7
464(12) 0.00704 336.9 101.6
418(11) 0.00763 336.9 96.2
450(12) 0.00689 336.9 91.6
441(11) 0.00733 336.9 87.9
453(11) 0.00749 336.9 85.1
427(11) 0.00781 336.9 83.3
428(11) 0.00724 336.9 82.4
454(12) 0.00684 336.9 82.5
460(11) 0.00708 336.9 83.3
426(11) 0.00808 336.9 85.1
444(11) 0.00727 336.9 87.6
394(11) 0.00784 336.9 91.0
436(11) 0.00730 336.9 95.2
440(11) 0.00776 336.9 100.2
467(11) 0.00748 336.9 106.0
460(11) 0.00710 336.9 112.5
473(12) 0.00666 336.9 119.7
476(12) 0.00675 336.9 127.4
451(11) 0.00768 336.9 135.4
491(12) 0.00706 336.9 143.4
512(12) 0.00638 336.9 151.0
474(12) 0.00677 336.9 157.7
500(12) 0.00649 336.9 162.9
526(12) 0.00659 336.9 166.1
466(11) 0.00746 336.9 166.9
482(12) 0.00687 336.9 165.1
459(12) 0.00665 336.9 161.1
476(12) 0.00670 336.9 155.2
475(11) 0.00719 336.9 147.8
493(11) 0.00714 336.9 139.7
454(12) 0.00707 336.9 131.3
479(12) 0.00617 336.8 122.9
465(12) 0.00686 336.8 114.8
449(11) 0.00773 336.8 107.1
446(11) 0.00769 336.8 100.1
418(11) 0.00782 336.8 93.7
428(12) 0.00686 336.8 87.8
468(12) 0.00690 336.8 82.6
447(11) 0.00775 336.8 78.0
421(11) 0.00820 336.8 73.9
396(11) 0.00806 336.8 70.3
424(12) 0.00707 336.8 67.1
439(11) 0.00732 336.8 64.2
427(11) 0.00806 336.8 61.6
405(11) 0.00837 336.8 59.2
419(11) 0.00770 336.8 57.0
426(11) 0.00729 336.8 54.9
408(11) 0.00797 336.8 53.0
397(10) 0.00871 336.8 51.2
407(11) 0.00806 336.8 49.4
396(11) 0.00794 336.8 47.7
377(10) 0.00854 336.8 46.0
402(11) 0.00806 336.8 44.4
405(10) 0.00839 336.8 42.8
395(11) 0.00823 336.8 41.2
391(11) 0.00803 336.8 39.7
380(10) 0.00840 336.8 38.2
398(11) 0.00797 336.8 36.8
404(10) 0.00851 336.8 35.4
394(11) 0.00800 336.8 34.1
386(11) 0.00837 336.8 32.8
398(11) 0.00794 336.8 31.6
388(10) 0.00847 336.8 30.5
371(10) 0.00917 336.8 29.4
386(11) 0.00826 336.8 28.3
354(10) 0.00906 336.8 27.3
380(10) 0.00861 336.8 26.4
382(10) 0.00876 336.8 25.5
351(10) 0.00967 336.8 24.6
381(11) 0.00836 336.8 23.8
393(11) 0.00804 336.8 23.1
359(10) 0.00906 336.8 22.4
356(10) 0.00929 336.8 21.7
388(10) 0.00878 336.7 21.1
392(11) 0.00815 336.7 20.5
365(10) 0.00839 336.7 19.9
362(10) 0.00901 336.7 19.4
394(10) 0.00848 336.7 18.9
390(10) 0.00887 336.7 18.5
364(10) 0.00881 336.7 18.1
374(11) 0.00791 336.7 17.7
353(10) 0.00898 336.7 17.4
373(10) 0.00917 336.7 17.0
383(10) 0.00894 336.7 16.7
373(10) 0.00853 336.7 16.5
373(11) 0.00796 336.7 16.2
369(10) 0.00871 336.7 16.0
372(10) 0.00924 336.7 15.8
373(10) 0.00904 336.7 15.6
355(10) 0.00901 336.7 15.4
337(10) 0.00899 336.7 15.3
350(10) 0.00917 336.7 15.2
361(10) 0.00945 336.7 15.1
376(10) 0.00885 336.7 15.0
360(10) 0.00860 336.7 15.0
361(10) 0.00870 336.7 14.9
412(11) 0.00793 336.7 14.9
380(10) 0.00900 336.7 14.9
387(10) 0.00852 336.7 15.0
397(11) 0.00814 336.7 15.0
394(11) 0.00784 336.7 15.1
376(10) 0.00863 336.7 15.2
376(10) 0.00918 336.7 15.4
353(10) 0.00935 336.7 15.6
370(10) 0.00866 336.7 15.8
382(11) 0.00825 336.7 16.0
363(10) 0.00906 336.7 16.3
392(10) 0.00871 336.7 16.7
385(11) 0.00838 336.7 17.1
370(10) 0.00867 336.7 17.6
368(10) 0.00860 336.7 18.1
383(10) 0.00855 336.7 18.8
399(10) 0.00863 336.7 19.5
361(10) 0.00871 336.7 20.4
348(10) 0.00890 336.7 21.3
372(11) 0.00820 336.7 22.5
335(10) 0.00986 336.6 23.7
399(10) 0.00870 336.6 25.2
395(11) 0.00815 336.6 26.8
390(11) 0.00818 336.6 28.7
379(10) 0.00839 336.6 30.8
372(10) 0.00889 336.6 33.1
388(10) 0.00883 336.6 35.7
365(10) 0.00853 336.6 38.5
402(11) 0.00739 336.6 41.7
400(11) 0.00798 336.6 45.1
396(10) 0.00862 336.6 48.7
401(10) 0.00859 336.6 52.6
426(11) 0.00757 336.6 56.7
398(11) 0.00780 336.6 61.0
416(11) 0.00789 336.6 65.3
431(11) 0.00788 336.6 69.6
451(11) 0.00775 336.6 73.8
446(11) 0.00735 336.6 77.6
437(11) 0.00719 336.6 80.9
466(12) 0.00685 336.6 83.5
461(11) 0.00753 336.6 85.3
480(11) 0.00722 336.6 86.0
469(12) 0.00698 336.6 85.8
451(12) 0.00670 336.6 84.5
428(11) 0.00741 336.6 82.2
457(11) 0.00757 336.6 79.2
427(11) 0.00807 336.6 75.6
453(11) 0.00730 336.6 71.6
465(12) 0.00667 336.6 67.3
424(11) 0.00763 336.6 62.9
422(11) 0.00808 336.6 58.5
390(10) 0.00868 336.6 54.3
379(10) 0.00853 336.6 50.2
407(11) 0.00748 336.6 46.4
392(11) 0.00829 336.6 42.9
391(10) 0.00872 336.6 39.6
363(10) 0.00901 336.6 36.5
368(10) 0.00856 336.6 33.8
385(11) 0.00813 336.6 31.3
374(10) 0.00852 336.6 29.0
377(10) 0.00907 336.6 27.0
374(10) 0.00885 336.6 25.2
367(10) 0.00863 336.5 23.6
374(11) 0.00823 336.5 22.2
347(10) 0.00928 336.5 21.0
344(10) 0.00973 336.5 19.9
365(10) 0.00886 336.5 19.0
370(10) 0.00874 336.5 18.2
392(11) 0.00795 336.5 17.4
370(10) 0.00880 336.5 16.8
384(10) 0.00889 336.5 16.3
367(10) 0.00867 336.5 15.9
378(11) 0.00835 336.5 15.5
354(10) 0.00936 336.5 15.2
376(10) 0.00893 336.5 14.9
365(10) 0.00935 336.5 14.7
374(10) 0.00842 336.5 14.5
357(10) 0.00850 336.5 14.4
393(11) 0.00798 336.5 14.4
362(10) 0.00925 336.5 14.3
349(10) 0.00976 336.5 14.4
383(11) 0.00821 336.5 14.5
358(10) 0.00850 336.5 14.6
342(10) 0.00947 336.5 14.8
360(10) 0.00953 336.5 15.0
355(10) 0.00932 336.5 15.3
323(10) 0.00973 336.5 15.6
357(11) 0.00820 336.5 16.0
361(10) 0.00908 336.5 16.5
368(10) 0.00932 336.5 17.1
368(10) 0.00909 336.5 17.7
356(10) 0.00881 336.5 18.5
381(11) 0.00806 336.5 19.3
366(10) 0.00883 336.5 20.2
356(10) 0.00966 336.5 21.2
364(10) 0.00929 336.5 22.4
356(10) 0.00890 336.5 23.6
374(11) 0.00802 336.5 24.9
380(11) 0.00830 336.5 26.4
381(10) 0.00898 336.5 27.9
371(10) 0.00915 336.5 29.6
375(10) 0.00876 336.5 31.4
410(11) 0.00745 336.5 33.2
383(11) 0.00803 336.5 35.1
429(11) 0.00811 336.4 37.1
398(11) 0.00819 336.4 39.0
368(10) 0.00883 336.4 40.9
367(10) 0.00871 336.4 42.8
384(10) 0.00863 336.4 44.5
384(10) 0.00893 336.4 46.0
391(11) 0.00826 336.4 47.2
370(10) 0.00856 336.4 48.1
379(10) 0.00856 336.4 48.7
390(10) 0.00866 336.4 48.9
422(11) 0.00822 336.4 48.7
441(11) 0.00736 336.4 48.1
411(11) 0.00769 336.4 47.3
406(11) 0.00770 336.4 46.1
397(11) 0.00832 336.4 44.7
372(10) 0.00913 336.4 43.2
379(10) 0.00862 336.4 41.5
401(11) 0.00790 336.4 39.9
377(10) 0.00847 336.4 38.2
386(10) 0.00872 336.4 36.6
393(10) 0.00861 336.4 35.0
382(10) 0.00851 336.4 33.6
382(11) 0.00789 336.4 32.3
363(10) 0.00881 336.4 31.1
387(10) 0.00859 336.4 30.1
365(10) 0.00936 336.4 29.3
368(10) 0.00881 336.4 28.6
377(11) 0.00812 336.4 28.2
363(10) 0.00866 336.4 28.0
365(10) 0.00923 336.4 28.0
357(10) 0.00955 336.4 28.3
373(10) 0.00870 336.4 28.9
366(11) 0.00833 336.4 29.9
353(10) 0.00889 336.4 31.3
357(10) 0.00943 336.4 33.2
357(10) 0.00951 336.4 35.7
362(10) 0.00912 336.4 38.8
382(11) 0.00770 336.4 42.6
379(10) 0.00847 336.4 47.3
361(10) 0.00947 336.4 53.1
397(10) 0.00861 336.4 59.6
423(11) 0.00775 336.4 67.0
390(11) 0.00792 336.4 75.3
394(11) 0.00828 336.3 84.4
474(11) 0.00730 336.3 94.0
461(11) 0.00737 336.3 103.8
453(12) 0.00698 336.3 113.2
434(11) 0.00726 336.3 121.4
433(11) 0.00758 336.3 127.6
457(11) 0.00758 336.3 130.8
454(11) 0.00740 336.3 130.7
438(11) 0.00718 336.3 127.2
461(12) 0.00669 336.3 120.8
428(11) 0.00760 336.3 112.5
419(11) 0.00816 336.3 103.0
438(11) 0.00752 336.3 93.1
401(11) 0.00799 336.3 83.4
405(11) 0.00769 336.3 74.4
402(11) 0.00814 336.3 66.1
419(11) 0.00819 336.3 58.8
398(11) 0.00825 336.3 52.5
406(11) 0.00762 336.3 47.1
404(11) 0.00803 336.3 42.8
393(10) 0.00850 336.3 39.4
383(10) 0.00890 336.3 37.1
390(11) 0.00818 336.3 35.9
391(11) 0.00794 336.3 36.3
403(11) 0.00800 336.3 38.7
410(11) 0.00792 336.3 43.6
423(11) 0.00817 336.3 51.9
440(11) 0.00744 336.3 64.0
452(11) 0.00711 336.3 80.0
502(12) 0.00654 336.3 98.9
540(12) 0.00639 336.3 118.4
601(13) 0.00584 336.3 134.4
642(14) 0.00508 336.3 141.6
598(14) 0.00521 336.3 136.7
551(13) 0.00594 336.3 121.6
507(12) 0.00678 336.3 101.4
480(11) 0.00729 336.3 80.6
440(11) 0.00729 336.3 62.2
414(11) 0.00727 336.3 47.2
406(11) 0.00804 336.3 36.0
394(10) 0.00859 336.3 28.0
394(10) 0.00867 336.3 22.6
392(11) 0.00816 336.2 19.0
386(11) 0.00777 336.2 16.5
383(10) 0.00849 336.2 14.8
381(10) 0.00895 336.2 13.5
376(10) 0.00904 336.2 12.5
356(10) 0.00891 336.2 11.6
354(10) 0.00848 336.2 10.9
347(10) 0.00921 336.2 10.3
367(10) 0.00928 336.2 9.8
342(10) 0.00995 336.2 9.3
364(10) 0.00873 336.2 8.9
372(11) 0.00824 336.2 8.6
366(10) 0.00881 336.2 8.3
351(10) 0.00965 336.2 8.0
356(10) 0.00939 336.2 7.7
358(10) 0.00887 336.2 7.5
357(10) 0.00887 336.2 7.2
345(10) 0.00937 336.2 7.0
333(9) 0.01023 336.2 6.9
344(10) 0.00944 336.2 6.7
358(10) 0.00892 336.2 6.5
347(10) 0.00924 336.2 6.4
348(10) 0.00946 336.2 6.3
375(10) 0.00893 336.2 6.2
364(10) 0.00912 336.2 6.1
354(10) 0.00880 336.2 6.0
334(10) 0.00942 336.2 5.9
328(10) 0.00988 336.2 5.8
347(10) 0.00991 336.2 5.7
336(10) 0.00950 336.2 5.6
349(10) 0.00878 336.2 5.5
351(10) 0.00914 336.2 5.5
352(10) 0.00961 336.2 5.4
344(10) 0.00988 336.2 5.4
346(10) 0.00918 336.2 5.3
320(10) 0.00987 336.2 5.3
347(10) 0.00911 336.2 5.2
346(10) 0.00966 336.2 5.2
347(10) 0.00985 336.2 5.2
347(10) 0.00956 336.2 5.1
350(10) 0.00915 336.2 5.1
336(10) 0.00953 336.2 5.1
345(10) 0.00971 336.1 5.0
343(10) 0.00980 336.1 5.0
366(10) 0.00892 336.1 5.1
366(11) 0.00815 336.1 5.1
335(10) 0.00968 336.1 5.0
335(10) 0.01002 336.0 5.0
344(10) 0.01002 336.0 5.0
386(11) 0.00837 336.0 5.0
367(11) 0.00815 336.0 5.0
339(10) 0.00937 335.9 5.1
332(10) 0.01006 335.9 5.1
339(10) 0.00996 335.9 5.1
340(10) 0.00922 335.9 5.1
333(10) 0.00894 335.9 5.1
356(10) 0.00854 335.8 5.1
328(9) 0.01020 335.8 5.2
355(10) 0.00949 335.8 5.2
348(10) 0.00893 335.8 5.2
329(10) 0.00919 335.7 5.3
352(10) 0.00873 335.7 5.3
354(10) 0.00967 335.7 5.4
340(10) 0.00960 335.7 5.4
346(10) 0.00910 335.7 5.5
330(10) 0.00916 335.6 5.6
358(10) 0.00866 335.6 5.6
318(9) 0.01061 335.6 5.7
338(10) 0.00962 335.6 5.8
340(10) 0.00941 335.5 5.9
340(10) 0.00903 335.5 6.1
338(10) 0.00922 335.5 6.2
351(10) 0.00963 335.5 6.3
341(10) 0.00969 335.5 6.5
346(10) 0.00918 335.4 6.7
369(10) 0.00843 335.4 6.9
358(10) 0.00896 335.4 7.2
346(10) 0.00982 335.4 7.5
363(10) 0.00884 335.3 7.8
361(10) 0.00851 335.3 8.2
345(10) 0.00958 335.3 8.7
354(10) 0.00941 335.3 9.3
388(10) 0.00876 335.2 10.0
358(10) 0.00897 335.2 11.0
364(10) 0.00869 335.2 12.4
369(10) 0.00876 335.2 14.2
392(10) 0.00858 335.2 16.8
360(10) 0.00940 335.1 20.4
394(11) 0.00801 335.1 25.2
393(11) 0.00774 335.1 31.4
423(11) 0.00755 335.1 39.1
449(11) 0.00748 335.0 47.9
458(11) 0.00752 335.0 57.4
502(12) 0.00639 335.0 66.3
507(13) 0.00602 335.0 73.0
538(12) 0.00617 335.0 75.4
509(12) 0.00697 334.9 72.9
489(12) 0.00707 334.9 66.3
458(12) 0.00697 334.9 57.4
453(12) 0.00632 334.9 48.1
400(11) 0.00807 334.8 39.4
400(10) 0.00853 334.8 32.0
382(10) 0.00883 334.8 26.0
366(10) 0.00882 334.8 21.4
374(11) 0.00806 334.8 18.0
361(10) 0.00876 334.7 15.5
353(10) 0.00977 334.7 13.8
345(10) 0.00965 334.7 12.6
347(10) 0.00946 334.7 11.8
380(11) 0.00778 334.6 11.2
364(10) 0.00883 334.6 10.8
387(10) 0.00883 334.6 10.5
360(10) 0.00937 334.6 10.2
352(10) 0.00901 334.6 10.1
362(10) 0.00868 334.5 10.0
337(10) 0.00943 334.5 9.9
321(9) 0.01056 334.5 9.9
322(9) 0.01017 334.5 9.9
356(10) 0.00901 334.4 9.9
375(11) 0.00827 334.4 10.0
329(10) 0.00985 334.4 10.0
348(10) 0.00974 334.4 10.1
327(10) 0.00981 334.3 10.3
324(10) 0.00986 334.3 10.4
346(10) 0.00899 334.3 10.6
339(10) 0.00969 334.3 10.8
351(10) 0.00964 334.3 11.0
343(10) 0.00928 334.2 11.3
338(10) 0.00921 334.2 11.5
343(10) 0.00913 334.2 11.8
352(10) 0.00936 334.2 12.1
361(10) 0.00946 334.1 12.5
366(10) 0.00892 334.1 12.9
348(10) 0.00899 334.1 13.4
348(10) 0.00930 334.1 13.8
360(10) 0.00930 334.1 14.4
363(10) 0.00935 334.0 15.0
337(10) 0.00958 334.0 15.6
355(10) 0.00856 334.0 16.4
337(10) 0.00954 334.0 17.2
366(10) 0.00915 333.9 18.1
365(10) 0.00936 333.9 19.0
333(10) 0.00981 333.9 20.1
345(10) 0.00854 333.9 21.3
358(10) 0.00847 333.9 22.6
359(10) 0.00926 333.8 23.9
373(10) 0.00919 333.8 25.4
367(10) 0.00886 333.8 27.0
351(10) 0.00869 333.8 28.7
355(10) 0.00937 333.7 30.4
343(10) 0.00971 333.7 32.2
380(10) 0.00886 333.7 34.0
374(10) 0.00853 333.7 35.7
377(11) 0.00789 333.7 37.4
383(11) 0.00832 333.6 38.9
367(10) 0.00933 333.6 40.3
366(10) 0.00916 333.6 41.5
391(11) 0.00795 333.6 42.5
383(11) 0.00781 333.5 43.3
388(10) 0.00839 333.5 44.0
398(10) 0.00858 333.5 44.7
396(11) 0.00835 333.5 45.5
386(11) 0.00825 333.5 46.3
394(11) 0.00789 333.4 47.4
372(10) 0.00860 333.4 48.6
368(10) 0.00929 333.4 50.2
401(10) 0.00841 333.4 52.2
422(11) 0.00762 333.3 54.6
414(11) 0.00767 333.3 57.6
428(11) 0.00757 333.3 61.3
396(10) 0.00858 333.3 65.8
417(11) 0.00795 333.2 71.4
413(11) 0.00769 333.2 78.3
438(11) 0.00735 333.2 86.8
447(11) 0.00750 333.2 97.2
493(11) 0.00709 333.2 110.0
492(12) 0.00675 333.1 125.6
491(12) 0.00659 333.1 144.3
508(12) 0.00634 333.1 166.5
512(12) 0.00657 333.1 192.3
564(12) 0.00615 333.0 221.9
657(14) 0.00514 333.0 255.1
701(14) 0.00480 333.0 291.1
783(15) 0.00431 333.0 328.7
829(15) 0.00420 333.0 365.8
905(16) 0.00394 332.9 399.1
822(15) 0.00409 332.9 424.9
870(16) 0.00377 332.9 439.3
848(16) 0.00396 332.9 440.1
822(15) 0.00422 332.8 427.2
785(14) 0.00456 332.8 403.3
730(14) 0.00463 332.8 372.0
721(15) 0.00440 332.8 337.4
663(14) 0.00505 332.8 302.4
610(13) 0.00575 332.7 269.1
621(13) 0.00571 332.7 238.8
572(13) 0.00581 332.7 212.0
549(13) 0.00565 332.7 189.0
560(13) 0.00584 332.6 169.6
503(12) 0.00688 332.6 153.6
497(12) 0.00698 332.6 140.7
521(12) 0.00622 332.6 130.4
510(13) 0.00584 332.6 122.4
481(12) 0.00708 332.5 116.2
491(11) 0.00710 332.5 111.4
482(12) 0.00707 332.5 107.8
471(12) 0.00689 332.5 105.0
479(12) 0.00641 332.4 102.8
502(12) 0.00639 332.4 101.0
448(11) 0.00777 332.4 99.5
444(11) 0.00770 332.4 98.0
445(11) 0.00731 332.4 96.6
438(11) 0.00714 332.3 95.1
447(11) 0.00727 332.3 93.6
459(11) 0.00757 332.3 91.9
466(11) 0.00740 332.3 90.1
456(11) 0.00710 332.2 88.2
468(12) 0.00652 332.2 86.2
438(11) 0.00755 332.2 84.1
461(11) 0.00751 332.2 82.0
441(11) 0.00731 332.1 79.8
416(11) 0.00777 332.1 77.6
430(11) 0.00723 332.1 75.3
430(11) 0.00768 332.1 73.1
425(11) 0.00808 332.1 70.9
409(11) 0.00813 332.0 68.6
407(11) 0.00777 332.0 66.4
412(11) 0.00752 332.0 64.2
399(11) 0.00827 332.0 61.9
438(11) 0.00795 331.9 59.7
367(10) 0.00879 331.9 57.5
412(11) 0.00757 331.9 55.3
413(11) 0.00776 331.9 53.1
380(10) 0.00853 331.9 51.0
389(10) 0.00884 331.8 48.9
392(11) 0.00804 331.8 46.9
378(10) 0.00851 331.8 44.9
401(11) 0.00811 331.8 42.9
411(11) 0.00810 331.7 41.0
367(10) 0.00928 331.7 39.2
365(10) 0.00874 331.7 37.4
370(11) 0.00796 331.7 35.7
362(10) 0.00888 331.7 34.1
358(10) 0.00914 331.6 32.6
379(10) 0.00920 331.6 31.1
371(10) 0.00858 331.6 29.7
373(11) 0.00810 331.6 28.3
343(10) 0.00965 331.5 27.0
361(10) 0.00938 331.5 25.8
360(10) 0.00940 331.5 24.7
333(10) 0.00971 331.5 23.6
353(10) 0.00845 331.5 22.5
348(10) 0.00945 331.4 21.6
353(10) 0.00976 331.4 20.6
353(10) 0.00956 331.4 19.8
351(10) 0.00923 331.4 18.9
363(11) 0.00810 331.3 18.1
357(10) 0.00897 331.3 17.4
379(10) 0.00900 331.3 16.7
370(10) 0.00908 331.3 16.0
367(10) 0.00855 331.3 15.4
344(10) 0.00867 331.2 14.8
343(10) 0.00914 331.2 14.3
337(10) 0.01002 331.2 13.7
340(10) 0.00955 331.2 13.2
345(10) 0.00931 331.1 12.8
355(10) 0.00877 331.1 12.3
345(10) 0.00946 331.1 11.9
337(9) 0.01010 331.1 11.5
367(10) 0.00904 331.0 11.1
355(10) 0.00904 331.0 10.8
338(10) 0.00908 331.0 10.5
346(10) 0.00927 331.0 10.1
350(10) 0.00968 331.0 9.8
334(10) 0.00979 330.9 9.6
338(10) 0.00962 330.9 9.3
374(10) 0.00841 330.9 9.0
328(10) 0.00984 330.9 8.8
310(9) 0.01085 330.8 8.6
332(10) 0.00975 330.8 8.3
349(10) 0.00904 330.8 8.1
344(10) 0.00932 330.8 7.9
345(10) 0.00956 330.8 7.7
350(10) 0.00969 330.7 7.5
335(10) 0.00935 330.7 7.4
352(10) 0.00859 330.7 7.2
321(10) 0.00984 330.7 7.0
334(10) 0.00987 330.6 6.9
365(10) 0.00923 330.6 6.7
333(10) 0.00956 330.6 6.6
329(10) 0.00905 330.6 6.5
331(10) 0.00962 330.6 6.3
345(10) 0.00952 330.5 6.2
353(10) 0.00965 330.5 6.2
343(10) 0.00894 330.5 6.1
324(10) 0.00941 330.5 6.0
334(10) 0.00944 330.4 5.9
307(9) 0.01104 330.4 5.8
320(9) 0.01052 330.4 5.7
350(10) 0.00917 330.4 5.6
333(10) 0.00889 330.4 5.5
328(10) 0.00959 330.3 5.4
344(10) 0.00980 330.3 5.3
347(10) 0.00982 330.3 5.2
348(10) 0.00904 330.3 5.2
338(10) 0.00885 330.2 5.1
350(10) 0.00895 330.2 5.0
332(9) 0.01022 330.2 4.9
343(10) 0.00984 330.2 4.8
313(10) 0.01003 330.2 4.8
320(10) 0.00913 330.1 4.7
366(10) 0.00851 330.1 4.6
331(9) 0.01024 330.1 4.6
342(10) 0.00958 330.1 4.5
331(10) 0.00960 330.0 4.4
330(10) 0.00932 330.0 4.4
333(10) 0.00945 330.0 4.3
341(10) 0.00997 330.0 4.3
344(10) 0.00956 329.9 4.2
362(10) 0.00899 329.9 4.2
359(10) 0.00852 329.9 4.1
312(9) 0.01017 329.9 4.1
332(9) 0.01025 329.9 4.0
319(9) 0.01014 329.8 4.0
334(10) 0.00933 329.8 3.9
344(10) 0.00931 329.8 3.9
369(10) 0.00867 329.8 3.8
322(9) 0.01037 329.7 3.8
330(10) 0.00984 329.7 3.8
321(10) 0.00981 329.7 3.7
308(9) 0.01028 329.7 3.7
347(10) 0.00922 329.7 3.6
316(9) 0.01061 329.6 3.6
336(10) 0.00963 329.6 3.6
323(10) 0.00934 329.6 3.6
334(10) 0.00956 329.6 3.5
324(10) 0.00991 329.5 3.5
328(9) 0.01028 329.5 3.5
344(10) 0.00933 329.5 3.4
318(10) 0.00981 329.5 3.4
339(10) 0.00922 329.5 3.4
336(10) 0.00992 329.4 3.4
345(10) 0.00972 329.4 3.3
326(10) 0.00937 329.4 3.3
323(10) 0.00915 329.4 3.3
346(10) 0.00907 329.3 3.3
317(9) 0.01052 329.3 3.2
334(9) 0.01012 329.3 3.2
335(10) 0.00938 329.3 3.2
343(10) 0.00871 329.3 3.2
348(10) 0.00900 329.2 3.2
322(9) 0.01047 329.2 3.1
310(9) 0.01063 329.2 3.1
309(9) 0.01030 329.2 3.1
318(10) 0.00905 329.1 3.1
328(10) 0.00961 329.1 3.1
339(10) 0.01004 329.1 3.1
330(10) 0.01001 329.1 3.0
336(10) 0.00976 329.1 3.0
326(10) 0.00944 329.0 3.0
324(10) 0.00954 329.0 3.0
313(9) 0.01085 329.0 3.0
336(10) 0.00995 329.0 3.0
336(10) 0.00972 328.9 3.0
343(10) 0.00870 328.9 3.0
309(9) 0.01033 328.9 2.9
319(9) 0.01045 328.9 2.9
337(10) 0.00964 328.8 2.9
320(10) 0.00978 328.8 2.9
327(10) 0.00931 328.8 2.9
310(10) 0.00975 328.8 2.9
309(9) 0.01098 328.8 2.9
342(10) 0.00945 328.7 2.9
336(10) 0.00925 328.7 2.9
336(10) 0.00937 328.7 2.9
322(10) 0.01004 328.7 2.9
338(10) 0.01002 328.6 2.9
319(9) 0.01016 328.6 2.9
293(9) 0.01072 328.6 2.9
325(10) 0.00945 328.6 2.9
331(10) 0.00980 328.6 2.9
339(10) 0.01005 328.5 2.9
330(10) 0.00951 328.5 2.9
338(10) 0.00909 328.4 2.9
365(10) 0.00873 328.4 2.9
323(9) 0.01014 328.4 2.9
332(10) 0.00994 328.3 2.9
343(10) 0.00945 328.3 2.9
346(10) 0.00882 328.2 2.9
306(9) 0.01008 328.2 2.9
323(10) 0.00998 328.1 2.9
302(9) 0.01123 328.1 2.9
341(10) 0.00925 328.0 2.9
314(10) 0.00974 328.0 2.9
329(10) 0.00946 328.0 2.9
323(9) 0.01035 327.9 2.9
333(9) 0.01017 327.9 2.9
326(10) 0.01001 327.8 2.9
338(10) 0.00863 327.8 2.9
316(10) 0.00978 327.7 3.0
337(10) 0.00968 327.7 3.0
360(10) 0.00948 327.6 3.0
344(10) 0.00936 327.6 3.0
335(10) 0.00885 327.5 3.0
323(10) 0.00994 327.5 3.0
343(10) 0.00990 327.5 3.0
320(9) 0.01047 327.4 3.1
315(10) 0.00999 327.4 3.1
312(10) 0.00978 327.3 3.1
317(10) 0.01005 327.3 3.1
325(9) 0.01041 327.2 3.1
342(10) 0.00956 327.2 3.1
313(10) 0.00984 327.1 3.2
336(10) 0.00899 327.1 3.2
319(10) 0.00986 327.1 3.2
335(10) 0.01005 327.0 3.2
311(9) 0.01063 327.0 3.3
338(10) 0.00928 326.9 3.3
333(10) 0.00909 326.9 3.3
354(10) 0.00880 326.8 3.4
316(9) 0.01058 326.8 3.4
299(9) 0.01101 326.7 3.4
328(10) 0.00966 326.7 3.5
322(10) 0.00962 326.6 3.5
329(10) 0.00955 326.6 3.6
317(9) 0.01051 326.6 3.6
319(9) 0.01009 326.5 3.7
330(10) 0.00940 326.5 3.7
323(10) 0.00962 326.4 3.7
312(9) 0.01046 326.4 3.8
323(9) 0.01047 326.3 3.8
327(10) 0.00993 326.3 3.9
338(10) 0.00949 326.2 4.0
321(9) 0.01020 326.2 4.0
330(10) 0.00997 326.2 4.1
334(9) 0.01013 326.1 4.1
317(9) 0.01010 326.1 4.2
327(10) 0.00920 326.0 4.3
311(9) 0.01019 326.0 4.3
332(9) 0.01008 325.9 4.4
327(9) 0.01038 325.9 4.5
345(10) 0.00916 325.8 4.6
321(10) 0.00957 325.8 4.7
335(10) 0.00957 325.7 4.7
327(9) 0.01030 325.7 4.8
335(9) 0.01019 325.7 4.9
327(10) 0.00985 325.6 5.0
317(10) 0.00950 325.6 5.1
334(10) 0.00938 325.5 5.2
325(9) 0.01039 325.5 5.4
329(9) 0.01020 325.4 5.5
343(10) 0.00941 325.4 5.6
356(10) 0.00842 325.3 5.8
348(10) 0.00903 325.3 5.9
345(10) 0.00987 325.3 6.1
337(9) 0.01008 325.2 6.2
352(10) 0.00882 325.2 6.4
336(10) 0.00920 325.1 6.6
341(10) 0.00946 325.1 6.8
356(10) 0.00943 325.0 7.0
328(9) 0.01034 325.0 7.2
315(9) 0.01043 324.9 7.4
342(10) 0.00902 324.9 7.7
341(10) 0.00937 324.8 7.9
340(10) 0.00998 324.8 8.2
318(9) 0.01019 324.8 8.5
330(10) 0.00949 324.7 8.8
345(10) 0.00868 324.7 9.2
334(10) 0.00957 324.6 9.6
356(10) 0.00960 324.6 10.0
363(10) 0.00921 324.5 10.5
335(10) 0.00956 324.5 11.0
340(10) 0.00912 324.4 11.5
351(10) 0.00906 324.4 12.1
336(10) 0.00998 324.4 12.7
328(10) 0.00968 324.3 13.4
334(10) 0.00941 324.3 14.2
345(10) 0.00936 324.2 15.0
369(10) 0.00865 324.2 16.0
360(10) 0.00948 324.1 16.9
342(10) 0.00931 324.1 18.0
350(10) 0.00870 324.0 19.2
355(10) 0.00880 324.0 20.5
371(10) 0.00893 323.9 21.8
367(10) 0.00922 323.9 23.3
352(10) 0.00900 323.9 24.9
349(10) 0.00897 323.8 26.7
353(10) 0.00905 323.8 28.5
362(10) 0.00901 323.7 30.5
359(10) 0.00959 323.7 32.6
380(11) 0.00819 323.6 34.8
386(11) 0.00785 323.6 37.2
370(10) 0.00881 323.5 39.7
349(10) 0.00957 323.5 42.3
417(11) 0.00836 323.4 45.1
364(10) 0.00873 323.4 47.9
353(10) 0.00883 323.4 50.9
378(10) 0.00848 323.3 54.1
423(11) 0.00783 323.3 57.6
397(10) 0.00873 323.2 61.6
368(10) 0.00886 323.2 66.7
383(11) 0.00755 323.1 73.7
381(10) 0.00846 323.1 83.4
420(11) 0.00800 323.0 96.5
431(11) 0.00802 323.0 112.6
431(11) 0.00747 323.0 130.2
461(12) 0.00642 322.9 145.7
470(12) 0.00687 322.9 153.6
503(12) 0.00693 322.8 150.3
433(11) 0.00779 322.8 137.2
475(12) 0.00670 322.7 119.5
437(12) 0.00707 322.7 101.6
424(11) 0.00779 322.6 86.3
409(11) 0.00835 322.6 74.6
415(11) 0.00814 322.5 66.1
402(11) 0.00802 322.5 60.0
376(10) 0.00852 322.5 55.5
373(10) 0.00873 322.4 51.7
370(10) 0.00931 322.4 48.4
348(10) 0.00936 322.3 45.4
373(10) 0.00858 322.3 42.6
371(11) 0.00828 322.2 40.0
373(10) 0.00870 322.2 37.4
378(10) 0.00903 322.1 35.1
355(10) 0.00936 322.1 32.8
350(10) 0.00912 322.1 30.7
360(10) 0.00883 322.0 28.8
343(10) 0.00944 322.0 27.0
354(10) 0.00962 321.9 25.3
344(10) 0.00947 321.9 23.7
336(10) 0.00947 321.8 22.2
335(10) 0.00920 321.8 20.9
326(10) 0.00977 321.7 19.7
344(10) 0.00989 321.7 18.5
345(10) 0.00924 321.6 17.5
333(10) 0.00932 321.6 16.5
333(10) 0.00938 321.6 15.7
332(10) 0.00992 321.5 14.9
331(9) 0.01025 321.5 14.1
369(10) 0.00859 321.4 13.5
357(10) 0.00866 321.4 12.9
323(10) 0.00989 321.3 12.3
343(10) 0.00947 321.3 11.8
313(9) 0.01081 321.2 11.3
320(10) 0.00981 321.2 10.9
318(10) 0.00970 321.2 10.6
300(9) 0.01063 321.1 10.2
306(9) 0.01090 321.1 9.9
320(9) 0.01047 321.0 9.6
317(9) 0.01021 321.0 9.4
326(10) 0.00949 320.9 9.1
353(10) 0.00896 320.9 8.9
318(9) 0.01047 320.8 8.7
324(9) 0.01049 320.8 8.5
349(10) 0.00919 320.7 8.4
329(10) 0.00903 320.7 8.2
324(10) 0.00959 320.7 8.1
322(9) 0.01050 320.6 8.0
317(9) 0.01040 320.6 7.9
314(10) 0.00989 320.5 7.8
324(10) 0.00924 320.5 7.7
332(10) 0.00986 320.4 7.6
329(9) 0.01039 320.4 7.6
321(9) 0.01044 320.3 7.5
335(10) 0.00951 320.3 7.5
353(11) 0.00825 320.3 7.5
312(10) 0.01001 320.2 7.4
322(9) 0.01032 320.2 7.4
313(9) 0.01032 320.1 7.4
331(10) 0.00964 320.1 7.4
325(10) 0.00952 320.0 7.4
322(10) 0.00994 320.0 7.4
319(9) 0.01049 319.9 7.5
315(9) 0.01033 319.9 7.5
308(9) 0.01026 319.8 7.5
336(10) 0.00920 319.8 7.6
318(10) 0.00996 319.8 7.6
317(9) 0.01065 319.7 7.7
316(9) 0.01017 319.7 7.8
316(10) 0.00965 319.6 7.8
316(10) 0.00983 319.6 7.9
323(9) 0.01024 319.6 8.0
322(9) 0.01051 319.6 8.1
357(10) 0.00875 319.6 8.2
334(10) 0.00936 319.6 8.3
349(10) 0.00935 319.6 8.4
335(10) 0.00999 319.6 8.6
327(9) 0.01030 319.6 8.7
337(10) 0.00947 319.6 8.8
330(10) 0.00922 319.6 9.0
360(10) 0.00877 319.6 9.2
358(10) 0.00925 319.6 9.3
339(9) 0.01014 319.6 9.5
330(10) 0.00957 319.6 9.7
320(10) 0.00979 319.6 9.9
341(10) 0.00967 319.6 10.1
325(9) 0.01033 319.6 10.3
312(9) 0.01075 319.6 10.5
301(9) 0.01045 319.6 10.7
301(9) 0.01037 319.6 10.9
308(9) 0.01044 319.6 11.1
320(9) 0.01029 319.6 11.4
302(9) 0.01107 319.6 11.6
293(9) 0.01122 319.6 11.9
348(10) 0.00843 319.6 12.2
341(10) 0.00922 319.6 12.5
326(9) 0.01019 319.6 12.8
331(9) 0.01022 319.6 13.1
310(9) 0.01050 319.6 13.4
318(10) 0.00970 319.6 13.8
316(9) 0.01035 319.6 14.1
308(9) 0.01092 319.6 14.6
330(9) 0.01016 319.6 15.0
343(10) 0.00924 319.6 15.5
313(10) 0.00982 319.6 16.0
328(10) 0.00966 319.6 16.7
343(10) 0.00985 319.6 17.3
326(9) 0.01015 319.6 18.1
332(10) 0.00940 319.6 18.9
338(10) 0.00936 319.6 19.9
314(9) 0.01040 319.6 20.9
353(10) 0.00958 319.6 22.1
339(10) 0.00963 319.6 23.4
335(10) 0.00967 319.6 24.8
331(10) 0.00970 319.6 26.3
349(10) 0.00898 319.6 27.9
328(9) 0.01028 319.6 29.6
341(10) 0.00945 319.6 31.3
341(10) 0.00912 319.6 33.1
346(10) 0.00905 319.6 34.8
356(10) 0.00882 319.6 36.3
333(9) 0.01017 319.6 37.7
357(10) 0.00901 319.6 38.7
338(10) 0.00941 319.6 39.4
363(10) 0.00885 319.6 39.7
366(10) 0.00913 319.6 39.7
341(10) 0.00984 319.6 39.5
339(10) 0.00972 319.6 39.1
364(10) 0.00840 319.6 38.6
331(10) 0.00982 319.6 38.2
350(10) 0.00952 319.6 37.9
327(9) 0.01034 319.6 37.8
340(10) 0.00940 319.6 37.9
353(10) 0.00844 319.6 38.3
354(10) 0.00927 319.6 39.1
366(10) 0.00923 319.6 40.2
361(10) 0.00940 319.6 41.7
345(10) 0.00941 319.6 43.7
372(11) 0.00829 319.6 46.1
361(10) 0.00905 319.6 49.1
361(10) 0.00937 319.6 52.6
403(10) 0.00850 319.6 56.7
376(10) 0.00866 319.6 61.4
381(11) 0.00758 319.6 66.8
356(10) 0.00885 319.6 72.7
389(10) 0.00881 319.6 79.4
398(10) 0.00858 319.6 86.7
421(11) 0.00785 319.6 94.7
405(11) 0.00762 319.6 103.3
457(12) 0.00706 319.6 112.4
481(11) 0.00722 319.6 121.9
458(11) 0.00752 319.6 131.5
519(12) 0.00610 319.6 141.2
510(12) 0.00616 319.6 150.4
515(12) 0.00618 319.6 158.7
526(12) 0.00665 319.6 165.8
518(12) 0.00662 319.6 171.1
536(12) 0.00618 319.6 174.2
547(13) 0.00581 319.6 174.9
508(12) 0.00647 319.6 173.1
475(11) 0.00738 319.6 168.9
497(12) 0.00696 319.6 162.7
467(12) 0.00694 319.6 155.0
426(11) 0.00747 319.6 146.1
421(11) 0.00788 319.6 136.6
447(11) 0.00773 319.6 126.7
438(11) 0.00749 319.6 117.0
425(11) 0.00786 319.6 107.4
438(11) 0.00722 319.6 98.2
395(10) 0.00845 319.6 89.6
397(10) 0.00865 319.6 81.5
407(11) 0.00787 319.6 74.0
408(11) 0.00760 319.6 67.2
377(10) 0.00843 319.6 61.0
373(10) 0.00876 319.6 55.4
366(10) 0.00930 319.6 50.4
375(10) 0.00847 319.6 45.9
362(10) 0.00885 319.6 41.9
381(10) 0.00840 319.6 38.3
380(10) 0.00879 319.6 35.1
351(10) 0.00957 319.6 32.3
342(10) 0.00926 319.6 29.8
352(10) 0.00872 319.6 27.6
375(11) 0.00836 319.6 25.6
355(10) 0.00952 319.6 23.9
339(10) 0.01001 319.6 22.4
335(10) 0.00974 319.6 21.0
334(10) 0.00904 319.6 19.8
326(10) 0.01000 319.6 18.7
356(10) 0.00942 319.6 17.7
344(10) 0.00973 319.6 16.8
331(10) 0.00961 319.6 15.9
353(10) 0.00855 319.6 15.2
347(10) 0.00944 319.6 14.5
316(9) 0.01048 319.6 14.0
343(10) 0.00980 319.6 13.4
321(10) 0.01006 319.6 12.8
327(10) 0.00905 319.6 12.3
322(10) 0.00979 319.6 11.9
300(9) 0.01112 319.6 11.4
309(9) 0.01084 319.6 11.0
312(9) 0.01028 319.6 10.7
345(10) 0.00862 319.6 10.3
348(10) 0.00907 319.6 10.0
354(10) 0.00947 319.6 9.7
315(9) 0.01029 319.6 9.4
327(10) 0.00959 319.6 9.1
328(10) 0.00950 319.6 8.8
331(10) 0.00958 319.6 8.6
300(9) 0.01118 319.6 8.4
321(9) 0.01014 319.6 8.2
325(10) 0.00974 319.6 7.9
313(10) 0.00974 319.6 7.8
328(10) 0.00956 319.6 7.6
331(9) 0.01017 319.6 7.4
312(9) 0.01040 319.6 7.3
307(9) 0.01044 319.6 7.1
320(10) 0.00999 319.6 7.0
335(10) 0.00967 319.6 6.8
356(10) 0.00957 319.6 6.7
322(9) 0.01026 319.6 6.6
310(10) 0.01004 319.6 6.5
347(10) 0.00870 319.6 6.4
331(10) 0.00975 319.6 6.3
318(9) 0.01044 319.6 6.2
298(9) 0.01042 319.6 6.1
330(10) 0.00914 319.6 6.0
316(9) 0.01010 319.6 5.9
326(9) 0.01011 319.6 5.8
322(9) 0.01035 319.6 5.7
326(10) 0.00975 319.6 5.7
301(9) 0.01041 319.6 5.6
345(10) 0.00899 319.6 5.6
307(9) 0.01068 319.6 5.5
312(9) 0.01075 319.6 5.5
309(9) 0.01030 319.6 5.4
314(10) 0.00957 319.6 5.4
324(10) 0.01006 319.6 5.3
335(10) 0.00995 319.6 5.3
326(9) 0.01034 319.6 5.2
305(9) 0.01062 319.6 5.2
314(10) 0.00950 319.6 5.2
313(9) 0.01023 319.6 5.1
342(10) 0.00994 319.6 5.1
336(9) 0.01011 319.6 5.1
338(10) 0.00914 319.6 5.1
310(10) 0.00962 319.6 5.0
307(9) 0.01041 319.6 5.0
306(9) 0.01079 319.6 5.0
329(10) 0.00999 319.6 5.0
337(10) 0.00941 319.6 5.0
330(10) 0.00921 319.6 5.0
328(10) 0.00986 319.6 5.0
337(10) 0.00992 319.5 5.0
356(10) 0.00947 319.5 5.0
318(9) 0.01023 319.5 5.0
326(10) 0.00918 319.5 5.0
342(10) 0.00919 319.5 5.0
306(9) 0.01094 319.5 5.0
298(9) 0.01081 319.5 5.1
312(10) 0.01007 319.5 5.1
319(10) 0.00946 319.5 5.1
326(10) 0.00937 319.5 5.1
319(9) 0.01059 319.5 5.2
335(10) 0.00954 319.5 5.2
316(9) 0.01011 319.5 5.2
342(10) 0.00899 319.5 5.3
318(10) 0.00996 319.5 5.4
328(9) 0.01027 319.4 5.4
302(9) 0.01075 319.4 5.5
314(10) 0.00999 319.4 5.5
342(10) 0.00908 319.4 5.6
325(9) 0.01011 319.4 5.7
326(9) 0.01039 319.4 5.7
342(10) 0.00912 319.4 5.8
321(10) 0.00960 319.4 5.9
321(10) 0.00980 319.4 6.0
344(10) 0.00961 319.4 6.1
292(9) 0.01133 319.4 6.2
331(10) 0.00950 319.4 6.4
326(10) 0.00965 319.4 6.5
325(10) 0.01006 319.4 6.6
330(10) 0.00996 319.3 6.8
323(9) 0.01031 319.3 7.0
338(10) 0.00931 319.3 7.2
318(10) 0.00965 319.3 7.4
313(9) 0.01020 319.3 7.6
343(10) 0.00961 319.3 7.8
319(9) 0.01055 319.3 8.1
303(9) 0.01040 319.3 8.4
333(10) 0.00887 319.3 8.7
348(10) 0.00938 319.3 9.1
356(10) 0.00936 319.3 9.4
330(9) 0.01013 319.3 9.9
326(10) 0.00995 319.3 10.4
323(10) 0.00941 319.3 10.9
353(10) 0.00874 319.3 11.6
298(9) 0.01125 319.2 12.3
318(9) 0.01055 319.2 13.1
350(10) 0.00918 319.2 14.0
324(10) 0.00926 319.2 15.1
321(10) 0.00984 319.2 16.4
303(9) 0.01122 319.2 17.9
359(10) 0.00922 319.2 19.8
334(10) 0.00968 319.2 22.2
361(11) 0.00838 319.2 25.4
345(10) 0.00872 319.2 29.6
364(10) 0.00939 319.2 35.2
357(10) 0.00925 319.2 42.7
383(10) 0.00839 319.2 52.4
384(11) 0.00798 319.2 64.8
381(11) 0.00804 319.1 80.2
426(11) 0.00804 319.1 98.5
465(11) 0.00725 319.1 119.2
484(12) 0.00671 319.1 141.2
510(12) 0.00632 319.1 162.4
536(12) 0.00618 319.1 180.3
566(12) 0.00623 319.1 191.9
512(12) 0.00651 319.1 194.5
513(12) 0.00645 319.1 187.2
505(12) 0.00650 319.1 171.3
508(12) 0.00657 319.1 150.5
449(11) 0.00770 319.1 128.2
432(11) 0.00750 319.1 106.9
406(11) 0.00776 319.1 88.3
417(11) 0.00757 319.1 72.7
398(11) 0.00833 319.0 60.4
369(10) 0.00933 319.0 51.2
379(10) 0.00852 319.0 44.8
380(11) 0.00813 319.0 40.8
405(11) 0.00766 319.0 39.0
355(10) 0.00929 319.0 39.2
374(10) 0.00917 319.0 41.2
354(10) 0.00880 319.0 44.9
385(11) 0.00798 319.0 50.1
381(10) 0.00852 319.0 56.5
402(11) 0.00838 319.0 63.3
373(10) 0.00925 319.0 69.5
412(11) 0.00782 319.0 73.4
393(11) 0.00793 319.0 73.6
390(11) 0.00825 318.9 70.1
399(10) 0.00853 318.9 63.7
365(10) 0.00941 318.9 56.3
374(10) 0.00854 318.9 48.9
350(10) 0.00878 318.9 42.3
353(10) 0.00899 318.9 36.8
326(9) 0.01049 318.9 32.6
355(10) 0.00941 318.9 29.5
342(10) 0.00927 318.9 27.4
317(10) 0.00971 318.9 26.1
364(10) 0.00881 318.9 25.4
349(10) 0.00971 318.9 25.2
356(10) 0.00955 318.9 25.3
356(10) 0.00889 318.9 25.8
340(10) 0.00879 318.9 26.5
338(10) 0.00900 318.8 27.6
338(10) 0.01003 318.8 29.0
363(10) 0.00919 318.8 30.8
360(10) 0.00913 318.8 33.3
376(11) 0.00809 318.8 36.5
355(10) 0.00930 318.8 40.7
367(10) 0.00930 318.8 46.3
387(11) 0.00819 318.8 53.4
395(11) 0.00816 318.8 62.5
401(11) 0.00766 318.8 73.7
393(11) 0.00817 318.8 87.1
432(11) 0.00797 318.8 102.7
431(11) 0.00775 318.8 119.8
460(12) 0.00695 318.8 137.7
501(12) 0.00628 318.8 154.4
497(12) 0.00637 318.7 167.5
532(12) 0.00659 318.7 174.4
509(12) 0.00653 318.7 173.3
492(12) 0.00658 318.7 164.7
488(12) 0.00651 318.7 150.5
462(11) 0.00721 318.7 133.6
430(11) 0.00802 318.7 116.3
408(11) 0.00790 318.7 99.9
416(11) 0.00731 318.7 85.4
402(11) 0.00785 318.7 73.1
357(10) 0.00946 318.7 62.9
349(10) 0.00970 318.7 54.8
374(10) 0.00848 318.7 48.5
362(10) 0.00859 318.7 43.6
345(10) 0.00921 318.6 40.0
356(10) 0.00954 318.6 37.2
339(10) 0.00992 318.6 35.1
361(10) 0.00881 318.6 33.5
349(10) 0.00878 318.6 32.3
337(10) 0.00933 318.6 31.4
366(10) 0.00932 318.6 30.7
334(9) 0.01017 318.6 30.1
327(10) 0.00975 318.6 29.6
337(10) 0.00899 318.6 29.3
342(10) 0.00931 318.6 29.1
348(10) 0.00986 318.6 28.9
335(10) 0.00999 318.6 28.9
342(10) 0.00945 318.6 28.9
343(10) 0.00847 318.6 28.9
340(10) 0.00917 318.5 29.2
347(10) 0.00985 318.5 29.4
361(10) 0.00939 318.5 29.6
331(10) 0.00971 318.5 30.0
345(10) 0.00858 318.5 30.3
334(10) 0.00959 318.5 30.8
340(10) 0.01006 318.5 31.3
346(10) 0.00959 318.5 31.8
335(10) 0.00974 318.5 32.4
376(11) 0.00797 318.5 33.1
344(10) 0.00904 318.5 33.8
362(10) 0.00926 318.5 34.6
401(11) 0.00818 318.5 35.4
381(10) 0.00859 318.5 36.2
366(10) 0.00857 318.4 37.1
359(10) 0.00882 318.4 38.1
376(10) 0.00913 318.4 39.0
352(10) 0.00929 318.4 40.0
370(10) 0.00866 318.4 41.0
358(10) 0.00889 318.4 41.9
396(11) 0.00831 318.4 42.9
384(10) 0.00889 318.4 43.9
362(10) 0.00904 318.4 44.8
371(11) 0.00831 318.4 45.7
369(10) 0.00862 318.4 46.6
372(10) 0.00873 318.4 47.4
371(10) 0.00926 318.4 48.1
384(11) 0.00831 318.4 48.7
376(11) 0.00832 318.4 49.3
363(10) 0.00892 318.3 49.8
379(10) 0.00863 318.3 50.2
372(10) 0.00913 318.3 50.5
386(11) 0.00833 318.3 50.7
382(11) 0.00820 318.3 51.0
359(10) 0.00875 318.3 51.3
374(10) 0.00892 318.3 51.8
339(10) 0.00999 318.3 52.6
361(10) 0.00859 318.3 54.1
380(11) 0.00752 318.3 56.6
379(11) 0.00803 318.3 60.5
387(10) 0.00867 318.3 66.2
364(10) 0.00934 318.3 73.8
392(11) 0.00819 318.3 83.0
420(12) 0.00706 318.2 93.0
429(11) 0.00761 318.2 101.9
441(11) 0.00788 318.2 107.4
477(11) 0.00721 318.2 107.0
449(12) 0.00704 318.2 100.9
408(11) 0.00735 318.2 91.1
393(11) 0.00824 318.2 80.2
357(10) 0.00961 318.2 70.3
380(10) 0.00875 318.2 62.1
377(11) 0.00833 318.2 56.2
372(11) 0.00796 318.2 52.6
377(10) 0.00861 318.2 50.9
383(10) 0.00894 318.2 50.8
356(10) 0.00953 318.2 52.0
377(10) 0.00845 318.2 54.3
381(11) 0.00802 318.1 57.5
407(11) 0.00785 318.1 61.4
394(10) 0.00862 318.1 65.7
434(11) 0.00787 318.1 70.3
448(11) 0.00710 318.1 74.5
447(12) 0.00694 318.1 78.0
433(11) 0.00746 318.1 80.0
419(11) 0.00825 318.1 80.2
404(11) 0.00838 318.1 78.4
443(11) 0.00731 318.1 74.8
397(11) 0.00802 318.1 70.1
371(10) 0.00874 318.1 64.8
385(10) 0.00894 318.1 59.3
406(11) 0.00809 318.1 54.0
398(11) 0.00785 318.0 49.2
366(10) 0.00853 318.0 45.0
375(10) 0.00857 318.0 41.3
348(10) 0.00971 318.0 38.2
387(10) 0.00841 318.0 35.7
365(10) 0.00859 318.0 33.7
356(10) 0.00879 318.0 32.1
362(10) 0.00928 318.0 30.9
334(10) 0.01001 318.0 30.0
343(10) 0.00923 318.0 29.4
342(10) 0.00928 318.0 29.0
364(10) 0.00876 318.0 28.7
340(10) 0.00986 318.0 28.7
347(10) 0.00976 318.0 28.8
372(10) 0.00870 318.0 28.9
366(10) 0.00853 317.9 29.2
333(10) 0.00993 317.9 29.6
350(10) 0.00950 317.9 30.1
344(10) 0.00980 317.9 30.7
358(10) 0.00920 317.9 31.3
348(10) 0.00868 317.9 32.0
359(10) 0.00868 317.9 32.8
336(10) 0.00991 317.9 33.7
316(9) 0.01080 317.9 34.7
353(10) 0.00904 317.9 35.8
340(10) 0.00869 317.9 36.9
329(10) 0.00976 317.9 38.2
358(10) 0.00943 317.9 39.5
344(10) 0.00980 317.9 40.9
339(10) 0.00945 317.8 42.4
347(10) 0.00884 317.8 44.1
356(10) 0.00922 317.8 45.8
392(10) 0.00883 317.8 47.6
374(10) 0.00889 317.8 49.5
351(10) 0.00911 317.8 51.4
367(11) 0.00826 317.8 53.5
331(10) 0.00959 317.8 55.7
352(10) 0.00969 317.8 58.0
364(10) 0.00911 317.8 60.4
378(10) 0.00868 317.8 62.9
395(11) 0.00767 317.8 65.4
376(11) 0.00833 317.8 68.1
339(10) 0.00989 317.8 70.8
376(10) 0.00876 317.8 73.6
402(11) 0.00803 317.7 76.5
367(10) 0.00867 317.7 79.4
381(10) 0.00845 317.7 82.4
377(10) 0.00902 317.7 85.5
369(10) 0.00885 317.7 88.6
386(11) 0.00812 317.7 91.7
401(11) 0.00778 317.7 94.9
379(10) 0.00845 317.7 98.1
407(10) 0.00842 317.7 101.4
402(11) 0.00813 317.7 104.8
413(11) 0.00766 317.7 108.3
381(10) 0.00841 317.7 112.0
407(11) 0.00817 317.7 115.9
409(11) 0.00838 317.7 120.0
387(11) 0.00831 317.7 124.3
421(11) 0.00745 317.6 128.8
420(11) 0.00768 317.6 133.7
430(11) 0.00777 317.6 138.7
447(11) 0.00780 317.6 143.8
469(12) 0.00673 317.6 149.0
441(12) 0.00703 317.6 153.9
455(12) 0.00699 317.6 158.5
441(11) 0.00773 317.6 162.5
455(11) 0.00768 317.6 165.5
462(11) 0.00719 317.6 167.2
472(12) 0.00651 317.6 167.6
434(11) 0.00754 317.6 166.3
431(11) 0.00781 317.6 163.4
439(11) 0.00799 317.6 159.1
449(12) 0.00703 317.5 153.5
452(12) 0.00669 317.5 146.9
431(11) 0.00753 317.5 139.6
429(11) 0.00814 317.5 131.9
446(11) 0.00772 317.5 124.2
425(11) 0.00781 317.5 116.5
408(11) 0.00743 317.5 109.0
382(11) 0.00832 317.5 101.9
391(10) 0.00880 317.5 95.4
378(10) 0.00904 317.5 89.3
392(11) 0.00801 317.5 83.7
359(10) 0.00850 317.5 78.8
364(10) 0.00877 317.5 74.3
367(10) 0.00934 317.5 70.5
360(10) 0.00937 317.5 67.1
364(10) 0.00872 317.4 64.2
375(11) 0.00816 317.4 61.8
377(10) 0.00857 317.4 59.8
361(10) 0.00943 317.4 58.1
349(10) 0.00940 317.4 56.6
374(10) 0.00839 317.4 55.4
382(11) 0.00838 317.4 54.2
392(11) 0.00835 317.4 53.0
329(9) 0.01024 317.4 51.8
350(10) 0.00933 317.4 50.4
340(10) 0.00927 317.4 49.0
356(10) 0.00888 317.4 47.5
372(10) 0.00878 317.4 45.9
339(10) 0.01003 317.4 44.4
356(10) 0.00853 317.3 42.8
335(10) 0.00905 317.3 41.3
336(10) 0.00942 317.3 39.9
339(10) 0.00967 317.3 38.6
339(10) 0.00989 317.3 37.4
345(10) 0.00912 317.3 36.3
337(10) 0.00928 317.3 35.3
346(10) 0.00928 317.3 34.4
362(10) 0.00921 317.3 33.5
326(9) 0.01029 317.3 32.7
347(10) 0.00880 317.3 32.0
339(10) 0.00904 317.3 31.3
338(10) 0.00952 317.3 30.7
352(10) 0.00940 317.3 30.1
352(10) 0.00954 317.3 29.6
350(10) 0.00883 317.2 29.0
337(10) 0.00906 317.2 28.5
339(10) 0.00936 317.2 28.0
322(9) 0.01043 317.2 27.5
350(10) 0.00978 317.2 27.1
321(10) 0.00990 317.2 26.6
324(10) 0.00917 317.2 26.1
340(10) 0.00939 317.2 25.7
369(10) 0.00915 317.2 25.3
339(10) 0.00992 317.2 24.9
334(10) 0.00949 317.2 24.5
348(10) 0.00857 317.2 24.1
358(10) 0.00875 317.2 23.7
336(10) 0.00995 317.2 23.4
368(10) 0.00912 317.1 23.1
338(10) 0.00959 317.1 22.9
328(10) 0.00933 317.1 22.6
332(10) 0.00955 317.1 22.4
326(9) 0.01044 317.1 22.3
342(10) 0.00969 317.1 22.1
341(10) 0.00973 317.1 22.1
362(10) 0.00849 317.1 22.1
348(10) 0.00922 317.1 22.1
350(10) 0.00970 317.1 22.2
345(10) 0.00978 317.1 22.4
363(10) 0.00882 317.1 22.7
340(10) 0.00902 317.1 23.1
348(10) 0.00916 317.1 23.7
347(10) 0.00982 317.1 24.4
354(10) 0.00918 317.0 25.3
353(10) 0.00915 317.0 26.5
363(10) 0.00843 317.0 28.1
355(10) 0.00898 317.0 30.0
399(10) 0.00865 317.0 32.4
354(10) 0.00911 317.0 35.4
358(10) 0.00881 317.0 39.0
362(10) 0.00877 317.0 43.4
385(10) 0.00847 317.0 48.6
390(10) 0.00879 317.0 54.7
368(10) 0.00854 317.0 61.7
375(11) 0.00815 317.0 69.6
415(11) 0.00770 317.0 78.3
440(11) 0.00767 317.0 87.5
453(11) 0.00764 316.9 96.8
442(11) 0.00731 316.9 105.7
473(12) 0.00656 316.9 113.3
487(12) 0.00671 316.9 118.6
474(11) 0.00736 316.9 120.9
487(11) 0.00715 316.9 119.8
475(12) 0.00686 316.9 115.4
470(12) 0.00659 316.9 108.4
438(11) 0.00741 316.9 99.7
424(11) 0.00812 316.9 90.1
438(11) 0.00779 316.9 80.5
409(11) 0.00784 316.9 71.3
384(11) 0.00813 316.9 62.7
357(10) 0.00920 316.9 55.0
380(10) 0.00905 316.9 48.2
364(10) 0.00916 316.8 42.3
391(11) 0.00828 316.8 37.3
357(11) 0.00830 316.8 33.0
348(10) 0.00942 316.8 29.5
377(10) 0.00910 316.8 26.5
373(10) 0.00904 316.8 24.1
330(10) 0.00970 316.8 22.1
329(10) 0.00947 316.8 20.4
353(10) 0.00901 316.8 19.0
351(10) 0.00972 316.8 17.8
333(10) 0.01004 316.8 16.8
322(10) 0.00995 316.8 16.0
331(10) 0.00895 316.8 15.2
331(10) 0.00951 316.8 14.6
345(10) 0.00976 316.7 14.0
332(9) 0.01010 316.7 13.6
335(10) 0.00969 316.7 13.1
326(10) 0.00935 316.7 12.7
321(10) 0.00957 316.7 12.4
327(9) 0.01030 316.7 12.1
328(10) 0.01002 316.7 11.8
319(10) 0.00978 316.7 11.6
340(10) 0.00873 316.7 11.3
318(9) 0.01009 316.7 11.1
348(10) 0.00984 316.7 11.0
314(9) 0.01041 316.7 10.8
308(9) 0.01036 316.7 10.7
317(10) 0.00979 316.7 10.6
336(10) 0.00966 316.7 10.5
350(10) 0.00968 316.6 10.5
343(10) 0.00943 316.6 10.4
303(9) 0.01022 316.6 10.4
345(10) 0.00868 316.6 10.4
321(10) 0.00982 316.6 10.4
307(9) 0.01087 316.6 10.5
345(10) 0.00903 316.6 10.6
313(9) 0.01008 316.6 10.6
319(10) 0.00957 316.6 10.8
310(9) 0.01062 316.6 10.9
343(10) 0.00977 316.6 11.1
312(9) 0.01032 316.6 11.2
319(10) 0.00979 316.6 11.4
348(10) 0.00918 316.6 11.7
319(9) 0.01034 316.6 11.9
330(9) 0.01015 316.5 12.2
327(10) 0.00939 316.5 12.4
323(10) 0.00928 316.5 12.7
342(10) 0.00966 316.5 13.0
325(9) 0.01032 316.5 13.2
307(9) 0.01108 316.5 13.5
325(10) 0.00992 316.5 13.6
327(10) 0.00939 316.5 13.8
339(10) 0.00917 316.5 13.9
326(9) 0.01024 316.5 13.9
344(10) 0.00970 316.5 14.0
324(10) 0.00993 316.5 14.0
335(10) 0.00894 316.5 14.0
341(10) 0.00915 316.5 14.0
334(9) 0.01010 316.4 14.1
334(10) 0.00992 316.4 14.1
319(10) 0.00967 316.4 14.2
294(9) 0.01031 316.4 14.3
315(10) 0.00997 316.4 14.5
331(9) 0.01037 316.4 14.6
322(9) 0.01042 316.4 14.9
334(10) 0.00947 316.4 15.1
337(10) 0.00931 316.4 15.5
338(10) 0.00895 316.4 15.8
337(9) 0.01010 316.4 16.3
326(10) 0.00999 316.4 16.7
335(10) 0.00944 316.4 17.3
336(10) 0.00922 316.4 17.9
333(10) 0.00976 316.4 18.6
300(9) 0.01115 316.3 19.3
322(9) 0.01014 316.3 20.2
318(10) 0.00994 316.3 21.1
300(9) 0.01056 316.3 22.2
318(9) 0.01022 316.3 23.3
337(10) 0.01005 316.3 24.5
339(10) 0.00952 316.3 25.9
318(10) 0.00970 316.3 27.5
322(10) 0.00982 316.3 29.1
320(9) 0.01037 316.3 30.9
344(10) 0.00980 316.3 32.9
350(10) 0.00869 316.3 35.1
318(10) 0.00963 316.3 37.5
346(10) 0.00893 316.3 40.0
336(10) 0.00995 316.2 42.8
346(10) 0.00985 316.2 45.8
366(10) 0.00863 316.2 49.0
362(10) 0.00852 316.2 52.4
353(10) 0.00898 316.2 56.0
357(10) 0.00930 316.2 59.9
349(10) 0.00969 316.2 63.9
361(10) 0.00878 316.2 68.2
370(11) 0.00812 316.2 72.6
367(10) 0.00870 316.2 77.1
359(10) 0.00944 316.2 81.7
371(10) 0.00915 316.2 86.3
395(11) 0.00787 316.2 90.8
381(11) 0.00792 316.2 95.3
399(11) 0.00813 316.2 99.5
397(10) 0.00861 316.1 103.3
406(11) 0.00826 316.1 106.6
429(11) 0.00736 316.1 109.4
401(11) 0.00788 316.1 111.5
389(10) 0.00854 316.1 112.8
406(10) 0.00854 316.1 113.3
401(11) 0.00837 316.1 112.9
438(12) 0.00697 316.1 111.6
411(11) 0.00734 316.1 109.6
426(11) 0.00740 316.1 106.9
392(10) 0.00873 316.1 103.6
395(10) 0.00844 316.1 99.9
384(10) 0.00855 316.1 95.7
398(11) 0.00782 316.1 91.3
390(10) 0.00842 316.0 86.8
363(10) 0.00943 316.0 82.2
351(10) 0.00940 316.0 77.6
375(10) 0.00840 316.0 73.1
363(10) 0.00856 316.0 68.8
369(10) 0.00892 316.0 64.6
380(10) 0.00898 316.0 60.5
374(10) 0.00884 316.0 56.7
361(10) 0.00892 316.0 53.1
355(10) 0.00865 316.0 49.7
335(10) 0.00983 316.0 46.5
333(9) 0.01023 316.0 43.5
353(10) 0.00896 316.0 40.8
364(11) 0.00838 316.0 38.2
337(10) 0.00949 316.0 35.9
347(10) 0.00955 315.9 33.7
320(9) 0.01060 315.9 31.7
325(10) 0.00982 315.9 29.9
347(10) 0.00901 315.9 28.3
325(10) 0.00995 315.9 26.8
339(10) 0.00981 315.9 25.4
326(9) 0.01040 315.9 24.1
342(10) 0.00920 315.9 23.0
331(10) 0.00918 315.9 22.0
321(10) 0.00982 315.9 21.1
339(10) 0.01000 315.9 20.2
347(10) 0.00973 315.9 19.5
360(10) 0.00866 315.9 18.8
328(10) 0.00916 315.9 18.2
342(10) 0.00918 315.8 17.6
350(10) 0.00958 315.8 17.1
349(10) 0.00968 315.8 16.6
309(9) 0.01026 315.8 16.2
317(10) 0.00959 315.8 15.9
343(10) 0.00927 315.8 15.5
318(9) 0.01050 315.8 15.2
336(10) 0.00991 315.8 15.0
335(10) 0.00961 315.8 14.7
332(10) 0.00890 315.8 14.5
336(10) 0.00935 315.8 14.3
312(9) 0.01074 315.8 14.1
355(10) 0.00932 315.8 14.0
324(9) 0.01011 315.8 13.9
321(10) 0.00967 315.8 13.8
342(10) 0.00933 315.7 13.7
348(10) 0.00976 315.7 13.6
317(9) 0.01047 315.7 13.6
323(10) 0.00973 315.7 13.5
320(10) 0.00935 315.7 13.5
319(10) 0.00976 315.7 13.5
342(10) 0.00986 315.7 13.5
333(10) 0.00982 315.7 13.6
325(10) 0.00954 315.7 13.6
321(10) 0.00974 315.7 13.7
345(10) 0.00924 315.7 13.8
319(9) 0.01052 315.7 13.9
338(10) 0.00977 315.7 14.0
336(10) 0.00955 315.7 14.1
332(10) 0.00923 315.6 14.3
328(10) 0.00991 315.6 14.5
340(10) 0.00995 315.6 14.7
323(10) 0.01000 315.6 14.9
329(10) 0.00995 315.6 15.2
345(10) 0.00908 315.6 15.4
326(9) 0.01020 315.6 15.7
337(10) 0.01004 315.6 16.1
319(10) 0.00991 315.6 16.4
347(10) 0.00893 315.6 16.8
340(10) 0.00965 315.6 17.3
319(9) 0.01050 315.6 17.8
326(9) 0.01030 315.6 18.3
310(9) 0.01027 315.6 18.8
338(10) 0.00918 315.6 19.4
363(10) 0.00872 315.5 20.1
340(10) 0.00978 315.5 20.8
350(10) 0.00962 315.5 21.6
330(10) 0.00986 315.5 22.5
341(10) 0.00878 315.5 23.4
348(10) 0.00938 315.5 24.4
354(10) 0.00962 315.5 25.5
344(10) 0.00984 315.5 26.6
326(10) 0.00968 315.5 27.9
317(10) 0.00956 315.5 29.3
352(10) 0.00912 315.5 30.8
354(10) 0.00944 315.5 32.3
362(10) 0.00942 315.5 34.0
355(10) 0.00873 315.5 35.9
368(11) 0.00775 315.4 37.8
338(10) 0.00985 315.4 39.9
357(10) 0.00955 315.4 42.2
364(10) 0.00924 315.4 44.6
341(10) 0.00945 315.4 47.1
353(10) 0.00863 315.4 49.8
383(11) 0.00833 315.4 52.7
408(10) 0.00840 315.4 55.7
382(10) 0.00900 315.4 58.9
385(11) 0.00835 315.4 62.2
384(11) 0.00789 315.4 65.7
338(10) 0.00957 315.4 69.3
385(10) 0.00880 315.4 73.1
404(11) 0.00822 315.4 76.9
370(10) 0.00872 315.4 80.9
399(11) 0.00785 315.3 84.8
380(11) 0.00838 315.3 88.8
394(10) 0.00869 315.3 92.8
397(11) 0.00828 315.3 96.7
424(11) 0.00762 315.3 100.5
421(11) 0.00748 315.3 104.2
432(11) 0.00749 315.3 107.5
428(11) 0.00811 315.3 110.6
440(11) 0.00759 315.3 113.4
450(11) 0.00715 315.3 115.7
461(12) 0.00706 315.3 117.6
455(11) 0.00741 315.3 119.0
446(11) 0.00767 315.3 119.8
433(11) 0.00778 315.3 120.1
446(11) 0.00723 315.3 119.8
460(11) 0.00722 315.2 119.0
446(11) 0.00761 315.2 117.7
431(11) 0.00799 315.2 115.8
420(11) 0.00778 315.2 113.4
410(11) 0.00761 315.2 110.5
411(11) 0.00774 315.2 107.3
435(11) 0.00777 315.2 103.7
426(11) 0.00815 315.2 99.9
413(11) 0.00777 315.2 95.9
403(11) 0.00758 315.2 91.7
390(11) 0.00812 315.2 87.5
364(10) 0.00909 315.2 83.2
380(10) 0.00886 315.2 79.0
386(11) 0.00785 315.2 74.9
361(11) 0.00826 315.1 70.8
362(10) 0.00869 315.1 66.9
367(10) 0.00930 315.1 63.1
389(10) 0.00878 315.1 59.5
365(10) 0.00916 315.1 56.1
375(11) 0.00795 315.1 52.8
342(10) 0.00922 315.1 49.7
370(10) 0.00911 315.1 46.8
345(10) 0.00988 315.1 44.0
349(10) 0.00943 315.1 41.5
338(10) 0.00916 315.1 39.0
345(10) 0.00945 315.1 36.8
326(9) 0.01021 315.1 34.7
332(10) 0.01005 315.1 32.8
345(10) 0.00928 315.1 31.0
356(10) 0.00860 315.0 29.3
345(10) 0.00930 315.0 27.8
329(9) 0.01030 315.0 26.3
343(10) 0.00934 315.0 25.0
331(10) 0.00956 315.0 23.8
338(10) 0.00891 315.0 22.7
350(10) 0.00879 315.0 21.6
326(9) 0.01027 315.0 20.7
345(10) 0.00959 315.0 19.8
330(10) 0.00953 315.0 19.0
323(10) 0.00928 315.0 18.2
314(9) 0.01008 315.0 17.5
326(9) 0.01036 315.0 16.9
321(9) 0.01020 315.0 16.3
334(10) 0.00919 314.9 15.7
333(10) 0.00922 314.9 15.2
318(10) 0.01007 314.9 14.8
317(9) 0.01068 314.9 14.4
347(10) 0.00924 314.9 13.9
323(10) 0.01006 314.9 13.6
340(10) 0.00960 314.9 13.2
340(10) 0.00937 314.9 12.9
340(10) 0.00995 314.9 12.5
303(9) 0.01062 314.9 12.3
308(10) 0.00997 314.9 12.0
325(10) 0.00959 314.9 11.7
319(9) 0.01036 314.9 11.5
315(9) 0.01068 314.9 11.3
338(10) 0.00926 314.9 11.0
320(10) 0.00971 314.8 10.8
339(10) 0.00916 314.8 10.7
324(9) 0.01023 314.8 10.5
331(9) 0.01025 314.8 10.3
325(10) 0.00999 314.8 10.2
324(10) 0.00958 314.8 10.0
309(9) 0.01036 314.8 9.9
326(9) 0.01023 314.8 9.8
308(9) 0.01084 314.8 9.7
351(10) 0.00912 314.9 9.6
329(10) 0.00914 314.9 9.5
331(10) 0.00959 314.9 9.4
318(9) 0.01047 315.0 9.4
319(9) 0.01039 315.0 9.3
324(10) 0.00949 315.0 9.3
323(10) 0.00910 315.0 9.2
333(10) 0.00953 315.1 9.2
312(9) 0.01078 315.1 9.2
297(9) 0.01114 315.1 9.2
302(9) 0.01052 315.1 9.2
344(10) 0.00879 315.2 9.2
336(10) 0.00939 315.2 9.3
356(10) 0.00959 315.2 9.3
330(10) 0.01001 315.3 9.4
317(9) 0.01015 315.3 9.5
327(10) 0.00951 315.3 9.6
341(10) 0.00896 315.3 9.8
307(9) 0.01088 315.4 10.0
328(9) 0.01013 315.4 10.3
316(10) 0.01003 315.4 10.7
329(10) 0.00949 315.5 11.4
323(10) 0.00994 315.5 12.7
332(9) 0.01008 315.5 15.6
345(10) 0.00935 315.5 21.4
336(10) 0.00938 315.6 32.3
361(10) 0.00856 315.6 49.4
364(10) 0.00903 315.6 72.0
416(11) 0.00830 315.6 95.9
395(11) 0.00838 315.7 113.4
425(11) 0.00725 315.7 116.8
396(11) 0.00803 315.7 104.4
381(10) 0.00866 315.8 82.3
415(11) 0.00825 315.8 58.9
381(11) 0.00808 315.8 39.8
354(10) 0.00865 315.8 27.1
332(10) 0.00959 315.9 20.0
323(9) 0.01015 315.9 16.6
335(9) 0.01025 315.9 15.3
351(10) 0.00900 315.9 14.9
332(10) 0.00919 316.0 15.0
317(10) 0.01000 316.0 15.2
332(10) 0.00999 316.0 15.6
322(9) 0.01052 316.1 16.0
320(10) 0.00985 316.1 16.6
352(11) 0.00838 316.1 17.1
308(9) 0.01044 316.1 17.8
336(10) 0.00996 316.2 18.5
349(10) 0.00972 316.2 19.3
343(10) 0.00932 316.2 20.2
326(10) 0.00922 316.3 21.2
340(10) 0.00942 316.3 22.2
341(9) 0.01008 316.3 23.2
340(10) 0.00973 316.3 24.4
331(10) 0.00959 316.4 25.6
342(10) 0.00861 316.4 26.9
326(10) 0.00955 316.4 28.3
332(9) 0.01016 316.4 29.7
341(10) 0.00980 316.5 31.2
355(10) 0.00874 316.5 32.7
350(10) 0.00858 316.5 34.3
378(10) 0.00843 316.6 36.0
360(10) 0.00939 316.6 37.6
383(10) 0.00871 316.6 39.3
350(10) 0.00946 316.6 41.0
379(11) 0.00820 316.7 42.7
370(10) 0.00879 316.7 44.4
384(10) 0.00898 316.7 46.0
371(10) 0.00911 316.8 47.5
380(11) 0.00831 316.8 48.9
373(11) 0.00816 316.8 50.1
376(10) 0.00858 316.8 51.2
374(10) 0.00912 316.9 52.1
363(10) 0.00909 316.9 52.7
368(10) 0.00893 316.9 53.2
369(10) 0.00842 316.9 53.4
351(10) 0.00924 317.0 53.3
356(10) 0.00955 317.0 53.0
376(10) 0.00879 317.0 52.4
389(10) 0.00842 317.1 51.5
369(10) 0.00884 317.1 50.5
382(10) 0.00887 317.1 49.3
396(10) 0.00869 317.1 47.9
359(10) 0.00908 317.2 46.4
357(10) 0.00882 317.2 44.8
388(11) 0.00803 317.2 43.1
366(10) 0.00897 317.2 41.4
358(10) 0.00946 317.3 39.7
340(10) 0.00947 317.3 37.9
348(10) 0.00902 317.3 36.2
354(10) 0.00912 317.4 34.5
386(10) 0.00879 317.4 32.8
352(10) 0.00964 317.4 31.2
325(10) 0.01001 317.4 29.7
363(11) 0.00826 317.5 28.2
360(10) 0.00917 317.5 26.8
331(10) 0.00998 317.5 25.4
359(10) 0.00943 317.6 24.1
353(10) 0.00950 317.6 22.9
329(10) 0.00960 317.6 21.7
358(10) 0.00885 317.6 20.6
345(10) 0.00969 317.7 19.6
313(9) 0.01082 317.7 18.6
324(10) 0.00974 317.7 17.7
351(11) 0.00831 317.7 16.9
319(9) 0.01020 317.8 16.1
344(10) 0.00963 317.8 15.4
316(9) 0.01059 317.8 14.7
316(9) 0.01015 317.9 14.1
350(10) 0.00851 317.9 13.5
323(9) 0.01012 317.9 13.0
332(9) 0.01019 317.9 12.5
324(9) 0.01016 318.0 12.0
320(10) 0.00965 318.0 11.6
333(10) 0.00881 318.0 11.3
331(10) 0.00931 318.1 10.9
323(9) 0.01039 318.1 10.6
315(9) 0.01053 318.1 10.3
335(10) 0.00937 318.1 10.1
325(10) 0.00948 318.2 9.9
335(10) 0.00897 318.2 9.7
337(10) 0.01004 318.2 9.5
294(9) 0.01122 318.2 9.3
294(9) 0.01066 318.3 9.1
295(9) 0.01070 318.3 9.0
320(9) 0.01017 318.3 8.9
327(9) 0.01025 318.4 8.7
327(10) 0.00990 318.4 8.6
303(9) 0.01032 318.4 8.5
334(10) 0.00915 318.4 8.4
328(10) 0.00995 318.5 8.3
326(9) 0.01044 318.5 8.2
297(9) 0.01062 318.5 8.0
312(10) 0.00953 318.6 7.9
314(10) 0.00969 318.6 7.9
324(10) 0.01002 318.6 7.8
337(10) 0.01000 318.6 7.7
331(10) 0.00964 318.7 7.7
327(10) 0.00920 318.7 7.6
327(10) 0.00932 318.7 7.6
306(9) 0.01097 318.7 7.6
326(9) 0.01025 318.8 7.7
335(10) 0.00926 318.8 7.8
348(10) 0.00874 318.8 7.9
337(10) 0.00955 318.9 8.1
315(9) 0.01041 318.9 8.3
334(9) 0.01020 318.9 8.7
311(9) 0.01048 318.9 9.1
326(10) 0.00925 319.0 9.8
357(10) 0.00897 319.0 10.7
305(9) 0.01100 319.0 12.3
304(9) 0.01107 319.0 14.9
342(10) 0.00922 319.1 19.5
372(11) 0.00780 319.1 27.2
369(10) 0.00874 319.1 39.3
402(11) 0.00832 319.2 56.8
421(11) 0.00811 319.2 79.0
489(12) 0.00674 319.2 103.8
514(13) 0.00601 319.2 126.0
523(12) 0.00631 319.3 138.1
501(12) 0.00689 319.3 134.7
471(11) 0.00727 319.3 117.3
454(11) 0.00713 319.4 93.2
398(11) 0.00783 319.4 68.9
376(10) 0.00847 319.4 48.5
355(10) 0.00953 319.4 33.2
331(10) 0.00994 319.5 23.0
348(10) 0.00900 319.5 16.7
340(10) 0.00864 319.5 13.0
331(10) 0.00934 319.5 10.9
345(10) 0.00989 319.6 9.5
323(10) 0.01004 319.6 8.7
334(10) 0.00939 319.6 8.0
306(9) 0.01010 319.7 7.5
315(9) 0.01020 319.7 7.2
298(9) 0.01117 319.7 6.9
332(10) 0.00966 319.7 6.6
337(10) 0.00923 319.8 6.4
334(10) 0.00941 319.8 6.2
313(9) 0.01041 319.8 6.1
318(9) 0.01051 319.9 6.0
321(10) 0.00978 319.9 5.9
331(10) 0.00968 319.9 5.9
352(10) 0.00883 319.9 5.8
332(10) 0.00983 320.0 5.8
330(9) 0.01021 320.0 5.8
303(9) 0.01040 320.0 5.8
319(10) 0.00977 320.0 5.9
329(10) 0.00970 320.1 5.9
328(10) 0.01006 320.1 5.9
324(9) 0.01042 320.1 6.0
330(10) 0.00925 320.2 6.1
314(10) 0.00990 320.2 6.1
345(10) 0.00901 320.2 6.2
301(9) 0.01072 320.2 6.3
313(9) 0.01080 320.3 6.4
307(9) 0.01011 320.3 6.5
328(10) 0.00911 320.3 6.6
352(10) 0.00907 320.3 6.8
333(9) 0.01009 320.4 6.9
322(9) 0.01040 320.4 7.1
329(10) 0.00988 320.4 7.2
329(10) 0.00883 320.5 7.4
303(9) 0.01023 320.5 7.5
302(9) 0.01105 320.5 7.7
328(9) 0.01009 320.5 7.9
327(10) 0.00968 320.6 8.1
334(10) 0.00864 320.6 8.3
361(10) 0.00856 320.6 8.5
349(10) 0.00969 320.7 8.8
314(9) 0.01053 320.7 9.1
337(10) 0.00919 320.7 9.4
323(10) 0.00911 320.7 9.8
341(10) 0.00918 320.8 10.5
341(10) 0.00989 320.8 11.6
336(10) 0.00996 320.8 13.2
342(10) 0.00937 320.8 15.7
348(11) 0.00836 320.9 18.9
352(10) 0.00867 320.9 22.7
377(10) 0.00901 320.9 26.3
387(10) 0.00863 321.0 28.6
378(10) 0.00849 321.0 28.8
375(11) 0.00830 321.0 26.6
361(10) 0.00886 321.0 23.1
353(10) 0.00952 321.1 19.5
325(9) 0.01011 321.1 16.4
310(9) 0.01018 321.1 14.1
342(10) 0.00894 321.2 12.5
314(9) 0.01028 321.2 11.6
348(10) 0.00973 321.2 11.1
325(10) 0.01000 321.2 10.8
339(10) 0.00917 321.3 10.6
339(10) 0.00925 321.3 10.5
321(10) 0.00995 321.3 10.5
322(9) 0.01034 321.3 10.4
356(10) 0.00887 321.4 10.4
326(10) 0.00951 321.4 10.4
316(10) 0.01002 321.4 10.5
333(10) 0.00993 321.5 10.5
346(10) 0.00986 321.5 10.6
328(10) 0.00949 321.5 10.6
335(10) 0.00909 321.5 10.7
330(10) 0.00952 321.6 10.8
327(9) 0.01017 321.6 11.0
345(10) 0.00982 321.6 11.1
362(10) 0.00890 321.7 11.3
351(10) 0.00857 321.7 11.4
364(10) 0.00842 321.7 11.6
328(10) 0.01000 321.7 11.7
309(9) 0.01090 321.8 11.9
315(10) 0.00990 321.8 12.0
333(10) 0.00881 321.8 12.1
332(10) 0.00992 321.8 12.2
321(9) 0.01063 321.9 12.3
337(10) 0.01001 321.9 12.3
324(10) 0.00985 321.9 12.3
324(10) 0.00904 322.0 12.2
349(10) 0.00903 322.0 12.1
323(9) 0.01031 322.0 11.9
322(9) 0.01038 322.0 11.7
329(10) 0.00910 322.1 11.5
321(10) 0.00952 322.1 11.2
332(10) 0.00971 322.1 10.9
305(9) 0.01103 322.1 10.7
328(10) 0.01005 322.2 10.4
324(10) 0.00959 322.2 10.1
335(10) 0.00896 322.2 9.8
336(10) 0.00941 322.3 9.5
329(9) 0.01023 322.3 9.2
306(9) 0.01066 322.3 9.0
318(10) 0.00973 322.3 8.7
320(10) 0.00940 322.4 8.5
326(10) 0.00985 322.4 8.3
324(9) 0.01036 322.4 8.1
335(10) 0.00951 322.4 8.0
331(10) 0.00913 322.4 7.9
314(10) 0.00970 322.4 7.8
347(10) 0.00920 322.4 7.7
326(9) 0.01034 322.3 7.6
337(10) 0.00962 322.3 7.6
328(10) 0.00917 322.3 7.6
331(10) 0.00956 322.3 7.7
328(10) 0.00987 322.3 7.7
309(9) 0.01091 322.2 7.8
333(10) 0.00942 322.2 7.9
339(10) 0.00921 322.2 8.0
337(10) 0.00943 322.2 8.2
329(10) 0.00993 322.1 8.4
308(9) 0.01078 322.1 8.6
322(10) 0.00998 322.1 8.9
336(10) 0.00934 322.1 9.2
319(10) 0.00984 322.1 9.5
330(10) 0.01000 322.0 9.9
311(9) 0.01067 322.0 10.3
324(10) 0.00976 322.0 10.7
329(10) 0.00929 322.0 11.1
315(9) 0.01016 322.0 11.6
326(9) 0.01021 321.9 12.1
333(9) 0.01017 321.9 12.7
340(10) 0.00936 321.9 13.3
323(10) 0.00942 321.9 13.9
330(10) 0.00936 321.9 14.5
331(9) 0.01013 321.8 15.1
341(10) 0.00987 321.8 15.8
312(9) 0.01051 321.8 16.5
328(10) 0.00902 321.8 17.1
337(10) 0.00942 321.8 17.8
320(9) 0.01048 321.7 18.4
334(10) 0.01007 321.7 19.0
355(10) 0.00872 321.7 19.6
335(10) 0.00889 321.7 20.1
348(10) 0.00914 321.7 20.6
328(9) 0.01023 321.6 20.9
337(10) 0.00986 321.6 21.2
355(10) 0.00916 321.6 21.4
311(9) 0.01036 321.6 21.5
331(10) 0.00953 321.6 21.5
338(10) 0.00991 321.5 21.4
315(9) 0.01063 321.5 21.3
324(10) 0.00990 321.5 21.0
319(10) 0.00995 321.5 20.7
347(10) 0.00911 321.5 20.3
353(10) 0.00969 321.4 19.8
332(10) 0.00987 321.4 19.3
362(10) 0.00853 321.4 18.8
317(10) 0.00983 321.4 18.3
343(10) 0.00889 321.4 17.8
327(9) 0.01027 321.3 17.3
344(10) 0.00939 321.3 16.8
346(10) 0.00911 321.3 16.4
326(10) 0.00993 321.3 16.0
361(10) 0.00920 321.3 15.7
340(10) 0.00989 321.2 15.4
333(10) 0.00970 321.2 15.3
341(10) 0.00932 321.2 15.3
341(10) 0.00917 321.2 15.4
342(10) 0.00961 321.2 15.8
314(9) 0.01070 321.1 16.5
303(9) 0.01045 321.1 17.8
325(10) 0.00944 321.1 19.9
328(10) 0.00959 321.1 23.0
346(10) 0.00939 321.1 27.6
313(9) 0.01069 321.0 33.8
335(10) 0.00938 321.0 41.8
354(10) 0.00862 321.0 51.4
346(10) 0.00926 321.0 62.2
353(10) 0.00945 320.9 72.6
362(10) 0.00943 320.9 80.7
392(11) 0.00826 320.9 84.2
378(11) 0.00801 320.9 81.9
410(11) 0.00787 320.9 74.9
371(10) 0.00913 320.8 65.5
390(10) 0.00868 320.8 55.6
390(11) 0.00830 320.8 46.5
374(11) 0.00831 320.8 38.4
355(10) 0.00933 320.8 31.5
374(10) 0.00903 320.7 25.9
336(10) 0.01003 320.7 21.5
346(10) 0.00943 320.7 18.1
363(11) 0.00830 320.7 15.6
340(10) 0.00994 320.7 13.6
336(10) 0.01000 320.6 12.2
319(9) 0.01064 320.6 11.2
328(9) 0.01009 320.6 10.4
312(10) 0.00981 320.6 9.8
329(10) 0.00962 320.6 9.3
338(10) 0.01001 320.5 9.0
317(9) 0.01021 320.5 8.8
325(10) 0.00979 320.5 8.6
319(10) 0.00960 320.5 8.5
308(9) 0.01019 320.5 8.5
315(9) 0.01072 320.4 8.5
321(9) 0.01015 320.4 8.5
334(10) 0.00964 320.4 8.7
342(10) 0.00883 320.4 8.8
307(9) 0.01008 320.4 9.1
319(9) 0.01054 320.3 9.4
325(10) 0.00975 320.3 9.8
345(10) 0.00911 320.3 10.4
344(10) 0.00925 320.3 11.1
339(10) 0.00970 320.3 11.9
333(9) 0.01015 320.2 13.0
321(9) 0.01016 320.2 14.4
332(10) 0.00944 320.2 16.0
341(10) 0.00931 320.2 18.0
323(10) 0.00997 320.2 20.3
308(9) 0.01095 320.1 23.0
324(10) 0.00988 320.1 26.0
354(10) 0.00861 320.1 29.2
338(10) 0.00974 320.1 32.5
356(10) 0.00954 320.1 35.6
350(10) 0.00963 320.0 38.3
340(10) 0.00924 320.0 40.0
355(10) 0.00874 320.0 40.6
347(10) 0.00928 320.0 39.9
348(10) 0.00979 320.0 38.1
329(10) 0.01006 319.9 35.4
342(10) 0.00940 319.9 32.4
319(10) 0.00942 319.9 29.3
318(10) 0.01001 319.9 26.3
338(10) 0.01000 319.9 23.5
310(9) 0.01085 319.8 21.1
328(10) 0.00972 319.8 19.0
325(10) 0.00941 319.8 17.2
331(10) 0.00956 319.8 15.7
353(10) 0.00951 319.7 14.6
359(10) 0.00943 319.7 13.6
320(10) 0.01001 319.7 12.9
316(10) 0.00929 319.7 12.3
326(10) 0.00956 319.7 11.8
343(10) 0.00987 319.6 11.4
335(9) 0.01009 319.6 11.1
321(10) 0.00932 319.6 10.8
346(10) 0.00892 319.6 10.7
328(9) 0.01028 319.6 10.5
297(9) 0.01103 319.5 10.3
318(10) 0.00966 319.5 10.2
317(10) 0.00947 319.5 10.0
328(10) 0.00955 319.5 9.8
332(9) 0.01031 319.5 9.7
324(10) 0.00989 319.4 9.5
309(9) 0.01036 319.4 9.4
307(9) 0.01027 319.4 9.2
347(10) 0.00911 319.4 9.0
348(10) 0.00974 319.4 8.8
305(9) 0.01082 319.3 8.7
334(10) 0.00922 319.3 8.5
331(10) 0.00930 319.3 8.3
325(10) 0.00984 319.3 8.2
309(9) 0.01084 319.3 8.0
330(10) 0.00976 319.2 7.8
300(9) 0.01081 319.2 7.6
325(10) 0.00955 319.2 7.5
306(9) 0.01073 319.2 7.3
314(9) 0.01079 319.2 7.1
328(10) 0.00965 319.1 7.0
317(10) 0.00959 319.1 6.8
308(9) 0.01022 319.1 6.6
306(9) 0.01079 319.1 6.5
313(9) 0.01074 319.1 6.3
338(10) 0.00911 319.0 6.2
318(10) 0.00966 319.0 6.1
349(10) 0.00901 319.0 5.9
324(9) 0.01019 319.0 5.8
337(9) 0.01015 319.0 5.7
321(9) 0.01017 318.9 5.6
343(10) 0.00895 318.9 5.5
346(10) 0.00923 318.9 5.3
336(10) 0.00998 318.9 5.3
329(9) 0.01029 318.9 5.2
332(10) 0.00928 318.8 5.1
334(10) 0.00894 318.8 5.0
321(10) 0.01004 318.8 5.0
315(9) 0.01067 318.8 4.9
346(10) 0.00981 318.8 4.8
323(10) 0.00990 318.7 4.8
332(10) 0.00877 318.7 4.7
324(10) 0.00988 318.7 4.6
325(9) 0.01011 318.7 4.6
321(9) 0.01055 318.7 4.5
314(10) 0.00997 318.6 4.5
317(10) 0.00933 318.6 4.5
322(10) 0.00980 318.7 4.4
318(9) 0.01061 318.7 4.4
302(9) 0.01093 318.7 4.4
321(10) 0.00988 318.7 4.3
328(10) 0.00963 318.8 4.3
326(10) 0.00991 318.8 4.3
338(10) 0.01005 318.8 4.3
330(9) 0.01013 318.8 4.3
338(10) 0.00950 318.9 4.3
325(10) 0.00961 318.9 4.3
334(10) 0.00934 318.9 4.3
326(9) 0.01033 318.9 4.3
313(9) 0.01042 319.0 4.3
326(10) 0.00978 319.0 4.3
328(10) 0.00937 319.0 4.4
315(10) 0.00990 319.0 4.4
300(9) 0.01113 319.1 4.4
322(10) 0.01002 319.1 4.4
325(10) 0.00938 319.1 4.5
307(9) 0.01015 319.1 4.5
312(9) 0.01072 319.2 4.6
307(9) 0.01085 319.2 4.6
308(9) 0.01017 319.2 4.7
339(10) 0.00933 319.2 4.8
345(10) 0.00937 319.3 4.8
349(10) 0.00925 319.3 4.9
354(10) 0.00967 319.3 5.0
335(10) 0.00950 319.3 5.1
320(10) 0.00986 319.4 5.2
323(10) 0.01006 319.4 5.3
342(10) 0.00973 319.4 5.4
327(9) 0.01026 319.4 5.5
329(10) 0.00947 319.5 5.6
330(10) 0.00947 319.5 5.7
354(10) 0.00909 319.5 5.9
326(9) 0.01041 319.5 6.0
370(10) 0.00921 319.6 6.2
326(10) 0.00964 319.6 6.3
325(10) 0.00934 319.6 6.5
352(10) 0.00906 319.6 6.7
315(9) 0.01036 319.7 7.0
342(10) 0.01001 319.7 7.3
336(10) 0.00954 319.7 7.5
345(10) 0.00873 319.7 7.8
325(10) 0.00967 319.8 8.1
333(10) 0.01001 319.8 8.4
337(10) 0.01005 319.8 8.7
326(10) 0.00990 319.8 9.1
313(10) 0.00986 319.9 9.5
327(10) 0.00983 319.9 9.9
335(10) 0.01002 319.9 10.4
352(10) 0.00948 319.9 11.0
346(10) 0.00926 320.0 11.6
349(10) 0.00847 320.0 12.2
340(10) 0.00901 320.0 13.0
324(9) 0.01027 320.0 13.8
345(10) 0.00985 320.1 14.8
345(10) 0.00970 320.1 15.8
347(10) 0.00914 320.1 17.1
349(10) 0.00905 320.1 18.6
368(10) 0.00928 320.2 20.4
333(10) 0.01005 320.2 22.8
339(10) 0.00949 320.2 26.0
366(10) 0.00869 320.2 30.6
377(10) 0.00872 320.3 37.3
363(10) 0.00942 320.3 47.1
411(11) 0.00782 320.3 60.9
418(11) 0.00771 320.3 79.4
420(11) 0.00778 320.4 102.7
429(11) 0.00771 320.4 129.5
497(12) 0.00702 320.4 156.9
517(12) 0.00620 320.4 180.6
529(13) 0.00584 320.5 197.8
525(13) 0.00596 320.5 209.9
532(12) 0.00639 320.5 220.3
534(12) 0.00655 320.5 230.6
539(13) 0.00603 320.6 238.1
522(12) 0.00609 320.6 238.4
481(12) 0.00664 320.6 228.7
494(12) 0.00669 320.6 211.7
451(11) 0.00771 320.7 192.4
477(12) 0.00687 320.7 175.3
451(12) 0.00690 320.7 162.7
444(11) 0.00752 320.7 154.9
481(12) 0.00694 320.8 150.8
482(11) 0.00721 320.8 148.5
461(12) 0.00705 320.8 147.0
468(12) 0.00661 320.8 145.7
440(11) 0.00732 320.9 145.1
439(11) 0.00776 320.9 144.9
452(11) 0.00773 320.9 144.8
468(12) 0.00682 320.9 143.9
460(12) 0.00665 321.0 141.4
463(11) 0.00718 321.0 136.7
455(11) 0.00747 321.0 129.7
446(11) 0.00789 321.0 120.9
450(11) 0.00720 321.1 110.9
423(11) 0.00735 321.1 100.3
419(11) 0.00777 321.1 89.8
379(10) 0.00901 321.1 79.8
368(10) 0.00909 321.2 70.6
385(11) 0.00798 321.2 62.2
381(11) 0.00776 321.2 54.8
368(10) 0.00875 321.2 48.3
365(10) 0.00919 321.3 42.7
388(10) 0.00859 321.3 37.9
338(10) 0.00967 321.3 33.8
367(11) 0.00834 321.3 30.4
377(10) 0.00863 321.4 27.5
352(10) 0.00966 321.4 25.1
354(10) 0.00926 321.4 23.1
373(10) 0.00853 321.4 21.3
342(10) 0.00955 321.5 19.9
332(10) 0.00918 321.5 18.6
315(9) 0.01076 321.5 17.5
350(10) 0.00929 321.5 16.6
362(10) 0.00890 321.6 15.7
345(10) 0.00912 321.6 15.0
334(10) 0.00927 321.6 14.3
342(10) 0.00989 321.6 13.7
337(10) 0.00960 321.7 13.1
342(10) 0.00885 321.7 12.6
323(10) 0.00948 321.7 12.1
322(10) 0.00999 321.7 11.7
318(9) 0.01054 321.8 11.3
342(10) 0.00931 321.8 10.9
352(10) 0.00886 321.8 10.6
361(10) 0.00895 321.8 10.3
372(10) 0.00899 321.9 10.0
328(9) 0.01034 321.9 9.9
324(10) 0.00960 321.9 9.6
343(10) 0.00865 321.9 9.4
317(10) 0.01007 322.0 9.2
343(10) 0.00963 322.0 9.0
347(10) 0.00972 322.0 8.9
344(10) 0.00892 322.0 8.7
346(10) 0.00880 322.1 8.6
358(10) 0.00856 322.1 8.5
328(9) 0.01017 322.1 8.4
312(9) 0.01072 322.1 8.4
330(10) 0.00969 322.2 8.3
346(10) 0.00883 322.2 8.3
349(10) 0.00904 322.2 8.4
335(9) 0.01018 322.2 8.4
349(10) 0.00962 322.3 8.5
341(10) 0.00947 322.3 8.7
365(11) 0.00804 322.3 9.0
327(10) 0.00995 322.3 9.4
336(9) 0.01013 322.4 9.9
358(10) 0.00939 322.4 10.6
346(10) 0.00937 322.4 11.4
341(10) 0.00888 322.4 12.4
325(10) 0.00995 322.5 13.6
359(10) 0.00952 322.5 15.0
337(10) 0.00986 322.5 16.5
324(10) 0.00982 322.5 18.1
351(10) 0.00873 322.6 19.6
351(10) 0.00872 322.6 20.9
318(9) 0.01053 322.6 21.8
347(10) 0.00971 322.6 22.0
331(10) 0.00942 322.7 21.6
344(10) 0.00889 322.7 20.7
341(10) 0.00927 322.7 19.3
348(10) 0.00975 322.7 17.6
316(9) 0.01043 322.8 16.0
345(10) 0.00902 322.8 14.5
330(10) 0.00928 322.8 13.0
327(10) 0.00995 322.8 11.8
342(10) 0.00994 322.9 10.8
352(10) 0.00926 322.9 9.9
349(10) 0.00874 322.9 9.2
345(10) 0.00893 322.9 8.6
318(9) 0.01040 323.0 8.2
360(10) 0.00942 323.0 7.8
356(10) 0.00922 323.0 7.6
357(10) 0.00886 323.0 7.4
339(10) 0.00951 323.1 7.2
343(10) 0.00957 323.1 7.1
324(9) 0.01041 323.1 7.0
322(9) 0.01008 323.1 7.0
335(10) 0.00896 323.2 6.9
316(9) 0.01010 323.2 6.9
313(9) 0.01033 323.2 6.9
338(10) 0.01003 323.2 6.9
331(10) 0.00940 323.3 6.9
351(10) 0.00893 323.3 7.0
350(10) 0.00917 323.3 7.1
360(10) 0.00910 323.3 7.1
334(10) 0.01002 323.4 7.2
349(10) 0.00879 323.4 7.2
349(10) 0.00880 323.4 7.3
340(10) 0.00952 323.4 7.4
365(10) 0.00909 323.5 7.5
348(10) 0.00976 323.5 7.6
317(10) 0.00980 323.5 7.7
337(10) 0.00845 323.5 7.8
333(10) 0.00960 323.6 8.0
353(10) 0.00946 323.6 8.1
324(9) 0.01022 323.6 8.2
342(10) 0.00933 323.6 8.4
316(10) 0.00963 323.7 8.6
325(10) 0.00982 323.7 8.7
333(10) 0.00997 323.7 8.9
359(10) 0.00942 323.7 9.1
346(10) 0.00925 323.8 9.4
310(10) 0.00985 323.8 9.6
358(11) 0.00834 323.8 9.8
326(9) 0.01033 323.8 10.1
337(10) 0.00979 323.9 10.3
345(10) 0.00915 323.9 10.6
340(10) 0.00914 323.9 10.9
350(10) 0.00876 323.9 11.2
328(9) 0.01018 324.0 11.6
336(10) 0.00996 324.0 11.9
342(10) 0.00916 324.0 12.3
315(10) 0.00996 324.0 12.7
346(10) 0.00915 324.1 13.1
335(10) 0.01002 324.1 13.5
331(10) 0.00959 324.1 13.9
322(10) 0.00984 324.1 14.4
371(11) 0.00800 324.2 14.8
339(10) 0.00956 324.2 15.3
314(9) 0.01070 324.2 15.7
344(10) 0.00936 324.2 16.2
323(10) 0.00968 324.3 16.7
348(10) 0.00887 324.3 17.2
349(10) 0.00913 324.3 17.7
308(9) 0.01087 324.3 18.2
325(10) 0.00988 324.4 18.7
359(10) 0.00852 324.4 19.3
346(10) 0.00920 324.4 19.9
360(10) 0.00903 324.4 20.5
357(10) 0.00946 324.5 21.2
382(10) 0.00843 324.5 22.0
403(11) 0.00766 324.5 22.8
368(10) 0.00871 324.5 23.7
340(10) 0.00980 324.6 24.8
337(9) 0.01010 324.6 25.9
377(11) 0.00836 324.6 27.2
380(11) 0.00801 324.6 28.6
375(10) 0.00852 324.7 30.3
384(10) 0.00887 324.7 32.2
354(10) 0.00957 324.7 34.5
388(11) 0.00819 324.7 37.2
373(11) 0.00824 324.8 40.7
385(11) 0.00834 324.8 45.2
358(10) 0.00942 324.8 51.2
366(10) 0.00930 324.8 59.5
376(10) 0.00862 324.9 70.8
394(11) 0.00771 324.9 85.9
421(11) 0.00744 324.9 105.8
443(11) 0.00784 324.9 130.6
463(11) 0.00739 325.0 160.0
498(12) 0.00665 325.0 192.5
513(12) 0.00610 325.0 224.7
528(12) 0.00614 325.0 251.2
561(12) 0.00619 325.1 265.4
573(13) 0.00603 325.1 263.0
561(13) 0.00596 325.1 245.5
478(12) 0.00674 325.1 219.3
467(12) 0.00698 325.2 190.8
460(11) 0.00751 325.2 164.6
456(11) 0.00744 325.2 143.1
436(11) 0.00750 325.2 127.3
423(11) 0.00733 325.3 117.4
422(11) 0.00770 325.3 112.9
435(11) 0.00797 325.3 113.0
460(11) 0.00711 325.3 116.9
455(12) 0.00698 325.4 123.4
481(12) 0.00653 325.4 131.7
484(12) 0.00663 325.4 140.7
487(11) 0.00712 325.4 149.0
489(12) 0.00683 325.5 155.2
469(12) 0.00673 325.5 158.0
463(12) 0.00689 325.5 156.5
449(11) 0.00738 325.5 150.8
424(11) 0.00815 325.6 141.7
446(11) 0.00728 325.6 130.5
455(12) 0.00686 325.6 118.3
425(11) 0.00753 325.6 106.2
418(11) 0.00799 325.7 94.8
402(10) 0.00853 325.7 84.4
382(10) 0.00852 325.7 75.4
392(11) 0.00784 325.7 67.5
385(11) 0.00814 325.8 61.0
374(10) 0.00900 325.8 55.6
423(11) 0.00823 325.8 51.3
400(11) 0.00785 325.8 47.8
389(11) 0.00763 325.9 45.2
353(10) 0.00896 325.9 43.2
372(10) 0.00917 325.9 41.7
383(10) 0.00881 325.9 40.6
362(10) 0.00877 326.0 39.9
348(11) 0.00833 326.0 39.6
370(10) 0.00863 326.0 39.4
374(10) 0.00906 326.0 39.5
366(10) 0.00946 326.1 39.9
385(11) 0.00833 326.1 40.4
371(11) 0.00816 326.1 41.2
366(10) 0.00887 326.1 42.3
356(10) 0.00944 326.2 43.7
356(10) 0.00943 326.2 45.7
381(10) 0.00855 326.2 48.4
392(11) 0.00765 326.2 52.0
381(11) 0.00812 326.3 56.9
393(10) 0.00871 326.3 63.4
385(10) 0.00872 326.3 71.5
384(11) 0.00820 326.3 81.4
402(11) 0.00768 326.4 92.6
413(11) 0.00790 326.4 104.4
404(10) 0.00844 326.4 115.2
403(11) 0.00835 326.4 122.7
449(12) 0.00708 326.5 124.9
404(11) 0.00781 326.5 121.3
418(11) 0.00749 326.5 113.4
407(10) 0.00841 326.5 103.5
433(11) 0.00767 326.6 93.5
381(11) 0.00833 326.6 84.8
380(11) 0.00828 326.6 77.7
386(11) 0.00812 326.6 72.6
401(10) 0.00854 326.7 69.3
402(11) 0.00831 326.7 67.5
389(11) 0.00820 326.7 67.1
394(11) 0.00824 326.7 67.7
407(11) 0.00801 326.8 68.9
405(10) 0.00847 326.8 70.5
400(11) 0.00783 326.8 72.0
423(11) 0.00722 326.8 73.2
403(11) 0.00812 326.9 73.5
402(11) 0.00837 326.9 72.7
392(10) 0.00877 326.9 70.7
398(11) 0.00807 326.9 67.6
409(11) 0.00757 327.0 63.8
370(10) 0.00886 327.0 59.6
400(10) 0.00847 327.0 55.3
377(10) 0.00900 327.0 51.1
390(11) 0.00824 327.1 47.2
376(11) 0.00818 327.1 43.7
349(10) 0.00913 327.1 40.5
351(10) 0.00946 327.2 37.6
362(10) 0.00943 327.2 35.1
373(10) 0.00859 327.2 32.9
355(11) 0.00829 327.2 30.9
373(11) 0.00814 327.3 29.2
358(10) 0.00940 327.3 27.6
377(10) 0.00894 327.3 26.2
337(10) 0.00921 327.3 25.0
378(11) 0.00767 327.4 23.8
365(10) 0.00881 327.4 22.8
347(10) 0.00976 327.4 21.8
352(10) 0.00968 327.4 20.9
338(10) 0.00945 327.5 20.0
325(10) 0.00915 327.5 19.2
328(10) 0.00987 327.5 18.5
348(10) 0.00985 327.5 17.7
371(10) 0.00904 327.6 17.1
354(10) 0.00922 327.6 16.4
362(10) 0.00843 327.6 15.8
361(10) 0.00863 327.6 15.3
324(9) 0.01037 327.7 14.7
353(10) 0.00949 327.7 14.2
360(10) 0.00888 327.7 13.7
364(10) 0.00870 327.7 13.3
373(10) 0.00853 327.8 12.9
371(10) 0.00906 327.8 12.5
341(10) 0.00963 327.8 12.1
339(10) 0.00937 327.8 11.7
347(10) 0.00922 327.9 11.4
331(10) 0.00971 327.9 11.0
337(9) 0.01011 327.9 10.7
356(10) 0.00902 327.9 10.5
343(10) 0.00940 328.0 10.2
340(10) 0.00909 328.0 10.0
350(10) 0.00911 328.0 9.7
357(10) 0.00949 328.0 9.5
360(10) 0.00902 328.1 9.3
357(10) 0.00880 328.1 9.1
349(10) 0.00920 328.1 8.9
338(10) 0.01000 328.1 8.7
359(10) 0.00955 328.2 8.5
330(10) 0.00950 328.2 8.4
324(10) 0.00972 328.2 8.2
344(10) 0.00931 328.2 8.1
366(10) 0.00926 328.3 7.9
340(10) 0.00970 328.3 7.8
325(10) 0.00971 328.3 7.7
324(10) 0.00982 328.3 7.6
353(10) 0.00900 328.4 7.5
337(10) 0.00986 328.4 7.4
347(10) 0.00972 328.4 7.3
336(10) 0.00977 328.4 7.2
374(10) 0.00842 328.5 7.1
352(10) 0.00923 328.5 7.0
355(10) 0.00956 328.5 7.0
362(10) 0.00929 328.5 6.9
348(10) 0.00936 328.6 6.8
352(10) 0.00841 328.6 6.8
349(10) 0.00933 328.6 6.7
359(10) 0.00946 328.6 6.6
351(10) 0.00963 328.7 6.6
316(9) 0.01036 328.7 6.5
343(10) 0.00853 328.7 6.5
335(10) 0.00947 328.7 6.5
345(10) 0.00969 328.8 6.4
347(10) 0.00966 328.8 6.4
344(10) 0.00932 328.8 6.4
347(10) 0.00876 328.8 6.4
329(10) 0.00943 328.9 6.3
350(10) 0.00967 328.9 6.3
332(10) 0.00977 328.9 6.3
332(10) 0.00952 328.9 6.3
319(10) 0.00964 329.0 6.3
359(10) 0.00873 329.0 6.3
352(10) 0.00965 329.0 6.3
366(10) 0.00894 329.0 6.3
340(10) 0.00941 329.1 6.3
358(10) 0.00863 329.1 6.3
363(10) 0.00869 329.1 6.3
341(10) 0.00988 329.1 6.3
372(10) 0.00864 329.2 6.3
328(10) 0.00952 329.2 6.3
352(10) 0.00900 329.2 6.3
351(10) 0.00930 329.3 6.4
355(10) 0.00963 329.3 6.4
358(10) 0.00878 329.3 6.4
370(10) 0.00867 329.3 6.4
350(10) 0.00891 329.4 6.5
332(10) 0.00971 329.4 6.5
352(10) 0.00967 329.4 6.6
346(10) 0.00916 329.5 6.6
354(10) 0.00878 329.5 6.7
327(10) 0.00977 329.5 6.7
358(10) 0.00925 329.5 6.8
334(10) 0.01006 329.6 6.8
348(10) 0.00916 329.6 6.9
380(11) 0.00809 329.6 7.0
345(10) 0.00941 329.7 7.0
346(10) 0.00964 329.7 7.1
348(10) 0.00964 329.7 7.2
358(10) 0.00903 329.8 7.3
326(10) 0.00932 329.8 7.4
350(10) 0.00911 329.8 7.5
349(10) 0.00964 329.8 7.6
358(10) 0.00949 329.9 7.7
306(9) 0.01046 329.9 7.8
356(11) 0.00825 329.9 7.9
351(10) 0.00925 330.0 8.1
343(10) 0.00991 330.0 8.2
353(10) 0.00949 330.0 8.4
345(10) 0.00944 330.0 8.5
339(10) 0.00898 330.1 8.7
350(10) 0.00922 330.1 8.9
359(10) 0.00964 330.1 9.0
348(10) 0.00972 330.2 9.2
358(10) 0.00854 330.2 9.5
352(10) 0.00839 330.2 9.7
360(10) 0.00870 330.3 9.9
356(10) 0.00955 330.3 10.2
344(10) 0.00978 330.3 10.5
352(10) 0.00920 330.3 10.8
341(10) 0.00889 330.4 11.1
349(10) 0.00916 330.4 11.5
330(9) 0.01034 330.4 11.9
353(10) 0.00938 330.5 12.4
358(10) 0.00897 330.5 12.8
366(10) 0.00857 330.5 13.4
360(10) 0.00914 330.6 14.0
361(10) 0.00939 330.6 14.6
350(10) 0.00955 330.6 15.3
326(10) 0.00987 330.6 16.1
348(10) 0.00912 330.7 16.9
383(10) 0.00845 330.7 17.8
358(10) 0.00953 330.7 18.8
356(10) 0.00912 330.8 19.9
363(10) 0.00867 330.8 21.0
347(10) 0.00902 330.8 22.2
336(10) 0.00962 330.8 23.4
369(10) 0.00920 330.9 24.6
348(10) 0.00938 330.9 25.8
362(10) 0.00859 330.9 27.0
380(11) 0.00832 331.0 28.1
373(10) 0.00901 331.0 29.1
382(10) 0.00892 331.0 29.9
394(11) 0.00828 331.1 30.6
373(11) 0.00835 331.1 31.3
385(11) 0.00819 331.1 31.8
369(10) 0.00907 331.1 32.3
397(10) 0.00866 331.2 32.7
388(10) 0.00849 331.2 33.3
370(11) 0.00813 331.2 33.9
377(10) 0.00847 331.3 34.7
361(10) 0.00935 331.3 35.5
386(10) 0.00877 331.3 36.4
384(11) 0.00817 331.3 37.5
370(11) 0.00816 331.4 38.8
381(11) 0.00828 331.4 40.2
358(10) 0.00949 331.4 41.7
351(10) 0.00970 331.5 43.4
368(10) 0.00879 331.5 45.3
383(11) 0.00774 331.5 47.3
375(10) 0.00853 331.6 49.5
365(10) 0.00928 331.6 51.8
368(10) 0.00930 331.6 54.2
378(10) 0.00858 331.6 56.9
413(11) 0.00727 331.7 59.6
427(11) 0.00750 331.7 62.5
390(10) 0.00870 331.7 65.5
408(11) 0.00829 331.8 68.7
358(10) 0.00886 331.8 71.9
408(11) 0.00737 331.8 75.3
392(11) 0.00819 331.8 78.6
390(10) 0.00882 331.9 82.1
413(11) 0.00817 331.9 85.6
416(11) 0.00790 331.9 89.0
424(11) 0.00740 332.0 92.5
449(11) 0.00727 332.0 96.0
444(11) 0.00782 332.0 99.4
447(11) 0.00750 332.1 102.8
444(11) 0.00733 332.1 106.2
461(12) 0.00682 332.1 109.4
468(12) 0.00701 332.1 112.7
458(11) 0.00750 332.2 115.8
472(12) 0.00679 332.2 118.8
417(11) 0.00760 332.2 121.8
439(11) 0.00743 332.3 124.6
450(11) 0.00761 332.3 127.1
480(11) 0.00722 332.3 129.5
475(12) 0.00688 332.4 131.4
477(12) 0.00662 332.4 133.0
470(12) 0.00692 332.4 134.0
448(11) 0.00751 332.4 134.4
426(11) 0.00824 332.5 134.1
439(11) 0.00727 332.5 133.0
454(12) 0.00685 332.5 131.1
424(11) 0.00764 332.6 128.5
454(11) 0.00746 332.6 125.1
434(11) 0.00803 332.6 121.1
415(11) 0.00787 332.6 116.5
384(11) 0.00827 332.7 111.5
417(11) 0.00789 332.7 106.3
427(11) 0.00802 332.7 100.8
402(10) 0.00843 332.8 95.3
409(11) 0.00791 332.8 89.8
400(11) 0.00758 332.8 84.4
421(11) 0.00778 332.9 79.2
413(11) 0.00804 332.9 74.1
377(10) 0.00901 332.9 69.4
357(10) 0.00931 332.9 64.8
369(11) 0.00811 333.0 60.6
391(11) 0.00817 333.0 56.6
373(10) 0.00904 333.0 52.9
382(10) 0.00876 333.1 49.5
373(11) 0.00835 333.1 46.4
375(11) 0.00766 333.1 43.5
360(10) 0.00893 333.1 40.9
376(10) 0.00904 333.2 38.7
370(10) 0.00910 333.2 37.5
378(11) 0.00834 333.2 38.7
389(11) 0.00802 333.3 44.9
416(11) 0.00775 333.3 59.0
393(10) 0.00867 333.3 80.5
431(11) 0.00789 333.4 102.3
426(11) 0.00762 333.4 112.5
396(11) 0.00790 333.4 103.7
371(10) 0.00869 333.4 80.9
385(10) 0.00895 333.5 55.9
363(10) 0.00900 333.5 37.4
351(10) 0.00921 333.5 27.1
348(10) 0.00898 333.6 22.3
337(10) 0.00946 333.6 20.3
378(10) 0.00908 333.6 19.2
364(10) 0.00905 333.6 18.5
370(10) 0.00875 333.7 17.9
364(10) 0.00861 333.7 17.4
361(10) 0.00917 333.7 16.9
370(10) 0.00926 333.8 16.5
348(10) 0.00899 333.8 16.1
336(10) 0.00925 333.8 15.8
403(11) 0.00767 333.9 15.5
368(10) 0.00909 333.9 15.2
368(10) 0.00920 333.9 15.0
350(10) 0.00912 333.9 14.8
341(10) 0.00922 334.0 14.6
354(10) 0.00919 334.0 14.4
355(10) 0.00932 334.0 14.3
372(10) 0.00915 334.1 14.2
352(10) 0.00900 334.1 14.1
385(11) 0.00761 334.1 14.0
384(11) 0.00821 334.2 14.0
365(10) 0.00906 334.2 14.0
368(10) 0.00933 334.2 14.0
365(10) 0.00876 334.2 14.0
351(11) 0.00835 334.3 14.1
342(10) 0.00929 334.3 14.2
372(10) 0.00899 334.3 14.4
350(10) 0.00968 334.4 14.5
339(10) 0.00946 334.4 14.8
346(10) 0.00869 334.4 15.1
364(10) 0.00869 334.4 15.4
345(10) 0.00981 334.5 15.9
372(10) 0.00923 334.5 16.4
347(10) 0.00933 334.5 17.0
377(11) 0.00780 334.6 17.9
345(10) 0.00914 334.6 18.9
374(10) 0.00909 334.6 20.4
401(10) 0.00843 334.7 22.6
409(11) 0.00787 334.7 25.7
419(11) 0.00740 334.7 30.7
407(11) 0.00793 334.7 38.0
401(10) 0.00850 334.8 48.4
441(11) 0.00768 334.8 62.8
469(12) 0.00687 334.8 81.1
483(12) 0.00665 334.9 102.6
532(13) 0.00594 334.9 125.1
569(12) 0.00620 334.9 144.3
625(13) 0.00550 334.9 154.6
564(13) 0.00586 335.0 152.0
532(13) 0.00595 335.0 137.6
484(12) 0.00694 335.0 116.8
457(11) 0.00760 335.1 94.9
435(11) 0.00749 335.1 75.0
392(11) 0.00817 335.1 58.9
405(11) 0.00777 335.2 46.8
426(11) 0.00754 335.2 38.4
376(10) 0.00902 335.2 33.1
388(11) 0.00837 335.2 29.9
373(11) 0.00837 335.3 28.2
377(11) 0.00829 335.3 27.4
363(10) 0.00895 335.3 27.4
370(10) 0.00913 335.4 27.8
387(10) 0.00844 335.4 28.5
370(10) 0.00851 335.4 29.6
396(11) 0.00821 335.5 30.9
404(11) 0.00815 335.5 32.5
365(10) 0.00929 335.5 34.3
358(10) 0.00895 335.5 36.1
385(11) 0.00782 335.6 38.0
399(11) 0.00804 335.6 39.9
371(10) 0.00895 335.6 41.7
381(10) 0.00892 335.7 43.1
380(10) 0.00845 335.7 44.1
380(11) 0.00811 335.7 44.6
379(10) 0.00863 335.7 44.6
372(10) 0.00896 335.8 44.1
366(10) 0.00936 335.8 43.1
405(11) 0.00759 335.8 41.9
385(11) 0.00798 335.9 40.4
387(10) 0.00840 335.9 38.9
355(10) 0.00953 335.9 37.5
364(10) 0.00927 336.0 36.1
355(10) 0.00927 336.0 34.8
356(10) 0.00848 336.0 33.7
365(10) 0.00891 336.0 32.8
406(11) 0.00831 336.1 32.1
379(10) 0.00884 336.1 31.5
416(11) 0.00761 336.1 31.1
391(11) 0.00793 336.2 30.9
386(11) 0.00834 336.2 30.8
357(10) 0.00966 336.2 30.8
381(10) 0.00877 336.2 31.0
407(11) 0.00770 336.3 31.3
397(11) 0.00778 336.3 31.6
362(10) 0.00860 336.3 32.1
357(10) 0.00953 336.4 32.6
379(10) 0.00861 336.4 33.3
404(11) 0.00801 336.4 34.0
412(11) 0.00766 336.5 34.9
375(11) 0.00838 336.5 36.0
358(10) 0.00942 336.5 37.4
385(11) 0.00824 336.5 39.1
383(11) 0.00837 336.6 41.4
389(11) 0.00822 336.6 44.5
446(11) 0.00738 336.6 48.5
416(11) 0.00830 336.7 53.8
422(11) 0.00755 336.7 60.6
426(11) 0.00750 336.7 69.2
434(11) 0.00752 336.7 79.7
466(11) 0.00708 336.8 92.2
514(12) 0.00685 336.8 106.3
542(12) 0.00607 336.8 121.4
530(13) 0.00603 336.9 136.4
515(12) 0.00639 336.9 149.2
540(12) 0.00641 336.9 157.5
520(12) 0.00671 337.0 159.1
478(12) 0.00651 337.0 153.6
480(12) 0.00638 337.0 142.1
478(12) 0.00673 337.0 126.9
445(11) 0.00769 337.1 110.6
406(11) 0.00834 337.1 94.5
425(11) 0.00771 337.1 79.8
399(11) 0.00769 337.2 67.0
422(11) 0.00770 337.2 56.2
405(10) 0.00848 337.2 47.3
404(10) 0.00851 337.3 40.1
419(11) 0.00770 337.3 34.4
389(11) 0.00791 337.3 30.0
369(10) 0.00875 337.3 26.5
388(10) 0.00877 337.4 23.8
389(10) 0.00876 337.4 21.6
356(10) 0.00893 337.4 19.8
383(11) 0.00770 337.5 18.3
353(10) 0.00905 337.5 17.1
373(10) 0.00896 337.5 16.0
336(10) 0.00983 337.5 15.1
353(10) 0.00905 337.6 14.4
345(10) 0.00892 337.6 13.7
343(10) 0.00918 337.6 13.1
379(10) 0.00891 337.7 12.6
368(10) 0.00920 337.7 12.2
348(10) 0.00922 337.7 11.8
365(10) 0.00840 337.8 11.5
387(11) 0.00820 337.8 11.2
377(10) 0.00911 337.8 11.0
341(10) 0.00953 337.8 10.9
352(10) 0.00917 337.9 10.8
371(11) 0.00830 337.9 10.7
362(10) 0.00866 337.9 10.6
348(10) 0.00981 338.0 10.6
335(10) 0.00971 338.0 10.5
356(10) 0.00882 338.0 10.5
374(11) 0.00822 338.0 10.3
355(10) 0.00919 338.1 10.2
351(10) 0.00966 338.1 10.0
352(10) 0.00924 338.1 9.7
362(10) 0.00867 338.2 9.4
356(10) 0.00918 338.2 9.1
362(10) 0.00888 338.2 8.8
330(9) 0.01010 338.3 8.5
359(10) 0.00911 338.3 8.3
368(10) 0.00862 338.3 8.0
356(10) 0.00900 338.3 7.8
371(10) 0.00885 338.4 7.6
345(10) 0.00991 338.4 7.4
333(10) 0.00956 338.4 7.2
348(10) 0.00900 338.5 7.1
341(10) 0.00946 338.5 7.0
336(10) 0.00988 338.5 6.9
350(10) 0.00959 338.5 6.8
366(10) 0.00861 338.6 6.8
365(10) 0.00841 338.6 6.7
358(10) 0.00875 338.6 6.7
333(10) 0.00989 338.7 6.7
367(10) 0.00932 338.7 6.7
357(10) 0.00916 338.7 6.7
366(11) 0.00832 338.8 6.8
356(10) 0.00917 338.8 6.8
370(10) 0.00916 338.8 6.9
350(10) 0.00968 338.8 7.0
339(10) 0.00967 338.9 7.0
349(10) 0.00854 338.9 7.2
366(10) 0.00878 338.9 7.3
353(10) 0.00972 339.0 7.4
407(10) 0.00846 339.0 7.6
370(10) 0.00874 339.0 7.8
347(10) 0.00868 339.1 8.0
322(9) 0.01014 339.1 8.2
372(10) 0.00913 339.1 8.5
373(10) 0.00920 339.1 8.8
346(10) 0.00949 339.2 9.1
385(11) 0.00786 339.2 9.5
360(10) 0.00879 339.2 10.0
365(10) 0.00939 339.3 10.5
354(10) 0.00909 339.3 11.0
349(10) 0.00937 339.3 11.7
337(10) 0.00929 339.3 12.4
368(10) 0.00853 339.4 13.3
376(10) 0.00902 339.4 14.3
359(10) 0.00938 339.4 15.5
400(11) 0.00792 339.5 17.0
381(11) 0.00792 339.5 18.8
368(10) 0.00846 339.5 21.1
372(10) 0.00918 339.6 24.1
383(10) 0.00877 339.6 28.0
370(10) 0.00877 339.6 33.2
390(11) 0.00806 339.6 40.0
377(10) 0.00863 339.7 49.0
400(10) 0.00864 339.7 60.4
418(11) 0.00787 339.7 74.7
429(11) 0.00739 339.8 91.9
463(12) 0.00698 339.8 111.9
462(11) 0.00725 339.8 133.8
458(11) 0.00754 339.8 156.0
504(12) 0.00639 339.9 175.9
530(13) 0.00595 339.9 189.7
529(12) 0.00609 339.9 194.2
541(12) 0.00626 340.0 188.0
455(11) 0.00762 340.0 173.0
465(12) 0.00695 340.0 152.7
436(11) 0.00731 340.1 130.6
421(11) 0.00779 340.1 109.3
423(11) 0.00805 340.1 90.2
396(10) 0.00864 340.1 73.9
379(10) 0.00858 340.2 60.6
362(11) 0.00833 340.2 50.1
375(11) 0.00837 340.2 42.1
376(10) 0.00902 340.3 36.2
364(10) 0.00934 340.3 32.0
372(10) 0.00870 340.3 29.0
387(11) 0.00782 340.3 27.0
361(10) 0.00909 340.4 25.8
372(10) 0.00919 340.4 25.1
380(10) 0.00901 340.4 24.8
373(10) 0.00845 340.5 24.8
347(10) 0.00860 340.5 25.1
385(11) 0.00824 340.5 25.6
363(10) 0.00937 340.6 26.3
347(10) 0.00968 340.6 27.0
369(10) 0.00866 340.6 27.8
384(11) 0.00808 340.6 28.4
367(10) 0.00854 340.7 28.9
361(10) 0.00936 340.7 29.2
364(10) 0.00909 340.7 29.1
332(10) 0.00957 340.8 28.7
363(11) 0.00814 340.8 27.9
347(10) 0.00926 340.8 26.9
351(10) 0.00971 340.9 25.6
356(10) 0.00919 340.9 24.2
358(10) 0.00886 340.9 22.6
375(11) 0.00836 340.9 21.1
373(10) 0.00872 341.0 19.5
348(10) 0.00966 341.0 18.1
354(10) 0.00914 341.0 16.7
355(10) 0.00889 341.1 15.4
365(10) 0.00885 341.1 14.2
374(10) 0.00852 341.1 13.1
348(10) 0.00980 341.1 12.2
360(10) 0.00918 341.2 11.3
363(10) 0.00855 341.2 10.5
357(10) 0.00885 341.2 9.8
338(10) 0.00951 341.3 9.2
357(10) 0.00954 341.3 8.7
353(10) 0.00910 341.3 8.2
357(10) 0.00860 341.4 7.8
386(11) 0.00804 341.4 7.5
373(10) 0.00885 341.4 7.2
341(10) 0.00998 341.4 6.9
339(10) 0.00928 341.5 6.7
347(10) 0.00890 341.5 6.4
355(10) 0.00903 341.5 6.3
360(10) 0.00935 341.6 6.1
375(10) 0.00913 341.6 5.9
341(10) 0.00945 341.6 5.8
350(10) 0.00863 341.6 5.7
320(10) 0.01007 341.7 5.6
355(10) 0.00951 341.7 5.5
399(10) 0.00858 341.7 5.4
380(11) 0.00825 341.8 5.3
344(10) 0.00866 341.8 5.2
360(10) 0.00875 341.8 5.2
334(10) 0.01001 341.9 5.1
347(10) 0.00969 341.9 5.1
341(10) 0.00912 341.9 5.0
354(11) 0.00827 341.9 5.0
392(11) 0.00827 342.0 4.9
341(10) 0.00993 342.0 4.9
373(10) 0.00912 342.0 4.9
373(10) 0.00853 342.1 4.9
343(10) 0.00878 342.1 4.9
345(10) 0.00946 342.1 4.8
382(10) 0.00881 342.1 4.8
351(10) 0.00975 342.2 4.8
352(10) 0.00883 342.2 4.8
332(10) 0.00896 342.2 4.8
353(10) 0.00896 342.3 4.8
351(10) 0.00968 342.3 4.8
342(10) 0.00934 342.3 4.8
361(10) 0.00857 342.4 4.9
361(10) 0.00854 342.4 4.9
355(10) 0.00901 342.4 4.9
337(10) 0.01006 342.4 4.9
339(10) 0.00966 342.5 5.0
317(9) 0.01012 342.5 5.0
355(10) 0.00859 342.5 5.0
354(10) 0.00907 342.6 5.1
350(10) 0.00972 342.6 5.1
339(10) 0.00983 342.6 5.1
385(11) 0.00798 342.7 5.2
358(10) 0.00862 342.7 5.2
362(10) 0.00894 342.7 5.3
379(10) 0.00893 342.8 5.3
360(10) 0.00878 342.8 5.4
362(10) 0.00856 342.8 5.5
368(10) 0.00858 342.9 5.5
334(10) 0.00978 342.9 5.6
350(10) 0.00969 342.9 5.7
342(10) 0.00942 343.0 5.8
366(10) 0.00841 343.0 5.9
366(10) 0.00877 343.0 5.9
337(10) 0.00999 343.1 6.0
372(10) 0.00906 343.1 6.2
366(10) 0.00860 343.1 6.3
369(11) 0.00821 343.2 6.4
379(11) 0.00830 343.2 6.5
369(10) 0.00903 343.2 6.6
336(10) 0.01003 343.3 6.8
342(10) 0.00903 343.3 6.9
348(10) 0.00858 343.3 7.1
335(10) 0.00976 343.4 7.2
338(10) 0.00995 343.4 7.4
339(10) 0.00995 343.4 7.6
348(10) 0.00908 343.5 7.7
337(10) 0.00872 343.5 7.9
345(10) 0.00898 343.5 8.2
339(9) 0.01015 343.6 8.4
366(10) 0.00913 343.6 8.6
341(10) 0.00919 343.6 8.9
341(10) 0.00876 343.7 9.2
372(10) 0.00865 343.7 9.5
360(10) 0.00949 343.7 9.8
369(10) 0.00932 343.8 10.2
349(10) 0.00939 343.8 10.6
367(11) 0.00818 343.8 11.0
375(10) 0.00842 343.9 11.4
325(9) 0.01045 343.9 11.9
361(10) 0.00933 343.9 12.4
368(10) 0.00883 344.0 13.0
372(11) 0.00832 344.0 13.6
348(10) 0.00926 344.0 14.3
366(10) 0.00930 344.1 15.0
374(10) 0.00897 344.1 15.7
369(10) 0.00850 344.1 16.5
342(10) 0.00925 344.2 17.4
343(10) 0.00930 344.2 18.4
361(10) 0.00937 344.2 19.4
356(10) 0.00910 344.2 20.4
370(11) 0.00815 344.3 21.6
352(10) 0.00870 344.3 22.8
368(10) 0.00895 344.3 24.1
386(10) 0.00885 344.4 25.4
366(10) 0.00862 344.4 26.8
373(11) 0.00834 344.4 28.3
390(11) 0.00831 344.5 29.8
378(10) 0.00887 344.5 31.4
371(10) 0.00917 344.5 33.0
390(10) 0.00848 344.6 34.6
409(11) 0.00754 344.6 36.2
381(11) 0.00837 344.6 37.9
373(10) 0.00891 344.7 39.6
365(10) 0.00942 344.7 41.2
364(10) 0.00891 344.7 42.9
378(11) 0.00826 344.8 44.6
380(10) 0.00847 344.8 46.2
377(10) 0.00891 344.8 47.8
381(10) 0.00900 344.9 49.4
390(11) 0.00808 344.9 51.0
358(10) 0.00865 344.9 52.4
424(11) 0.00751 345.0 53.8
373(10) 0.00913 345.0 55.0
390(10) 0.00873 345.0 56.1
366(10) 0.00852 345.1 57.0
412(12) 0.00704 345.1 57.7
388(11) 0.00818 345.1 58.2
395(10) 0.00865 345.2 58.5
415(11) 0.00826 345.2 58.5
397(11) 0.00791 345.2 58.3
387(11) 0.00784 345.3 57.8
386(10) 0.00848 345.3 57.1
386(10) 0.00874 345.3 56.3
359(10) 0.00934 345.4 55.3
395(11) 0.00783 345.4 54.1
407(11) 0.00749 345.4 52.9
369(10) 0.00884 345.5 51.7
372(10) 0.00919 345.5 50.4
376(10) 0.00888 345.5 49.2
368(10) 0.00898 345.6 48.1
414(12) 0.00703 345.6 47.0
381(11) 0.00798 345.6 46.1
380(10) 0.00907 345.7 45.4
363(10) 0.00904 345.7 44.8
405(11) 0.00781 345.7 44.4
389(11) 0.00829 345.8 44.3
402(11) 0.00805 345.8 44.4
395(10) 0.00875 345.8 44.7
414(11) 0.00788 345.9 45.3
408(11) 0.00792 345.9 46.1
413(11) 0.00786 345.9 47.1
450(11) 0.00739 346.0 48.4
423(11) 0.00821 346.0 49.7
419(11) 0.00785 346.0 51.1
403(11) 0.00773 346.1 52.5
452(11) 0.00716 346.1 53.6
437(11) 0.00764 346.1 54.5
423(11) 0.00812 346.2 54.9
415(11) 0.00776 346.2 54.9
404(11) 0.00788 346.2 54.3
422(11) 0.00778 346.2 53.4
408(11) 0.00828 346.3 52.1
411(11) 0.00835 346.3 50.6
404(11) 0.00829 346.3 49.1
405(11) 0.00774 346.4 47.7
393(11) 0.00836 346.4 46.5
420(11) 0.00781 346.4 45.5
416(11) 0.00831 346.5 44.9
410(11) 0.00795 346.5 44.5
395(11) 0.00780 346.5 44.5
395(11) 0.00821 346.6 44.5
421(11) 0.00820 346.6 44.6
399(10) 0.00849 346.6 44.5
429(11) 0.00761 346.7 44.3
379(11) 0.00809 346.7 43.9
393(11) 0.00821 346.7 43.6
395(10) 0.00870 346.8 43.4
427(11) 0.00799 346.8 43.4
379(11) 0.00825 346.8 43.6
409(11) 0.00726 346.9 44.0
401(11) 0.00801 346.9 44.6
412(10) 0.00841 346.9 45.3
439(11) 0.00765 347.0 46.1
418(11) 0.00783 347.0 46.9
441(12) 0.00690 347.0 47.7
359(10) 0.00902 347.1 48.6
402(10) 0.00851 347.1 49.3
421(11) 0.00798 347.1 50.0
424(11) 0.00771 347.2 50.6
406(11) 0.00772 347.2 51.0
432(11) 0.00754 347.2 51.4
437(11) 0.00794 347.3 51.6
395(11) 0.00831 347.3 51.6
405(11) 0.00793 347.3 51.5
407(11) 0.00771 347.4 51.2
387(11) 0.00836 347.4 50.8
422(11) 0.00824 347.4 50.3
411(11) 0.00821 347.5 49.6
401(11) 0.00793 347.5 48.8
430(11) 0.00734 347.5 47.9
427(11) 0.00764 347.6 46.9
393(10) 0.00867 347.6 45.8
384(11) 0.00837 347.6 44.7
388(11) 0.00824 347.7 43.5
409(11) 0.00775 347.7 42.3
403(11) 0.00814 347.7 41.1
381(10) 0.00897 347.8 39.9
368(10) 0.00872 347.8 38.7
401(11) 0.00792 347.8 37.5
371(10) 0.00887 347.9 36.3
407(11) 0.00801 347.9 35.2
416(11) 0.00837 347.9 34.0
387(11) 0.00833 348.0 32.9
385(11) 0.00802 348.0 31.8
401(11) 0.00785 348.0 30.8
389(10) 0.00870 348.1 29.8
362(10) 0.00941 348.1 28.8
363(10) 0.00885 348.1 27.9
362(11) 0.00820 348.2 27.0
363(10) 0.00861 348.2 26.1
388(10) 0.00867 348.2 25.3
368(10) 0.00931 348.3 24.5
388(11) 0.00819 348.3 23.8
385(11) 0.00799 348.3 23.0
384(10) 0.00841 348.3 22.3
404(11) 0.00838 348.4 21.6
346(10) 0.00978 348.4 21.0
381(11) 0.00816 348.4 20.3
361(11) 0.00818 348.5 19.7
367(10) 0.00865 348.5 19.1
355(10) 0.00955 348.5 18.6
383(10) 0.00875 348.6 18.0
359(10) 0.00908 348.6 17.5
367(11) 0.00829 348.6 17.1
363(10) 0.00879 348.7 16.6
364(10) 0.00941 348.7 16.2
385(10) 0.00861 348.7 15.7
369(10) 0.00863 348.8 15.3
364(11) 0.00835 348.8 14.9
381(10) 0.00841 348.8 14.6
364(10) 0.00929 348.9 14.2
377(10) 0.00888 348.9 13.9
384(11) 0.00837 348.9 13.6
365(10) 0.00853 349.0 13.3
358(10) 0.00884 349.0 13.0
381(10) 0.00900 349.0 12.8
377(10) 0.00866 349.1 12.5
348(10) 0.00898 349.1 12.3
360(10) 0.00848 349.1 12.1
345(10) 0.00925 349.2 11.9
371(10) 0.00921 349.2 11.7
370(10) 0.00893 349.2 11.5
369(10) 0.00873 349.3 11.4
373(11) 0.00837 349.3 11.2
342(10) 0.00957 349.3 11.1
357(10) 0.00951 349.4 11.0
345(10) 0.00929 349.4 10.9
356(10) 0.00886 349.4 10.9
365(10) 0.00879 349.5 10.8
349(10) 0.00955 349.5 10.8
329(9) 0.01030 349.5 10.8
359(10) 0.00885 349.6 10.8
360(10) 0.00845 349.6 10.9
336(10) 0.00945 349.6 10.9
355(10) 0.00928 349.7 11.0
353(10) 0.00958 349.7 11.1
355(10) 0.00936 349.7 11.3
389(11) 0.00795 349.8 11.4
378(10) 0.00855 349.8 11.6
357(10) 0.00927 349.8 11.8
354(10) 0.00956 349.9 12.0
353(10) 0.00911 349.9 12.2
385(11) 0.00759 349.9 12.4
370(10) 0.00846 350.0 12.6
340(10) 0.00983 350.0 12.8
336(10) 0.00996 350.0 13.0
373(10) 0.00843 350.1 13.2
361(10) 0.00854 350.1 13.4
396(11) 0.00812 350.1 13.6
362(10) 0.00943 350.2 13.8
372(10) 0.00911 350.2 14.0
361(10) 0.00906 350.2 14.2
385(11) 0.00762 350.3 14.5
370(10) 0.00868 350.3 14.8
335(10) 0.01002 350.3 15.2
368(10) 0.00914 350.3 15.6
357(10) 0.00922 350.4 16.2
357(10) 0.00874 350.4 16.8
366(10) 0.00914 350.4 17.7
372(10) 0.00924 350.5 18.8
349(10) 0.00924 350.5 20.1
388(11) 0.00827 350.5 21.7
368(11) 0.00838 350.6 23.5
367(10) 0.00859 350.6 25.6
381(10) 0.00905 350.6 28.0
398(11) 0.00833 350.7 30.6
386(10) 0.00842 350.7 33.2
403(11) 0.00785 350.7 35.7
394(11) 0.00802 350.8 37.8
393(10) 0.00871 350.8 39.3
389(10) 0.00839 350.8 39.8
359(10) 0.00881 350.9 39.3
378(11) 0.00812 350.9 37.9
358(10) 0.00889 350.9 35.7
377(10) 0.00904 351.0 33.1
368(10) 0.00894 351.0 30.3
387(11) 0.00822 351.0 27.5
372(10) 0.00862 351.1 24.9
373(10) 0.00889 351.1 22.5
341(10) 0.00996 351.1 20.4
354(10) 0.00876 351.2 18.6
353(10) 0.00886 351.2 17.0
356(10) 0.00895 351.2 15.7
352(10) 0.00935 351.3 14.7
385(10) 0.00895 351.3 13.8
337(10) 0.00932 351.3 13.2
374(11) 0.00809 351.4 12.7
386(10) 0.00841 351.4 12.3
353(10) 0.00948 351.4 12.0
394(10) 0.00875 351.5 11.8
367(10) 0.00884 351.5 11.7
370(11) 0.00800 351.5 11.7
364(10) 0.00882 351.6 11.7
372(10) 0.00911 351.6 11.8
371(10) 0.00922 351.6 11.9
364(10) 0.00843 351.7 12.0
338(10) 0.00872 351.7 12.2
358(10) 0.00883 351.7 12.5
369(10) 0.00926 351.8 12.8
352(10) 0.00938 351.8 13.1
374(10) 0.00851 351.8 13.6
388(11) 0.00778 351.9 14.0
367(10) 0.00895 351.9 14.6
379(10) 0.00901 351.9 15.2
383(10) 0.00879 352.0 16.0
356(10) 0.00902 352.0 16.9
365(11) 0.00831 352.0 18.0
374(10) 0.00857 352.1 19.2
370(10) 0.00930 352.1 20.8
368(10) 0.00904 352.1 22.7
374(10) 0.00844 352.2 25.0
393(11) 0.00799 352.2 27.8
411(11) 0.00785 352.2 31.2
399(10) 0.00856 352.3 35.4
415(11) 0.00817 352.3 40.3
410(11) 0.00788 352.3 46.1
395(11) 0.00811 352.3 52.9
391(11) 0.00832 352.4 60.5
412(11) 0.00838 352.4 69.1
465(11) 0.00708 352.4 78.2
442(11) 0.00722 352.5 87.6
435(11) 0.00735 352.5 96.6
479(12) 0.00681 352.5 104.4
455(11) 0.00760 352.6 110.0
449(11) 0.00753 352.6 112.5
484(12) 0.00641 352.6 111.6
490(12) 0.00642 352.7 107.4
453(11) 0.00747 352.7 100.7
499(12) 0.00698 352.7 92.4
466(11) 0.00714 352.8 83.5
441(11) 0.00720 352.8 74.6
399(11) 0.00830 352.8 66.3
401(11) 0.00834 352.9 58.8
393(10) 0.00867 352.9 52.1
395(11) 0.00811 352.9 46.4
392(11) 0.00794 353.0 41.6
379(10) 0.00877 353.0 37.6
381(10) 0.00888 353.0 34.3
392(10) 0.00878 353.1 31.7
363(10) 0.00901 353.1 29.6
373(11) 0.00802 353.1 28.0
356(10) 0.00896 353.2 26.7
388(10) 0.00854 353.2 25.7
354(10) 0.00977 353.2 24.9
362(10) 0.00888 353.3 24.3
381(11) 0.00788 353.3 23.9
423(11) 0.00741 353.3 23.5
356(10) 0.00959 353.4 23.2
398(10) 0.00855 353.4 23.0
392(11) 0.00806 353.4 22.9
358(11) 0.00834 353.5 22.8
358(10) 0.00869 353.5 22.7
389(10) 0.00868 353.5 22.6
388(10) 0.00878 353.6 22.6
385(11) 0.00824 353.6 22.5
376(11) 0.00803 353.6 22.5
390(11) 0.00794 353.7 22.5
373(10) 0.00911 353.7 22.5
377(10) 0.00891 353.7 22.5
373(10) 0.00876 353.8 22.5
379(11) 0.00803 353.8 22.5
353(10) 0.00892 353.8 22.4
358(10) 0.00945 353.9 22.4
371(10) 0.00900 353.9 22.4
352(10) 0.00895 353.9 22.3
375(11) 0.00833 354.0 22.3
378(10) 0.00850 354.0 22.2
371(10) 0.00910 354.0 22.2
367(10) 0.00920 354.1 22.1
365(10) 0.00850 354.1 22.0
368(10) 0.00875 354.1 21.9
390(10) 0.00847 354.2 21.8
358(10) 0.00943 354.2 21.7
385(11) 0.00838 354.2 21.6
367(10) 0.00839 354.3 21.5
358(10) 0.00866 354.3 21.3
363(10) 0.00874 354.3 21.2
374(10) 0.00919 354.4 21.0
389(10) 0.00846 354.4 20.9
378(11) 0.00833 354.4 20.7
378(10) 0.00850 354.4 20.5
401(11) 0.00821 354.5 20.4
359(10) 0.00948 354.5 20.2
374(10) 0.00857 354.5 20.0
385(11) 0.00798 354.6 19.8
391(11) 0.00822 354.6 19.6
372(10) 0.00872 354.6 19.3
371(10) 0.00923 354.7 19.1
354(10) 0.00893 354.7 18.9
342(10) 0.00893 354.7 18.7
387(11) 0.00813 354.8 18.5
366(10) 0.00918 354.8 18.2
362(10) 0.00934 354.8 18.0
372(10) 0.00861 354.9 17.8
359(10) 0.00851 354.9 17.6
362(10) 0.00867 354.9 17.4
349(10) 0.00975 355.0 17.1
367(10) 0.00916 355.0 16.9
390(11) 0.00812 355.0 16.7
368(11) 0.00808 355.1 16.5
377(10) 0.00847 355.1 16.3
360(10) 0.00945 355.1 16.1
334(10) 0.01004 355.2 15.9
332(10) 0.00968 355.2 15.7
403(11) 0.00716 355.2 15.6
386(11) 0.00816 355.3 15.4
371(10) 0.00912 355.3 15.2
368(10) 0.00910 355.3 15.1
371(10) 0.00864 355.4 15.0
365(10) 0.00858 355.4 14.8
379(11) 0.00833 355.4 14.7
358(10) 0.00940 355.5 14.6
369(10) 0.00880 355.5 14.5
349(10) 0.00894 355.5 14.4
354(10) 0.00865 355.6 14.4
369(10) 0.00839 355.6 14.3
369(10) 0.00917 355.6 14.3
357(10) 0.00927 355.7 14.2
361(10) 0.00881 355.7 14.2
350(10) 0.00885 355.7 14.2
355(10) 0.00887 355.8 14.2
355(10) 0.00953 355.8 14.2
355(10) 0.00900 355.8 14.2
369(10) 0.00855 355.9 14.2
362(10) 0.00882 355.9 14.3
354(10) 0.00904 355.9 14.3
366(10) 0.00930 356.0 14.4
361(10) 0.00906 356.0 14.5
374(11) 0.00818 356.0 14.6
368(10) 0.00852 356.1 14.6
378(10) 0.00861 356.1 14.8
375(10) 0.00908 356.1 14.9
377(10) 0.00858 356.2 15.0
365(10) 0.00857 356.2 15.1
355(10) 0.00913 356.2 15.2
378(10) 0.00861 356.3 15.4
348(10) 0.00981 356.3 15.5
384(11) 0.00796 356.3 15.6
351(10) 0.00884 356.4 15.7
379(10) 0.00878 356.4 15.8
387(10) 0.00866 356.4 15.9
357(10) 0.00952 356.4 16.0
352(10) 0.00908 356.5 16.1
358(10) 0.00843 356.5 16.2
347(10) 0.00926 356.5 16.3
363(10) 0.00918 356.6 16.4
389(10) 0.00882 356.6 16.4
363(10) 0.00871 356.6 16.4
358(11) 0.00837 356.7 16.4
355(10) 0.00919 356.7 16.4
383(10) 0.00884 356.7 16.4
389(10) 0.00881 356.8 16.3
358(10) 0.00888 356.8 16.2
365(11) 0.00830 356.8 16.1
374(10) 0.00859 356.9 16.0
361(10) 0.00934 356.9 15.8
329(9) 0.01033 356.9 15.6
377(11) 0.00804 357.0 15.4
358(10) 0.00839 357.0 15.2
356(10) 0.00910 357.0 14.9
342(10) 0.00984 357.1 14.7
373(10) 0.00892 357.1 14.4
346(10) 0.00903 357.1 14.1
370(11) 0.00821 357.2 13.8
362(10) 0.00873 357.2 13.5
360(10) 0.00945 357.2 13.2
359(10) 0.00922 357.3 12.9
381(11) 0.00829 357.3 12.6
346(10) 0.00930 357.3 12.4
346(10) 0.00907 357.4 12.1
343(10) 0.00994 357.4 11.8
387(10) 0.00867 357.4 11.5
367(10) 0.00863 357.5 11.2
364(10) 0.00843 357.5 11.0
379(10) 0.00867 357.5 10.7
368(10) 0.00920 357.6 10.4
371(10) 0.00894 357.6 10.2
343(10) 0.00927 357.6 10.0
351(10) 0.00929 357.7 9.8
377(10) 0.00879 357.7 9.6
344(10) 0.00990 357.7 9.4
372(10) 0.00854 357.8 9.2
371(10) 0.00841 357.8 9.1
339(10) 0.00963 357.8 8.9
364(10) 0.00921 357.9 8.8
345(10) 0.00984 357.9 8.7
370(10) 0.00849 357.9 8.6
367(10) 0.00840 358.0 8.5
360(10) 0.00908 358.0 8.5
379(10) 0.00903 358.0 8.5
382(10) 0.00891 358.1 8.5
369(10) 0.00899 358.1 8.5
350(10) 0.00917 358.1 8.7
382(11) 0.00824 358.2 8.8
354(10) 0.00944 358.2 9.1
358(10) 0.00938 358.2 9.5
351(10) 0.00898 358.3 10.1
363(11) 0.00829 358.3 11.1
371(10) 0.00873 358.3 12.4
382(10) 0.00855 358.4 14.4
365(10) 0.00932 358.4 17.0
407(11) 0.00786 358.4 20.4
398(11) 0.00781 358.4 24.5
394(11) 0.00829 358.5 29.1
402(10) 0.00839 358.5 33.8
412(11) 0.00830 358.5 37.7
419(11) 0.00766 358.6 39.7
396(11) 0.00769 358.6 39.2
382(10) 0.00870 358.6 36.3
401(10) 0.00850 358.7 32.0
386(10) 0.00853 358.7 27.2
367(10) 0.00875 358.7 22.7
395(11) 0.00753 358.8 18.8
376(10) 0.00842 358.8 15.7
399(10) 0.00857 358.8 13.3
366(10) 0.00910 358.9 11.5
349(10) 0.00927 358.9 10.3
345(10) 0.00883 358.9 9.4
357(10) 0.00873 359.0 8.9
365(10) 0.00929 359.0 8.5
351(10) 0.00925 359.0 8.2
375(11) 0.00828 359.1 8.0
365(10) 0.00856 359.1 7.9
371(10) 0.00873 359.1 7.8
338(10) 0.00993 359.2 7.8
352(10) 0.00911 359.2 7.8
365(10) 0.00860 359.2 7.8
360(10) 0.00863 359.3 7.8
362(10) 0.00904 359.3 7.9
351(10) 0.00963 359.3 8.0
344(10) 0.00904 359.4 8.1
375(11) 0.00796 359.4 8.2
357(10) 0.00887 359.4 8.3
354(10) 0.00931 359.5 8.5
328(9) 0.01030 359.5 8.7
371(10) 0.00843 359.5 8.9
371(10) 0.00839 359.6 9.1
352(10) 0.00922 359.6 9.4
350(10) 0.00963 359.6 9.6
372(10) 0.00907 359.7 9.9
362(10) 0.00861 359.7 10.3
346(10) 0.00909 359.7 10.6
354(10) 0.00919 359.8 11.0
362(10) 0.00942 359.8 11.4
370(10) 0.00916 359.8 11.8
372(10) 0.00866 359.9 12.3
379(11) 0.00791 359.9 12.7
380(10) 0.00859 359.9 13.3
362(10) 0.00943 360.0 13.8
351(10) 0.00955 360.0 14.4
340(10) 0.00938 360.0 15.0
355(10) 0.00846 360.1 15.6
360(10) 0.00881 360.1 16.3
365(10) 0.00937 360.1 16.9
356(10) 0.00936 360.2 17.6
373(10) 0.00861 360.2 18.4
369(11) 0.00823 360.2 19.1
366(10) 0.00876 360.3 19.9
355(10) 0.00974 360.3 20.6
365(10) 0.00901 360.3 21.3
387(10) 0.00852 360.4 22.0
369(10) 0.00854 360.4 22.7
384(11) 0.00834 360.4 23.3
386(10) 0.00890 360.4 23.9
390(10) 0.00843 360.5 24.4
374(10) 0.00853 360.5 24.8
368(10) 0.00864 360.5 25.2
390(11) 0.00799 360.6 25.4
367(10) 0.00925 360.6 25.5
386(10) 0.00859 360.6 25.5
416(11) 0.00750 360.7 25.5
388(11) 0.00815 360.7 25.3
363(10) 0.00902 360.7 25.1
376(10) 0.00912 360.8 24.8
386(10) 0.00843 360.8 24.4
371(10) 0.00853 360.8 24.1
374(10) 0.00880 360.9 23.6
392(10) 0.00855 360.9 23.2
355(10) 0.00959 360.9 22.8
347(10) 0.00916 361.0 22.3
371(11) 0.00811 361.0 21.9
367(10) 0.00848 361.0 21.5
350(10) 0.00955 361.1 21.1
358(10) 0.00948 361.1 20.8
383(10) 0.00852 361.1 20.5
357(10) 0.00865 361.2 20.2
396(11) 0.00816 361.2 20.0
387(10) 0.00860 361.2 19.9
379(10) 0.00898 361.3 19.9
356(10) 0.00907 361.3 19.9
374(11) 0.00820 361.3 20.1
375(10) 0.00846 361.4 20.3
395(10) 0.00846 361.4 20.8
390(10) 0.00878 361.4 21.5
362(10) 0.00908 361.5 22.5
398(11) 0.00741 361.5 23.8
373(11) 0.00829 361.5 25.7
344(10) 0.00976 361.6 28.1
363(10) 0.00933 361.6 31.4
390(11) 0.00819 361.6 35.6
354(10) 0.00840 361.7 40.9
377(11) 0.00824 361.7 47.3
372(10) 0.00931 361.7 54.7
391(11) 0.00830 361.8 63.0
425(11) 0.00751 361.8 71.6
430(12) 0.00699 361.8 79.7
414(11) 0.00802 361.9 86.1
413(11) 0.00834 361.9 89.4
435(11) 0.00791 361.9 89.0
430(11) 0.00758 362.0 85.0
417(11) 0.00779 362.0 78.4
416(11) 0.00758 362.0 70.7
414(11) 0.00822 362.1 63.0
372(10) 0.00909 362.1 55.9
414(11) 0.00766 362.1 49.9
407(11) 0.00767 362.2 45.2
362(10) 0.00875 362.2 41.7
380(10) 0.00903 362.2 39.5
365(10) 0.00892 362.3 38.4
378(10) 0.00839 362.3 38.4
392(11) 0.00815 362.3 39.1
410(11) 0.00800 362.4 40.7
427(11) 0.00816 362.4 42.7
383(10) 0.00875 362.4 45.3
412(11) 0.00783 362.5 48.0
406(11) 0.00772 362.5 50.8
423(11) 0.00767 362.5 53.3
439(11) 0.00792 362.5 55.2
412(11) 0.00781 362.6 56.4
416(11) 0.00741 362.6 56.7
402(11) 0.00799 362.6 56.3
414(11) 0.00806 362.7 55.2
423(11) 0.00820 362.7 53.7
393(11) 0.00824 362.7 52.1
424(11) 0.00738 362.8 50.6
413(11) 0.00783 362.8 49.2
419(11) 0.00785 362.8 48.1
410(10) 0.00840 362.9 47.2
392(11) 0.00812 362.9 46.4
398(11) 0.00754 362.9 45.8
407(11) 0.00758 363.0 45.3
389(10) 0.00865 363.0 44.9
408(10) 0.00848 363.0 44.3
372(10) 0.00882 363.1 43.7
410(11) 0.00731 363.1 42.9
377(10) 0.00870 363.1 41.9
379(10) 0.00914 363.2 40.7
406(10) 0.00847 363.2 39.4
357(10) 0.00913 363.2 37.9
353(10) 0.00839 363.3 36.3
375(10) 0.00863 363.3 34.6
410(11) 0.00827 363.3 32.8
369(10) 0.00927 363.4 31.0
354(10) 0.00938 363.4 29.3
376(11) 0.00808 363.4 27.6
342(10) 0.00952 363.5 25.9
372(10) 0.00921 363.5 24.5
359(10) 0.00918 363.5 22.9
332(10) 0.00977 363.6 21.5
375(11) 0.00808 363.6 20.2
358(10) 0.00863 363.6 18.9
372(10) 0.00924 363.7 17.8
367(10) 0.00907 363.7 16.7
358(10) 0.00858 363.7 15.7
346(10) 0.00895 363.8 14.8
370(10) 0.00867 363.8 14.0
387(10) 0.00880 363.8 13.3
361(10) 0.00912 363.9 12.6
341(10) 0.00947 363.9 12.0
362(10) 0.00847 363.9 11.4
349(10) 0.00901 364.0 10.9
378(10) 0.00902 364.0 10.4
363(10) 0.00894 364.0 10.0
346(10) 0.00905 364.1 9.6
356(10) 0.00888 364.1 9.3
367(10) 0.00865 364.1 9.0
380(10) 0.00898 364.2 8.7
353(10) 0.00935 364.2 8.4
362(10) 0.00852 364.2 8.2
352(10) 0.00904 364.3 8.0
376(10) 0.00879 364.3 7.8
355(10) 0.00956 364.3 7.6
338(10) 0.00934 364.4 7.5
363(10) 0.00860 364.4 7.3
344(10) 0.00940 364.4 7.2
350(10) 0.00959 364.5 7.1
372(10) 0.00919 364.5 7.0
352(10) 0.00873 364.5 6.9
362(10) 0.00844 364.5 6.8
380(10) 0.00841 364.6 6.7
379(10) 0.00884 364.6 6.8
342(10) 0.01002 364.6 6.7
351(10) 0.00912 364.7 6.7
344(10) 0.00895 364.7 6.6
359(10) 0.00900 364.7 6.6
383(10) 0.00872 364.8 6.6
356(10) 0.00957 364.8 6.5
364(10) 0.00883 364.8 6.5
322(10) 0.00942 364.9 6.5
354(10) 0.00886 364.9 6.5
350(10) 0.00962 364.9 6.6
357(10) 0.00954 365.0 6.6
358(10) 0.00923 365.0 6.6
364(11) 0.00827 365.0 6.6
326(9) 0.01015 365.1 6.7
374(10) 0.00910 365.1 6.7
353(10) 0.00964 365.1 6.8
315(9) 0.01049 365.2 6.9
372(11) 0.00821 365.2 6.9
355(10) 0.00886 365.2 7.0
356(10) 0.00952 365.3 7.1
349(10) 0.00931 365.3 7.2
386(11) 0.00799 365.3 7.4
337(10) 0.00904 365.2 7.5
361(10) 0.00853 365.2 7.6
341(10) 0.01001 365.1 7.8
343(10) 0.00948 365.1 8.0
337(10) 0.00940 365.0 8.2
335(10) 0.00931 364.9 8.4
367(10) 0.00866 364.9 8.6
346(10) 0.00983 364.8 8.8
355(10) 0.00916 364.8 9.0
368(10) 0.00883 364.7 9.3
364(10) 0.00901 364.7 9.6
341(10) 0.00967 364.6 9.9
374(10) 0.00918 364.5 10.2
337(10) 0.00947 364.5 10.5
340(10) 0.00925 364.4 10.8
344(10) 0.00939 364.4 11.1
387(10) 0.00844 364.3 11.5
366(10) 0.00932 364.3 11.8
373(10) 0.00863 364.2 12.2
358(10) 0.00873 364.1 12.5
353(10) 0.00923 364.1 12.9
362(10) 0.00933 364.0 13.2
362(10) 0.00940 364.0 13.5
383(11) 0.00813 363.9 13.9
359(10) 0.00849 363.9 14.2
342(10) 0.00924 363.8 14.4
364(10) 0.00906 363.7 14.7
375(10) 0.00920 363.7 14.9
366(10) 0.00884 363.6 15.1
360(10) 0.00847 363.6 15.2
384(11) 0.00816 363.5 15.4
392(10) 0.00884 363.4 15.4
373(10) 0.00902 363.4 15.5
367(10) 0.00880 363.3 15.5
389(11) 0.00767 363.3 15.5
352(10) 0.00908 363.2 15.6
368(10) 0.00932 363.2 15.6
356(10) 0.00945 363.1 15.6
374(10) 0.00840 363.0 15.6
355(10) 0.00851 363.0 15.6
341(10) 0.00957 362.9 15.7
352(10) 0.00963 362.9 15.9
377(10) 0.00903 362.8 16.1
364(10) 0.00901 362.8 16.4
353(10) 0.00893 362.7 16.7
378(10) 0.00880 362.6 17.3
396(10) 0.00866 362.6 17.9
375(10) 0.00904 362.5 18.7
389(10) 0.00840 362.5 19.8
378(11) 0.00833 362.4 21.0
387(11) 0.00837 362.4 22.4
362(10) 0.00933 362.3 24.0
401(10) 0.00851 362.2 25.8
408(11) 0.00787 362.2 27.8
382(11) 0.00837 362.1 29.8
396(11) 0.00827 362.1 31.9
410(11) 0.00837 362.0 33.9
398(10) 0.00843 361.9 36.1
412(11) 0.00809 361.9 38.6
427(11) 0.00736 361.8 42.0
412(11) 0.00761 361.8 47.1
408(10) 0.00843 361.7 54.7
416(11) 0.00808 361.7 66.2
466(12) 0.00689 361.6 83.1
462(11) 0.00723 361.5 106.9
523(12) 0.00636 361.5 138.6
543(12) 0.00647 361.4 177.8
574(13) 0.00582 361.4 222.3
649(14) 0.00505 361.3 265.9
717(14) 0.00467 361.3 298.4
674(14) 0.00510 361.2 308.3
589(13) 0.00602 361.1 290.6
569(13) 0.00580 361.1 252.4
529(13) 0.00588 361.0 205.6
518(12) 0.00621 361.0 159.9
474(11) 0.00716 360.9 120.4
441(11) 0.00788 360.9 89.5
439(11) 0.00742 360.8 67.0
417(11) 0.00753 360.7 51.5
408(11) 0.00790 360.7 41.4
404(11) 0.00833 360.6 34.9
380(10) 0.00901 360.6 30.8
380(10) 0.00850 360.5 28.0
366(11) 0.00836 360.4 26.1
390(11) 0.00797 360.4 24.7
379(10) 0.00889 360.3 23.7
401(10) 0.00852 360.3 22.9
380(10) 0.00859 360.2 22.4
389(11) 0.00770 360.2 22.0
400(11) 0.00823 360.1 21.7
376(10) 0.00908 360.0 21.6
362(10) 0.00910 360.0 21.6
358(10) 0.00884 359.9 21.7
366(11) 0.00805 359.9 21.9
382(11) 0.00824 359.8 22.2
383(10) 0.00886 359.8 22.5
379(10) 0.00885 359.7 23.0
394(11) 0.00828 359.6 23.5
381(11) 0.00812 359.6 24.0
366(10) 0.00861 359.5 24.7
375(10) 0.00910 359.5 25.4
368(10) 0.00903 359.4 26.1
400(11) 0.00799 359.4 27.0
394(11) 0.00785 359.3 27.9
372(10) 0.00862 359.2 28.9
395(10) 0.00871 359.2 30.0
367(10) 0.00905 359.1 31.1
376(10) 0.00855 359.1 32.3
405(11) 0.00763 359.0 33.6
380(10) 0.00874 359.0 35.0
381(10) 0.00901 358.9 36.4
428(11) 0.00774 358.8 38.0
403(11) 0.00816 358.8 39.6
403(11) 0.00790 358.7 41.3
400(11) 0.00828 358.7 43.1
380(10) 0.00896 358.6 45.0
420(11) 0.00762 358.5 47.0
393(11) 0.00813 358.5 49.1
404(11) 0.00785 358.4 51.3
423(11) 0.00777 358.4 53.6
432(11) 0.00805 358.3 56.1
421(11) 0.00760 358.3 58.7
414(11) 0.00761 358.2 61.4
414(11) 0.00786 358.1 64.4
409(11) 0.00838 358.1 67.5
421(11) 0.00815 358.0 70.8
441(11) 0.00730 358.0 74.4
420(11) 0.00744 357.9 78.3
429(11) 0.00766 357.9 82.4
457(11) 0.00757 357.8 86.9
476(11) 0.00717 357.7 91.6
452(11) 0.00720 357.7 96.8
424(11) 0.00739 357.6 102.2
450(11) 0.00712 357.6 108.0
505(12) 0.00678 357.5 114.1
547(12) 0.00643 357.5 120.4
468(12) 0.00707 357.4 126.9
538(13) 0.00561 357.3 133.2
542(12) 0.00616 357.3 139.2
527(12) 0.00664 357.2 144.5
504(12) 0.00690 357.2 148.6
530(12) 0.00614 357.1 151.2
530(13) 0.00571 357.0 151.8
507(12) 0.00650 357.0 150.3
522(12) 0.00668 356.9 146.7
487(12) 0.00705 356.9 141.4
462(11) 0.00714 356.8 134.6
508(13) 0.00592 356.8 126.9
451(11) 0.00719 356.7 118.7
450(11) 0.00770 356.6 110.4
447(11) 0.00752 356.6 102.3
433(11) 0.00756 356.5 94.6
477(12) 0.00629 356.5 87.3
435(11) 0.00751 356.4 80.5
421(11) 0.00817 356.4 74.3
419(11) 0.00801 356.3 68.7
392(10) 0.00839 356.2 63.6
420(11) 0.00756 356.2 59.0
429(11) 0.00754 356.1 54.9
414(11) 0.00831 356.1 51.3
393(10) 0.00852 356.0 48.0
376(11) 0.00838 356.0 45.2
390(11) 0.00819 355.9 42.6
422(11) 0.00778 355.8 40.3
405(10) 0.00848 355.8 38.2
388(10) 0.00850 355.7 36.3
400(11) 0.00787 355.7 34.7
415(11) 0.00766 355.6 33.1
397(11) 0.00829 355.5 31.8
370(10) 0.00924 355.5 30.5
359(10) 0.00913 355.4 29.4
390(11) 0.00810 355.4 28.3
395(11) 0.00820 355.3 27.4
412(11) 0.00809 355.3 26.5
399(10) 0.00859 355.2 25.8
396(11) 0.00799 355.1 25.1
388(11) 0.00793 355.1 24.4
373(10) 0.00876 355.0 23.9
369(10) 0.00924 355.0 23.4
399(10) 0.00857 354.9 23.0
423(11) 0.00784 354.9 22.6
394(11) 0.00793 354.8 22.3
384(10) 0.00846 354.7 22.1
365(10) 0.00922 354.7 21.9
380(10) 0.00889 354.6 21.8
401(11) 0.00801 354.6 21.8
369(10) 0.00844 354.5 21.9
384(10) 0.00855 354.5 22.0
419(11) 0.00811 354.4 22.3
386(10) 0.00894 354.3 22.6
393(11) 0.00787 354.3 23.1
388(11) 0.00763 354.2 23.7
412(11) 0.00744 354.2 24.4
384(10) 0.00879 354.1 25.4
419(11) 0.00809 354.1 26.6
382(10) 0.00863 354.0 28.1
395(11) 0.00757 353.9 30.0
390(10) 0.00861 353.9 32.3
393(10) 0.00874 353.8 35.0
401(10) 0.00843 353.8 38.3
389(10) 0.00839 353.7 42.3
416(11) 0.00763 353.6 46.9
448(11) 0.00715 353.6 52.4
422(11) 0.00811 353.5 58.7
456(11) 0.00736 353.5 65.9
489(12) 0.00660 353.4 74.0
464(12) 0.00682 353.4 82.9
460(11) 0.00714 353.3 92.5
480(11) 0.00729 353.2 102.5
491(12) 0.00678 353.2 112.5
486(12) 0.00652 353.1 121.9
509(12) 0.00624 353.1 130.1
493(12) 0.00682 353.0 136.2
526(12) 0.00666 353.0 139.6
542(13) 0.00595 352.9 139.9
555(13) 0.00571 352.8 137.1
545(13) 0.00589 352.8 131.4
551(12) 0.00606 352.7 123.6
481(11) 0.00726 352.7 114.4
497(12) 0.00659 352.6 104.5
477(12) 0.00655 352.6 94.3
467(12) 0.00693 352.5 84.5
424(11) 0.00803 352.4 75.2
443(11) 0.00782 352.4 66.7
414(11) 0.00754 352.3 59.0
395(11) 0.00774 352.3 52.2
413(11) 0.00747 352.2 46.2
377(10) 0.00893 352.1 41.0
372(10) 0.00917 352.1 36.5
369(10) 0.00851 352.0 32.7
390(11) 0.00792 352.0 29.4
386(11) 0.00820 351.9 26.7
387(10) 0.00863 351.9 24.4
356(10) 0.00947 351.8 22.5
348(10) 0.00934 351.7 20.9
352(10) 0.00870 351.7 19.5
370(10) 0.00857 351.6 18.3
365(10) 0.00925 351.6 17.3
389(10) 0.00882 351.5 16.5
384(10) 0.00847 351.5 15.8
381(11) 0.00792 351.4 15.2
397(11) 0.00824 351.3 14.7
387(10) 0.00880 351.3 14.2
363(10) 0.00929 351.2 13.9
382(10) 0.00874 351.2 13.6
390(11) 0.00769 351.1 13.3
353(10) 0.00896 351.1 13.1
382(10) 0.00883 351.0 12.9
389(10) 0.00863 350.9 12.8
374(10) 0.00852 350.9 12.6
384(11) 0.00766 350.8 12.5
350(10) 0.00908 350.8 12.4
363(10) 0.00930 350.7 12.2
359(10) 0.00932 350.7 12.1
386(11) 0.00811 350.6 11.9
363(11) 0.00802 350.5 11.7
346(10) 0.00905 350.5 11.5
367(10) 0.00927 350.4 11.2
364(10) 0.00918 350.4 11.0
343(10) 0.00954 350.3 10.7
397(11) 0.00783 350.2 10.5
376(10) 0.00848 350.2 10.2
356(10) 0.00956 350.1 9.9
329(10) 0.00980 350.1 9.6
356(10) 0.00870 350.0 9.4
373(10) 0.00845 350.0 9.1
360(10) 0.00883 349.9 8.8
373(10) 0.00917 349.8 8.6
327(10) 0.00985 349.8 8.3
364(10) 0.00839 349.7 8.0
367(10) 0.00847 349.7 7.8
360(10) 0.00910 349.6 7.6
349(10) 0.00973 349.6 7.3
381(11) 0.00818 349.5 7.1
356(10) 0.00846 349.4 6.9
364(11) 0.00838 349.4 6.7
364(10) 0.00905 349.3 6.6
350(10) 0.00960 349.3 6.4
320(9) 0.01010 349.2 6.2
362(11) 0.00833 349.2 6.1
344(10) 0.00956 349.1 6.0
358(10) 0.00940 349.0 5.8
337(10) 0.01007 349.0 5.7
358(10) 0.00896 348.9 5.6
320(10) 0.00984 348.9 5.5
360(10) 0.00873 348.8 5.4
359(10) 0.00934 348.7 5.4
375(10) 0.00910 348.7 5.3
347(10) 0.00909 348.6 5.2
338(10) 0.00872 348.6 5.1
356(10) 0.00907 348.5 5.0
356(10) 0.00950 348.5 5.0
339(10) 0.01002 348.4 4.9
361(10) 0.00907 348.3 4.8
359(10) 0.00842 348.3 4.7
363(10) 0.00867 348.2 4.6
315(9) 0.01069 348.2 4.6
329(9) 0.01009 348.1 4.5
351(10) 0.00914 348.1 4.4
359(10) 0.00851 348.0 4.4
364(10) 0.00899 347.9 4.3
367(10) 0.00933 347.9 4.2
379(10) 0.00873 347.8 4.2
372(10) 0.00853 347.8 4.1
351(10) 0.00865 347.7 4.1
367(10) 0.00880 347.7 4.0
366(10) 0.00926 347.6 4.0
359(10) 0.00932 347.5 4.0
333(10) 0.00948 347.5 3.9
366(11) 0.00832 347.4 3.9
334(10) 0.00952 347.4 3.9
348(10) 0.00977 347.3 3.8
349(10) 0.00958 347.2 3.8
362(10) 0.00878 347.2 3.8
350(10) 0.00909 347.1 3.8
363(10) 0.00904 347.1 3.8
335(9) 0.01011 347.0 3.7
345(10) 0.00923 347.0 3.7
343(10) 0.00887 346.9 3.7
337(10) 0.00926 346.8 3.7
391(11) 0.00819 346.8 3.7
337(10) 0.01004 346.7 3.7
353(10) 0.00909 346.7 3.7
346(10) 0.00893 346.6 3.7
348(10) 0.00890 346.6 3.7
344(10) 0.00934 346.5 3.7
344(10) 0.00985 346.4 3.7
356(10) 0.00870 346.4 3.7
336(10) 0.00861 346.3 3.7
316(9) 0.01026 346.3 3.7
344(10) 0.00984 346.3 3.7
345(10) 0.00966 346.3 3.7
324(9) 0.01013 346.3 3.7
353(10) 0.00878 346.3 3.8
347(10) 0.00930 346.3 3.8
349(10) 0.00959 346.3 3.8
349(10) 0.00970 346.3 3.8
349(10) 0.00925 346.3 3.8
360(11) 0.00826 346.3 3.9
364(10) 0.00872 346.3 3.9
340(10) 0.00991 346.3 3.9
332(9) 0.01011 346.3 3.9
369(10) 0.00878 346.3 4.0
348(10) 0.00877 346.3 4.0
338(10) 0.00958 346.3 4.0
351(10) 0.00951 346.3 4.1
388(10) 0.00854 346.3 4.1
337(10) 0.00953 346.3 4.2
372(11) 0.00811 346.3 4.2
351(10) 0.00915 346.3 4.3
358(10) 0.00948 346.3 4.3
359(10) 0.00930 346.3 4.4
322(10) 0.00997 346.3 4.4
350(10) 0.00884 346.3 4.5
365(10) 0.00861 346.3 4.5
352(10) 0.00956 346.3 4.6
367(10) 0.00918 346.3 4.7
363(10) 0.00887 346.3 4.8
354(10) 0.00864 346.3 4.8
334(10) 0.00941 346.3 4.9
363(10) 0.00939 346.3 5.0
350(10) 0.00910 346.3 5.1
352(10) 0.00896 346.3 5.2
344(10) 0.00930 346.3 5.3
367(10) 0.00884 346.3 5.4
351(10) 0.00968 346.3 5.5
371(10) 0.00857 346.3 5.6
358(10) 0.00883 346.3 5.8
331(10) 0.00962 346.3 5.9
353(10) 0.00942 346.3 6.0
374(10) 0.00918 346.3 6.2
363(10) 0.00862 346.3 6.3
383(11) 0.00790 346.3 6.5
342(10) 0.00947 346.3 6.6
372(10) 0.00893 346.3 6.8
354(10) 0.00969 346.3 7.0
326(10) 0.00961 346.3 7.1
321(10) 0.00978 346.3 7.3
331(10) 0.00979 346.3 7.5
339(10) 0.00980 346.3 7.7
359(10) 0.00951 346.3 7.9
321(9) 0.01008 346.3 8.1
348(10) 0.00878 346.3 8.3
357(10) 0.00911 346.3 8.6
350(10) 0.00945 346.3 8.8
358(10) 0.00958 346.3 9.1
359(10) 0.00903 346.3 9.3
344(10) 0.00917 346.3 9.6
323(9) 0.01042 346.3 9.9
372(10) 0.00904 346.3 10.2
327(9) 0.01034 346.3 10.5
375(11) 0.00831 346.3 10.9
341(10) 0.00870 346.3 11.3
334(10) 0.00955 346.3 11.7
347(10) 0.00986 346.3 12.1
364(10) 0.00935 346.3 12.6
341(10) 0.00930 346.3 13.1
324(10) 0.00929 346.3 13.7
360(10) 0.00890 346.3 14.3
348(10) 0.00987 346.3 15.0
379(10) 0.00879 346.3 15.7
363(10) 0.00899 346.3 16.5
356(10) 0.00866 346.3 17.4
365(10) 0.00848 346.3 18.4
381(10) 0.00897 346.3 19.4
362(10) 0.00927 346.3 20.5
360(10) 0.00921 346.3 21.7
363(10) 0.00881 346.3 23.0
392(11) 0.00821 346.3 24.3
375(10) 0.00903 346.3 25.8
363(10) 0.00929 346.3 27.4
391(11) 0.00809 346.3 29.0
375(10) 0.00839 346.3 30.8
343(10) 0.00942 346.3 32.6
383(10) 0.00889 346.3 34.6
359(10) 0.00919 346.3 36.6
380(10) 0.00863 346.3 38.7
375(10) 0.00867 346.3 40.8
386(10) 0.00849 346.3 43.0
411(10) 0.00841 346.3 45.2
381(10) 0.00861 346.3 47.5
375(11) 0.00834 346.3 49.6
399(11) 0.00807 346.3 51.7
411(11) 0.00838 346.3 53.7
408(10) 0.00847 346.3 55.6
389(11) 0.00808 346.3 57.2
393(11) 0.00779 346.3 58.6
398(11) 0.00791 346.3 59.7
415(11) 0.00805 346.3 60.4
408(10) 0.00851 346.3 60.8
428(11) 0.00725 346.3 60.9
405(11) 0.00775 346.3 60.6
406(11) 0.00798 346.3 59.9
395(10) 0.00859 346.3 58.9
410(10) 0.00846 346.3 57.6
410(11) 0.00791 346.3 56.0
410(11) 0.00708 346.3 54.3
375(10) 0.00866 346.3 52.3
398(10) 0.00857 346.3 50.3
409(10) 0.00852 346.3 48.2
376(10) 0.00847 346.3 46.0
386(11) 0.00742 346.3 43.8
376(10) 0.00869 346.3 41.7
391(10) 0.00873 346.3 39.6
345(10) 0.00987 346.3 37.6
372(10) 0.00859 346.3 35.6
362(10) 0.00847 346.3 33.8
392(11) 0.00805 346.3 32.0
361(10) 0.00942 346.3 30.3
340(10) 0.00979 346.3 28.8
342(10) 0.00917 346.3 27.3
361(10) 0.00846 346.3 25.9
343(10) 0.00925 346.3 24.7
358(10) 0.00948 346.3 23.5
419(11) 0.00787 346.3 22.4
362(10) 0.00900 346.3 21.4
383(11) 0.00793 346.3 20.5
362(10) 0.00855 346.3 19.7
350(10) 0.00965 346.3 18.9
382(10) 0.00876 346.3 18.2
363(10) 0.00884 346.3 17.5
391(11) 0.00798 346.3 17.0
351(10) 0.00927 346.3 16.4
358(10) 0.00948 346.3 15.8
345(10) 0.00947 346.3 15.3
337(10) 0.00930 346.3 14.8
341(10) 0.00927 346.3 14.2
333(10) 0.00971 346.3 13.7
368(10) 0.00929 346.3 13.2
356(10) 0.00909 346.3 12.8
359(10) 0.00849 346.3 12.3
360(10) 0.00859 346.3 11.9
371(10) 0.00872 346.3 11.4
374(10) 0.00907 346.3 11.0
386(11) 0.00812 346.3 10.6
350(10) 0.00873 346.3 10.2
339(10) 0.00958 346.3 9.9
361(10) 0.00919 346.3 9.5
341(9) 0.01014 346.3 9.2
370(10) 0.00864 346.3 8.9
346(10) 0.00891 346.3 8.6
353(10) 0.00925 346.3 8.3
372(10) 0.00909 346.3 8.1
356(10) 0.00951 346.3 7.8
362(10) 0.00881 346.3 7.6
383(11) 0.00795 346.3 7.4
360(10) 0.00888 346.3 7.2
307(9) 0.01100 346.3 7.1
351(10) 0.00981 346.3 6.9
360(10) 0.00889 346.3 6.7
350(11) 0.00825 346.3 6.6
330(10) 0.00954 346.3 6.5
331(9) 0.01014 346.3 6.4
378(10) 0.00884 346.3 6.2
385(11) 0.00837 346.3 6.2
387(11) 0.00744 346.3 6.1
341(10) 0.00943 346.3 6.0
361(10) 0.00943 346.3 5.9
344(10) 0.00973 346.3 5.8
346(10) 0.00931 346.3 5.8
334(10) 0.00936 346.3 5.7
363(10) 0.00900 346.3 5.7
329(9) 0.01016 346.3 5.6
349(10) 0.00960 346.3 5.6
359(10) 0.00897 346.3 5.6
382(11) 0.00800 346.3 5.5
350(10) 0.00919 346.3 5.5
339(10) 0.00990 346.3 5.5
344(10) 0.00933 346.3 5.5
367(10) 0.00847 346.3 5.5
362(10) 0.00843 346.3 5.5
353(10) 0.00896 346.3 5.5
355(10) 0.00962 346.4 5.5
386(11) 0.00829 346.4 5.6
361(10) 0.00859 346.4 5.6
358(10) 0.00846 346.5 5.6
331(10) 0.00985 346.5 5.6
347(10) 0.00969 346.5 5.7
330(10) 0.00982 346.6 5.7
359(10) 0.00854 346.6 5.8
355(10) 0.00897 346.6 5.9
351(10) 0.00947 346.7 5.9
371(10) 0.00920 346.7 6.0
343(10) 0.00901 346.7 6.1
330(10) 0.00921 346.8 6.2
318(9) 0.01010 346.8 6.4
377(10) 0.00876 346.8 6.5
357(10) 0.00961 346.9 6.7
360(10) 0.00856 346.9 6.9
338(10) 0.00912 346.9 7.1
349(10) 0.00891 346.9 7.3
331(10) 0.01005 347.0 7.6
359(10) 0.00954 347.0 8.0
369(10) 0.00858 347.0 8.4
357(10) 0.00840 347.1 9.0
356(10) 0.00883 347.1 9.6
324(9) 0.01048 347.1 10.6
365(10) 0.00920 347.2 12.0
377(10) 0.00841 347.2 14.3
389(11) 0.00772 347.2 18.1
383(10) 0.00839 347.3 24.4
382(10) 0.00891 347.3 34.1
437(11) 0.00787 347.3 47.9
440(11) 0.00731 347.4 65.3
435(12) 0.00700 347.4 84.5
457(12) 0.00695 347.4 101.5
453(11) 0.00774 347.5 110.9
433(11) 0.00780 347.5 108.3
417(11) 0.00783 347.5 95.2
409(11) 0.00753 347.5 77.2
385(11) 0.00819 347.6 59.1
366(10) 0.00929 347.6 44.1
381(10) 0.00881 347.6 33.0
397(11) 0.00806 347.7 25.9
362(10) 0.00858 347.7 21.8
377(11) 0.00834 347.7 19.8
408(11) 0.00834 347.8 19.0
367(10) 0.00911 347.8 18.8
373(11) 0.00832 347.8 18.8
386(11) 0.00810 347.9 19.0
404(11) 0.00810 347.9 19.2
392(10) 0.00882 347.9 19.6
394(10) 0.00843 348.0 20.1
382(11) 0.00838 348.0 20.6
375(10) 0.00844 348.0 21.3
364(10) 0.00892 348.0 22.0
397(10) 0.00867 348.1 22.7
389(10) 0.00853 348.1 23.4
419(11) 0.00756 348.1 24.0
401(11) 0.00800 348.2 24.5
410(11) 0.00824 348.2 25.0
377(10) 0.00912 348.2 25.2
384(10) 0.00841 348.3 25.3
395(11) 0.00782 348.3 25.3
360(10) 0.00879 348.3 25.1
379(10) 0.00875 348.4 24.7
400(10) 0.00860 348.4 24.1
394(11) 0.00814 348.4 23.5
403(11) 0.00762 348.5 22.7
384(11) 0.00830 348.5 21.9
349(10) 0.00944 348.5 21.0
373(10) 0.00917 348.6 20.1
376(10) 0.00845 348.6 19.2
352(10) 0.00856 348.6 18.3
380(10) 0.00847 348.6 17.5
363(10) 0.00928 348.7 16.6
337(10) 0.01006 348.7 15.8
377(10) 0.00859 348.7 15.1
365(11) 0.00830 348.8 14.4
390(11) 0.00815 348.8 13.8
388(10) 0.00880 348.8 13.2
370(10) 0.00920 348.9 12.6
381(11) 0.00832 348.9 12.1
366(11) 0.00804 348.9 11.7
378(11) 0.00822 349.0 11.3
353(10) 0.00949 349.0 10.9
373(10) 0.00896 349.0 10.6
346(10) 0.00925 349.1 10.4
336(10) 0.00895 349.1 10.1
382(11) 0.00812 349.1 9.9
343(10) 0.00991 349.2 9.8
355(10) 0.00930 349.2 9.7
354(10) 0.00902 349.2 9.6
336(10) 0.00914 349.2 9.5
358(10) 0.00889 349.3 9.5
370(10) 0.00918 349.3 9.5
390(10) 0.00860 349.3 9.6
354(10) 0.00929 349.4 9.6
361(10) 0.00878 349.4 9.7
362(10) 0.00885 349.4 9.8
356(10) 0.00959 349.5 10.0
360(10) 0.00899 349.5 10.1
358(10) 0.00885 349.5 10.3
360(10) 0.00877 349.6 10.6
353(10) 0.00930 349.6 10.8
369(10) 0.00926 349.6 11.1
349(10) 0.00949 349.7 11.4
346(10) 0.00926 349.7 11.7
351(10) 0.00901 349.7 12.1
387(10) 0.00854 349.7 12.4
358(10) 0.00953 349.8 12.8
347(10) 0.00920 349.8 13.3
363(10) 0.00862 349.8 13.7
339(10) 0.00966 349.9 14.2
343(10) 0.00961 349.9 14.7
351(10) 0.00965 349.9 15.3
363(10) 0.00862 350.0 15.9
361(10) 0.00847 350.0 16.5
350(10) 0.00928 350.0 17.2
373(10) 0.00897 350.1 17.9
370(10) 0.00921 350.1 18.7
366(10) 0.00893 350.1 19.5
360(10) 0.00869 350.2 20.4
367(10) 0.00847 350.2 21.3
350(10) 0.00928 350.2 22.3
361(10) 0.00946 350.3 23.4
382(11) 0.00837 350.3 24.5
396(11) 0.00770 350.3 25.6
351(10) 0.00955 350.3 26.8
383(10) 0.00882 350.4 28.0
371(10) 0.00925 350.4 29.0
375(10) 0.00848 350.4 29.9
360(10) 0.00853 350.5 30.5
360(10) 0.00900 350.5 30.7
347(10) 0.00991 350.5 30.6
351(10) 0.00951 350.6 30.1
353(10) 0.00919 350.6 29.4
371(11) 0.00827 350.6 28.5
378(11) 0.00835 350.7 27.6
369(10) 0.00919 350.7 26.7
367(10) 0.00914 350.7 25.8
374(10) 0.00864 350.8 25.2
385(11) 0.00741 350.8 24.6
334(10) 0.00954 350.8 24.2
373(10) 0.00916 350.8 24.0
359(10) 0.00948 350.9 23.8
353(10) 0.00885 350.9 23.9
356(10) 0.00871 350.9 24.0
359(10) 0.00885 351.0 24.1
336(10) 0.01004 351.0 24.3
376(10) 0.00883 351.0 24.3
375(10) 0.00851 351.1 24.3
359(10) 0.00867 351.1 24.2
356(10) 0.00899 351.1 24.1
364(10) 0.00938 351.2 24.0
354(10) 0.00940 351.2 23.9
366(10) 0.00882 351.2 24.0
367(10) 0.00865 351.3 24.1
360(10) 0.00900 351.3 24.2
351(10) 0.00961 351.3 24.4
350(10) 0.00923 351.4 24.7
378(11) 0.00804 351.4 24.9
349(10) 0.00922 351.4 25.3
355(10) 0.00933 351.4 25.6
343(10) 0.00983 351.5 25.9
369(10) 0.00874 351.5 26.3
395(11) 0.00781 351.5 26.6
372(10) 0.00875 351.6 27.0
373(10) 0.00900 351.6 27.3
400(10) 0.00864 351.6 27.6
340(10) 0.00976 351.7 27.8
363(10) 0.00861 351.7 28.1
372(10) 0.00879 351.7 28.3
376(10) 0.00893 351.8 28.5
374(10) 0.00911 351.8 28.6
355(10) 0.00858 351.8 28.8
379(11) 0.00782 351.9 28.9
354(10) 0.00909 351.9 29.0
357(10) 0.00955 351.9 29.0
395(10) 0.00869 352.0 29.1
355(10) 0.00928 352.0 29.3
368(11) 0.00801 352.0 29.4
346(10) 0.00957 352.0 29.8
346(10) 0.00989 352.1 30.5
376(10) 0.00887 352.1 31.7
381(10) 0.00867 352.1 34.0
429(11) 0.00722 352.2 37.7
381(10) 0.00848 352.2 43.2
364(10) 0.00941 352.2 50.7
414(11) 0.00805 352.3 59.5
424(11) 0.00769 352.3 68.3
435(12) 0.00703 352.3 74.5
463(12) 0.00699 352.4 75.8
399(10) 0.00863 352.4 71.6
381(10) 0.00863 352.4 64.1
418(11) 0.00767 352.5 55.8
425(11) 0.00734 352.5 48.7
423(11) 0.00743 352.5 43.4
409(11) 0.00830 352.5 39.8
371(10) 0.00898 352.6 37.5
366(10) 0.00863 352.6 35.9
367(10) 0.00847 352.6 34.5
377(10) 0.00868 352.7 33.3
405(10) 0.00853 352.7 32.2
379(10) 0.00883 352.7 31.3
368(10) 0.00865 352.8 30.6
394(11) 0.00792 352.8 30.2
364(10) 0.00858 352.8 30.0
362(10) 0.00949 352.9 30.2
392(11) 0.00815 352.9 30.5
399(11) 0.00803 352.9 31.0
386(10) 0.00861 353.0 31.6
398(11) 0.00836 353.0 32.3
406(10) 0.00845 353.0 33.0
402(11) 0.00800 353.1 33.7
372(10) 0.00893 353.1 34.5
379(10) 0.00864 353.1 35.3
405(11) 0.00834 353.1 36.2
352(10) 0.00973 353.2 37.1
375(11) 0.00826 353.2 38.2
377(11) 0.00817 353.2 39.2
383(10) 0.00861 353.3 40.2
418(11) 0.00805 353.3 41.2
380(10) 0.00898 353.3 41.9
402(11) 0.00777 353.4 42.4
354(10) 0.00848 353.4 42.6
369(10) 0.00849 353.4 42.5
387(10) 0.00877 353.5 42.3
393(10) 0.00871 353.5 41.9
418(11) 0.00784 353.5 41.6
401(11) 0.00779 353.6 41.4
360(10) 0.00905 353.6 41.7
376(10) 0.00910 353.6 42.4
384(10) 0.00879 353.7 43.7
387(10) 0.00853 353.7 45.6
405(11) 0.00728 353.7 48.1
405(11) 0.00781 353.7 51.0
381(10) 0.00885 353.8 53.9
391(10) 0.00874 353.8 56.2
396(11) 0.00811 353.8 57.2
391(11) 0.00805 353.9 56.4
408(11) 0.00806 353.9 53.7
369(10) 0.00921 353.9 49.7
380(10) 0.00894 354.0 45.1
389(11) 0.00806 354.0 40.4
355(10) 0.00859 354.0 36.0
413(11) 0.00757 354.1 32.2
362(10) 0.00932 354.1 28.9
343(10) 0.00982 354.1 26.3
368(10) 0.00862 354.2 24.3
376(11) 0.00811 354.2 22.7
348(10) 0.00924 354.2 21.6
352(10) 0.00973 354.2 20.8
361(10) 0.00919 354.3 20.3
344(10) 0.00935 354.3 19.9
349(10) 0.00896 354.3 19.8
343(10) 0.00923 354.4 19.7
344(10) 0.00983 354.4 19.8
362(10) 0.00880 354.4 20.0
379(11) 0.00816 354.5 20.2
374(11) 0.00838 354.5 20.6
375(10) 0.00876 354.5 21.1
368(10) 0.00930 354.6 21.7
387(11) 0.00836 354.6 22.6
376(10) 0.00842 354.6 23.7
366(10) 0.00881 354.7 25.2
358(10) 0.00955 354.7 27.3
353(10) 0.00970 354.7 30.0
372(10) 0.00847 354.8 33.4
414(11) 0.00730 354.8 37.6
387(11) 0.00833 354.8 42.3
386(10) 0.00879 354.8 47.3
417(11) 0.00824 354.9 51.7
393(11) 0.00822 354.9 54.8
393(11) 0.00796 354.9 55.5
416(11) 0.00778 355.0 53.9
414(11) 0.00818 355.0 50.6
385(10) 0.00891 355.0 46.6
406(11) 0.00802 355.1 42.8
365(10) 0.00853 355.1 39.5
396(11) 0.00813 355.1 36.8
379(10) 0.00903 355.2 34.7
375(10) 0.00902 355.2 33.3
389(10) 0.00860 355.2 32.3
382(11) 0.00794 355.3 31.7
358(10) 0.00884 355.3 31.3
365(10) 0.00926 355.3 30.9
364(10) 0.00937 355.4 30.7
368(10) 0.00890 355.4 30.5
361(10) 0.00855 355.4 30.3
377(10) 0.00875 355.4 30.0
367(10) 0.00924 355.5 29.7
348(10) 0.00931 355.5 29.5
364(10) 0.00869 355.5 29.1
368(11) 0.00832 355.6 28.8
360(10) 0.00859 355.6 28.4
354(10) 0.00954 355.6 27.9
384(10) 0.00885 355.7 27.5
355(10) 0.00913 355.7 26.9
354(10) 0.00873 355.7 26.4
367(10) 0.00860 355.8 25.8
393(10) 0.00866 355.8 25.3
352(10) 0.00934 355.8 24.7
375(11) 0.00819 355.9 24.1
338(10) 0.00940 355.9 23.5
340(10) 0.00935 355.9 22.9
336(10) 0.01007 355.9 22.4
332(10) 0.00970 356.0 21.9
376(10) 0.00847 356.0 21.3
351(10) 0.00902 356.0 20.8
356(10) 0.00913 356.1 20.4
370(10) 0.00921 356.1 19.9
363(10) 0.00896 356.1 19.5
359(10) 0.00901 356.2 19.1
359(10) 0.00911 356.2 18.7
362(10) 0.00926 356.2 18.3
366(10) 0.00933 356.3 18.0
370(10) 0.00877 356.3 17.7
346(10) 0.00873 356.3 17.4
351(10) 0.00865 356.4 17.2
347(10) 0.00962 356.4 16.9
373(10) 0.00913 356.4 16.7
362(10) 0.00873 356.5 16.5
355(10) 0.00857 356.5 16.3
352(10) 0.00904 356.5 16.2
357(10) 0.00942 356.5 16.0
359(10) 0.00942 356.6 15.9
358(10) 0.00915 356.6 15.8
379(11) 0.00786 356.6 15.8
370(10) 0.00875 356.7 15.7
354(10) 0.00954 356.7 15.7
369(10) 0.00913 356.7 15.7
350(10) 0.00894 356.7 15.7
346(10) 0.00857 356.7 15.7
368(10) 0.00859 356.6 15.8
377(10) 0.00909 356.6 15.9
376(10) 0.00883 356.5 16.0
355(10) 0.00921 356.5 16.1
357(10) 0.00859 356.5 16.2
376(11) 0.00835 356.4 16.4
357(10) 0.00948 356.4 16.6
347(10) 0.00946 356.3 16.8
331(10) 0.00932 356.3 17.1
394(11) 0.00745 356.3 17.3
348(10) 0.00927 356.2 17.6
360(10) 0.00944 356.2 17.9
373(10) 0.00907 356.1 18.3
379(10) 0.00839 356.1 18.6
355(10) 0.00859 356.1 19.0
385(11) 0.00835 356.0 19.5
346(10) 0.00976 356.0 19.9
360(10) 0.00905 355.9 20.4
372(10) 0.00847 355.9 21.0
368(10) 0.00871 355.9 21.6
378(10) 0.00857 355.8 22.2
377(10) 0.00904 355.8 22.9
357(10) 0.00935 355.7 23.7
363(11) 0.00831 355.7 24.5
365(10) 0.00839 355.7 25.3
390(11) 0.00829 355.6 26.2
384(10) 0.00887 355.6 27.1
371(10) 0.00854 355.5 28.1
366(10) 0.00850 355.5 29.1
382(10) 0.00841 355.5 30.1
386(10) 0.00869 355.4 31.0
372(10) 0.00906 355.4 31.9
414(11) 0.00749 355.3 32.7
380(11) 0.00809 355.3 33.3
378(10) 0.00843 355.3 33.8
369(10) 0.00913 355.2 34.1
363(10) 0.00938 355.2 34.3
396(11) 0.00791 355.1 34.4
362(10) 0.00873 355.1 34.4
413(11) 0.00764 355.1 34.4
378(10) 0.00891 355.0 34.4
386(10) 0.00893 355.0 34.5
391(11) 0.00830 354.9 34.5
387(11) 0.00781 354.9 34.7
392(11) 0.00804 354.9 34.9
382(10) 0.00881 354.8 35.2
383(10) 0.00894 354.8 35.6
394(11) 0.00806 354.7 36.1
388(11) 0.00740 354.7 36.7
378(11) 0.00824 354.7 37.3
375(10) 0.00903 354.6 38.0
378(10) 0.00889 354.6 38.7
405(11) 0.00811 354.5 39.5
403(11) 0.00766 354.5 40.4
389(11) 0.00807 354.5 41.3
398(10) 0.00856 354.4 42.2
401(11) 0.00829 354.4 43.2
392(11) 0.00809 354.3 44.1
392(11) 0.00775 354.3 45.1
380(11) 0.00838 354.3 46.1
398(10) 0.00866 354.2 47.0
392(10) 0.00870 354.2 47.9
409(11) 0.00791 354.1 48.8
395(11) 0.00792 354.1 49.7
425(11) 0.00728 354.1 50.4
393(10) 0.00871 354.0 51.2
380(10) 0.00842 354.0 51.8
409(11) 0.00803 353.9 52.4
416(11) 0.00772 353.9 52.8
404(11) 0.00798 353.9 53.2
400(10) 0.00858 353.8 53.5
384(10) 0.00851 353.8 53.6
408(11) 0.00787 353.7 53.7
405(11) 0.00771 353.7 53.6
385(10) 0.00857 353.7 53.5
405(10) 0.00848 353.6 53.2
407(11) 0.00799 353.6 52.9
432(11) 0.00719 353.5 52.4
413(11) 0.00772 353.5 51.9
398(11) 0.00826 353.5 51.3
391(10) 0.00875 353.4 50.6
404(11) 0.00792 353.4 49.9
389(11) 0.00797 353.3 49.1
397(11) 0.00794 353.3 48.3
378(10) 0.00901 353.3 47.4
375(10) 0.00907 353.2 46.5
375(11) 0.00835 353.2 45.6
383(11) 0.00774 353.1 44.6
384(11) 0.00819 353.1 43.7
399(10) 0.00866 353.0 42.7
377(10) 0.00902 353.0 41.7
379(11) 0.00806 353.0 40.7
387(11) 0.00766 352.9 39.6
362(10) 0.00903 352.9 38.6
384(10) 0.00876 352.8 37.6
366(10) 0.00920 352.8 36.6
361(10) 0.00895 352.8 35.6
374(11) 0.00799 352.7 34.6
389(11) 0.00816 352.7 33.6
398(10) 0.00839 352.6 32.7
360(10) 0.00937 352.6 31.8
382(10) 0.00840 352.6 30.9
384(11) 0.00808 352.5 30.0
384(11) 0.00832 352.5 29.2
399(10) 0.00856 352.4 28.4
405(11) 0.00838 352.4 27.7
379(10) 0.00867 352.4 27.0
347(10) 0.00904 352.3 26.4
358(10) 0.00874 352.3 25.8
362(10) 0.00935 352.2 25.2
363(10) 0.00915 352.2 24.7
380(10) 0.00841 352.2 24.2
372(11) 0.00837 352.1 23.8
363(10) 0.00842 352.1 23.4
331(9) 0.01019 352.0 23.0
358(10) 0.00933 352.0 22.7
346(10) 0.00929 352.0 22.4
360(11) 0.00830 351.9 22.2
360(10) 0.00888 351.9 22.0
362(10) 0.00933 351.8 21.9
360(10) 0.00920 351.8 21.8
395(11) 0.00805 351.8 21.7
374(10) 0.00850 351.7 21.7
364(10) 0.00905 351.7 21.8
353(10) 0.00958 351.6 21.9
363(10) 0.00873 351.6 22.1
388(11) 0.00809 351.6 22.3
368(10) 0.00873 351.5 22.6
340(10) 0.00953 351.5 23.0
374(10) 0.00900 351.4 23.4
396(11) 0.00822 351.4 24.0
376(11) 0.00838 351.4 24.7
366(10) 0.00876 351.3 25.5
350(10) 0.00916 351.3 26.5
371(10) 0.00920 351.2 27.6
382(11) 0.00812 351.2 29.0
384(11) 0.00769 351.2 30.6
363(10) 0.00851 351.1 32.5
367(10) 0.00901 351.1 34.6
353(10) 0.00967 351.0 37.1
370(10) 0.00842 351.0 39.9
361(11) 0.00832 351.0 43.0
375(10) 0.00854 350.9 46.5
376(10) 0.00892 350.9 50.3
404(10) 0.00853 350.8 54.4
430(11) 0.00767 350.8 58.7
391(11) 0.00803 350.8 63.1
409(11) 0.00786 350.7 67.6
385(10) 0.00883 350.7 71.7
405(11) 0.00830 350.6 75.4
419(11) 0.00785 350.6 78.3
422(11) 0.00708 350.6 80.0
425(11) 0.00737 350.5 80.5
419(11) 0.00805 350.5 79.5
430(11) 0.00809 350.4 77.3
395(11) 0.00815 350.4 74.0
395(11) 0.00740 350.4 70.0
377(11) 0.00826 350.3 65.5
384(10) 0.00895 350.3 61.0
385(10) 0.00882 350.2 56.4
388(11) 0.00821 350.2 52.1
391(11) 0.00803 350.2 48.1
382(10) 0.00851 350.1 44.4
387(10) 0.00892 350.1 41.1
367(10) 0.00901 350.0 38.1
355(10) 0.00899 350.0 35.5
390(11) 0.00788 350.0 33.1
363(10) 0.00865 349.9 31.1
363(10) 0.00936 349.9 29.3
376(10) 0.00873 349.8 27.7
368(11) 0.00827 349.8 26.3
343(10) 0.00896 349.8 25.1
371(10) 0.00852 349.7 23.9
353(10) 0.00968 349.7 22.9
375(10) 0.00849 349.6 22.0
348(10) 0.00910 349.6 21.2
363(10) 0.00852 349.6 20.4
357(10) 0.00917 349.5 19.7
355(10) 0.00944 349.5 19.0
339(10) 0.00938 349.4 18.3
374(11) 0.00812 349.4 17.7
361(10) 0.00879 349.4 17.1
346(10) 0.00936 349.3 16.6
368(10) 0.00919 349.3 16.0
327(10) 0.00977 349.2 15.5
351(10) 0.00868 349.2 15.1
332(10) 0.00907 349.2 14.6
368(10) 0.00900 349.1 14.2
371(10) 0.00916 349.1 13.8
372(11) 0.00832 349.0 13.4
330(10) 0.00932 349.0 13.0
368(10) 0.00854 349.0 12.6
338(10) 0.00988 348.9 12.3
370(10) 0.00916 348.9 12.0
370(10) 0.00867 348.8 11.7
362(11) 0.00836 348.8 11.4
356(10) 0.00902 348.7 11.1
370(10) 0.00904 348.7 10.9
351(10) 0.00953 348.7 10.6
366(10) 0.00873 348.6 10.4
373(11) 0.00793 348.6 10.2
334(10) 0.00986 348.5 10.0
344(10) 0.00973 348.5 9.8
358(10) 0.00932 348.5 9.7
383(10) 0.00852 348.4 9.5
372(11) 0.00801 348.4 9.4
354(10) 0.00910 348.3 9.2
334(10) 0.01000 348.3 9.1
348(10) 0.00954 348.3 9.0
353(10) 0.00899 348.2 8.9
357(10) 0.00839 348.2 8.8
370(11) 0.00828 348.1 8.7
358(10) 0.00941 348.1 8.6
354(10) 0.00934 348.1 8.5
354(10) 0.00905 348.0 8.5
367(10) 0.00842 348.0 8.4
371(10) 0.00856 347.9 8.4
357(10) 0.00951 347.9 8.4
362(10) 0.00912 347.9 8.4
375(11) 0.00823 347.8 8.4
352(10) 0.00887 347.8 8.4
373(10) 0.00860 347.7 8.5
380(10) 0.00896 347.7 8.5
357(10) 0.00917 347.7 8.6
350(10) 0.00901 347.6 8.6
343(10) 0.00911 347.6 8.7
333(10) 0.00957 347.5 8.8
370(10) 0.00924 347.5 8.9
353(10) 0.00907 347.5 9.1
363(11) 0.00827 347.4 9.2
349(10) 0.00907 347.4 9.4
378(10) 0.00870 347.3 9.6
361(10) 0.00943 347.3 10.0
343(10) 0.00904 347.3 10.5
350(10) 0.00879 347.2 11.2
363(10) 0.00902 347.2 12.4
391(10) 0.00865 347.1 14.1
379(10) 0.00900 347.1 16.6
345(10) 0.00927 347.1 20.1
361(10) 0.00853 347.0 24.7
379(10) 0.00855 347.0 30.3
377(10) 0.00885 346.9 36.4
405(10) 0.00846 346.9 42.3
417(11) 0.00789 346.9 46.4
374(11) 0.00831 346.8 47.4
384(11) 0.00824 346.8 44.9
360(10) 0.00924 346.7 39.9
380(10) 0.00903 346.7 34.0
358(10) 0.00907 346.7 28.3
369(11) 0.00785 346.6 23.5
352(10) 0.00895 346.6 19.7
344(10) 0.00966 346.5 17.0
342(10) 0.00996 346.5 15.2
362(10) 0.00915 346.5 14.1
391(11) 0.00763 346.4 13.4
369(10) 0.00880 346.4 13.1
355(10) 0.00952 346.3 13.0
358(10) 0.00908 346.3 13.1
371(11) 0.00836 346.3 13.2
368(10) 0.00844 346.2 13.4
377(10) 0.00875 346.2 13.7
362(10) 0.00938 346.1 14.0
372(10) 0.00919 346.1 14.4
380(11) 0.00834 346.1 14.8
358(10) 0.00865 346.0 15.2
362(10) 0.00898 346.0 15.7
354(10) 0.00968 345.9 16.2
371(10) 0.00890 345.9 16.7
358(10) 0.00905 345.9 17.3
358(10) 0.00871 345.8 17.8
346(10) 0.00940 345.8 18.4
381(10) 0.00899 345.7 19.0
345(10) 0.00950 345.7 19.5
356(10) 0.00885 345.7 20.1
378(11) 0.00828 345.6 20.6
366(10) 0.00894 345.6 21.1
357(10) 0.00950 345.5 21.6
377(10) 0.00849 345.5 22.1
371(10) 0.00854 345.5 22.4
372(11) 0.00826 345.4 22.7
383(10) 0.00870 345.4 23.0
371(10) 0.00920 345.3 23.2
382(10) 0.00840 345.3 23.3
373(11) 0.00836 345.3 23.3
390(11) 0.00822 345.2 23.3
379(10) 0.00879 345.2 23.2
378(10) 0.00909 345.1 23.0
378(10) 0.00854 345.1 22.8
390(11) 0.00803 345.1 22.6
396(11) 0.00810 345.0 22.4
366(10) 0.00914 345.0 22.1
358(10) 0.00951 344.9 21.8
382(11) 0.00822 344.9 21.5
348(10) 0.00882 344.9 21.3
356(10) 0.00874 344.8 21.0
362(10) 0.00951 344.8 20.8
372(10) 0.00911 344.7 20.6
359(10) 0.00910 344.7 20.4
350(11) 0.00822 344.7 20.2
363(10) 0.00851 344.6 20.1
343(10) 0.00991 344.6 20.0
367(10) 0.00937 344.5 19.9
353(10) 0.00939 344.5 19.8
338(10) 0.00903 344.5 19.8
352(10) 0.00909 344.4 19.7
330(9) 0.01028 344.4 19.7
366(10) 0.00923 344.3 19.6
378(10) 0.00878 344.3 19.6
367(10) 0.00852 344.2 19.6
352(10) 0.00943 344.2 19.5
378(10) 0.00904 344.2 19.4
354(10) 0.00948 344.1 19.3
369(10) 0.00881 344.1 19.2
367(10) 0.00857 344.0 19.0
357(10) 0.00914 344.0 18.7
334(9) 0.01013 344.0 18.2
332(9) 0.01010 343.9 17.7
355(10) 0.00889 343.9 17.1
347(10) 0.00886 343.8 16.5
356(10) 0.00897 343.8 15.8
330(9) 0.01015 343.8 15.2
336(10) 0.00991 343.7 14.6
348(10) 0.00912 343.7 14.0
342(10) 0.00941 343.6 13.4
376(10) 0.00859 343.6 12.9
381(10) 0.00892 343.6 12.3
350(10) 0.00904 343.5 11.8
354(10) 0.00895 343.5 11.3
380(11) 0.00830 343.4 10.9
345(10) 0.00941 343.4 10.4
352(10) 0.00969 343.4 10.0
351(10) 0.00920 343.3 9.6
345(10) 0.00920 343.3 9.2
343(10) 0.00929 343.2 8.8
337(10) 0.00992 343.2 8.5
348(10) 0.00963 343.2 8.2
350(10) 0.00925 343.1 7.9
371(11) 0.00834 343.1 7.6
367(10) 0.00846 343.0 7.4
357(10) 0.00947 343.0 7.1
334(9) 0.01009 343.0 6.9
332(10) 0.00984 342.9 6.7
355(10) 0.00853 342.9 6.5
350(10) 0.00923 342.8 6.3
347(10) 0.00973 342.8 6.2
358(10) 0.00957 342.8 6.0
352(10) 0.00897 342.7 5.9
351(11) 0.00834 342.7 5.7
340(10) 0.00950 342.6 5.6
330(9) 0.01022 342.6 5.5
376(10) 0.00908 342.6 5.4
335(10) 0.00941 342.5 5.4
370(11) 0.00786 342.5 5.3
358(10) 0.00888 342.4 5.3
346(10) 0.00982 342.4 5.2
359(10) 0.00947 342.4 5.2
355(10) 0.00915 342.3 5.2
333(10) 0.00931 342.3 5.2
328(10) 0.00977 342.2 5.3
359(10) 0.00936 342.2 5.3
345(10) 0.00973 342.2 5.4
371(10) 0.00841 342.1 5.5
388(11) 0.00783 342.1 5.7
380(10) 0.00855 342.0 6.0
342(10) 0.00974 342.0 6.3
350(10) 0.00945 342.0 6.8
361(10) 0.00892 341.9 7.4
354(10) 0.00889 341.9 8.1
348(10) 0.00898 341.8 9.1
376(10) 0.00910 341.8 10.3
352(10) 0.00930 341.8 11.7
353(10) 0.00902 341.7 13.4
361(10) 0.00848 341.7 15.2
346(10) 0.00973 341.6 17.1
348(10) 0.00974 341.6 18.9
371(10) 0.00895 341.6 20.3
366(10) 0.00888 341.5 21.1
361(10) 0.00865 341.5 21.1
331(10) 0.00950 341.4 20.3
354(10) 0.00968 341.4 18.9
368(10) 0.00886 341.4 17.1
342(10) 0.00933 341.3 15.1
339(10) 0.00925 341.3 13.2
315(9) 0.01066 341.2 11.5
355(10) 0.00956 341.2 10.0
346(10) 0.00917 341.2 8.8
321(10) 0.00995 341.1 7.7
351(10) 0.00923 341.1 6.9
338(10) 0.00984 341.0 6.2
362(10) 0.00937 341.0 5.7
354(10) 0.00919 341.0 5.3
356(10) 0.00862 340.9 5.0
357(10) 0.00900 340.9 4.7
357(10) 0.00937 340.8 4.5
349(10) 0.00976 340.8 4.4
367(10) 0.00872 340.8 4.2
359(10) 0.00843 340.7 4.1
372(10) 0.00856 340.7 4.1
344(10) 0.00994 340.6 4.0
353(10) 0.00952 340.6 3.9
348(10) 0.00920 340.6 3.9
344(10) 0.00847 340.5 3.8
329(10) 0.00969 340.5 3.8
350(10) 0.00989 340.4 3.7
338(10) 0.00985 340.4 3.7
343(10) 0.00960 340.4 3.6
312(10) 0.00997 340.3 3.6
329(10) 0.00991 340.3 3.5
344(10) 0.00993 340.2 3.5
327(9) 0.01029 340.2 3.4
349(10) 0.00921 340.2 3.4
352(10) 0.00854 340.1 3.4
328(10) 0.00948 340.1 3.3
339(9) 0.01015 340.0 3.3
355(10) 0.00924 340.0 3.3
355(10) 0.00891 339.9 3.2
356(10) 0.00867 339.9 3.2
324(10) 0.00978 339.9 3.2
335(10) 0.01006 339.8 3.2
317(9) 0.01038 339.8 3.2
324(10) 0.00921 339.7 3.2
330(10) 0.00925 339.7 3.1
350(10) 0.00932 339.7 3.1
325(9) 0.01041 339.6 3.1
378(10) 0.00852 339.6 3.1
350(10) 0.00927 339.5 3.1
342(10) 0.00922 339.5 3.1
359(10) 0.00889 339.5 3.1
364(10) 0.00937 339.4 3.1
358(10) 0.00877 339.4 3.1
362(10) 0.00856 339.3 3.2
338(10) 0.00942 339.3 3.2
358(10) 0.00897 339.3 3.2
324(9) 0.01037 339.2 3.2
350(10) 0.00922 339.2 3.2
342(10) 0.00943 339.1 3.2
345(10) 0.00920 339.1 3.2
359(10) 0.00926 339.1 3.2
343(10) 0.00993 339.0 3.2
353(10) 0.00902 339.0 3.2
352(10) 0.00878 338.9 3.2
348(10) 0.00917 338.9 3.2
339(10) 0.00986 338.9 3.3
347(10) 0.00981 338.8 3.3
318(9) 0.01029 338.8 3.3
351(10) 0.00846 338.7 3.3
371(10) 0.00871 338.7 3.3
376(10) 0.00907 338.7 3.2
330(9) 0.01018 338.6 3.2
367(10) 0.00865 338.6 3.2
333(10) 0.00905 338.7 3.2
337(10) 0.00958 338.7 3.2
359(10) 0.00952 338.7 3.2
343(10) 0.00980 338.7 3.2
331(10) 0.00976 338.7 3.1
351(10) 0.00860 338.7 3.1
362(10) 0.00859 338.7 3.1
340(10) 0.00994 338.7 3.1
344(10) 0.00948 338.7 3.1
330(10) 0.00971 338.8 3.0
359(11) 0.00836 338.8 3.0
342(10) 0.00907 338.8 3.0
356(10) 0.00951 338.8 3.0
355(10) 0.00939 338.8 2.9
315(9) 0.01023 338.8 2.9
352(10) 0.00852 338.8 2.9
343(10) 0.00929 338.8 2.8
354(10) 0.00958 338.9 2.8
326(9) 0.01039 338.9 2.8
339(10) 0.00923 338.9 2.8
341(10) 0.00916 338.9 2.7
352(10) 0.00890 338.9 2.7
367(10) 0.00933 338.9 2.7
355(10) 0.00924 338.9 2.7
354(10) 0.00891 338.9 2.7
376(11) 0.00825 338.9 2.6
349(10) 0.00946 339.0 2.6
350(10) 0.00972 339.0 2.6
371(10) 0.00888 339.0 2.6
338(10) 0.00903 339.0 2.6
327(10) 0.00950 339.0 2.6
343(10) 0.00979 339.0 2.6
338(10) 0.01001 339.0 2.5
345(10) 0.00903 339.0 2.5
317(10) 0.00984 339.0 2.5
351(10) 0.00908 339.1 2.5
376(10) 0.00883 339.1 2.5
367(10) 0.00940 339.1 2.5
342(10) 0.00886 339.1 2.5
364(11) 0.00832 339.1 2.5
354(10) 0.00915 339.1 2.5
354(10) 0.00936 339.1 2.5
344(10) 0.00982 339.1 2.5
346(10) 0.00938 339.1 2.5
353(10) 0.00850 339.2 2.5
349(10) 0.00917 339.2 2.5
342(10) 0.00971 339.2 2.5
348(10) 0.00986 339.2 2.5
353(10) 0.00902 339.2 2.5
353(10) 0.00843 339.2 2.5
340(10) 0.00898 339.2 2.5
326(9) 0.01029 339.2 2.5
347(10) 0.00974 339.3 2.5
351(10) 0.00908 339.3 2.5
356(10) 0.00841 339.3 2.5
362(10) 0.00894 339.3 2.5
342(10) 0.00997 339.3 2.5
346(10) 0.00960 339.3 2.5
312(9) 0.01044 339.3 2.5
370(11) 0.00793 339.3 2.5
330(10) 0.00984 339.3 2.5
356(10) 0.00949 339.4 2.5
347(10) 0.00963 339.4 2.5
341(10) 0.00932 339.4 2.6
343(10) 0.00875 339.4 2.6
339(10) 0.00934 339.4 2.6
340(10) 0.00994 339.4 2.6
366(10) 0.00886 339.4 2.6
343(10) 0.00915 339.4 2.6
378(11) 0.00792 339.4 2.6
366(10) 0.00868 339.5 2.7
351(10) 0.00975 339.5 2.7
349(10) 0.00935 339.5 2.7
376(11) 0.00828 339.5 2.7
368(10) 0.00860 339.5 2.8
354(10) 0.00894 339.5 2.8
362(10) 0.00938 339.5 2.8
348(10) 0.00941 339.5 2.9
351(10) 0.00906 339.6 2.9
364(10) 0.00863 339.6 2.9
365(10) 0.00886 339.6 3.0
320(9) 0.01051 339.6 3.0
330(10) 0.00938 339.6 3.1
374(11) 0.00821 339.6 3.1
373(10) 0.00866 339.6 3.2
370(10) 0.00918 339.6 3.3
341(10) 0.00995 339.6 3.3
361(10) 0.00889 339.7 3.4
365(10) 0.00847 339.7 3.5
354(10) 0.00921 339.7 3.5
359(10) 0.00945 339.7 3.6
355(10) 0.00964 339.7 3.7
352(10) 0.00889 339.7 3.8
371(11) 0.00803 339.7 3.9
342(10) 0.00938 339.7 4.0
354(10) 0.00952 339.7 4.2
351(10) 0.00967 339.8 4.3
374(10) 0.00851 339.8 4.4
343(10) 0.00916 339.8 4.6
361(10) 0.00902 339.8 4.7
341(10) 0.00989 339.8 4.9
356(10) 0.00954 339.8 5.1
354(10) 0.00920 339.8 5.3
341(10) 0.00862 339.8 5.5
343(10) 0.00934 339.8 5.7
353(10) 0.00955 339.9 5.9
334(10) 0.01003 339.9 6.1
350(10) 0.00886 339.9 6.4
355(10) 0.00839 339.9 6.7
333(10) 0.00955 339.9 7.0
353(10) 0.00952 339.9 7.3
363(10) 0.00923 339.9 7.6
367(10) 0.00875 339.9 7.9
365(11) 0.00821 340.0 8.3
345(10) 0.00943 340.0 8.7
372(10) 0.00919 340.0 9.1
350(10) 0.00967 340.0 9.5
333(10) 0.00978 340.0 10.0
362(11) 0.00831 340.0 10.5
356(10) 0.00891 340.0 11.0
335(10) 0.01004 340.0 11.6
353(10) 0.00946 340.0 12.2
354(10) 0.00908 340.1 12.9
369(10) 0.00860 340.1 13.6
358(10) 0.00861 340.1 14.4
357(10) 0.00951 340.1 15.2
365(10) 0.00894 340.1 16.1
351(10) 0.00922 340.1 17.0
348(10) 0.00935 340.1 18.1
382(10) 0.00841 340.1 19.2
346(10) 0.00987 340.1 20.4
352(10) 0.00912 340.2 21.6
377(10) 0.00840 340.2 23.0
358(10) 0.00907 340.2 24.5
356(10) 0.00911 340.2 26.0
376(10) 0.00916 340.2 27.6
393(11) 0.00816 340.2 29.3
366(10) 0.00871 340.2 31.1
357(10) 0.00909 340.2 32.9
373(10) 0.00895 340.3 34.6
363(10) 0.00931 340.3 36.3
359(10) 0.00903 340.3 37.9
370(11) 0.00826 340.3 39.2
379(10) 0.00855 340.3 40.3
362(10) 0.00936 340.3 41.1
388(10) 0.00879 340.3 41.5
397(11) 0.00823 340.3 41.5
393(11) 0.00811 340.3 41.2
385(10) 0.00860 340.4 40.6
391(10) 0.00883 340.4 39.6
370(10) 0.00919 340.4 38.5
373(10) 0.00852 340.4 37.2
384(11) 0.00781 340.4 35.9
384(10) 0.00839 340.4 34.5
382(10) 0.00903 340.4 33.2
357(10) 0.00935 340.4 31.9
346(10) 0.00935 340.4 30.6
362(11) 0.00830 340.5 29.4
374(10) 0.00841 340.5 28.3
357(10) 0.00959 340.5 27.2
360(10) 0.00928 340.5 26.1
376(10) 0.00853 340.5 25.1
358(10) 0.00846 340.5 24.1
363(10) 0.00856 340.5 23.1
332(9) 0.01010 340.5 22.2
390(10) 0.00856 340.5 21.2
343(10) 0.00955 340.6 20.3
338(10) 0.00916 340.6 19.4
350(10) 0.00889 340.6 18.5
354(10) 0.00955 340.6 17.7
355(10) 0.00936 340.6 16.9
347(10) 0.00896 340.6 16.1
350(10) 0.00882 340.6 15.3
338(10) 0.00933 340.6 14.6
342(10) 0.00994 340.7 13.9
335(10) 0.00983 340.7 13.3
354(10) 0.00863 340.7 12.7
324(10) 0.00974 340.7 12.2
353(10) 0.00913 340.7 11.7
328(9) 0.01032 340.7 11.2
347(10) 0.00949 340.7 10.8
342(10) 0.00911 340.7 10.4
355(10) 0.00876 340.7 10.1
330(10) 0.00986 340.8 9.8
342(10) 0.00987 340.8 9.5
344(10) 0.00929 340.8 9.2
380(11) 0.00814 340.8 9.0
343(10) 0.00962 340.8 8.8
344(10) 0.00968 340.8 8.7
352(10) 0.00975 340.8 8.6
335(10) 0.00939 340.8 8.5
329(10) 0.00919 340.8 8.4
369(11) 0.00821 340.9 8.3
336(10) 0.01000 340.9 8.3
348(10) 0.00963 340.9 8.3
358(10) 0.00871 340.9 8.3
341(10) 0.00849 340.9 8.3
345(10) 0.00904 340.9 8.4
374(10) 0.00904 340.9 8.4
379(10) 0.00893 340.9 8.5
336(10) 0.00978 341.0 8.6
369(11) 0.00794 341.0 8.7
368(10) 0.00870 341.0 8.9
366(10) 0.00929 341.0 9.0
375(10) 0.00910 341.0 9.2
359(10) 0.00900 341.0 9.3
346(10) 0.00850 341.0 9.5
331(10) 0.00958 341.0 9.7
340(10) 0.00987 341.0 9.9
367(10) 0.00921 341.1 10.1
352(10) 0.00905 341.1 10.3
362(10) 0.00846 341.1 10.6
350(10) 0.00927 341.1 10.8
337(10) 0.01000 341.1 11.0
379(10) 0.00896 341.1 11.3
346(10) 0.00929 341.1 11.6
357(10) 0.00862 341.1 12.0
372(10) 0.00872 341.1 12.4
361(10) 0.00949 341.2 13.0
350(10) 0.00943 341.2 13.8
352(10) 0.00877 341.2 14.8
351(10) 0.00905 341.2 16.1
368(10) 0.00851 341.2 17.6
380(10) 0.00898 341.2 19.5
351(10) 0.00903 341.2 21.5
352(10) 0.00903 341.2 23.4
358(10) 0.00854 341.3 24.9
345(10) 0.00915 341.3 25.5
372(10) 0.00920 341.3 25.1
343(10) 0.00950 341.3 23.7
349(10) 0.00894 341.3 21.8
362(10) 0.00851 341.3 19.7
362(10) 0.00890 341.3 17.7
358(10) 0.00953 341.3 16.0
355(10) 0.00899 341.3 14.6
349(10) 0.00877 341.4 13.5
348(10) 0.00902 341.4 12.6
368(10) 0.00900 341.4 12.0
370(10) 0.00931 341.4 11.5
361(10) 0.00884 341.4 11.2
344(10) 0.00899 341.4 10.9
358(10) 0.00889 341.4 10.8
349(10) 0.00968 341.4 10.6
346(10) 0.00977 341.4 10.5
353(10) 0.00938 341.5 10.3
353(10) 0.00873 341.5 10.2
346(10) 0.00931 341.5 10.2
343(10) 0.00977 341.5 10.1
353(10) 0.00964 341.5 10.0
353(10) 0.00904 341.5 10.0
363(11) 0.00835 341.5 10.0
361(10) 0.00900 341.5 10.0
343(10) 0.00985 341.5 10.0
357(10) 0.00935 341.6 10.0
336(10) 0.00973 341.6 10.0
369(11) 0.00805 341.6 10.0
327(10) 0.01005 341.6 10.0
352(10) 0.00959 341.6 10.1
349(10) 0.00941 341.6 10.1
330(10) 0.00969 341.6 10.1
343(10) 0.00873 341.6 10.2
377(10) 0.00841 341.7 10.2
365(10) 0.00941 341.7 10.3
352(10) 0.00946 341.7 10.3
362(10) 0.00867 341.7 10.4
342(10) 0.00898 341.7 10.4
335(10) 0.00944 341.7 10.5
329(9) 0.01025 341.7 10.6
332(10) 0.00995 341.7 10.7
339(10) 0.00910 341.7 10.8
339(10) 0.00912 341.8 11.0
368(10) 0.00865 341.8 11.1
348(10) 0.00969 341.8 11.2
363(10) 0.00894 341.8 11.4
364(10) 0.00876 341.8 11.6
355(10) 0.00907 341.8 11.7
349(10) 0.00948 341.8 11.9
351(10) 0.00969 341.8 12.1
349(10) 0.00933 341.8 12.3
341(10) 0.00910 341.9 12.5
382(11) 0.00795 341.9 12.7
355(10) 0.00923 341.9 12.9
364(10) 0.00942 341.9 13.1
349(10) 0.00944 341.9 13.3
369(11) 0.00826 341.9 13.5
360(10) 0.00873 341.9 13.7
364(10) 0.00872 341.9 14.0
342(10) 0.00998 342.0 14.3
362(10) 0.00878 342.0 14.8
350(10) 0.00921 342.0 15.5
367(10) 0.00888 342.0 16.5
344(10) 0.00976 342.0 17.9
362(10) 0.00946 342.0 19.6
349(10) 0.00931 342.0 21.4
381(11) 0.00812 342.0 22.8
394(11) 0.00818 342.0 23.4
349(10) 0.00963 342.1 22.8
361(10) 0.00933 342.1 21.4
363(10) 0.00903 342.1 19.8
346(10) 0.00881 342.1 18.2
369(10) 0.00844 342.1 17.0
374(10) 0.00896 342.1 16.1
375(10) 0.00901 342.1 15.6
344(10) 0.00915 342.1 15.3
345(10) 0.00852 342.1 15.1
331(10) 0.00981 342.2 14.9
336(9) 0.01009 342.2 14.8
370(10) 0.00914 342.2 14.6
355(10) 0.00885 342.2 14.4
357(10) 0.00842 342.2 14.1
347(10) 0.00944 342.2 13.9
339(10) 0.01000 342.2 13.5
351(10) 0.00950 342.2 13.2
359(10) 0.00900 342.2 12.9
377(11) 0.00838 342.3 12.6
346(10) 0.00927 342.3 12.3
342(10) 0.00998 342.3 12.0
365(10) 0.00909 342.3 11.7
342(10) 0.00961 342.3 11.5
373(10) 0.00845 342.3 11.3
395(11) 0.00797 342.3 11.0
340(10) 0.00984 342.3 10.9
343(10) 0.00965 342.4 10.7
333(10) 0.00966 342.4 10.6
362(10) 0.00856 342.4 10.5
388(11) 0.00810 342.4 10.4
369(10) 0.00919 342.4 10.4
377(10) 0.00869 342.4 10.4
383(11) 0.00811 342.4 10.4
356(10) 0.00873 342.4 10.5
353(10) 0.00938 342.4 10.6
341(10) 0.00990 342.5 10.8
353(10) 0.00914 342.5 10.9
365(10) 0.00876 342.5 11.1
382(10) 0.00839 342.5 11.4
373(10) 0.00887 342.5 11.6
354(10) 0.00958 342.5 11.9
342(10) 0.00937 342.5 12.1
344(10) 0.00897 342.5 12.2
351(10) 0.00915 342.5 12.4
346(10) 0.00954 342.6 12.4
329(9) 0.01033 342.6 12.3
357(10) 0.00848 342.6 12.2
353(10) 0.00851 342.6 12.0
392(11) 0.00818 342.6 11.8
372(10) 0.00896 342.6 11.6
357(10) 0.00956 342.6 11.4
333(10) 0.00973 342.6 11.1
337(10) 0.00916 342.7 11.0
372(10) 0.00870 342.7 10.8
342(10) 0.00979 342.7 10.7
368(10) 0.00925 342.7 10.7
366(10) 0.00866 342.7 10.7
366(11) 0.00811 342.7 10.9
364(10) 0.00854 342.7 11.2
364(10) 0.00938 342.7 11.8
352(10) 0.00972 342.7 12.6
345(10) 0.00931 342.8 13.9
357(11) 0.00838 342.8 15.7
339(10) 0.00922 342.8 18.3
366(10) 0.00928 342.8 21.7
374(10) 0.00869 342.8 26.2
382(10) 0.00849 342.8 31.8
364(10) 0.00844 342.8 38.6
415(11) 0.00751 342.8 46.2
378(10) 0.00904 342.8 54.0
407(11) 0.00828 342.9 61.1
419(11) 0.00766 342.9 66.0
420(11) 0.00728 342.9 67.4
419(11) 0.00773 342.9 64.8
408(10) 0.00843 342.9 59.1
377(10) 0.00860 342.9 51.7
354(10) 0.00933 342.9 44.0
394(11) 0.00760 342.9 36.9
373(10) 0.00873 343.0 30.9
358(10) 0.00939 343.0 26.1
361(10) 0.00913 343.0 22.8
358(10) 0.00900 343.0 20.7
384(11) 0.00813 343.0 19.9
391(11) 0.00838 343.0 20.2
399(10) 0.00866 343.0 21.4
371(10) 0.00869 343.0 23.2
368(10) 0.00882 343.0 25.3
397(11) 0.00798 343.1 27.1
388(11) 0.00834 343.1 27.9
373(10) 0.00921 343.1 27.3
385(11) 0.00826 343.1 25.3
358(10) 0.00880 343.1 22.6
385(10) 0.00840 343.1 19.5
375(10) 0.00887 343.1 16.7
364(10) 0.00929 343.1 14.2
351(10) 0.00871 343.1 12.2
376(11) 0.00800 343.2 10.7
350(10) 0.00881 343.2 9.5
363(10) 0.00905 343.2 8.6
348(10) 0.00977 343.2 8.0
383(11) 0.00833 343.2 7.6
352(10) 0.00843 343.2 7.2
365(10) 0.00845 343.2 6.9
337(10) 0.00985 343.2 6.7
322(9) 0.01062 343.2 6.5
336(10) 0.00938 343.3 6.3
352(10) 0.00849 343.3 6.2
337(10) 0.00942 343.3 6.0
365(10) 0.00921 343.3 5.8
320(9) 0.01055 343.3 5.7
342(10) 0.00929 343.3 5.6
369(11) 0.00791 343.3 5.4
358(10) 0.00873 343.3 5.3
319(9) 0.01055 343.4 5.1
317(9) 0.01048 343.4 5.0
329(10) 0.00991 343.4 4.9
363(11) 0.00822 343.4 4.7
340(10) 0.00943 343.4 4.6
329(9) 0.01027 343.4 4.5
333(10) 0.00992 343.4 4.3
321(10) 0.00990 343.4 4.2
329(10) 0.00930 343.4 4.1
339(10) 0.00928 343.4 4.0
342(10) 0.00996 343.4 3.8
346(10) 0.00949 343.4 3.7
307(9) 0.01037 343.4 3.6
336(10) . . .
344(10) . . .
337(10) . . .
376(10) . . .
305(9) . . .
324(10) . . .
330(10) . . .
366(10) . . .
351(10) . . .
333(10) . . .
363(10) . . .
344(10) . . .
343(10) . . .
328(10) . . .
334(10) . . .
350(10) . . .
333(10) . . .
341(10) . . .
330(10) . . .
331(10) . . .
334(10) . . .
364(10) . . .
351(10) . . .
332(10) . . .
346(10) . . .
347(10) . . .
337(10) . . .
341(10) . . .
370(10) . . .
354(10) . . .
353(10) . . .
353(10) . . .
370(10) . . .
330(10) . . .
337(10) . . .
343(10) . . .
345(10) . . .
346(10) . . .
327(10) . . .
351(10) . . .
331(10) . . .
322(9) . . .
318(9) . . .
317(10) . . .
315(10) . . .
314(9) . . .
322(9) . . .
342(10) . . .
357(10) . . .
346(10) . . .
332(10) . . .
346(10) . . .
358(10) . . .
351(10) . . .
361(10) . . .
361(10) . . .
339(10) . . .
344(10) . . .
339(10) . . .
370(11) . . .
318(9) . . .
345(10) . . .
310(9) . . .
303(9) . . .
310(9) . . .
314(9) . . .
343(10) . . .
332(10) . . .
310(9) . . .
340(10) . . .
345(10) . . .
330(9) . . .
328(10) . . .
328(10) . . .
333(10) . . .
347(10) . . .
351(10) . . .
346(10) . . .
349(10) . . .
356(10) . . .
350(10) . . .
320(9) . . .
355(10) . . .
332(10) . . .
348(10) . . .
336(10) . . .
359(10) . . .
352(10) . . .
346(10) . . .
369(11) . . .
358(10) . . .
353(10) . . .
373(10) . . .
362(10) . . .
358(10) . . .
339(10) . . .
339(10) . . .
350(10) . . .
331(10) . . .
335(10) . . .
341(10) . . .
348(10) . . .
340(10) . . .
344(10) . . .
364(10) . . .
348(10) . . .
325(10) . . .
349(10) . . .
346(10) . . .
352(10) . . .
338(10) . . .
326(10) . . .
351(10) . . .
335(10) . . .
370(10) . . .
359(10) . . .
362(10) . . .
362(10) . . .
351(10) . . .
349(10) . . .
346(10) . . .
340(10) . . .
352(10) . . .
361(10) . . .
344(10) . . .
356(10) . . .
329(10) . . .
344(10) . . .
346(10) . . .
360(10) . . .
370(10) . . .
355(10) . . .
361(11) . . .
329(10) . . .
330(9) . . .
347(10) . . .
362(10) . . .
354(10) . . .
352(10) . . .
345(10) . . .
338(10) . . .
341(10) . . .
358(10) . . .
348(10) . . .
340(10) . . .
374(10) . . .
346(10) . . .
358(10) . . .
327(10) . . .
344(10) . . .
380(10) . . .
367(10) . . .
342(10) . . .
321(10) . . .
350(10) . . .
371(10) . . .
378(11) . . .
363(10) . . .
356(10) . . .
356(10) . . .
348(10) . . .
353(10) . . .
359(10) . . .
350(10) . . .
357(10) . . .
336(10) . . .
347(10) . . .
353(10) . . .
314(9) . . .
355(10) . . .
357(10) . . .
370(11) . . .
334(10) . . .
338(10) . . .
352(10) . . .
347(10) . . .
346(10) . . .
342(10) . . .
317(9) . . .
326(9) . . .
355(10) . . .
308(10) . . .
330(10) . . .
343(10) . . .
350(10) . . .
308(9) . . .
326(10) . . .
342(10) . . .
316(9) . . .
368(10) . . .
354(10) . . .
328(10) . . .
326(10) . . .
333(9) . . .
345(10) . . .
327(10) . . .
325(10) . . .
305(9) . . .
333(9) . . .
354(10) . . .
332(10) . . .
342(10) . . .
357(10) . . .
344(10) . . .
331(10) . . .
351(10) . . .
335(10) . . .
330(10) . . .
328(9) . . .
328(10) . . .
351(10) . . .
304(9) . . .
316(9) . . .
321(9) . . .
341(10) . . .
374(11) . . .
373(10) . . .
339(10) . . .
343(10) . . .
341(10) . . .
331(10) . . .
351(10) . . .
341(10) . . .
347(10) . . .
341(10) . . .
328(10) . . .
319(10) . . .
332(10) . . .
343(10) . . .
373(10) . . .
342(10) . . .
358(10) . . .
357(10) . . .
319(9) . . .
355(10) . . .
327(10) . . .
329(10) . . .
332(10) . . .
338(10) . . .
368(11) . . .
321(10) . . .
349(10) . . .
327(9) . . .
364(10) . . .
334(10) . . .
369(11) . . .
329(10) . . .
364(10) . . .
323(9) . . .
341(10) . . .
309(10) . . .
346(10) . . .
352(10) . . .
344(10) . . .
338(10) . . .
360(10) . . .
356(10) . . .
347(10) . . .
347(10) . . .
374(11) . . .
364(11) . . .
370(10) . . .
361(10) . . .
370(10) . . .
389(11) . . .
390(10) . . .
448(11) . . .
426(11) . . .
425(11) . . .
398(11) . . .
413(11) . . .
419(11) . . .
421(11) . . .
410(11) . . .
408(11) . . .
405(11) . . .
414(11) . . .
423(11) . . .
436(11) . . .
390(11) . . .
407(11) . . .
389(10) . . .
383(10) . . .
359(10) . . .
351(10) . . .
354(10) . . .
356(10) . . .
340(10) . . .
370(10) . . .
387(11) . . .
370(10) . . .
339(10) . . .
316(9) . . .
341(10) . . .
332(10) . . .
333(10) . . .
343(10) . . .
340(10) . . .
375(11) . . .
337(10) . . .
329(10) . . .
338(10) . . .
317(9) . . .
321(9) . . .
337(10) . . .
349(10) . . .
341(10) . . .
351(10) . . .
320(10) . . .
330(10) . . .
355(10) . . .
335(10) . . .
329(10) . . .
334(10) . . .
330(10) . . .
365(10) . . .
321(9) . . .
317(10) . . .
314(10) . . .
340(10) . . .
321(9) . . .
351(10) . . .
336(10) . . .
320(10) . . .
318(10) . . .
338(10) . . .
338(10) . . .
342(10) . . .
334(10) . . .
345(10) . . .
334(10) . . .
319(9) . . .
336(10) . . .
344(10) . . .
324(10) . . .
339(10) . . .
328(9) . . .
346(10) . . .
348(11) . . .
325(10) . . .
321(9) . . .
337(9) . . .
337(10) . . .
343(10) . . .
341(10) . . .
322(9) . . .
342(10) . . .
360(10) . . .
333(10) . . .
298(9) . . .
360(10) . . .
325(9) . . .
343(10) . . .
320(10) . . .
329(10) . . .
311(9) . . .
331(10) . . .
317(10) . . .
328(10) . . .
329(10) . . .
312(9) . . .
329(10) . . .
342(10) . . .
319(10) . . .
323(9) . . .
341(10) . . .
346(10) . . .
319(10) . . .
335(10) . . .
324(10) . . .
336(9) . . .
337(10) . . .
332(10) . . .
323(10) . . .
306(9) . . .
321(9) . . .
326(10) . . .
339(10) . . .
352(10) . . .
319(9) . . .
324(9) . . .
321(10) . . .
332(10) . . .
334(10) . . .
315(9) . . .
305(9) . . .
338(10) . . .
312(10) . . .
293(9) . . .
316(9) . . .
324(9) . . .
348(10) . . .
360(11) . . .
324(10) . . .
326(9) . . .
315(9) . . .
324(10) . . .
290(9) . . .
305(9) . . .
323(9) . . .
278(9) . . .
323(10) . . .
308(10) . . .
291(9) . . .
311(9) . . .
309(9) . . .
308(9) . . .
336(10) . . .
310(9) . . .
307(9) . . .
304(9) . . .
312(10) . . .
311(10) . . .
293(9) . . .
323(9) . . .
304(9) . . .
330(10) . . .
326(10) . . .
313(9) . . .
313(9) . . .
316(10) . . .
317(10) . . .
316(10) . . .
301(9) . . .
331(9) . . .
328(10) . . .
303(10) . . .
301(10) . . .
326(9) . . .
356(10) . . .
324(10) . . .
316(10) . . .
314(10) . . .
304(9) . . .
314(9) . . .
319(10) . . .
327(10) . . .
330(10) . . .
331(9) . . .
334(10) . . .
354(10) . . .
349(11) . . .
329(10) . . .
351(10) . . .
360(10) . . .
359(10) . . .
353(10) . . .
384(11) . . .
356(10) . . .
350(10) . . .
339(10) . . .
357(10) . . .
356(10) . . .
327(9) . . .
369(10) . . .
353(10) . . .
363(10) . . .
358(10) . . .
341(10) . . .
357(10) . . .
360(10) . . .
343(10) . . .
377(10) . . .
357(10) . . .
342(10) . . .
375(11) . . .
351(10) . . .
367(10) . . .
355(10) . . .
365(10) . . .
347(10) . . .
351(10) . . .
355(10) . . .
342(10) . . .
400(11) . . .
397(11) . . .
369(10) . . .
384(10) . . .
387(10) . . .
378(10) . . .
390(11) . . .
361(10) . . .
340(10) . . .
335(9) . . .
348(10) . . .
348(10) . . .
369(10) . . .
363(10) . . .
341(10) . . .
347(10) . . .
331(10) . . .
335(10) . . .
323(9) . . .
297(9) . . .
291(9) . . .
322(10) . . .
336(10) . . .
318(9) . . .
329(9) . . .
342(10) . . .
295(9) . . .
296(9) . . .
301(9) . . .
309(9) . . .
313(10) . . .
290(9) . . .
289(9) . . .
329(9) . . .
305(9) . . .
307(9) . . .
327(10) . . .
321(10) . . .
290(9) . . .
300(9) . . .
312(10) . . .
314(10) . . .
322(10) . . .
307(9) . . .
334(10) . . .
295(9) . . .
338(10) . . .
304(9) . . .
316(9) . . .
323(10) . . .
320(10) . . .
318(10) . . .
297(9) . . .
314(9) . . .
318(10) . . .
289(9) . . .
297(9) . . .
300(9) . . .
289(9) . . .
277(9) . . .
285(9) . . .
315(10) . . .
303(9) . . .
331(9) . . .
299(9) . . .
312(10) . . .
279(9) . . .
296(9) . . .
276(9) . . .
300(9) . . .
302(10) . . .
296(9) . . .
292(9) . . .
320(9) . . .
304(9) . . .
298(10) . . .
301(9) . . .
300(9) . . .
325(9) . . .
322(10) . . .
318(10) . . .
304(9) . . .
318(9) . . .
301(9) . . .
307(10) . . .
334(10) . . .
344(10) . . .
315(9) . . .
324(10) . . .
328(10) . . .
285(9) . . .
295(9) . . .
285(9) . . .
303(10) . . .
311(10) . . .
330(10) . . .
301(9) . . .
299(9) . . .
298(9) . . .
296(10) . . .
300(9) . . .
294(9) . . .
304(9) . . .
310(9) . . .
310(10) . . .
315(10) . . .
275(9) . . .
313(9) . . .
327(10) . . .
312(10) . . .
333(10) . . .
321(9) . . .
347(10) . . .
333(10) . . .
322(10) . . .
305(9) . . .
314(9) . . .
335(9) . . .
303(9) . . .
310(10) . . .
299(9) . . .
312(9) . . .
322(10) . . .
276(9) . . .
299(10) . . .
312(10) . . .
314(9) . . .
288(9) . . .
297(9) . . .
317(10) . . .
283(9) . . .
302(9) . . .
293(9) . . .
295(9) . . .
293(9) . . .
303(9) . . .
327(9) . . .
317(9) . . .
312(10) . . .
300(10) . . .
291(9) . . .
273(9) . . .
303(9) . . .
291(9) . . .
318(10) . . .
288(9) . . .
261(8) . . .
283(9) . . .
296(9) . . .
274(9) . . .
299(9) . . .
289(9) . . .
274(9) . . .
291(9) . . .
277(9) . . .
298(9) . . .
290(9) . . .
264(9) . . .
307(10) . . .
314(10) . . .
292(9) . . .
297(9) . . .
309(9) . . .
306(10) . . .
312(9) . . .
308(9) . . .
334(9) . . .
296(9) . . .
294(10) . . .
305(10) . . .
290(9) . . .
289(9) . . .
303(9) . . .
331(10) . . .
297(9) . . .
294(9) . . .
289(9) . . .
320(10) . . .
330(10) . . .
352(10) . . .
334(9) . . .
319(9) . . .
328(10) . . .
331(10) . . .
290(9) . . .
310(9) . . .
292(9) . . .
344(10) . . .
297(9) . . .
289(9) . . .
306(9) . . .
309(9) . . .
340(10) . . .
299(9) . . .
304(9) . . .
308(9) . . .
308(10) . . .
311(10) . . .
297(9) . . .
293(9) . . .
292(9) . . .
289(9) . . .
292(9) . . .
291(9) . . .
291(9) . . .
298(9) . . .
318(10) . . .
322(10) . . .
332(10) . . .
351(10) . . .
333(9) . . .
351(10) . . .
350(11) . . .
337(10) . . .
330(10) . . .
332(9) . . .
332(10) . . .
317(10) . . .
319(10) . . .
314(9) . . .
308(9) . . .
312(9) . . .
300(9) . . .
295(9) . . .
309(9) . . .
292(9) . . .
308(10) . . .
330(10) . . .
314(9) . . .
316(9) . . .
289(9) . . .
280(9) . . .
261(9) . . .
277(9) . . .
280(9) . . .
297(9) . . .
318(10) . . .
299(9) . . .
293(9) . . .
288(9) . . .
298(9) . . .
292(9) . . .
307(9) . . .
304(9) . . .
279(9) . . .
301(9) . . .
284(9) . . .
306(10) . . .
301(9) . . .
284(9) . . .
310(10) . . .
311(10) . . .
284(9) . . .
299(9) . . .
291(9) . . .
275(9) . . .
287(9) . . .
284(9) . . .
301(9) . . .
278(9) . . .
279(9) . . .
293(10) . . .
304(9) . . .
283(9) . . .
292(9) . . .
272(9) . . .
285(9) . . .
273(9) . . .
284(9) . . .
282(9) . . .
282(9) . . .
268(9) . . .
285(9) . . .
285(9) . . .
304(9) . . .
294(9) . . .
282(9) . . .
291(9) . . .
294(9) . . .
269(9) . . .
287(9) . . .
302(10) . . .
268(9) . . .
286(9) . . .
281(9) . . .
292(9) . . .
305(9) . . .
293(9) . . .
303(9) . . .
275(9) . . .
275(9) . . .
284(9) . . .
294(9) . . .
282(9) . . .
273(9) . . .
310(10) . . .
266(9) . . .
281(9) . . .
288(9) . . .
278(9) . . .
275(9) . . .
272(9) . . .
282(9) . . .
291(9) . . .
279(9) . . .
278(9) . . .
273(9) . . .
274(9) . . .
269(9) . . .
275(9) . . .
287(9) . . .
315(10) . . .
311(9) . . .
291(9) . . .
281(9) . . .
284(9) . . .
280(9) . . .
303(9) . . .
287(9) . . .
280(9) . . .
277(9) . . .
293(9) . . .
274(9) . . .
292(9) . . .
267(9) . . .
256(9) . . .
304(9) . . .
308(9) . . .
305(9) . . .
329(10) . . .
316(10) . . .
321(10) . . .
284(9) . . .
316(9) . . .
300(9) . . .
294(9) . . .
314(10) . . .
309(9) . . .
277(9) . . .
305(10) . . .
310(9) . . .
288(9) . . .
302(9) . . .
289(9) . . .
290(9) . . .
309(9) . . .
312(9) . . .
329(9) . . .
298(10) . . .
298(9) . . .
307(9) . . .
314(9) . . .
305(9) . . .
291(9) . . .
286(9) . . .
295(9) . . .
297(9) . . .
306(9) . . .
302(9) . . .
288(9) . . .
313(9) . . .
295(9) . . .
282(9) . . .
292(9) . . .
317(10) . . .
319(10) . . .
292(9) . . .
286(9) . . .
295(9) . . .
303(10) . . .
286(9) . . .
329(9) . . .
300(9) . . .
320(10) . . .
308(9) . . .
311(9) . . .
338(10) . . .
301(9) . . .
323(10) . . .
296(9) . . .
310(10) . . .
319(9) . . .
316(10) . . .
311(9) . . .
284(9) . . .
326(10) . . .
303(9) . . .
307(9) . . .
327(10) . . .
312(10) . . .
306(9) . . .
334(9) . . .
318(10) . . .
305(9) . . .
325(10) . . .
309(9) . . .
323(9) . . .
294(9) . . .
306(10) . . .
275(9) . . .
295(9) . . .
296(9) . . .
288(9) . . .
266(9) . . .
269(9) . . .
278(9) . . .
283(9) . . .
279(9) . . .
276(9) . . .
260(9) . . .
287(9) . . .
268(9) . . .
278(9) . . .
263(9) . . .
291(9) . . .
295(9) . . .
248(8) . . .
256(9) . . .
289(9) . . .
295(9) . . .
273(9) . . .
279(9) . . .
270(9) . . .
271(9) . . .
271(9) . . .
307(9) . . .
292(9) . . .
267(9) . . .
267(9) . . .
279(9) . . .
263(8) . . .
284(9) . . .
283(9) . . .
240(8) . . .
271(9) . . .
273(9) . . .
269(9) . . .
292(9) . . .
264(9) . . .
264(9) . . .
264(8) . . .
252(9) . . .
277(9) . . .
259(9) . . .
242(8) . . .
253(8) . . .
284(9) . . .
268(9) . . .
261(9) . . .
249(8) . . .
246(8) . . .
255(9) . . .
275(9) . . .
279(9) . . .
277(9) . . .
271(9) . . .
273(9) . . .
275(9) . . .
287(9) . . .
250(8) . . .
254(8) . . .
273(9) . . .
274(9) . . .
260(9) . . .
278(9) . . .
290(9) . . .
259(9) . . .
256(9) . . .
264(9) . . .
250(8) . . .
276(9) . . .
254(9) . . .
268(9) . . .
276(9) . . .
269(9) . . .
268(8) . . .
262(9) . . .
243(9) . . .
264(9) . . .
289(9) . . .
280(9) . . .
263(9) . . .
248(9) . . .
264(9) . . .
259(8) . . .
269(9) . . .
247(8) . . .
246(8) . . .
248(8) . . .
258(8) . . .
243(8) . . .
257(9) . . .
248(8) . . .
264(9) . . .
267(8) . . .
277(9) . . .
262(9) . . .
260(9) . . .
256(9) . . .
263(8) . . .
264(9) . . .
289(9) . . .
247(8) . . .
275(9) . . .
273(9) . . .
264(9) . . .
277(9) . . .
279(9) . . .
260(8) . . .
257(8) . . .
277(9) . . .
268(9) . . .
261(9) . . .
271(9) . . .
271(9) . . .
251(8) . . .
250(9) . . .
281(9) . . .
266(8) . . .
258(8) . . .
256(9) . . .
248(9) . . .
270(9) . . .
263(8) . . .
244(8) . . .
259(9) . . .
265(9) . . .
253(8) . . .
247(8) . . .
253(8) . . .
263(9) . . .
276(9) . . .
248(8) . . .
268(8) . . .
275(9) . . .
267(9) . . .
272(9) . . .
240(8) . . .
266(9) . . .
248(8) . . .
261(9) . . .
246(8) . . .
253(8) . . .
267(8) . . .
273(9) . . .
275(9) . . .
267(9) . . .
255(8) . . .
281(9) . . .
263(9) . . .
261(9) . . .
253(8) . . .
260(8) . . .
264(8) . . .
255(9) . . .
259(9) . . .
269(9) . . .
293(9) . . .
257(8) . . .
267(9) . . .
240(8) . . .
242(8) . . .
260(8) . . .
267(8) . . .
279(9) . . .
242(8) . . .
252(8) . . .
263(8) . . .
271(9) . . .
258(9) . . .
258(9) . . .
262(9) . . .
255(8) . . .
269(9) . . .
238(8) . . .
261(9) . . .
250(9) . . .
260(8) . . .
266(9) . . .
263(9) . . .
248(9) . . .
264(9) . . .
241(8) . . .
208(8) . . .
245(8) . . .
246(8) . . .
233(8) . . .
263(8) . . .
253(8) . . .
244(8) . . .
276(9) . . .
261(9) . . .
231(8) . . .
267(9) . . .
250(8) . . .
257(9) . . .
258(9) . . .
277(9) . . .
253(9) . . .
259(9) . . .
236(8) . . .
238(8) . . .
260(8) . . .
244(8) . . .
257(9) . . .
266(9) . . .
255(8) . . .
255(8) . . .
250(9) . . .
242(9) . . .
244(8) . . .
256(8) . . .
247(8) . . .
261(9) . . .
253(9) . . .
243(9) . . .
247(8) . . .
235(8) . . .
241(8) . . .
247(9) . . .
263(9) . . .
244(8) . . .
254(8) . . .
237(8) . . .
226(8) . . .
232(8) . . .
257(8) . . .
256(8) . . .
242(8) . . .
251(9) . . .
248(9) . . .
221(8) . . .
242(8) . . .
250(9) . . .
258(9) . . .
251(9) . . .
252(8) . . .
255(9) . . .
234(8) . . .
226(8) . . .
238(8) . . .
243(8) . . .
226(8) . . .
254(9) . . .
277(9) . . .
258(9) . . .
250(8) . . .
258(9) . . .
236(8) . . .
231(8) . . .
249(8) . . .
240(8) . . .
264(9) . . .
245(8) . . .
261(9) . . .
264(8) . . .
267(8) . . .
236(8) . . .
246(9) . . .
251(9) . . .
250(8) . . .
247(8) . . .
260(9) . . .
250(9) . . .
258(9) . . .
284(9) . . .
260(8) . . .
236(8) . . .
241(9) . . .
264(9) . . .
253(8) . . .
259(8) . . .
265(9) . . .
265(9) . . .
247(8) . . .
258(8) . . .
246(8) . . .
243(8) . . .
246(8) . . .
236(8) . . .
246(8) . . .
245(8) . . .
240(8) . . .
257(9) . . .
261(9) . . .
238(8) . . .
261(9) . . .
259(9) . . .
239(8) . . .
246(8) . . .
253(8) . . .
252(9) . . .
239(8) . . .
239(8) . . .
244(8) . . .
242(8) . . .
207(8) . . .
231(8) . . .
243(9) . . .
231(8) . . .
212(8) . . .
238(8) . . .
239(8) . . .
241(9) . . .
257(8) . . .
242(8) . . .
242(8) . . .
247(9) . . .
232(8) . . .
231(8) . . .
259(8) . . .
255(9) . . .
240(8) . . .
256(9) . . .
240(8) . . .
246(8) . . .
231(8) . . .
215(8) . . .
247(8) . . .
252(8) . . .
228(8) . . .
222(8) . . .
251(9) . . .
239(8) . . .
247(8) . . .
277(9) . . .
251(8) . . .
250(9) . . .
227(8) . . .
252(8) . . .
262(8) . . .
230(8) . . .
232(9) . . .
214(8) . . .
237(8) . . .
249(8) . . .
253(9) . . .
217(8) . . .
248(8) . . .
246(8) . . .
245(8) . . .
220(8) . . .
212(8) . . .
253(8) . . .
266(8) . . .
233(8) . . .
259(9) . . .
240(8) . . .
238(8) . . .
258(8) . . .
237(8) . . .
252(9) . . .
241(8) . . .
235(8) . . .
242(8) . . .
248(8) . . .
247(9) . . .
232(8) . . .
230(8) . . .
205(7) . . .
235(8) . . .
241(9) . . .
247(8) . . .
234(8) . . .
225(8) . . .
220(8) . . .
242(9) . . .
225(8) . . .
235(8) . . .
230(8) . . .
237(8) . . .
247(9) . . .
248(9) . . .
227(8) . . .
263(9) . . .
237(8) . . .
251(9) . . .
239(8) . . .
264(8) . . .
245(8) . . .
256(9) . . .
240(8) . . .
233(8) . . .
240(8) . . .
243(8) . . .
213(8) . . .
235(9) . . .
250(9) . . .
240(8) . . .
272(9) . . .
249(9) . . .
247(9) . . .
237(8) . . .
245(8) . . .
236(8) . . .
231(8) . . .
241(8) . . .
243(8) . . .
218(8) . . .
226(8) . . .
245(8) . . .
245(8) . . .
226(8) . . .
264(8) . . .
243(8) . . .
231(8) . . .
242(8) . . .
258(8) . . .
235(8) . . .
231(8) . . .
249(9) . . .
252(8) . . .
228(8) . . .
227(8) . . .
252(9) . . .
262(9) . . .
254(9) . . .
280(9) . . .
293(9) . . .
296(9) . . .
288(10) . . .
303(9) . . .
326(9) . . .
289(9) . . .
271(9) . . .
267(9) . . .
275(9) . . .
252(8) . . .
240(8) . . .
267(9) . . .
256(9) . . .
244(8) . . .
237(8) . . .
253(8) . . .
265(9) . . .
253(9) . . .
239(8) . . .
247(8) . . .
267(9) . . .
274(9) . . .
263(9) . . .
260(9) . . .
244(8) . . .
261(9) . . .
262(9) . . .
232(8) . . .
250(8) . . .
264(8) . . .
241(8) . . .
252(9) . . .
247(8) . . .
246(8) . . .
260(8) . . .
236(8) . . .
219(8) . . .
252(9) . . .
251(8) . . .
270(9) . . .
233(8) . . .
254(9) . . .
266(9) . . .
260(8) . . .
246(8) . . .
267(9) . . .
250(9) . . .
240(8) . . .
259(8) . . .
250(8) . . .
240(8) . . .
244(9) . . .
244(8) . . .
266(8) . . .
261(9) . . .
254(9) . . .
245(9) . . .
242(8) . . .
237(8) . . .
261(8) . . .
261(8) . . .
271(9) . . .
235(8) . . .
252(8) . . .
267(9) . . .
235(8) . . .
236(8) . . .
263(9) . . .
249(8) . . .
269(9) . . .
235(8) . . .
244(8) . . .
236(8) . . .
241(8) . . .
221(8) . . .
228(8) . . .
252(9) . . .
246(8) . . .
258(8) . . .
208(8) . . .
237(9) . . .
228(8) . . .
237(8) . . .
248(8) . . .
260(9) . . .
234(8) . . .
233(8) . . .
252(8) . . .
244(8) . . .
253(9) . . .
256(9) . . .
272(9) . . .
260(8) . . .
285(9) . . .
252(9) . . .
262(9) . . .
259(9) . . .
269(9) . . .
272(9) . . .
254(9) . . .
252(9) . . .
219(8) . . .
245(8) . . .
236(8) . . .
278(9) . . .
257(9) . . .
235(8) . . .
258(8) . . .
273(9) . . .
257(9) . . .
237(9) . . .
250(9) . . .
270(9) . . .
257(8) . . .
265(9) . . .
256(9) . . .
247(9) . . .
252(8) . . .
256(8) . . .
250(8) . . .
253(9) . . .
236(8) . . .
276(9) . . .
260(8) . . .
250(9) . . .
268(9) . . .
264(8) . . .
263(8) . . .
250(9) . . .
272(9) . . .
250(9) . . .
233(8) . . .
260(8) . . .
265(9) . . .
241(8) . . .
242(8) . . .
262(9) . . .
268(8) . . .
266(9) . . .
269(9) . . .
281(9) . . .
251(8) . . .
244(8) . . .
250(8) . . .
238(8) . . .
267(9) . . .
253(8) . . .
241(8) . . .
218(8) . . .
228(8) . . .
244(8) . . .
242(8) . . .
234(8) . . .
241(8) . . .
227(8) . . .
239(8) . . .
232(8) . . .
244(8) . . .
251(9) . . .
237(8) . . .
207(8) . . .
208(8) . . .
223(8) . . .
244(8) . . .
257(9) . . .
243(8) . . .
212(8) . . .
232(8) . . .
252(9) . . .
244(9) . . .
247(9) . . .
216(8) . . .
219(8) . . .
232(8) . . .
246(8) . . .
225(8) . . .
234(8) . . .
228(8) . . .
244(9) . . .
241(8) . . .
238(8) . . .
234(8) . . .
217(8) . . .
239(9) . . .
216(8) . . .
255(8) . . .
238(8) . . .
239(8) . . .
242(9) . . .
248(9) . . .
218(8) . . .
222(8) . . .
227(8) . . .
215(8) . . .
214(8) . . .
209(8) . . .
222(8) . . .
226(8) . . .
232(9) . . .
228(8) . . .
220(8) . . .
243(8) . . .
213(8) . . .
232(9) . . .
222(8) . . .
257(8) . . .
228(8) . . .
223(8) . . .
217(8) . . .
218(8) . . .
215(8) . . .
234(8) . . .
224(8) . . .
223(8) . . .
225(8) . . .
206(7) . . .
212(8) . . .
227(8) . . .
227(8) . . .
229(8) . . .
234(8) . . .
225(8) . . .
234(8) . . .
233(8) . . .
225(8) . . .
241(8) . . .
255(9) . . .
242(8) . . .
246(8) . . .
265(9) . . .
248(8) . . .
231(8) . . .
237(8) . . .
228(8) . . .
225(8) . . .
257(8) . . .
230(8) . . .
242(9) . . .
232(8) . . .
234(8) . . .
236(8) . . .
215(8) . . .
214(8) . . .
216(8) . . .
223(8) . . .
214(8) . . .
224(8) . . .
204(8) . . .
217(8) . . .
226(8) . . .
234(8) . . .
235(8) . . .
207(8) . . .
203(8) . . .
219(8) . . .
241(8) . . .
230(8) . . .
241(9) . . .
228(8) . . .
205(7) . . .
233(8) . . .
235(8) . . .
222(8) . . .
221(8) . . .
206(7) . . .
203(8) . . .
215(8) . . .
215(8) . . .
231(8) . . .
216(8) . . .
220(8) . . .
228(8) . . .
207(8) . . .
216(8) . . .
219(8) . . .
186(7) . . .
215(8) . . .
232(8) . . .
234(8) . . .
230(8) . . .
213(8) . . .
225(8) . . .
239(8) . . .
235(8) . . .
229(8) . . .
223(8) . . .
219(8) . . .
225(8) . . .
223(8) . . .
225(8) . . .
225(8) . . .
212(8) . . .
209(8) . . .
207(8) . . .
231(8) . . .
209(8) . . .
219(8) . . .
213(8) . . .
231(8) . . .
220(8) . . .
200(8) . . .
200(8) . . .
205(8) . . .
234(8) . . .
239(8) . . .
239(8) . . .
234(8) . . .
234(8) . . .
213(8) . . .
198(7) . . .
225(8) . . .
243(9) . . .
225(8) . . .
229(8) . . .
246(8) . . .
234(8) . . .
219(8) . . .
230(8) . . .
222(8) . . .
215(8) . . .
192(7) . . .
205(8) . . .
210(8) . . .
245(8) . . .
236(8) . . .
200(8) . . .
229(8) . . .
214(8) . . .
229(8) . . .
226(8) . . .
225(8) . . .
226(8) . . .
214(8) . . .
213(8) . . .
217(8) . . .
227(8) . . .
227(8) . . .
230(8) . . .
217(8) . . .
223(8) . . .
219(8) . . .
224(8) . . .
223(8) . . .
219(8) . . .
237(8) . . .
235(8) . . .
236(8) . . .
233(8) . . .
226(8) . . .
236(8) . . .
244(9) . . .
223(8) . . .
229(8) . . .
212(8) . . .
245(8) . . .
249(9) . . .
234(8) . . .
258(8) . . .
243(8) . . .
259(9) . . .
267(9) . . .
267(9) . . .
248(8) . . .
248(8) . . .
237(8) . . .
236(8) . . .
222(8) . . .
217(8) . . .
224(8) . . .
232(8) . . .
224(8) . . .
232(8) . . .
238(8) . . .
218(8) . . .
214(8) . . .
238(8) . . .
204(8) . . .
227(8) . . .
223(8) . . .
229(8) . . .
216(8) . . .
229(8) . . .
214(8) . . .
227(8) . . .
210(8) . . .
211(8) . . .
236(8) . . .
222(8) . . .
234(8) . . .
229(8) . . .
211(8) . . .
228(8) . . .
240(8) . . .
232(8) . . .
234(9) . . .
221(8) . . .
217(8) . . .
203(7) . . .
236(8) . . .
239(9) . . .
199(7) . . .
214(8) . . .
208(7) . . .
212(8) . . .
213(8) . . .
227(8) . . .
226(8) . . .
221(8) . . .
207(8) . . .
195(8) . . .
206(8) . . .
224(8) . . .
216(8) . . .
234(8) . . .
222(8) . . .
214(8) . . .
201(7) . . .
228(8) . . .
235(8) . . .
221(8) . . .
196(8) . . .
204(7) . . .
207(8) . . .
235(8) . . .
217(8) . . .
223(8) . . .
210(8) . . .
234(8) . . .
192(7) . . .
200(7) . . .
217(8) . . .
231(8) . . .
218(8) . . .
206(8) . . .
214(8) . . .
219(8) . . .
213(8) . . .
217(8) . . .
238(9) . . .
229(8) . . .
213(8) . . .
234(8) . . .
241(8) . . .
229(8) . . .
211(8) . . .
220(8) . . .
185(7) . . .
232(8) . . .
216(8) . . .
229(8) . . .
230(8) . . .
219(8) . . .
229(8) . . .
225(8) . . .
217(8) . . .
223(8) . . .
207(8) . . .
232(8) . . .
231(9) . . .
210(8) . . .
237(8) . . .
207(7) . . .
220(8) . . .
220(8) . . .
216(8) . . .
199(7) . . .
212(8) . . .
229(8) . . .
235(8) . . .
206(8) . . .
201(7) . . .
208(8) . . .
205(8) . . .
209(8) . . .
191(8) . . .
197(7) . . .
217(8) . . .
225(8) . . .
215(8) . . .
227(8) . . .
229(8) . . .
208(8) . . .
211(8) . . .
218(8) . . .
200(7) . . .
211(7) . . .
194(7) . . .
195(8) . . .
217(8) . . .
227(8) . . .
204(7) . . .
217(8) . . .
211(8) . . .
224(8) . . .
222(8) . . .
227(8) . . .
241(8) . . .
230(8) . . .
227(8) . . .
234(8) . . .
221(8) . . .
206(8) . . .
231(9) . . .
236(8) . . .
219(8) . . .
202(7) . . .
208(8) . . .
235(9) . . .
214(8) . . .
226(8) . . .
227(8) . . .
228(8) . . .
219(8) . . .
209(8) . . .
218(8) . . .
226(8) . . .
217(8) . . .
207(8) . . .
222(8) . . .
215(8) . . .
237(8) . . .
228(8) . . .
231(8) . . .
227(8) . . .
212(8) . . .
221(8) . . .
228(8) . . .
227(8) . . .
225(8) . . .
251(8) . . .
233(8) . . .
237(8) . . .
229(8) . . .
235(8) . . .
225(8) . . .
236(8) . . .
241(8) . . .
237(8) . . .
237(8) . . .
240(8) . . .
261(9) . . .
265(9) . . .
251(8) . . .
252(8) . . .
269(8) . . .
277(9) . . .
254(9) . . .
258(9) . . .
248(8) . . .
246(8) . . .
251(8) . . .
242(9) . . .
250(8) . . .
224(8) . . .
222(8) . . .
239(8) . . .
221(8) . . .
226(8) . . .
230(8) . . .
205(7) . . .
236(8) . . .
234(9) . . .
211(8) . . .
231(8) . . .
233(8) . . .
226(8) . . .
207(8) . . .
210(8) . . .
199(7) . . .
243(8) . . .
191(7) . . .
205(8) . . .
220(8) . . .
209(8) . . .
227(8) . . .
205(8) . . .
233(8) . . .
230(8) . . .
209(7) . . .
201(7) . . .
203(8) . . .
229(8) . . .
222(8) . . .
194(7) . . .
210(8) . . .
193(7) . . .
192(7) . . .
205(8) . . .
209(8) . . .
227(8) . . .
236(9) . . .
203(8) . . .
193(7) . . .
215(8) . . .
229(8) . . .
214(8) . . .
211(8) . . .
193(7) . . .
210(8) . . .
198(8) . . .
215(8) . . .
224(8) . . .
202(7) . . .
208(7) . . .
208(8) . . .
207(8) . . .
214(8) . . .
206(7) . . .
241(8) . . .
214(8) . . .
205(8) . . .
215(8) . . .
209(8) . . .
211(8) . . .
211(8) . . .
217(8) . . .
232(8) . . .
208(7) . . .
208(8) . . .
207(8) . . .
203(8) . . .
182(7) . . .
234(8) . . .
204(7) . . .
221(8) . . .
213(8) . . .
212(8) . . .
207(7) . . .
223(8) . . .
213(8) . . .
209(8) . . .
225(8) . . .
211(8) . . .
202(8) . . .
220(8) . . .
196(8) . . .
199(8) . . .
222(8) . . .
245(8) . . .
193(7) . . .
201(8) . . .
204(7) . . .
205(7) . . .
199(8) . . .
224(8) . . .
226(8) . . .
205(7) . . .
201(7) . . .
205(8) . . .
218(8) . . .
213(8) . . .
233(8) . . .
218(8) . . .
214(8) . . .
211(8) . . .
224(8) . . .
217(8) . . .
205(7) . . .
211(8) . . .
206(8) . . .
217(8) . . .
225(8) . . .
207(8) . . .
221(8) . . .
222(8) . . .
208(8) . . .
225(8) . . .
225(8) . . .
224(8) . . .
212(8) . . .
201(8) . . .
195(7) . . .
202(7) . . .
200(8) . . .
218(8) . . .
195(7) . . .
226(8) . . .
198(7) . . .
224(8) . . .
197(7) . . .
172(7) . . .
203(7) . . .
212(8) . . .
209(8) . . .
240(8) . . .
231(8) . . .
209(8) . . .
215(8) . . .
227(8) . . .
205(8) . . .
192(7) . . .
207(7) . . .
195(7) . . .
202(8) . . .
198(7) . . .
207(8) . . .
199(7) . . .
220(8) . . .
217(8) . . .
203(8) . . .
202(8) . . .
211(7) . . .
227(8) . . .
211(8) . . .
205(8) . . .
203(7) . . .
211(8) . . .
216(8) . . .
202(8) . . .
177(7) . . .
208(7) . . .
208(7) . . .
214(8) . . .
214(8) . . .
205(8) . . .
210(8) . . .
225(8) . . .
230(8) . . .
226(8) . . .
217(8) . . .
194(7) . . .
212(8) . . .
208(8) . . .
199(8) . . .
230(8) . . .
216(8) . . .
205(8) . . .
200(8) . . .
193(8) . . .
179(7) . . .
232(8) . . .
207(8) . . .
209(8) . . .
223(8) . . .
213(8) . . .
210(8) . . .
238(8) . . .
219(8) . . .
249(9) . . .
210(8) . . .
212(8) . . .
214(8) . . .
219(8) . . .
236(8) . . .
241(8) . . .
227(8) . . .
227(8) . . .
218(8) . . .
226(8) . . .
241(8) . . .
240(8) . . .
242(8) . . .
239(8) . . .
254(9) . . .
238(8) . . .
238(8) . . .
237(8) . . .
233(8) . . .
238(8) . . .
240(8) . . .
211(8) . . .
238(8) . . .
206(8) . . .
207(8) . . .
225(8) . . .
223(8) . . .
222(8) . . .
233(8) . . .
214(8) . . .
206(7) . . .
218(8) . . .
210(8) . . .
204(8) . . .
214(8) . . .
223(8) . . .
230(8) . . .
236(8) . . .
217(8) . . .
232(8) . . .
242(8) . . .
223(8) . . .
210(8) . . .
220(8) . . .
202(7) . . .
218(8) . . .
218(8) . . .
222(8) . . .
220(8) . . .
201(8) . . .
236(8) . . .
218(8) . . .
218(8) . . .
227(8) . . .
214(8) . . .
211(8) . . .
203(8) . . .
204(8) . . .
202(7) . . .
198(8) . . .
203(7) . . .
225(8) . . .
217(8) . . .
207(8) . . .
234(8) . . .
226(8) . . .
234(8) . . .
205(8) . . .
204(8) . . .
211(8) . . .
200(7) . . .
228(8) . . .
214(8) . . .
224(8) . . .
206(8) . . .
202(7) . . .
229(8) . . .
215(8) . . .
219(8) . . .
249(8) . . .
245(8) . . .
210(8) . . .
227(8) . . .
197(8) . . .
223(8) . . .
222(8) . . .
224(8) . . .
214(8) . . .
210(8) . . .
213(8) . . .
220(8) . . .
213(8) . . .
238(8) . . .
238(8) . . .
244(8) . . .
228(8) . . .
242(9) . . .
214(8) . . .
244(8) . . .
227(8) . . .
211(8) . . .
229(8) . . .
212(8) . . .
230(8) . . .
215(8) . . .
215(8) . . .
196(8) . . .
224(8) . . .
204(7) . . .
219(8) . . .
217(8) . . .
202(8) . . .
203(8) . . .
227(8) . . .
204(7) . . .
189(7) . . .
215(8) . . .
192(7) . . .
220(8) . . .
252(8) . . .
218(8) . . .
220(8) . . .
208(8) . . .
215(8) . . .
242(8) . . .
229(8) . . .
226(8) . . .
232(8) . . .
223(8) . . .
215(8) . . .
218(8) . . .
211(8) . . .
218(8) . . .
226(8) . . .
224(8) . . .
248(9) . . .
270(9) . . .
235(8) . . .
219(8) . . .
279(9) . . .
242(8) . . .
249(9) . . .
239(8) . . .
230(8) . . .
244(8) . . .
236(8) . . .
230(8) . . .
215(8) . . .
208(7) . . .
199(8) . . .
211(8) . . .
209(8) . . .
222(8) . . .
232(8) . . .
231(8) . . .
256(9) . . .
243(8) . . .
238(8) . . .
237(8) . . .
225(8) . . .
219(8) . . .
225(8) . . .
224(8) . . .
226(8) . . .
226(8) . . .
216(8) . . .
209(8) . . .
240(8) . . .
220(8) . . .
237(8) . . .
222(8) . . .
228(8) . . .
213(8) . . .
204(7) . . .
224(8) . . .
224(8) . . .
218(8) . . .
210(8) . . .
190(7) . . .
203(8) . . .
210(8) . . .
228(8) . . .
199(7) . . .
205(8) . . .
203(8) . . .
217(8) . . .
200(8) . . .
212(8) . . .
201(7) . . .
225(8) . . .
213(8) . . .
181(7) . . .
205(7) . . .
225(8) . . .
218(8) . . .
204(8) . . .
201(7) . . .
203(7) . . .
213(8) . . .
202(8) . . .
206(8) . . .
222(8) . . .
206(7) . . .
198(8) . . .
203(8) . . .
222(8) . . .
213(8) . . .
222(8) . . .
213(8) . . .
208(8) . . .
222(8) . . .
211(8) . . .
196(7) . . .
206(8) . . .
224(8) . . .
222(8) . . .
197(7) . . .
212(8) . . .
212(8) . . .
224(8) . . .
204(8) . . .
208(7) . . .
214(8) . . .
224(8) . . .
218(8) . . .
207(8) . . .
219(8) . . .
203(7) . . .
219(8) . . .
205(8) . . .
222(8) . . .
201(7) . . .
195(7) . . .
197(8) . . .
216(8) . . .
197(7) . . .
211(8) . . .
216(8) . . .
222(8) . . .
197(8) . . .
207(8) . . .
218(8) . . .
207(8) . . .
203(8) . . .
218(8) . . .
214(8) . . .
209(7) . . .
235(8) . . .
215(8) . . .
200(8) . . .
210(8) . . .
223(8) . . .
192(7) . . .
206(8) . . .
205(8) . . .
223(8) . . .
198(7) . . .
209(8) . . .
207(8) . . .
200(8) . . .
219(8) . . .
217(8) . . .
216(8) . . .
215(8) . . .
233(8) . . .
226(8) . . .
223(8) . . .
233(8) . . .
207(8) . . .
214(8) . . .
201(7) . . .
221(8) . . .
207(8) . . .
213(8) . . .
224(8) . . .
205(7) . . .
254(8) . . .
222(8) . . .
223(8) . . .
265(9) . . .
243(8) . . .
252(8) . . .
243(8) . . .
261(9) . . .
245(8) . . .
253(8) . . .
225(8) . . .
263(9) . . .
241(8) . . .
250(9) . . .
244(8) . . .
240(8) . . .
257(9) . . .
234(8) . . .
241(8) . . .
251(8) . . .
212(8) . . .
246(9) . . .
225(8) . . .
239(8) . . .
244(8) . . .
239(8) . . .
252(9) . . .
232(8) . . .
211(8) . . .
233(8) . . .
236(8) . . .
209(8) . . .
206(8) . . .
226(8) . . .
211(8) . . .
221(8) . . .
201(8) . . .
225(8) . . .
210(7) . . .
192(7) . . .
227(8) . . .
225(8) . . .
216(8) . . .
187(7) . . .
206(8) . . .
214(8) . . .
197(8) . . .
196(8) . . .
215(8) . . .
198(7) . . .
193(7) . . .
216(8) . . .
206(8) . . .
212(8) . . .
208(7) . . .
198(7) . . .
226(8) . . .
199(8) . . .
203(7) . . .
217(8) . . .
211(8) . . .
217(8) . . .
215(8) . . .
216(8) . . .
190(7) . . .
201(8) . . .
194(7) . . .
207(8) . . .
204(7) . . .
206(8) . . .
210(8) . . .
206(8) . . .
213(8) . . .
210(8) . . .
213(8) . . .
217(8) . . .
213(8) . . .
217(8) . . .
222(8) . . .
208(8) . . .
228(8) . . .
203(7) . . .
211(8) . . .
235(8) . . .
227(8) . . .
229(9) . . .
213(8) . . .
216(8) . . .
217(8) . . .
207(8) . . .
224(8) . . .
239(8) . . .
234(8) . . .
211(8) . . .
215(8) . . .
235(8) . . .
217(8) . . .
195(7) . . .
217(8) . . .
209(8) . . .
201(8) . . .
186(7) . . .
198(7) . . .
200(7) . . .
215(8) . . .
226(8) . . .
217(8) . . .
235(8) . . .
197(7) . . .
207(8) . . .
206(8) . . .
206(8) . . .
200(7) . . .
213(8) . . .
193(8) . . .
202(8) . . .
200(8) . . .
235(8) . . .
202(7) . . .
207(8) . . .
213(8) . . .
199(7) . . .
197(7) . . .
209(8) . . .
220(8) . . .
213(8) . . .
215(8) . . .
215(8) . . .
202(8) . . .
197(8) . . .
217(8) . . .
189(7) . . .
218(8) . . .
237(8) . . .
220(8) . . .
193(7) . . .
201(7) . . .
221(8) . . .
245(9) . . .
208(8) . . .
205(8) . . .
208(8) . . .
204(7) . . .
213(8) . . .
215(8) . . .
211(8) . . .
206(7) . . .
232(8) . . .
224(8) . . .
212(8) . . .
222(8) . . .
215(8) . . .
237(8) . . .
216(8) . . .
227(8) . . .
250(9) . . .
247(8) . . .
265(9) . . .
248(8) . . .
268(9) . . .
248(8) . . .
252(8) . . .
273(9) . . .
268(9) . . .
276(9) . . .
238(8) . . .
223(8) . . .
260(9) . . .
240(8) . . .
230(8) . . .
227(8) . . .
219(8) . . .
215(8) . . .
209(8) . . .
216(8) . . .
224(8) . . .
222(8) . . .
211(8) . . .
208(8) . . .
209(8) . . .
205(7) . . .
227(8) . . .
227(8) . . .
203(8) . . .
206(8) . . .
228(8) . . .
205(7) . . .
204(8) . . .
206(8) . . .
209(8) . . .
213(8) . . .
210(8) . . .
202(8) . . .
206(8) . . .
218(8) . . .
216(8) . . .
234(8) . . .
236(8) . . .
234(8) . . .
238(8) . . .
201(7) . . .
197(7) . . .
205(8) . . .
203(8) . . .
192(8) . . .
220(8) . . .
197(7) . . .
218(8) . . .
218(8) . . .
201(8) . . .
206(7) . . .
220(8) . . .
198(8) . . .
219(8) . . .
212(8) . . .
193(7) . . .
226(8) . . .
207(8) . . .
229(8) . . .
209(8) . . .
227(8) . . .
213(8) . . .
202(8) . . .
213(8) . . .
185(7) . . .
204(7) . . .
212(8) . . .
217(8) . . .
193(7) . . .
194(7) . . .
216(8) . . .
192(7) . . .
193(8) . . .
198(8) . . .
191(7) . . .
213(8) . . .
207(8) . . .
228(8) . . .
224(8) . . .
207(7) . . .
206(7) . . .
219(8) . . .
221(8) . . .
212(8) . . .
203(7) . . .
229(8) . . .
212(8) . . .
201(8) . . .
212(8) . . .
210(8) . . .
193(7) . . .
216(8) . . .
227(8) . . .
208(8) . . .
183(7) . . .
198(7) . . .
190(7) . . .
206(8) . . .
202(8) . . .
215(8) . . .
200(8) . . .
192(7) . . .
186(7) . . .
202(8) . . .
196(7) . . .
213(8) . . .
208(8) . . .
206(8) . . .
190(7) . . .
197(7) . . .
193(7) . . .
197(7) . . .
221(8) . . .
189(7) . . .
195(7) . . .
207(8) . . .
197(8) . . .
206(8) . . .
188(7) . . .
205(7) . . .
218(8) . . .
215(8) . . .
187(7) . . .
198(7) . . .
192(7) . . .
203(8) . . .
217(8) . . .
222(8) . . .
208(8) . . .
213(8) . . .
210(8) . . .
208(8) . . .
222(8) . . .
240(8) . . .
231(8) . . .
207(8) . . .
205(8) . . .
216(8) . . .
216(8) . . .
204(8) . . .
212(8) . . .
190(7) . . .
228(8) . . .
206(8) . . .
209(8) . . .
217(8) . . .
203(8) . . .
202(8) . . .
250(8) . . .
215(8) . . .
216(8) . . .
223(8) . . .
198(8) . . .
206(8) . . .
227(8) . . .
187(7) . . .
206(8) . . .
203(8) . . .
203(7) . . .
219(8) . . .
222(8) . . .
219(8) . . .
219(8) . . .
210(7) . . .
205(8) . . .
178(7) . . .
189(7) . . .
216(8) . . .
228(8) . . .
194(7) . . .
197(8) . . .
214(8) . . .
194(7) . . .
197(7) . . .
196(7) . . .
205(8) . . .
214(8) . . .
215(8) . . .
214(8) . . .
205(8) . . .
217(8) . . .
224(8) . . .
183(7) . . .
189(7) . . .
215(8) . . .
212(8) . . .
217(8) . . .
202(7) . . .
188(7) . . .
205(8) . . .
197(8) . . .
212(8) . . .
213(8) . . .
214(8) . . .
231(8) . . .
208(8) . . .
232(8) . . .
233(8) . . .
202(7) . . .
216(8) . . .
217(8) . . .
211(8) . . .
216(8) . . .
216(8) . . .
233(8) . . .
224(8) . . .
229(8) . . .
222(8) . . .
217(8) . . .
234(8) . . .
236(8) . . .
215(8) . . .
229(8) . . .
221(8) . . .
247(9) . . .
234(8) . . .
253(8) . . .
218(8) . . .
192(7) . . .
228(8) . . .
237(8) . . .
235(8) . . .
238(8) . . .
223(8) . . .
221(8) . . .
223(8) . . .
252(8) . . .
225(8) . . .
251(9) . . .
234(8) . . .
233(8) . . .
235(8) . . .
253(8) . . .
239(8) . . .
251(9) . . .
261(9) . . .
261(8) . . .
268(8) . . .
232(8) . . .
233(8) . . .
266(9) . . .
243(8) . . .
261(8) . . .
249(8) . . .
234(8) . . .
268(9) . . .
253(8) . . .
223(8) . . .
249(8) . . .
227(8) . . .
234(8) . . .
259(8) . . .
246(8) . . .
224(8) . . .
237(8) . . .
244(8) . . .
204(7) . . .
227(8) . . .
216(8) . . .
216(8) . . .
188(7) . . .
217(8) . . .
218(8) . . .
218(8) . . .
197(7) . . .
213(8) . . .
209(8) . . .
194(8) . . .
229(8) . . .
212(8) . . .
185(7) . . .
210(8) . . .
203(8) . . .
233(9) . . .
210(8) . . .
252(8) . . .
207(7) . . .
212(8) . . .
203(8) . . .
211(8) . . .
231(8) . . .
209(7) . . .
205(8) . . .
202(8) . . .
219(8) . . .
214(8) . . .
223(8) . . .
217(8) . . .
213(8) . . .
207(8) . . .
226(8) . . .
213(8) . . .
200(8) . . .
208(8) . . .
228(8) . . .
220(8) . . .
217(8) . . .
205(8) . . .
235(9) . . .
228(8) . . .
232(8) . . .
217(8) . . .
197(8) . . .
220(8) . . .
209(8) . . .
207(7) . . .
219(8) . . .
217(8) . . .
200(8) . . .
205(8) . . .
223(8) . . .
204(7) . . .
204(8) . . .
204(8) . . .
200(7) . . .
210(8) . . .
205(8) . . .
208(8) . . .
213(8) . . .
223(8) . . .
208(7) . . .
227(8) . . .
201(8) . . .
224(8) . . .
223(8) . . .
210(8) . . .
205(8) . . .
226(8) . . .
218(8) . . .
207(8) . . .
197(7) . . .
205(8) . . .
225(8) . . .
207(7) . . .
193(7) . . .
215(8) . . .
219(8) . . .
183(7) . . .
196(8) . . .
189(7) . . .
203(7) . . .
211(8) . . .
209(8) . . .
205(8) . . .
199(7) . . .
230(8) . . .
204(8) . . .
190(7) . . .
193(7) . . .
183(7) . . .
192(7) . . .
203(8) . . .
209(8) . . .
174(7) . . .
223(8) . . .
205(8) . . .
198(8) . . .
212(8) . . .
212(8) . . .
209(8) . . .
180(7) . . .
183(7) . . .
191(7) . . .
203(8) . . .
181(7) . . .
199(8) . . .
209(8) . . .
190(7) . . .
206(8) . . .
200(7) . . .
201(7) . . .
228(8) . . .
208(7) . . .
200(7) . . .
196(7) . . .
210(8) . . .
198(8) . . .
197(7) . . .
211(8) . . .
195(7) . . .
213(8) . . .
216(8) . . .
189(7) . . .
198(7) . . .
230(8) . . .
219(8) . . .
206(8) . . .
215(8) . . .
222(8) . . .
216(8) . . .
210(8) . . .
213(8) . . .
214(8) . . .
232(8) . . .
195(7) . . .
195(7) . . .
213(8) . . .
221(8) . . .
207(8) . . .
196(7) . . .
213(8) . . .
217(8) . . .
228(8) . . .
222(8) . . .
231(8) . . .
206(8) . . .
217(8) . . .
234(8) . . .
230(8) . . .
223(8) . . .
223(8) . . .
232(8) . . .
218(8) . . .
224(8) . . .
226(8) . . .
219(8) . . .
212(8) . . .
221(8) . . .
212(7) . . .
209(8) . . .
217(8) . . .
202(8) . . .
190(7) . . .
223(8) . . .
240(8) . . .
201(8) . . .
207(8) . . .
207(8) . . .
195(7) . . .
199(7) . . .
202(8) . . .
202(8) . . .
201(7) . . .
219(8) . . .
224(8) . . .
202(8) . . .
232(8) . . .
196(7) . . .
206(7) . . .
208(8) . . .
205(8) . . .
199(8) . . .
202(7) . . .
188(7) . . .
215(8) . . .
220(8) . . .
221(8) . . .
214(8) . . .
222(8) . . .
225(8) . . .
221(8) . . .
233(8) . . .
228(8) . . .
250(8) . . .
237(8) . . .
247(9) . . .
235(8) . . .
251(8) . . .
228(8) . . .
264(9) . . .
244(8) . . .
244(8) . . .
216(8) . . .
218(8) . . .
219(8) . . .
216(8) . . .
231(8) . . .
203(7) . . .
233(8) . . .
198(8) . . .
203(8) . . .
202(7) . . .
206(7) . . .
194(7) . . .
207(8) . . .
221(8) . . .
210(8) . . .
220(8) . . .
200(8) . . .
206(8) . . .
189(7) . . .
215(8) . . .
195(7) . . .
213(8) . . .
230(8) . . .
222(8) . . .
189(7) . . .
215(8) . . .
229(8) . . .
228(8) . . .
204(7) . . .
213(8) . . .
225(8) . . .
203(8) . . .
213(8) . . .
229(8) . . .
227(8) . . .
215(8) . . .
213(8) . . .
205(8) . . .
219(8) . . .
211(7) . . .
228(8) . . .
210(8) . . .
188(7) . . .
201(7) . . .
190(7) . . .
210(8) . . .
208(8) . . .
179(7) . . .
194(7) . . .
206(7) . . .
211(8) . . .
213(8) . . .
206(8) . . .
202(8) . . .
219(8) . . .
205(8) . . .
197(8) . . .
191(7) . . .
204(8) . . .
211(8) . . .
212(8) . . .
234(8) . . .
201(7) . . .
218(8) . . .
183(7) . . .
217(8) . . .
189(8) . . .
200(8) . . .
197(7) . . .
192(7) . . .
198(8) . . .
209(8) . . .
210(8) . . .
209(7) . . .
203(7) . . .
215(8) . . .
212(8) . . .
216(8) . . .
222(8) . . .
209(8) . . .
210(8) . . .
211(8) . . .
207(8) . . .
217(8) . . .
197(7) . . .
204(8) . . .
193(8) . . .
207(8) . . .
210(8) . . .
199(7) . . .
210(8) . . .
206(8) . . .
204(8) . . .
195(7) . . .
195(7) . . .
187(7) . . .
202(8) . . .
211(8) . . .
199(7) . . .
196(7) . . .
193(7) . . .
210(8) . . .
204(7) . . .
201(7) . . .
199(8) . . .
183(7) . . .
193(8) . . .
213(8) . . .
189(7) . . .
217(8) . . .
226(8) . . .
207(8) . . .
206(8) . . .
219(8) . . .
204(8) . . .
201(8) . . .
213(8) . . .
202(7) . . .
193(7) . . .
199(8) . . .
204(8) . . .
207(8) . . .
201(7) . . .
205(7) . . .
207(8) . . .
196(8) . . .
212(8) . . .
210(8) . . .
216(8) . . .
212(8) . . .
223(8) . . .
215(8) . . .
197(7) . . .
219(8) . . .
216(8) . . .
214(8) . . .
200(8) . . .
200(7) . . .
222(8) . . .
219(8) . . .
202(8) . . .
191(7) . . .
207(7) . . .
200(7) . . .
210(8) . . .
201(8) . . .
202(8) . . .
215(8) . . .
210(8) . . .
229(8) . . .
218(8) . . .
219(8) . . .
207(7) . . .
188(7) . . .
184(7) . . .
192(7) . . .
200(7) . . .
205(7) . . .
204(8) . . .
206(8) . . .
215(8) . . .
206(7) . . .
223(8) . . .
213(8) . . .
225(8) . . .
200(8) . . .
228(8) . . .
225(8) . . .
221(8) . . .
220(8) . . .
195(7) . . .
207(7) . . .
201(7) . . .
213(8) . . .
217(8) . . .
223(8) . . .
224(8) . . .
220(8) . . .
201(8) . . .
216(8) . . .
219(8) . . .
201(7) . . .
211(8) . . .
197(8) . . .
234(9) . . .
223(8) . . .
228(8) . . .
222(8) . . .
208(8) . . .
206(8) . . .
217(8) . . .
214(8) . . .
208(8) . . .
210(8) . . .
203(8) . . .
210(8) . . .
224(8) . . .
202(8) . . .
210(8) . . .
212(8) . . .
200(7) . . .
206(7) . . .
207(8) . . .
194(8) . . .
201(8) . . .
230(8) . . .
184(7) . . .
203(8) . . .
197(8) . . .
202(8) . . .
193(7) . . .
187(7) . . .
203(8) . . .
203(8) . . .
210(8) . . .
210(8) . . .
206(7) . . .
182(7) . . .
222(8) . . .
202(8) . . .
209(8) . . .
208(8) . . .
224(8) . . .
207(8) . . .
208(8) . . .
191(7) . . .
214(8) . . .
213(8) . . .
185(8) . . .
176(7) . . .
212(8) . . .
194(7) . . .
184(7) . . .
191(7) . . .
207(8) . . .
195(7) . . .
182(7) . . .
200(8) . . .
200(8) . . .
204(8) . . .
203(7) . . .
193(7) . . .
193(7) . . .
218(8) . . .
205(8) . . .
185(7) . . .
188(7) . . .
191(7) . . .
208(8) . . .
215(8) . . .
189(7) . . .
190(7) . . .
201(8) . . .
188(7) . . .
203(8) . . .
189(7) . . .
203(8) . . .
200(8) . . .
190(7) . . .
193(7) . . .
177(7) . . .
205(8) . . .
189(7) . . .
220(8) . . .
212(8) . . .
200(7) . . .
213(8) . . .
208(8) . . .
179(7) . . .
214(8) . . .
210(8) . . .
201(7) . . .
205(8) . . .
197(7) . . .
185(7) . . .
208(8) . . .
210(8) . . .
183(8) . . .
196(7) . . .
214(8) . . .
208(7) . . .
184(7) . . .
204(8) . . .
206(8) . . .
203(7) . . .
206(7) . . .
193(7) . . .
213(8) . . .
211(8) . . .
206(7) . . .
190(7) . . .
208(8) . . .
194(8) . . .
191(8) . . .
183(7) . . .
195(7) . . .
188(7) . . .
232(9) . . .
212(8) . . .
188(7) . . .
199(7) . . .
199(8) . . .
207(8) . . .
206(8) . . .
198(7) . . .
198(8) . . .
197(8) . . .
181(7) . . .
192(7) . . .
213(8) . . .
199(8) . . .
203(8) . . .
206(8) . . .
215(8) . . .
190(7) . . .
205(8) . . .
213(8) . . .
209(8) . . .
192(7) . . .
194(7) . . .
217(8) . . .
205(8) . . .
192(7) . . .
204(7) . . .
199(7) . . .
221(8) . . .
191(8) . . .
184(7) . . .
214(8) . . .
216(8) . . .
219(8) . . .
204(8) . . .
205(8) . . .
219(8) . . .
212(8) . . .
200(7) . . .
212(8) . . .
195(8) . . .
229(8) . . .
202(7) . . .
202(7) . . .
207(8) . . .
193(7) . . .
170(7) . . .
233(8) . . .
197(8) . . .
209(8) . . .
204(8) . . .
203(7) . . .
205(8) . . .
208(8) . . .
194(8) . . .
214(8) . . .
208(7) . . .
214(8) . . .
189(7) . . .
203(8) . . .
189(7) . . .
212(7) . . .
189(7) . . .
200(8) . . .
198(7) . . .
214(8) . . .
228(8) . . .
206(8) . . .
206(8) . . .
222(8) . . .
199(7) . . .
178(7) . . .
193(7) . . .
204(8) . . .
201(8) . . .
205(8) . . .
200(7) . . .
192(7) . . .
197(8) . . .
205(8) . . .
196(7) . . .
207(8) . . .
194(8) . . .
198(8) . . .
183(7) . . .
210(8) . . .
204(7) . . .
208(8) . . .
202(8) . . .
165(7) . . .
201(7) . . .
223(8) . . .
205(8) . . .
210(8) . . .
213(8) . . .
208(7) . . .
212(8) . . .
199(8) . . .
187(8) . . .
197(7) . . .
208(7) . . .
216(8) . . .
212(8) . . .
199(8) . . .
200(8) . . .
183(7) . . .
193(7) . . .
207(8) . . .
199(8) . . .
201(7) . . .
194(7) . . .
193(8) . . .
216(8) . . .
197(7) . . .
203(7) . . .
207(7) . . .
218(8) . . .
202(8) . . .
208(8) . . .
192(7) . . .
186(7) . . .
184(7) . . .
215(8) . . .
190(7) . . .
213(8) . . .
188(7) . . .
176(7) . . .
213(8) . . .
214(8) . . .
200(7) . . .
229(8) . . .
184(7) . . .
198(8) . . .
224(8) . . .
192(7) . . .
210(8) . . .
204(8) . . .
204(8) . . .
189(7) . . .
223(8) . . .
200(7) . . .
208(8) . . .
207(8) . . .
192(7) . . .
203(7) . . .
192(7) . . .
213(8) . . .
206(8) . . .
200(7) . . .
220(8) . . .
205(8) . . .
230(8) . . .
211(8) . . .
216(8) . . .
196(7) . . .
221(8) . . .
208(8) . . .
180(7) . . .
203(8) . . .
208(7) . . .
215(8) . . .
211(8) . . .
206(8) . . .
200(7) . . .
213(8) . . .
212(8) . . .
201(8) . . .
185(7) . . .
234(8) . . .
209(8) . . .
199(8) . . .
183(7) . . .
224(8) . . .
208(7) . . .
199(7) . . .
208(8) . . .
196(8) . . .
201(7) . . .
226(8) . . .
214(8) . . .
183(7) . . .
189(8) . . .
195(7) . . .
217(8) . . .
200(7) . . .
199(8) . . .
203(8) . . .
213(8) . . .
200(7) . . .
202(7) . . .
209(8) . . .
194(8) . . .
190(7) . . .
182(7) . . .
201(7) . . .
209(8) . . .
201(8) . . .
187(7) . . .
191(7) . . .
198(7) . . .
191(7) . . .
214(8) . . .
188(7) . . .
210(8) . . .
194(7) . . .
211(8) . . .
188(7) . . .
192(7) . . .
190(7) . . .
205(8) . . .
206(8) . . .
209(8) . . .
199(7) . . .
215(8) . . .
223(8) . . .
190(7) . . .
199(8) . . .
201(7) . . .
203(7) . . .
191(7) . . .
204(8) . . .
201(8) . . .
203(7) . . .
221(8) . . .
207(8) . . .
210(8) . . .
196(7) . . .
190(7) . . .
221(8) . . .
199(8) . . .
179(7) . . .
203(8) . . .
171(7) . . .
200(7) . . .
175(7) . . .
201(8) . . .
197(8) . . .
195(7) . . .
183(7) . . .
211(8) . . .
193(8) . . .
182(7) . . .
211(8) . . .
194(7) . . .
189(8) . . .
181(7) . . .
196(8) . . .
199(7) . . .
178(7) . . .
194(8) . . .
191(7) . . .
191(7) . . .
188(7) . . .
183(7) . . .
195(8) . . .
188(7) . . .
203(8) . . .
196(7) . . .
197(7) . . .
187(7) . . .
174(7) . . .
180(7) . . .
181(7) . . .
206(8) . . .
201(8) . . .
188(7) . . .
188(7) . . .
195(7) . . .
192(7) . . .
200(8) . . .
216(8) . . .
204(7) . . .
215(8) . . .
219(8) . . .
183(8) . . .
192(7) . . .
185(7) . . .
190(7) . . .
205(8) . . .
191(8) . . .
196(8) . . .
186(7) . . .
192(7) . . .
196(8) . . .
198(8) . . .
192(8) . . .
183(7) . . .
195(7) . . .
200(8) . . .
221(8) . . .
212(8) . . .
214(8) . . .
178(7) . . .
192(7) . . .
202(8) . . .
186(7) . . .
191(7) . . .
203(8) . . .
183(7) . . .
198(8) . . .
197(8) . . .
189(7) . . .
168(7) . . .
198(8) . . .
191(8) . . .
204(8) . . .
196(7) . . .
182(7) . . .
185(7) . . .
187(7) . . .
196(7) . . .
208(8) . . .
202(8) . . .
209(8) . . .
188(7) . . .
191(7) . . .
203(7) . . .
188(7) . . .
191(7) . . .
217(8) . . .
184(7) . . .
197(7) . . .
194(7) . . .
202(8) . . .
192(7) . . .
210(8) . . .
187(7) . . .
196(7) . . .
193(8) . . .
203(8) . . .
186(7) . . .
178(7) . . .
194(7) . . .
185(7) . . .
191(7) . . .
186(7) . . .
184(7) . . .
188(8) . . .
195(8) . . .
198(7) . . .
188(7) . . .
193(7) . . .
194(7) . . .
192(8) . . .
180(7) . . .
194(7) . . .
167(7) . . .
184(7) . . .
196(8) . . .
203(8) . . .
197(7) . . .
174(7) . . .
191(8) . . .
179(7) . . .
211(8) . . .
179(7) . . .
186(7) . . .
178(7) . . .
179(7) . . .
190(7) . . .
177(7) . . .
183(7) . . .
193(7) . . .
187(7) . . .
187(7) . . .
207(7) . . .
215(8) . . .
189(8) . . .
177(7) . . .
197(7) . . .
185(7) . . .
193(7) . . .
193(8) . . .
212(8) . . .
202(7) . . .
198(7) . . .
189(7) . . .
189(7) . . .
207(8) . . .
206(8) . . .
205(7) . . .
198(8) . . .
188(8) . . .
189(7) . . .
170(7) . . .
178(7) . . .
180(7) . . .
186(8) . . .
195(7) . . .
191(7) . . .
179(7) . . .
196(8) . . .
175(7) . . .
195(7) . . .
212(8) . . .
202(7) . . .
197(7) . . .
208(8) . . .
189(7) . . .
201(7) . . .
198(7) . . .
193(7) . . .
193(8) . . .
192(8) . . .
188(7) . . .
168(7) . . .
183(7) . . .
187(7) . . .
197(7) . . .
205(7) . . .
203(8) . . .
190(7) . . .
194(7) . . .
216(8) . . .
203(7) . . .
183(7) . . .
182(7) . . .
184(7) . . .
198(7) . . .
213(8) . . .
192(8) . . .
181(7) . . .
206(8) . . .
205(7) . . .
187(7) . . .
175(7) . . .
203(8) . . .
212(8) . . .
188(7) . . .
188(7) . . .
181(7) . . .
217(8) . . .
202(8) . . .
197(7) . . .
201(7) . . .
193(8) . . .
187(8) . . .
203(8) . . .
204(7) . . .
185(7) . . .
201(8) . . .
184(7) . . .
192(7) . . .
171(7) . . .
189(7) . . .
203(8) . . .
205(8) . . .
210(8) . . .
183(7) . . .
196(8) . . .
185(7) . . .
183(7) . . .
226(8) . . .
220(8) . . .
218(8) . . .
207(8) . . .
195(8) . . .
207(8) . . .
199(7) . . .
196(7) . . .
206(8) . . .
206(8) . . .
194(7) . . .
201(7) . . .
221(8) . . .
193(8) . . .
193(8) . . .
187(7) . . .
195(7) . . .
190(7) . . .
202(8) . . .
207(8) . . .
198(7) . . .
196(7) . . .
176(7) . . .
177(7) . . .
183(7) . . .
193(7) . . .
198(7) . . .
171(7) . . .
180(7) . . .
185(7) . . .
212(8) . . .
194(7) . . .
188(7) . . .
216(8) . . .
180(7) . . .
186(7) . . .
199(7) . . .
185(7) . . .
208(8) . . .
192(7) . . .
201(7) . . .
203(7) . . .
209(8) . . .
202(8) . . .
207(8) . . .
194(7) . . .
204(7) . . .
200(8) . . .
202(8) . . .
202(7) . . .
192(7) . . .
188(7) . . .
208(8) . . .
201(8) . . .
191(7) . . .
197(7) . . .
204(8) . . .
199(8) . . .
198(8) . . .
185(7) . . .
212(8) . . .
209(8) . . .
206(8) . . .
206(8) . . .
216(8) . . .
204(7) . . .
219(8) . . .
178(7) . . .
211(8) . . .
214(8) . . .
187(7) . . .
201(8) . . .
213(8) . . .
220(8) . . .
213(8) . . .
196(7) . . .
203(8) . . .
201(8) . . .
213(8) . . .
198(7) . . .
210(8) . . .
203(7) . . .
182(8) . . .
184(7) . . .
173(7) . . .
203(7) . . .
194(8) . . .
200(8) . . .
211(8) . . .
209(8) . . .
182(7) . . .
188(7) . . .
192(8) . . .
184(7) . . .
206(7) . . .
216(8) . . .
196(8) . . .
204(8) . . .
189(7) . . .
214(8) . . .
182(7) . . .
174(7) . . .
189(7) . . .
200(8) . . .
202(7) . . .
197(7) . . .
200(8) . . .
194(8) . . .
193(7) . . .
200(7) . . .
209(8) . . .
185(7) . . .
172(7) . . .
192(7) . . .
193(7) . . .
213(8) . . .
219(8) . . .
193(8) . . .
187(7) . . .
193(7) . . .
178(7) . . .
200(8) . . .
193(8) . . .
184(7) . . .
189(7) . . .
214(8) . . .
179(7) . . .
183(7) . . .
203(7) . . .
185(7) . . .
189(7) . . .
193(8) . . .
185(7) . . .
173(7) . . .
196(7) . . .
210(8) . . .
197(8) . . .
195(8) . . .
184(7) . . .
194(7) . . .
200(8) . . .
199(8) . . .
181(7) . . .
195(7) . . .
201(7) . . .
201(8) . . .
210(8) . . .
194(8) . . .
202(7) . . .
186(7) . . .
196(8) . . .
205(8) . . .
200(8) . . .
204(7) . . .
200(8) . . .
194(8) . . .
196(8) . . .
165(7) . . .
197(7) . . .
178(7) . . .
174(7) . . .
203(8) . . .
186(7) . . .
178(7) . . .
182(7) . . .
194(8) . . .
193(7) . . .
193(7) . . .
183(7) . . .
188(7) . . .
201(8) . . .
184(7) . . .
190(7) . . .
191(7) . . .
201(8) . . .
185(8) . . .
188(7) . . .
182(7) . . .
181(7) . . .
180(7) . . .
190(8) . . .
183(7) . . .
202(7) . . .
180(7) . . .
178(7) . . .
199(8) . . .
193(8) . . .
169(7) . . .
194(7) . . .
185(7) . . .
189(8) . . .
193(7) . . .
207(7) . . .
195(7) . . .
196(8) . . .
186(8) . . .
191(8) . . .
199(7) . . .
166(7) . . .
192(8) . . .
200(8) . . .
183(7) . . .
201(7) . . .
189(7) . . .
201(8) . . .
209(8) . . .
190(7) . . .
165(7) . . .
172(7) . . .
188(8) . . .
176(7) . . .
195(7) . . .
194(7) . . .
172(7) . . .
207(8) . . .
190(7) . . .
170(7) . . .
185(7) . . .
183(7) . . .
204(8) . . .
190(7) . . .
191(7) . . .
201(7) . . .
196(8) . . .
179(7) . . .
207(8) . . .
202(8) . . .
214(8) . . .
188(7) . . .
195(8) . . .
192(7) . . .
195(7) . . .
193(7) . . .
201(8) . . .
185(8) . . .
197(8) . . .
180(7) . . .
200(7) . . .
203(8) . . .
197(8) . . .
208(8) . . .
218(8) . . .
211(8) . . .
197(7) . . .
194(8) . . .
180(7) . . .
198(7) . . .
204(8) . . .
203(8) . . .
199(8) . . .
204(8) . . .
208(7) . . .
216(8) . . .
232(8) . . .
199(8) . . .
210(8) . . .
225(8) . . .
209(8) . . .
204(8) . . .
232(8) . . .
215(8) . . .
207(7) . . .
229(8) . . .
211(8) . . .
207(8) . . .
181(7) . . .
205(7) . . .
207(8) . . .
208(8) . . .
214(8) . . .
214(8) . . .
228(8) . . .
197(7) . . .
196(8) . . .
195(7) . . .
218(8) . . .
217(8) . . .
196(8) . . .
202(8) . . .
193(7) . . .
223(8) . . .
226(8) . . .
205(8) . . .
173(7) . . .
203(8) . . .
203(7) . . .
197(7) . . .
220(8) . . .
196(8) . . .
202(8) . . .
204(7) . . .
197(7) . . .
186(7) . . .
193(8) . . .
194(8) . . .
188(7) . . .
180(7) . . .
183(7) . . .
199(8) . . .
187(7) . . .
193(7) . . .
185(7) . . .
182(7) . . .
194(7) . . .
191(7) . . .
209(7) . . .
172(7) . . .
196(7) . . .
187(7) . . .
178(7) . . .
187(7) . . .
209(8) . . .
196(8) . . .
208(8) . . .
192(7) . . .
214(8) . . .
194(7) . . .
187(7) . . .
192(7) . . .
178(7) . . .
196(7) . . .
204(8) . . .
201(8) . . .
184(7) . . .
170(7) . . .
170(7) . . .
179(7) . . .
170(7) . . .
189(7) . . .
192(7) . . .
168(7) . . .
173(7) . . .
185(8) . . .
195(7) . . .
194(7) . . .
185(7) . . .
203(8) . . .
195(8) . . .
208(8) . . .
181(7) . . .
178(7) . . .
195(8) . . .
188(7) . . .
206(8) . . .
179(7) . . .
196(7) . . .
185(7) . . .
184(7) . . .
200(8) . . .
181(7) . . .
186(7) . . .
187(7) . . .
201(8) . . .
205(8) . . .
190(7) . . .
190(7) . . .
181(7) . . .
202(8) . . .
181(7) . . .
192(7) . . .
203(8) . . .
200(8) . . .
186(7) . . .
194(7) . . .
179(7) . . .
186(7) . . .
189(8) . . .
184(7) . . .
191(7) . . .
204(7) . . .
201(8) . . .
199(8) . . .
186(7) . . .
168(7) . . .
187(7) . . .
200(8) . . .
213(8) . . .
198(8) . . .
167(7) . . .
181(7) . . .
183(7) . . .
177(8) . . .
189(8) . . .
203(7) . . .
201(7) . . .
172(7) . . .
179(8) . . .
177(7) . . .
193(7) . . .
201(8) . . .
196(8) . . .
201(8) . . .
194(8) . . .
160(7) . . .
188(7) . . .
176(7) . . .
175(7) . . .
187(7) . . .
205(7) . . .
203(8) . . .
190(7) . . .
185(7) . . .
192(8) . . .
204(7) . . .
178(7) . . .
175(7) . . .
187(7) . . .
168(7) . . .
195(7) . . .
195(8) . . .
176(7) . . .
175(7) . . .
186(7) . . .
202(7) . . .
223(8) . . .
197(7) . . .
203(8) . . .
208(8) . . .
171(7) . . .
186(7) . . .
183(7) . . .
183(7) . . .
178(7) . . .
176(7) . . .
187(7) . . .
177(7) . . .
178(7) . . .
173(7) . . .
181(7) . . .
184(7) . . .
198(8) . . .
187(7) . . .
186(7) . . .
175(7) . . .
184(7) . . .
189(7) . . .
190(7) . . .
180(7) . . .
197(7) . . .
180(7) . . .
195(8) . . .
173(7) . . .
196(7) . . .
197(7) . . .
190(7) . . .
195(8) . . .
209(8) . . .
196(7) . . .
176(7) . . .
173(7) . . .
189(8) . . .
168(7) . . .
194(7) . . .
193(7) . . .
192(8) . . .
191(7) . . .
201(7) . . .
182(7) . . .
191(7) . . .
196(8) . . .
174(7) . . .
192(7) . . .
190(7) . . .
217(8) . . .
172(7) . . .
181(7) . . .
193(7) . . .
203(7) . . .
195(8) . . .
188(7) . . .
208(8) . . .
200(7) . . .
192(7) . . .
186(7) . . .
216(8) . . .
179(7) . . .
196(7) . . .
201(7) . . .
183(7) . . .
207(8) . . .
183(7) . . .
199(8) . . .
180(7) . . .
190(7) . . .
207(8) . . .
188(7) . . .
196(7) . . .
185(7) . . .
179(7) . . .
184(7) . . .
200(7) . . .
181(7) . . .
188(7) . . .
207(8) . . .
182(8) . . .
184(7) . . .
163(7) . . .
179(7) . . .
187(7) . . .
194(8) . . .
178(7) . . .
177(7) . . .
190(7) . . .
179(7) . . .
181(7) . . .
171(7) . . .
198(7) . . .
174(7) . . .
194(7) . . .
196(7) . . .
198(7) . . .
188(7) . . .
190(7) . . .
187(7) . . .
194(7) . . .
178(7) . . .
192(7) . . .
188(7) . . .
183(7) . . .
173(7) . . .
189(7) . . .
184(7) . . .
183(7) . . .
202(8) . . .
188(7) . . .
199(7) . . .
178(7) . . .
180(7) . . .
183(8) . . .
175(7) . . .
174(7) . . .
173(7) . . .
171(7) . . .
185(8) . . .
178(7) . . .
172(7) . . .
173(7) . . .
191(8) . . .
185(8) . . .
182(7) . . .
170(7) . . .
191(7) . . .
205(8) . . .
193(8) . . .
183(7) . . .
178(7) . . .
195(7) . . .
183(7) . . .
189(7) . . .
172(7) . . .
190(7) . . .
176(7) . . .
186(8) . . .
196(8) . . .
187(7) . . .
177(7) . . .
175(7) . . .
180(7) . . .
183(7) . . .
178(7) . . .
194(7) . . .
181(7) . . .
189(7) . . .
195(8) . . .
195(8) . . .
186(7) . . .
208(8) . . .
186(8) . . .
173(7) . . .
179(7) . . .
185(7) . . .
169(7) . . .
170(7) . . .
180(7) . . .
188(7) . . .
183(7) . . .
176(7) . . .
201(8) . . .
207(8) . . .
185(7) . . .
190(7) . . .
186(7) . . .
171(7) . . .
183(7) . . .
182(7) . . .
182(7) . . .
189(7) . . .
190(7) . . .
211(8) . . .
181(7) . . .
178(7) . . .
181(7) . . .
186(7) . . .
189(7) . . .
167(7) . . .
190(7) . . .
187(7) . . .
187(8) . . .
178(7) . . .
207(8) . . .
199(7) . . .
200(8) . . .
198(8) . . .
168(7) . . .
197(7) . . .
191(7) . . .
202(8) . . .
183(7) . . .
195(8) . . .
203(7) . . .
183(7) . . .
177(7) . . .
206(8) . . .
209(8) . . .
185(7) . . .
189(7) . . .
197(8) . . .
191(7) . . .
178(7) . . .
169(7) . . .
195(8) . . .
178(7) . . .
173(7) . . .
172(7) . . .
175(7) . . .
207(8) . . .
192(7) . . .
207(8) . . .
197(7) . . .
209(8) . . .
185(7) . . .
192(8) . . .
188(7) . . .
175(7) . . .
167(7) . . .
194(8) . . .
165(7) . . .
184(7) . . .
205(7) . . .
185(7) . . .
184(7) . . .
194(8) . . .
195(8) . . .
171(7) . . .
185(7) . . .
193(7) . . .
198(8) . . .
180(7) . . .
187(7) . . .
161(7) . . .
179(7) . . .
184(7) . . .
182(7) . . .
179(7) . . .
174(7) . . .
182(7) . . .
172(7) . . .
190(7) . . .
194(7) . . .
193(8) . . .
180(7) . . .
181(7) . . .
165(7) . . .
191(7) . . .
199(8) . . .
184(7) . . .
192(8) . . .
178(7) . . .
180(7) . . .
203(8) . . .
193(8) . . .
207(8) . . .
196(7) . . .
167(7) . . .
191(7) . . .
169(7) . . .
192(7) . . .
185(7) . . .
184(7) . . .
180(7) . . .
177(7) . . .
183(7) . . .
185(7) . . .
198(7) . . .
204(8) . . .
185(8) . . .
193(8) . . .
191(7) . . .
185(7) . . .
182(7) . . .
188(8) . . .
182(7) . . .
186(7) . . .
191(7) . . .
196(8) . . .
186(7) . . .
189(7) . . .
195(7) . . .
173(7) . . .
160(7) . . .
188(8) . . .
186(7) . . .
195(7) . . .
197(7) . . .
187(8) . . .
185(7) . . .
182(7) . . .
177(7) . . .
180(7) . . .
189(7) . . .
185(7) . . .
187(7) . . .
166(7) . . .
173(7) . . .
182(7) . . .
159(7) . . .
170(7) . . .
184(7) . . .
197(8) . . .
178(7) . . .
187(8) . . .
192(7) . . .
152(6) . . .
174(7) . . .
174(7) . . .
184(7) . . .
195(7) . . .
196(7) . . .
177(7) . . .
159(7) . . .
203(8) . . .
193(7) . . .
183(7) . . .
192(7) . . .
198(8) . . .
208(8) . . .
189(7) . . .
179(7) . . .
170(7) . . .
191(8) . . .
187(7) . . .
192(7) . . .
209(8) . . .
214(8) . . .
182(8) . . .
187(7) . . .
196(7) . . .
172(7) . . .
167(7) . . .
194(8) . . .
190(7) . . .
179(7) . . .
185(7) . . .
199(8) . . .
199(8) . . .
208(8) . . .
206(7) . . .
192(7) . . .
198(8) . . .
207(8) . . .
195(8) . . .
188(7) . . .
174(7) . . .
175(7) . . .
198(8) . . .
191(7) . . .
197(7) . . .
172(7) . . .
179(7) . . .
174(7) . . .
183(7) . . .
184(7) . . .
177(7) . . .
174(7) . . .
185(7) . . .
167(7) . . .
161(7) . . .
185(8) . . .
189(8) . . .
183(7) . . .
185(7) . . .
191(7) . . .
185(7) . . .
180(7) . . .
193(7) . . .
197(7) . . .
198(7) . . .
200(8) . . .
166(7) . . .
182(7) . . .
172(7) . . .
176(7) . . .
187(7) . . .
198(8) . . .
209(8) . . .
199(7) . . .
189(7) . . .
192(8) . . .
177(8) . . .
182(7) . . .
177(7) . . .
187(7) . . .
185(7) . . .
165(7) . . .
171(7) . . .
187(7) . . .
187(7) . . .
187(7) . . .
186(7) . . .
215(8) . . .
189(7) . . .
201(8) . . .
199(8) . . .
205(8) . . .
188(7) . . .
207(7) . . .
193(8) . . .
196(8) . . .
188(7) . . .
177(7) . . .
188(7) . . .
199(8) . . .
208(8) . . .
185(7) . . .
172(7) . . .
180(7) . . .
190(8) . . .
184(7) . . .
191(7) . . .
185(7) . . .
203(7) . . .
174(7) . . .
186(8) . . .
169(7) . . .
199(7) . . .
192(7) . . .
177(7) . . .
191(8) . . .
195(7) . . .
176(7) . . .
176(7) . . .
202(8) . . .
182(7) . . .
175(7) . . .
187(7) . . .
197(7) . . .
194(7) . . .
202(8) . . .
192(7) . . .
192(7) . . .
181(7) . . .
178(7) . . .
196(8) . . .
178(7) . . .
198(7) . . .
207(8) . . .
212(8) . . .
185(7) . . .
192(7) . . .
172(7) . . .
183(7) . . .
188(7) . . .
187(7) . . .
170(7) . . .
168(7) . . .
173(7) . . .
188(7) . . .
172(7) . . .
154(6) . . .
188(7) . . .
196(8) . . .
184(7) . . .
176(7) . . .
190(7) . . .
176(7) . . .
185(7) . . .
182(7) . . .
196(7) . . .
197(7) . . .
193(7) . . .
156(7) . . .
183(7) . . .
189(7) . . .
183(7) . . .
198(7) . . .
173(7) . . .
199(8) . . .
187(8) . . .
190(7) . . .
180(7) . . .
208(8) . . .
181(7) . . .
197(8) . . .
198(7) . . .
189(7) . . .
190(7) . . .
194(8) . . .
174(7) . . .
204(7) . . .
186(7) . . .
169(7) . . .
153(7) . . .
165(7) . . .
177(7) . . .
172(7) . . .
188(7) . . .
179(7) . . .
171(7) . . .
179(7) . . .
208(8) . . .
182(8) . . .
193(8) . . .
185(7) . . .
187(7) . . .
193(7) . . .
195(8) . . .
192(7) . . .
189(7) . . .
174(7) . . .
183(7) . . .
184(7) . . .
187(7) . . .
202(8) . . .
195(7) . . .
195(7) . . .
171(7) . . .
190(7) . . .
175(7) . . .
169(7) . . .
185(7) . . .
195(8) . . .
173(7) . . .
177(7) . . .
201(7) . . .
206(8) . . .
179(8) . . .
157(7) . . .
174(7) . . .
180(7) . . .
184(7) . . .
177(8) . . .
176(7) . . .
182(7) . . .
173(7) . . .
184(7) . . .
174(7) . . .
175(7) . . .
154(6) . . .
186(7) . . .
192(7) . . .
169(7) . . .
188(7) . . .
198(7) . . .
176(7) . . .
195(7) . . .
187(7) . . .
163(7) . . .
164(7) . . .
176(7) . . .
205(8) . . .
175(7) . . .
179(7) . . .
176(7) . . .
188(7) . . .
180(7) . . .
173(7) . . .
178(7) . . .
194(7) . . .
195(8) . . .
205(8) . . .
174(7) . . .
184(7) . . .
172(7) . . .
169(7) . . .
171(7) . . .
188(7) . . .
178(7) . . .
198(7) . . .
173(7) . . .
183(7) . . .
189(7) . . .
180(7) . . .
162(7) . . .
183(7) . . .
179(8) . . .
186(7) . . .
169(7) . . .
173(7) . . .
181(7) . . .
181(8) . . .
176(7) . . .
174(7) . . .
183(7) . . .
194(7) . . .
184(7) . . .
181(7) . . .
178(7) . . .
190(7) . . .
173(7) . . .
175(7) . . .
174(7) . . .
190(7) . . .
199(7) . . .
212(8) . . .
181(7) . . .
193(8) . . .
174(7) . . .
181(7) . . .
175(7) . . .
182(7) . . .
201(7) . . .
195(7) . . .
170(7) . . .
161(7) . . .
174(7) . . .
183(7) . . .
189(7) . . .
169(7) . . .
170(7) . . .
189(8) . . .
179(7) . . .
167(7) . . .
187(7) . . .
175(7) . . .
174(7) . . .
177(7) . . .
183(7) . . .
184(7) . . .
173(7) . . .
181(7) . . .
172(7) . . .
177(7) . . .
185(7) . . .
171(7) . . .
201(8) . . .
182(7) . . .
183(7) . . .
160(7) . . .
169(7) . . .
176(7) . . .
174(7) . . .
187(7) . . .
187(7) . . .
177(7) . . .
179(7) . . .
195(7) . . .
183(7) . . .
167(7) . . .
192(8) . . .
185(7) . . .
201(7) . . .
179(7) . . .
187(7) . . .
184(7) . . .
183(7) . . .
166(7) . . .
169(7) . . .
167(7) . . .
177(7) . . .
175(7) . . .
169(7) . . .
166(7) . . .
191(8) . . .
183(7) . . .
174(7) . . .
183(7) . . .
197(8) . . .
165(7) . . .
182(7) . . .
174(7) . . .
159(7) . . .
178(7) . . .
175(7) . . .
198(8) . . .
184(7) . . .
174(7) . . .
182(7) . . .
178(7) . . .
187(8) . . .
163(7) . . .
186(7) . . .
191(7) . . .
191(8) . . .
183(7) . . .
196(7) . . .
192(7) . . .
188(7) . . .
181(7) . . .
181(7) . . .
172(7) . . .
196(7) . . .
182(7) . . .
209(8) . . .
192(7) . . .
191(7) . . .
185(7) . . .
194(8) . . .
176(7) . . .
180(7) . . .
175(7) . . .
191(7) . . .
182(7) . . .
178(7) . . .
187(7) . . .
194(7) . . .
193(7) . . .
192(7) . . .
215(8) . . .
190(7) . . .
187(7) . . .
197(7) . . .
182(7) . . .
186(7) . . .
173(7) . . .
193(7) . . .
191(7) . . .
185(7) . . .
169(7) . . .
182(7) . . .
183(7) . . .
172(7) . . .
160(7) . . .
181(7) . . .
168(7) . . .
175(7) . . .
177(7) . . .
168(7) . . .
151(7) . . .
170(7) . . .
174(7) . . .
181(7) . . .
169(7) . . .
171(7) . . .
156(6) . . .
174(7) . . .
181(7) . . .
160(7) . . .
181(7) . . .
170(7) . . .
187(7) . . .
182(7) . . .
194(8) . . .
190(7) . . .
174(7) . . .
170(7) . . .
164(7) . . .
173(7) . . .
192(8) . . .
176(7) . . .
171(7) . . .
171(7) . . .
172(7) . . .
171(7) . . .
177(7) . . .
176(7) . . .
194(7) . . .
179(7) . . .
177(7) . . .
166(7) . . .
171(7) . . .
151(7) . . .
168(7) . . .
177(7) . . .
168(7) . . .
177(7) . . .
161(7) . . .
177(7) . . .
175(7) . . .
169(7) . . .
177(7) . . .
163(7) . . .
161(7) . . .
176(7) . . .
161(7) . . .
154(7) . . .
152(7) . . .
163(7) . . .
181(7) . . .
166(7) . . .
171(7) . . .
163(7) . . .
154(7) . . .
146(6) . . .
169(7) . . .
194(7) . . .
172(7) . . .
177(7) . . .
175(7) . . .
154(7) . . .
184(8) . . .
170(7) . . .
174(7) . . .
168(7) . . .
165(7) . . .
176(7) . . .
175(7) . . .
178(7) . . .
175(7) . . .
158(7) . . .
163(7) . . .
170(7) . . .
165(7) . . .
183(7) . . .
170(7) . . .
173(7) . . .
162(7) . . .
171(7) . . .
171(7) . . .
177(7) . . .
166(7) . . .
173(7) . . .
189(7) . . .
181(7) . . .
161(7) . . .
168(7) . . .
164(7) . . .
179(7) . . .
178(7) . . .
145(6) . . .
164(7) . . .
163(7) . . .
170(7) . . .
173(7) . . .
164(7) . . .
189(8) . . .
179(7) . . .
170(7) . . .
177(7) . . .
165(7) . . .
182(7) . . .
176(7) . . .
159(7) . . .
166(7) . . .
153(7) . . .
183(8) . . .
172(7) . . .
159(7) . . .
186(7) . . .
161(7) . . .
162(7) . . .
155(7) . . .
174(7) . . .
175(7) . . .
167(7) . . .
166(7) . . .
181(7) . . .
177(7) . . .
163(7) . . .
156(7) . . .
180(7) . . .
169(7) . . .
148(6) . . .
173(7) . . .
175(7) . . .
166(7) . . .
173(7) . . .
156(6) . . .
176(7) . . .
164(7) . . .
161(7) . . .
151(6) . . .
188(7) . . .
189(7) . . .
177(7) . . .
171(7) . . .
166(7) . . .
175(7) . . .
160(7) . . .
174(7) . . .
168(7) . . .
168(7) . . .
151(6) . . .
161(7) . . .
162(7) . . .
181(7) . . .
179(7) . . .
152(6) . . .
160(7) . . .
169(7) . . .
175(7) . . .
190(7) . . .
182(7) . . .
155(7) . . .
161(7) . . .
166(7) . . .
166(7) . . .
171(7) . . .
167(7) . . .
151(7) . . .
168(7) . . .
166(7) . . .
154(6) . . .
175(7) . . .
176(7) . . .
185(7) . . .
174(7) . . .
203(7) . . .
174(7) . . .
163(7) . . .
175(7) . . .
156(6) . . .
157(6) . . .
168(7) . . .
173(7) . . .
199(8) . . .
168(7) . . .
166(7) . . .
168(7) . . .
168(7) . . .
148(6) . . .
166(7) . . .
155(7) . . .
155(7) . . .
178(7) . . .
159(7) . . .
176(7) . . .
157(7) . . .
173(7) . . .
170(7) . . .
167(7) . . .
172(7) . . .
174(7) . . .
175(7) . . .
169(7) . . .
162(7) . . .
178(7) . . .
179(7) . . .
161(7) . . .
175(7) . . .
155(7) . . .
186(7) . . .
164(7) . . .
155(7) . . .
145(6) . . .
167(7) . . .
154(7) . . .
167(7) . . .
170(7) . . .
176(7) . . .
159(7) . . .
159(7) . . .
168(7) . . .
170(7) . . .
158(7) . . .
177(7) . . .
181(7) . . .
176(7) . . .
173(7) . . .
165(7) . . .
175(7) . . .
187(7) . . .
166(7) . . .
174(7) . . .
173(7) . . .
166(7) . . .
169(7) . . .
161(7) . . .
162(7) . . .
175(7) . . .
151(6) . . .
177(7) . . .
177(7) . . .
165(7) . . .
190(7) . . .
175(7) . . .
167(7) . . .
181(7) . . .
150(6) . . .
170(7) . . .
164(7) . . .
176(7) . . .
168(7) . . .
153(7) . . .
173(7) . . .
163(7) . . .
175(7) . . .
169(7) . . .
169(7) . . .
163(7) . . .
171(7) . . .
175(7) . . .
184(7) . . .
172(7) . . .
163(7) . . .
159(7) . . .
182(7) . . .
148(7) . . .
161(7) . . .
159(7) . . .
180(7) . . .
161(7) . . .
173(7) . . .
176(7) . . .
171(7) . . .
194(7) . . .
176(7) . . .
177(7) . . .
171(7) . . .
174(7) . . .
179(7) . . .
164(7) . . .
176(7) . . .
165(7) . . .
189(7) . . .
163(7) . . .
170(7) . . .
183(8) . . .
177(7) . . .
181(7) . . .
183(7) . . .
177(7) . . .
184(7) . . .
161(7) . . .
174(7) . . .
163(7) . . .
177(8) . . .
178(7) . . .
164(7) . . .
175(7) . . .
168(7) . . .
169(7) . . .
163(7) . . .
171(7) . . .
173(7) . . .
198(8) . . .
183(8) . . .
166(7) . . .
183(7) . . .
176(7) . . .
169(7) . . .
163(7) . . .
178(7) . . .
167(7) . . .
171(7) . . .
176(7) . . .
182(7) . . .
201(8) . . .
192(7) . . .
171(7) . . .
172(7) . . .
182(8) . . .
171(7) . . .
159(6) . . .
162(7) . . .
179(7) . . .
179(7) . . .
191(7) . . .
187(7) . . .
166(7) . . .
156(7) . . .
176(7) . . .
168(7) . . .
175(7) . . .
169(7) . . .
166(7) . . .
166(7) . . .
172(7) . . .
180(7) . . .
160(7) . . .
180(7) . . .
158(6) . . .
196(8) . . .
160(7) . . .
165(7) . . .
170(7) . . .
168(7) . . .
167(7) . . .
165(7) . . .
200(8) . . .
168(7) . . .
158(7) . . .
163(7) . . .
155(6) . . .
169(7) . . .
170(7) . . .
163(7) . . .
168(7) . . .
163(7) . . .
171(7) . . .
151(7) . . .
181(7) . . .
179(7) . . .
177(7) . . .
170(7) . . .
170(7) . . .
159(7) . . .
156(7) . . .
157(6) . . .
186(7) . . .
184(7) . . .
174(7) . . .
178(7) . . .
176(7) . . .
187(7) . . .
180(7) . . .
202(8) . . .
160(7) . . .
166(7) . . .
163(7) . . .
166(7) . . .
164(7) . . .
171(7) . . .
188(7) . . .
163(7) . . .
177(7) . . .
176(7) . . .
164(7) . . .
174(7) . . .
164(7) . . .
182(7) . . .
175(7) . . .
176(7) . . .
178(7) . . .
162(7) . . .
182(8) . . .
177(7) . . .
175(7) . . .
165(7) . . .
185(7) . . .
181(7) . . .
164(7) . . .
161(7) . . .
187(7) . . .
186(7) . . .
172(7) . . .
162(7) . . .
168(7) . . .
161(7) . . .
148(7) . . .
153(7) . . .
163(7) . . .
154(6) . . .
179(8) . . .
176(8) . . .
157(7) . . .
148(6) . . .
158(7) . . .
149(6) . . .
171(7) . . .
181(7) . . .
161(7) . . .
179(7) . . .
163(7) . . .
173(8) . . .
158(7) . . .
185(7) . . .
174(7) . . .
186(7) . . .
188(8) . . .
169(7) . . .
171(7) . . .
168(7) . . .
165(7) . . .
168(7) . . .
165(7) . . .
160(7) . . .
171(7) . . .
159(7) . . .
156(7) . . .
171(7) . . .
157(7) . . .
161(7) . . .
158(7) . . .
181(7) . . .
162(7) . . .
179(7) . . .
178(7) . . .
181(7) . . .
168(7) . . .
178(7) . . .
164(7) . . .
158(7) . . .
161(7) . . .
185(7) . . .
168(7) . . .
185(7) . . .
179(7) . . .
155(7) . . .
167(7) . . .
172(7) . . .
148(6) . . .
163(7) . . .
151(7) . . .
155(7) . . .
165(7) . . .
167(7) . . .
159(7) . . .
167(7) . . .
170(7) . . .
155(6) . . .
152(6) . . .
165(7) . . .
176(7) . . .
172(7) . . .
161(7) . . .
154(6) . . .
142(6) . . .
159(7) . . .
158(7) . . .
135(6) . . .
155(7) . . .
161(7) . . .
147(7) . . .
182(7) . . .
150(6) . . .
152(6) . . .
160(7) . . .
167(7) . . .
181(7) . . .
157(6) . . .
161(7) . . .
162(7) . . .
146(7) . . .
141(6) . . .
148(6) . . .
160(7) . . .
179(7) . . .
179(7) . . .
181(7) . . .
184(7) . . .
172(7) . . .
176(7) . . .
148(6) . . .
181(7) . . .
148(6) . . .
148(7) . . .
176(7) . . .
189(7) . . .
178(7) . . .
156(6) . . .
161(7) . . .
155(7) . . .
159(7) . . .
157(7) . . .
141(6) . . .
159(7) . . .
156(7) . . .
161(7) . . .
162(7) . . .
156(7) . . .
152(6) . . .
155(7) . . .
151(7) . . .
159(7) . . .
146(6) . . .
161(7) . . .
154(7) . . .
162(7) . . .
180(7) . . .
165(7) . . .
172(7) . . .
167(7) . . .
171(7) . . .
164(7) . . .
161(7) . . .
187(7) . . .
170(7) . . .
163(7) . . .
169(7) . . .
145(6) . . .
159(7) . . .
164(7) . . .
161(7) . . .
157(6) . . .
167(7) . . .
166(7) . . .
169(7) . . .
180(7) . . .
168(7) . . .
180(7) . . .
152(7) . . .
155(7) . . .
177(7) . . .
146(6) . . .
159(7) . . .
168(7) . . .
168(7) . . .
154(6) . . .
169(7) . . .
157(7) . . .
178(8) . . .
164(7) . . .
177(7) . . .
160(7) . . .
182(7) . . .
175(7) . . .
179(7) . . .
174(7) . . .
159(7) . . .
188(7) . . .
166(7) . . .
171(7) . . .
173(7) . . .
183(7) . . .
190(8) . . .
169(7) . . .
164(7) . . .
170(7) . . .
158(7) . . .
181(7) . . .
164(7) . . .
179(7) . . .
176(7) . . .
176(7) . . .
152(7) . . .
161(7) . . .
167(7) . . .
159(7) . . .
167(7) . . .
154(7) . . .
170(7) . . .
173(7) . . .
178(7) . . .
176(7) . . .
175(7) . . .
160(7) . . .
181(7) . . .
166(7) . . .
171(7) . . .
173(7) . . .
173(7) . . .
184(7) . . .
161(7) . . .
184(7) . . .
179(7) . . .
166(7) . . .
182(7) . . .
148(6) . . .
166(7) . . .
166(7) . . .
159(7) . . .
170(7) . . .
169(7) . . .
168(7) . . .
171(7) . . .
168(7) . . .
163(7) . . .
172(7) . . .
165(7) . . .
158(7) . . .
160(7) . . .
166(7) . . .
175(7) . . .
185(7) . . .
161(7) . . .
162(7) . . .
163(7) . . .
182(7) . . .
161(7) . . .
170(7) . . .
175(7) . . .
154(6) . . .
159(7) . . .
165(7) . . .
165(7) . . .
165(7) . . .
147(6) . . .
161(7) . . .
162(7) . . .
181(7) . . .
177(7) . . .
139(6) . . .
166(7) . . .
155(6) . . .
175(7) . . .
170(7) . . .
175(7) . . .
161(7) . . .
165(7) . . .
177(7) . . .
164(7) . . .
159(7) . . .
141(6) . . .
173(7) . . .
170(7) . . .
175(7) . . .
161(7) . . .
145(6) . . .
160(7) . . .
170(7) . . .
151(6) . . .
163(7) . . .
177(7) . . .
173(7) . . .
149(7) . . .
169(7) . . .
174(7) . . .
161(7) . . .
170(7) . . .
188(7) . . .
181(7) . . .
162(7) . . .
175(7) . . .
161(7) . . .
156(7) . . .
153(7) . . .
171(7) . . .
177(7) . . .
160(7) . . .
157(7) . . .
151(6) . . .
159(7) . . .
152(7) . . .
146(6) . . .
167(7) . . .
159(7) . . .
161(7) . . .
177(7) . . .
152(7) . . .
176(7) . . .
162(7) . . .
148(6) . . .
166(7) . . .
161(7) . . .
159(7) . . .
168(7) . . .
179(7) . . .
170(7) . . .
151(7) . . .
154(7) . . .
165(7) . . .
172(7) . . .
167(7) . . .
169(7) . . .
168(7) . . .
170(7) . . .
173(7) . . .
162(7) . . .
175(7) . . .
172(7) . . .
179(7) . . .
160(7) . . .
146(7) . . .
156(7) . . .
156(7) . . .
140(6) . . .
149(7) . . .
147(7) . . .
147(6) . . .
169(7) . . .
164(7) . . .
156(7) . . .
171(7) . . .
154(7) . . .
151(6) . . .
149(6) . . .
170(7) . . .
147(7) . . .
159(7) . . .
167(7) . . .
172(7) . . .
154(7) . . .
150(7) . . .
162(7) . . .
149(6) . . .
151(6) . . .
156(7) . . .
157(7) . . .
179(7) . . .
166(7) . . .
169(7) . . .
157(7) . . .
165(7) . . .
161(7) . . .
162(7) . . .
169(7) . . .
153(7) . . .
176(7) . . .
163(7) . . .
167(7) . . .
145(7) . . .
139(6) . . .
150(7) . . .
153(7) . . .
164(7) . . .
176(7) . . .
172(7) . . .
148(7) . . .
159(7) . . .
167(7) . . .
170(7) . . .
150(7) . . .
173(7) . . .
163(7) . . .
156(6) . . .
169(7) . . .
166(7) . . .
159(7) . . .
174(7) . . .
160(7) . . .
163(7) . . .
142(7) . . .
154(7) . . .
171(7) . . .
148(6) . . .
175(7) . . .
160(7) . . .
162(7) . . .
156(7) . . .
160(7) . . .
157(7) . . .
178(8) . . .
152(7) . . .
153(6) . . .
167(7) . . .
167(7) . . .
158(7) . . .
147(7) . . .
171(7) . . .
157(7) . . .
154(7) . . .
135(6) . . .
162(7) . . .
172(7) . . .
154(6) . . .
166(7) . . .
163(7) . . .
163(7) . . .
173(7) . . .
174(7) . . .
148(7) . . .
153(7) . . .
174(7) . . .
151(6) . . .
175(7) . . .
165(7) . . .
159(7) . . .
165(7) . . .
158(7) . . .
145(6) . . .
164(7) . . .
167(7) . . .
173(7) . . .
158(7) . . .
157(7) . . .
160(7) . . .
163(7) . . .
149(6) . . .
165(7) . . .
155(7) . . .
185(8) . . .
175(7) . . .
183(7) . . .
178(7) . . .
163(7) . . .
147(7) . . .
171(7) . . .
165(7) . . .
159(7) . . .
152(7) . . .
156(7) . . .
155(7) . . .
166(7) . . .
173(7) . . .
160(7) . . .
141(6) . . .
156(7) . . .
155(7) . . .
170(7) . . .
165(7) . . .
155(7) . . .
161(7) . . .
165(7) . . .
163(7) . . .
171(7) . . .
165(7) . . .
159(7) . . .
151(6) . . .
157(7) . . .
160(7) . . .
152(7) . . .
157(7) . . .
154(6) . . .
160(7) . . .
181(7) . . .
154(7) . . .
160(7) . . .
160(7) . . .
165(7) . . .
150(7) . . .
151(7) . . .
135(6) . . .
165(7) . . .
164(7) . . .
144(6) . . .
157(7) . . .
161(7) . . .
165(7) . . .
186(8) . . .
163(7) . . .
190(7) . . .
169(7) . . .
149(6) . . .
171(7) . . .
176(8) . . .
158(7) . . .
145(6) . . .
154(7) . . .
168(7) . . .
168(7) . . .
165(7) . . .
165(7) . . .
181(7) . . .
163(7) . . .
171(7) . . .
166(7) . . .
159(7) . . .
154(6) . . .
147(6) . . .
163(7) . . .
179(7) . . .
174(7) . . .
160(7) . . .
174(7) . . .
162(7) . . .
173(7) . . .
167(7) . . .
157(7) . . .
172(7) . . .
160(7) . . .
158(7) . . .
159(6) . . .
172(7) . . .
163(7) . . .
161(7) . . .
162(7) . . .
161(7) . . .
164(7) . . .
179(8) . . .
167(7) . . .
171(7) . . .
178(7) . . .
191(7) . . .
173(7) . . .
173(7) . . .
179(7) . . .
170(7) . . .
155(7) . . .
187(8) . . .
168(7) . . .
157(7) . . .
169(7) . . .
190(7) . . .
152(7) . . .
178(7) . . .
146(6) . . .
174(7) . . .
150(7) . . .
175(7) . . .
181(7) . . .
163(7) . . .
154(6) . . .
164(7) . . .
167(7) . . .
165(7) . . .
161(7) . . .
162(7) . . .
164(7) . . .
160(7) . . .
170(7) . . .
173(7) . . .
175(7) . . .
149(7) . . .
148(7) . . .
158(7) . . .
176(7) . . .
155(7) . . .
150(6) . . .
195(8) . . .
174(7) . . .
180(7) . . .
156(7) . . .
165(7) . . .
169(7) . . .
174(7) . . .
148(6) . . .
181(7) . . .
162(7) . . .
156(7) . . .
154(6) . . .
149(6) . . .
166(7) . . .
169(7) . . .
168(7) . . .
158(6) . . .
170(7) . . .
159(7) . . .
160(7) . . .
154(7) . . .
154(6) . . .
149(6) . . .
153(7) . . .
160(7) . . .
154(7) . . .
162(7) . . .
149(6) . . .
143(6) . . .
147(7) . . .
145(6) . . .
153(6) . . .
161(7) . . .
141(6) . . .
152(7) . . .
150(7) . . .
146(6) . . .
171(7) . . .
166(7) . . .
177(7) . . .
153(7) . . .
172(7) . . .
169(7) . . .
160(7) . . .
156(7) . . .
158(7) . . .
161(7) . . .
141(6) . . .
147(6) . . .
155(7) . . .
148(7) . . .
146(6) . . .
162(7) . . .
146(6) . . .
157(7) . . .
164(7) . . .
189(7) . . .
138(7) . . .
156(7) . . .
168(7) . . .
157(7) . . .
167(7) . . .
159(7) . . .
175(7) . . .
156(7) . . .
175(7) . . .
152(6) . . .
166(7) . . .
159(7) . . .
155(7) . . .
142(6) . . .
154(6) . . .
155(7) . . .
171(7) . . .
155(7) . . .
153(6) . . .
156(7) . . .
144(6) . . .
143(7) . . .
143(6) . . .
157(6) . . .
167(7) . . .
160(7) . . .
150(7) . . .
158(7) . . .
166(7) . . .
154(6) . . .
161(7) . . .
160(7) . . .
162(7) . . .
163(7) . . .
165(7) . . .
165(7) . . .
154(7) . . .
153(7) . . .
179(7) . . .
156(7) . . .
158(7) . . .
148(6) . . .
166(7) . . .
161(7) . . .
167(7) . . .
152(6) . . .
157(7) . . .
161(7) . . .
148(6) . . .
147(7) . . .
157(7) . . .
144(7) . . .
144(6) . . .
152(6) . . .
152(7) . . .
156(7) . . .
160(7) . . .
165(7) . . .
154(6) . . .
142(7) . . .
138(7) . . .
140(6) . . .
151(6) . . .
130(6) . . .
153(7) . . .
155(7) . . .
144(6) . . .
151(6) . . .
154(7) . . .
152(7) . . .
156(7) . . .
145(6) . . .
161(7) . . .
157(7) . . .
156(7) . . .
152(7) . . .
145(6) . . .
151(6) . . .
152(6) . . .
147(6) . . .
178(7) . . .
160(7) . . .
160(7) . . .
166(7) . . .
154(7) . . .
163(7) . . .
143(6) . . .
159(7) . . .
147(6) . . .
151(7) . . .
154(7) . . .
153(7) . . .
144(6) . . .
171(7) . . .
149(7) . . .
133(6) . . .
151(6) . . .
147(6) . . .
144(7) . . .
156(7) . . .
158(7) . . .
154(7) . . .
155(6) . . .
165(7) . . .
143(7) . . .
141(6) . . .
147(6) . . .
159(7) . . .
164(7) . . .
159(7) . . .
151(7) . . .
134(6) . . .
173(7) . . .
157(7) . . .
174(7) . . .
166(7) . . .
169(7) . . .
166(7) . . .
156(7) . . .
176(7) . . .
160(7) . . .
150(7) . . .
163(7) . . .
156(7) . . .
139(6) . . .
145(6) . . .
161(7) . . .
159(7) . . .
146(6) . . .
153(7) . . .
144(6) . . .
149(6) . . .
164(7) . . .
154(7) . . .
163(7) . . .
159(7) . . .
152(6) . . .
155(7) . . .
136(6) . . .
153(7) . . .
156(7) . . .
154(6) . . .
152(6) . . .
142(6) . . .
154(7) . . .
155(7) . . .
144(6) . . .
165(7) . . .
174(7) . . .
178(7) . . .
174(7) . . .
143(6) . . .
148(6) . . .
154(7) . . .
137(6) . . .
166(7) . . .
167(7) . . .
155(7) . . .
167(7) . . .
172(7) . . .
170(7) . . .
170(7) . . .
162(7) . . .
168(7) . . .
158(7) . . .
155(6) . . .
157(6) . . .
164(7) . . .
163(7) . . .
151(6) . . .
182(7) . . .
164(7) . . .
142(6) . . .
163(7) . . .
154(6) . . .
174(7) . . .
163(7) . . .
183(8) . . .
164(7) . . .
137(6) . . .
167(7) . . .
166(7) . . .
168(7) . . .
146(7) . . .
158(7) . . .
164(7) . . .
150(6) . . .
140(6) . . .
153(7) . . .
159(7) . . .
160(7) . . .
155(7) . . .
160(7) . . .
155(7) . . .
143(6) . . .
150(6) . . .
147(6) . . .
148(7) . . .
163(7) . . .
165(7) . . .
158(7) . . .
179(7) . . .
157(7) . . .
147(6) . . .
173(7) . . .
166(7) . . .
173(7) . . .
173(7) . . .
164(7) . . .
141(6) . . .
154(6) . . .
151(7) . . .
148(7) . . .
159(7) . . .
163(7) . . .
158(7) . . .
164(7) . . .
174(7) . . .
149(6) . . .
174(7) . . .
136(6) . . .
146(6) . . .
160(7) . . .
149(6) . . .
151(6) . . .
162(7) . . .
142(6) . . .
142(7) . . .
156(7) . . .
150(6) . . .
155(7) . . .
149(7) . . .
169(7) . . .
159(7) . . .
160(7) . . .
147(6) . . .
146(7) . . .
147(7) . . .
154(7) . . .
164(7) . . .
155(7) . . .
167(7) . . .
157(7) . . .
153(7) . . .
163(7) . . .
155(7) . . .
159(7) . . .
156(7) . . .
168(7) . . .
153(6) . . .
177(7) . . .
176(7) . . .
177(7) . . .
176(7) . . .
153(6) . . .
152(7) . . .
177(7) . . .
183(7) . . .
184(7) . . .
188(7) . . .
167(7) . . .
181(8) . . .
156(6) . . .
180(7) . . .
170(7) . . .
184(7) . . .
166(7) . . .
168(7) . . .
159(7) . . .
176(7) . . .
178(7) . . .
177(7) . . .
166(7) . . .
149(6) . . .
159(7) . . .
161(7) . . .
169(7) . . .
172(7) . . .
166(7) . . .
167(7) . . .
146(7) . . .
154(7) . . .
153(7) . . .
161(7) . . .
171(7) . . .
154(7) . . .
154(7) . . .
161(7) . . .
157(6) . . .
168(7) . . .
164(7) . . .
164(7) . . .
159(7) . . .
159(7) . . .
161(7) . . .
160(7) . . .
165(7) . . .
176(7) . . .
176(7) . . .
173(7) . . .
173(7) . . .
183(7) . . .
174(7) . . .
180(7) . . .
167(7) . . .
166(7) . . .
176(7) . . .
175(7) . . .
168(7) . . .
166(7) . . .
154(7) . . .
168(7) . . .
186(7) . . .
176(7) . . .
181(7) . . .
179(7) . . .
183(7) . . .
182(7) . . .
189(7) . . .
176(7) . . .
170(7) . . .
163(7) . . .
180(7) . . .
196(7) . . .
181(7) . . .
183(8) . . .
178(7) . . .
180(7) . . .
178(7) . . .
173(7) . . .
162(7) . . .
167(7) . . .
175(7) . . .
177(7) . . .
165(7) . . .
178(7) . . .
180(7) . . .
183(7) . . .
167(7) . . .
149(7) . . .
178(7) . . .
175(7) . . .
165(7) . . .
166(7) . . .
158(7) . . .
167(7) . . .
151(7) . . .
154(6) . . .
159(7) . . .
191(8) . . .
178(7) . . .
157(7) . . .
184(7) . . .
184(7) . . .
184(7) . . .
181(7) . . .
187(7) . . .
191(7) . . .
163(7) . . .
174(7) . . .
182(7) . . .
189(7) . . .
182(7) . . .
164(7) . . .
161(7) . . .
150(7) . . .
169(7) . . .
147(6) . . .
175(7) . . .
158(7) . . .
153(7) . . .
181(7) . . .
176(7) . . .
175(7) . . .
178(7) . . .
165(7) . . .
184(7) . . .
150(6) . . .
166(7) . . .
169(7) . . .
199(8) . . .
185(7) . . .
167(7) . . .
189(7) . . .
176(7) . . .
177(7) . . .
177(7) . . .
192(7) . . .
177(7) . . .
174(7) . . .
185(7) . . .
172(7) . . .
161(7) . . .
183(7) . . .
181(8) . . .
153(7) . . .
174(7) . . .
153(7) . . .
174(7) . . .
167(7) . . .
161(7) . . .
171(7) . . .
168(7) . . .
159(7) . . .
158(7) . . .
145(6) . . .
171(7) . . .
163(7) . . .
154(7) . . .
167(7) . . .
165(7) . . .
179(7) . . .
143(6) . . .
164(7) . . .
166(7) . . .
153(6) . . .
174(7) . . .
166(7) . . .
169(7) . . .
181(7) . . .
155(6) . . .
162(7) . . .
143(6) . . .
152(7) . . .
160(7) . . .
142(6) . . .
172(7) . . .
175(7) . . .
170(7) . . .
180(7) . . .
175(7) . . .
156(7) . . .
156(7) . . .
154(7) . . .
167(7) . . .
169(7) . . .
163(7) . . .
168(7) . . .
152(7) . . .
155(7) . . .
170(7) . . .
167(7) . . .
158(7) . . .
163(7) . . .
168(7) . . .
156(6) . . .
144(6) . . .
144(6) . . .
175(7) . . .
158(7) . . .
169(7) . . .
162(7) . . .
169(7) . . .
147(6) . . .
142(6) . . .
161(7) . . .
161(7) . . .
149(6) . . .
164(7) . . .
164(7) . . .
166(7) . . .
158(7) . . .
161(7) . . .
133(6) . . .
143(6) . . .
152(6) . . .
169(7) . . .
164(7) . . .
165(7) . . .
159(7) . . .
150(6) . . .
151(6) . . .
165(7) . . .
159(7) . . .
167(7) . . .
152(6) . . .
141(6) . . .
147(7) . . .
167(7) . . .
141(6) . . .
161(7) . . .
164(7) . . .
162(7) . . .
158(7) . . .
162(7) . . .
165(7) . . .
154(7) . . .
145(6) . . .
147(6) . . .
155(6) . . .
152(6) . . .
172(7) . . .
163(7) . . .
144(6) . . .
156(6) . . .
150(6) . . .
164(7) . . .
151(7) . . .
161(7) . . .
140(6) . . .
149(7) . . .
166(7) . . .
172(7) . . .
163(7) . . .
169(7) . . .
166(7) . . .
146(7) . . .
146(7) . . .
142(6) . . .
164(7) . . .
163(7) . . .
150(7) . . .
169(7) . . .
157(7) . . .
163(7) . . .
154(7) . . .
176(7) . . .
154(6) . . .
177(7) . . .
182(7) . . .
176(7) . . .
160(7) . . .
154(7) . . .
160(7) . . .
157(7) . . .
161(7) . . .
185(7) . . .
155(7) . . .
172(7) . . .
169(7) . . .
160(7) . . .
164(7) . . .
147(6) . . .
162(7) . . .
165(7) . . .
167(7) . . .
161(7) . . .
144(6) . . .
159(7) . . .
147(7) . . .
163(7) . . .
165(7) . . .
164(7) . . .
161(7) . . .
156(7) . . .
160(7) . . .
162(7) . . .
162(7) . . .
154(6) . . .
142(6) . . .
152(7) . . .
173(7) . . .
161(7) . . .
177(7) . . .
163(7) . . .
162(7) . . .
153(7) . . .
166(7) . . .
160(7) . . .
148(7) . . .
156(7) . . .
163(7) . . .
160(7) . . .
135(6) . . .
133(6) . . .
151(7) . . .
166(7) . . .
164(7) . . .
149(6) . . .
158(7) . . .
169(7) . . .
155(7) . . .
174(7) . . .
175(7) . . .
163(7) . . .
147(6) . . .
168(7) . . .
160(7) . . .
151(6) . . .
166(7) . . .
141(7) . . .
145(7) . . .
156(6) . . .
162(7) . . .
171(7) . . .
157(7) . . .
167(7) . . .
171(7) . . .
160(7) . . .
155(7) . . .
168(7) . . .
164(7) . . .
165(7) . . .
172(7) . . .
182(7) . . .
172(7) . . .
171(7) . . .
161(7) . . .
157(7) . . .
172(7) . . .
163(7) . . .
193(7) . . .
160(7) . . .
169(7) . . .
152(7) . . .
163(7) . . .
167(7) . . .
164(7) . . .
146(6) . . .
151(7) . . .
163(7) . . .
144(6) . . .
164(7) . . .
144(6) . . .
160(7) . . .
148(7) . . .
165(7) . . .
157(6) . . .
149(7) . . .
158(7) . . .
171(7) . . .
160(7) . . .
152(6) . . .
156(7) . . .
147(7) . . .
145(6) . . .
168(7) . . .
151(6) . . .
157(7) . . .
157(7) . . .
156(7) . . .
159(7) . . .
162(7) . . .
154(7) . . .
168(7) . . .
174(7) . . .
150(6) . . .
169(7) . . .
153(7) . . .
149(7) . . .
151(6) . . .
155(6) . . .
160(7) . . .
167(7) . . .
165(7) . . .
145(6) . . .
167(7) . . .
169(7) . . .
172(7) . . .
167(7) . . .
169(7) . . .
168(7) . . .
165(7) . . .
149(7) . . .
143(6) . . .
167(7) . . .
162(7) . . .
168(7) . . .
155(7) . . .
170(7) . . .
146(6) . . .
154(6) . . .
157(7) . . .
142(7) . . .
147(7) . . .
161(7) . . .
139(6) . . .
173(7) . . .
159(7) . . .
153(7) . . .
179(7) . . .
159(7) . . .
154(7) . . .
157(7) . . .
156(7) . . .
159(7) . . .
179(7) . . .
165(7) . . .
140(7) . . .
148(6) . . .
157(7) . . .
152(6) . . .
150(7) . . .
156(7) . . .
164(7) . . .
158(6) . . .
162(7) . . .
160(7) . . .
140(6) . . .
158(7) . . .
162(7) . . .
149(7) . . .
144(7) . . .
155(7) . . .
167(7) . . .
151(6) . . .
156(7) . . .
146(7) . . .
198(8) . . .
156(7) . . .
156(6) . . .
158(7) . . .
159(7) . . .
166(7) . . .
151(6) . . .
168(7) . . .
150(7) . . .
155(7) . . .
164(7) . . .
162(7) . . .
158(7) . . .
152(7) . . .
173(7) . . .
140(6) . . .
158(7) . . .
144(6) . . .
152(7) . . .
149(7) . . .
149(7) . . .
160(7) . . .
164(7) . . .
154(7) . . .
156(7) . . .
151(7) . . .
151(6) . . .
157(7) . . .
155(7) . . .
160(7) . . .
154(7) . . .
152(6) . . .
185(7) . . .
163(7) . . .
147(7) . . .
173(7) . . .
153(6) . . .
156(7) . . .
159(7) . . .
166(7) . . .
151(7) . . .
157(7) . . .
163(7) . . .
142(6) . . .
151(7) . . .
148(7) . . .
151(6) . . .
152(7) . . .
133(6) . . .
158(7) . . .
172(7) . . .
145(6) . . .
137(6) . . .
151(7) . . .
159(7) . . .
147(6) . . .
157(7) . . .
145(6) . . .
139(6) . . .
151(7) . . .
155(7) . . .
170(7) . . .
152(7) . . .
145(7) . . .
152(7) . . .
162(7) . . .
162(7) . . .
164(7) . . .
164(7) . . .
168(7) . . .
158(6) . . .
159(7) . . .
169(7) . . .
173(7) . . .
159(7) . . .
141(6) . . .
159(7) . . .
152(7) . . .
148(7) . . .
156(7) . . .
144(6) . . .
136(6) . . .
145(6) . . .
156(7) . . .
154(7) . . .
154(6) . . .
145(6) . . .
157(7) . . .
139(6) . . .
145(7) . . .
156(6) . . .
151(6) . . .
155(7) . . .
154(7) . . .
161(7) . . .
157(6) . . .
152(7) . . .
137(6) . . .
153(7) . . .
143(6) . . .
151(6) . . .
151(7) . . .
148(7) . . .
149(7) . . .
168(7) . . .
166(7) . . .
154(7) . . .
153(7) . . .
149(7) . . .
168(7) . . .
165(7) . . .
166(7) . . .
153(7) . . .
158(7) . . .
154(6) . . .
149(6) . . .
149(7) . . .
159(7) . . .
162(7) . . .
170(7) . . .
133(6) . . .
157(7) . . .
162(7) . . .
156(7) . . .
174(7) . . .
167(7) . . .
157(7) . . .
154(7) . . .
160(7) . . .
154(6) . . .
157(6) . . .
153(7) . . .
142(7) . . .
162(7) . . .
141(6) . . .
162(7) . . .
139(6) . . .
155(7) . . .
159(7) . . .
152(6) . . .
181(7) . . .
159(7) . . .
153(7) . . .
153(7) . . .
168(7) . . .
157(7) . . .
151(7) . . .
157(7) . . .
146(7) . . .
173(7) . . .
155(6) . . .
168(7) . . .
152(7) . . .
154(7) . . .
140(6) . . .
168(7) . . .
163(7) . . .
156(7) . . .
143(6) . . .
159(7) . . .
158(7) . . .
159(7) . . .
180(7) . . .
168(7) . . .
168(7) . . .
142(7) . . .
143(6) . . .
152(7) . . .
149(7) . . .
135(6) . . .
133(6) . . .
146(6) . . .
145(6) . . .
137(6) . . .
139(6) . . .
143(6) . . .
160(7) . . .
152(6) . . .
153(7) . . .
149(7) . . .
149(6) . . .
144(6) . . .
164(7) . . .
162(7) . . .
157(7) . . .
141(6) . . .
145(6) . . .
139(6) . . .
144(7) . . .
140(6) . . .
146(6) . . .
161(7) . . .
157(7) . . .
142(6) . . .
142(7) . . .
160(6) . . .
146(7) . . .
154(7) . . .
150(7) . . .
143(6) . . .
129(6) . . .
166(7) . . .
156(7) . . .
151(7) . . .
138(6) . . .
135(6) . . .
155(7) . . .
145(6) . . .
154(7) . . .
141(6) . . .
152(6) . . .
136(6) . . .
148(7) . . .
155(7) . . .
147(6) . . .
155(6) . . .
162(7) . . .
156(7) . . .
143(6) . . .
136(6) . . .
153(6) . . .
145(7) . . .
152(7) . . .
150(6) . . .
140(6) . . .
146(6) . . .
136(6) . . .
132(6) . . .
149(7) . . .
158(7) . . .
167(7) . . .
155(7) . . .
159(7) . . .
145(6) . . .
160(7) . . .
145(6) . . .
142(6) . . .
152(7) . . .
144(7) . . .
141(6) . . .
130(6) . . .
148(7) . . .
130(6) . . .
152(7) . . .
151(6) . . .
154(7) . . .
154(7) . . .
159(7) . . .
155(7) . . .
134(6) . . .
153(7) . . .
140(6) . . .
159(7) . . .
152(7) . . .
165(7) . . .
157(7) . . .
154(7) . . .
121(6) . . .
143(6) . . .
166(7) . . .
151(7) . . .
138(6) . . .
144(7) . . .
148(6) . . .
142(6) . . .
139(6) . . .
147(7) . . .
151(7) . . .
141(6) . . .
150(6) . . .
136(6) . . .
148(7) . . .
144(6) . . .
140(6) . . .
141(6) . . .
159(7) . . .
163(7) . . .
139(6) . . .
151(6) . . .
138(6) . . .
131(6) . . .
138(7) . . .
144(7) . . .
150(6) . . .
145(6) . . .
128(6) . . .
162(7) . . .
148(6) . . .
138(6) . . .
143(6) . . .
154(7) . . .
157(7) . . .
148(7) . . .
149(6) . . .
155(7) . . .
144(6) . . .
159(7) . . .
154(7) . . .
134(6) . . .
146(6) . . .
146(7) . . .
148(6) . . .
155(7) . . .
154(6) . . .
147(6) . . .
155(7) . . .
150(7) . . .
139(6) . . .
133(6) . . .
152(7) . . .
143(6) . . .
149(7) . . .
136(6) . . .
136(6) . . .
150(7) . . .
158(7) . . .
146(6) . . .
156(7) . . .
146(6) . . .
157(7) . . .
168(7) . . .
167(7) . . .
145(6) . . .
151(6) . . .
153(7) . . .
150(7) . . .
155(7) . . .
141(6) . . .
150(7) . . .
135(6) . . .
160(7) . . .
140(6) . . .
164(7) . . .
141(6) . . .
161(7) . . .
136(6) . . .
158(7) . . .
164(7) . . .
146(6) . . .
141(7) . . .
137(6) . . .
137(6) . . .
141(6) . . .
145(6) . . .
147(7) . . .
148(7) . . .
153(7) . . .
141(6) . . .
151(7) . . .
147(7) . . .
145(6) . . .
145(6) . . .
151(6) . . .
152(7) . . .
133(6) . . .
129(6) . . .
156(7) . . .
125(6) . . .
143(6) . . .
160(7) . . .
149(7) . . .
157(7) . . .
143(6) . . .
145(7) . . .
137(6) . . .
142(6) . . .
149(6) . . .
147(6) . . .
137(6) . . .
156(7) . . .
156(7) . . .
153(6) . . .
163(7) . . .
165(7) . . .
152(7) . . .
146(7) . . .
162(7) . . .
160(7) . . .
135(6) . . .
139(7) . . .
146(6) . . .
143(6) . . .
142(6) . . .
142(6) . . .
144(7) . . .
159(7) . . .
150(6) . . .
133(6) . . .
152(7) . . .
149(7) . . .
150(7) . . .
140(6) . . .
144(6) . . .
144(6) . . .
153(7) . . .
154(7) . . .
146(6) . . .
159(7) . . .
138(6) . . .
149(7) . . .
128(6) . . .
154(6) . . .
137(6) . . .
140(6) . . .
130(6) . . .
137(6) . . .
161(7) . . .
156(7) . . .
136(6) . . .
159(7) . . .
160(7) . . .
123(6) . . .
138(6) . . .
128(6) . . .
141(6) . . .
140(6) . . .
134(6) . . .
135(6) . . .
132(6) . . .
132(6) . . .
152(7) . . .
145(6) . . .
144(6) . . .
149(7) . . .
155(7) . . .
143(6) . . .
134(6) . . .
136(6) . . .
138(7) . . .
155(7) . . .
140(6) . . .
152(6) . . .
156(7) . . .
148(7) . . .
140(6) . . .
148(6) . . .
140(6) . . .
132(6) . . .
140(7) . . .
141(6) . . .
136(6) . . .
146(6) . . .
141(6) . . .
150(7) . . .
140(6) . . .
149(6) . . .
157(7) . . .
144(7) . . .
156(7) . . .
149(6) . . .
145(6) . . .
142(6) . . .
153(7) . . .
135(6) . . .
149(7) . . .
137(6) . . .
160(7) . . .
146(6) . . .
143(6) . . .
145(6) . . .
152(6) . . .
152(7) . . .
137(6) . . .
131(6) . . .
132(6) . . .
157(7) . . .
143(6) . . .
153(7) . . .
151(7) . . .
148(6) . . .
127(6) . . .
150(7) . . .
142(7) . . .
142(6) . . .
138(6) . . .
155(6) . . .
150(7) . . .
153(7) . . .
146(6) . . .
145(6) . . .
152(6) . . .
152(7) . . .
136(7) . . .
153(7) . . .
161(7) . . .
135(6) . . .
149(7) . . .
153(7) . . .
139(6) . . .
152(6) . . .
149(6) . . .
136(6) . . .
133(7) . . .
148(7) . . .
144(6) . . .
148(6) . . .
149(7) . . .
158(7) . . .
154(7) . . .
135(6) . . .
156(7) . . .
142(6) . . .
154(7) . . .
168(7) . . .
147(6) . . .
152(7) . . .
132(6) . . .
144(7) . . .
162(7) . . .
152(6) . . .
155(7) . . .
150(7) . . .
141(6) . . .
152(7) . . .
157(6) . . .
149(7) . . .
140(6) . . .
152(7) . . .
161(7) . . .
139(6) . . .
159(7) . . .
161(7) . . .
150(6) . . .
167(7) . . .
153(6) . . .
142(6) . . .
143(7) . . .
149(7) . . .
144(6) . . .
150(7) . . .
152(7) . . .
140(6) . . .
147(7) . . .
150(6) . . .
140(6) . . .
137(6) . . .
172(7) . . .
148(6) . . .
152(6) . . .
149(6) . . .
148(7) . . .
136(6) . . .
140(6) . . .
151(6) . . .
144(6) . . .
139(6) . . .
139(6) . . .
142(6) . . .
152(6) . . .
133(6) . . .
151(7) . . .
144(7) . . .
140(6) . . .
131(6) . . .
153(7) . . .
139(6) . . .
148(7) . . .
125(6) . . .
138(6) . . .
157(7) . . .
134(6) . . .
125(6) . . .
135(6) . . .
142(6) . . .
154(7) . . .
143(7) . . .
140(6) . . .
148(6) . . .
149(6) . . .
145(6) . . .
152(7) . . .
151(7) . . .
137(6) . . .
146(6) . . .
151(6) . . .
149(7) . . .
138(6) . . .
142(6) . . .
161(7) . . .
152(7) . . .
150(7) . . .
149(7) . . .
139(6) . . .
142(6) . . .
151(7) . . .
139(6) . . .
142(6) . . .
159(7) . . .
168(7) . . .
163(7) . . .
170(7) . . .
175(7) . . .
147(6) . . .
130(6) . . .
157(7) . . .
153(7) . . .
137(6) . . .
142(6) . . .
149(6) . . .
149(7) . . .
147(6) . . .
152(7) . . .
145(6) . . .
147(6) . . .
152(7) . . .
160(7) . . .
152(6) . . .
157(7) . . .
162(7) . . .
144(6) . . .
150(6) . . .
142(6) . . .
149(6) . . .
139(6) . . .
154(7) . . .
152(7) . . .
154(6) . . .
143(6) . . .
148(7) . . .
152(7) . . .
144(6) . . .
143(6) . . .
151(6) . . .
137(6) . . .
137(6) . . .
149(7) . . .
129(6) . . .
142(6) . . .
142(6) . . .
140(6) . . .
158(7) . . .
167(7) . . .
164(7) . . .
160(7) . . .
132(6) . . .
142(6) . . .
140(6) . . .
140(6) . . .
144(7) . . .
149(7) . . .
148(6) . . .
158(7) . . .
155(6) . . .
158(7) . . .
154(7) . . .
156(7) . . .
161(7) . . .
144(6) . . .
150(7) . . .
160(7) . . .
157(7) . . .
148(6) . . .
145(6) . . .
136(6) . . .
145(7) . . .
147(7) . . .
156(6) . . .
147(7) . . .
151(7) . . .
142(6) . . .
146(6) . . .
151(6) . . .
150(6) . . .
161(7) . . .
157(7) . . .
141(6) . . .
144(6) . . .
142(7) . . .
164(7) . . .
143(6) . . .
154(7) . . .
141(6) . . .
152(7) . . .
147(7) . . .
137(6) . . .
141(6) . . .
141(6) . . .
149(7) . . .
144(7) . . .
166(7) . . .
155(6) . . .
165(7) . . .
159(7) . . .
169(7) . . .
155(7) . . .
164(7) . . .
152(6) . . .
145(6) . . .
149(7) . . .
138(6) . . .
145(6) . . .
129(6) . . .
160(7) . . .
153(7) . . .
145(7) . . .
168(7) . . .
155(7) . . .
173(7) . . .
180(7) . . .
173(7) . . .
161(7) . . .
161(7) . . .
157(7) . . .
152(7) . . .
153(7) . . .
148(6) . . .
158(7) . . .
147(7) . . .
163(7) . . .
171(7) . . .
154(6) . . .
159(7) . . .
161(7) . . .
162(7) . . .
171(7) . . .
152(6) . . .
159(7) . . .
160(7) . . .
140(6) . . .
144(6) . . .
169(7) . . .
156(7) . . .
158(7) . . .
154(7) . . .
163(7) . . .
164(7) . . .
149(7) . . .
155(7) . . .
166(7) . . .
142(6) . . .
156(6) . . .
158(7) . . .
137(7) . . .
160(7) . . .
148(6) . . .
154(6) . . .
147(7) . . .
161(7) . . .
149(7) . . .
153(6) . . .
149(6) . . .
140(6) . . .
161(7) . . .
164(7) . . .
160(7) . . .
155(7) . . .
150(7) . . .
127(6) . . .
145(7) . . .
151(6) . . .
148(6) . . .
174(7) . . .
155(7) . . .
161(7) . . .
156(7) . . .
136(6) . . .
143(6) . . .
149(7) . . .
156(7) . . .
142(6) . . .
152(7) . . .
135(6) . . .
154(7) . . .
175(7) . . .
166(7) . . .
152(7) . . .
135(6) . . .
148(6) . . .
149(6) . . .
150(6) . . .
175(7) . . .
160(7) . . .
156(7) . . .
146(6) . . .
161(7) . . .
153(7) . . .
153(7) . . .
152(6) . . .
161(7) . . .
154(6) . . .
154(7) . . .
151(7) . . .
153(7) . . .
165(7) . . .
180(7) . . .
148(7) . . .
129(6) . . .
162(7) . . .
150(6) . . .
157(7) . . .
163(7) . . .
148(7) . . .
160(7) . . .
159(7) . . .
173(7) . . .
161(7) . . .
165(7) . . .
170(7) . . .
170(7) . . .
165(7) . . .
159(7) . . .
164(7) . . .
156(7) . . .
157(7) . . .
153(7) . . .
155(6) . . .
163(7) . . .
154(7) . . .
161(7) . . .
151(7) . . .
151(7) . . .
144(7) . . .
155(7) . . .
174(7) . . .
139(6) . . .
157(7) . . .
162(7) . . .
159(7) . . .
165(7) . . .
140(6) . . .
155(7) . . .
171(7) . . .
162(7) . . .
160(7) . . .
165(7) . . .
161(7) . . .
153(7) . . .
152(7) . . .
142(6) . . .
148(7) . . .
158(7) . . .
150(6) . . .
148(6) . . .
129(6) . . .
148(7) . . .
148(7) . . .
150(7) . . .
151(6) . . .
170(7) . . .
152(7) . . .
160(7) . . .
161(7) . . .
143(6) . . .
152(6) . . .
163(7) . . .
150(7) . . .
159(7) . . .
150(6) . . .
165(7) . . .
143(6) . . .
161(7) . . .
142(6) . . .
153(6) . . .
153(7) . . .
130(6) . . .
148(7) . . .
164(7) . . .
173(7) . . .
140(6) . . .
150(7) . . .
148(6) . . .
138(6) . . .
157(7) . . .
159(7) . . .
143(6) . . .
152(7) . . .
143(6) . . .
159(7) . . .
163(7) . . .
148(7) . . .
147(7) . . .
158(7) . . .
166(7) . . .
145(6) . . .
153(7) . . .
170(7) . . .
148(6) . . .
119(6) . . .
146(7) . . .
161(7) . . .
144(6) . . .
144(6) . . .
167(7) . . .
154(6) . . .
145(7) . . .
129(6) . . .
143(6) . . .
143(6) . . .
163(7) . . .
149(7) . . .
163(7) . . .
171(7) . . .
162(7) . . .
154(7) . . .
154(7) . . .
154(7) . . .
149(6) . . .
151(6) . . .
140(6) . . .
161(7) . . .
155(7) . . .
166(7) . . .
154(7) . . .
168(7) . . .
154(7) . . .
152(7) . . .
163(7) . . .
153(7) . . .
152(7) . . .
158(7) . . .
152(7) . . .
139(6) . . .
143(6) . . .
137(6) . . .
139(6) . . .
143(6) . . .
150(6) . . .
140(6) . . .
144(7) . . .
165(7) . . .
166(7) . . .
152(6) . . .
165(7) . . .
153(7) . . .
148(7) . . .
142(6) . . .
140(6) . . .
142(6) . . .
141(7) . . .
155(7) . . .
155(7) . . .
133(6) . . .
154(7) . . .
138(7) . . .
156(7) . . .
160(7) . . .
143(6) . . .
167(7) . . .
141(7) . . .
149(7) . . .
148(6) . . .
141(6) . . .
133(6) . . .
135(7) . . .
153(7) . . .
143(6) . . .
171(7) . . .
138(6) . . .
136(6) . . .
142(7) . . .
144(6) . . .
157(7) . . .
173(7) . . .
159(7) . . .
166(7) . . .
159(7) . . .
148(7) . . .
156(7) . . .
166(7) . . .
140(6) . . .
147(6) . . .
148(7) . . .
144(7) . . .
148(7) . . .
141(6) . . .
160(7) . . .
139(6) . . .
157(7) . . .
146(6) . . .
150(6) . . .
158(7) . . .
149(6) . . .
155(7) . . .
145(6) . . .
161(7) . . .
148(6) . . .
157(7) . . .
155(7) . . .
146(6) . . .
154(6) . . .
142(6) . . .
159(7) . . .
161(7) . . .
152(7) . . .
155(6) . . .
153(6) . . .
137(6) . . .
165(7) . . .
142(6) . . .
144(6) . . .
139(6) . . .
137(6) . . .
136(6) . . .
139(6) . . .
158(6) . . .
141(6) . . .
156(7) . . .
152(7) . . .
133(6) . . .
145(6) . . .
160(7) . . .
134(6) . . .
144(7) . . .
160(7) . . .
138(6) . . .
157(7) . . .
154(7) . . .
142(6) . . .
137(6) . . .
144(6) . . .
139(6) . . .
156(7) . . .
150(7) . . .
140(6) . . .
154(6) . . .
153(7) . . .
142(6) . . .
138(6) . . .
151(6) . . .
161(7) . . .
149(7) . . .
149(7) . . .
157(7) . . .
154(6) . . .
157(7) . . .
132(6) . . .
151(7) . . .
147(7) . . .
154(6) . . .
141(6) . . .
141(6) . . .
150(7) . . .
153(7) . . .
149(6) . . .
149(6) . . .
156(7) . . .
164(7) . . .
149(7) . . .
149(6) . . .
168(7) . . .
164(7) . . .
159(7) . . .
151(7) . . .
149(6) . . .
140(6) . . .
160(7) . . .
164(7) . . .
170(7) . . .
154(6) . . .
158(7) . . .
155(7) . . .
148(7) . . .
145(7) . . .
145(6) . . .
145(6) . . .
164(7) . . .
152(7) . . .
149(6) . . .
149(6) . . .
159(7) . . .
147(6) . . .
166(7) . . .
156(7) . . .
130(6) . . .
140(6) . . .
146(7) . . .
154(7) . . .
147(6) . . .
179(7) . . .
148(6) . . .
160(7) . . .
159(7) . . .
156(7) . . .
140(6) . . .
145(7) . . .
158(7) . . .
163(7) . . .
163(7) . . .
162(7) . . .
156(7) . . .
145(6) . . .
142(6) . . .
156(7) . . .
161(7) . . .
141(7) . . .
158(7) . . .
141(6) . . .
142(6) . . .
148(6) . . .
143(6) . . .
149(7) . . .
155(7) . . .
148(6) . . .
169(7) . . .
151(7) . . .
143(6) . . .
156(7) . . .
150(6) . . .
128(6) . . .
150(7) . . .
140(6) . . .
152(7) . . .
152(6) . . .
138(6) . . .
148(7) . . .
155(7) . . .
170(7) . . .
139(6) . . .
151(7) . . .
154(7) . . .
162(7) . . .
152(7) . . .
150(6) . . .
158(7) . . .
129(6) . . .
132(6) . . .
129(6) . . .
162(7) . . .
150(6) . . .
160(7) . . .
138(6) . . .
146(6) . . .
136(6) . . .
162(7) . . .
156(7) . . .
145(6) . . .
161(7) . . .
140(6) . . .
143(6) . . .
145(7) . . .
147(7) . . .
135(6) . . .
164(7) . . .
154(7) . . .
131(6) . . .
148(7) . . .
145(6) . . .
151(6) . . .
150(7) . . .
147(7) . . .
145(6) . . .
142(6) . . .
160(7) . . .
151(7) . . .
146(7) . . .
160(7) . . .
147(6) . . .
141(6) . . .
146(7) . . .
138(6) . . .
132(6) . . .
147(6) . . .
147(6) . . .
164(7) . . .
142(7) . . .
153(7) . . .
168(7) . . .
165(7) . . .
157(7) . . .
161(7) . . .
136(6) . . .
145(6) . . .
132(6) . . .
141(6) . . .
162(7) . . .
153(6) . . .
137(6) . . .
148(7) . . .
140(7) . . .
157(7) . . .
154(6) . . .
144(6) . . .
153(7) . . .
146(7) . . .
139(6) . . .
146(6) . . .
168(7) . . .
143(6) . . .
147(7) . . .
151(7) . . .
138(6) . . .
140(6) . . .
152(7) . . .
136(6) . . .
140(6) . . .
143(6) . . .
146(6) . . .
132(6) . . .
151(7) . . .
148(7) . . .
135(6) . . .
141(6) . . .
152(7) . . .
151(7) . . .
157(7) . . .
146(6) . . .
136(6) . . .
144(7) . . .
146(7) . . .
138(6) . . .
140(6) . . .
137(6) . . .
151(7) . . .
164(7) . . .
146(7) . . .
162(7) . . .
160(7) . . .
137(6) . . .
158(7) . . .
146(6) . . .
162(7) . . .
151(6) . . .
153(7) . . .
145(7) . . .
160(7) . . .
161(7) . . .
147(7) . . .
138(6) . . .
163(7) . . .
161(7) . . .
146(6) . . .
157(7) . . .
143(7) . . .
146(7) . . .
144(6) . . .
143(6) . . .
133(6) . . .
157(7) . . .
163(7) . . .
149(6) . . .
150(6) . . .
145(7) . . .
157(7) . . .
141(7) . . .
148(6) . . .
144(6) . . .
141(6) . . .
156(7) . . .
169(7) . . .
145(6) . . .
142(6) . . .
141(6) . . .
166(7) . . .
159(7) . . .
148(6) . . .
128(6) . . .
165(7) . . .
152(7) . . .
168(7) . . .
161(7) . . .
142(6) . . .
167(7) . . .
152(7) . . .
152(7) . . .
164(7) . . .
149(6) . . .
137(6) . . .
151(7) . . .
172(7) . . .
146(6) . . .
153(7) . . .
147(7) . . .
150(7) . . .
152(6) . . .
123(6) . . .
139(6) . . .
143(7) . . .
148(7) . . .
151(7) . . .
129(6) . . .
144(6) . . .
146(7) . . .
143(6) . . .
165(7) . . .
143(6) . . .
150(7) . . .
159(7) . . .
136(6) . . .
150(6) . . .
150(6) . . .
157(7) . . .
153(7) . . .
141(6) . . .
131(6) . . .
143(6) . . .
156(7) . . .
159(7) . . .
151(7) . . .
149(6) . . .
163(7) . . .
140(6) . . .
142(7) . . .
139(6) . . .
133(6) . . .
148(6) . . .
148(6) . . .
148(6) . . .
147(6) . . .
147(6) . . .
155(7) . . .
140(6) . . .
135(6) . . .
135(6) . . .
169(7) . . .
165(7) . . .
147(7) . . .
153(7) . . .
146(6) . . .
135(6) . . .
140(6) . . .
153(7) . . .
133(6) . . .
123(6) . . .
145(6) . . .
146(7) . . .
133(6) . . .
144(7) . . .
126(6) . . .
146(6) . . .
144(6) . . .
147(7) . . .
152(7) . . .
156(6) . . .
166(7) . . .
150(7) . . .
163(7) . . .
150(7) . . .
155(7) . . .
150(6) . . .
148(6) . . .
160(7) . . .
151(6) . . .
153(6) . . .
158(7) . . .
170(7) . . .
169(7) . . .
157(7) . . .
152(6) . . .
138(6) . . .
159(7) . . .
151(7) . . .
151(7) . . .
134(6) . . .
146(6) . . .
143(6) . . .
161(7) . . .
166(7) . . .
143(6) . . .
136(6) . . .
162(7) . . .
161(7) . . .
144(7) . . .
151(6) . . .
153(6) . . .
144(6) . . .
150(7) . . .
147(6) . . .
143(6) . . .
154(7) . . .
140(6) . . .
154(7) . . .
158(7) . . .
133(6) . . .
152(7) . . .
148(6) . . .
142(6) . . .
137(6) . . .
152(6) . . .
151(7) . . .
152(7) . . .
145(6) . . .
150(6) . . .
151(6) . . .
141(6) . . .
146(7) . . .
141(6) . . .
145(6) . . .
141(6) . . .
157(7) . . .
142(7) . . .
144(6) . . .
140(6) . . .
140(6) . . .
144(6) . . .
149(7) . . .
149(7) . . .
142(6) . . .
152(6) . . .
147(7) . . .
157(7) . . .
146(7) . . .
135(6) . . .
145(6) . . .
137(6) . . .
129(6) . . .
140(6) . . .
151(6) . . .
144(6) . . .
148(7) . . .
152(7) . . .
139(6) . . .
145(6) . . .
147(6) . . .
169(7) . . .
162(7) . . .
156(7) . . .
141(6) . . .
151(6) . . .
154(7) . . .
156(7) . . .
146(6) . . .
139(6) . . .
151(7) . . .
146(7) . . .
151(7) . . .
151(7) . . .
168(7) . . .
144(6) . . .
159(7) . . .
155(7) . . .
156(7) . . .
156(6) . . .
148(6) . . .
148(7) . . .
143(6) . . .
155(7) . . .
167(7) . . .
163(7) . . .
156(7) . . .
155(7) . . .
166(7) . . .
173(7) . . .
143(6) . . .
159(7) . . .
132(6) . . .
148(6) . . .
155(6) . . .
144(6) . . .
149(7) . . .
139(6) . . .
154(6) . . .
159(7) . . .
160(7) . . .
154(7) . . .
161(7) . . .
136(6) . . .
152(6) . . .
143(6) . . .
140(6) . . .
139(6) . . .
142(6) . . .
161(7) . . .
135(6) . . .
165(7) . . .
163(7) . . .
171(7) . . .
168(7) . . .
163(7) . . .
144(7) . . .
151(7) . . .
136(6) . . .
165(7) . . .
142(6) . . .
150(7) . . .
160(7) . . .
158(7) . . .
145(7) . . .
153(7) . . .
150(7) . . .
150(7) . . .
156(6) . . .
139(7) . . .
150(7) . . .
142(6) . . .
148(6) . . .
150(6) . . .
134(6) . . .
147(7) . . .
152(7) . . .
167(7) . . .
140(6) . . .
161(7) . . .
148(7) . . .
139(6) . . .
161(7) . . .
153(6) . . .
165(7) . . .
166(7) . . .
133(6) . . .
152(6) . . .
161(7) . . .
130(6) . . .
137(6) . . .
154(7) . . .
152(6) . . .
166(7) . . .
142(6) . . .
154(7) . . .
165(7) . . .
147(6) . . .
154(7) . . .
144(7) . . .
157(7) . . .
144(6) . . .
141(6) . . .
137(6) . . .
134(6) . . .
146(6) . . .
133(6) . . .
149(6) . . .
152(7) . . .
154(7) . . .
157(7) . . .
148(7) . . .
141(6) . . .
146(7) . . .
143(6) . . .
153(7) . . .
130(6) . . .
131(6) . . .
149(7) . . .
140(6) . . .
144(6) . . .
158(7) . . .
156(6) . . .
146(6) . . .
151(7) . . .
150(6) . . .
127(6) . . .
134(6) . . .
143(6) . . .
151(7) . . .
158(7) . . .
144(6) . . .
141(6) . . .
169(7) . . .
145(7) . . .
160(7) . . .
128(6) . . .
145(6) . . .
163(7) . . .
148(7) . . .
144(6) . . .
152(6) . . .
153(7) . . .
143(6) . . .
143(7) . . .
153(7) . . .
167(7) . . .
160(7) . . .
141(6) . . .
158(7) . . .
152(7) . . .
165(7) . . .
149(6) . . .
161(7) . . .
170(7) . . .
152(7) . . .
153(6) . . .
154(7) . . .
152(7) . . .
143(6) . . .
154(7) . . .
147(6) . . .
155(7) . . .
146(6) . . .
162(7) . . .
143(6) . . .
142(6) . . .
140(6) . . .
153(7) . . .
154(7) . . .
155(7) . . .
154(6) . . .
155(7) . . .
157(7) . . .
167(7) . . .
162(7) . . .
153(6) . . .
155(7) . . .
157(7) . . .
159(7) . . .
146(6) . . .
164(7) . . .
163(7) . . .
177(8) . . .
164(7) . . .
159(7) . . .
153(7) . . .
148(7) . . .
147(7) . . .
154(7) . . .
152(7) . . .
132(6) . . .
134(6) . . .
149(7) . . .
151(7) . . .
165(7) . . .
152(6) . . .
148(6) . . .
160(7) . . .
161(7) . . .
149(6) . . .
138(6) . . .
155(7) . . .
157(7) . . .
150(7) . . .
152(6) . . .
157(7) . . .
156(6) . . .
158(7) . . .
139(6) . . .
143(6) . . .
171(7) . . .
158(7) . . .
145(7) . . .
152(7) . . .
134(6) . . .
137(6) . . .
148(7) . . .
142(6) . . .
150(6) . . .
149(6) . . .
137(6) . . .
159(7) . . .
148(7) . . .
142(6) . . .
149(6) . . .
151(7) . . .
158(7) . . .
136(6) . . .
142(6) . . .
132(6) . . .
141(6) . . .
151(7) . . .
122(6) . . .
144(6) . . .
137(6) . . .
141(6) . . .
138(7) . . .
138(6) . . .
137(6) . . .
152(7) . . .
143(7) . . .
141(6) . . .
143(6) . . .
137(6) . . .
126(6) . . .
140(6) . . .
147(7) . . .
139(6) . . .
151(6) . . .
143(6) . . .
139(6) . . .
153(7) . . .
145(7) . . .
148(6) . . .
147(6) . . .
141(7) . . .
155(7) . . .
160(7) . . .
136(6) . . .
149(6) . . .
150(7) . . .
143(7) . . .
149(6) . . .
138(6) . . .
148(7) . . .
146(6) . . .
144(6) . . .
125(6) . . .
145(6) . . .
147(7) . . .
145(6) . . .
157(7) . . .
155(7) . . .
123(6) . . .
135(6) . . .
141(7) . . .
145(6) . . .
157(7) . . .
160(7) . . .
151(7) . . .
146(7) . . .
156(7) . . .
139(6) . . .
161(7) . . .
142(6) . . .
138(6) . . .
159(7) . . .
151(6) . . .
145(6) . . .
143(6) . . .
127(6) . . .
138(6) . . .
134(6) . . .
161(7) . . .
152(7) . . .
150(7) . . .
130(6) . . .
136(6) . . .
165(7) . . .
150(7) . . .
139(6) . . .
145(7) . . .
148(6) . . .
155(7) . . .
149(7) . . .
147(7) . . .
133(6) . . .
129(6) . . .
159(7) . . .
155(7) . . .
135(6) . . .
150(6) . . .
153(6) . . .
142(6) . . .
162(7) . . .
149(7) . . .
126(6) . . .
154(6) . . .
144(7) . . .
139(6) . . .
141(6) . . .
139(6) . . .
149(6) . . .
154(7) . . .
144(6) . . .
146(7) . . .
141(6) . . .
139(6) . . .
138(6) . . .
132(6) . . .
150(7) . . .
131(6) . . .
128(6) . . .
150(6) . . .
155(7) . . .
140(6) . . .
137(6) . . .
156(7) . . .
145(6) . . .
136(6) . . .
144(6) . . .
149(6) . . .
167(7) . . .
141(6) . . .
149(7) . . .
155(7) . . .
154(6) . . .
144(6) . . .
146(7) . . .
141(7) . . .
141(7) . . .
133(6) . . .
126(6) . . .
163(7) . . .
142(7) . . .
154(7) . . .
152(6) . . .
160(7) . . .
149(7) . . .
146(7) . . .
140(6) . . .
139(6) . . .
151(7) . . .
157(7) . . .
155(7) . . .
153(6) . . .
152(6) . . .
143(7) . . .
158(7) . . .
143(6) . . .
149(7) . . .
158(7) . . .
165(7) . . .
158(7) . . .
146(6) . . .
162(7) . . .
155(6) . . .
171(7) . . .
150(7) . . .
136(6) . . .
140(6) . . .
137(6) . . .
144(6) . . .
149(7) . . .
151(7) . . .
145(6) . . .
154(7) . . .
147(6) . . .
146(7) . . .
144(7) . . .
155(6) . . .
140(6) . . .
158(7) . . .
131(6) . . .
135(6) . . .
134(6) . . .
145(6) . . .
138(6) . . .
130(6) . . .
145(7) . . .
145(6) . . .
141(6) . . .
149(7) . . .
137(6) . . .
141(6) . . .
153(6) . . .
144(6) . . .
140(6) . . .
170(7) . . .
139(6) . . .
141(6) . . .
138(6) . . .
138(7) . . .
142(7) . . .
151(7) . . .
166(7) . . .
149(6) . . .
160(7) . . .
162(7) . . .
144(6) . . .
146(6) . . .
140(6) . . .
138(7) . . .
154(7) . . .
155(7) . . .
133(6) . . .
157(7) . . .
146(7) . . .
147(7) . . .
151(6) . . .
159(7) . . .
136(6) . . .
144(7) . . .
144(6) . . .
146(6) . . .
151(6) . . .
133(6) . . .
152(7) . . .
154(7) . . .
152(6) . . .
141(6) . . .
154(7) . . .
152(7) . . .
144(6) . . .
135(6) . . .
141(6) . . .
145(7) . . .
145(7) . . .
144(6) . . .
151(6) . . .
145(6) . . .
150(7) . . .
136(6) . . .
137(6) . . .
143(6) . . .
166(7) . . .
159(7) . . .
155(7) . . .
153(7) . . .
144(6) . . .
134(6) . . .
145(7) . . .
140(7) . . .
144(6) . . .
140(6) . . .
144(7) . . .
140(7) . . .
158(7) . . .
141(6) . . .
134(6) . . .
137(6) . . .
134(6) . . .
149(7) . . .
137(6) . . .
151(6) . . .
157(7) . . .
151(7) . . .
144(7) . . .
135(6) . . .
120(6) . . .
147(7) . . .
155(7) . . .
146(6) . . .
158(7) . . .
144(6) . . .
138(6) . . .
148(7) . . .
144(6) . . .
134(6) . . .
156(7) . . .
147(6) . . .
132(6) . . .
138(6) . . .
141(6) . . .
116(6) . . .
129(6) . . .
138(6) . . .
157(7) . . .
140(6) . . .
143(6) . . .
148(6) . . .
140(6) . . .
138(6) . . .
131(6) . . .
139(6) . . .
148(7) . . .
138(6) . . .
146(6) . . .
137(6) . . .
140(6) . . .
148(7) . . .
131(6) . . .
155(7) . . .
153(6) . . .
143(6) . . .
152(7) . . .
127(6) . . .
131(6) . . .
137(6) . . .
150(7) . . .
147(7) . . .
149(7) . . .
158(7) . . .
138(6) . . .
153(7) . . .
135(6) . . .
157(7) . . .
167(7) . . .
154(6) . . .
146(6) . . .
147(7) . . .
149(7) . . .
142(6) . . .
149(6) . . .
129(6) . . .
135(7) . . .
138(6) . . .
138(6) . . .
159(7) . . .
143(6) . . .
147(7) . . .
138(6) . . .
153(6) . . .
154(7) . . .
149(7) . . .
151(7) . . .
148(7) . . .
141(6) . . .
149(6) . . .
152(7) . . .
143(6) . . .
130(6) . . .
136(6) . . .
144(6) . . .
147(6) . . .
139(6) . . .
143(7) . . .
145(6) . . .
125(6) . . .
154(7) . . .
126(6) . . .
136(6) . . .
170(7) . . .
154(7) . . .
147(7) . . .
146(7) . . .
146(7) . . .
127(6) . . .
133(6) . . .
137(6) . . .
143(7) . . .
156(7) . . .
140(6) . . .
143(6) . . .
151(7) . . .
135(6) . . .
136(6) . . .
146(6) . . .
140(6) . . .
140(6) . . .
139(6) . . .
148(6) . . .
152(6) . . .
159(7) . . .
136(7) . . .
137(6) . . .
157(7) . . .
142(6) . . .
150(7) . . .
134(6) . . .
142(6) . . .
143(6) . . .
144(6) . . .
140(6) . . .
151(7) . . .
141(6) . . .
125(6) . . .
140(6) . . .
139(6) . . .
145(7) . . .
138(6) . . .
142(6) . . .
146(6) . . .
142(6) . . .
145(7) . . .
129(6) . . .
130(6) . . .
149(6) . . .
150(7) . . .
163(7) . . .
149(6) . . .
138(6) . . .
136(6) . . .
153(7) . . .
162(7) . . .
137(6) . . .
141(6) . . .
154(7) . . .
148(7) . . .
139(6) . . .
158(7) . . .
158(7) . . .
156(7) . . .
147(7) . . .
159(7) . . .
172(7) . . .
156(6) . . .
161(7) . . .
156(7) . . .
167(7) . . .
152(6) . . .
134(6) . . .
148(6) . . .
140(6) . . .
162(7) . . .
146(6) . . .
145(6) . . .
141(6) . . .
148(7) . . .
152(7) . . .
139(6) . . .
130(6) . . .
136(6) . . .
137(6) . . .
156(7) . . .
131(6) . . .
147(6) . . .
145(6) . . .
131(6) . . .
145(6) . . .
150(6) . . .
150(6) . . .
133(6) . . .
135(7) . . .
139(6) . . .
149(6) . . .
154(7) . . .
151(7) . . .
144(7) . . .
132(6) . . .
148(6) . . .
146(7) . . .
155(7) . . .
138(6) . . .
145(6) . . .
144(6) . . .
141(6) . . .
141(7) . . .
148(6) . . .
166(7) . . .
141(6) . . .
152(7) . . .
147(7) . . .
136(6) . . .
141(6) . . .
147(6) . . .
148(7) . . .
145(7) . . .
135(6) . . .
153(7) . . .
147(6) . . .
135(6) . . .
135(6) . . .
153(7) . . .
138(6) . . .
157(7) . . .
138(6) . . .
151(7) . . .
155(7) . . .
137(6) . . .
134(6) . . .
151(7) . . .
126(6) . . .
157(7) . . .
142(6) . . .
142(6) . . .
154(7) . . .
153(7) . . .
138(6) . . .
134(6) . . .
138(6) . . .
138(6) . . .
148(7) . . .
148(6) . . .
149(6) . . .
146(6) . . .
158(7) . . .
146(7) . . .
148(7) . . .
151(6) . . .
145(6) . . .
150(7) . . .
161(7) . . .
155(7) . . .
163(7) . . .
152(7) . . .
142(7) . . .
143(6) . . .
140(6) . . .
143(6) . . .
154(7) . . .
148(7) . . .
153(7) . . .
151(6) . . .
138(6) . . .
148(7) . . .
124(6) . . .
141(6) . . .
136(6) . . .
143(6) . . .
130(6) . . .
137(7) . . .
137(6) . . .
155(6) . . .
155(7) . . .
139(6) . . .
142(7) . . .
146(7) . . .
155(6) . . .
141(6) . . .
146(6) . . .
136(6) . . .
149(7) . . .
155(6) . . .
147(6) . . .
137(6) . . .
147(7) . . .
141(6) . . .
149(6) . . .
156(7) . . .
149(7) . . .
155(7) . . .
160(7) . . .
159(6) . . .
161(7) . . .
144(6) . . .
153(7) . . .
167(7) . . .
158(7) . . .
141(6) . . .
148(7) . . .
126(6) . . .
132(6) . . .
156(7) . . .
161(7) . . .
134(6) . . .
148(7) . . .
144(6) . . .
139(6) . . .
136(6) . . .
152(7) . . .
137(6) . . .
141(6) . . .
147(6) . . .
122(6) . . .
148(7) . . .
130(6) . . .
139(6) . . .
141(6) . . .
158(7) . . .
135(6) . . .
136(6) . . .
145(6) . . .
140(6) . . .
140(6) . . .
147(7) . . .
132(6) . . .
144(6) . . .
145(6) . . .
139(6) . . .
162(7) . . .
134(6) . . .
138(6) . . .
127(6) . . .
133(6) . . .
146(7) . . .
145(7) . . .
156(6) . . .
129(6) . . .
143(7) . . .
141(7) . . .
150(7) . . .
141(6) . . .
131(6) . . .
150(7) . . .
159(7) . . .
131(6) . . .
133(6) . . .
131(6) . . .
152(7) . . .
153(7) . . .
156(7) . . .
112(5) . . .
133(6) . . .
145(7) . . .
145(7) . . .
152(7) . . .
143(6) . . .
139(6) . . .
145(7) . . .
148(6) . . .
154(7) . . .
141(6) . . .
139(6) . . .
137(6) . . .
146(7) . . .
142(6) . . .
140(6) . . .
148(7) . . .
135(6) . . .
156(7) . . .
149(6) . . .
147(6) . . .
126(6) . . .
170(7) . . .
153(7) . . .
137(6) . . .
144(6) . . .
151(6) . . .
161(7) . . .
136(6) . . .
130(6) . . .
134(6) . . .
153(7) . . .
143(7) . . .
151(7) . . .
121(6) . . .
145(6) . . .
140(6) . . .
143(7) . . .
145(6) . . .
163(7) . . .
170(7) . . .
154(7) . . .
165(7) . . .
139(6) . . .
131(6) . . .
146(6) . . .
141(7) . . .
131(6) . . .
130(6) . . .
140(6) . . .
132(6) . . .
140(6) . . .
132(6) . . .
133(6) . . .
140(6) . . .
140(6) . . .
137(6) . . .
146(7) . . .
141(6) . . .
136(6) . . .
141(6) . . .
137(6) . . .
157(7) . . .
141(6) . . .
142(6) . . .
148(7) . . .
144(7) . . .
152(7) . . .
139(6) . . .
139(6) . . .
143(7) . . .
140(7) . . .
142(7) . . .
156(7) . . .
147(6) . . .
132(6) . . .
140(7) . . .
132(6) . . .
149(6) . . .
134(6) . . .
132(6) . . .
153(7) . . .
145(7) . . .
160(7) . . .
144(6) . . .
136(6) . . .
136(6) . . .
139(6) . . .
137(6) . . .
131(6) . . .
139(6) . . .
127(6) . . .
144(6) . . .
137(6) . . .
133(6) . . .
137(6) . . .
141(6) . . .
140(6) . . .
152(6) . . .
124(6) . . .
131(6) . . .
147(7) . . .
153(7) . . .
145(6) . . .
150(6) . . .
123(6) . . .
146(7) . . .
149(6) . . .
143(6) . . .
137(6) . . .
132(6) . . .
136(6) . . .
133(6) . . .
126(6) . . .
133(6) . . .
132(6) . . .
152(7) . . .
153(7) . . .
148(6) . . .
151(7) . . .
130(6) . . .
151(7) . . .
154(7) . . .
145(6) . . .
136(6) . . .
138(7) . . .
135(6) . . .
125(6) . . .
123(6) . . .
134(6) . . .
135(6) . . .
124(6) . . .
150(6) . . .
148(6) . . .
143(7) . . .
146(7) . . .
131(6) . . .
149(6) . . .
133(6) . . .
131(6) . . .
137(6) . . .
153(7) . . .
152(6) . . .
132(6) . . .
133(6) . . .
143(7) . . .
149(6) . . .
153(6) . . .
163(7) . . .
137(6) . . .
138(6) . . .
123(6) . . .
138(6) . . .
141(6) . . .
142(6) . . .
144(7) . . .
146(6) . . .
142(6) . . .
153(7) . . .
142(7) . . .
142(6) . . .
133(6) . . .
131(6) . . .
132(6) . . .
160(7) . . .
150(6) . . .
143(6) . . .
132(6) . . .
150(7) . . .
135(6) . . .
138(6) . . .
134(6) . . .
130(6) . . .
119(6) . . .
142(7) . . .
135(6) . . .
147(6) . . .
149(6) . . .
129(6) . . .
141(7) . . .
130(6) . . .
139(6) . . .
147(6) . . .
142(6) . . .
144(7) . . .
154(7) . . .
153(6) . . .
130(6) . . .
134(6) . . .
143(7) . . .
147(6) . . .
158(7) . . .
147(6) . . .
131(6) . . .
154(7) . . .
143(6) . . .
114(6) . . .
140(6) . . .
139(6) . . .
127(6) . . .
127(6) . . .
134(6) . . .
146(7) . . .
147(7) . . .
145(7) . . .
143(6) . . .
148(6) . . .
131(6) . . .
150(7) . . .
128(6) . . .
125(6) . . .
134(6) . . .
129(6) . . .
147(7) . . .
149(6) . . .
141(6) . . .
131(6) . . .
129(6) . . .
121(6) . . .
132(6) . . .
142(6) . . .
138(6) . . .
138(6) . . .
134(6) . . .
129(6) . . .
136(6) . . .
150(6) . . .
132(6) . . .
126(6) . . .
129(6) . . .
144(6) . . .
142(6) . . .
146(6) . . .
137(6) . . .
144(6) . . .
151(6) . . .
151(6) . . .
140(6) . . .
149(7) . . .
150(7) . . .
130(6) . . .
148(6) . . .
149(7) . . .
144(6) . . .
154(7) . . .
135(6) . . .
155(7) . . .
137(6) . . .
139(6) . . .
149(7) . . .
152(6) . . .
140(6) . . .
139(6) . . .
136(6) . . .
135(6) . . .
137(6) . . .
144(6) . . .
145(7) . . .
123(6) . . .
143(6) . . .
131(6) . . .
144(7) . . .
133(7) . . .
138(6) . . .
142(6) . . .
153(6) . . .
164(7) . . .
166(7) . . .
139(6) . . .
134(6) . . .
144(6) . . .
127(6) . . .
132(6) . . .
135(6) . . .
138(6) . . .
142(6) . . .
114(6) . . .
146(7) . . .
131(6) . . .
137(6) . . .
131(6) . . .
122(6) . . .
135(6) . . .
146(6) . . .
137(6) . . .
146(6) . . .
149(7) . . .
147(7) . . .
153(7) . . .
144(6) . . .
131(6) . . .
135(6) . . .
132(6) . . .
146(7) . . .
130(6) . . .
141(6) . . .
148(7) . . .
147(7) . . .
142(6) . . .
133(6) . . .
129(6) . . .
137(6) . . .
145(6) . . .
148(6) . . .
156(6) . . .
136(6) . . .
138(6) . . .
150(6) . . .
150(7) . . .
142(6) . . .
149(7) . . .
126(6) . . .
147(7) . . .
138(6) . . .
148(6) . . .
145(6) . . .
133(6) . . .
154(7) . . .
118(6) . . .
126(6) . . .
143(6) . . .
144(7) . . .
139(6) . . .
132(6) . . .
136(6) . . .
137(6) . . .
141(7) . . .
143(6) . . .
117(6) . . .
134(6) . . .
149(6) . . .
126(6) . . .
137(6) . . .
138(6) . . .
127(6) . . .
140(6) . . .
127(6) . . .
136(6) . . .
145(6) . . .
144(6) . . .
126(6) . . .
124(6) . . .
148(7) . . .
136(6) . . .
147(7) . . .
132(6) . . .
134(6) . . .
136(6) . . .
139(6) . . .
138(6) . . .
140(6) . . .
136(6) . . .
144(6) . . .
149(6) . . .
138(6) . . .
129(6) . . .
132(6) . . .
134(6) . . .
135(6) . . .
154(7) . . .
138(6) . . .
131(6) . . .
153(7) . . .
125(6) . . .
128(6) . . .
154(7) . . .
143(6) . . .
132(6) . . .
138(6) . . .
138(6) . . .
136(6) . . .
136(6) . . .
134(6) . . .
168(7) . . .
143(6) . . .
126(6) . . .
146(6) . . .
153(6) . . .
140(6) . . .
153(7) . . .
126(6) . . .
140(6) . . .
162(7) . . .
152(7) . . .
141(6) . . .
146(7) . . .
147(7) . . .
150(6) . . .
143(6) . . .
125(6) . . .
135(6) . . .
149(6) . . .
131(6) . . .
143(6) . . .
143(7) . . .
141(7) . . .
130(6) . . .
134(6) . . .
123(6) . . .
121(6) . . .
137(7) . . .
129(6) . . .
132(6) . . .
127(6) . . .
130(6) . . .
137(6) . . .
144(6) . . .
143(6) . . .
149(7) . . .
152(7) . . .
123(6) . . .
129(6) . . .
119(6) . . .
132(6) . . .
127(6) . . .
126(6) . . .
137(6) . . .
131(6) . . .
145(7) . . .
125(6) . . .
123(6) . . .
116(6) . . .
132(6) . . .
131(6) . . .
136(6) . . .
128(6) . . .
142(6) . . .
133(6) . . .
128(6) . . .
150(7) . . .
146(6) . . .
144(6) . . .
146(6) . . .
132(6) . . .
141(7) . . .
143(6) . . .
153(6) . . .
143(6) . . .
141(6) . . .
154(7) . . .
135(6) . . .
150(6) . . .
138(6) . . .
135(6) . . .
126(6) . . .
137(7) . . .
133(6) . . .
131(6) . . .
148(7) . . .
149(7) . . .
124(6) . . .
140(6) . . .
124(6) . . .
128(6) . . .
135(6) . . .
141(6) . . .
140(6) . . .
125(6) . . .
146(7) . . .
132(6) . . .
133(6) . . .
147(6) . . .
158(7) . . .
126(6) . . .
115(6) . . .
133(6) . . .
134(6) . . .
151(7) . . .
127(6) . . .
142(6) . . .
136(6) . . .
143(6) . . .
142(6) . . .
149(7) . . .
140(6) . . .
144(6) . . .
124(6) . . .
131(6) . . .
133(6) . . .
125(6) . . .
124(6) . . .
138(6) . . .
131(6) . . .
125(6) . . .
135(6) . . .
137(6) . . .
159(7) . . .
135(6) . . .
147(7) . . .
130(6) . . .
134(6) . . .
123(6) . . .
136(6) . . .
136(7) . . .
126(6) . . .
141(6) . . .
152(7) . . .
139(6) . . .
130(6) . . .
140(7) . . .
131(6) . . .
120(6) . . .
127(6) . . .
138(6) . . .
133(6) . . .
145(6) . . .
139(6) . . .
127(6) . . .
146(7) . . .
142(6) . . .
141(6) . . .
137(6) . . .
138(6) . . .
125(6) . . .
139(6) . . .
130(6) . . .
154(7) . . .
135(6) . . .
131(6) . . .
132(6) . . .
119(6) . . .
127(6) . . .
129(6) . . .
139(7) . . .
119(6) . . .
120(6) . . .
139(6) . . .
142(7) . . .
126(6) . . .
128(6) . . .
141(6) . . .
136(6) . . .
127(6) . . .
128(6) . . .
134(6) . . .
135(6) . . .
140(6) . . .
130(6) . . .
129(6) . . .
144(6) . . .
132(6) . . .
137(6) . . .
144(7) . . .
128(6) . . .
129(6) . . .
133(6) . . .
145(6) . . .
129(6) . . .
129(6) . . .
139(6) . . .
149(6) . . .
124(6) . . .
155(7) . . .
134(6) . . .
136(6) . . .
133(6) . . .
136(6) . . .
137(6) . . .
133(6) . . .
146(6) . . .
132(6) . . .
124(6) . . .
131(6) . . .
140(6) . . .
135(6) . . .
130(6) . . .
119(6) . . .
130(6) . . .
141(6) . . .
120(6) . . .
140(6) . . .
128(6) . . .
134(6) . . .
138(6) . . .
158(7) . . .
127(6) . . .
138(7) . . .
148(7) . . .
138(6) . . .
136(6) . . .
139(6) . . .
148(7) . . .
154(7) . . .
130(6) . . .
130(6) . . .
131(6) . . .
123(6) . . .
135(6) . . .
132(6) . . .
133(6) . . .
137(6) . . .
125(6) . . .
153(7) . . .
153(6) . . .
129(6) . . .
137(6) . . .
126(6) . . .
112(6) . . .
124(6) . . .
141(6) . . .
126(6) . . .
133(6) . . .
122(6) . . .
129(6) . . .
130(6) . . .
135(6) . . .
129(6) . . .
139(6) . . .
148(6) . . .
128(6) . . .
148(7) . . .
131(6) . . .
131(6) . . .
132(6) . . .
130(6) . . .
133(6) . . .
130(6) . . .
124(6) . . .
132(6) . . .
136(7) . . .
143(7) . . .
133(6) . . .
130(6) . . .
133(6) . . .
141(6) . . .
129(6) . . .
137(6) . . .
143(6) . . .
117(6) . . .
119(6) . . .
139(7) . . .
128(6) . . .
128(6) . . .
127(6) . . .
141(6) . . .
139(7) . . .
142(6) . . .
139(6) . . .
126(6) . . .
133(6) . . .
142(7) . . .
143(6) . . .
130(6) . . .
142(6) . . .
135(6) . . .
140(6) . . .
132(6) . . .
146(6) . . .
129(6) . . .
141(7) . . .
119(6) . . .
125(6) . . .
143(6) . . .
143(6) . . .
142(6) . . .
130(6) . . .
139(6) . . .
137(6) . . .
146(6) . . .
139(6) . . .
123(6) . . .
122(6) . . .
129(6) . . .
133(6) . . .
137(6) . . .
137(6) . . .
141(6) . . .
138(6) . . .
126(6) . . .
141(7) . . .
143(6) . . .
147(6) . . .
134(6) . . .
132(6) . . .
131(6) . . .
127(6) . . .
124(6) . . .
123(6) . . .
141(6) . . .
145(7) . . .
144(6) . . .
142(6) . . .
138(6) . . .
135(6) . . .
125(6) . . .
112(6) . . .
131(6) . . .
132(6) . . .
118(6) . . .
131(6) . . .
135(6) . . .
126(6) . . .
138(6) . . .
148(7) . . .
133(6) . . .
141(7) . . .
126(6) . . .
135(6) . . .
116(6) . . .
127(6) . . .
155(7) . . .
139(6) . . .
138(6) . . .
133(6) . . .
126(6) . . .
119(6) . . .
130(6) . . .
120(6) . . .
130(6) . . .
149(7) . . .
135(6) . . .
137(6) . . .
140(6) . . .
143(7) . . .
134(6) . . .
118(6) . . .
130(6) . . .
134(6) . . .
138(7) . . .
121(6) . . .
141(6) . . .
127(6) . . .
133(6) . . .
136(6) . . .
136(6) . . .
127(6) . . .
142(6) . . .
135(6) . . .
140(7) . . .
128(6) . . .
138(6) . . .
138(6) . . .
122(6) . . .
120(6) . . .
125(6) . . .
126(6) . . .
130(6) . . .
119(6) . . .
123(6) . . .
113(6) . . .
137(6) . . .
118(6) . . .
121(6) . . .
138(7) . . .
120(6) . . .
118(6) . . .
135(6) . . .
135(6) . . .
133(6) . . .
148(7) . . .
141(6) . . .
134(6) . . .
131(6) . . .
126(6) . . .
123(6) . . .
123(6) . . .
128(6) . . .
131(6) . . .
137(6) . . .
126(6) . . .
137(6) . . .
144(6) . . .
132(6) . . .
134(6) . . .
144(6) . . .
129(6) . . .
131(6) . . .
140(6) . . .
128(6) . . .
121(6) . . .
139(6) . . .
135(6) . . .
136(7) . . .
127(6) . . .
126(6) . . .
135(6) . . .
127(6) . . .
131(6) . . .
125(6) . . .
132(6) . . .
147(6) . . .
123(6) . . .
137(7) . . .
133(6) . . .
136(6) . . .
152(6) . . .
127(6) . . .
140(7) . . .
133(6) . . .
126(6) . . .
119(6) . . .
124(6) . . .
142(7) . . .
136(6) . . .
144(6) . . .
136(6) . . .
142(6) . . .
144(6) . . .
135(6) . . .
134(6) . . .
131(6) . . .
122(6) . . .
122(6) . . .
140(7) . . .
135(6) . . .
134(6) . . .
116(6) . . .
134(6) . . .
147(6) . . .
135(6) . . .
126(6) . . .
122(6) . . .
115(6) . . .
119(6) . . .
127(6) . . .
129(6) . . .
130(6) . . .
134(6) . . .
142(6) . . .
137(6) . . .
125(6) . . .
137(6) . . .
147(7) . . .
126(6) . . .
131(6) . . .
139(6) . . .
142(6) . . .
134(6) . . .
121(6) . . .
128(6) . . .
129(6) . . .
128(6) . . .
144(7) . . .
137(6) . . .
137(6) . . .
136(6) . . .
126(6) . . .
142(6) . . .
129(6) . . .
133(6) . . .
114(6) . . .
133(6) . . .
111(6) . . .
124(6) . . .
142(6) . . .
130(6) . . .
136(6) . . .
141(6) . . .
124(6) . . .
139(6) . . .
130(6) . . .
123(6) . . .
118(6) . . .
139(6) . . .
139(6) . . .
130(6) . . .
130(6) . . .
152(7) . . .
132(6) . . .
130(6) . . .
122(6) . . .
123(6) . . .
129(6) . . .
129(6) . . .
130(6) . . .
139(6) . . .
139(6) . . .
121(6) . . .
149(6) . . .
135(6) . . .
142(7) . . .
123(6) . . .
132(6) . . .
146(6) . . .
141(6) . . .
141(7) . . .
124(6) . . .
122(6) . . .
131(6) . . .
132(6) . . .
125(6) . . .
127(6) . . .
141(6) . . .
129(6) . . .
131(6) . . .
133(7) . . .
128(6) . . .
138(6) . . .
132(6) . . .
115(6) . . .
127(6) . . .
150(7) . . .
144(6) . . .
130(6) . . .
137(6) . . .
143(7) . . .
136(6) . . .
140(6) . . .
124(6) . . .
127(6) . . .
132(6) . . .
135(6) . . .
138(6) . . .
135(6) . . .
125(6) . . .
144(6) . . .
127(6) . . .
140(6) . . .
145(6) . . .
134(6) . . .
130(6) . . .
131(6) . . .
125(6) . . .
119(6) . . .
134(6) . . .
141(6) . . .
127(6) . . .
140(6) . . .
119(6) . . .
132(6) . . .
124(6) . . .
129(6) . . .
142(6) . . .
132(6) . . .
135(7) . . .
122(6) . . .
131(6) . . .
146(6) . . .
147(7) . . .
124(6) . . .
127(6) . . .
130(6) . . .
122(6) . . .
129(6) . . .
136(6) . . .
138(6) . . .
126(6) . . .
131(6) . . .
140(6) . . .
133(6) . . .
144(7) . . .
124(6) . . .
112(6) . . .
136(6) . . .
123(6) . . .
131(6) . . .
134(6) . . .
136(6) . . .
120(6) . . .
115(6) . . .
122(6) . . .
119(6) . . .
128(6) . . .
138(6) . . .
128(6) . . .
144(6) . . .
141(6) . . .
138(6) . . .
136(6) . . .
125(6) . . .
134(6) . . .
138(6) . . .
125(6) . . .
127(6) . . .
140(6) . . .
132(6) . . .
127(6) . . .
141(6) . . .
143(7) . . .
124(6) . . .
145(6) . . .
135(6) . . .
130(6) . . .
128(6) . . .
135(6) . . .
133(6) . . .
121(6) . . .
129(6) . . .
130(6) . . .
125(6) . . .
133(6) . . .
118(6) . . .
120(6) . . .
123(6) . . .
132(6) . . .
129(6) . . .
119(6) . . .
146(6) . . .
146(7) . . .
126(6) . . .
126(6) . . .
121(6) . . .
132(6) . . .
140(7) . . .
135(6) . . .
122(6) . . .
138(6) . . .
126(6) . . .
119(6) . . .
112(6) . . .
124(6) . . .
130(6) . . .
133(6) . . .
144(7) . . .
145(6) . . .
143(6) . . .
149(7) . . .
140(6) . . .
127(6) . . .
130(6) . . .
146(6) . . .
139(6) . . .
124(6) . . .
120(6) . . .
136(6) . . .
134(6) . . .
130(6) . . .
134(6) . . .
134(6) . . .
130(6) . . .
138(6) . . .
132(6) . . .
132(6) . . .
139(6) . . .
116(5) . . .
132(6) . . .
120(6) . . .
119(6) . . .
144(6) . . .
136(6) . . .
139(6) . . .
141(6) . . .
137(6) . . .
131(6) . . .
151(6) . . .
135(6) . . .
126(6) . . .
138(7) . . .
151(7) . . .
135(6) . . .
126(6) . . .
127(6) . . .
136(7) . . .
123(6) . . .
111(5) . . .
129(6) . . .
128(6) . . .
138(6) . . .
143(6) . . .
137(6) . . .
137(6) . . .
127(6) . . .
135(6) . . .
134(6) . . .
133(6) . . .
125(6) . . .
119(6) . . .
116(6) . . .
130(6) . . .
141(6) . . .
137(6) . . .
119(6) . . .
127(6) . . .
122(6) . . .
131(6) . . .
120(6) . . .
138(6) . . .
146(6) . . .
141(6) . . .
134(6) . . .
131(6) . . .
136(6) . . .
142(7) . . .
131(6) . . .
125(6) . . .
148(7) . . .
138(7) . . .
144(6) . . .
126(6) . . .
134(6) . . .
129(6) . . .
132(6) . . .
151(7) . . .
134(6) . . .
133(6) . . .
120(6) . . .
119(6) . . .
132(6) . . .
136(6) . . .
137(6) . . .
117(6) . . .
124(6) . . .
117(6) . . .
134(6) . . .
122(6) . . .
109(5) . . .
120(6) . . .
117(6) . . .
129(6) . . .
130(6) . . .
133(6) . . .
137(7) . . .
141(7) . . .
115(6) . . .
122(6) . . .
127(6) . . .
138(6) . . .
144(6) . . .
120(6) . . .
140(6) . . .
122(6) . . .
115(6) . . .
127(6) . . .
118(6) . . .
122(6) . . .
130(6) . . .
138(6) . . .
133(6) . . .
126(6) . . .
132(6) . . .
135(6) . . .
127(6) . . .
118(6) . . .
123(6) . . .
142(6) . . .
136(7) . . .
127(6) . . .
122(6) . . .
118(6) . . .
127(6) . . .
118(6) . . .
138(6) . . .
132(6) . . .
133(6) . . .
119(6) . . .
150(7) . . .
132(6) . . .
138(6) . . .
141(6) . . .
122(6) . . .
136(7) . . .
131(6) . . .
141(6) . . .
127(6) . . .
132(6) . . .
145(7) . . .
137(6) . . .
154(6) . . .
140(6) . . .
128(6) . . .
131(6) . . .
119(6) . . .
135(6) . . .
125(6) . . .
129(6) . . .
123(6) . . .
141(6) . . .
121(6) . . .
131(6) . . .
125(6) . . .
144(7) . . .
137(6) . . .
118(6) . . .
127(6) . . .
144(7) . . .
131(6) . . .
146(6) . . .
130(6) . . .
134(6) . . .
133(6) . . .
132(6) . . .
113(6) . . .
120(6) . . .
122(6) . . .
137(7) . . .
127(6) . . .
122(6) . . .
118(6) . . .
124(6) . . .
119(6) . . .
118(6) . . .
130(6) . . .
132(6) . . .
143(6) . . .
126(6) . . .
125(6) . . .
118(6) . . .
127(6) . . .
135(6) . . .
132(6) . . .
127(6) . . .
128(6) . . .
155(7) . . .
137(6) . . .
121(6) . . .
118(6) . . .
127(6) . . .
122(6) . . .
135(6) . . .
140(7) . . .
133(6) . . .
142(6) . . .
128(6) . . .
136(6) . . .
131(6) . . .
120(6) . . .
130(6) . . .
133(6) . . .
138(6) . . .
128(6) . . .
136(6) . . .
143(6) . . .
119(6) . . .
124(6) . . .
122(6) . . .
129(6) . . .
135(6) . . .
121(6) . . .
144(7) . . .
132(6) . . .
133(6) . . .
133(6) . . .
126(6) . . .
123(6) . . .
127(6) . . .
137(6) . . .
132(6) . . .
127(6) . . .
129(6) . . .
117(6) . . .
131(6) . . .
123(6) . . .
134(6) . . .
135(7) . . .
140(6) . . .
133(6) . . .
131(6) . . .
127(6) . . .
128(6) . . .
126(6) . . .
124(6) . . .
130(6) . . .
114(6) . . .
132(6) . . .
124(6) . . .
127(6) . . .
122(6) . . .
125(6) . . .
120(6) . . .
145(6) . . .
119(6) . . .
137(6) . . .
129(6) . . .
120(6) . . .
121(6) . . .
109(5) . . .
134(6) . . .
131(6) . . .
135(6) . . .
126(6) . . .
136(6) . . .
128(6) . . .
130(6) . . .
140(6) . . .
113(6) . . .
136(6) . . .
128(6) . . .
123(6) . . .
128(6) . . .
135(6) . . .
117(6) . . .
117(6) . . .
107(6) . . .
125(6) . . .
125(6) . . .
117(6) . . .
129(6) . . .
122(6) . . .
129(6) . . .
128(6) . . .
132(6) . . .
136(6) . . .
126(6) . . .
128(6) . . .
122(6) . . .
128(6) . . .
129(6) . . .
132(6) . . .
130(6) . . .
129(6) . . .
116(6) . . .
118(6) . . .
127(6) . . .
127(6) . . .
125(6) . . .
150(6) . . .
127(6) . . .
130(6) . . .
132(6) . . .
131(6) . . .
124(6) . . .
132(6) . . .
120(6) . . .
138(6) . . .
139(6) . . .
127(6) . . .
124(6) . . .
124(6) . . .
114(6) . . .
127(6) . . .
132(6) . . .
137(6) . . .
129(6) . . .
138(6) . . .
132(6) . . .
147(6) . . .
118(6) . . .
131(6) . . .
125(6) . . .
129(6) . . .
137(6) . . .
131(6) . . .
114(6) . . .
112(6) . . .
125(6) . . .
130(6) . . .
114(6) . . .
131(6) . . .
131(6) . . .
127(6) . . .
125(6) . . .
128(6) . . .
109(6) . . .
119(6) . . .
113(6) . . .
131(6) . . .
132(6) . . .
118(6) . . .
128(6) . . .
138(6) . . .
123(6) . . .
104(6) . . .
122(6) . . .
141(6) . . .
118(6) . . .
113(6) . . .
121(6) . . .
128(6) . . .
129(6) . . .
133(6) . . .
119(6) . . .
120(6) . . .
135(6) . . .
128(6) . . .
134(6) . . .
136(6) . . .
123(6) . . .
124(6) . . .
122(6) . . .
128(6) . . .
139(7) . . .
124(6) . . .
132(6) . . .
127(6) . . .
128(6) . . .
120(6) . . .
124(6) . . .
118(6) . . .
126(6) . . .
144(7) . . .
127(6) . . .
129(6) . . .
125(6) . . .
122(6) . . .
116(6) . . .
133(6) . . .
124(6) . . .
130(6) . . .
119(6) . . .
121(6) . . .
138(7) . . .
121(6) . . .
127(6) . . .
120(6) . . .
126(6) . . .
125(6) . . .
143(6) . . .
132(6) . . .
116(6) . . .
119(6) . . .
133(7) . . .
137(6) . . .
134(6) . . .
122(6) . . .
127(6) . . .
127(6) . . .
129(6) . . .
118(6) . . .
130(6) . . .
126(6) . . .
116(6) . . .
124(6) . . .
136(6) . . .
111(6) . . .
124(6) . . .
115(6) . . .
122(6) . . .
134(6) . . .
125(6) . . .
120(6) . . .
138(6) . . .
140(6) . . .
126(6) . . .
125(6) . . .
128(6) . . .
127(6) . . .
133(6) . . .
117(6) . . .
127(6) . . .
120(6) . . .
117(6) . . .
124(6) . . .
124(6) . . .
141(6) . . .
127(6) . . .
124(6) . . .
111(6) . . .
131(6) . . .
110(6) . . .
132(7) . . .
121(6) . . .
116(6) . . .
125(6) . . .
129(6) . . .
118(6) . . .
126(6) . . .
116(6) . . .
124(6) . . .
125(6) . . .
121(6) . . .
131(6) . . .
112(5) . . .
129(6) . . .
117(6) . . .
118(6) . . .
122(6) . . .
123(6) . . .
133(6) . . .
127(6) . . .
110(6) . . .
109(6) . . .
119(6) . . .
112(6) . . .
123(6) . . .
126(6) . . .
122(6) . . .
112(6) . . .
136(6) . . .
133(6) . . .
106(5) . . .
120(6) . . .
115(6) . . .
126(6) . . .
121(6) . . .
119(6) . . .
116(6) . . .
114(6) . . .
119(6) . . .
126(6) . . .
112(6) . . .
103(5) . . .
125(6) . . .
129(6) . . .
134(6) . . .
125(6) . . .
133(6) . . .
116(6) . . .
117(6) . . .
130(6) . . .
135(6) . . .
114(6) . . .
116(6) . . .
106(5) . . .
113(6) . . .
117(6) . . .
132(6) . . .
129(6) . . .
126(6) . . .
112(6) . . .
118(6) . . .
122(6) . . .
147(6) . . .
121(6) . . .
125(6) . . .
118(6) . . .
116(6) . . .
114(6) . . .
123(6) . . .
110(6) . . .
107(6) . . .
119(6) . . .
138(6) . . .
127(6) . . .
128(6) . . .
115(6) . . .
122(6) . . .
114(6) . . .
124(6) . . .
123(6) . . .
123(6) . . .
131(6) . . .
114(6) . . .
130(6) . . .
124(6) . . .
115(6) . . .
127(6) . . .
117(6) . . .
127(6) . . .
113(6) . . .
139(6) . . .
120(6) . . .
115(6) . . .
112(6) . . .
119(6) . . .
109(5) . . .
109(5) . . .
113(6) . . .
119(6) . . .
117(6) . . .
120(6) . . .
110(5) . . .
125(6) . . .
140(6) . . .
125(6) . . .
126(6) . . .
124(6) . . .
127(6) . . .
108(6) . . .
123(6) . . .
118(6) . . .
127(6) . . .
125(6) . . .
109(6) . . .
112(6) . . .
111(5) . . .
115(6) . . .
112(6) . . .
122(6) . . .
120(6) . . .
131(6) . . .
119(6) . . .
123(6) . . .
110(6) . . .
128(6) . . .
130(6) . . .
121(6) . . .
131(6) . . .
121(6) . . .
127(6) . . .
120(6) . . .
114(6) . . .
125(6) . . .
122(6) . . .
124(6) . . .
121(6) . . .
116(6) . . .
124(6) . . .
131(6) . . .
114(6) . . .
125(6) . . .
120(6) . . .
134(6) . . .
124(6) . . .
111(5) . . .
127(6) . . .
128(6) . . .
134(6) . . .
128(6) . . .
125(6) . . .
122(6) . . .
131(6) . . .
123(6) . . .
121(6) . . .
119(6) . . .
121(6) . . .
124(6) . . .
124(6) . . .
122(6) . . .
115(6) . . .
120(6) . . .
124(6) . . .
109(6) . . .
129(6) . . .
131(6) . . .
118(6) . . .
135(6) . . .
127(6) . . .
125(6) . . .
127(6) . . .
131(6) . . .
119(6) . . .
115(6) . . .
118(6) . . .
122(6) . . .
129(6) . . .
126(6) . . .
123(6) . . .
117(6) . . .
129(6) . . .
125(6) . . .
140(7) . . .
131(6) . . .
132(6) . . .
128(6) . . .
119(6) . . .
110(6) . . .
114(6) . . .
122(6) . . .
130(6) . . .
131(6) . . .
128(6) . . .
121(6) . . .
115(6) . . .
132(6) . . .
134(6) . . .
124(6) . . .
135(6) . . .
134(6) . . .
121(6) . . .
114(6) . . .
126(6) . . .
113(6) . . .
111(6) . . .
113(6) . . .
110(5) . . .
126(6) . . .
124(6) . . .
116(6) . . .
125(6) . . .
122(6) . . .
120(6) . . .
122(6) . . .
127(6) . . .
128(6) . . .
109(6) . . .
115(6) . . .
105(5) . . .
117(6) . . .
108(5) . . .
116(6) . . .
99(5) . . .
116(6) . . .
102(5) . . .
124(6) . . .
102(5) . . .
131(6) . . .
126(6) . . .
115(6) . . .
128(6) . . .
121(6) . . .
115(6) . . .
121(6) . . .
125(6) . . .
126(6) . . .
138(6) . . .
122(6) . . .
130(6) . . .
107(5) . . .
106(6) . . .
118(6) . . .
111(6) . . .
124(6) . . .
112(6) . . .
129(6) . . .
117(6) . . .
115(6) . . .
131(6) . . .
107(5) . . .
117(6) . . .
118(6) . . .
119(6) . . .
121(6) . . .
111(5) . . .
129(6) . . .
130(6) . . .
119(6) . . .
117(6) . . .
113(6) . . .
128(6) . . .
115(6) . . .
130(6) . . .
120(6) . . .
120(6) . . .
125(6) . . .
112(6) . . .
112(6) . . .
123(6) . . .
126(6) . . .
121(6) . . .
128(6) . . .
130(6) . . .
125(6) . . .
133(6) . . .
121(6) . . .
126(6) . . .
123(6) . . .
131(6) . . .
140(6) . . .
116(6) . . .
126(6) . . .
124(6) . . .
119(6) . . .
115(6) . . .
114(6) . . .
108(5) . . .
120(6) . . .
127(6) . . .
131(6) . . .
127(6) . . .
120(6) . . .
116(6) . . .
127(6) . . .
109(6) . . .
128(6) . . .
108(6) . . .
135(6) . . .
115(6) . . .
125(6) . . .
123(6) . . .
127(6) . . .
127(6) . . .
143(6) . . .
134(6) . . .
135(7) . . .
120(6) . . .
101(5) . . .
116(6) . . .
125(6) . . .
139(7) . . .
130(6) . . .
122(6) . . .
111(5) . . .
123(6) . . .
117(6) . . .
142(6) . . .
121(6) . . .
121(6) . . .
126(6) . . .
125(6) . . .
126(6) . . .
119(6) . . .
125(6) . . .
113(6) . . .
114(6) . . .
129(6) . . .
123(6) . . .
127(6) . . .
121(6) . . .
105(6) . . .
105(5) . . .
146(6) . . .
123(6) . . .
114(6) . . .
124(6) . . .
102(5) . . .
122(6) . . .
124(6) . . .
108(6) . . .
127(6) . . .
121(6) . . .
103(5) . . .
117(6) . . .
128(6) . . .
109(5) . . .
129(6) . . .
122(6) . . .
114(6) . . .
114(6) . . .
117(6) . . .
119(6) . . .
122(6) . . .
107(5) . . .
126(6) . . .
135(6) . . .
105(5) . . .
112(6) . . .
123(6) . . .
112(6) . . .
117(6) . . .
125(6) . . .
129(6) . . .
123(6) . . .
122(6) . . .
120(6) . . .
105(5) . . .
136(6) . . .
140(6) . . .
119(6) . . .
128(6) . . .
134(6) . . .
135(6) . . .
121(6) . . .
121(6) . . .
116(6) . . .
110(5) . . .
114(6) . . .
121(6) . . .
116(6) . . .
142(6) . . .
110(5) . . .
114(6) . . .
112(6) . . .
114(6) . . .
118(6) . . .
118(6) . . .
126(6) . . .
116(6) . . .
118(6) . . .
113(6) . . .
129(6) . . .
123(6) . . .
111(6) . . .
113(6) . . .
114(6) . . .
113(6) . . .
101(5) . . .
123(6) . . .
138(6) . . .
119(6) . . .
112(6) . . .
118(6) . . .
112(6) . . .
101(5) . . .
127(6) . . .
134(6) . . .
128(6) . . .
124(6) . . .
117(6) . . .
117(6) . . .
125(6) . . .
126(6) . . .
116(6) . . .
116(6) . . .
139(6) . . .
123(6) . . .
132(6) . . .
110(6) . . .
116(6) . . .
137(6) . . .
108(5) . . .
109(6) . . .
115(6) . . .
132(6) . . .
118(6) . . .
113(6) . . .
113(6) . . .
120(6) . . .
112(6) . . .
115(6) . . .
139(6) . . .
136(6) . . .
118(6) . . .
115(6) . . .
128(6) . . .
118(6) . . .
122(6) . . .
120(6) . . .
125(6) . . .
110(5) . . .
115(6) . . .
130(6) . . .
113(6) . . .
103(5) . . .
105(5) . . .
121(6) . . .
134(6) . . .
118(6) . . .
127(6) . . .
142(6) . . .
113(6) . . .
117(6) . . .
115(6) . . .
114(6) . . .
113(5) . . .
110(6) . . .
107(6) . . .
114(6) . . .
123(6) . . .
125(6) . . .
122(6) . . .
114(6) . . .
120(6) . . .
119(6) . . .
114(6) . . .
108(5) . . .
119(6) . . .
112(6) . . .
131(6) . . .
138(6) . . .
125(6) . . .
109(6) . . .
108(6) . . .
113(5) . . .
120(6) . . .
119(6) . . .
115(6) . . .
112(6) . . .
133(6) . . .
120(6) . . .
109(6) . . .
107(6) . . .
117(6) . . .
108(5) . . .
115(6) . . .
108(6) . . .
108(6) . . .
121(6) . . .
119(6) . . .
118(6) . . .
119(6) . . .
125(6) . . .
128(6) . . .
115(6) . . .
112(6) . . .
123(6) . . .
114(6) . . .
101(5) . . .
114(6) . . .
117(6) . . .
113(6) . . .
115(6) . . .
123(6) . . .
124(6) . . .
126(6) . . .
103(5) . . .
122(6) . . .
122(6) . . .
122(6) . . .
122(6) . . .
118(6) . . .
110(6) . . .
119(6) . . .
107(5) . . .
110(6) . . .
129(6) . . .
118(6) . . .
120(6) . . .
130(6) . . .
123(6) . . .
124(6) . . .
133(6) . . .
125(6) . . .
121(6) . . .
125(6) . . .
115(6) . . .
127(6) . . .
122(6) . . .
124(6) . . .
124(6) . . .
104(5) . . .
114(6) . . .
113(6) . . .
124(6) . . .
124(6) . . .
129(6) . . .
114(6) . . .
104(5) . . .
114(6) . . .
109(6) . . .
113(6) . . .
115(6) . . .
123(6) . . .
116(6) . . .
116(6) . . .
121(6) . . .
114(6) . . .
106(5) . . .
124(6) . . .
119(6) . . .
111(6) . . .
126(6) . . .
118(6) . . .
120(6) . . .
130(6) . . .
107(5) . . .
122(6) . . .
120(6) . . .
118(6) . . .
111(6) . . .
124(6) . . .
126(6) . . .
102(5) . . .
130(6) . . .
121(6) . . .
124(6) . . .
128(6) . . .
119(6) . . .
130(6) . . .
126(6) . . .
124(6) . . .
109(5) . . .
120(6) . . .
117(6) . . .
118(6) . . .
100(5) . . .
107(5) . . .
102(5) . . .
115(6) . . .
123(6) . . .
115(6) . . .
119(6) . . .
121(6) . . .
112(6) . . .
115(6) . . .
112(5) . . .
120(6) . . .
120(6) . . .
119(6) . . .
118(6) . . .
127(6) . . .
125(6) . . .
119(6) . . .
115(6) . . .
129(7) . . .
108(5) . . .
112(6) . . .
116(6) . . .
114(6) . . .
127(6) . . .
109(5) . . .
106(5) . . .
114(6) . . .
118(6) . . .
127(6) . . .
124(6) . . .
132(6) . . .
119(6) . . .
107(6) . . .
132(6) . . .
129(6) . . .
130(6) . . .
134(6) . . .
114(6) . . .
133(6) . . .
131(6) . . .
125(6) . . .
139(6) . . .
130(6) . . .
125(6) . . .
108(5) . . .
122(6) . . .
128(6) . . .
125(6) . . .
121(6) . . .
121(6) . . .
120(6) . . .
130(6) . . .
116(6) . . .
127(6) . . .
122(6) . . .
116(6) . . .
126(6) . . .
120(6) . . .
118(6) . . .
143(6) . . .
115(6) . . .
124(6) . . .
116(6) . . .
114(6) . . .
125(6) . . .
113(6) . . .
124(6) . . .
133(6) . . .
125(6) . . .
130(6) . . .
115(6) . . .
101(5) . . .
123(6) . . .
120(6) . . .
103(5) . . .
123(6) . . .
117(6) . . .
122(6) . . .
118(6) . . .
116(6) . . .
132(6) . . .
113(6) . . .
120(6) . . .
114(5) . . .
124(6) . . .
118(6) . . .
111(6) . . .
131(6) . . .
105(5) . . .
121(6) . . .
106(6) . . .
120(6) . . .
110(6) . . .
112(5) . . .
105(5) . . .
107(5) . . .
112(6) . . .
123(6) . . .
121(6) . . .
122(6) . . .
123(6) . . .
118(6) . . .
107(6) . . .
107(5) . . .
104(5) . . .
111(6) . . .
113(6) . . .
124(6) . . .
104(5) . . .
115(6) . . .
100(5) . . .
115(6) . . .
119(6) . . .
97(5) . . .
117(6) . . .
125(6) . . .
109(6) . . .
111(6) . . .
107(5) . . .
116(6) . . .
109(6) . . .
107(6) . . .
112(6) . . .
110(5) . . .
102(5) . . .
120(6) . . .
106(5) . . .
115(6) . . .
127(6) . . .
119(6) . . .
106(6) . . .
105(5) . . .
118(6) . . .
119(6) . . .
108(6) . . .
108(6) . . .
122(6) . . .
119(6) . . .
112(6) . . .
113(6) . . .
105(6) . . .
112(6) . . .
116(6) . . .
126(6) . . .
121(6) . . .
106(6) . . .
108(6) . . .
114(6) . . .
113(6) . . .
110(5) . . .
129(6) . . .
118(6) . . .
111(5) . . .
117(6) . . .
111(6) . . .
115(6) . . .
127(6) . . .
118(6) . . .
112(6) . . .
106(5) . . .
110(6) . . .
110(6) . . .
110(5) . . .
121(6) . . .
96(5) . . .
100(5) . . .
105(5) . . .
126(6) . . .
119(6) . . .
97(5) . . .
115(6) . . .
117(6) . . .
122(6) . . .
106(6) . . .
125(6) . . .
111(6) . . .
109(5) . . .
115(6) . . .
113(6) . . .
124(6) . . .
119(6) . . .
117(6) . . .
117(6) . . .
118(6) . . .
118(6) . . .
118(6) . . .
116(6) . . .
109(6) . . .
124(6) . . .
122(6) . . .
112(6) . . .
123(6) . . .
119(6) . . .
114(6) . . .
116(6) . . .
101(5) . . .
126(6) . . .
122(6) . . .
108(6) . . .
120(6) . . .
128(6) . . .
122(6) . . .
115(6) . . .
129(6) . . .
126(6) . . .
124(6) . . .
103(5) . . .
115(6) . . .
110(6) . . .
106(6) . . .
123(6) . . .
120(6) . . .
121(6) . . .
114(6) . . .
105(6) . . .
110(5) . . .
108(5) . . .
114(6) . . .
112(6) . . .
117(6) . . .
111(6) . . .
107(5) . . .
107(5) . . .
125(6) . . .
115(6) . . .
116(6) . . .
124(6) . . .
122(6) . . .
120(6) . . .
119(6) . . .
129(6) . . .
112(5) . . .
121(6) . . .
115(6) . . .
103(5) . . .
113(5) . . .
109(6) . . .
111(6) . . .
115(6) . . .
112(6) . . .
120(6) . . .
121(6) . . .
102(5) . . .
112(6) . . .
115(6) . . .
108(5) . . .
127(6) . . .
104(5) . . .
110(6) . . .
120(6) . . .
103(5) . . .
121(6) . . .
116(6) . . .
121(6) . . .
99(5) . . .
109(5) . . .
111(6) . . .
118(6) . . .
124(6) . . .
118(6) . . .
120(6) . . .
116(6) . . .
111(6) . . .
114(6) . . .
119(6) . . .
103(5) . . .
103(5) . . .
106(5) . . .
130(6) . . .
97(5) . . .
106(5) . . .
126(6) . . .
122(6) . . .
111(6) . . .
109(5) . . .
132(6) . . .
118(6) . . .
111(6) . . .
122(6) . . .
111(6) . . .
106(5) . . .
114(6) . . .
112(6) . . .
101(5) . . .
122(6) . . .
120(6) . . .
122(6) . . .
117(6) . . .
117(6) . . .
118(6) . . .
117(6) . . .
111(6) . . .
105(6) . . .
109(6) . . .
111(5) . . .
131(6) . . .
132(6) . . .
137(6) . . .
117(6) . . .
122(6) . . .
121(6) . . .
125(6) . . .
107(6) . . .
118(6) . . .
120(6) . . .
113(6) . . .
101(5) . . .
90(5) . . .
101(5) . . .
114(5) . . .
130(6) . . .
109(6) . . .
110(6) . . .
116(6) . . .
113(5) . . .
130(6) . . .
104(5) . . .
109(6) . . .
114(6) . . .
112(5) . . .
117(6) . . .
114(6) . . .
115(6) . . .
105(5) . . .
116(6) . . .
121(6) . . .
105(6) . . .
104(6) . . .
114(6) . . .
112(5) . . .
117(6) . . .
119(6) . . .
124(6) . . .
111(5) . . .
118(6) . . .
113(6) . . .
98(6) . . .
115(6) . . .
111(5) . . .
111(6) . . .
119(6) . . .
111(6) . . .
122(6) . . .
117(6) . . .
101(5) . . .
110(6) . . .
106(6) . . .
99(5) . . .
106(5) . . .
113(6) . . .
125(6) . . .
112(6) . . .
125(6) . . .
122(6) . . .
110(5) . . .
125(6) . . .
128(6) . . .
116(6) . . .
116(6) . . .
111(6) . . .
113(6) . . .
111(6) . . .
117(6) . . .
108(5) . . .
114(6) . . .
116(6) . . .
116(6) . . .
106(5) . . .
112(5) . . .
126(6) . . .
116(6) . . .
104(5) . . .
125(6) . . .
131(6) . . .
125(6) . . .
109(6) . . .
117(6) . . .
114(6) . . .
102(5) . . .
99(5) . . .
105(6) . . .
107(6) . . .
117(6) . . .
109(5) . . .
115(6) . . .
115(6) . . .
116(6) . . .
99(5) . . .
122(6) . . .
114(6) . . .
109(5) . . .
103(5) . . .
112(6) . . .
104(5) . . .
108(5) . . .
107(6) . . .
98(5) . . .
112(5) . . .
101(5) . . .
118(6) . . .
118(6) . . .
115(6) . . .
117(6) . . .
105(5) . . .
103(5) . . .
100(5) . . .
108(6) . . .
100(5) . . .
107(6) . . .
104(5) . . .
104(5) . . .
113(6) . . .
113(6) . . .
103(5) . . .
108(6) . . .
111(6) . . .
116(6) . . .
112(5) . . .
112(6) . . .
104(6) . . .
108(6) . . .
114(6) . . .
103(5) . . .
101(5) . . .
115(6) . . .
109(6) . . .
92(5) . . .
100(5) . . .
119(6) . . .
117(6) . . .
106(6) . . .
112(5) . . .
105(5) . . .
99(5) . . .
124(6) . . .
126(6) . . .
106(5) . . .
112(6) . . .
120(6) . . .
119(6) . . .
113(6) . . .
111(5) . . .
107(5) . . .
117(6) . . .
111(6) . . .
113(6) . . .
112(5) . . .
109(5) . . .
116(6) . . .
121(6) . . .
118(6) . . .
101(5) . . .
107(6) . . .
111(6) . . .
117(6) . . .
105(6) . . .
108(5) . . .
109(5) . . .
117(6) . . .
117(6) . . .
102(5) . . .
121(6) . . .
117(6) . . .
105(6) . . .
104(5) . . .
107(5) . . .
119(6) . . .
111(6) . . .
113(6) . . .
121(6) . . .
113(6) . . .
128(6) . . .
118(6) . . .
111(6) . . .
117(6) . . .
98(5) . . .
114(6) . . .
118(6) . . .
121(6) . . .
117(6) . . .
116(6) . . .
104(5) . . .
120(6) . . .
119(6) . . .
112(6) . . .
108(5) . . .
111(5) . . .
125(6) . . .
119(6) . . .
112(6) . . .
120(6) . . .
112(5) . . .
120(6) . . .
125(6) . . .
114(6) . . .
116(6) . . .
105(5) . . .
104(5) . . .
110(6) . . .
114(6) . . .
109(5) . . .
119(6) . . .
102(5) . . .
110(6) . . .
107(6) . . .
106(5) . . .
116(6) . . .
113(6) . . .
118(6) . . .
96(5) . . .
125(6) . . .
119(6) . . .
117(6) . . .
113(6) . . .
108(5) . . .
113(6) . . .
113(6) . . .
120(6) . . .
112(6) . . .
115(6) . . .
107(5) . . .
105(5) . . .
113(6) . . .
98(5) . . .
103(5) . . .
110(5) . . .
109(6) . . .
120(6) . . .
109(5) . . .
125(6) . . .
117(6) . . .
120(6) . . .
109(6) . . .
123(6) . . .
116(6) . . .
111(5) . . .
117(6) . . .
118(6) . . .
108(6) . . .
112(6) . . .
109(5) . . .
118(6) . . .
115(6) . . .
126(6) . . .
118(6) . . .
121(6) . . .
114(6) . . .
125(6) . . .
104(5) . . .
115(6) . . .
114(5) . . .
112(6) . . .
106(6) . . .
124(6) . . .
126(6) . . .
123(6) . . .
128(6) . . .
117(6) . . .
126(6) . . .
127(6) . . .
112(6) . . .
101(5) . . .
110(6) . . .
130(6) . . .
115(6) . . .
111(6) . . .
122(6) . . .
120(6) . . .
115(6) . . .
97(5) . . .
105(6) . . .
94(5) . . .
102(6) . . .
99(5) . . .
112(6) . . .
115(6) . . .
111(6) . . .
123(6) . . .
113(5) . . .
122(6) . . .
109(6) . . .
95(5) . . .
110(6) . . .
107(5) . . .
105(5) . . .
117(6) . . .
112(6) . . .
113(6) . . .
117(6) . . .
121(6) . . .
116(6) . . .
101(5) . . .
106(6) . . .
99(5) . . .
99(5) . . .
99(5) . . .
113(6) . . .
106(5) . . .
113(5) . . .
123(6) . . .
125(6) . . .
119(6) . . .
126(6) . . .
104(5) . . .
139(6) . . .
111(6) . . .
120(6) . . .
96(5) . . .
94(5) . . .
125(6) . . .
104(5) . . .
99(6) . . .
117(6) . . .
108(5) . . .
109(6) . . .
101(5) . . .
109(6) . . .
125(6) . . .
102(5) . . .
104(6) . . .
101(6) . . .
111(6) . . .
103(5) . . .
109(5) . . .
124(6) . . .
116(6) . . .
97(5) . . .
115(6) . . .
119(6) . . .
105(6) . . .
106(6) . . .
115(6) . . .
126(6) . . .
98(5) . . .
99(5) . . .
100(6) . . .
115(6) . . .
121(6) . . .
114(6) . . .
113(6) . . .
113(6) . . .
113(6) . . .
116(6) . . .
112(6) . . .
103(5) . . .
106(6) . . .
101(5) . . .
118(6) . . .
113(6) . . .
102(5) . . .
117(6) . . .
95(5) . . .
108(5) . . .
107(5) . . .
121(6) . . .
112(6) . . .
120(6) . . .
113(5) . . .
109(6) . . .
112(6) . . .
100(5) . . .
106(5) . . .
117(6) . . .
108(6) . . .
107(6) . . .
105(6) . . .
112(5) . . .
107(5) . . .
114(6) . . .
121(6) . . .
94(5) . . .
111(6) . . .
110(5) . . .
108(6) . . .
115(6) . . .
112(6) . . .
107(5) . . .
98(5) . . .
98(5) . . .
104(6) . . .
109(6) . . .
115(6) . . .
103(5) . . .
127(6) . . .
96(5) . . .
104(5) . . .
115(6) . . .
102(5) . . .
90(5) . . .
103(6) . . .
122(6) . . .
96(5) . . .
123(6) . . .
123(6) . . .
114(6) . . .
108(6) . . .
121(6) . . .
110(6) . . .
124(6) . . .
102(5) . . .
114(6) . . .
101(5) . . .
105(5) . . .
99(5) . . .
107(6) . . .
114(6) . . .
108(5) . . .
106(5) . . .
124(6) . . .
110(6) . . .
136(6) . . .
111(5) . . .
109(5) . . .
98(5) . . .
103(6) . . .
112(6) . . .
114(6) . . .
100(5) . . .
96(5) . . .
103(5) . . .
103(5) . . .
109(5) . . .
109(6) . . .
106(6) . . .
101(5) . . .
100(5) . . .
95(5) . . .
108(6) . . .
109(6) . . .
111(6) . . .
114(6) . . .
108(5) . . .
108(6) . . .
114(6) . . .
100(5) . . .
102(5) . . .
111(5) . . .
113(6) . . .
99(6) . . .
103(6) . . .
108(5) . . .
110(5) . . .
109(5) . . .
115(6) . . .
112(6) . . .
110(5) . . .
107(5) . . .
125(6) . . .
110(6) . . .
109(6) . . .
104(5) . . .
124(6) . . .
116(6) . . .
97(5) . . .
123(6) . . .
108(5) . . .
122(6) . . .
103(5) . . .
114(6) . . .
109(6) . . .
109(5) . . .
108(5) . . .
97(5) . . .
109(6) . . .
120(6) . . .
102(5) . . .
109(6) . . .
106(6) . . .
116(6) . . .
103(5) . . .
116(6) . . .
108(6) . . .
123(6) . . .
105(6) . . .
105(6) . . .
117(6) . . .
102(5) . . .
109(6) . . .
110(6) . . .
115(6) . . .
109(5) . . .
127(6) . . .
108(6) . . .
129(6) . . .
125(6) . . .
114(5) . . .
96(5) . . .
97(5) . . .
105(5) . . .
98(5) . . .
103(5) . . .
103(6) . . .
101(6) . . .
95(5) . . .
110(5) . . .
102(5) . . .
111(6) . . .
98(6) . . .
108(6) . . .
95(5) . . .
114(6) . . .
109(6) . . .
110(6) . . .
128(6) . . .
111(5) . . .
111(6) . . .
121(6) . . .
108(6) . . .
104(5) . . .
118(6) . . .
113(6) . . .
117(6) . . .
115(6) . . .
106(6) . . .
99(5) . . .
121(6) . . .
108(5) . . .
105(5) . . .
110(6) . . .
107(5) . . .
107(6) . . .
107(6) . . .
96(5) . . .
110(6) . . .
106(5) . . .
117(6) . . .
119(6) . . .
105(5) . . .
115(6) . . .
119(6) . . .
113(6) . . .
108(6) . . .
115(6) . . .
113(5) . . .
109(5) . . .
95(5) . . .
93(5) . . .
109(6) . . .
98(5) . . .
104(5) . . .
101(5) . . .
101(5) . . .
126(6) . . .
126(6) . . .
113(6) . . .
125(6) . . .
102(6) . . .
85(5) . . .
116(6) . . .
126(6) . . .
103(5) . . .
114(6) . . .
106(5) . . .
117(6) . . .
100(5) . . .
126(6) . . .
117(6) . . .
107(5) . . .
100(5) . . .
102(5) . . .
121(6) . . .
100(5) . . .
115(6) . . .
113(6) . . .
94(5) . . .
98(5) . . .
108(6) . . .
92(5) . . .
95(5) . . .
104(6) . . .
100(6) . . .
117(6) . . .
104(5) . . .
106(5) . . .
103(6) . . .
115(6) . . .
120(6) . . .
99(5) . . .
100(5) . . .
102(5) . . .
108(6) . . .
116(6) . . .
116(6) . . .
118(6) . . .
120(6) . . .
124(6) . . .
119(6) . . .
113(6) . . .
108(5) . . .
110(6) . . .
91(5) . . .
120(6) . . .
110(5) . . .
99(5) . . .
112(6) . . .
118(6) . . .
108(6) . . .
105(5) . . .
109(5) . . .
117(6) . . .
101(6) . . .
98(5) . . .
121(6) . . .
111(5) . . .
112(6) . . .
120(6) . . .
123(6) . . .
110(5) . . .
111(6) . . .
111(6) . . .
96(5) . . .
102(6) . . .
113(6) . . .
92(5) . . .
116(6) . . .
117(6) . . .
111(6) . . .
98(5) . . .
106(6) . . .
117(6) . . .
112(6) . . .
91(5) . . .
94(5) . . .
100(5) . . .
122(6) . . .
99(5) . . .
113(5) . . .
106(5) . . .
101(5) . . .
113(6) . . .
102(5) . . .
108(5) . . .
95(5) . . .
106(6) . . .
114(6) . . .
107(5) . . .
116(6) . . .
117(6) . . .
113(6) . . .
103(6) . . .
101(5) . . .
110(6) . . .
99(5) . . .
103(6) . . .
97(5) . . .
105(5) . . .
100(5) . . .
116(6) . . .
111(6) . . .
105(6) . . .
124(6) . . .
112(5) . . .
103(5) . . .
94(5) . . .
95(5) . . .
107(6) . . .
91(5) . . .
82(5) . . .
98(5) . . .
109(6) . . .
106(6) . . .
96(5) . . .
110(6) . . .
111(6) . . .
100(5) . . .
99(5) . . .
88(5) . . .
107(6) . . .
116(6) . . .
124(6) . . .
101(5) . . .
104(5) . . .
108(6) . . .
109(6) . . .
105(6) . . .
111(6) . . .
114(6) . . .
101(5) . . .
91(5) . . .
108(6) . . .
114(6) . . .
104(5) . . .
99(5) . . .
104(6) . . .
107(6) . . .
105(5) . . .
99(5) . . .
106(6) . . .
100(6) . . .
109(6) . . .
114(6) . . .
118(6) . . .
121(6) . . .
109(6) . . .
92(5) . . .
106(5) . . .
120(6) . . .
108(6) . . .
109(6) . . .
110(6) . . .
123(6) . . .
115(6) . . .
107(5) . . .
112(6) . . .
99(5) . . .
97(5) . . .
106(5) . . .
102(6) . . .
95(5) . . .
107(6) . . .
111(5) . . .
108(5) . . .
102(5) . . .
121(6) . . .
113(6) . . .
108(5) . . .
116(6) . . .
124(6) . . .
120(6) . . .
95(5) . . .
102(5) . . .
115(6) . . .
100(5) . . .
109(6) . . .
110(6) . . .
109(5) . . .
120(6) . . .
99(5) . . .
105(5) . . .
105(5) . . .
95(5) . . .
106(6) . . .
107(6) . . .
101(5) . . .
109(5) . . .
99(5) . . .
92(5) . . .
114(6) . . .
114(6) . . .
111(6) . . .
107(5) . . .
124(6) . . .
103(5) . . .
102(5) . . .
115(6) . . .
108(5) . . .
94(5) . . .
87(5) . . .
122(6) . . .
120(6) . . .
103(5) . . .
104(5) . . .
102(6) . . .
104(6) . . .
101(5) . . .
106(5) . . .
102(5) . . .
106(6) . . .
97(5) . . .
114(6) . . .
95(5) . . .
103(6) . . .
109(6) . . .
112(6) . . .
112(5) . . .
112(6) . . .
110(6) . . .
106(6) . . .
104(5) . . .
97(5) . . .
104(5) . . .
108(6) . . .
101(5) . . .
107(6) . . .
107(5) . . .
100(5) . . .
110(6) . . .
111(6) . . .
104(5) . . .
111(5) . . .
104(5) . . .
110(6) . . .
99(5) . . .
86(5) . . .
116(6) . . .
116(6) . . .
105(6) . . .
109(6) . . .
101(5) . . .
115(6) . . .
117(6) . . .
104(6) . . .
91(5) . . .
100(5) . . .
109(6) . . .
109(6) . . .
110(6) . . .
111(6) . . .
105(5) . . .
110(5) . . .
103(5) . . .
93(5) . . .
105(6) . . .
106(5) . . .
112(6) . . .
116(6) . . .
109(6) . . .
103(5) . . .
111(6) . . .
105(5) . . .
119(6) . . .
112(6) . . .
110(6) . . .
112(5) . . .
108(6) . . .
85(5) . . .
114(6) . . .
106(5) . . .
95(5) . . .
102(6) . . .
96(5) . . .
97(6) . . .
87(5) . . .
108(5) . . .
102(5) . . .
106(6) . . .
108(6) . . .
107(6) . . .
105(5) . . .
112(6) . . .
100(6) . . .
101(5) . . .
109(6) . . .
96(5) . . .
94(5) . . .
93(5) . . .
104(6) . . .
107(5) . . .
109(5) . . .
105(6) . . .
91(5) . . .
104(6) . . .
98(5) . . .
106(5) . . .
95(5) . . .
93(5) . . .
104(6) . . .
95(5) . . .
90(5) . . .
98(5) . . .
110(6) . . .
106(5) . . .
120(6) . . .
107(5) . . .
95(5) . . .
103(6) . . .
109(5) . . .
101(5) . . .
110(5) . . .
98(5) . . .
101(5) . . .
97(5) . . .
97(5) . . .
97(5) . . .
103(5) . . .
107(6) . . .
103(5) . . .
105(5) . . .
98(5) . . .
96(5) . . .
121(6) . . .
106(5) . . .
103(5) . . .
108(6) . . .
103(6) . . .
104(5) . . .
111(6) . . .
101(5) . . .
93(5) . . .
108(6) . . .
103(5) . . .
103(5) . . .
109(5) . . .
112(6) . . .
96(5) . . .
100(5) . . .
120(6) . . .
117(6) . . .
97(5) . . .
101(6) . . .
90(5) . . .
88(5) . . .
89(5) . . .
102(5) . . .
100(5) . . .
106(6) . . .
106(5) . . .
88(5) . . .
95(5) . . .
105(6) . . .
102(5) . . .
108(5) . . .
102(5) . . .
97(5) . . .
101(5) . . .
103(5) . . .
109(5) . . .
99(5) . . .
110(6) . . .
110(6) . . .
97(5) . . .
108(5) . . .
108(6) . . .
98(5) . . .
95(5) . . .
108(6) . . .
110(5) . . .
108(5) . . .
114(6) . . .
104(5) . . .
114(6) . . .
105(5) . . .
113(6) . . .
111(6) . . .
106(5) . . .
109(6) . . .
105(5) . . .
101(5) . . .
90(5) . . .
103(5) . . .
87(5) . . .
96(5) . . .
94(5) . . .
106(6) . . .
96(5) . . .
102(5) . . .
91(5) . . .
112(6) . . .
91(5) . . .
103(6) . . .
97(5) . . .
100(5) . . .
107(6) . . .
110(6) . . .
94(5) . . .
98(5) . . .
100(5) . . .
93(5) . . .
96(5) . . .
103(5) . . .
117(6) . . .
100(5) . . .
111(6) . . .
116(6) . . .
112(6) . . .
102(5) . . .
95(5) . . .
109(6) . . .
106(6) . . .
109(6) . . .
112(5) . . .
103(5) . . .
99(5) . . .
101(5) . . .
108(6) . . .
116(6) . . .
108(5) . . .
108(6) . . .
94(5) . . .
103(5) . . .
93(5) . . .
93(5) . . .
102(6) . . .
90(5) . . .
90(5) . . .
103(5) . . .
91(5) . . .
103(5) . . .
101(5) . . .
92(5) . . .
98(5) . . .
92(5) . . .
100(5) . . .
95(5) . . .
100(5) . . .
92(5) . . .
94(5) . . .
88(5) . . .
90(5) . . .
98(5) . . .
90(5) . . .
90(5) . . .
118(6) . . .
100(5) . . .
100(5) . . .
96(5) . . .
97(5) . . .
95(5) . . .
92(5) . . .
97(5) . . .
108(6) . . .
87(5) . . .
90(5) . . .
106(6) . . .
94(5) . . .
108(5) . . .
95(5) . . .
84(5) . . .
101(5) . . .
106(5) . . .
96(5) . . .
93(5) . . .
101(6) . . .
91(5) . . .
98(5) . . .
90(5) . . .
97(5) . . .
102(6) . . .
99(5) . . .
104(5) . . .
101(6) . . .
99(6) . . .
102(5) . . .
101(5) . . .
96(5) . . .
97(6) . . .
106(6) . . .
101(5) . . .
104(5) . . .
92(5) . . .
91(5) . . .
93(5) . . .
79(5) . . .
93(5) . . .
100(5) . . .
84(5) . . .
90(5) . . .
90(5) . . .
102(5) . . .
99(5) . . .
88(5) . . .
92(5) . . .
101(5) . . .
96(5) . . .
110(5) . . .
108(5) . . .
94(5) . . .
91(5) . . .
112(6) . . .
96(5) . . .
94(5) . . .
99(6) . . .
96(5) . . .
99(5) . . .
99(5) . . .
95(5) . . .
103(6) . . .
85(5) . . .
102(5) . . .
113(6) . . .
95(5) . . .
110(6) . . .
112(6) . . .
97(5) . . .
95(5) . . .
104(6) . . .
101(5) . . .
110(6) . . .
99(5) . . .
96(5) . . .
95(5) . . .
104(5) . . .
95(5) . . .
101(5) . . .
98(5) . . .
100(5) . . .
94(5) . . .
98(5) . . .
91(5) . . .
104(6) . . .
123(6) . . .
106(6) . . .
107(5) . . .
96(5) . . .
95(5) . . .
105(6) . . .
97(5) . . .
113(6) . . .
109(5) . . .
95(5) . . .
97(6) . . .
101(6) . . .
98(5) . . .
99(5) . . .
99(5) . . .
87(5) . . .
98(5) . . .
114(6) . . .
100(5) . . .
103(5) . . .
114(6) . . .
104(5) . . .
112(5) . . .
104(5) . . .
112(6) . . .
102(5) . . .
97(5) . . .
84(5) . . .
102(5) . . .
112(6) . . .
98(5) . . .
82(5) . . .
103(5) . . .
91(5) . . .
101(5) . . .
110(6) . . .
104(5) . . .
113(5) . . .
110(6) . . .
103(5) . . .
105(6) . . .
105(6) . . .
105(5) . . .
97(5) . . .
115(6) . . .
99(5) . . .
108(6) . . .
100(5) . . .
95(5) . . .
100(6) . . .
102(5) . . .
99(5) . . .
84(5) . . .
93(5) . . .
91(5) . . .
97(5) . . .
112(5) . . .
108(6) . . .
97(5) . . .
115(6) . . .
87(5) . . .
97(5) . . .
88(5) . . .
106(5) . . .
88(5) . . .
102(5) . . .
101(5) . . .
95(5) . . .
94(5) . . .
90(5) . . .
104(6) . . .
110(5) . . .
111(5) . . .
87(5) . . .
95(5) . . .
98(5) . . .
88(5) . . .
100(5) . . .
97(5) . . .
104(5) . . .
105(6) . . .
103(5) . . .
96(5) . . .
89(5) . . .
103(6) . . .
101(5) . . .
103(5) . . .
93(5) . . .
99(6) . . .
89(5) . . .
91(5) . . .
102(5) . . .
93(5) . . .
101(5) . . .
103(5) . . .
103(5) . . .
94(5) . . .
106(5) . . .
108(6) . . .
103(5) . . .
97(5) . . .
110(5) . . .
91(5) . . .
94(5) . . .
114(6) . . .
95(5) . . .
99(5) . . .
94(5) . . .
87(5) . . .
94(5) . . .
101(5) . . .
95(5) . . .
101(5) . . .
101(6) . . .
92(5) . . .
96(5) . . .
104(5) . . .
93(5) . . .
97(5) . . .
102(5) . . .
99(5) . . .
91(5) . . .
90(5) . . .
104(6) . . .
104(5) . . .
94(5) . . .
89(5) . . .
95(5) . . .
103(6) . . .
96(5) . . .
108(5) . . .
96(5) . . .
103(6) . . .
90(5) . . .
102(6) . . .
102(5) . . .
100(5) . . .
101(5) . . .
96(5) . . .
100(5) . . .
99(5) . . .
104(5) . . .
96(5) . . .
107(6) . . .
91(5) . . .
103(5) . . .
106(6) . . .
108(6) . . .
100(5) . . .
94(5) . . .
93(5) . . .
84(5) . . .
99(6) . . .
93(5) . . .
97(5) . . .
89(5) . . .
99(5) . . .
87(5) . . .
100(6) . . .
106(5) . . .
108(5) . . .
99(5) . . .
99(5) . . .
98(5) . . .
101(5) . . .
94(5) . . .
98(5) . . .
103(6) . . .
87(5) . . .
97(5) . . .
90(5) . . .
98(5) . . .
96(5) . . .
102(6) . . .
90(5) . . .
99(5) . . .
105(5) . . .
106(6) . . .
92(5) . . .
95(5) . . .
90(5) . . .
92(5) . . .
94(5) . . .
111(6) . . .
100(5) . . .
99(5) . . .
103(5) . . .
94(5) . . .
82(5) . . .
97(5) . . .
102(5) . . .
99(5) . . .
90(5) . . .
94(5) . . .
96(5) . . .
108(6) . . .
96(5) . . .
91(5) . . .
101(5) . . .
103(5) . . .
98(5) . . .
104(5) . . .
105(5) . . .
82(5) . . .
104(5) . . .
95(5) . . .
99(6) . . .
105(6) . . .
95(5) . . .
96(5) . . .
102(5) . . .
106(6) . . .
99(5) . . .
102(5) . . .
106(5) . . .
102(5) . . .
93(6) . . .
90(5) . . .
96(5) . . .
95(5) . . .
117(6) . . .
107(6) . . .
100(5) . . .
92(5) . . .
92(5) . . .
100(5) . . .
94(5) . . .
91(5) . . .
81(5) . . .
103(5) . . .
100(5) . . .
100(5) . . .
89(5) . . .
97(5) . . .
100(5) . . .
112(6) . . .
104(6) . . .
104(5) . . .
107(5) . . .
87(5) . . .
105(6) . . .
88(5) . . .
92(5) . . .
106(5) . . .
96(5) . . .
95(5) . . .
94(5) . . .
103(6) . . .
89(5) . . .
97(5) . . .
103(6) . . .
100(5) . . .
101(5) . . .
100(5) . . .
100(5) . . .
93(5) . . .
103(6) . . .
93(5) . . .
90(5) . . .
102(5) . . .
103(6) . . .
98(5) . . .
87(5) . . .
94(5) . . .
101(5) . . .
113(6) . . .
100(5) . . .
80(5) . . .
88(5) . . .
92(5) . . .
103(6) . . .
85(5) . . .
82(5) . . .
102(5) . . .
116(6) . . .
89(5) . . .
106(6) . . .
96(5) . . .
98(5) . . .
108(6) . . .
122(6) . . .
109(6) . . .
102(5) . . .
102(5) . . .
87(5) . . .
96(5) . . .
105(6) . . .
86(5) . . .
82(5) . . .
96(5) . . .
104(6) . . .
108(6) . . .
94(5) . . .
102(5) . . .
99(6) . . .
101(6) . . .
86(5) . . .
87(5) . . .
103(6) . . .
101(5) . . .
92(5) . . .
96(5) . . .
112(6) . . .
96(5) . . .
94(6) . . .
88(5) . . .
101(5) . . .
95(5) . . .
94(5) . . .
89(5) . . .
98(5) . . .
99(5) . . .
99(5) . . .
106(6) . . .
98(6) . . .
99(5) . . .
92(5) . . .
101(5) . . .
97(5) . . .
107(6) . . .
102(5) . . .
101(5) . . .
97(5) . . .
99(6) . . .
103(6) . . .
97(5) . . .
98(5) . . .
106(6) . . .
97(5) . . .
92(5) . . .
110(6) . . .
106(5) . . .
104(5) . . .
106(6) . . .
93(5) . . .
100(5) . . .
91(5) . . .
105(5) . . .
99(5) . . .
99(6) . . .
106(6) . . .
95(5) . . .
98(5) . . .
110(6) . . .
101(5) . . .
88(5) . . .
96(5) . . .
97(5) . . .
89(5) . . .
103(5) . . .
102(5) . . .
100(5) . . .
103(6) . . .
102(5) . . .
99(5) . . .
98(5) . . .
95(5) . . .
91(5) . . .
83(5) . . .
88(5) . . .
97(5) . . .
93(5) . . .
91(5) . . .
99(5) . . .
93(5) . . .
98(5) . . .
97(5) . . .
94(5) . . .
89(5) . . .
84(5) . . .
99(5) . . .
91(5) . . .
93(5) . . .
91(5) . . .
85(5) . . .
99(5) . . .
80(5) . . .
91(5) . . .
89(5) . . .
88(5) . . .
101(5) . . .
91(5) . . .
93(5) . . .
107(6) . . .
95(5) . . .
101(5) . . .
94(5) . . .
99(5) . . .
92(5) . . .
94(5) . . .
90(5) . . .
111(6) . . .
100(5) . . .
89(5) . . .
96(5) . . .
101(5) . . .
107(5) . . .
96(5) . . .
87(5) . . .
97(5) . . .
93(5) . . .
97(5) . . .
113(6) . . .
103(6) . . .
105(5) . . .
88(5) . . .
85(5) . . .
97(6) . . .
97(5) . . .
103(5) . . .
91(5) . . .
91(5) . . .
98(6) . . .
100(5) . . .
115(6) . . .
126(6) . . .
115(6) . . .
98(6) . . .
94(5) . . .
86(5) . . .
89(5) . . .
97(5) . . .
104(6) . . .
96(5) . . .
109(5) . . .
101(5) . . .
95(5) . . .
103(5) . . .
112(6) . . .
92(5) . . .
100(5) . . .
108(6) . . .
99(5) . . .
93(5) . . .
89(5) . . .
97(5) . . .
96(5) . . .
100(6) . . .
97(5) . . .
104(5) . . .
97(5) . . .
100(6) . . .
88(5) . . .
92(5) . . .
99(5) . . .
89(5) . . .
86(5) . . .
99(5) . . .
94(5) . . .
88(5) . . .
94(5) . . .
98(5) . . .
84(5) . . .
106(5) . . .
117(6) . . .
91(5) . . .
103(6) . . .
97(5) . . .
98(5) . . .
91(5) . . .
96(5) . . .
95(5) . . .
87(5) . . .
95(5) . . .
96(5) . . .
94(5) . . .
101(6) . . .
90(5) . . .
78(5) . . .
91(5) . . .
93(5) . . .
90(5) . . .
95(5) . . .
94(5) . . .
105(5) . . .
81(5) . . .
88(5) . . .
97(5) . . .
95(5) . . .
88(5) . . .
94(5) . . .
95(5) . . .
102(6) . . .
97(5) . . .
102(5) . . .
93(5) . . .
87(5) . . .
101(5) . . .
105(5) . . .
96(5) . . .
101(6) . . .
93(5) . . .
98(5) . . .
94(5) . . .
100(5) . . .
98(5) . . .
83(5) . . .
100(5) . . .
112(6) . . .
101(5) . . .
87(5) . . .
94(5) . . .
96(5) . . .
90(5) . . .
92(5) . . .
95(5) . . .
98(5) . . .
104(5) . . .
109(5) . . .
105(6) . . .
92(5) . . .
100(5) . . .
102(5) . . .
87(5) . . .
96(5) . . .
103(6) . . .
99(5) . . .
104(5) . . .
97(5) . . .
100(5) . . .
105(6) . . .
94(5) . . .
91(5) . . .
83(5) . . .
81(5) . . .
93(5) . . .
106(6) . . .
105(5) . . .
97(5) . . .
106(6) . . .
94(5) . . .
93(5) . . .
90(5) . . .
87(5) . . .
95(6) . . .
85(5) . . .
100(5) . . .
96(5) . . .
111(6) . . .
87(5) . . .
104(6) . . .
100(5) . . .
103(5) . . .
106(5) . . .
88(5) . . .
98(5) . . .
95(5) . . .
101(5) . . .
101(5) . . .
107(6) . . .
104(5) . . .
105(5) . . .
85(5) . . .
94(5) . . .
101(6) . . .
97(5) . . .
71(4) . . .
88(5) . . .
92(5) . . .
89(5) . . .
91(5) . . .
88(5) . . .
95(5) . . .
105(5) . . .
88(5) . . .
91(5) . . .
87(5) . . .
102(5) . . .
90(5) . . .
106(6) . . .
91(5) . . .
101(5) . . .
94(5) . . .
94(5) . . .
104(6) . . .
97(5) . . .
97(5) . . .
90(5) . . .
96(5) . . .
92(5) . . .
92(5) . . .
88(5) . . .
79(5) . . .
95(5) . . .
82(5) . . .
85(5) . . .
76(4) . . .
90(5) . . .
105(5) . . .
96(5) . . .
96(5) . . .
87(5) . . .
95(5) . . .
90(5) . . .
95(5) . . .
93(5) . . .
102(5) . . .
94(5) . . .
84(5) . . .
88(5) . . .
89(5) . . .
92(5) . . .
92(5) . . .
78(5) . . .
104(5) . . .
94(5) . . .
77(5) . . .
105(6) . . .
81(5) . . .
90(5) . . .
94(5) . . .
98(5) . . .
97(5) . . .
101(5) . . .
91(5) . . .
97(5) . . .
102(5) . . .
102(5) . . .
99(5) . . .
89(5) . . .
97(5) . . .
80(5) . . .
90(5) . . .
94(5) . . .
95(5) . . .
94(5) . . .
105(5) . . .
95(5) . . .
100(6) . . .
94(5) . . .
95(5) . . .
82(5) . . .
102(5) . . .
99(5) . . .
99(5) . . .
91(5) . . .
95(5) . . .
94(5) . . .
86(5) . . .
96(5) . . .
89(5) . . .
92(5) . . .
94(5) . . .
98(5) . . .
108(6) . . .
98(5) . . .
106(5) . . .
97(5) . . .
92(5) . . .
93(5) . . .
105(5) . . .
81(5) . . .
83(5) . . .
100(5) . . .
97(5) . . .
94(5) . . .
101(5) . . .
90(5) . . .
96(5) . . .
108(6) . . .
103(5) . . .
103(5) . . .
96(5) . . .
87(5) . . .
83(5) . . .
79(5) . . .
96(5) . . .
86(5) . . .
89(5) . . .
106(5) . . .
93(5) . . .
93(5) . . .
103(6) . . .
88(5) . . .
98(5) . . .
89(5) . . .
92(5) . . .
86(5) . . .
93(5) . . .
109(5) . . .
85(5) . . .
95(5) . . .
99(5) . . .
88(5) . . .
94(5) . . .
91(5) . . .
95(5) . . .
98(5) . . .
80(5) . . .
108(5) . . .
90(5) . . .
96(5) . . .
95(5) . . .
87(5) . . .
102(5) . . .
95(5) . . .
93(5) . . .
111(6) . . .
96(5) . . .
81(5) . . .
110(6) . . .
101(5) . . .
93(5) . . .
76(5) . . .
96(5) . . .
92(5) . . .
90(5) . . .
95(5) . . .
92(5) . . .
92(5) . . .
101(5) . . .
95(5) . . .
92(5) . . .
98(5) . . .
93(5) . . .
86(5) . . .
100(6) . . .
89(5) . . .
96(5) . . .
84(5) . . .
88(5) . . .
94(6) . . .
91(5) . . .
86(5) . . .
102(5) . . .
96(5) . . .
94(5) . . .
97(5) . . .
87(5) . . .
83(5) . . .
102(6) . . .
88(5) . . .
89(5) . . .
98(5) . . .
98(5) . . .
99(5) . . .
90(5) . . .
92(5) . . .
77(5) . . .
98(5) . . .
80(5) . . .
90(5) . . .
103(5) . . .
85(5) . . .
100(5) . . .
89(5) . . .
97(5) . . .
113(6) . . .
86(5) . . .
82(5) . . .
93(5) . . .
102(5) . . .
85(5) . . .
84(5) . . .
92(5) . . .
97(6) . . .
86(5) . . .
89(5) . . .
92(5) . . .
86(5) . . .
95(5) . . .
95(5) . . .
83(5) . . .
102(5) . . .
111(6) . . .
94(6) . . .
106(6) . . .
81(5) . . .
90(5) . . .
95(5) . . .
101(6) . . .
104(5) . . .
108(5) . . .
93(5) . . .
98(5) . . .
95(5) . . .
99(5) . . .
90(5) . . .
93(5) . . .
102(5) . . .
89(5) . . .
95(5) . . .
90(5) . . .
93(5) . . .
91(5) . . .
93(5) . . .
103(5) . . .
91(5) . . .
94(5) . . .
109(6) . . .
88(5) . . .
92(5) . . .
81(5) . . .
105(6) . . .
87(5) . . .
88(5) . . .
101(5) . . .
97(5) . . .
92(5) . . .
97(5) . . .
90(5) . . .
102(5) . . .
92(5) . . .
105(6) . . .
94(5) . . .
91(5) . . .
93(5) . . .
88(5) . . .
92(5) . . .
107(6) . . .
91(5) . . .
101(5) . . .
90(5) . . .
98(5) . . .
104(6) . . .
95(5) . . .
93(5) . . .
93(5) . . .
90(5) . . .
99(6) . . .
96(5) . . .
78(5) . . .
83(5) . . .
98(5) . . .
77(5) . . .
93(5) . . .
104(5) . . .
82(5) . . .
98(5) . . .
97(5) . . .
96(5) . . .
95(5) . . .
99(5) . . .
86(5) . . .
95(5) . . .
104(6) . . .
91(5) . . .
85(5) . . .
87(5) . . .
96(5) . . .
91(5) . . .
91(5) . . .
92(5) . . .
98(6) . . .
97(5) . . .
90(5) . . .
89(5) . . .
93(5) . . .
83(5) . . .
91(5) . . .
102(5) . . .
86(5) . . .
80(5) . . .
89(5) . . .
90(5) . . .
106(5) . . .
100(5) . . .
96(5) . . .
100(5) . . .
98(5) . . .
95(5) . . .
82(5) . . .
96(5) . . .
90(5) . . .
99(5) . . .
95(5) . . .
88(5) . . .
98(5) . . .
97(5) . . .
96(5) . . .
99(5) . . .
103(5) . . .
96(5) . . .
104(6) . . .
101(5) . . .
89(5) . . .
97(5) . . .
100(5) . . .
97(5) . . .
105(6) . . .
102(5) . . .
102(5) . . .
103(6) . . .
95(5) . . .
95(5) . . .
80(5) . . .
88(5) . . .
104(5) . . .
99(5) . . .
104(5) . . .
98(5) . . .
92(5) . . .
96(5) . . .
90(5) . . .
100(5) . . .
100(5) . . .
110(6) . . .
93(5) . . .
92(5) . . .
93(5) . . .
88(5) . . .
90(5) . . .
94(5) . . .
96(5) . . .
94(5) . . .
100(5) . . .
103(6) . . .
89(5) . . .
100(5) . . .
95(5) . . .
100(5) . . .
109(6) . . .
99(6) . . .
91(5) . . .
87(5) . . .
94(5) . . .
86(5) . . .
95(6) . . .
84(5) . . .
80(5) . . .
105(5) . . .
90(5) . . .
101(6) . . .
97(5) . . .
100(5) . . .
92(5) . . .
84(5) . . .
106(6) . . .
78(5) . . .
79(5) . . .
78(5) . . .
84(5) . . .
96(5) . . .
88(5) . . .
87(5) . . .
86(5) . . .
87(5) . . .
101(5) . . .
89(5) . . .
96(5) . . .
103(5) . . .
92(5) . . .
93(5) . . .
86(5) . . .
99(5) . . .
105(6) . . .
93(5) . . .
84(5) . . .
86(5) . . .
99(5) . . .
99(5) . . .
77(5) . . .
92(5) . . .
101(5) . . .
86(5) . . .
95(5) . . .
92(5) . . .
90(5) . . .
97(5) . . .
88(5) . . .
91(5) . . .
94(5) . . .
87(5) . . .
95(5) . . .
94(5) . . .
91(5) . . .
90(5) . . .
85(5) . . .
105(5) . . .
92(5) . . .
93(5) . . .
81(5) . . .
78(5) . . .
93(5) . . .
81(5) . . .
74(5) . . .
90(5) . . .
91(5) . . .
106(5) . . .
90(5) . . .
89(5) . . .
84(5) . . .
91(5) . . .
92(5) . . .
104(5) . . .
83(5) . . .
92(5) . . .
87(5) . . .
88(5) . . .
88(5) . . .
80(5) . . .
81(5) . . .
91(5) . . .
88(5) . . .
95(5) . . .
95(5) . . .
91(5) . . .
97(5) . . .
89(5) . . .
86(5) . . .
86(5) . . .
91(5) . . .
86(5) . . .
79(5) . . .
92(5) . . .
101(5) . . .
104(5) . . .
100(5) . . .
93(5) . . .
106(6) . . .
89(5) . . .
105(6) . . .
85(5) . . .
101(5) . . .
90(5) . . .
89(6) . . .
86(5) . . .
77(5) . . .
83(5) . . .
87(5) . . .
90(5) . . .
93(5) . . .
88(5) . . .
88(5) . . .
108(6) . . .
91(5) . . .
93(5) . . .
84(5) . . .
85(5) . . .
77(5) . . .
100(6) . . .
97(5) . . .
85(5) . . .
90(5) . . .
78(5) . . .
89(5) . . .
103(5) . . .
95(5) . . .
92(5) . . .
94(5) . . .
79(5) . . .
103(6) . . .
94(5) . . .
96(5) . . .
102(6) . . .
90(5) . . .
88(5) . . .
105(5) . . .
83(5) . . .
101(6) . . .
100(5) . . .
104(5) . . .
89(5) . . .
84(5) . . .
94(5) . . .
90(5) . . .
88(5) . . .
94(5) . . .
93(5) . . .
93(5) . . .
99(5) . . .
96(5) . . .
93(5) . . .
96(6) . . .
92(6) . . .
82(5) . . .
85(5) . . .
97(5) . . .
89(5) . . .
94(6) . . .
92(5) . . .
98(5) . . .
93(5) . . .
98(5) . . .
88(5) . . .
77(5) . . .
88(5) . . .
90(5) . . .
90(5) . . .
94(5) . . .
93(5) . . .
82(5) . . .
90(5) . . .
97(5) . . .
99(5) . . .
88(5) . . .
94(5) . . .
94(5) . . .
102(5) . . .
92(5) . . .
96(5) . . .
88(5) . . .
88(5) . . .
87(5) . . .
100(5) . . .
83(5) . . .
85(5) . . .
100(5) . . .
100(5) . . .
92(6) . . .
90(5) . . .
85(5) . . .
85(5) . . .
99(6) . . .
95(5) . . .
99(5) . . .
83(5) . . .
75(5) . . .
85(5) . . .
104(6) . . .
91(5) . . .
95(5) . . .
80(5) . . .
87(5) . . .
94(5) . . .
91(5) . . .
92(5) . . .
76(5) . . .
90(6) . . .
94(5) . . .
90(5) . . .
81(5) . . .
89(5) . . .
90(5) . . .
90(5) . . .
100(5) . . .
103(5) . . .
91(5) . . .
94(6) . . .
93(5) . . .
83(5) . . .
88(5) . . .
103(6) . . .
95(5) . . .
89(5) . . .
89(5) . . .
96(5) . . .
99(5) . . .
92(5) . . .
108(6) . . .
100(5) . . .
90(5) . . .
96(5) . . .
91(5) . . .
97(5) . . .
97(5) . . .
106(6) . . .
92(5) . . .
81(5) . . .
86(5) . . .
97(5) . . .
90(5) . . .
80(5) . . .
96(5) . . .
81(5) . . .
92(5) . . .
93(5) . . .
107(6) . . .
89(5) . . .
85(5) . . .
99(5) . . .
80(5) . . .
84(5) . . .
104(6) . . .
102(5) . . .
93(5) . . .
84(5) . . .
91(5) . . .
90(5) . . .
83(5) . . .
97(5) . . .
91(5) . . .
93(5) . . .
90(5) . . .
100(5) . . .
89(5) . . .
96(5) . . .
91(5) . . .
103(5) . . .
100(5) . . .
99(5) . . .
80(5) . . .
91(5) . . .
90(5) . . .
96(5) . . .
78(5) . . .
85(5) . . .
83(5) . . .
88(5) . . .
96(5) . . .
92(5) . . .
91(5) . . .
92(5) . . .
86(5) . . .
86(5) . . .
89(5) . . .
88(5) . . .
87(5) . . .
83(5) . . .
101(5) . . .
95(5) . . .
99(5) . . .
89(5) . . .
83(5) . . .
79(5) . . .
88(5) . . .
74(5) . . .
89(5) . . .
90(5) . . .
102(5) . . .
90(5) . . .
96(5) . . .
95(5) . . .
100(5) . . .
92(5) . . .
83(5) . . .
92(5) . . .
82(5) . . .
97(5) . . .
98(5) . . .
92(5) . . .
101(6) . . .
96(5) . . .
105(5) . . .
102(5) . . .
92(5) . . .
93(5) . . .
93(5) . . .
93(5) . . .
95(5) . . .
98(5) . . .
95(5) . . .
79(5) . . .
104(5) . . .
97(5) . . .
82(5) . . .
84(5) . . .
91(5) . . .
79(5) . . .
83(5) . . .
74(5) . . .
85(5) . . .
95(5) . . .
89(5) . . .
84(5) . . .
87(5) . . .
99(6) . . .
87(5) . . .
84(5) . . .
87(5) . . .
102(6) . . .
86(5) . . .
102(5) . . .
87(5) . . .
81(5) . . .
80(5) . . .
89(5) . . .
100(5) . . .
90(5) . . .
81(5) . . .
89(5) . . .
80(5) . . .
94(5) . . .
100(5) . . .
93(5) . . .
79(5) . . .
94(5) . . .
106(5) . . .
93(5) . . .
83(5) . . .
70(4) . . .
82(5) . . .
83(5) . . .
80(5) . . .
96(5) . . .
92(5) . . .
75(5) . . .
75(4) . . .
81(5) . . .
86(5) . . .
102(6) . . .
93(5) . . .
79(5) . . .
102(5) . . .
96(5) . . .
92(5) . . .
87(5) . . .
91(5) . . .
96(5) . . .
88(5) . . .
102(5) . . .
101(5) . . .
92(5) . . .
83(5) . . .
75(5) . . .
89(5) . . .
84(5) . . .
91(5) . . .
76(5) . . .
86(5) . . .
83(5) . . .
88(5) . . .
90(5) . . .
87(5) . . .
89(5) . . .
85(5) . . .
98(5) . . .
87(5) . . .
86(5) . . .
88(5) . . .
86(5) . . .
87(5) . . .
86(5) . . .
90(5) . . .
86(5) . . .
79(5) . . .
76(5) . . .
85(5) . . .
85(5) . . .
80(5) . . .
90(5) . . .
82(5) . . .
83(5) . . .
91(5) . . .
89(5) . . .
77(5) . . .
85(5) . . .
82(5) . . .
88(5) . . .
96(6) . . .
97(5) . . .
82(5) . . .
81(5) . . .
72(4) . . .
97(5) . . .
85(5) . . .
89(5) . . .
77(5) . . .
99(5) . . .
82(5) . . .
95(5) . . .
91(5) . . .
84(5) . . .
93(5) . . .
89(5) . . .
82(5) . . .
79(5) . . .
79(5) . . .
78(5) . . .
85(5) . . .
79(5) . . .
87(5) . . .
80(5) . . .
81(5) . . .
89(5) . . .
86(5) . . .
83(5) . . .
83(5) . . .
99(5) . . .
101(5) . . .
110(6) . . .
86(5) . . .
78(5) . . .
100(6) . . .
93(5) . . .
87(5) . . .
89(5) . . .
89(5) . . .
89(5) . . .
82(5) . . .
101(5) . . .
89(5) . . .
83(5) . . .
82(5) . . .
77(5) . . .
80(5) . . .
74(5) . . .
93(5) . . .
92(5) . . .
83(5) . . .
95(5) . . .
93(5) . . .
75(5) . . .
95(5) . . .
90(5) . . .
90(5) . . .
93(5) . . .
75(5) . . .
87(5) . . .
89(5) . . .
80(5) . . .
98(5) . . .
91(5) . . .
86(5) . . .
83(5) . . .
73(4) . . .
84(5) . . .
100(6) . . .
83(5) . . .
107(6) . . .
87(5) . . .
83(5) . . .
107(6) . . .
78(5) . . .
82(5) . . .
80(5) . . .
80(5) . . .
87(5) . . .
80(5) . . .
86(5) . . .
75(4) . . .
87(5) . . .
96(6) . . .
82(5) . . .
84(5) . . .
93(5) . . .
77(5) . . .
97(6) . . .
81(5) . . .
85(5) . . .
76(5) . . .
98(5) . . .
83(5) . . .
92(5) . . .
73(4) . . .
87(5) . . .
98(5) . . .
82(5) . . .
80(5) . . .
87(5) . . .
66(4) . . .
92(5) . . .
78(5) . . .
83(5) . . .
86(5) . . .
87(5) . . .
78(5) . . .
88(5) . . .
92(5) . . .
88(5) . . .
77(5) . . .
81(5) . . .
81(5) . . .
93(5) . . .
99(5) . . .
83(5) . . .
79(5) . . .
88(5) . . .
90(5) . . .
75(4) . . .
81(5) . . .
82(5) . . .
80(5) . . .
82(5) . . .
82(5) . . .
84(5) . . .
89(5) . . .
90(5) . . .
97(5) . . .
92(5) . . .
99(6) . . .
95(5) . . .
80(5) . . .
93(5) . . .
96(5) . . .
97(5) . . .
85(5) . . .
102(6) . . .
88(5) . . .
82(5) . . .
88(5) . . .
102(6) . . .
82(5) . . .
82(5) . . .
91(5) . . .
90(5) . . .
86(5) . . .
87(5) . . .
96(5) . . .
78(5) . . .
78(5) . . .
85(5) . . .
81(5) . . .
81(5) . . .
93(5) . . .
81(5) . . .
84(5) . . .
101(6) . . .
78(5) . . .
90(5) . . .
73(5) . . .
93(5) . . .
102(5) . . .
87(5) . . .
94(5) . . .
99(5) . . .
89(5) . . .
90(5) . . .
81(5) . . .
97(5) . . .
96(5) . . .
93(5) . . .
88(5) . . .
81(5) . . .
96(5) . . .
95(5) . . .
78(5) . . .
85(5) . . .
81(5) . . .
94(5) . . .
95(5) . . .
80(5) . . .
88(5) . . .
84(5) . . .
92(5) . . .
80(5) . . .
84(5) . . .
95(5) . . .
86(5) . . .
86(5) . . .
76(5) . . .
95(5) . . .
104(5) . . .
92(5) . . .
92(5) . . .
82(5) . . .
92(5) . . .
104(5) . . .
86(5) . . .
92(5) . . .
85(5) . . .
86(5) . . .
88(5) . . .
81(5) . . .
91(5) . . .
100(6) . . .
96(5) . . .
90(5) . . .
93(5) . . .
78(5) . . .
84(5) . . .
83(5) . . .
82(5) . . .
91(5) . . .
93(5) . . .
94(5) . . .
90(5) . . .
83(5) . . .
88(5) . . .
80(5) . . .
87(5) . . .
96(5) . . .
93(5) . . .
92(5) . . .
100(6) . . .
91(5) . . .
85(5) . . .
100(5) . . .
89(5) . . .
94(5) . . .
92(5) . . .
87(5) . . .
84(5) . . .
84(5) . . .
91(6) . . .
76(5) . . .
91(5) . . .
91(5) . . .
100(5) . . .
78(5) . . .
73(5) . . .
97(5) . . .
84(5) . . .
78(5) . . .
91(5) . . .
76(5) . . .
91(5) . . .
85(5) . . .
83(5) . . .
86(5) . . .
95(5) . . .
84(5) . . .
82(5) . . .
92(5) . . .
88(5) . . .
97(5) . . .
86(5) . . .
77(5) . . .
91(5) . . .
86(5) . . .
86(5) . . .
86(5) . . .
77(5) . . .
79(5) . . .
93(5) . . .
92(5) . . .
100(5) . . .
83(5) . . .
78(5) . . .
83(5) . . .
76(5) . . .
86(5) . . .
79(5) . . .
82(5) . . .
87(5) . . .
76(5) . . .
73(4) . . .
85(5) . . .
85(5) . . .
75(5) . . .
86(5) . . .
81(5) . . .
79(5) . . .
83(5) . . .
89(5) . . .
89(5) . . .
89(5) . . .
74(5) . . .
79(5) . . .
84(5) . . .
82(5) . . .
83(5) . . .
81(5) . . .
86(5) . . .
80(5) . . .
82(5) . . .
90(5) . . .
87(5) . . .
85(5) . . .
83(5) . . .
93(5) . . .
94(5) . . .
83(5) . . .
85(5) . . .
95(5) . . .
87(5) . . .
100(5) . . .
94(5) . . .
77(5) . . .
99(5) . . .
80(5) . . .
84(5) . . .
84(5) . . .
87(5) . . .
93(5) . . .
79(5) . . .
81(5) . . .
80(5) . . .
80(5) . . .
87(5) . . .
86(5) . . .
77(5) . . .
78(5) . . .
83(5) . . .
95(5) . . .
87(5) . . .
80(5) . . .
85(5) . . .
87(5) . . .
91(5) . . .
90(5) . . .
76(5) . . .
79(5) . . .
91(5) . . .
79(5) . . .
88(5) . . .
84(5) . . .
91(5) . . .
78(5) . . .
86(5) . . .
92(5) . . .
96(5) . . .
84(5) . . .
86(5) . . .
94(5) . . .
90(5) . . .
83(5) . . .
73(5) . . .
75(5) . . .
70(4) . . .
88(5) . . .
100(6) . . .
77(5) . . .
76(5) . . .
83(5) . . .
88(5) . . .
88(5) . . .
73(4) . . .
81(5) . . .
88(5) . . .
77(5) . . .
80(5) . . .
81(5) . . .
82(5) . . .
82(5) . . .
86(5) . . .
89(5) . . .
96(5) . . .
74(5) . . .
81(5) . . .
88(5) . . .
78(5) . . .
97(5) . . .
86(5) . . .
94(5) . . .
91(5) . . .
88(5) . . .
77(5) . . .
89(5) . . .
95(5) . . .
82(5) . . .
89(5) . . .
71(5) . . .
77(5) . . .
66(4) . . .
91(5) . . .
79(5) . . .
82(5) . . .
89(5) . . .
92(5) . . .
86(5) . . .
87(5) . . .
82(5) . . .
76(5) . . .
77(5) . . .
88(5) . . .
80(5) . . .
74(5) . . .
87(5) . . .
78(5) . . .
86(5) . . .
85(5) . . .
84(5) . . .
92(5) . . .
89(5) . . .
83(5) . . .
82(5) . . .
94(5) . . .
90(5) . . .
82(5) . . .
87(5) . . .
78(5) . . .
90(5) . . .
87(5) . . .
88(5) . . .
93(5) . . .
83(5) . . .
86(5) . . .
87(5) . . .
91(5) . . .
73(5) . . .
76(5) . . .
79(5) . . .
81(5) . . .
81(5) . . .
85(5) . . .
96(5) . . .
86(5) . . .
84(5) . . .
82(5) . . .
79(5) . . .
83(5) . . .
84(5) . . .
90(5) . . .
86(5) . . .
95(5) . . .
83(5) . . .
86(5) . . .
74(4) . . .
82(5) . . .
72(5) . . .
80(5) . . .
79(5) . . .
86(5) . . .
78(5) . . .
81(5) . . .
84(5) . . .
92(5) . . .
74(5) . . .
91(5) . . .
76(5) . . .
86(5) . . .
87(5) . . .
84(5) . . .
82(5) . . .
90(5) . . .
86(5) . . .
90(5) . . .
74(4) . . .
89(5) . . .
87(5) . . .
82(5) . . .
94(5) . . .
81(5) . . .
82(5) . . .
91(5) . . .
81(5) . . .
76(5) . . .
98(5) . . .
97(5) . . .
83(5) . . .
82(5) . . .
78(5) . . .
84(5) . . .
81(5) . . .
93(5) . . .
96(5) . . .
91(5) . . .
93(5) . . .
85(5) . . .
90(5) . . .
87(5) . . .
81(5) . . .
84(5) . . .
95(5) . . .
81(5) . . .
81(5) . . .
87(5) . . .
85(5) . . .
79(5) . . .
76(5) . . .
88(5) . . .
88(5) . . .
93(5) . . .
86(5) . . .
78(5) . . .
71(4) . . .
90(5) . . .
88(5) . . .
86(5) . . .
99(6) . . .
94(5) . . .
79(5) . . .
77(5) . . .
81(5) . . .
85(5) . . .
86(5) . . .
90(5) . . .
87(5) . . .
77(5) . . .
72(4) . . .
87(5) . . .
77(4) . . .
90(5) . . .
104(6) . . .
89(5) . . .
78(5) . . .
88(5) . . .
76(5) . . .
75(5) . . .
72(5) . . .
91(5) . . .
88(5) . . .
88(5) . . .
72(5) . . .
72(5) . . .
83(5) . . .
72(4) . . .
78(5) . . .
71(5) . . .
75(5) . . .
91(5) . . .
82(5) . . .
73(5) . . .
79(5) . . .
83(5) . . .
73(5) . . .
81(5) . . .
83(5) . . .
86(5) . . .
92(5) . . .
67(4) . . .
73(4) . . .
93(6) . . .
61(4) . . .
60(4) . . .
67(4) . . .
90(5) . . .
73(5) . . .
79(5) . . .
79(5) . . .
81(5) . . .
91(5) . . .
95(6) . . .
78(5) . . .
67(4) . . .
82(5) . . .
83(5) . . .
85(5) . . .
87(5) . . .
84(5) . . .
88(5) . . .
79(5) . . .
87(5) . . .
78(5) . . .
84(5) . . .
83(5) . . .
80(5) . . .
89(5) . . .
79(5) . . .
68(4) . . .
83(5) . . .
82(5) . . .
89(5) . . .
71(4) . . .
86(5) . . .
69(4) . . .
71(5) . . .
92(5) . . .
79(5) . . .
83(5) . . .
83(5) . . .
72(5) . . .
83(5) . . .
84(5) . . .
76(4) . . .
73(4) . . .
86(5) . . .
86(5) . . .
77(5) . . .
78(5) . . .
89(5) . . .
76(5) . . .
82(5) . . .
76(5) . . .
70(4) . . .
95(5) . . .
92(5) . . .
91(5) . . .
81(5) . . .
75(5) . . .
73(5) . . .
82(5) . . .
76(5) . . .
87(5) . . .
82(5) . . .
88(5) . . .
83(5) . . .
86(5) . . .
96(5) . . .
88(5) . . .
87(5) . . .
80(5) . . .
83(5) . . .
88(5) . . .
82(5) . . .
87(5) . . .
79(5) . . .
91(5) . . .
75(4) . . .
77(5) . . .
85(5) . . .
92(5) . . .
78(5) . . .
90(5) . . .
86(5) . . .
81(5) . . .
74(5) . . .
78(5) . . .
84(5) . . .
81(5) . . .
96(6) . . .
87(5) . . .
79(5) . . .
67(4) . . .
86(5) . . .
79(5) . . .
80(5) . . .
80(5) . . .
68(4) . . .
79(5) . . .
78(5) . . .
76(5) . . .
84(5) . . .
68(4) . . .
89(5) . . .
78(5) . . .
77(5) . . .
79(5) . . .
85(5) . . .
80(5) . . .
75(5) . . .
89(5) . . .
86(5) . . .
76(5) . . .
83(5) . . .
91(5) . . .
72(4) . . .
79(5) . . .
75(5) . . .
87(5) . . .
95(6) . . .
92(5) . . .
89(5) . . .
77(5) . . .
77(5) . . .
73(5) . . .
85(5) . . .
85(5) . . .
86(5) . . .
79(5) . . .
81(5) . . .
83(5) . . .
83(5) . . .
88(5) . . .
82(5) . . .
84(5) . . .
88(5) . . .
90(5) . . .
85(5) . . .
87(5) . . .
78(5) . . .
70(4) . . .
71(4) . . .
76(5) . . .
67(4) . . .
66(4) . . .
80(5) . . .
80(5) . . .
85(5) . . .
89(5) . . .
79(5) . . .
76(5) . . .
85(5) . . .
78(5) . . .
92(6) . . .
84(5) . . .
88(5) . . .
85(5) . . .
83(5) . . .
76(5) . . .
80(5) . . .
74(4) . . .
76(5) . . .
74(5) . . .
73(5) . . .
79(5) . . .
85(5) . . .
77(5) . . .
84(5) . . .
69(4) . . .
69(4) . . .
76(5) . . .
82(5) . . .
64(4) . . .
81(5) . . .
80(5) . . .
83(5) . . .
82(5) . . .
89(5) . . .
75(5) . . .
74(4) . . .
75(4) . . .
79(5) . . .
80(5) . . .
75(5) . . .
86(5) . . .
92(5) . . .
75(5) . . .
76(5) . . .
82(5) . . .
78(5) . . .
86(5) . . .
91(5) . . .
72(5) . . .
80(5) . . .
90(5) . . .
74(4) . . .
78(5) . . .
72(5) . . .
93(5) . . .
77(5) . . .
83(5) . . .
86(5) . . .
89(5) . . .
67(4) . . .
69(4) . . .
79(5) . . .
79(5) . . .
92(6) . . .
85(5) . . .
74(5) . . .
81(5) . . .
86(5) . . .
86(5) . . .
85(5) . . .
90(5) . . .
97(5) . . .
79(5) . . .
87(5) . . .
81(5) . . .
77(5) . . .
78(5) . . .
94(5) . . .
90(5) . . .
80(5) . . .
82(5) . . .
98(5) . . .
76(5) . . .
79(5) . . .
82(5) . . .
82(5) . . .
78(5) . . .
70(4) . . .
75(5) . . .
79(5) . . .
84(5) . . .
79(5) . . .
85(5) . . .
83(5) . . .
89(5) . . .
88(5) . . .
90(5) . . .
92(5) . . .
85(5) . . .
71(5) . . .
64(4) . . .
75(5) . . .
84(5) . . .
80(5) . . .
84(5) . . .
76(5) . . .
79(5) . . .
83(5) . . .
79(5) . . .
84(5) . . .
84(5) . . .
78(5) . . .
78(5) . . .
75(5) . . .
75(4) . . .
89(5) . . .
83(5) . . .
74(5) . . .
83(5) . . .
70(4) . . .
79(5) . . .
79(5) . . .
91(5) . . .
71(4) . . .
68(4) . . .
70(4) . . .
84(5) . . .
72(5) . . .
87(5) . . .
93(5) . . .
70(4) . . .
72(5) . . .
86(5) . . .
77(5) . . .
85(5) . . .
76(5) . . .
83(5) . . .
86(5) . . .
85(5) . . .
78(5) . . .
87(5) . . .
90(5) . . .
77(5) . . .
66(4) . . .
85(5) . . .
80(5) . . .
92(5) . . .
82(5) . . .
74(4) . . .
78(5) . . .
83(5) . . .
80(5) . . .
82(5) . . .
84(5) . . .
83(5) . . .
67(4) . . .
61(4) . . .
74(5) . . .
84(5) . . .
76(5) . . .
79(5) . . .
83(5) . . .
85(5) . . .
77(5) . . .
72(4) . . .
72(5) . . .
90(6) . . .
73(5) . . .
93(5) . . .
78(5) . . .
85(5) . . .
83(5) . . .
79(5) . . .
76(5) . . .
80(5) . . .
89(5) . . .
78(5) . . .
85(5) . . .
66(4) . . .
80(5) . . .
88(5) . . .
73(5) . . .
79(5) . . .
83(5) . . .
79(5) . . .
72(5) . . .
83(5) . . .
81(5) . . .
82(5) . . .
95(5) . . .
71(4) . . .
76(5) . . .
85(5) . . .
81(5) . . .
89(5) . . .
82(5) . . .
78(5) . . .
78(5) . . .
77(5) . . .
67(4) . . .
86(5) . . .
79(5) . . .
78(5) . . .
91(5) . . .
96(5) . . .
83(5) . . .
74(5) . . .
76(5) . . .
94(5) . . .
76(5) . . .
77(5) . . .
87(5) . . .
69(4) . . .
83(5) . . .
82(5) . . .
75(5) . . .
71(4) . . .
76(5) . . .
83(5) . . .
79(5) . . .
79(5) . . .
75(5) . . .
67(4) . . .
88(5) . . .
97(5) . . .
82(5) . . .
91(5) . . .
77(5) . . .
80(5) . . .
71(5) . . .
73(5) . . .
68(4) . . .
92(5) . . .
73(5) . . .
78(5) . . .
82(5) . . .
81(5) . . .
81(5) . . .
76(5) . . .
83(5) . . .
72(4) . . .
79(5) . . .
84(5) . . .
80(5) . . .
85(5) . . .
77(5) . . .
83(5) . . .
84(5) . . .
80(5) . . .
76(5) . . .
94(5) . . .
86(5) . . .
80(5) . . .
70(4) . . .
69(4) . . .
74(5) . . .
75(5) . . .
83(5) . . .
79(5) . . .
89(5) . . .
73(5) . . .
84(5) . . .
74(4) . . .
82(5) . . .
86(5) . . .
68(4) . . .
84(5) . . .
76(4) . . .
77(5) . . .
87(5) . . .
85(5) . . .
79(5) . . .
73(4) . . .
74(4) . . .
77(5) . . .
86(5) . . .
80(5) . . .
66(4) . . .
79(5) . . .
71(5) . . .
68(5) . . .
88(5) . . .
82(5) . . .
80(5) . . .
84(5) . . .
79(5) . . .
84(5) . . .
95(5) . . .
91(5) . . .
76(5) . . .
82(5) . . .
73(4) . . .
85(5) . . .
80(5) . . .
76(5) . . .
82(5) . . .
79(5) . . .
72(5) . . .
82(5) . . .
79(5) . . .
84(5) . . .
91(5) . . .
85(5) . . .
92(5) . . .
80(5) . . .
75(5) . . .
69(4) . . .
75(5) . . .
87(5) . . .
63(4) . . .
87(5) . . .
81(5) . . .
87(5) . . .
80(5) . . .
68(4) . . .
75(5) . . .
64(4) . . .
67(4) . . .
80(5) . . .
85(5) . . .
75(5) . . .
83(5) . . .
72(4) . . .
83(5) . . .
88(5) . . .
86(5) . . .
72(4) . . .
79(5) . . .
90(5) . . .
70(4) . . .
85(5) . . .
76(5) . . .
82(5) . . .
76(5) . . .
78(5) . . .
76(5) . . .
66(4) . . .
82(5) . . .
89(5) . . .
91(5) . . .
94(5) . . .
82(5) . . .
76(5) . . .
89(5) . . .
78(5) . . .
68(4) . . .
72(5) . . .
79(5) . . .
72(5) . . .
75(5) . . .
93(5) . . .
93(5) . . .
71(4) . . .
74(5) . . .
79(5) . . .
80(5) . . .
71(5) . . .
86(5) . . .
85(5) . . .
77(5) . . .
87(5) . . .
84(5) . . .
97(5) . . .
81(5) . . .
83(5) . . .
92(5) . . .
77(5) . . .
72(5) . . .
77(5) . . .
71(4) . . .
85(5) . . .
74(4) . . .
74(5) . . .
69(4) . . .
71(4) . . .
84(5) . . .
85(5) . . .
65(4) . . .
83(5) . . .
87(5) . . .
71(4) . . .
73(5) . . .
87(5) . . .
93(5) . . .
84(5) . . .
78(5) . . .
93(5) . . .
74(4) . . .
75(5) . . .
84(5) . . .
84(5) . . .
83(5) . . .
86(5) . . .
79(5) . . .
80(5) . . .
78(5) . . .
79(5) . . .
68(4) . . .
80(5) . . .
75(4) . . .
77(5) . . .
84(5) . . .
81(5) . . .
82(5) . . .
70(4) . . .
89(5) . . .
80(5) . . .
83(5) . . .
75(5) . . .
77(5) . . .
75(5) . . .
59(4) . . .
72(5) . . .
78(5) . . .
83(5) . . .
85(5) . . .
79(5) . . .
92(5) . . .
92(5) . . .
82(5) . . .
72(4) . . .
84(5) . . .
88(5) . . .
77(5) . . .
77(5) . . .
90(5) . . .
80(5) . . .
81(5) . . .
73(4) . . .
84(5) . . .
73(5) . . .
60(4) . . .
75(5) . . .
87(5) . . .
76(5) . . .
81(5) . . .
82(5) . . .
76(5) . . .
77(5) . . .
79(5) . . .
84(5) . . .
80(5) . . .
73(4) . . .
78(5) . . .
84(5) . . .
75(5) . . .
80(5) . . .
81(5) . . .
73(4) . . .
84(5) . . .
71(4) . . .
69(4) . . .
79(5) . . .
79(5) . . .
68(4) . . .
65(4) . . .
78(5) . . .
81(5) . . .
74(5) . . .
93(5) . . .
79(5) . . .
79(5) . . .
88(5) . . .
74(4) . . .
86(5) . . .
87(5) . . .
84(5) . . .
91(5) . . .
81(5) . . .
81(5) . . .
72(5) . . .
72(5) . . .
98(5) . . .
86(5) . . .
69(4) . . .
68(4) . . .
77(5) . . .
86(5) . . .
82(5) . . .
74(5) . . .
68(4) . . .
90(5) . . .
70(4) . . .
84(5) . . .
80(5) . . .
83(5) . . .
78(5) . . .
84(5) . . .
83(5) . . .
79(5) . . .
91(5) . . .
89(5) . . .
79(5) . . .
85(5) . . .
83(5) . . .
77(5) . . .
87(5) . . .
82(5) . . .
74(5) . . .
77(5) . . .
86(5) . . .
78(5) . . .
63(4) . . .
70(4) . . .
73(5) . . .
78(5) . . .
66(4) . . .
73(4) . . .
86(5) . . .
78(5) . . .
81(5) . . .
64(4) . . .
75(5) . . .
70(4) . . .
78(5) . . .
78(5) . . .
70(4) . . .
77(5) . . .
71(5) . . .
60(4) . . .
81(5) . . .
77(5) . . .
82(5) . . .
79(5) . . .
85(5) . . .
84(5) . . .
59(4) . . .
78(5) . . .
76(5) . . .
82(5) . . .
77(5) . . .
89(5) . . .
76(4) . . .
65(4) . . .
70(5) . . .
85(5) . . .
81(5) . . .
77(5) . . .
92(5) . . .
66(4) . . .
68(4) . . .
80(5) . . .
79(5) . . .
74(5) . . .
84(5) . . .
75(5) . . .
75(4) . . .
67(4) . . .
73(5) . . .
69(5) . . .
77(5) . . .
74(4) . . .
75(5) . . .
72(5) . . .
82(5) . . .
87(5) . . .
85(5) . . .
82(5) . . .
92(5) . . .
77(5) . . .
77(5) . . .
76(4) . . .
84(5) . . .
74(5) . . .
77(5) . . .
82(5) . . .
92(5) . . .
81(5) . . .
80(5) . . .
67(4) . . .
82(5) . . .
72(4) . . .
69(4) . . .
71(5) . . .
72(5) . . .
86(5) . . .
82(5) . . .
70(5) . . .
82(5) . . .
72(5) . . .
67(4) . . .
90(5) . . .
85(5) . . .
90(5) . . .
69(4) . . .
77(5) . . .
68(4) . . .
79(5) . . .
68(4) . . .
78(5) . . .
73(4) . . .
71(4) . . .
69(4) . . .
67(4) . . .
77(5) . . .
72(4) . . .
75(5) . . .
73(5) . . .
72(4) . . .
80(5) . . .
78(5) . . .
62(4) . . .
71(5) . . .
73(5) . . .
75(5) . . .
90(5) . . .
76(5) . . .
81(5) . . .
72(5) . . .
66(4) . . .
66(4) . . .
68(4) . . .
72(5) . . .
78(5) . . .
65(4) . . .
76(4) . . .
81(5) . . .
89(5) . . .
77(5) . . .
78(5) . . .
72(4) . . .
84(5) . . .
90(5) . . .
76(5) . . .
81(5) . . .
63(4) . . .
74(5) . . .
78(5) . . .
78(5) . . .
68(4) . . .
77(5) . . .
83(5) . . .
74(5) . . .
73(5) . . .
75(5) . . .
70(4) . . .
77(5) . . .
77(5) . . .
80(5) . . .
71(4) . . .
68(4) . . .
83(5) . . .
65(4) . . .
81(5) . . .
64(4) . . .
81(5) . . .
73(5) . . .
84(5) . . .
62(4) . . .
67(4) . . .
69(4) . . .
62(4) . . .
75(5) . . .
77(5) . . .
75(4) . . .
75(5) . . .
81(5) . . .
67(4) . . .
73(4) . . .
75(5) . . .
77(5) . . .
75(5) . . .
75(5) . . .
78(5) . . .
79(5) . . .
68(4) . . .
82(5) . . .
66(4) . . .
75(5) . . .
80(5) . . .
77(5) . . .
74(5) . . .
84(5) . . .
76(5) . . .
71(5) . . .
78(5) . . .
67(4) . . .
69(4) . . .
81(5) . . .
86(5) . . .
83(5) . . .
71(4) . . .
82(5) . . .
88(5) . . .
80(5) . . .
74(5) . . .
67(4) . . .
68(4) . . .
73(4) . . .
72(5) . . .
73(5) . . .
81(5) . . .
78(5) . . .
77(5) . . .
70(4) . . .
80(5) . . .
72(4) . . .
83(5) . . .
80(5) . . .
73(5) . . .
62(4) . . .
70(5) . . .
81(5) . . .
78(5) . . .
78(5) . . .
73(5) . . .
69(4) . . .
82(5) . . .
81(5) . . .
91(5) . . .
89(5) . . .
79(5) . . .
75(4) . . .
71(4) . . .
80(5) . . .
81(5) . . .
83(5) . . .
69(4) . . .
74(5) . . .
87(5) . . .
88(5) . . .
81(5) . . .
80(5) . . .
72(4) . . .
73(4) . . .
74(5) . . .
75(5) . . .
67(4) . . .
73(4) . . .
69(5) . . .
74(5) . . .
73(5) . . .
59(4) . . .
78(5) . . .
81(5) . . .
78(5) . . .
67(4) . . .
65(4) . . .
82(5) . . .
71(4) . . .
76(5) . . .
69(4) . . .
82(5) . . .
75(5) . . .
75(5) . . .
71(5) . . .
84(5) . . .
75(4) . . .
76(5) . . .
81(5) . . .
80(5) . . .
76(5) . . .
80(5) . . .
72(5) . . .
77(5) . . .
78(5) . . .
90(5) . . .
77(5) . . .
85(5) . . .
81(5) . . .
72(4) . . .
79(5) . . .
81(5) . . .
80(5) . . .
76(5) . . .
75(5) . . .
66(4) . . .
72(4) . . .
69(4) . . .
82(5) . . .
83(5) . . .
83(5) . . .
77(5) . . .
91(5) . . .
100(6) . . .
75(5) . . .
76(5) . . .
75(5) . . .
76(5) . . .
77(5) . . .
82(5) . . .
75(5) . . .
79(5) . . .
69(4) . . .
70(5) . . .
75(5) . . .
80(5) . . .
82(5) . . .
81(5) . . .
91(5) . . .
85(5) . . .
78(5) . . .
84(5) . . .
81(5) . . .
75(5) . . .
80(5) . . .
71(4) . . .
69(5) . . .
74(5) . . .
84(5) . . .
84(5) . . .
77(5) . . .
74(5) . . .
79(5) . . .
76(5) . . .
88(5) . . .
73(4) . . .
71(5) . . .
92(5) . . .
79(5) . . .
69(4) . . .
72(4) . . .
72(5) . . .
72(5) . . .
81(5) . . .
85(5) . . .
87(5) . . .
87(5) . . .
86(5) . . .
69(4) . . .
70(4) . . .
88(5) . . .
86(5) . . .
76(5) . . .
71(5) . . .
78(5) . . .
76(5) . . .
76(5) . . .
72(5) . . .
79(5) . . .
79(5) . . .
79(5) . . .
84(5) . . .
88(5) . . .
77(5) . . .
83(5) . . .
87(5) . . .
64(4) . . .
61(4) . . .
64(4) . . .
68(4) . . .
76(5) . . .
73(5) . . .
80(5) . . .
80(5) . . .
65(4) . . .
67(4) . . .
75(5) . . .
75(5) . . .
81(5) . . .
72(4) . . .
79(5) . . .
71(4) . . .
71(5) . . .
67(4) . . .
86(5) . . .
77(5) . . .
77(5) . . .
70(5) . . .
77(5) . . .
74(4) . . .
75(5) . . .
81(5) . . .
74(5) . . .
86(5) . . .
88(5) . . .
65(4) . . .
71(5) . . .
76(5) . . .
74(5) . . .
80(5) . . .
84(5) . . .
70(4) . . .
71(4) . . .
82(5) . . .
69(4) . . .
65(4) . . .
74(5) . . .
84(5) . . .
73(5) . . .
81(5) . . .
83(5) . . .
84(5) . . .
77(5) . . .
88(5) . . .
87(5) . . .
83(5) . . .
71(4) . . .
72(4) . . .
76(5) . . .
85(5) . . .
77(5) . . .
82(5) . . .
71(5) . . .
81(5) . . .
72(5) . . .
81(5) . . .
86(5) . . .
80(5) . . .
82(5) . . .
63(4) . . .
75(5) . . .
63(4) . . .
70(4) . . .
73(4) . . .
76(5) . . .
71(5) . . .
91(5) . . .
72(4) . . .
72(4) . . .
67(5) . . .
79(5) . . .
76(5) . . .
90(5) . . .
88(5) . . .
77(5) . . .
67(4) . . .
75(5) . . .
83(5) . . .
80(5) . . .
77(5) . . .
90(5) . . .
80(5) . . .
82(5) . . .
80(5) . . .
64(4) . . .
63(4) . . .
75(5) . . .
88(5) . . .
79(5) . . .
76(5) . . .
77(5) . . .
76(5) . . .
70(4) . . .
76(5) . . .
79(5) . . .
73(5) . . .
65(4) . . .
84(5) . . .
66(4) . . .
69(4) . . .
80(5) . . .
77(5) . . .
81(5) . . .
82(5) . . .
67(4) . . .
81(5) . . .
74(4) . . .
72(4) . . .
79(5) . . .
83(5) . . .
69(4) . . .
66(4) . . .
82(5) . . .
70(5) . . .
71(5) . . .
69(4) . . .
74(5) . . .
89(5) . . .
83(5) . . .
78(5) . . .
73(5) . . .
82(5) . . .
84(5) . . .
73(5) . . .
71(5) . . .
73(4) . . .
81(5) . . .
74(4) . . .
76(5) . . .
78(5) . . .
68(4) . . .
77(5) . . .
77(5) . . .
76(5) . . .
87(5) . . .
74(5) . . .
75(4) . . .
73(4) . . .
81(5) . . .
66(4) . . .
78(5) . . .
65(4) . . .
73(5) . . .
75(5) . . .
65(4) . . .
79(5) . . .
75(4) . . .
70(4) . . .
80(5) . . .
78(5) . . .
84(5) . . .
79(5) . . .
88(5) . . .
71(4) . . .
75(5) . . .
68(4) . . .
76(5) . . .
74(5) . . .
70(5) . . .
77(5) . . .
80(5) . . .
78(5) . . .
76(5) . . .
80(5) . . .
83(5) . . .
79(5) . . .
86(5) . . .
79(5) . . .
74(5) . . .
73(4) . . .
79(5) . . .
75(4) . . .
81(5) . . .
91(5) . . .
77(5) . . .
83(5) . . .
73(4) . . .
79(5) . . .
84(5) . . .
82(5) . . .
56(4) . . .
67(4) . . .
84(5) . . .
67(4) . . .
77(5) . . .
69(4) . . .
70(4) . . .
79(5) . . .
75(5) . . .
82(5) . . .
69(4) . . .
82(5) . . .
92(5) . . .
73(5) . . .
67(4) . . .
63(4) . . .
76(5) . . .
73(5) . . .
78(5) . . .
71(4) . . .
75(5) . . .
74(5) . . .
75(5) . . .
71(5) . . .
66(4) . . .
70(4) . . .
79(5) . . .
83(5) . . .
74(5) . . .
68(4) . . .
81(5) . . .
84(5) . . .
68(4) . . .
72(4) . . .
76(5) . . .
70(4) . . .
70(5) . . .
73(5) . . .
71(5) . . .
73(5) . . .
71(4) . . .
73(5) . . .
75(5) . . .
77(5) . . .
70(4) . . .
74(4) . . .
70(5) . . .
68(5) . . .
71(5) . . .
67(4) . . .
72(4) . . .
79(5) . . .
80(5) . . .
71(5) . . .
76(5) . . .
80(5) . . .
74(5) . . .
81(5) . . .
82(5) . . .
78(5) . . .
70(4) . . .
78(5) . . .
67(4) . . .
71(5) . . .
78(5) . . .
84(5) . . .
78(5) . . .
78(5) . . .
81(5) . . .
77(5) . . .
83(5) . . .
71(5) . . .
80(5) . . .
85(5) . . .
77(5) . . .
67(4) . . .
70(4) . . .
78(5) . . .
74(4) . . .
77(5) . . .
82(5) . . .
75(5) . . .
67(4) . . .
64(4) . . .
73(4) . . .
68(5) . . .
57(4) . . .
68(4) . . .
81(5) . . .
74(4) . . .
76(5) . . .
75(5) . . .
75(5) . . .
76(5) . . .
77(5) . . .
85(5) . . .
79(5) . . .
74(5) . . .
70(4) . . .
74(4) . . .
88(5) . . .
85(5) . . .
93(5) . . .
73(4) . . .
83(5) . . .
77(5) . . .
89(5) . . .
80(5) . . .
85(5) . . .
81(5) . . .
79(5) . . .
76(5) . . .
83(5) . . .
66(4) . . .
84(5) . . .
79(5) . . .
88(5) . . .
81(5) . . .
80(5) . . .
70(4) . . .
75(5) . . .
79(5) . . .
83(5) . . .
81(5) . . .
88(5) . . .
72(5) . . .
75(5) . . .
81(5) . . .
87(5) . . .
82(5) . . .
62(4) . . .
79(5) . . .
69(4) . . .
74(4) . . .
75(5) . . .
73(5) . . .
80(5) . . .
84(5) . . .
67(4) . . .
75(5) . . .
72(5) . . .
64(4) . . .
67(4) . . .
64(4) . . .
71(5) . . .
63(4) . . .
82(5) . . .
73(4) . . .
84(5) . . .
68(4) . . .
82(5) . . .
85(5) . . .
75(4) . . .
75(5) . . .
68(4) . . .
66(5) . . .
73(5) . . .
69(4) . . .
77(5) . . .
88(5) . . .
65(4) . . .
78(5) . . .
79(5) . . .
78(5) . . .
67(4) . . .
68(4) . . .
80(5) . . .
78(5) . . .
84(5) . . .
73(5) . . .
80(5) . . .
63(4) . . .
58(4) . . .
71(5) . . .
65(4) . . .
68(4) . . .
69(5) . . .
62(4) . . .
74(5) . . .
87(5) . . .
89(5) . . .
90(5) . . .
82(5) . . .
68(5) . . .
74(5) . . .
71(5) . . .
80(5) . . .
69(4) . . .
69(5) . . .
66(4) . . .
71(5) . . .
60(4) . . .
82(5) . . .
70(4) . . .
73(5) . . .
79(5) . . .
76(5) . . .
60(4) . . .
78(5) . . .
89(5) . . .
65(4) . . .
69(4) . . .
72(4) . . .
81(5) . . .
77(5) . . .
64(4) . . .
74(4) . . .
73(4) . . .
82(5) . . .
79(5) . . .
88(5) . . .
90(5) . . .
67(4) . . .
81(5) . . .
77(5) . . .
77(5) . . .
73(4) . . .
69(4) . . .
77(5) . . .
70(4) . . .
65(4) . . .
78(5) . . .
77(5) . . .
71(4) . . .
71(4) . . .
86(5) . . .
79(5) . . .
70(5) . . .
70(5) . . .
63(4) . . .
73(4) . . .
87(5) . . .
78(5) . . .
72(5) . . .
79(5) . . .
71(4) . . .
85(5) . . .
82(5) . . .
79(5) . . .
70(5) . . .
69(4) . . .
75(5) . . .
71(5) . . .
81(5) . . .
65(4) . . .
81(5) . . .
78(5) . . .
90(5) . . .
91(5) . . .
70(4) . . .
68(4) . . .
75(4) . . .
75(5) . . .
82(5) . . .
75(5) . . .
79(5) . . .
80(5) . . .
65(4) . . .
78(5) . . .
74(5) . . .
65(4) . . .
82(5) . . .
84(5) . . .
73(5) . . .
86(5) . . .
75(5) . . .
81(5) . . .
61(4) . . .
83(5) . . .
75(4) . . .
77(5) . . .
79(5) . . .
79(5) . . .
75(5) . . .
70(4) . . .
68(4) . . .
73(5) . . .
73(5) . . .
76(5) . . .
65(4) . . .
81(5) . . .
76(5) . . .
69(5) . . .
71(4) . . .
74(5) . . .
71(4) . . .
59(4) . . .
74(5) . . .
73(5) . . .
92(5) . . .
77(5) . . .
67(5) . . .
73(5) . . .
66(4) . . .
81(5) . . .
68(4) . . .
81(5) . . .
80(5) . . .
72(4) . . .
75(5) . . .
72(4) . . .
63(4) . . .
73(5) . . .
72(5) . . .
70(4) . . .
71(5) . . .
63(4) . . .
60(4) . . .
69(4) . . .
64(4) . . .
79(5) . . .
74(5) . . .
75(5) . . .
77(5) . . .
69(4) . . .
65(4) . . .
63(4) . . .
71(5) . . .
82(5) . . .
80(5) . . .
74(4) . . .
75(5) . . .
87(5) . . .
80(5) . . .
66(4) . . .
86(5) . . .
67(4) . . .
70(5) . . .
71(4) . . .
72(4) . . .
69(4) . . .
68(5) . . .
78(5) . . .
81(5) . . .
68(4) . . .
52(4) . . .
71(5) . . .
77(5) . . .
77(5) . . .
78(5) . . .
82(5) . . .
85(5) . . .
77(5) . . .
80(5) . . .
73(4) . . .
71(4) . . .
79(5) . . .
75(5) . . .
74(4) . . .
71(4) . . .
80(5) . . .
82(5) . . .
82(5) . . .
85(5) . . .
72(4) . . .
65(4) . . .
66(4) . . .
68(4) . . .
81(5) . . .
60(4) . . .
77(5) . . .
78(5) . . .
68(4) . . .
80(5) . . .
73(4) . . .
88(5) . . .
76(5) . . .
74(5) . . .
78(5) . . .
74(5) . . .
76(5) . . .
81(5) . . .
72(5) . . .
71(4) . . .
75(5) . . .
61(4) . . .
75(5) . . .
66(4) . . .
63(4) . . .
73(5) . . .
70(5) . . .
68(5) . . .
68(4) . . .
73(4) . . .
74(5) . . .
76(5) . . .
81(5) . . .
84(5) . . .
65(4) . . .
77(5) . . .
77(5) . . .
71(5) . . .
75(5) . . .
77(5) . . .
66(4) . . .
72(5) . . .
81(5) . . .
86(5) . . .
72(4) . . .
69(5) . . .
74(5) . . .
71(5) . . .
73(5) . . .
67(4) . . .
80(5) . . .
68(5) . . .
70(5) . . .
84(5) . . .
89(5) . . .
73(4) . . .
80(5) . . .
76(5) . . .
74(4) . . .
74(5) . . .
71(4) . . .
74(5) . . .
73(4) . . .
79(5) . . .
87(5) . . .
77(5) . . .
71(4) . . .
73(5) . . .
79(5) . . .
74(5) . . .
70(4) . . .
72(4) . . .
74(5) . . .
69(4) . . .
65(4) . . .
74(5) . . .
63(4) . . .
74(4) . . .
78(5) . . .
74(5) . . .
71(5) . . .
76(5) . . .
72(4) . . .
72(4) . . .
76(5) . . .
70(4) . . .
73(5) . . .
70(4) . . .
71(4) . . .
67(4) . . .
66(4) . . .
74(5) . . .
91(5) . . .
72(4) . . .
69(4) . . .
80(5) . . .
69(4) . . .
78(5) . . .
71(4) . . .
94(5) . . .
84(5) . . .
69(5) . . .
57(4) . . .
75(5) . . .
71(4) . . .
68(4) . . .
65(4) . . .
79(5) . . .
72(4) . . .
78(5) . . .
75(5) . . .
77(5) . . .
85(5) . . .
67(4) . . .
73(4) . . .
68(4) . . .
71(4) . . .
59(4) . . .
74(4) . . .
83(5) . . .
63(4) . . .
74(5) . . .
76(5) . . .
61(4) . . .
81(5) . . .
80(5) . . .
67(4) . . .
68(4) . . .
67(4) . . .
62(4) . . .
68(4) . . .
78(5) . . .
78(5) . . .
79(5) . . .
76(5) . . .
81(5) . . .
91(5) . . .
67(4) . . .
79(5) . . .
72(4) . . .
66(4) . . .
76(5) . . .
74(5) . . .
80(5) . . .
64(4) . . .
65(4) . . .
69(4) . . .
70(4) . . .
79(5) . . .
71(5) . . .
76(5) . . .
75(4) . . .
76(4) . . .
78(5) . . .
82(5) . . .
82(5) . . .
87(5) . . .
82(5) . . .
74(5) . . .
88(5) . . .
72(4) . . .
74(4) . . .
64(4) . . .
75(5) . . .
71(5) . . .
65(4) . . .
66(4) . . .
65(4) . . .
64(4) . . .
77(5) . . .
74(5) . . .
76(5) . . .
78(5) . . .
78(5) . . .
72(4) . . .
86(5) . . .
75(4) . . .
64(4) . . .
83(5) . . .
76(5) . . .
74(4) . . .
73(4) . . .
77(5) . . .
77(5) . . .
71(5) . . .
71(5) . . .
56(4) . . .
69(4) . . .
68(5) . . .
59(4) . . .
84(5) . . .
69(4) . . .
81(5) . . .
69(5) . . .
64(4) . . .
82(5) . . .
62(4) . . .
68(4) . . .
68(5) . . .
73(5) . . .
80(5) . . .
86(5) . . .
89(5) . . .
81(5) . . .
76(5) . . .
76(5) . . .
75(5) . . .
69(4) . . .
72(5) . . .
63(4) . . .
65(4) . . .
65(4) . . .
64(4) . . .
72(5) . . .
67(4) . . .
69(4) . . .
77(5) . . .
60(4) . . .
77(5) . . .
77(5) . . .
71(4) . . .
73(4) . . .
79(5) . . .
68(4) . . .
68(4) . . .
68(4) . . .
81(5) . . .
69(4) . . .
68(5) . . .
69(4) . . .
74(4) . . .
80(5) . . .
70(4) . . .
67(4) . . .
76(5) . . .
61(4) . . .
71(5) . . .
77(5) . . .
64(4) . . .
75(4) . . .
73(4) . . .
69(4) . . .
69(5) . . .
70(4) . . .
78(5) . . .
78(5) . . .
70(4) . . .
71(5) . . .
71(5) . . .
72(4) . . .
68(4) . . .
62(4) . . .
69(5) . . .
78(5) . . .
76(5) . . .
81(5) . . .
75(5) . . .
80(5) . . .
73(5) . . .
90(5) . . .
82(5) . . .
69(4) . . .
77(5) . . .
62(4) . . .
75(5) . . .
71(4) . . .
82(5) . . .
80(5) . . .
69(4) . . .
63(4) . . .
80(5) . . .
89(5) . . .
90(5) . . .
73(5) . . .
72(4) . . .
84(5) . . .
71(5) . . .
75(5) . . .
76(5) . . .
66(4) . . .
59(4) . . .
65(4) . . .
80(5) . . .
70(4) . . .
69(4) . . .
74(4) . . .
85(5) . . .
86(5) . . .
75(4) . . .
71(4) . . .
63(4) . . .
70(5) . . .
73(5) . . .
80(5) . . .
74(4) . . .
75(5) . . .
75(5) . . .
69(4) . . .
82(5) . . .
68(4) . . .
68(4) . . .
87(5) . . .
63(4) . . .
78(5) . . .
80(5) . . .
70(4) . . .
82(5) . . .
65(4) . . .
74(4) . . .
75(5) . . .
66(4) . . .
69(5) . . .
80(5) . . .
64(4) . . .
72(5) . . .
81(5) . . .
75(5) . . .
69(5) . . .
74(5) . . .
77(5) . . .
81(5) . . .
82(5) . . .
78(5) . . .
71(4) . . .
67(4) . . .
87(5) . . .
67(4) . . .
71(5) . . .
79(5) . . .
83(5) . . .
85(5) . . .
77(5) . . .
74(5) . . .
74(5) . . .
69(4) . . .
81(5) . . .
71(4) . . .
78(5) . . .
70(4) . . .
76(5) . . .
67(4) . . .
68(5) . . .
76(5) . . .
83(5) . . .
62(4) . . .
63(4) . . .
74(5) . . .
69(4) . . .
78(5) . . .
73(5) . . .
68(5) . . .
69(4) . . .
85(5) . . .
77(5) . . .
76(5) . . .
62(4) . . .
79(5) . . .
81(5) . . .
73(4) . . .
76(5) . . .
67(5) . . .
72(5) . . .
65(4) . . .
65(4) . . .
68(4) . . .
82(5) . . .
73(5) . . .
73(4) . . .
76(5) . . .
73(5) . . .
77(5) . . .
63(4) . . .
81(5) . . .
69(4) . . .
63(4) . . .
70(5) . . .
69(4) . . .
79(5) . . .
76(5) . . .
80(5) . . .
79(5) . . .
68(4) . . .
64(4) . . .
73(5) . . .
77(5) . . .
72(5) . . .
65(4) . . .
70(4) . . .
77(5) . . .
65(4) . . .
65(5) . . .
68(4) . . .
71(4) . . .
73(5) . . .
75(5) . . .
79(5) . . .
87(5) . . .
75(4) . . .
68(4) . . .
66(5) . . .
69(4) . . .
73(4) . . .
77(5) . . .
73(5) . . .
74(5) . . .
73(5) . . .
85(5) . . .
70(4) . . .
83(5) . . .
70(5) . . .
69(4) . . .
65(4) . . .
57(4) . . .
73(5) . . .
59(4) . . .
69(5) . . .
77(5) . . .
77(5) . . .
67(5) . . .
66(4) . . .
81(5) . . .
69(4) . . .
78(5) . . .
77(5) . . .
72(4) . . .
70(4) . . .
68(4) . . .
77(5) . . .
71(5) . . .
82(5) . . .
88(5) . . .
69(4) . . .
66(4) . . .
86(5) . . .
78(5) . . .
70(4) . . .
67(4) . . .
76(5) . . .
72(5) . . .
67(4) . . .
73(4) . . .
64(4) . . .
63(4) . . .
66(5) . . .
76(5) . . .
68(4) . . .
72(4) . . .
66(4) . . .
73(5) . . .
59(4) . . .
69(4) . . .
77(5) . . .
76(5) . . .
70(5) . . .
67(4) . . .
65(4) . . .
76(5) . . .
75(5) . . .
79(5) . . .
75(5) . . .
76(5) . . .
66(4) . . .
75(5) . . .
73(5) . . .
71(5) . . .
84(5) . . .
83(5) . . .
68(4) . . .
74(5) . . .
72(5) . . .
66(4) . . .
77(5) . . .
71(4) . . .
77(5) . . .
72(4) . . .
76(5) . . .
70(5) . . .
70(5) . . .
74(5) . . .
79(5) . . .
74(5) . . .
81(5) . . .
82(5) . . .
80(5) . . .
72(5) . . .
78(5) . . .
66(4) . . .
61(4) . . .
78(5) . . .
66(4) . . .
74(5) . . .
82(5) . . .
73(5) . . .
78(5) . . .
75(5) . . .
65(4) . . .
74(5) . . .
72(5) . . .
71(4) . . .
66(4) . . .
67(4) . . .
69(4) . . .
67(4) . . .
74(5) . . .
74(4) . . .
82(5) . . .
56(4) . . .
71(5) . . .
62(4) . . .
58(4) . . .
64(4) . . .
61(4) . . .
70(5) . . .
71(5) . . .
78(5) . . .
73(5) . . .
72(5) . . .
71(5) . . .
75(5) . . .
68(4) . . .
80(5) . . .
74(5) . . .
74(5) . . .
71(4) . . .
68(4) . . .
82(5) . . .
74(5) . . .
65(4) . . .
80(5) . . .
73(4) . . .
73(5) . . .
75(5) . . .
74(5) . . .
68(4) . . .
71(4) . . .
68(5) . . .
78(5) . . .
75(5) . . .
71(4) . . .
86(5) . . .
66(4) . . .
73(5) . . .
76(5) . . .
74(4) . . .
80(5) . . .
69(5) . . .
59(4) . . .
71(5) . . .
74(4) . . .
65(4) . . .
81(5) . . .
68(5) . . .
74(5) . . .
75(5) . . .
64(4) . . .
77(5) . . .
77(5) . . .
73(5) . . .
64(4) . . .
80(5) . . .
75(5) . . .
73(5) . . .
73(4) . . .
64(4) . . .
65(4) . . .
72(4) . . .
70(5) . . .
74(5) . . .
79(5) . . .
68(4) . . .
64(4) . . .
76(5) . . .
72(4) . . .
69(4) . . .
70(4) . . .
69(5) . . .
61(4) . . .
74(4) . . .
72(4) . . .
81(5) . . .
77(5) . . .
76(5) . . .
70(4) . . .
67(4) . . .
73(5) . . .
81(5) . . .
69(4) . . .
73(4) . . .
81(5) . . .
70(5) . . .
77(5) . . .
79(5) . . .
80(5) . . .
75(4) . . .
82(5) . . .
78(5) . . .
85(5) . . .
78(5) . . .
76(5) . . .
62(4) . . .
66(4) . . .
75(5) . . .
75(4) . . .
71(4) . . .
75(5) . . .
79(5) . . .
79(5) . . .
70(4) . . .
66(4) . . .
82(5) . . .
87(5) . . .
74(5) . . .
80(5) . . .
76(5) . . .
75(5) . . .
74(5) . . .
65(4) . . .
65(4) . . .
63(4) . . .
75(5) . . .
75(5) . . .
63(4) . . .
66(4) . . .
77(5) . . .
70(5) . . .
71(5) . . .
68(4) . . .
72(4) . . .
63(4) . . .
81(5) . . .
76(5) . . .
74(4) . . .
68(4) . . .
71(5) . . .
82(5) . . .
69(4) . . .
78(5) . . .
75(5) . . .
68(4) . . .
74(5) . . .
88(5) . . .
71(4) . . .
67(4) . . .
68(4) . . .
59(4) . . .
74(5) . . .
72(4) . . .
83(5) . . .
83(5) . . .
81(5) . . .
79(5) . . .
81(5) . . .
71(4) . . .
70(5) . . .
70(5) . . .
76(5) . . .
77(5) . . .
70(4) . . .
80(5) . . .
68(5) . . .
76(5) . . .
70(4) . . .
87(5) . . .
84(5) . . .
61(4) . . .
66(4) . . .
69(4) . . .
74(5) . . .
82(5) . . .
70(5) . . .
75(5) . . .
75(4) . . .
78(5) . . .
91(5) . . .
86(5) . . .
82(5) . . .
78(5) . . .
69(4) . . .
69(5) . . .
69(5) . . .
71(5) . . .
72(4) . . .
83(5) . . .
67(4) . . .
65(4) . . .
67(4) . . .
70(4) . . .
70(4) . . .
69(5) . . .
67(4) . . .
74(5) . . .
80(5) . . .
72(5) . . .
79(5) . . .
73(5) . . .
72(5) . . .
68(4) . . .
75(5) . . .
72(5) . . .
70(4) . . .
65(4) . . .
65(4) . . .
66(5) . . .
68(5) . . .
67(4) . . .
77(5) . . .
64(4) . . .
70(4) . . .
71(5) . . .
60(4) . . .
68(4) . . .
77(5) . . .
75(5) . . .
70(5) . . .
81(5) . . .
77(5) . . .
63(4) . . .
66(4) . . .
76(5) . . .
81(5) . . .
78(5) . . .
73(5) . . .
60(4) . . .
74(5) . . .
70(4) . . .
66(4) . . .
79(5) . . .
82(5) . . .
86(5) . . .
85(5) . . .
80(5) . . .
74(5) . . .
62(4) . . .
79(5) . . .
82(5) . . .
69(4) . . .
72(5) . . .
68(5) . . .
70(5) . . .
64(4) . . .
78(5) . . .
69(4) . . .
57(4) . . .
67(4) . . .
60(4) . . .
60(4) . . .
74(5) . . .
76(5) . . .
65(5) . . .
74(5) . . .
83(5) . . .
71(4) . . .
71(5) . . .
69(4) . . .
68(4) . . .
71(4) . . .
72(5) . . .
64(5) . . .
76(5) . . .
76(5) . . .
67(4) . . .
83(5) . . .
75(5) . . .
64(4) . . .
81(5) . . .
68(4) . . .
61(4) . . .
75(5) . . .
77(5) . . .
79(5) . . .
73(4) . . .
66(4) . . .
63(4) . . .
66(4) . . .
73(4) . . .
76(5) . . .
68(4) . . .
67(4) . . .
76(5) . . .
76(5) . . .
71(5) . . .
72(5) . . .
68(4) . . .
80(5) . . .
72(4) . . .
75(5) . . .
75(5) . . .
66(4) . . .
78(5) . . .
71(4) . . .
63(4) . . .
59(4) . . .
73(5) . . .
73(4) . . .
72(4) . . .
66(4) . . .
64(4) . . .
77(5) . . .
71(4) . . .
72(4) . . .
72(5) . . .
81(5) . . .
65(4) . . .
74(4) . . .
74(4) . . .
71(4) . . .
78(5) . . .
79(5) . . .
68(4) . . .
78(5) . . .
66(4) . . .
66(4) . . .
64(4) . . .
73(4) . . .
68(4) . . .
69(4) . . .
74(5) . . .
74(4) . . .
90(5) . . .
75(5) . . .
67(4) . . .
65(4) . . .
73(5) . . .
73(4) . . .
62(4) . . .
73(5) . . .
70(4) . . .
70(4) . . .
84(5) . . .
79(5) . . .
79(5) . . .
90(5) . . .
62(4) . . .
68(4) . . .
78(5) . . .
83(5) . . .
77(5) . . .
67(4) . . .
66(4) . . .
80(5) . . .
78(5) . . .
74(5) . . .
79(5) . . .
86(5) . . .
77(5) . . .
64(4) . . .
67(4) . . .
91(5) . . .
74(4) . . .
72(5) . . .
78(5) . . .
70(4) . . .
82(5) . . .
72(4) . . .
75(5) . . .
82(5) . . .
73(4) . . .
68(4) . . .
75(5) . . .
69(4) . . .
75(5) . . .
78(5) . . .
75(4) . . .
70(4) . . .
73(5) . . .
71(5) . . .
76(5) . . .
75(4) . . .
76(5) . . .
79(5) . . .
65(4) . . .
62(4) . . .
70(4) . . .
64(4) . . .
83(5) . . .
70(5) . . .
49(4) . . .
72(4) . . .
75(5) . . .
69(5) . . .
81(5) . . .
70(4) . . .
68(4) . . .
71(4) . . .
76(5) . . .
65(4) . . .
78(5) . . .
74(5) . . .
68(4) . . .
69(5) . . .
61(4) . . .
70(4) . . .
69(4) . . .
77(5) . . .
73(5) . . .
80(5) . . .
76(5) . . .
75(5) . . .
76(5) . . .
81(5) . . .
69(4) . . .
68(4) . . .
74(5) . . .
83(5) . . .
75(5) . . .
67(4) . . .
69(4) . . .
67(4) . . .
70(5) . . .
77(5) . . .
70(5) . . .
62(4) . . .
67(4) . . .
56(4) . . .
84(5) . . .
73(5) . . .
60(4) . . .
79(5) . . .
71(5) . . .
71(5) . . .
73(4) . . .
76(5) . . .
72(5) . . .
79(5) . . .
73(5) . . .
72(5) . . .
70(4) . . .
68(4) . . .
77(5) . . .
65(4) . . .
71(4) . . .
70(4) . . .
82(5) . . .
70(5) . . .
73(5) . . .
52(4) . . .
73(4) . . .
65(4) . . .
70(5) . . .
75(5) . . .
67(5) . . .
62(4) . . .
71(5) . . .
66(4) . . .
62(4) . . .
74(4) . . .
86(5) . . .
65(4) . . .
66(4) . . .
64(4) . . .
72(4) . . .
68(4) . . .
70(4) . . .
61(4) . . .
63(4) . . .
67(4) . . .
58(4) . . .
71(5) . . .
68(5) . . .
63(4) . . .
63(4) . . .
61(4) . . .
68(5) . . .
66(4) . . .
72(5) . . .
75(5) . . .
63(4) . . .
75(5) . . .
62(4) . . .
75(5) . . .
75(5) . . .
76(5) . . .
77(5) . . .
75(5) . . .
57(4) . . .
65(4) . . .
66(4) . . .
65(4) . . .
70(5) . . .
71(5) . . .
72(4) . . .
70(4) . . .
70(4) . . .
73(4) . . .
69(4) . . .
71(4) . . .
65(4) . . .
67(4) . . .
69(4) . . .
70(4) . . .
64(4) . . .
61(4) . . .
77(5) . . .
73(5) . . .
69(4) . . .
58(4) . . .
71(5) . . .
74(5) . . .
64(4) . . .
63(4) . . .
76(5) . . .
74(5) . . .
68(5) . . .
69(4) . . .
68(4) . . .
80(5) . . .
68(4) . . .
74(5) . . .
63(4) . . .
70(4) . . .
69(4) . . .
66(4) . . .
74(5) . . .
62(4) . . .
70(4) . . .
69(4) . . .
72(5) . . .
66(4) . . .
81(5) . . .
56(4) . . .
72(5) . . .
68(4) . . .
80(5) . . .
64(4) . . .
57(4) . . .
66(4) . . .
70(4) . . .
67(4) . . .
61(4) . . .
77(5) . . .
79(5) . . .
71(4) . . .
79(5) . . .
76(5) . . .
60(4) . . .
61(4) . . .
72(5) . . .
74(4) . . .
68(4) . . .
66(4) . . .
71(5) . . .
66(4) . . .
72(5) . . .
69(4) . . .
74(4) . . .
75(4) . . .
77(5) . . .
70(4) . . .
67(4) . . .
66(4) . . .
75(5) . . .
69(5) . . .
70(5) . . .
58(4) . . .
69(4) . . .
72(4) . . .
65(4) . . .
74(5) . . .
64(4) . . .
79(5) . . .
73(5) . . .
73(5) . . .
58(4) . . .
74(4) . . .
79(5) . . .
72(5) . . .
60(4) . . .
72(4) . . .
64(4) . . .
61(4) . . .
68(4) . . .
74(4) . . .
72(5) . . .
66(4) . . .
69(4) . . .
68(4) . . .
85(5) . . .
72(4) . . .
54(4) . . .
65(4) . . .
57(4) . . .
61(4) . . .
70(5) . . .
70(4) . . .
71(5) . . .
70(5) . . .
72(5) . . .
70(4) . . .
64(4) . . .
59(4) . . .
65(4) . . .
75(5) . . .
65(4) . . .
68(4) . . .
73(5) . . .
65(4) . . .
69(4) . . .
66(4) . . .
76(4) . . .
73(4) . . .
74(5) . . .
68(4) . . .
78(5) . . .
70(4) . . .
73(5) . . .
74(5) . . .
67(4) . . .
74(5) . . .
70(4) . . .
67(4) . . .
78(5) . . .
82(5) . . .
63(4) . . .
66(4) . . .
72(5) . . .
66(4) . . .
56(4) . . .
63(4) . . .
64(4) . . .
69(5) . . .
67(4) . . .
63(4) . . .
63(4) . . .
83(5) . . .
63(4) . . .
62(4) . . .
69(4) . . .
71(4) . . .
74(5) . . .
80(5) . . .
68(4) . . .
74(5) . . .
57(4) . . .
66(4) . . .
69(4) . . .
70(5) . . .
70(4) . . .
68(4) . . .
66(4) . . .
60(4) . . .
67(4) . . .
73(5) . . .
75(4) . . .
72(4) . . .
74(5) . . .
74(5) . . .
72(5) . . .
64(4) . . .
65(4) . . .
73(5) . . .
65(4) . . .
61(4) . . .
65(4) . . .
77(5) . . .
79(5) . . .
80(5) . . .
69(4) . . .
65(4) . . .
62(4) . . .
71(5) . . .
60(4) . . .
65(4) . . .
68(4) . . .
81(5) . . .
78(5) . . .
66(5) . . .
64(4) . . .
66(4) . . .
68(5) . . .
74(5) . . .
60(4) . . .
67(4) . . .
73(5) . . .
74(5) . . .
87(5) . . .
71(4) . . .
68(4) . . .
68(4) . . .
71(5) . . .
64(4) . . .
76(5) . . .
68(4) . . .
62(4) . . .
69(4) . . .
74(4) . . .
68(4) . . .
72(5) . . .
67(4) . . .
61(4) . . .
78(5) . . .
74(4) . . .
74(5) . . .
78(5) . . .
75(5) . . .
62(4) . . .
66(5) . . .
71(5) . . .
79(5) . . .
80(5) . . .
77(5) . . .
66(4) . . .
70(5) . . .
72(4) . . .
71(4) . . .
76(5) . . .
66(4) . . .
72(5) . . .
71(4) . . .
68(4) . . .
85(5) . . .
70(4) . . .
68(5) . . .
82(5) . . .
74(5) . . .
85(5) . . .
64(4) . . .
69(4) . . .
83(5) . . .
63(4) . . .
75(4) . . .
79(5) . . .
68(4) . . .
76(5) . . .
64(4) . . .
84(5) . . .
68(4) . . .
74(5) . . .
67(4) . . .
71(4) . . .
68(4) . . .
76(5) . . .
78(5) . . .
66(4) . . .
75(5) . . .
66(4) . . .
71(5) . . .
72(5) . . .
74(5) . . .
65(4) . . .
71(5) . . .
73(5) . . .
88(5) . . .
69(4) . . .
66(4) . . .
77(5) . . .
68(4) . . .
63(4) . . .
56(4) . . .
57(4) . . .
79(5) . . .
68(4) . . .
75(5) . . .
75(5) . . .
67(4) . . .
65(4) . . .
82(5) . . .
72(4) . . .
66(4) . . .
67(4) . . .
60(4) . . .
57(4) . . .
61(4) . . .
71(4) . . .
72(5) . . .
59(4) . . .
64(4) . . .
56(4) . . .
65(4) . . .
65(4) . . .
59(4) . . .
61(4) . . .
71(5) . . .
65(4) . . .
68(4) . . .
78(5) . . .
70(4) . . .
78(5) . . .
62(4) . . .
65(4) . . .
67(4) . . .
75(5) . . .
60(4) . . .
60(4) . . .
69(4) . . .
75(5) . . .
67(4) . . .
83(5) . . .
59(4) . . .
80(5) . . .
76(5) . . .
65(4) . . .
62(4) . . .
72(4) . . .
71(4) . . .
79(5) . . .
67(4) . . .
65(4) . . .
64(4) . . .
73(5) . . .
62(4) . . .
75(5) . . .
64(4) . . .
73(4) . . .
68(4) . . .
66(5) . . .
70(5) . . .
77(5) . . .
78(5) . . .
72(5) . . .
64(4) . . .
65(4) . . .
57(4) . . .
71(4) . . .
79(5) . . .
77(5) . . .
66(4) . . .
63(4) . . .
73(4) . . .
71(5) . . .
63(4) . . .
65(4) . . .
57(4) . . .
59(4) . . .
66(4) . . .
71(5) . . .
55(4) . . .
56(4) . . .
61(4) . . .
64(4) . . .
64(4) . . .
67(5) . . .
69(4) . . .
63(4) . . .
75(5) . . .
62(4) . . .
75(5) . . .
64(4) . . .
59(4) . . .
55(4) . . .
63(4) . . .
64(4) . . .
75(5) . . .
74(5) . . .
60(4) . . .
67(4) . . .
67(4) . . .
59(4) . . .
82(5) . . .
74(5) . . .
67(4) . . .
80(5) . . .
62(4) . . .
61(4) . . .
73(5) . . .
70(5) . . .
60(4) . . .
78(5) . . .
81(5) . . .
62(4) . . .
76(5) . . .
76(5) . . .
80(5) . . .
77(5) . . .
71(5) . . .
66(4) . . .
78(5) . . .
82(5) . . .
60(4) . . .
66(4) . . .
79(5) . . .
63(4) . . .
64(4) . . .
60(4) . . .
65(4) . . .
78(5) . . .
69(4) . . .
60(4) . . .
71(5) . . .
69(5) . . .
64(4) . . .
70(4) . . .
69(4) . . .
66(4) . . .
72(5) . . .
56(4) . . .
66(4) . . .
75(5) . . .
66(4) . . .
63(4) . . .
72(4) . . .
63(4) . . .
64(4) . . .
57(4) . . .
57(4) . . .
55(4) . . .
55(4) . . .
74(5) . . .
83(5) . . .
69(4) . . .
64(4) . . .
85(5) . . .
73(5) . . .
70(5) . . .
82(5) . . .
63(4) . . .
66(4) . . .
75(5) . . .
79(5) . . .
76(5) . . .
69(4) . . .
66(4) . . .
60(4) . . .
55(4) . . .
69(5) . . .
68(4) . . .
82(5) . . .
53(4) . . .
65(5) . . .
60(4) . . .
67(4) . . .
71(5) . . .
65(4) . . .
65(4) . . .
67(4) . . .
64(4) . . .
56(4) . . .
64(4) . . .
64(4) . . .
78(5) . . .
78(5) . . .
69(4) . . .
66(5) . . .
58(4) . . .
68(4) . . .
64(4) . . .
70(4) . . .
65(4) . . .
57(4) . . .
56(4) . . .
71(4) . . .
79(5) . . .
71(5) . . .
69(4) . . .
71(4) . . .
74(4) . . .
66(4) . . .
67(5) . . .
69(4) . . .
65(4) . . .
61(4) . . .
68(5) . . .
61(4) . . .
80(5) . . .
70(4) . . .
65(4) . . .
76(5) . . .
68(5) . . .
72(5) . . .
70(4) . . .
73(5) . . .
68(4) . . .
70(5) . . .
62(4) . . .
60(4) . . .
76(5) . . .
76(5) . . .
74(5) . . .
74(5) . . .
69(4) . . .
69(4) . . .
69(4) . . .
60(4) . . .
60(4) . . .
62(4) . . .
77(5) . . .
73(5) . . .
62(4) . . .
58(4) . . .
76(5) . . .
74(5) . . .
66(4) . . .
61(4) . . .
63(5) . . .
68(4) . . .
72(5) . . .
70(4) . . .
71(4) . . .
69(4) . . .
70(4) . . .
73(4) . . .
66(4) . . .
66(4) . . .
75(5) . . .
66(4) . . .
67(4) . . .
73(5) . . .
69(4) . . .
70(4) . . .
66(4) . . .
75(5) . . .
67(4) . . .
65(4) . . .
70(4) . . .
73(4) . . .
64(4) . . .
62(4) . . .
60(4) . . .
71(4) . . .
73(4) . . .
72(4) . . .
65(4) . . .
85(5) . . .
62(4) . . .
67(4) . . .
77(5) . . .
75(5) . . .
61(4) . . .
57(4) . . .
60(4) . . .
71(5) . . .
58(4) . . .
70(4) . . .
64(4) . . .
58(4) . . .
77(5) . . .
64(4) . . .
69(4) . . .
67(4) . . .
68(4) . . .
62(5) . . .
58(4) . . .
68(4) . . .
61(4) . . .
74(5) . . .
63(4) . . .
61(4) . . .
62(4) . . .
71(4) . . .
63(4) . . .
66(4) . . .
68(5) . . .
77(5) . . .
66(4) . . .
62(4) . . .
71(5) . . .
71(5) . . .
79(5) . . .
64(4) . . .
67(4) . . .
66(4) . . .
71(5) . . .
65(4) . . .
74(4) . . .
68(4) . . .
62(4) . . .
73(4) . . .
66(4) . . .
68(4) . . .
69(4) . . .
72(5) . . .
82(5) . . .
71(4) . . .
62(4) . . .
71(5) . . .
66(5) . . .
75(5) . . .
70(4) . . .
66(4) . . .
50(4) . . .
73(5) . . .
73(5) . . .
55(4) . . .
63(4) . . .
66(4) . . .
69(5) . . .
70(5) . . .
61(4) . . .
79(5) . . .
67(4) . . .
68(4) . . .
73(5) . . .
64(4) . . .
73(5) . . .
63(4) . . .
73(5) . . .
72(4) . . .
68(4) . . .
71(5) . . .
78(5) . . .
73(5) . . .
71(5) . . .
75(5) . . .
62(4) . . .
74(5) . . .
75(5) . . .
69(4) . . .
64(4) . . .
69(5) . . .
73(5) . . .
70(5) . . .
71(4) . . .
73(4) . . .
63(4) . . .
77(5) . . .
70(4) . . .
65(4) . . .
65(4) . . .
79(5) . . .
72(5) . . .
65(4) . . .
64(4) . . .
60(4) . . .
69(5) . . .
63(4) . . .
78(5) . . .
66(4) . . .
68(4) . . .
71(4) . . .
72(5) . . .
66(4) . . .
69(4) . . .
74(5) . . .
71(4) . . .
68(4) . . .
69(5) . . .
61(4) . . .
66(4) . . .
74(5) . . .
69(5) . . .
75(5) . . .
73(4) . . .
71(4) . . .
69(4) . . .
68(4) . . .
62(4) . . .
70(4) . . .
61(4) . . .
69(5) . . .
61(4) . . .
81(5) . . .
70(4) . . .
60(4) . . .
66(5) . . .
66(4) . . .
76(5) . . .
62(4) . . .
68(5) . . .
67(5) . . .
64(4) . . .
64(4) . . .
64(4) . . .
73(5) . . .
69(5) . . .
69(5) . . .
80(5) . . .
65(4) . . .
75(5) . . .
76(5) . . .
68(4) . . .
67(4) . . .
65(4) . . .
60(4) . . .
78(5) . . .
69(5) . . .
77(5) . . .
78(5) . . .
67(4) . . .
68(4) . . .
61(4) . . .
75(4) . . .
75(5) . . .
83(5) . . .
69(5) . . .
64(4) . . .
71(4) . . .
68(4) . . .
72(5) . . .
64(4) . . .
67(4) . . .
71(4) . . .
78(5) . . .
74(5) . . .
70(4) . . .
80(5) . . .
79(5) . . .
68(5) . . .
67(4) . . .
71(5) . . .
68(4) . . .
77(5) . . .
67(4) . . .
63(4) . . .
75(5) . . .
69(4) . . .
61(4) . . .
76(5) . . .
69(4) . . .
71(5) . . .
67(4) . . .
64(4) . . .
64(4) . . .
58(4) . . .
65(4) . . .
56(4) . . .
66(4) . . .
65(4) . . .
74(5) . . .
61(4) . . .
69(4) . . .
71(4) . . .
60(4) . . .
54(4) . . .
61(4) . . .
67(4) . . .
76(5) . . .
74(5) . . .
64(4) . . .
70(5) . . .
61(4) . . .
72(4) . . .
75(5) . . .
63(4) . . .
69(5) . . .
76(5) . . .
64(4) . . .
75(5) . . .
69(4) . . .
81(5) . . .
69(4) . . .
67(4) . . .
73(5) . . .
66(4) . . .
65(5) . . .
72(4) . . .
62(4) . . .
57(4) . . .
63(4) . . .
68(5) . . .
74(4) . . .
72(5) . . .
58(4) . . .
62(4) . . .
53(4) . . .
58(4) . . .
61(4) . . .
68(5) . . .
83(5) . . .
72(4) . . .
60(4) . . .
68(4) . . .
63(4) . . .
70(4) . . .
74(4) . . .
62(4) . . .
65(4) . . .
66(5) . . .
68(4) . . .
69(4) . . .
70(4) . . .
69(5) . . .
65(5) . . .
65(4) . . .
57(4) . . .
72(4) . . .
70(5) . . .
66(4) . . .
76(5) . . .
59(4) . . .
66(4) . . .
68(4) . . .
68(4) . . .
91(5) . . .
55(4) . . .
61(4) . . .
64(4) . . .
75(5) . . .
66(4) . . .
73(4) . . .
74(5) . . .
78(5) . . .
70(5) . . .
57(4) . . .
67(4) . . .
55(4) . . .
73(5) . . .
70(5) . . .
69(4) . . .
70(4) . . .
73(5) . . .
65(4) . . .
66(4) . . .
63(4) . . .
76(5) . . .
67(5) . . .
55(4) . . .
68(5) . . .
67(4) . . .
57(4) . . .
63(4) . . .
60(4) . . .
66(4) . . .
66(4) . . .
67(4) . . .
70(5) . . .
58(4) . . .
57(4) . . .
70(4) . . .
64(4) . . .
61(4) . . .
70(5) . . .
67(4) . . .
74(4) . . .
64(4) . . .
72(5) . . .
59(4) . . .
59(4) . . .
69(4) . . .
82(5) . . .
81(5) . . .
65(4) . . .
68(4) . . .
65(4) . . .
71(5) . . .
62(4) . . .
75(5) . . .
64(4) . . .
68(4) . . .
65(4) . . .
67(4) . . .
70(5) . . .
76(5) . . .
65(4) . . .
76(5) . . .
62(4) . . .
60(4) . . .
65(4) . . .
73(4) . . .
73(5) . . .
66(4) . . .
71(5) . . .
58(4) . . .
67(4) . . .
76(5) . . .
74(5) . . .
62(4) . . .
61(4) . . .
60(4) . . .
63(4) . . .
67(5) . . .
60(4) . . .
55(4) . . .
65(4) . . .
82(5) . . .
65(4) . . .
64(4) . . .
67(4) . . .
65(4) . . .
65(4) . . .
67(5) . . .
66(4) . . .
61(4) . . .
51(4) . . .
66(4) . . .
82(5) . . .
78(5) . . .
68(4) . . .
65(4) . . .
65(4) . . .
78(5) . . .
76(5) . . .
65(4) . . .
63(4) . . .
70(4) . . .
75(5) . . .
71(4) . . .
63(4) . . .
60(4) . . .
65(5) . . .
51(4) . . .
69(5) . . .
52(4) . . .
69(4) . . .
73(5) . . .
64(4) . . .
71(5) . . .
67(4) . . .
61(4) . . .
64(5) . . .
55(4) . . .
60(4) . . .
64(4) . . .
67(4) . . .
76(5) . . .
91(5) . . .
65(4) . . .
66(4) . . .
71(5) . . .
59(4) . . .
66(4) . . .
69(4) . . .
65(4) . . .
59(4) . . .
58(4) . . .
61(4) . . .
66(4) . . .
61(4) . . .
64(5) . . .
59(5) . . .
67(4) . . .
57(4) . . .
69(4) . . .
62(4) . . .
73(5) . . .
72(5) . . .
70(4) . . .
63(4) . . .
64(4) . . .
61(4) . . .
58(4) . . .
64(4) . . .
57(4) . . .
68(4) . . .
65(4) . . .
68(5) . . .
57(4) . . .
69(4) . . .
73(5) . . .
66(4) . . .
69(5) . . .
77(5) . . .
82(5) . . .
69(5) . . .
69(5) . . .
73(5) . . .
69(4) . . .
62(4) . . .
67(5) . . .
69(5) . . .
56(4) . . .
61(4) . . .
65(4) . . .
68(4) . . .
64(4) . . .
61(4) . . .
71(4) . . .
60(4) . . .
52(4) . . .
75(5) . . .
69(4) . . .
53(4) . . .
68(4) . . .
57(4) . . .
72(5) . . .
66(4) . . .
60(4) . . .
69(5) . . .
74(5) . . .
65(4) . . .
60(4) . . .
67(4) . . .
69(4) . . .
58(4) . . .
57(4) . . .
66(4) . . .
69(4) . . .
68(4) . . .
58(4) . . .
66(4) . . .
69(4) . . .
60(4) . . .
66(4) . . .
68(5) . . .
66(4) . . .
65(4) . . .
71(4) . . .
62(4) . . .
58(4) . . .
58(4) . . .
72(4) . . .
57(4) . . .
66(4) . . .
63(4) . . .
69(4) . . .
66(4) . . .
68(4) . . .
69(5) . . .
51(4) . . .
61(4) . . .
65(4) . . .
64(4) . . .
70(5) . . .
60(4) . . .
60(4) . . .
68(4) . . .
72(5) . . .
63(4) . . .
71(4) . . .
67(4) . . .
60(4) . . .
71(5) . . .
62(5) . . .
63(4) . . .
60(4) . . .
63(4) . . .
62(4) . . .
60(4) . . .
59(4) . . .
62(4) . . .
62(4) . . .
69(4) . . .
72(5) . . .
77(5) . . .
67(4) . . .
66(4) . . .
68(4) . . .
75(5) . . .
64(4) . . .
75(5) . . .
72(4) . . .
71(4) . . .
75(5) . . .
80(5) . . .
58(4) . . .
65(4) . . .
63(4) . . .
62(4) . . .
63(4) . . .
73(5) . . .
70(4) . . .
70(4) . . .
71(5) . . .
69(4) . . .
64(4) . . .
63(4) . . .
57(4) . . .
74(5) . . .
70(5) . . .
63(4) . . .
63(4) . . .
62(4) . . .
65(4) . . .
74(4) . . .
67(4) . . .
63(4) . . .
69(5) . . .
64(4) . . .
57(4) . . .
62(4) . . .
70(5) . . .
62(4) . . .
61(4) . . .
60(4) . . .
60(4) . . .
70(5) . . .
72(5) . . .
65(4) . . .
66(4) . . .
63(4) . . .
70(5) . . .
69(5) . . .
63(4) . . .
66(4) . . .
72(4) . . .
52(4) . . .
56(4) . . .
61(4) . . .
63(4) . . .
65(4) . . .
69(4) . . .
63(4) . . .
69(5) . . .
72(4) . . .
65(4) . . .
67(5) . . .
62(4) . . .
61(4) . . .
66(4) . . .
65(4) . . .
64(4) . . .
58(4) . . .
70(4) . . .
56(4) . . .
54(4) . . .
62(4) . . .
58(4) . . .
59(4) . . .
60(4) . . .
61(4) . . .
67(5) . . .
70(4) . . .
71(4) . . .
60(4) . . .
65(4) . . .
58(4) . . .
57(4) . . .
70(4) . . .
63(4) . . .
66(4) . . .
65(4) . . .
66(4) . . .
54(4) . . .
58(4) . . .
58(4) . . .
56(4) . . .
51(4) . . .
57(4) . . .
55(4) . . .
64(4) . . .
63(4) . . .
63(4) . . .
60(4) . . .
67(4) . . .
76(5) . . .
62(4) . . .
69(5) . . .
61(4) . . .
58(4) . . .
58(4) . . .
51(4) . . .
72(5) . . .
73(4) . . .
63(4) . . .
66(5) . . .
61(4) . . .
71(5) . . .
72(4) . . .
59(4) . . .
61(4) . . .
64(4) . . .
64(4) . . .
64(4) . . .
71(5) . . .
68(4) . . .
71(5) . . .
63(4) . . .
67(4) . . .
66(4) . . .
61(4) . . .
67(4) . . .
60(4) . . .
63(4) . . .
59(4) . . .
62(4) . . .
65(4) . . .
72(5) . . .
56(4) . . .
69(4) . . .
52(4) . . .
58(4) . . .
54(4) . . .
52(4) . . .
63(4) . . .
69(5) . . .
83(5) . . .
74(5) . . .
84(5) . . .
66(4) . . .
74(5) . . .
69(5) . . .
70(4) . . .
57(4) . . .
55(4) . . .
58(4) . . .
63(4) . . .
73(4) . . .
72(4) . . .
72(5) . . .
68(5) . . .
71(5) . . .
59(4) . . .
69(4) . . .
57(4) . . .
74(5) . . .
63(4) . . .
61(4) . . .
64(4) . . .
76(5) . . .
76(5) . . .
65(4) . . .
65(4) . . .
70(4) . . .
67(4) . . .
69(5) . . .
57(4) . . .
72(4) . . .
66(4) . . .
73(5) . . .
67(4) . . .
69(5) . . .
74(5) . . .
69(4) . . .
84(5) . . .
65(4) . . .
68(4) . . .
58(4) . . .
64(4) . . .
72(5) . . .
67(4) . . .
68(4) . . .
71(4) . . .
62(4) . . .
67(5) . . .
55(4) . . .
66(4) . . .
60(4) . . .
63(4) . . .
69(5) . . .
60(4) . . .
71(4) . . .
70(4) . . .
66(4) . . .
59(4) . . .
65(4) . . .
70(4) . . .
64(4) . . .
68(5) . . .
59(4) . . .
62(4) . . .
57(4) . . .
73(4) . . .
63(4) . . .
57(4) . . .
58(4) . . .
64(4) . . .
66(4) . . .
68(4) . . .
59(4) . . .
62(4) . . .
61(4) . . .
64(4) . . .
69(5) . . .
57(4) . . .
69(4) . . .
73(4) . . .
64(4) . . .
62(4) . . .
60(4) . . .
71(5) . . .
69(4) . . .
55(4) . . .
62(4) . . .
61(4) . . .
56(4) . . .
57(4) . . .
58(4) . . .
60(4) . . .
65(4) . . .
73(4) . . .
66(4) . . .
65(4) . . .
68(5) . . .
68(4) . . .
75(5) . . .
61(4) . . .
61(4) . . .
54(4) . . .
61(4) . . .
61(4) . . .
60(4) . . .
58(4) . . .
65(4) . . .
77(5) . . .
64(4) . . .
64(4) . . .
63(4) . . .
59(4) . . .
75(5) . . .
59(4) . . .
61(4) . . .
54(4) . . .
49(4) . . .
48(4) . . .
66(4) . . .
63(4) . . .
64(4) . . .
59(4) . . .
55(4) . . .
59(4) . . .
63(4) . . .
59(4) . . .
51(4) . . .
62(4) . . .
61(4) . . .
70(5) . . .
69(4) . . .
59(4) . . .
66(4) . . .
64(4) . . .
69(4) . . .
61(4) . . .
59(4) . . .
69(4) . . .
56(4) . . .
60(4) . . .
67(4) . . .
54(4) . . .
63(4) . . .
67(4) . . .
62(4) . . .
67(5) . . .
74(5) . . .
71(5) . . .
64(4) . . .
55(4) . . .
61(4) . . .
69(5) . . .
70(4) . . .
64(4) . . .
68(4) . . .
70(5) . . .
73(5) . . .
58(4) . . .
64(4) . . .
68(4) . . .
71(5) . . .
78(5) . . .
66(4) . . .
59(4) . . .
54(4) . . .
65(4) . . .
70(4) . . .
62(4) . . .
75(5) . . .
61(4) . . .
62(4) . . .
65(4) . . .
60(4) . . .
53(4) . . .
63(4) . . .
67(4) . . .
66(4) . . .
62(4) . . .
63(4) . . .
72(5) . . .
69(4) . . .
63(4) . . .
66(4) . . .
68(4) . . .
62(4) . . .
64(4) . . .
65(4) . . .
69(4) . . .
67(5) . . .
62(4) . . .
63(4) . . .
65(4) . . .
60(4) . . .
69(5) . . .
67(5) . . .
61(4) . . .
42.1(34) . . .
60(4) . . .
56(4) . . .
53(4) . . .
64(4) . . .
64(4) . . .
66(4) . . .
57(4) . . .
64(4) . . .
63(4) . . .
65(4) . . .
54(4) . . .
61(4) . . .
68(5) . . .
53(4) . . .
69(4) . . .
65(4) . . .
62(4) . . .
70(5) . . .
58(4) . . .
62(4) . . .
70(4) . . .
57(4) . . .
56(4) . . .
65(5) . . .
65(4) . . .
70(4) . . .
67(4) . . .
69(4) . . .
68(4) . . .
57(4) . . .
72(5) . . .
69(4) . . .
72(5) . . .
71(5) . . .
64(4) . . .
69(4) . . .
60(4) . . .
58(4) . . .
62(4) . . .
55(4) . . .
61(4) . . .
60(4) . . .
60(4) . . .
47(4) . . .
64(4) . . .
72(4) . . .
73(5) . . .
67(4) . . .
59(4) . . .
64(4) . . .
60(4) . . .
65(4) . . .
78(5) . . .
57(4) . . .
70(4) . . .
54(4) . . .
57(4) . . .
63(4) . . .
55(4) . . .
64(4) . . .
63(4) . . .
64(5) . . .
61(4) . . .
77(5) . . .
66(4) . . .
60(4) . . .
72(5) . . .
61(4) . . .
59(4) . . .
68(4) . . .
62(4) . . .
69(5) . . .
78(5) . . .
59(4) . . .
59(4) . . .
64(4) . . .
62(4) . . .
58(4) . . .
58(4) . . .
65(4) . . .
64(4) . . .
74(5) . . .
68(4) . . .
71(4) . . .
70(4) . . .
52(4) . . .
58(4) . . .
66(4) . . .
65(4) . . .
64(4) . . .
67(4) . . .
70(4) . . .
60(4) . . .
67(4) . . .
57(4) . . .
59(4) . . .
60(4) . . .
52(4) . . .
71(4) . . .
71(5) . . .
64(4) . . .
64(4) . . .
68(4) . . .
67(4) . . .
62(4) . . .
54(4) . . .
62(4) . . .
52(4) . . .
64(4) . . .
62(4) . . .
68(4) . . .
68(4) . . .
69(4) . . .
61(4) . . .
61(4) . . .
67(5) . . .
52(4) . . .
58(4) . . .
61(4) . . .
67(4) . . .
59(4) . . .
68(4) . . .
58(4) . . .
62(4) . . .
53(4) . . .
62(4) . . .
71(5) . . .
59(4) . . .
66(4) . . .
71(5) . . .
73(5) . . .
73(5) . . .
50(4) . . .
58(4) . . .
54(4) . . .
65(4) . . .
60(4) . . .
65(4) . . .
54(4) . . .
49(4) . . .
62(5) . . .
69(4) . . .
66(4) . . .
66(4) . . .
67(4) . . .
69(5) . . .
67(4) . . .
68(4) . . .
67(4) . . .
58(4) . . .
52(4) . . .
61(4) . . .
61(4) . . .
56(4) . . .
60(4) . . .
67(4) . . .
54(4) . . .
60(4) . . .
61(4) . . .
65(4) . . .
56(4) . . .
59(4) . . .
59(4) . . .
62(4) . . .
68(5) . . .
65(4) . . .
61(4) . . .
57(4) . . .
65(4) . . .
62(4) . . .
73(5) . . .
64(4) . . .
63(4) . . .
47(4) . . .
58(4) . . .
67(4) . . .
64(4) . . .
66(4) . . .
63(4) . . .
64(5) . . .
66(4) . . .
66(4) . . .
67(4) . . .
65(4) . . .
57(4) . . .
75(5) . . .
65(4) . . .
69(5) . . .
67(5) . . .
62(4) . . .
66(4) . . .
60(4) . . .
54(4) . . .
56(4) . . .
74(5) . . .
68(4) . . .
54(4) . . .
60(4) . . .
61(4) . . .
64(4) . . .
64(4) . . .
63(4) . . .
58(4) . . .
62(4) . . .
68(5) . . .
50(4) . . .
62(4) . . .
48(4) . . .
54(4) . . .
59(4) . . .
69(4) . . .
66(4) . . .
62(4) . . .
64(4) . . .
58(4) . . .
69(4) . . .
59(4) . . .
64(4) . . .
56(4) . . .
62(4) . . .
63(4) . . .
72(4) . . .
60(4) . . .
58(4) . . .
71(5) . . .
64(4) . . .
62(4) . . .
66(4) . . .
64(4) . . .
67(4) . . .
67(4) . . .
62(4) . . .
65(4) . . .
56(4) . . .
63(4) . . .
58(4) . . .
62(4) . . .
62(4) . . .
62(4) . . .
68(4) . . .
61(4) . . .
58(4) . . .
62(4) . . .
58(4) . . .
65(4) . . .
54(4) . . .
65(4) . . .
60(4) . . .
55(4) . . .
64(4) . . .
60(4) . . .
57(4) . . .
63(5) . . .
53(4) . . .
59(4) . . .
64(4) . . .
59(4) . . .
65(4) . . .
54(4) . . .
62(4) . . .
73(5) . . .
71(5) . . .
63(4) . . .
63(4) . . .
67(4) . . .
64(4) . . .
68(4) . . .
60(4) . . .
53(4) . . .
59(4) . . .
62(4) . . .
54(4) . . .
63(4) . . .
68(4) . . .
64(4) . . .
75(5) . . .
65(4) . . .
60(4) . . .
60(4) . . .
63(4) . . .
59(4) . . .
59(4) . . .
66(4) . . .
60(4) . . .
66(4) . . .
63(4) . . .
70(5) . . .
68(4) . . .
81(5) . . .
66(4) . . .
64(4) . . .
56(4) . . .
46(4) . . .
50(4) . . .
63(4) . . .
59(4) . . .
56(4) . . .
71(5) . . .
63(4) . . .
56(4) . . .
72(5) . . .
64(4) . . .
58(4) . . .
51(4) . . .
64(4) . . .
67(4) . . .
70(5) . . .
62(4) . . .
67(4) . . .
60(4) . . .
56(4) . . .
59(4) . . .
58(4) . . .
63(4) . . .
59(4) . . .
70(5) . . .
63(4) . . .
62(4) . . .
65(4) . . .
63(4) . . .
60(4) . . .
61(4) . . .
57(4) . . .
60(4) . . .
63(4) . . .
68(5) . . .
72(5) . . .
65(4) . . .
66(4) . . .
60(4) . . .
70(5) . . .
57(4) . . .
61(4) . . .
64(4) . . .
59(4) . . .
66(4) . . .
59(4) . . .
62(4) . . .
69(4) . . .
66(4) . . .
56(4) . . .
56(4) . . .
57(4) . . .
49(4) . . .
53(4) . . .
71(5) . . .
69(5) . . .
67(4) . . .
62(4) . . .
65(4) . . .
55(4) . . .
58(4) . . .
58(4) . . .
59(4) . . .
59(4) . . .
63(4) . . .
74(5) . . .
66(4) . . .
65(4) . . .
61(4) . . .
59(4) . . .
52(4) . . .
58(4) . . .
63(4) . . .
56(4) . . .
60(4) . . .
58(4) . . .
58(4) . . .
61(4) . . .
53(4) . . .
51(4) . . .
54(4) . . .
63(4) . . .
70(4) . . .
70(5) . . .
55(4) . . .
64(4) . . .
63(4) . . .
56(4) . . .
54(4) . . .
57(4) . . .
63(4) . . .
58(4) . . .
53(4) . . .
60(4) . . .
65(4) . . .
66(4) . . .
58(4) . . .
61(4) . . .
54(4) . . .
59(4) . . .
70(5) . . .
58(4) . . .
63(4) . . .
60(4) . . .
61(4) . . .
58(4) . . .
64(4) . . .
66(4) . . .
74(5) . . .
62(4) . . .
58(4) . . .
56(4) . . .
70(5) . . .
70(5) . . .
62(4) . . .
65(4) . . .
66(4) . . .
60(4) . . .
69(5) . . .
58(4) . . .
53(4) . . .
64(4) . . .
70(5) . . .
64(4) . . .
62(4) . . .
73(4) . . .
60(4) . . .
57(4) . . .
55(4) . . .
61(4) . . .
68(4) . . .
70(4) . . .
57(4) . . .
59(4) . . .
72(4) . . .
63(4) . . .
67(4) . . .
70(5) . . .
52(4) . . .
71(5) . . .
65(4) . . .
69(4) . . .
50(4) . . .
53(4) . . .
68(4) . . .
62(4) . . .
65(4) . . .
70(5) . . .
73(5) . . .
71(4) . . .
53(4) . . .
61(4) . . .
62(4) . . .
53(4) . . .
67(4) . . .
70(4) . . .
52(4) . . .
55(4) . . .
70(4) . . .
66(4) . . .
54(4) . . .
63(4) . . .
62(4) . . .
61(4) . . .
66(4) . . .
64(4) . . .
58(4) . . .
61(4) . . .
66(4) . . .
52(4) . . .
56(4) . . .
56(4) . . .
74(5) . . .
51(4) . . .
71(4) . . .
59(4) . . .
50(4) . . .
63(4) . . .
65(4) . . .
69(4) . . .
62(4) . . .
57(4) . . .
57(4) . . .
63(4) . . .
64(4) . . .
63(4) . . .
53(4) . . .
64(4) . . .
67(4) . . .
64(4) . . .
56(4) . . .
58(4) . . .
69(4) . . .
69(4) . . .
60(4) . . .
62(4) . . .
64(4) . . .
58(4) . . .
66(4) . . .
72(4) . . .
56(4) . . .
67(4) . . .
57(4) . . .
55(4) . . .
62(4) . . .
56(4) . . .
76(5) . . .
67(4) . . .
56(4) . . .
62(4) . . .
67(5) . . .
58(4) . . .
57(4) . . .
56(4) . . .
63(4) . . .
70(5) . . .
62(4) . . .
61(4) . . .
60(4) . . .
62(4) . . .
67(4) . . .
53(4) . . .
57(4) . . .
66(4) . . .
65(4) . . .
61(4) . . .
58(4) . . .
64(4) . . .
64(4) . . .
51(4) . . .
54(4) . . .
52(4) . . .
51(4) . . .
59(4) . . .
53(4) . . .
53(4) . . .
57(4) . . .
69(4) . . .
63(4) . . .
56(4) . . .
56(4) . . .
63(4) . . .
69(4) . . .
67(4) . . .
55(4) . . .
60(4) . . .
61(4) . . .
59(4) . . .
61(4) . . .
60(4) . . .
56(4) . . .
65(4) . . .
63(4) . . .
71(4) . . .
59(4) . . .
46(4) . . .
52(4) . . .
65(4) . . .
53(4) . . .
57(4) . . .
73(5) . . .
69(4) . . .
63(4) . . .
65(4) . . .
49(4) . . .
64(5) . . .
64(4) . . .
63(4) . . .
64(4) . . .
71(4) . . .
74(5) . . .
61(4) . . .
65(4) . . .
65(4) . . .
58(4) . . .
61(4) . . .
63(4) . . .
58(4) . . .
61(4) . . .
61(4) . . .
56(4) . . .
67(4) . . .
57(4) . . .
40.5(33) . . .
52(4) . . .
57(4) . . .
66(5) . . .
62(4) . . .
51(4) . . .
56(4) . . .
56(4) . . .
58(4) . . .
68(4) . . .
59(4) . . .
68(4) . . .
61(4) . . .
58(4) . . .
64(4) . . .
65(4) . . .
66(4) . . .
60(4) . . .
67(4) . . .
58(4) . . .
56(4) . . .
57(4) . . .
63(4) . . .
54(4) . . .
58(4) . . .
65(4) . . .
56(4) . . .
63(4) . . .
68(4) . . .
72(4) . . .
67(4) . . .
61(4) . . .
55(4) . . .
58(4) . . .
64(4) . . .
63(4) . . .
60(4) . . .
50(4) . . .
58(4) . . .
65(4) . . .
59(4) . . .
60(4) . . .
63(4) . . .
65(4) . . .
65(4) . . .
67(4) . . .
56(4) . . .
57(4) . . .
71(4) . . .
59(4) . . .
61(4) . . .
69(5) . . .
62(4) . . .
72(4) . . .
63(4) . . .
56(4) . . .
65(4) . . .
67(4) . . .
57(4) . . .
66(4) . . .
51(4) . . .
46(4) . . .
60(4) . . .
60(4) . . .
55(4) . . .
51(4) . . .
59(4) . . .
59(4) . . .
63(4) . . .
60(4) . . .
63(4) . . .
57(4) . . .
63(4) . . .
58(4) . . .
64(4) . . .
66(5) . . .
58(4) . . .
53(4) . . .
64(4) . . .
62(4) . . .
59(4) . . .
65(4) . . .
58(4) . . .
59(4) . . .
59(4) . . .
58(4) . . .
54(4) . . .
54(4) . . .
63(4) . . .
64(5) . . .
61(5) . . .
49(4) . . .
62(4) . . .
56(4) . . .
67(4) . . .
55(4) . . .
61(4) . . .
60(4) . . .
48(4) . . .
51(4) . . .
58(4) . . .
64(4) . . .
59(4) . . .
55(4) . . .
66(4) . . .
59(4) . . .
57(4) . . .
62(4) . . .
56(4) . . .
56(4) . . .
55(4) . . .
59(4) . . .
61(4) . . .
58(4) . . .
61(4) . . .
57(4) . . .
52(4) . . .
64(4) . . .
59(4) . . .
64(4) . . .
72(5) . . .
65(4) . . .
58(4) . . .
56(4) . . .
70(5) . . .
62(4) . . .
55(4) . . .
60(4) . . .
63(4) . . .
54(4) . . .
60(4) . . .
57(4) . . .
52(4) . . .
66(4) . . .
64(4) . . .
61(4) . . .
63(4) . . .
62(4) . . .
61(4) . . .
46(4) . . .
50(4) . . .
60(4) . . .
61(4) . . .
62(4) . . .
51(4) . . .
47(4) . . .
48(4) . . .
48(4) . . .
53(4) . . .
54(4) . . .
62(4) . . .
62(4) . . .
59(4) . . .
55(4) . . .
55(4) . . .
61(4) . . .
73(4) . . .
65(4) . . .
62(4) . . .
61(4) . . .
70(5) . . .
63(4) . . .
67(4) . . .
57(4) . . .
65(4) . . .
66(4) . . .
64(4) . . .
69(4) . . .
59(4) . . .
61(4) . . .
57(4) . . .
61(4) . . .
58(4) . . .
63(4) . . .
65(4) . . .
61(4) . . .
66(4) . . .
58(4) . . .
63(4) . . .
51(4) . . .
60(4) . . .
58(4) . . .
60(4) . . .
61(4) . . .
49(4) . . .
58(4) . . .
61(4) . . .
61(4) . . .
58(4) . . .
51(4) . . .
56(4) . . .
45.0(34) . . .
69(4) . . .
59(4) . . .
53(4) . . .
64(4) . . .
54(4) . . .
63(4) . . .
54(4) . . .
64(4) . . .
61(4) . . .
58(4) . . .
65(4) . . .
63(4) . . .
59(4) . . .
65(4) . . .
59(4) . . .
57(4) . . .
67(5) . . .
62(4) . . .
59(4) . . .
66(4) . . .
62(4) . . .
68(4) . . .
72(5) . . .
60(4) . . .
49(4) . . .
60(4) . . .
55(4) . . .
57(4) . . .
62(4) . . .
52(4) . . .
74(5) . . .
61(4) . . .
56(4) . . .
50(4) . . .
55(4) . . .
63(4) . . .
57(4) . . .
56(4) . . .
62(4) . . .
58(4) . . .
65(5) . . .
67(4) . . .
54(4) . . .
56(4) . . .
68(5) . . .
55(4) . . .
56(4) . . .
58(4) . . .
64(4) . . .
67(4) . . .
66(5) . . .
61(4) . . .
52(4) . . .
61(4) . . .
62(4) . . .
71(5) . . .
65(4) . . .
59(4) . . .
51(4) . . .
60(4) . . .
67(4) . . .
59(4) . . .
71(4) . . .
69(4) . . .
66(4) . . .
59(4) . . .
61(4) . . .
55(4) . . .
50(4) . . .
52(4) . . .
63(5) . . .
50(4) . . .
50(4) . . .
77(5) . . .
63(4) . . .
58(4) . . .
69(5) . . .
59(4) . . .
68(4) . . .
63(4) . . .
61(4) . . .
58(4) . . .
59(4) . . .
58(4) . . .
51(4) . . .
56(4) . . .
56(4) . . .
60(4) . . .
60(4) . . .
64(5) . . .
53(4) . . .
56(4) . . .
55(4) . . .
64(4) . . .
48(4) . . .
50(4) . . .
73(4) . . .
56(4) . . .
61(4) . . .
56(4) . . .
65(4) . . .
58(4) . . .
62(4) . . .
65(4) . . .
61(4) . . .
64(4) . . .
59(4) . . .
58(4) . . .
67(4) . . .
60(4) . . .
55(4) . . .
60(4) . . .
54(4) . . .
59(4) . . .
59(4) . . .
58(4) . . .
55(4) . . .
70(4) . . .
61(4) . . .
57(4) . . .
59(4) . . .
52(4) . . .
62(4) . . .
46(4) . . .
59(4) . . .
59(4) . . .
60(4) . . .
60(4) . . .
65(5) . . .
64(5) . . .
66(4) . . .
63(4) . . .
57(4) . . .
64(5) . . .
64(4) . . .
58(4) . . .
80(5) . . .
63(4) . . .
56(4) . . .
65(4) . . .
72(4) . . .
53(4) . . .
66(4) . . .
62(4) . . .
57(4) . . .
47(4) . . .
57(4) . . .
59(4) . . .
58(4) . . .
57(4) . . .
65(4) . . .
72(4) . . .
61(4) . . .
62(4) . . .
58(4) . . .
65(4) . . .
69(4) . . .
57(4) . . .
58(4) . . .
70(5) . . .
61(4) . . .
52(4) . . .
65(4) . . .
74(5) . . .
70(5) . . .
55(4) . . .
50(4) . . .
70(5) . . .
56(4) . . .
65(4) . . .
67(4) . . .
53(4) . . .
62(4) . . .
57(4) . . .
58(4) . . .
56(4) . . .
63(4) . . .
52(4) . . .
56(4) . . .
65(4) . . .
55(4) . . .
56(4) . . .
66(4) . . .
67(4) . . .
57(4) . . .
55(4) . . .
64(4) . . .
62(4) . . .
63(4) . . .
65(4) . . .
51(4) . . .
57(4) . . .
56(4) . . .
57(4) . . .
56(4) . . .
60(4) . . .
59(4) . . .
50(4) . . .
55(4) . . .
57(4) . . .
54(4) . . .
62(4) . . .
62(4) . . .
55(4) . . .
70(4) . . .
58(4) . . .
57(4) . . .
63(4) . . .
53(4) . . .
64(4) . . .
68(4) . . .
52(4) . . .
64(5) . . .
60(4) . . .
57(4) . . .
65(4) . . .
69(4) . . .
71(5) . . .
78(5) . . .
63(4) . . .
53(4) . . .
57(4) . . .
70(5) . . .
62(4) . . .
67(4) . . .
68(4) . . .
51(4) . . .
60(4) . . .
53(4) . . .
52(4) . . .
52(4) . . .
53(4) . . .
62(4) . . .
69(4) . . .
60(4) . . .
55(4) . . .
58(4) . . .
65(4) . . .
60(4) . . .
65(4) . . .
59(4) . . .
58(4) . . .
56(4) . . .
66(4) . . .
58(4) . . .
56(4) . . .
49(4) . . .
59(4) . . .
55(4) . . .
58(4) . . .
66(4) . . .
61(4) . . .
56(4) . . .
61(4) . . .
57(4) . . .
62(4) . . .
72(5) . . .
65(4) . . .
60(4) . . .
61(4) . . .
60(4) . . .
60(4) . . .
49(4) . . .
63(4) . . .
52(4) . . .
50(4) . . .
56(4) . . .
56(4) . . .
57(4) . . .
61(4) . . .
55(4) . . .
55(4) . . .
63(4) . . .
67(4) . . .
64(4) . . .
68(4) . . .
63(4) . . .
58(4) . . .
61(4) . . .
58(4) . . .
53(4) . . .
60(4) . . .
53(4) . . .
66(4) . . .
55(4) . . .
56(4) . . .
59(4) . . .
71(4) . . .
66(4) . . .
57(4) . . .
54(4) . . .
52(4) . . .
60(4) . . .
64(4) . . .
69(4) . . .
70(5) . . .
59(4) . . .
59(4) . . .
54(4) . . .
64(4) . . .
67(5) . . .
56(4) . . .
65(4) . . .
61(4) . . .
59(4) . . .
64(4) . . .
57(4) . . .
58(4) . . .
53(4) . . .
56(4) . . .
58(4) . . .
56(4) . . .
54(4) . . .
60(4) . . .
61(4) . . .
59(4) . . .
57(4) . . .
61(4) . . .
62(4) . . .
67(4) . . .
60(4) . . .
68(4) . . .
62(4) . . .
66(4) . . .
54(4) . . .
68(5) . . .
55(4) . . .
53(4) . . .
56(4) . . .
64(4) . . .
55(4) . . .
61(4) . . .
62(4) . . .
66(5) . . .
62(4) . . .
61(4) . . .
63(4) . . .
56(4) . . .
57(4) . . .
56(4) . . .
59(4) . . .
54(4) . . .
54(4) . . .
69(4) . . .
59(4) . . .
54(4) . . .
62(4) . . .
66(4) . . .
63(4) . . .
53(4) . . .
68(5) . . .
62(4) . . .
46.7(35) . . .
64(4) . . .
58(4) . . .
55(4) . . .
47(4) . . .
52(4) . . .
77(5) . . .
58(4) . . .
66(4) . . .
61(4) . . .
59(4) . . .
72(5) . . .
66(4) . . .
72(5) . . .
59(4) . . .
61(4) . . .
66(4) . . .
67(4) . . .
66(4) . . .
52(4) . . .
56(4) . . .
49(4) . . .
62(4) . . .
60(4) . . .
57(4) . . .
52(4) . . .
57(4) . . .
57(4) . . .
73(5) . . .
66(4) . . .
63(4) . . .
67(5) . . .
54(4) . . .
71(4) . . .
56(4) . . .
52(4) . . .
65(5) . . .
71(5) . . .
61(4) . . .
54(4) . . .
66(4) . . .
59(4) . . .
53(4) . . .
55(4) . . .
59(4) . . .
48(4) . . .
53(4) . . .
67(5) . . .
55(4) . . .
71(4) . . .
57(4) . . .
54(4) . . .
54(4) . . .
56(4) . . .
67(4) . . .
59(4) . . .
53(4) . . .
58(4) . . .
68(4) . . .
68(4) . . .
58(4) . . .
66(4) . . .
58(4) . . .
48(4) . . .
63(4) . . .
55(4) . . .
66(5) . . .
59(4) . . .
57(4) . . .
55(4) . . .
66(5) . . .
63(4) . . .
60(4) . . .
56(4) . . .
63(4) . . .
66(4) . . .
58(4) . . .
54(4) . . .
55(4) . . .
54(4) . . .
65(5) . . .
57(4) . . .
56(4) . . .
58(4) . . .
72(5) . . .
65(4) . . .
66(4) . . .
57(4) . . .
64(4) . . .
59(4) . . .
64(5) . . .
56(4) . . .
62(4) . . .
65(4) . . .
62(4) . . .
72(5) . . .
72(5) . . .
64(4) . . .
62(4) . . .
62(4) . . .
55(4) . . .
56(4) . . .
54(4) . . .
49(4) . . .
64(4) . . .
57(4) . . .
59(4) . . .
63(4) . . .
66(4) . . .
56(4) . . .
71(5) . . .
55(4) . . .
68(4) . . .
60(4) . . .
48(4) . . .
67(5) . . .
61(4) . . .
44.3(35) . . .
62(4) . . .
61(4) . . .
55(4) . . .
72(4) . . .
63(4) . . .
55(4) . . .
64(4) . . .
61(4) . . .
64(4) . . .
53(4) . . .
59(4) . . .
63(4) . . .
62(4) . . .
70(4) . . .
63(4) . . .
69(5) . . .
50(4) . . .
41.7(34) . . .
60(4) . . .
54(4) . . .
57(4) . . .
59(4) . . .
62(4) . . .
78(5) . . .
70(4) . . .
71(5) . . .
55(4) . . .
58(4) . . .
67(4) . . .
61(4) . . .
55(4) . . .
53(4) . . .
59(4) . . .
53(4) . . .
66(4) . . .
54(4) . . .
54(4) . . .
50(4) . . .
62(4) . . .
55(4) . . .
59(4) . . .
57(4) . . .
61(4) . . .
64(4) . . .
67(4) . . .
57(4) . . .
58(4) . . .
64(5) . . .
64(4) . . .
61(4) . . .
64(4) . . .
56(4) . . .
53(4) . . .
49(4) . . .
57(4) . . .
56(4) . . .
65(4) . . .
69(4) . . .
49(4) . . .
56(4) . . .
57(4) . . .
62(4) . . .
62(4) . . .
63(4) . . .
46(4) . . .
57(4) . . .
53(4) . . .
58(4) . . .
59(4) . . .
66(4) . . .
61(4) . . .
64(4) . . .
60(4) . . .
61(4) . . .
68(4) . . .
47(4) . . .
47(4) . . .
53(4) . . .
52(4) . . .
58(4) . . .
59(4) . . .
66(4) . . .
65(4) . . .
63(4) . . .
58(4) . . .
61(4) . . .
53(4) . . .
68(4) . . .
65(4) . . .
71(5) . . .
69(5) . . .
48(4) . . .
50(4) . . .
66(4) . . .
59(4) . . .
55(4) . . .
61(4) . . .
64(4) . . .
69(4) . . .
61(4) . . .
48(4) . . .
58(4) . . .
64(4) . . .
57(4) . . .
58(4) . . .
54(4) . . .
47(4) . . .
51(4) . . .
45(4) . . .
53(4) . . .
58(4) . . .
58(4) . . .
60(4) . . .
66(4) . . .
55(4) . . .
53(4) . . .
58(4) . . .
57(4) . . .
59(4) . . .
57(4) . . .
56(4) . . .
60(4) . . .
69(4) . . .
64(4) . . .
60(4) . . .
58(4) . . .
65(4) . . .
58(4) . . .
56(4) . . .
51(4) . . .
63(4) . . .
66(4) . . .
61(4) . . .
56(4) . . .
59(4) . . .
62(4) . . .
62(4) . . .
55(4) . . .
56(4) . . .
61(4) . . .
65(4) . . .
63(4) . . .
55(4) . . .
61(4) . . .
54(4) . . .
64(4) . . .
51(4) . . .
56(4) . . .
58(4) . . .
65(4) . . .
61(4) . . .
67(4) . . .
59(4) . . .
63(4) . . .
56(4) . . .
59(4) . . .
53(4) . . .
68(4) . . .
60(4) . . .
63(4) . . .
54(4) . . .
59(4) . . .
74(5) . . .
79(5) . . .
54(4) . . .
46(4) . . .
53(4) . . .
60(4) . . .
63(4) . . .
61(4) . . .
58(4) . . .
70(4) . . .
59(4) . . .
58(4) . . .
54(4) . . .
55(4) . . .
57(4) . . .
60(4) . . .
61(4) . . .
58(4) . . .
67(4) . . .
63(4) . . .
71(5) . . .
59(4) . . .
58(4) . . .
62(4) . . .
52(4) . . .
62(4) . . .
51(4) . . .
57(4) . . .
57(4) . . .
57(4) . . .
67(4) . . .
61(4) . . .
66(4) . . .
66(4) . . .
65(4) . . .
61(4) . . .
58(4) . . .
55(4) . . .
65(4) . . .
54(4) . . .
78(5) . . .
64(4) . . .
56(4) . . .
57(4) . . .
59(4) . . .
64(4) . . .
73(5) . . .
51(4) . . .
60(4) . . .
57(4) . . .
49(4) . . .
64(4) . . .
56(4) . . .
61(4) . . .
61(4) . . .
60(4) . . .
54(4) . . .
59(4) . . .
53(4) . . .
56(4) . . .
57(4) . . .
57(4) . . .
56(4) . . .
61(4) . . .
60(4) . . .
60(4) . . .
62(4) . . .
60(4) . . .
66(4) . . .
69(4) . . .
56(4) . . .
56(4) . . .
60(4) . . .
62(4) . . .
56(4) . . .
47(4) . . .
60(4) . . .
53(4) . . .
53(4) . . .
55(4) . . .
57(4) . . .
55(4) . . .
53(4) . . .
52(4) . . .
57(4) . . .
67(4) . . .
56(4) . . .
54(4) . . .
51(4) . . .
52(4) . . .
59(4) . . .
58(4) . . .
66(4) . . .
55(4) . . .
63(4) . . .
44.1(34) . . .
62(4) . . .
57(4) . . .
65(4) . . .
64(4) . . .
64(4) . . .
56(4) . . .
51(4) . . .
58(4) . . .
57(4) . . .
52(4) . . .
58(4) . . .
62(4) . . .
59(4) . . .
65(5) . . .
62(4) . . .
53(4) . . .
48(4) . . .
55(4) . . .
53(4) . . .
56(4) . . .
56(4) . . .
56(4) . . .
48(4) . . .
59(4) . . .
61(4) . . .
60(4) . . .
54(4) . . .
55(4) . . .
66(5) . . .
58(4) . . .
50(4) . . .
58(4) . . .
59(4) . . .
56(4) . . .
53(4) . . .
60(4) . . .
62(4) . . .
56(4) . . .
62(4) . . .
67(5) . . .
52(4) . . .
71(4) . . .
66(4) . . .
61(4) . . .
58(4) . . .
49(4) . . .
57(4) . . .
52(4) . . .
54(4) . . .
72(4) . . .
60(4) . . .
66(5) . . .
62(4) . . .
65(4) . . .
57(4) . . .
52(4) . . .
58(4) . . .
67(4) . . .
58(4) . . .
60(4) . . .
58(4) . . .
60(4) . . .
56(4) . . .
58(4) . . .
64(4) . . .
57(4) . . .
58(4) . . .
58(4) . . .
56(4) . . .
62(4) . . .
64(4) . . .
57(4) . . .
53(4) . . .
48(4) . . .
54(4) . . .
71(4) . . .
54(4) . . .
69(5) . . .
63(4) . . .
73(4) . . .
53(4) . . .
63(4) . . .
60(4) . . .
48(4) . . .
56(4) . . .
63(4) . . .
56(4) . . .
54(4) . . .
57(4) . . .
56(4) . . .
63(4) . . .
62(4) . . .
51(4) . . .
49(4) . . .
58(4) . . .
59(4) . . .
53(4) . . .
52(4) . . .
70(5) . . .
62(4) . . .
61(4) . . .
47(4) . . .
64(4) . . .
53(4) . . .
56(4) . . .
66(4) . . .
51(4) . . .
54(4) . . .
67(4) . . .
51(4) . . .
61(4) . . .
61(4) . . .
61(4) . . .
46(4) . . .
58(4) . . .
62(4) . . .
60(4) . . .
67(4) . . .
66(4) . . .
63(4) . . .
55(4) . . .
61(4) . . .
53(4) . . .
58(4) . . .
64(4) . . .
57(4) . . .
56(4) . . .
72(4) . . .
64(4) . . .
68(4) . . .
54(4) . . .
54(4) . . .
62(4) . . .
48(4) . . .
62(4) . . .
57(4) . . .
61(4) . . .
59(4) . . .
65(4) . . .
59(4) . . .
63(4) . . .
65(5) . . .
65(4) . . .
62(4) . . .
62(4) . . .
67(4) . . .
52(4) . . .
55(4) . . .
55(4) . . .
58(4) . . .
60(4) . . .
62(4) . . .
60(4) . . .
50(4) . . .
67(4) . . .
58(4) . . .
67(5) . . .
59(4) . . .
62(4) . . .
51(4) . . .
43(4) . . .
45(4) . . .
61(4) . . .
59(4) . . .
59(4) . . .
56(4) . . .
62(4) . . .
72(5) . . .
70(4) . . .
49(4) . . .
59(4) . . .
57(4) . . .
48(4) . . .
70(4) . . .
60(4) . . .
54(4) . . .
58(4) . . .
60(4) . . .
64(4) . . .
61(4) . . .
49(4) . . .
60(4) . . .
65(4) . . .
50(4) . . .
63(4) . . .
56(4) . . .
67(4) . . .
58(4) . . .
59(4) . . .
63(4) . . .
65(4) . . .
55(4) . . .
51(4) . . .
59(4) . . .
58(4) . . .
63(4) . . .
66(4) . . .
58(4) . . .
56(4) . . .
55(4) . . .
55(4) . . .
62(4) . . .
61(4) . . .
63(4) . . .
62(4) . . .
52(4) . . .
65(4) . . .
65(4) . . .
65(4) . . .
58(4) . . .
56(4) . . .
62(4) . . .
60(4) . . .
60(4) . . .
63(4) . . .
49(4) . . .
62(4) . . .
48(4) . . .
50(4) . . .
55(4) . . .
61(4) . . .
56(4) . . .
62(4) . . .
49(4) . . .
54(4) . . .
68(4) . . .
60(4) . . .
61(4) . . .
58(4) . . .
59(4) . . .
58(4) . . .
48(4) . . .
54(4) . . .
70(5) . . .
71(5) . . .
63(4) . . .
56(4) . . .
51(4) . . .
54(4) . . .
61(4) . . .
48(4) . . .
65(4) . . .
56(4) . . .
55(4) . . .
54(4) . . .
61(4) . . .
54(4) . . .
54(4) . . .
60(4) . . .
66(4) . . .
67(4) . . .
53(4) . . .
53(4) . . .
58(4) . . .
63(4) . . .
58(4) . . .
58(4) . . .
56(4) . . .
58(4) . . .
65(4) . . .
56(4) . . .
55(4) . . .
63(4) . . .
64(4) . . .
52(4) . . .
56(4) . . .
53(4) . . .
58(4) . . .
59(4) . . .
67(4) . . .
61(4) . . .
49(4) . . .
48(4) . . .
42(4) . . .
39.1(33) . . .
50(4) . . .
57(4) . . .
59(4) . . .
66(4) . . .
67(4) . . .
65(4) . . .
42.7(34) . . .
60(4) . . .
55(4) . . .
59(4) . . .
62(4) . . .
71(5) . . .
55(4) . . .
55(4) . . .
54(4) . . .
59(4) . . .
57(4) . . .
53(4) . . .
56(4) . . .
64(4) . . .
60(4) . . .
53(4) . . .
52(4) . . .
48(4) . . .
54(4) . . .
57(4) . . .
56(4) . . .
56(4) . . .
58(4) . . .
54(4) . . .
56(4) . . .
48(4) . . .
53(4) . . .
59(4) . . .
57(4) . . .
52(4) . . .
59(4) . . .
59(4) . . .
66(4) . . .
58(4) . . .
54(4) . . .
38.5(33) . . .
43(4) . . .
58(4) . . .
57(4) . . .
61(4) . . .
59(4) . . .
51(4) . . .
62(4) . . .
54(4) . . .
52(4) . . .
54(4) . . .
57(4) . . .
58(4) . . .
50(4) . . .
56(4) . . .
54(4) . . .
74(5) . . .
63(4) . . .
56(4) . . .
58(4) . . .
55(4) . . .
60(4) . . .
53(4) . . .
52(4) . . .
62(4) . . .
60(4) . . .
56(4) . . .
65(4) . . .
61(4) . . .
59(4) . . .
50(4) . . .
52(4) . . .
62(4) . . .
57(4) . . .
55(4) . . .
55(4) . . .
54(4) . . .
50(4) . . .
53(4) . . .
64(4) . . .
62(4) . . .
54(4) . . .
65(4) . . .
57(4) . . .
63(4) . . .
66(4) . . .
64(4) . . .
60(4) . . .
48(4) . . .
66(4) . . .
61(4) . . .
72(5) . . .
58(4) . . .
63(4) . . .
61(4) . . .
60(5) . . .
59(4) . . .
52(4) . . .
54(4) . . .
63(4) . . .
64(5) . . .
57(4) . . .
57(4) . . .
55(4) . . .
44.5(35) . . .
51(4) . . .
60(4) . . .
65(4) . . .
61(4) . . .
46(4) . . .
58(4) . . .
58(4) . . .
54(4) . . .
57(4) . . .
56(4) . . .
54(4) . . .
60(4) . . .
69(4) . . .
70(5) . . .
54(4) . . .
54(4) . . .
53(4) . . .
60(4) . . .
59(4) . . .
52(4) . . .
55(4) . . .
55(4) . . .
64(4) . . .
63(4) . . .
58(4) . . .
75(5) . . .
64(4) . . .
56(4) . . .
49(4) . . .
56(4) . . .
59(4) . . .
51(4) . . .
56(4) . . .
52(4) . . .
51(4) . . .
56(4) . . .
59(4) . . .
65(4) . . .
58(4) . . .
56(4) . . .
56(4) . . .
55(4) . . .
53(4) . . .
56(4) . . .
65(5) . . .
51(4) . . .
57(4) . . .
53(4) . . .
58(4) . . .
58(4) . . .
59(4) . . .
56(4) . . .
57(4) . . .
66(5) . . .
55(4) . . .
60(4) . . .
53(4) . . .
54(4) . . .
53(4) . . .
60(4) . . .
57(4) . . .
64(4) . . .
51(4) . . .
47(4) . . .
51(4) . . .
58(4) . . .
56(4) . . .
49(4) . . .
51(4) . . .
40.6(34) . . .
54(4) . . .
59(4) . . .
55(4) . . .
54(4) . . .
48(4) . . .
58(4) . . .
53(4) . . .
56(4) . . .
75(5) . . .
62(4) . . .
44.9(34) . . .
65(4) . . .
62(4) . . .
56(4) . . .
61(4) . . .
56(4) . . .
60(4) . . .
58(4) . . .
59(4) . . .
66(4) . . .
70(4) . . .
46(4) . . .
55(4) . . .
60(4) . . .
57(4) . . .
52(4) . . .
57(4) . . .
51(4) . . .
57(4) . . .
56(4) . . .
59(4) . . .
55(4) . . .
55(4) . . .
63(4) . . .
52(4) . . .
57(4) . . .
47(4) . . .
51(4) . . .
55(4) . . .
53(4) . . .
50(4) . . .
60(4) . . .
49(4) . . .
53(4) . . .
51(4) . . .
44.6(35) . . .
55(4) . . .
58(4) . . .
58(4) . . .
62(4) . . .
60(4) . . .
55(4) . . .
49(4) . . .
56(4) . . .
50(4) . . .
55(4) . . .
58(4) . . .
49(4) . . .
48(4) . . .
54(4) . . .
67(4) . . .
54(4) . . .
65(5) . . .
53(4) . . .
55(4) . . .
59(4) . . .
54(4) . . .
60(4) . . .
61(4) . . .
60(4) . . .
55(4) . . .
59(4) . . .
53(4) . . .
60(4) . . .
59(4) . . .
59(4) . . .
54(4) . . .
51(4) . . .
54(4) . . .
56(4) . . .
58(4) . . .
58(4) . . .
60(4) . . .
63(4) . . .
53(4) . . .
58(4) . . .
49(4) . . .
59(4) . . .
52(4) . . .
56(4) . . .
58(4) . . .
60(4) . . .
51(4) . . .
56(4) . . .
66(4) . . .
57(4) . . .
57(4) . . .
60(4) . . .
55(4) . . .
45(4) . . .
66(4) . . .
61(4) . . .
62(4) . . .
70(4) . . .
63(4) . . .
57(4) . . .
63(4) . . .
54(4) . . .
54(4) . . .
53(4) . . .
56(4) . . .
51(4) . . .
53(4) . . .
53(4) . . .
65(4) . . .
58(4) . . .
55(4) . . .
58(4) . . .
59(4) . . .
57(4) . . .
56(4) . . .
53(4) . . .
53(4) . . .
51(4) . . .
57(4) . . .
50(4) . . .
66(5) . . .
57(4) . . .
50(4) . . .
64(4) . . .
46(4) . . .
53(4) . . .
59(4) . . .
57(4) . . .
56(4) . . .
45(4) . . .
55(4) . . .
73(5) . . .
64(4) . . .
59(4) . . .
59(4) . . .
60(4) . . .
55(4) . . .
70(4) . . .
57(4) . . .
68(5) . . .
58(4) . . .
41.8(33) . . .
62(4) . . .
46(4) . . .
57(4) . . .
54(4) . . .
53(4) . . .
60(4) . . .
56(4) . . .
61(4) . . .
63(4) . . .
60(4) . . .
50(4) . . .
61(4) . . .
64(4) . . .
50(4) . . .
60(4) . . .
58(4) . . .
51(4) . . .
59(4) . . .
55(4) . . .
57(4) . . .
59(4) . . .
53(4) . . .
58(4) . . .
58(4) . . .
59(4) . . .
63(4) . . .
57(4) . . .
59(4) . . .
67(4) . . .
65(4) . . .
53(4) . . .
59(4) . . .
62(4) . . .
55(4) . . .
58(4) . . .
65(4) . . .
63(4) . . .
62(4) . . .
57(4) . . .
50(4) . . .
64(4) . . .
57(4) . . .
49(4) . . .
55(4) . . .
72(4) . . .
58(4) . . .
64(4) . . .
72(5) . . .
58(4) . . .
51(4) . . .
53(4) . . .
60(4) . . .
58(4) . . .
61(4) . . .
51(4) . . .
58(4) . . .
60(4) . . .
52(4) . . .
62(4) . . .
49(4) . . .
57(4) . . .
60(4) . . .
61(4) . . .
58(4) . . .
59(4) . . .
61(4) . . .
55(4) . . .
53(4) . . .
52(4) . . .
60(4) . . .
64(4) . . .
56(4) . . .
53(4) . . .
59(4) . . .
64(4) . . .
58(4) . . .
68(5) . . .
57(4) . . .
48(4) . . .
54(4) . . .
60(4) . . .
54(4) . . .
67(5) . . .
44(4) . . .
54(4) . . .
57(4) . . .
56(4) . . .
54(4) . . .
61(4) . . .
56(4) . . .
63(4) . . .
62(4) . . .
59(4) . . .
48(4) . . .
63(4) . . .
65(4) . . .
55(4) . . .
71(5) . . .
54(4) . . .
57(4) . . .
62(4) . . .
63(4) . . .
53(4) . . .
51(4) . . .
54(4) . . .
58(4) . . .
42.8(34) . . .
47(4) . . .
44.8(35) . . .
51(4) . . .
52(4) . . .
53(4) . . .
57(4) . . .
56(4) . . .
54(4) . . .
61(4) . . .
55(4) . . .
49(4) . . .
49(4) . . .
54(4) . . .
68(5) . . .
63(4) . . .
53(4) . . .
50(4) . . .
61(4) . . .
57(4) . . .
52(4) . . .
62(4) . . .
63(4) . . .
59(4) . . .
69(5) . . .
60(4) . . .
53(4) . . .
59(4) . . .
55(4) . . .
72(5) . . .
66(4) . . .
52(4) . . .
58(4) . . .
66(5) . . .
51(4) . . .
49(4) . . .
58(4) . . .
68(4) . . .
61(4) . . .
63(5) . . .
54(4) . . .
54(4) . . .
48(4) . . .
64(4) . . .
60(4) . . .
58(4) . . .
54(4) . . .
50(4) . . .
58(4) . . .
55(4) . . .
52(4) . . .
60(4) . . .
54(4) . . .
59(4) . . .
56(4) . . .
59(4) . . .
60(4) . . .
53(4) . . .
57(4) . . .
53(4) . . .
64(4) . . .
56(4) . . .
57(4) . . .
60(4) . . .
56(4) . . .
59(4) . . .
58(4) . . .
64(4) . . .
68(4) . . .
67(4) . . .
62(4) . . .
42.5(34) . . .
59(4) . . .
57(4) . . .
65(4) . . .
57(4) . . .
60(4) . . .
55(4) . . .
61(4) . . .
64(4) . . .
58(4) . . .
51(4) . . .
59(4) . . .
55(4) . . .
48(4) . . .
47(4) . . .
56(4) . . .
56(4) . . .
56(4) . . .
59(4) . . .
55(4) . . .
53(4) . . .
56(4) . . .
50(4) . . .
58(4) . . .
56(4) . . .
47(4) . . .
56(4) . . .
52(4) . . .
52(4) . . .
54(4) . . .
51(4) . . .
66(4) . . .
66(4) . . .
57(4) . . .
50(4) . . .
57(4) . . .
55(4) . . .
54(4) . . .
60(4) . . .
48(4) . . .
47(4) . . .
52(4) . . .
56(4) . . .
53(4) . . .
63(4) . . .
62(4) . . .
52(4) . . .
53(4) . . .
58(4) . . .
43.0(34) . . .
60(4) . . .
52(4) . . .
55(4) . . .
50(4) . . .
60(4) . . .
57(4) . . .
55(4) . . .
61(4) . . .
53(4) . . .
52(4) . . .
60(4) . . .
53(4) . . .
56(4) . . .
52(4) . . .
50(4) . . .
48(4) . . .
49(4) . . .
52(4) . . .
49(4) . . .
61(4) . . .
54(4) . . .
58(4) . . .
60(4) . . .
49(4) . . .
53(4) . . .
57(4) . . .
68(5) . . .
56(4) . . .
59(4) . . .
60(4) . . .
56(4) . . .
63(4) . . .
65(4) . . .
50(4) . . .
55(4) . . .
60(4) . . .
57(4) . . .
56(4) . . .
48(4) . . .
60(4) . . .
56(4) . . .
58(4) . . .
50(4) . . .
54(4) . . .
51(4) . . .
56(4) . . .
55(4) . . .
40.9(33) . . .
60(4) . . .
50(4) . . .
57(4) . . .
66(4) . . .
61(4) . . .
56(4) . . .
55(4) . . .
58(4) . . .
53(4) . . .
56(4) . . .
47(4) . . .
52(4) . . .
67(5) . . .
58(4) . . .
64(4) . . .
53(4) . . .
54(4) . . .
52(4) . . .
53(4) . . .
47(4) . . .
56(4) . . .
53(4) . . .
57(4) . . .
64(4) . . .
54(4) . . .
55(4) . . .
61(4) . . .
49(4) . . .
64(4) . . .
58(4) . . .
61(4) . . .
53(4) . . .
56(4) . . .
54(4) . . .
55(4) . . .
52(4) . . .
54(4) . . .
57(4) . . .
49(4) . . .
49(4) . . .
52(4) . . .
66(4) . . .
60(4) . . .
66(4) . . .
52(4) . . .
55(4) . . .
61(5) . . .
53(4) . . .
49(4) . . .
52(4) . . .
56(4) . . .
62(4) . . .
63(4) . . .
62(4) . . .
63(4) . . .
57(4) . . .
45(4) . . .
53(4) . . .
52(4) . . .
53(4) . . .
51(4) . . .
61(5) . . .
59(4) . . .
59(4) . . .
56(4) . . .
56(4) . . .
58(4) . . .
63(4) . . .
59(4) . . .
55(4) . . .
58(4) . . .
55(4) . . .
55(4) . . .
55(4) . . .
59(4) . . .
57(4) . . .
71(5) . . .
56(4) . . .
56(4) . . .
64(4) . . .
53(4) . . .
57(4) . . .
55(4) . . .
50(4) . . .
57(4) . . .
59(4) . . .
45.2(34) . . .
64(4) . . .
54(4) . . .
58(4) . . .
49(4) . . .
54(4) . . .
58(4) . . .
49(4) . . .
53(4) . . .
59(4) . . .
59(4) . . .
56(4) . . .
46(4) . . .
53(4) . . .
56(4) . . .
64(4) . . .
59(4) . . .
60(4) . . .
50(4) . . .
47(4) . . .
52(4) . . .
59(4) . . .
58(4) . . .
57(4) . . .
57(4) . . .
58(4) . . .
62(4) . . .
52(4) . . .
54(4) . . .
48(4) . . .
60(4) . . .
64(4) . . .
58(4) . . .
55(4) . . .
57(4) . . .
48(4) . . .
48(4) . . .
53(4) . . .
50(4) . . .
61(4) . . .
58(4) . . .
53(4) . . .
50(4) . . .
52(4) . . .
54(4) . . .
62(4) . . .
60(4) . . .
58(4) . . .
53(4) . . .
56(4) . . .
53(4) . . .
53(4) . . .
68(5) . . .
65(4) . . .
55(4) . . .
54(4) . . .
56(4) . . .
46(4) . . .
60(4) . . .
55(4) . . .
57(4) . . .
52(4) . . .
70(5) . . .
61(4) . . .
59(4) . . .
59(4) . . .
55(4) . . .
70(5) . . .
54(4) . . .
57(4) . . .
61(4) . . .
62(4) . . .
58(4) . . .
58(4) . . .
62(4) . . .
61(4) . . .
51(4) . . .
53(4) . . .
53(4) . . .
48(4) . . .
57(4) . . .
55(4) . . .
51(4) . . .
58(4) . . .
52(4) . . .
47(4) . . .
55(4) . . .
59(4) . . .
59(4) . . .
60(4) . . .
56(4) . . .
55(4) . . .
62(4) . . .
60(4) . . .
52(4) . . .
56(4) . . .
60(4) . . .
56(4) . . .
57(4) . . .
54(4) . . .
63(4) . . .
63(5) . . .
56(4) . . .
56(4) . . .
61(4) . . .
65(4) . . .
65(4) . . .
56(4) . . .
53(4) . . .
52(4) . . .
56(4) . . .
50(4) . . .
50(4) . . .
59(4) . . .
59(4) . . .
57(4) . . .
57(4) . . .
60(4) . . .
47(4) . . .
57(4) . . .
52(4) . . .
50(4) . . .
52(4) . . .
54(4) . . .
53(4) . . .
62(4) . . .
56(4) . . .
52(4) . . .
63(4) . . .
39.8(33) . . .
55(4) . . .
64(4) . . .
58(4) . . .
62(4) . . .
59(4) . . .
57(4) . . .
56(4) . . .
60(4) . . .
56(4) . . .
58(4) . . .
47(4) . . .
60(4) . . .
59(4) . . .
51(4) . . .
59(4) . . .
66(4) . . .
54(4) . . .
50(4) . . .
55(4) . . .
51(4) . . .
54(4) . . .
54(4) . . .
54(4) . . .
52(4) . . .
55(4) . . .
61(4) . . .
56(4) . . .
65(4) . . .
60(4) . . .
58(4) . . .
51(4) . . .
51(4) . . .
56(4) . . .
50(4) . . .
60(4) . . .
52(4) . . .
57(4) . . .
56(4) . . .
63(4) . . .
61(4) . . .
64(4) . . .
68(5) . . .
60(4) . . .
56(4) . . .
58(4) . . .
62(4) . . .
74(5) . . .
57(4) . . .
49(4) . . .
58(4) . . .
53(4) . . .
49(4) . . .
46(4) . . .
51(4) . . .
59(4) . . .
54(4) . . .
55(4) . . .
49(4) . . .
61(4) . . .
68(4) . . .
54(4) . . .
51(4) . . .
59(4) . . .
52(4) . . .
60(4) . . .
56(4) . . .
58(4) . . .
57(4) . . .
60(4) . . .
46(4) . . .
55(4) . . .
61(4) . . .
59(4) . . .
67(4) . . .
54(4) . . .
47(4) . . .
54(4) . . .
57(4) . . .
58(4) . . .
55(4) . . .
54(4) . . .
55(4) . . .
52(4) . . .
51(4) . . .
63(4) . . .
58(4) . . .
51(4) . . .
49(4) . . .
57(4) . . .
64(4) . . .
58(4) . . .
58(4) . . .
50(4) . . .
52(4) . . .
49(4) . . .
46(4) . . .
60(4) . . .
55(4) . . .
51(4) . . .
49(4) . . .
57(4) . . .
60(4) . . .
62(4) . . .
50(4) . . .
54(4) . . .
63(4) . . .
61(4) . . .
60(4) . . .
56(4) . . .
62(4) . . .
49(4) . . .
52(4) . . .
55(4) . . .
57(4) . . .
48(4) . . .
57(4) . . .
58(4) . . .
68(4) . . .
65(4) . . .
52(4) . . .
70(5) . . .
55(4) . . .
51(4) . . .
58(4) . . .
57(4) . . .
48(4) . . .
50(4) . . .
50(4) . . .
56(4) . . .
62(4) . . .
59(4) . . .
53(4) . . .
47(4) . . .
57(4) . . .
55(4) . . .
57(4) . . .
62(4) . . .
56(4) . . .
62(4) . . .
58(4) . . .
58(4) . . .
55(4) . . .
47(4) . . .
52(4) . . .
56(4) . . .
60(4) . . .
62(4) . . .
60(4) . . .
58(4) . . .
53(4) . . .
58(4) . . .
42.4(34) . . .
56(4) . . .
65(4) . . .
52(4) . . .
58(4) . . .
57(4) . . .
56(4) . . .
63(4) . . .
63(4) . . .
59(4) . . .
50(4) . . .
47(4) . . .
61(4) . . .
56(4) . . .
52(4) . . .
65(4) . . .
53(4) . . .
51(4) . . .
55(4) . . .
74(5) . . .
56(4) . . .
47(4) . . .
54(4) . . .
67(4) . . .
55(4) . . .
60(4) . . .
49(4) . . .
67(4) . . .
63(4) . . .
62(4) . . .
62(4) . . .
58(4) . . .
63(4) . . .
50(4) . . .
59(4) . . .
46(4) . . .
63(4) . . .
59(4) . . .
68(5) . . .
62(4) . . .
51(4) . . .
61(4) . . .
64(4) . . .
60(4) . . .
58(4) . . .
44.4(35) . . .
54(4) . . .
60(4) . . .
51(4) . . .
54(4) . . .
55(4) . . .
60(4) . . .
54(4) . . .
49(4) . . .
53(4) . . .
57(4) . . .
59(4) . . .
50(4) . . .
51(4) . . .
48(4) . . .
54(4) . . .
56(4) . . .
57(4) . . .
62(4) . . .
60(4) . . .
54(4) . . .
65(4) . . .
47(4) . . .
56(4) . . .
53(4) . . .
54(4) . . .
44.5(35) . . .
50(4) . . .
56(4) . . .
52(4) . . .
55(4) . . .
63(4) . . .
54(4) . . .
69(4) . . .
42.2(34) . . .
57(4) . . .
56(4) . . .
67(4) . . .
55(4) . . .
51(4) . . .
55(4) . . .
51(4) . . .
52(4) . . .
54(4) . . .
48(4) . . .
51(4) . . .
56(4) . . .
53(4) . . .
51(4) . . .
49(4) . . .
55(4) . . .
60(4) . . .
56(4) . . .
64(4) . . .
57(4) . . .
48(4) . . .
63(5) . . .
51(4) . . .
57(4) . . .
63(4) . . .
60(4) . . .
53(4) . . .
47(4) . . .
55(4) . . .
55(4) . . .
48(4) . . .
56(4) . . .
58(4) . . .
58(4) . . .
57(4) . . .
60(4) . . .
70(5) . . .
51(4) . . .
51(4) . . .
54(4) . . .
60(4) . . .
59(4) . . .
55(4) . . .
64(4) . . .
54(4) . . .
49(4) . . .
55(4) . . .
62(4) . . .
58(4) . . .
47(4) . . .
57(4) . . .
56(4) . . .
56(4) . . .
62(4) . . .
59(4) . . .
55(4) . . .
50(4) . . .
58(4) . . .
57(4) . . .
53(4) . . .
66(5) . . .
67(4) . . .
65(4) . . .
62(4) . . .
54(4) . . .
54(4) . . .
49(4) . . .
46(4) . . .
50(4) . . .
57(4) . . .
60(4) . . .
47(4) . . .
56(4) . . .
50(4) . . .
51(4) . . .
48(4) . . .
55(4) . . .
56(4) . . .
63(4) . . .
47(4) . . .
52(4) . . .
55(4) . . .
55(4) . . .
66(4) . . .
62(4) . . .
61(4) . . .
59(4) . . .
61(4) . . .
61(4) . . .
70(5) . . .
60(4) . . .
54(4) . . .
41.9(34) . . .
51(4) . . .
61(4) . . .
56(4) . . .
55(4) . . .
57(4) . . .
63(4) . . .
52(4) . . .
62(4) . . .
62(4) . . .
66(4) . . .
64(4) . . .
56(4) . . .
55(4) . . .
59(4) . . .
53(4) . . .
58(4) . . .
58(5) . . .
43.4(35) . . .
53(4) . . .
51(4) . . .
60(4) . . .
51(4) . . .
52(4) . . .
50(4) . . .
50(4) . . .
42.3(34) . . .
51(4) . . .
59(4) . . .
56(4) . . .
57(4) . . .
56(4) . . .
50(4) . . .
52(4) . . .
59(4) . . .
56(4) . . .
47(4) . . .
59(4) . . .
51(4) . . .
66(4) . . .
51(4) . . .
56(4) . . .
55(4) . . .
57(4) . . .
60(4) . . .
58(4) . . .
48(4) . . .
56(4) . . .
57(4) . . .
51(4) . . .
58(4) . . .
57(4) . . .
53(4) . . .
59(4) . . .
57(4) . . .
52(4) . . .
56(4) . . .
54(4) . . .
56(4) . . .
46(4) . . .
58(4) . . .
71(5) . . .
51(4) . . .
49(4) . . .
55(4) . . .
44.1(35) . . .
53(4) . . .
53(4) . . .
52(4) . . .
58(4) . . .
61(4) . . .
59(4) . . .
65(4) . . .
61(4) . . .
49(4) . . .
52(4) . . .
53(4) . . .
55(4) . . .
55(4) . . .
52(4) . . .
55(4) . . .
50(4) . . .
53(4) . . .
58(4) . . .
54(4) . . .
58(4) . . .
57(4) . . .
60(4) . . .
59(4) . . .
53(4) . . .
53(4) . . .
54(4) . . .
57(4) . . .
61(4) . . .
51(4) . . .
48(4) . . .
59(4) . . .
70(4) . . .
66(4) . . .
52(4) . . .
52(4) . . .
63(4) . . .
63(4) . . .
54(4) . . .
55(4) . . .
58(4) . . .
53(4) . . .
51(4) . . .
55(4) . . .
61(4) . . .
62(4) . . .
51(4) . . .
53(4) . . .
57(4) . . .
69(5) . . .
59(4) . . .
57(4) . . .
54(4) . . .
60(4) . . .
61(4) . . .
57(4) . . .
68(4) . . .
50(4) . . .
58(4) . . .
59(4) . . .
50(4) . . .
53(4) . . .
49(4) . . .
55(4) . . .
54(4) . . .
56(4) . . .
56(4) . . .
60(4) . . .
58(4) . . .
57(4) . . .
54(4) . . .
68(4) . . .
59(4) . . .
66(4) . . .
47(4) . . .
64(4) . . .
59(4) . . .
65(4) . . .
63(4) . . .
56(4) . . .
60(4) . . .
46(4) . . .
46(4) . . .
47(4) . . .
50(4) . . .
51(4) . . .
53(4) . . .
61(4) . . .
63(4) . . .
63(4) . . .
61(4) . . .
65(4) . . .
56(4) . . .
62(4) . . .
64(4) . . .
65(5) . . .
49(4) . . .
52(4) . . .
55(4) . . .
56(4) . . .
54(4) . . .
60(4) . . .
59(4) . . .
50(4) . . .
56(4) . . .
57(4) . . .
51(4) . . .
62(4) . . .
57(4) . . .
50(4) . . .
57(4) . . .
56(4) . . .
51(4) . . .
70(5) . . .
62(4) . . .
65(4) . . .
53(4) . . .
59(4) . . .
52(4) . . .
60(5) . . .
48(4) . . .
52(4) . . .
58(4) . . .
56(4) . . .
66(4) . . .
53(4) . . .
61(4) . . .
61(4) . . .
65(4) . . .
62(4) . . .
59(4) . . .
72(4) . . .
63(4) . . .
44(4) . . .
45(4) . . .
50(4) . . .
59(4) . . .
57(4) . . .
48(4) . . .
50(4) . . .
51(4) . . .
54(4) . . .
46(4) . . .
54(4) . . .
48(4) . . .
58(4) . . .
55(4) . . .
63(4) . . .
50(4) . . .
55(4) . . .
60(4) . . .
58(4) . . .
62(4) . . .
66(5) . . .
59(4) . . .
61(4) . . .
60(4) . . .
54(4) . . .
55(4) . . .
56(4) . . .
55(4) . . .
56(4) . . .
65(4) . . .
61(4) . . .
53(4) . . .
57(4) . . .
48(4) . . .
67(4) . . .
57(4) . . .
71(5) . . .
51(4) . . .
60(4) . . .
54(4) . . .
57(4) . . .
60(4) . . .
62(4) . . .
57(4) . . .
63(4) . . .
47(4) . . .
59(4) . . .
63(4) . . .
61(4) . . .
59(4) . . .
47(4) . . .
47(4) . . .
48(4) . . .
65(4) . . .
59(4) . . .
51(4) . . .
59(4) . . .
63(4) . . .
51(4) . . .
67(5) . . .
58(4) . . .
57(4) . . .
60(4) . . .
48(4) . . .
55(4) . . .
55(4) . . .
58(4) . . .
59(4) . . .
61(4) . . .
56(4) . . .
48(4) . . .
53(4) . . .
55(4) . . .
55(4) . . .
55(4) . . .
55(4) . . .
56(4) . . .
56(4) . . .
52(4) . . .
64(4) . . .
65(4) . . .
64(4) . . .
60(4) . . .
59(4) . . .
57(4) . . .
53(4) . . .
59(4) . . .
57(4) . . .
57(4) . . .
57(4) . . .
54(4) . . .
55(4) . . .
45(4) . . .
54(4) . . .
56(4) . . .
50(4) . . .
54(4) . . .
55(4) . . .
50(4) . . .
54(4) . . .
57(4) . . .
50(4) . . .
57(4) . . .
49(4) . . .
54(4) . . .
55(4) . . .
49(4) . . .
49(4) . . .
52(4) . . .
57(4) . . .
61(4) . . .
62(4) . . .
56(4) . . .
52(4) . . .
56(4) . . .
53(4) . . .
57(4) . . .
61(4) . . .
64(4) . . .
65(4) . . .
60(4) . . .
57(4) . . .
48(4) . . .
61(4) . . .
63(4) . . .
58(4) . . .
54(4) . . .
64(4) . . .
59(4) . . .
60(4) . . .
51(4) . . .
55(4) . . .
61(4) . . .
55(4) . . .
50(4) . . .
51(4) . . .
58(4) . . .
56(4) . . .
55(4) . . .
55(4) . . .
60(4) . . .
60(4) . . .
66(5) . . .
60(4) . . .
64(4) . . .
52(4) . . .
65(4) . . .
53(4) . . .
65(4) . . .
67(4) . . .
66(4) . . .
69(5) . . .
63(4) . . .
56(4) . . .
49(4) . . .
60(4) . . .
61(4) . . .
54(4) . . .
58(4) . . .
55(4) . . .
54(4) . . .
66(5) . . .
62(4) . . .
62(4) . . .
59(4) . . .
52(4) . . .
46(4) . . .
51(4) . . .
55(4) . . .
63(4) . . .
55(4) . . .
59(4) . . .
53(4) . . .
64(4) . . .
54(4) . . .
58(4) . . .
67(4) . . .
63(4) . . .
55(4) . . .
58(4) . . .
63(4) . . .
56(4) . . .
51(4) . . .
59(4) . . .
60(4) . . .
57(4) . . .
63(4) . . .
59(4) . . .
59(4) . . .
43.9(35) . . .
62(4) . . .
47(4) . . .
44(4) . . .
61(4) . . .
50(4) . . .
47(4) . . .
53(4) . . .
54(4) . . .
52(4) . . .
54(4) . . .
54(4) . . .
59(4) . . .
48(4) . . .
49(4) . . .
51(4) . . .
58(4) . . .
47(4) . . .
56(4) . . .
52(4) . . .
56(4) . . .
50(4) . . .
60(4) . . .
54(4) . . .
46(4) . . .
55(4) . . .
53(4) . . .
56(4) . . .
45(4) . . .
62(4) . . .
72(4) . . .
56(4) . . .
55(4) . . .
54(4) . . .
60(4) . . .
59(4) . . .
59(4) . . .
53(4) . . .
53(4) . . .
58(4) . . .
59(4) . . .
53(4) . . .
54(4) . . .
54(4) . . .
60(4) . . .
54(4) . . .
57(4) . . .
58(4) . . .
59(4) . . .
54(4) . . .
59(4) . . .
55(4) . . .
57(4) . . .
67(4) . . .
49(4) . . .
61(4) . . .
54(4) . . .
61(4) . . .
59(4) . . .
55(4) . . .
59(4) . . .
48(4) . . .
63(5) . . .
57(4) . . .
58(4) . . .
71(5) . . .
54(4) . . .
62(4) . . .
45(4) . . .
62(4) . . .
51(4) . . .
57(4) . . .
58(4) . . .
57(4) . . .
56(4) . . .
63(4) . . .
65(5) . . .
56(4) . . .
59(4) . . .
54(4) . . .
58(4) . . .
61(4) . . .
58(4) . . .
58(4) . . .
64(4) . . .
58(4) . . .
54(4) . . .
61(4) . . .
57(4) . . .
52(4) . . .
63(4) . . .
55(4) . . .
56(4) . . .
48(4) . . .
52(4) . . .
64(4) . . .
61(4) . . .
52(4) . . .
47(4) . . .
62(4) . . .
45(4) . . .
45(4) . . .
54(4) . . .
48(4) . . .
61(4) . . .
46(4) . . .
53(4) . . .
57(4) . . .
53(4) . . .
64(4) . . .
57(4) . . .
54(4) . . .
57(4) . . .
50(4) . . .
52(4) . . .
55(4) . . .
65(5) . . .
54(4) . . .
48(4) . . .
60(4) . . .
57(4) . . .
61(4) . . .
60(4) . . .
58(4) . . .
55(4) . . .
57(4) . . .
60(4) . . .
58(4) . . .
55(4) . . .
55(4) . . .
65(5) . . .
53(4) . . .
57(4) . . .
59(4) . . .
52(4) . . .
51(4) . . .
57(4) . . .
55(4) . . .
55(4) . . .
52(4) . . .
53(4) . . .
58(4) . . .
61(4) . . .
60(4) . . .
63(4) . . .
54(4) . . .
48(4) . . .
56(4) . . .
62(4) . . .
47.3(35) . . .
65(5) . . .
56(4) . . .
52(4) . . .
62(4) . . .
50(4) . . .
63(4) . . .
61(4) . . .
55(4) . . .
52(4) . . .
51(4) . . .
56(4) . . .
51(4) . . .
58(4) . . .
59(4) . . .
66(4) . . .
68(4) . . .
64(4) . . .
44.1(35) . . .
56(4) . . .
57(4) . . .
61(4) . . .
63(4) . . .
58(4) . . .
55(4) . . .
54(4) . . .
57(4) . . .
58(4) . . .
57(4) . . .
49(4) . . .
48(4) . . .
57(4) . . .
52(4) . . .
58(4) . . .
66(4) . . .
56(4) . . .
49(4) . . .
53(4) . . .
53(4) . . .
52(4) . . .
60(4) . . .
73(5) . . .
59(4) . . .
52(4) . . .
55(4) . . .
53(4) . . .
65(4) . . .
66(4) . . .
41.8(33) . . .
55(4) . . .
64(4) . . .
51(4) . . .
53(4) . . .
64(4) . . .
65(4) . . .
66(4) . . .
51(4) . . .
49(4) . . .
51(4) . . .
51(4) . . .
57(4) . . .
61(4) . . .
52(4) . . .
54(4) . . .
58(4) . . .
51(4) . . .
62(4) . . .
55(4) . . .
48(4) . . .
60(4) . . .
50(4) . . .
51(4) . . .
54(4) . . .
59(4) . . .
50(4) . . .
54(4) . . .
57(4) . . .
49(4) . . .
61(4) . . .
55(4) . . .
60(4) . . .
72(4) . . .
53(4) . . .
54(4) . . .
52(4) . . .
52(4) . . .
56(4) . . .
63(4) . . .
60(4) . . .
52(4) . . .
60(4) . . .
64(4) . . .
53(4) . . .
52(4) . . .
48(4) . . .
63(4) . . .
50(4) . . .
66(4) . . .
49(4) . . .
55(4) . . .
47(4) . . .
63(4) . . .
62(4) . . .
54(4) . . .
52(4) . . .
55(4) . . .
53(4) . . .
57(4) . . .
52(4) . . .
57(4) . . .
45(4) . . .
53(4) . . .
59(4) . . .
59(4) . . .
58(4) . . .
53(4) . . .
59(4) . . .
58(4) . . .
57(4) . . .
69(5) . . .
58(4) . . .
59(4) . . .
60(4) . . .
53(4) . . .
54(4) . . .
51(4) . . .
50(4) . . .
50(4) . . .
59(4) . . .
58(4) . . .
58(4) . . .
57(4) . . .
50(4) . . .
51(4) . . .
61(4) . . .
57(4) . . .
53(4) . . .
57(4) . . .
55(4) . . .
52(4) . . .
54(4) . . .
53(4) . . .
53(4) . . .
51(4) . . .
59(4) . . .
64(4) . . .
51(4) . . .
48(4) . . .
60(4) . . .
55(4) . . .
60(4) . . .
49(4) . . .
49(4) . . .
48(4) . . .
63(4) . . .
52(4) . . .
53(4) . . .
61(4) . . .
54(4) . . .
55(4) . . .
58(4) . . .
60(4) . . .
52(4) . . .
50(4) . . .
49(4) . . .
58(4) . . .
56(4) . . .
51(4) . . .
48(4) . . .
69(4) . . .
52(4) . . .
48(4) . . .
50(4) . . .
59(4) . . .
44.5(35) . . .
48(4) . . .
61(4) . . .
50(4) . . .
61(5) . . .
58(4) . . .
54(4) . . .
57(4) . . .
59(4) . . .
47(4) . . .
55(4) . . .
50(4) . . .
43(4) . . .
45(4) . . .
58(4) . . .
54(4) . . .
51(4) . . .
60(4) . . .
57(4) . . .
63(4) . . .
44.9(35) . . .
53(4) . . .
50(4) . . .
58(4) . . .
56(4) . . .
53(4) . . .
52(4) . . .
53(4) . . .
59(4) . . .
59(4) . . .
46(4) . . .
54(4) . . .
61(4) . . .
51(4) . . .
51(4) . . .
62(4) . . .
63(4) . . .
58(4) . . .
50(4) . . .
49(4) . . .
51(4) . . .
51(4) . . .
58(4) . . .
51(4) . . .
54(4) . . .
62(4) . . .
57(4) . . .
50(4) . . .
69(5) . . .
63(4) . . .
50(4) . . .
59(4) . . .
67(4) . . .
57(4) . . .
61(4) . . .
52(4) . . .
54(4) . . .
54(4) . . .
56(4) . . .
56(4) . . .
55(4) . . .
55(4) . . .
57(4) . . .
59(4) . . .
63(4) . . .
58(4) . . .
62(4) . . .
52(4) . . .
49(4) . . .
54(4) . . .
53(4) . . .
59(4) . . .
65(5) . . .
62(4) . . .
58(4) . . .
53(4) . . .
49(4) . . .
43(4) . . .
67(5) . . .
60(4) . . .
61(4) . . .
42.1(34) . . .
48(4) . . .
49(4) . . .
48(4) . . .
61(4) . . .
56(4) . . .
53(4) . . .
58(4) . . .
51(4) . . .
59(4) . . .
51(4) . . .
49(4) . . .
54(4) . . .
55(4) . . .
49(4) . . .
60(4) . . .
49(4) . . .
57(4) . . .
60(4) . . .
60(4) . . .
62(4) . . .
53(4) . . .
52(4) . . .
55(4) . . .
64(4) . . .
60(4) . . .
53(4) . . .
56(4) . . .
66(4) . . .
53(4) . . .
49(4) . . .
53(4) . . .
57(4) . . .
52(4) . . .
58(4) . . .
61(4) . . .
56(4) . . .
53(4) . . .
54(4) . . .
57(4) . . .
48(4) . . .
51(4) . . .
56(4) . . .
53(4) . . .
60(4) . . .
55(4) . . .
44.5(35) . . .
58(4) . . .
70(4) . . .
61(4) . . .
57(4) . . .
55(4) . . .
51(4) . . .
52(4) . . .
63(4) . . .
69(4) . . .
58(4) . . .
44.9(35) . . .
54(4) . . .
57(4) . . .
42.2(35) . . .
59(4) . . .
57(4) . . .
53(4) . . .
60(4) . . .
56(4) . . .
67(4) . . .
49(4) . . .
60(4) . . .
49(4) . . .
53(4) . . .
51(4) . . .
55(4) . . .
59(4) . . .
53(4) . . .
59(4) . . .
63(4) . . .
45.9(35) . . .
52(4) . . .
65(4) . . .
67(4) . . .
53(4) . . .
54(4) . . .
50(4) . . .
47(4) . . .
55(4) . . .
62(4) . . .
61(4) . . .
60(4) . . .
62(4) . . .
51(4) . . .
56(4) . . .
71(4) . . .
57(4) . . .
61(5) . . .
58(4) . . .
52(4) . . .
61(4) . . .
60(4) . . .
52(4) . . .
48(4) . . .
55(4) . . .
63(4) . . .
63(4) . . .
66(4) . . .
70(4) . . .
67(4) . . .
63(4) . . .
68(4) . . .
65(4) . . .
58(4) . . .
60(4) . . .
59(4) . . .
60(4) . . .
50(4) . . .
53(4) . . .
58(4) . . .
44(4) . . .
51(4) . . .
49(4) . . .
53(4) . . .
55(4) . . .
53(4) . . .
58(4) . . .
52(4) . . .
60(4) . . .
50(4) . . .
68(5) . . .
57(4) . . .
48(4) . . .
54(4) . . .
48(4) . . .
58(4) . . .
50(4) . . .
61(4) . . .
64(4) . . .
68(4) . . .
59(4) . . .
48(4) . . .
61(4) . . .
59(4) . . .
52(4) . . .
43(4) . . .
52(4) . . .
52(4) . . .
56(4) . . .
61(4) . . .
49(4) . . .
59(4) . . .
49(4) . . .
58(4) . . .
56(4) . . .
55(4) . . .
50(4) . . .
48(4) . . .
57(4) . . .
59(4) . . .
53(4) . . .
62(4) . . .
51(4) . . .
50(4) . . .
60(4) . . .
53(4) . . .
54(4) . . .
60(4) . . .
63(4) . . .
53(4) . . .
56(4) . . .
53(4) . . .
55(4) . . .
57(4) . . .
64(4) . . .
59(4) . . .
58(4) . . .
64(4) . . .
55(4) . . .
51(4) . . .
49(4) . . .
60(4) . . .
49(4) . . .
56(4) . . .
49(4) . . .
61(5) . . .
54(4) . . .
48(4) . . .
45(4) . . .
58(4) . . .
50(4) . . .
49(4) . . .
61(4) . . .
60(4) . . .
66(5) . . .
62(5) . . .
59(4) . . .
66(4) . . .
48(4) . . .
52(4) . . .
59(4) . . .
65(4) . . .
56(4) . . .
55(4) . . .
53(4) . . .
64(4) . . .
54(4) . . .
41.6(34) . . .
65(4) . . .
50(4) . . .
58(4) . . .
56(4) . . .
50(4) . . .
53(4) . . .
43.4(35) . . .
60(4) . . .
58(4) . . .
55(4) . . .
51(4) . . .
50(4) . . .
46(4) . . .
59(4) . . .
55(4) . . .
53(4) . . .
53(4) . . .
57(4) . . .
56(4) . . .
54(4) . . .
57(4) . . .
67(4) . . .
61(4) . . .
49(4) . . .
68(4) . . .
56(4) . . .
59(4) . . .
54(4) . . .
48(4) . . .
44(4) . . .
64(4) . . .
53(4) . . .
61(4) . . .
54(4) . . .
56(4) . . .
50(4) . . .
59(4) . . .
60(4) . . .
53(4) . . .
48(4) . . .
49(4) . . .
59(4) . . .
61(4) . . .
70(4) . . .
66(4) . . .
58(4) . . .
49(4) . . .
60(4) . . .
54(4) . . .
51(4) . . .
48(4) . . .
55(4) . . .
63(4) . . .
59(4) . . .
49(4) . . .
54(4) . . .
50(4) . . .
55(4) . . .
55(4) . . .
60(4) . . .
47(4) . . .
46(4) . . .
51(4) . . .
48(4) . . .
59(4) . . .
56(4) . . .
60(4) . . .
54(4) . . .
57(4) . . .
53(4) . . .
52(4) . . .
51(4) . . .
54(4) . . .
62(4) . . .
57(4) . . .
55(4) . . .
62(4) . . .
57(4) . . .
59(4) . . .
54(4) . . .
50(4) . . .
57(4) . . .
57(4) . . .
55(4) . . .
60(4) . . .
54(4) . . .
59(4) . . .
55(4) . . .
58(4) . . .
57(4) . . .
64(5) . . .
60(4) . . .
59(4) . . .
55(4) . . .
67(4) . . .
59(4) . . .
56(4) . . .
54(4) . . .
61(4) . . .
58(5) . . .
52(4) . . .
55(4) . . .
53(4) . . .
51(4) . . .
62(5) . . .
59(4) . . .
53(4) . . .
61(4) . . .
65(4) . . .
58(4) . . .
54(4) . . .
47(4) . . .
51(4) . . .
64(5) . . .
53(4) . . .
49(4) . . .
57(4) . . .
61(4) . . .
54(4) . . .
59(4) . . .
57(4) . . .
57(4) . . .
56(4) . . .
58(4) . . .
56(4) . . .
51(4) . . .
48(4) . . .
51(4) . . .
56(4) . . .
53(4) . . .
51(4) . . .
56(4) . . .
59(4) . . .
51(4) . . .
60(4) . . .
48(4) . . .
53(4) . . .
56(4) . . .
60(4) . . .
59(4) . . .
51(4) . . .
61(4) . . .
55(4) . . .
49(4) . . .
49(4) . . .
53(4) . . .
54(4) . . .
60(4) . . .
55(4) . . .
53(4) . . .
47(4) . . .
60(4) . . .
58(4) . . .
60(4) . . .
48(4) . . .
55(4) . . .
64(4) . . .
66(5) . . .
54(4) . . .
46.9(35) . . .
56(4) . . .
54(4) . . .
54(4) . . .
62(4) . . .
53(4) . . .
58(4) . . .
51(4) . . .
60(4) . . .
54(4) . . .
58(4) . . .
50(4) . . .
53(4) . . .
56(4) . . .
60(4) . . .
70(5) . . .
48(4) . . .
53(4) . . .
53(4) . . .
56(4) . . .
58(4) . . .
56(4) . . .
51(4) . . .
53(4) . . .
58(4) . . .
55(4) . . .
64(4) . . .
60(4) . . .
58(4) . . .
58(4) . . .
55(4) . . .
56(4) . . .
52(4) . . .
54(4) . . .
47(4) . . .
55(4) . . .
56(4) . . .
56(4) . . .
52(4) . . .
52(4) . . .
59(4) . . .
65(4) . . .
57(4) . . .
59(4) . . .
52(4) . . .
61(4) . . .
52(4) . . .
48(4) . . .
66(5) . . .
51(4) . . .
47(4) . . .
56(4) . . .
64(4) . . .
55(4) . . .
55(4) . . .
62(4) . . .
50(4) . . .
59(4) . . .
58(4) . . .
51(4) . . .
48(4) . . .
50(4) . . .
55(4) . . .
71(5) . . .
57(4) . . .
51(4) . . .
54(4) . . .
56(4) . . .
57(4) . . .
46(4) . . .
55(4) . . .
59(4) . . .
60(4) . . .
59(4) . . .
57(4) . . .
62(4) . . .
63(4) . . .
52(4) . . .
58(4) . . .
50(4) . . .
47(4) . . .
58(4) . . .
49(4) . . .
53(4) . . .
61(4) . . .
55(4) . . .
52(4) . . .
46(4) . . .
48(4) . . .
40.5(33) . . .
52(4) . . .
55(4) . . .
57(4) . . .
51(4) . . .
62(4) . . .
59(4) . . .
51(4) . . .
62(4) . . .
57(4) . . .
55(4) . . .
47(4) . . .
54(4) . . .
60(4) . . .
55(4) . . .
55(4) . . .
60(4) . . .
66(4) . . .
52(4) . . .
61(4) . . .
59(4) . . .
56(4) . . .
59(4) . . .
57(4) . . .
59(4) . . .
60(4) . . .
54(4) . . .
51(4) . . .
61(4) . . .
57(4) . . .
51(4) . . .
58(4) . . .
64(4) . . .
56(4) . . .
49(4) . . .
56(4) . . .
50(4) . . .
42.8(34) . . .
58(4) . . .
63(4) . . .
60(4) . . .
52(4) . . .
60(4) . . .
59(4) . . .
51(4) . . .
53(4) . . .
44.2(34) . . .
57(4) . . .
48(4) . . .
61(4) . . .
65(4) . . .
64(4) . . .
52(4) . . .
57(4) . . .
55(4) . . .
55(4) . . .
60(4) . . .
61(4) . . .
54(4) . . .
57(4) . . .
50(4) . . .
71(4) . . .
53(4) . . .
59(4) . . .
68(4) . . .
60(4) . . .
54(4) . . .
50(4) . . .
57(4) . . .
53(4) . . .
55(4) . . .
62(4) . . .
67(5) . . .
59(4) . . .
44.0(34) . . .
55(4) . . .
53(4) . . .
52(4) . . .
61(4) . . .
56(4) . . .
64(4) . . .
59(4) . . .
45(4) . . .
53(4) . . .
57(4) . . .
61(4) . . .
49(4) . . .
62(5) . . .
47(4) . . .
50(4) . . .
54(4) . . .
55(4) . . .
63(4) . . .
54(4) . . .
54(4) . . .
59(4) . . .
46.7(35) . . .
64(4) . . .
68(5) . . .
60(4) . . .
57(4) . . .
61(4) . . .
48(4) . . .
46(4) . . .
62(4) . . .
62(4) . . .
64(4) . . .
56(4) . . .
59(4) . . .
51(4) . . .
54(4) . . .
54(4) . . .
58(4) . . .
48(4) . . .
43.4(35) . . .
58(4) . . .
58(4) . . .
51(4) . . .
51(4) . . .
52(4) . . .
58(4) . . .
64(4) . . .
61(4) . . .
56(4) . . .
61(4) . . .
48(4) . . .
48(4) . . .
56(4) . . .
55(4) . . .
46(4) . . .
54(4) . . .
57(4) . . .
57(4) . . .
53(4) . . .
57(4) . . .
55(4) . . .
59(4) . . .
51(4) . . .
56(4) . . .
55(4) . . .
54(4) . . .
61(4) . . .
46(4) . . .
60(4) . . .
52(4) . . .
59(4) . . .
57(4) . . .
63(4) . . .
44.9(35) . . .
53(4) . . .
63(4) . . .
57(4) . . .
52(4) . . .
52(4) . . .
71(4) . . .
53(4) . . .
59(4) . . .
54(4) . . .
48(4) . . .
48(4) . . .
53(4) . . .
52(4) . . .
55(4) . . .
51(4) . . .
66(4) . . .
49(4) . . .
54(4) . . .
43(4) . . .
51(4) . . .
48(4) . . .
60(4) . . .
49(4) . . .
53(4) . . .
63(4) . . .
46(4) . . .
66(5) . . .
64(4) . . .
56(4) . . .
63(4) . . .
53(4) . . .
54(4) . . .
58(4) . . .
56(4) . . .
52(4) . . .
48(4) . . .
59(4) . . .
54(4) . . .
52(4) . . .
67(4) . . .
60(4) . . .
62(4) . . .
60(4) . . .
56(4) . . .
54(4) . . .
56(4) . . .
54(4) . . .
47(4) . . .
61(4) . . .
52(4) . . .
57(4) . . .
49(4) . . .
59(4) . . .
60(4) . . .
63(4) . . .
63(4) . . .
59(4) . . .
56(4) . . .
52(4) . . .
59(4) . . .
54(4) . . .
43.7(35) . . .
44(4) . . .
58(4) . . .
53(4) . . .
54(4) . . .
49(4) . . .
60(4) . . .
49(4) . . .
49(4) . . .
56(4) . . .
57(4) . . .
55(4) . . .
75(5) . . .
49(4) . . .
61(4) . . .
54(4) . . .
65(4) . . .
57(4) . . .
52(4) . . .
50(4) . . .
62(4) . . .
56(4) . . .
60(4) . . .
47(4) . . .
60(4) . . .
56(4) . . .
51(4) . . .
58(4) . . .
57(4) . . .
50(4) . . .
59(4) . . .
58(4) . . .
52(4) . . .
56(4) . . .
56(4) . . .
53(4) . . .
46(4) . . .
55(4) . . .
54(4) . . .
58(4) . . .
57(4) . . .
44(4) . . .
49(4) . . .
62(4) . . .
61(4) . . .
60(4) . . .
53(4) . . .
59(4) . . .
52(4) . . .
60(4) . . .
53(4) . . .
53(4) . . .
51(4) . . .
42.5(35) . . .
57(4) . . .
62(4) . . .
47(4) . . .
56(4) . . .
68(4) . . .
59(4) . . .
67(4) . . .
52(4) . . .
50(4) . . .
45(4) . . .
49(4) . . .
53(4) . . .
61(4) . . .
47(4) . . .
54(4) . . .
56(4) . . .
51(4) . . .
52(4) . . .
57(4) . . .
53(4) . . .
51(4) . . .
58(4) . . .
58(4) . . .
58(4) . . .
53(4) . . .
58(4) . . .
65(4) . . .
56(4) . . .
57(4) . . .
57(4) . . .
49(4) . . .
58(4) . . .
56(4) . . .
51(4) . . .
59(4) . . .
63(4) . . .
61(4) . . .
53(4) . . .
54(4) . . .
63(4) . . .
56(4) . . .
54(4) . . .
50(4) . . .
66(5) . . .
60(4) . . .
59(4) . . .
62(4) . . .
65(4) . . .
54(4) . . .
56(4) . . .
55(4) . . .
50(4) . . .
56(4) . . .
47(4) . . .
61(4) . . .
57(4) . . .
51(4) . . .
65(4) . . .
62(4) . . .
55(4) . . .
60(4) . . .
53(4) . . .
53(4) . . .
46(4) . . .
40.2(33) . . .
55(4) . . .
67(4) . . .
63(4) . . .
61(4) . . .
61(4) . . .
62(4) . . .
47(4) . . .
57(4) . . .
48(4) . . .
53(4) . . .
45(4) . . .
49(4) . . .
49(4) . . .
56(4) . . .
56(4) . . .
57(4) . . .
52(4) . . .
60(4) . . .
45(4) . . .
45(4) . . .
60(4) . . .
46(4) . . .
55(4) . . .
53(4) . . .
56(4) . . .
57(4) . . .
62(4) . . .
55(4) . . .
45(4) . . .
49(4) . . .
57(4) . . .
58(4) . . .
49(4) . . .
60(4) . . .
46(4) . . .
48(4) . . .
67(4) . . .
65(4) . . .
50(4) . . .
51(4) . . .
69(4) . . .
62(4) . . .
58(4) . . .
68(4) . . .
67(4) . . .
38.1(32) . . .
52(4) . . .
54(4) . . .
47(4) . . .
52(4) . . .
55(4) . . .
58(4) . . .
54(4) . . .
44.2(35) . . .
55(4) . . .
49(4) . . .
53(4) . . .
55(4) . . .
56(4) . . .
64(4) . . .
59(4) . . .
50(4) . . .
51(4) . . .
50(4) . . .
52(4) . . .
64(4) . . .
56(4) . . .
54(4) . . .
51(4) . . .
63(4) . . .
58(4) . . .
50(4) . . .
49(4) . . .
56(4) . . .
72(4) . . .
67(4) . . .
53(4) . . .
63(5) . . .
61(4) . . .
55(4) . . .
57(4) . . .
60(4) . . .
62(4) . . .
55(4) . . .
58(4) . . .
57(4) . . .
54(4) . . .
52(4) . . .
52(4) . . .
53(4) . . .
59(4) . . .
64(5) . . .
53(4) . . .
57(4) . . .
54(4) . . .
54(4) . . .
64(4) . . .
56(4) . . .
55(4) . . .
54(4) . . .
49(4) . . .
55(4) . . .
60(4) . . .
46(4) . . .
56(4) . . .
59(4) . . .
56(4) . . .
61(4) . . .
60(4) . . .
64(4) . . .
50(4) . . .
44(4) . . .
41.3(34) . . .
57(4) . . .
57(4) . . .
73(5) . . .
50(4) . . .
64(4) . . .
50(4) . . .
58(4) . . .
62(4) . . .
51(4) . . .
56(4) . . .
55(4) . . .
58(4) . . .
61(4) . . .
52(4) . . .
58(4) . . .
48(4) . . .
55(4) . . .
57(4) . . .
48(4) . . .
52(4) . . .
53(4) . . .
59(4) . . .
66(4) . . .
60(4) . . .
57(4) . . .
52(4) . . .
55(4) . . .
54(4) . . .
64(4) . . .
62(4) . . .
54(4) . . .
64(4) . . .
56(4) . . .
53(4) . . .
61(4) . . .
54(4) . . .
57(4) . . .
51(4) . . .
59(4) . . .
58(4) . . .
62(4) . . .
57(4) . . .
52(4) . . .
54(4) . . .
64(4) . . .
52(4) . . .
62(4) . . .
63(4) . . .
53(4) . . .
56(4) . . .
55(4) . . .
56(4) . . .
62(4) . . .
66(5) . . .
50(4) . . .
58(4) . . .
62(5) . . .
47(4) . . .
62(4) . . .
65(4) . . .
52(4) . . .
47(4) . . .
51(4) . . .
51(4) . . .
57(4) . . .
60(4) . . .
59(4) . . .
56(4) . . .
60(4) . . .
53(4) . . .
58(4) . . .
62(4) . . .
71(5) . . .
57(4) . . .
52(4) . . .
47(4) . . .
48(4) . . .
65(4) . . .
58(4) . . .
64(4) . . .
63(4) . . .
55(4) . . .
59(4) . . .
56(4) . . .
65(4) . . .
51(4) . . .
50(4) . . .
57(4) . . .
60(4) . . .
56(4) . . .
52(4) . . .
54(4) . . .
60(4) . . .
55(4) . . .
53(4) . . .
45(4) . . .
49(4) . . .
49(4) . . .
55(4) . . .
50(4) . . .
55(4) . . .
45(4) . . .
53(4) . . .
64(4) . . .
51(4) . . .
55(4) . . .
56(4) . . .
61(5) . . .
52(4) . . .
54(4) . . .
59(4) . . .
56(4) . . .
52(4) . . .
58(4) . . .
56(4) . . .
58(4) . . .
57(4) . . .
49(4) . . .
44.0(34) . . .
47(4) . . .
59(4) . . .
53(4) . . .
57(4) . . .
55(4) . . .
58(4) . . .
51(4) . . .
58(4) . . .
60(4) . . .
58(4) . . .
55(4) . . .
60(4) . . .
52(4) . . .
55(4) . . .
54(4) . . .
47(4) . . .
51(4) . . .
53(4) . . .
43.4(34) . . .
55(4) . . .
57(4) . . .
54(4) . . .
45(4) . . .
48(4) . . .
59(4) . . .
57(4) . . .
49(4) . . .
52(4) . . .
45.2(35) . . .
56(4) . . .
60(4) . . .
59(4) . . .
49(4) . . .
49(4) . . .
55(4) . . .
58(4) . . .
50(4) . . .
49(4) . . .
45(4) . . .
57(4) . . .
49(4) . . .
67(5) . . .
50(4) . . .
62(4) . . .
51(4) . . .
60(4) . . .
59(4) . . .
58(4) . . .
50(4) . . .
58(4) . . .
60(4) . . .
58(4) . . .
60(4) . . .
55(4) . . .
53(4) . . .
55(4) . . .
54(4) . . .
62(4) . . .
58(4) . . .
47(4) . . .
48(4) . . .
57(4) . . .
56(4) . . .
59(4) . . .
51(4) . . .
55(4) . . .
39.7(32) . . .
54(4) . . .
59(4) . . .
59(4) . . .
56(4) . . .
61(4) . . .
55(4) . . .
53(4) . . .
57(4) . . .
61(5) . . .
57(4) . . .
56(4) . . .
57(4) . . .
58(4) . . .
55(4) . . .
57(4) . . .
53(4) . . .
54(4) . . .
55(4) . . .
51(4) . . .
65(4) . . .
59(4) . . .
46(4) . . .
54(4) . . .
71(5) . . .
60(4) . . .
48(4) . . .
50(4) . . .
53(4) . . .
50(4) . . .
53(4) . . .
65(4) . . .
52(4) . . .
64(4) . . .
63(4) . . .
66(4) . . .
61(4) . . .
48(4) . . .
67(5) . . .
61(4) . . .
45(4) . . .
59(4) . . .
55(4) . . .
54(4) . . .
59(4) . . .
60(4) . . .
46.1(35) . . .
54(4) . . .
55(4) . . .
50(4) . . .
50(4) . . .
40.5(33) . . .
58(4) . . .
53(4) . . .
62(4) . . .
58(4) . . .
50(4) . . .
60(4) . . .
52(4) . . .
57(4) . . .
53(4) . . .
52(4) . . .
57(4) . . .
56(4) . . .
54(4) . . .
47(4) . . .
55(4) . . .
53(4) . . .
51(4) . . .
63(4) . . .
57(4) . . .
61(4) . . .
57(4) . . .
55(4) . . .
47(4) . . .
50(4) . . .
49(4) . . .
56(4) . . .
56(4) . . .
55(4) . . .
50(4) . . .
62(4) . . .
55(4) . . .
48(4) . . .
55(4) . . .
42.4(34) . . .
50(4) . . .
59(4) . . .
59(4) . . .
55(4) . . .
53(4) . . .
60(4) . . .
53(4) . . .
51(4) . . .
53(4) . . .
46(4) . . .
53(4) . . .
55(4) . . .
53(4) . . .
55(4) . . .
56(4) . . .
54(4) . . .
62(4) . . .
51(4) . . .
50(4) . . .
62(4) . . .
63(4) . . .
57(4) . . .
55(4) . . .
52(4) . . .
49(4) . . .
48(4) . . .
58(4) . . .
63(4) . . .
53(4) . . .
48(4) . . .
59(4) . . .
52(4) . . .
51(4) . . .
54(4) . . .
63(4) . . .
60(4) . . .
52(4) . . .
49(4) . . .
53(4) . . .
51(4) . . .
58(4) . . .
50(4) . . .
63(4) . . .
48(4) . . .
51(4) . . .
51(4) . . .
53(4) . . .
50(4) . . .
53(4) . . .
69(4) . . .
61(4) . . .
50(4) . . .
47(4) . . .
49(4) . . .
56(4) . . .
53(4) . . .
48(4) . . .
56(4) . . .
57(4) . . .
55(4) . . .
53(4) . . .
50(4) . . .
70(4) . . .
58(4) . . .
55(4) . . .
51(4) . . .
48(4) . . .
58(4) . . .
51(4) . . .
52(4) . . .
59(4) . . .
55(4) . . .
58(4) . . .
55(4) . . .
54(4) . . .
50(4) . . .
61(4) . . .
56(4) . . .
53(4) . . .
60(4) . . .
49(4) . . .
57(4) . . .
46(4) . . .
44.0(34) . . .
56(4) . . .
56(4) . . .
56(4) . . .
63(4) . . .
51(4) . . .
59(4) . . .
55(4) . . .
59(4) . . .
44.9(35) . . .
63(4) . . .
52(4) . . .
48(4) . . .
46(4) . . .
56(4) . . .
51(4) . . .
52(4) . . .
56(4) . . .
52(4) . . .
53(4) . . .
53(4) . . .
55(4) . . .
50(4) . . .
53(4) . . .
52(4) . . .
55(4) . . .
55(4) . . .
69(5) . . .
62(4) . . .
55(4) . . .
56(4) . . .
48(4) . . .
55(4) . . .
56(4) . . .
55(4) . . .
62(4) . . .
57(4) . . .
52(4) . . .
47(4) . . .
49(4) . . .
55(4) . . .
53(4) . . .
54(4) . . .
56(4) . . .
59(4) . . .
53(4) . . .
47(4) . . .
57(4) . . .
53(4) . . .
47(4) . . .
61(4) . . .
56(4) . . .
50(4) . . .
50(4) . . .
63(4) . . .
60(4) . . .
52(4) . . .
57(4) . . .
54(4) . . .
52(4) . . .
54(4) . . .
65(4) . . .
60(4) . . .
65(4) . . .
58(4) . . .
59(4) . . .
61(4) . . .
47(4) . . .
54(4) . . .
52(4) . . .
63(4) . . .
60(4) . . .
51(4) . . .
55(4) . . .
53(4) . . .
47(4) . . .
64(4) . . .
54(4) . . .
52(4) . . .
56(4) . . .
53(4) . . .
57(4) . . .
57(4) . . .
54(4) . . .
55(4) . . .
51(4) . . .
50(4) . . .
53(4) . . .
56(4) . . .
52(4) . . .
53(4) . . .
62(4) . . .
49(4) . . .
48(4) . . .
50(4) . . .
48(4) . . .
45(4) . . .
60(4) . . .
54(4) . . .
46(4) . . .
53(4) . . .
48(4) . . .
57(4) . . .
49(4) . . .
54(4) . . .
54(4) . . .
54(4) . . .
43.6(35) . . .
49(4) . . .
56(4) . . .
56(4) . . .
62(4) . . .
55(4) . . .
60(4) . . .
51(4) . . .
52(4) . . .
63(4) . . .
56(4) . . .
52(4) . . .
53(4) . . .
50(4) . . .
61(4) . . .
51(4) . . .
56(4) . . .
53(4) . . .
53(4) . . .
52(4) . . .
56(4) . . .
59(4) . . .
58(4) . . .
62(4) . . .
51(4) . . .
66(4) . . .
64(4) . . .
57(4) . . .
58(4) . . .
59(4) . . .
48(4) . . .
56(4) . . .
51(4) . . .
59(4) . . .
44(4) . . .
63(4) . . .
57(4) . . .
54(4) . . .
60(4) . . .
48(4) . . .
56(4) . . .
52(4) . . .
52(4) . . .
68(5) . . .
54(4) . . .
43.6(35) . . .
53(4) . . .
52(4) . . .
54(4) . . .
55(4) . . .
50(4) . . .
47(4) . . .
71(5) . . .
59(4) . . .
55(4) . . .
50(4) . . .
56(4) . . .
60(4) . . .
50(4) . . .
61(4) . . .
47(4) . . .
52(4) . . .
59(4) . . .
58(4) . . .
59(4) . . .
55(4) . . .
53(4) . . .
55(4) . . .
55(4) . . .
52(4) . . .
63(4) . . .
58(4) . . .
49(4) . . .
54(4) . . .
57(4) . . .
49(4) . . .
58(4) . . .
49(4) . . .
53(4) . . .
47(4) . . .
52(4) . . .
52(4) . . .
59(4) . . .
55(4) . . .
47(4) . . .
47(4) . . .
60(4) . . .
56(4) . . .
60(4) . . .
59(4) . . .
63(4) . . .
64(4) . . .
59(4) . . .
47(4) . . .
48(4) . . .
55(4) . . .
61(4) . . .
53(4) . . .
56(4) . . .
61(4) . . .
66(4) . . .
59(4) . . .
61(4) . . .
56(4) . . .
50(4) . . .
54(4) . . .
59(4) . . .
68(4) . . .
62(4) . . .
55(4) . . .
58(4) . . .
62(4) . . .
56(4) . . .
50(4) . . .
42.5(34) . . .
51(4) . . .
47(4) . . .
61(4) . . .
56(4) . . .
54(4) . . .
54(4) . . .
45.5(34) . . .
50(4) . . .
45(4) . . .
53(4) . . .
59(4) . . .
49(4) . . .
55(4) . . .
60(4) . . .
64(4) . . .
54(4) . . .
61(4) . . .
50(4) . . .
51(4) . . .
52(4) . . .
63(4) . . .
48(4) . . .
60(4) . . .
53(4) . . .
52(4) . . .
58(4) . . .
57(4) . . .
54(4) . . .
58(4) . . .
53(4) . . .
50(4) . . .
66(4) . . .
60(4) . . .
50(4) . . .
55(4) . . .
50(4) . . .
60(4) . . .
53(4) . . .
55(4) . . .
65(4) . . .
56(4) . . .
52(4) . . .
55(4) . . .
61(4) . . .
53(4) . . .
59(4) . . .
57(4) . . .
49(4) . . .
60(4) . . .
52(4) . . .
55(5) . . .
49(4) . . .
66(4) . . .
60(4) . . .
52(4) . . .
62(4) . . .
53(4) . . .
49(4) . . .
56(4) . . .
60(4) . . .
58(4) . . .
54(4) . . .
64(4) . . .
55(4) . . .
53(4) . . .
65(4) . . .
56(4) . . .
52(4) . . .
58(4) . . .
60(4) . . .
53(4) . . .
56(4) . . .
49(4) . . .
59(4) . . .
45.9(35) . . .
54(4) . . .
54(4) . . .
60(4) . . .
55(4) . . .
58(4) . . .
51(4) . . .
57(4) . . .
58(4) . . .
51(4) . . .
52(4) . . .
52(4) . . .
54(4) . . .
47(4) . . .
54(4) . . .
50(4) . . .
48(4) . . .
60(4) . . .
54(4) . . .
52(4) . . .
56(4) . . .
54(4) . . .
53(4) . . .
57(4) . . .
58(4) . . .
51(4) . . .
54(4) . . .
53(4) . . .
47(4) . . .
48(4) . . .
51(4) . . .
46(4) . . .
47(4) . . .
57(4) . . .
49(4) . . .
58(4) . . .
55(4) . . .
55(4) . . .
63(4) . . .
56(4) . . .
42.4(34) . . .
51(4) . . .
58(4) . . .
57(4) . . .
58(4) . . .
59(4) . . .
60(4) . . .
67(4) . . .
62(4) . . .
55(4) . . .
48(4) . . .
62(4) . . .
56(4) . . .
59(4) . . .
62(4) . . .
57(4) . . .
55(4) . . .
51(4) . . .
57(4) . . .
56(4) . . .
45(4) . . .
42.2(34) . . .
46.3(35) . . .
55(4) . . .
49(4) . . .
49(4) . . .
56(4) . . .
42.0(33) . . .
44.7(35) . . .
47(4) . . .
39.2(32) . . .
54(4) . . .
49(4) . . .
45(4) . . .
48(4) . . .
55(4) . . .
57(4) . . .
54(4) . . .
55(4) . . .
58(4) . . .
47(4) . . .
57(4) . . .
50(4) . . .
51(4) . . .
60(4) . . .
57(4) . . .
49(4) . . .
58(4) . . .
51(4) . . .
64(4) . . .
58(4) . . .
48(4) . . .
51(4) . . .
50(4) . . .
56(4) . . .
55(4) . . .
67(4) . . .
53(4) . . .
59(4) . . .
49(4) . . .
58(4) . . .
53(4) . . .
57(4) . . .
61(5) . . .
50(4) . . .
54(4) . . .
50(4) . . .
46(4) . . .
62(5) . . .
55(4) . . .
47(4) . . .
53(4) . . .
61(4) . . .
56(4) . . .
53(4) . . .
50(4) . . .
41.7(33) . . .
56(4) . . .
53(4) . . .
52(4) . . .
56(4) . . .
55(4) . . .
50(4) . . .
54(4) . . .
57(4) . . .
52(4) . . .
52(4) . . .
54(4) . . .
68(4) . . .
58(4) . . .
52(4) . . .
57(4) . . .
56(4) . . .
64(4) . . .
56(4) . . .
48(4) . . .
58(4) . . .
48(4) . . .
62(4) . . .
55(4) . . .
63(4) . . .
51(4) . . .
41.3(35) . . .
48(4) . . .
48(4) . . .
54(4) . . .
63(4) . . .
45(4) . . .
51(4) . . .
51(4) . . .
57(4) . . .
54(4) . . .
53(4) . . .
53(4) . . .
45.2(35) . . .
51(4) . . .
48(4) . . .
65(4) . . .
64(4) . . .
54(4) . . .
60(4) . . .
50(4) . . .
52(4) . . .
59(4) . . .
58(4) . . .
53(4) . . .
56(4) . . .
53(4) . . .
53(4) . . .
54(4) . . .
59(4) . . .
49(4) . . .
49(4) . . .
58(4) . . .
53(4) . . .
45(4) . . .
48(4) . . .
61(4) . . .
54(4) . . .
67(4) . . .
56(4) . . .
56(4) . . .
64(4) . . .
55(4) . . .
47(4) . . .
60(4) . . .
53(4) . . .
48(4) . . .
49(4) . . .
47(4) . . .
50(4) . . .
66(5) . . .
55(4) . . .
59(4) . . .
49(4) . . .
55(4) . . .
53(4) . . .
53(4) . . .
54(4) . . .
55(4) . . .
49(4) . . .
49(4) . . .
57(4) . . .
54(4) . . .
44.1(34) . . .
50(4) . . .
47(4) . . .
56(4) . . .
52(4) . . .
61(4) . . .
57(4) . . .
52(4) . . .
51(4) . . .
58(4) . . .
50(4) . . .
53(4) . . .
52(4) . . .
60(4) . . .
53(4) . . .
59(4) . . .
57(4) . . .
64(4) . . .
56(4) . . .
53(4) . . .
45(4) . . .
57(4) . . .
61(4) . . .
56(4) . . .
56(4) . . .
52(4) . . .
52(4) . . .
49(4) . . .
52(4) . . .
59(4) . . .
51(4) . . .
56(4) . . .
56(4) . . .
48(4) . . .
57(4) . . .
48(4) . . .
62(4) . . .
58(4) . . .
47(4) . . .
48(4) . . .
56(4) . . .
56(4) . . .
56(4) . . .
53(4) . . .
63(4) . . .
56(4) . . .
59(4) . . .
54(4) . . .
51(4) . . .
52(4) . . .
52(4) . . .
56(4) . . .
61(4) . . .
51(4) . . .
58(4) . . .
47(4) . . .
54(4) . . .
55(4) . . .
59(4) . . .
57(4) . . .
56(4) . . .
50(4) . . .
39.7(34) . . .
48(4) . . .
57(4) . . .
64(4) . . .
51(4) . . .
57(4) . . .
63(4) . . .
60(4) . . .
52(4) . . .
49(4) . . .
52(4) . . .
50(4) . . .
55(4) . . .
56(4) . . .
55(4) . . .
61(4) . . .
61(4) . . .
48(4) . . .
54(4) . . .
50(4) . . .
48(4) . . .
49(4) . . .
45(4) . . .
48(4) . . .
68(5) . . .
65(4) . . .
50(4) . . .
63(4) . . .
59(4) . . .
57(4) . . .
53(4) . . .
48(4) . . .
49(4) . . .
57(4) . . .
49(4) . . .
52(4) . . .
51(4) . . .
51(4) . . .
54(4) . . .
55(4) . . .
56(4) . . .
53(4) . . .
58(4) . . .
60(4) . . .
58(4) . . .
60(4) . . .
53(4) . . .
55(4) . . .
54(4) . . .
61(4) . . .
60(4) . . .
53(4) . . .
51(4) . . .
51(4) . . .
47(4) . . .
51(4) . . .
61(4) . . .
56(4) . . .
58(4) . . .
51(4) . . .
52(4) . . .
53(4) . . .
51(4) . . .
58(4) . . .
60(4) . . .
49(4) . . .
49(4) . . .
40(4) . . .
51(4) . . .
65(4) . . .
52(4) . . .
59(4) . . .
48(4) . . .
50(4) . . .
45.3(35) . . .
48(4) . . .
57(4) . . .
63(4) . . .
57(4) . . .
61(4) . . .
51(4) . . .
45(4) . . .
46.0(34) . . .
50(4) . . .
46(4) . . .
53(4) . . .
46(4) . . .
52(4) . . .
46(4) . . .
57(4) . . .
47(4) . . .
51(4) . . .
51(4) . . .
45(4) . . .
62(4) . . .
57(4) . . .
56(4) . . .
52(4) . . .
56(4) . . .
52(4) . . .
51(4) . . .
44(4) . . .
54(4) . . .
62(4) . . .
52(4) . . .
61(4) . . .
59(4) . . .
49(4) . . .
45(4) . . .
43.5(35) . . .
57(4) . . .
57(4) . . .
56(4) . . .
51(4) . . .
52(4) . . .
54(4) . . .
55(4) . . .
55(4) . . .
57(4) . . .
57(4) . . .
46(4) . . .
48(4) . . .
44(4) . . .
61(4) . . .
57(4) . . .
56(4) . . .
54(4) . . .
58(4) . . .
56(4) . . .
51(4) . . .
47(4) . . .
51(4) . . .
55(4) . . .
66(4) . . .
50(4) . . .
59(4) . . .
55(4) . . .
54(4) . . .
55(4) . . .
61(4) . . .
54(4) . . .
63(4) . . .
63(4) . . .
62(4) . . .
57(4) . . .
56(4) . . .
60(4) . . .
53(4) . . .
60(4) . . .
58(4) . . .
53(4) . . .
59(4) . . .
55(4) . . .
47(4) . . .
59(4) . . .
54(4) . . .
49(4) . . .
52(4) . . .
63(4) . . .
71(5) . . .
55(4) . . .
52(4) . . .
48(4) . . .
57(4) . . .
48(4) . . .
62(4) . . .
61(4) . . .
58(4) . . .
59(4) . . .
60(4) . . .
56(4) . . .
56(4) . . .
58(4) . . .
58(4) . . .
43(4) . . .
49(4) . . .
61(4) . . .
56(4) . . .
54(4) . . .
48(4) . . .
52(4) . . .
52(4) . . .
46(4) . . .
50(4) . . .
57(4) . . .
50(4) . . .
58(4) . . .
50(4) . . .
57(4) . . .
54(4) . . .
55(4) . . .
56(4) . . .
56(4) . . .
57(4) . . .
57(4) . . .
61(4) . . .
54(4) . . .
48(4) . . .
68(4) . . .
49(4) . . .
54(4) . . .
55(4) . . .
62(4) . . .
61(4) . . .
47(4) . . .
48(4) . . .
47(4) . . .
50(4) . . .
51(4) . . .
55(4) . . .
56(4) . . .
46(4) . . .
54(4) . . .
58(4) . . .
53(4) . . .
49(4) . . .
53(4) . . .
46(4) . . .
61(4) . . .
58(4) . . .
59(4) . . .
51(4) . . .
53(4) . . .
44.5(34) . . .
50(4) . . .
55(4) . . .
66(4) . . .
49(4) . . .
59(4) . . .
60(4) . . .
45(4) . . .
64(4) . . .
63(4) . . .
49(4) . . .
55(4) . . .
60(4) . . .
56(4) . . .
60(4) . . .
56(4) . . .
57(4) . . .
49(4) . . .
54(4) . . .
64(4) . . .
60(4) . . .
55(4) . . .
47(4) . . .
49(4) . . .
60(4) . . .
59(4) . . .
64(4) . . .
66(4) . . .
58(4) . . .
59(4) . . .
56(4) . . .
53(4) . . .
54(4) . . .
53(4) . . .
45(4) . . .
55(4) . . .
53(4) . . .
44.7(35) . . .
49(4) . . .
51(4) . . .
66(4) . . .
51(4) . . .
48(4) . . .
60(4) . . .
60(4) . . .
54(4) . . .
50(4) . . .
54(4) . . .
62(4) . . .
54(4) . . .
51(4) . . .
53(4) . . .
51(4) . . .
63(4) . . .
49(4) . . .
53(4) . . .
53(4) . . .
58(4) . . .
64(4) . . .
49(4) . . .
41.4(34) . . .
49(4) . . .
44.2(34) . . .
47(4) . . .
53(4) . . .
52(4) . . .
48(4) . . .
56(4) . . .
55(4) . . .
68(5) . . .
52(4) . . .
65(4) . . .
65(4) . . .
44(4) . . .
51(4) . . .
58(4) . . .
48(4) . . .
64(4) . . .
54(4) . . .
50(4) . . .
48(4) . . .
52(4) . . .
68(4) . . .
70(4) . . .
67(5) . . .
53(4) . . .
57(4) . . .
62(4) . . .
54(4) . . .
49(4) . . .
57(4) . . .
59(4) . . .
53(4) . . .
46(4) . . .
51(4) . . .
48(4) . . .
52(4) . . .
51(4) . . .
50(4) . . .
54(4) . . .
56(4) . . .
63(4) . . .
50(4) . . .
56(4) . . .
62(4) . . .
50(4) . . .
46(4) . . .
49(4) . . .
54(4) . . .
47(4) . . .
51(4) . . .
55(4) . . .
46.2(35) . . .
55(4) . . .
53(4) . . .
53(4) . . .
58(4) . . .
48(4) . . .
54(4) . . .
57(4) . . .
53(4) . . .
53(4) . . .
57(4) . . .
45(4) . . .
52(4) . . .
48(4) . . .
49(4) . . .
55(4) . . .
50(4) . . .
53(4) . . .
54(4) . . .
48(4) . . .
57(4) . . .
51(4) . . .
56(4) . . .
47(4) . . .
48(4) . . .
55(4) . . .
51(4) . . .
52(4) . . .
54(4) . . .
61(4) . . .
54(4) . . .
61(4) . . .
55(4) . . .
45.0(35) . . .
63(4) . . .
46(4) . . .
47(4) . . .
56(4) . . .
57(4) . . .
51(4) . . .
54(4) . . .
60(4) . . .
52(4) . . .
48(4) . . .
57(4) . . .
51(4) . . .
55(4) . . .
70(4) . . .
60(4) . . .
54(4) . . .
54(4) . . .
51(4) . . .
56(4) . . .
50(4) . . .
50(4) . . .
54(4) . . .
52(4) . . .
56(4) . . .
50(4) . . .
47(4) . . .
49(4) . . .
48(4) . . .
51(4) . . .
51(4) . . .
56(4) . . .
62(4) . . .
55(4) . . .
58(4) . . .
58(4) . . .
48(4) . . .
59(4) . . .
56(4) . . .
56(4) . . .
60(4) . . .
56(4) . . .
53(4) . . .
60(4) . . .
53(4) . . .
61(4) . . .
57(4) . . .
54(4) . . .
48(4) . . .
57(4) . . .
51(4) . . .
62(4) . . .
56(4) . . .
62(4) . . .
57(4) . . .
51(4) . . .
61(4) . . .
57(4) . . .
62(4) . . .
46(4) . . .
47(4) . . .
57(4) . . .
55(4) . . .
61(4) . . .
46(4) . . .
50(4) . . .
45(4) . . .
55(4) . . .
47(4) . . .
59(4) . . .
53(4) . . .
59(4) . . .
57(4) . . .
53(4) . . .
53(4) . . .
54(4) . . .
48(4) . . .
53(4) . . .
47(4) . . .
49(4) . . .
51(4) . . .
54(4) . . .
58(4) . . .
60(4) . . .
45.3(35) . . .
45.2(35) . . .
54(4) . . .
59(4) . . .
43.7(35) . . .
52(4) . . .
55(4) . . .
62(4) . . .
55(4) . . .
46(4) . . .
50(4) . . .
49(4) . . .
53(4) . . .
55(4) . . .
55(4) . . .
54(4) . . .
62(4) . . .
54(4) . . .
49(4) . . .
59(4) . . .
54(4) . . .
60(4) . . .
55(4) . . .
52(4) . . .
57(4) . . .
53(4) . . .
46(4) . . .
53(4) . . .
50(4) . . .
50(4) . . .
50(4) . . .
59(4) . . .
62(5) . . .
52(4) . . .
47(4) . . .
49(4) . . .
55(4) . . .
59(4) . . .
55(4) . . .
45(4) . . .
55(4) . . .
59(4) . . .
59(4) . . .
53(4) . . .
53(4) . . .
60(4) . . .
59(4) . . .
60(4) . . .
55(4) . . .
46.4(35) . . .
48(4) . . .
52(4) . . .
48(4) . . .
52(4) . . .
53(4) . . .
55(4) . . .
62(4) . . .
50(4) . . .
49(4) . . .
44.2(34) . . .
46(4) . . .
63(4) . . .
55(4) . . .
55(4) . . .
51(4) . . .
61(4) . . .
53(4) . . .
43.0(35) . . .
63(4) . . .
68(4) . . .
50(4) . . .
57(4) . . .
59(4) . . .
61(4) . . .
48(4) . . .
53(4) . . .
59(4) . . .
55(4) . . .
50(4) . . .
57(4) . . .
58(4) . . .
51(4) . . .
48(4) . . .
62(4) . . .
53(4) . . .
69(5) . . .
46(4) . . .
45(4) . . .
52(4) . . .
51(4) . . .
61(4) . . .
57(4) . . .
51(4) . . .
57(4) . . .
55(4) . . .
50(4) . . .
47(4) . . .
61(4) . . .
52(4) . . .
49(4) . . .
49(4) . . .
48(4) . . .
56(4) . . .
56(4) . . .
63(4) . . .
55(4) . . .
56(4) . . .
50(4) . . .
47(4) . . .
52(4) . . .
47(4) . . .
48(4) . . .
54(4) . . .
60(4) . . .
50(4) . . .
64(5) . . .
53(4) . . .
46(4) . . .
52(4) . . .
56(4) . . .
59(4) . . .
56(4) . . .
47(4) . . .
54(4) . . .
58(4) . . .
61(4) . . .
58(4) . . .
68(4) . . .
51(4) . . .
50(4) . . .
54(4) . . .
53(4) . . .
54(4) . . .
46(4) . . .
59(4) . . .
56(4) . . .
51(4) . . .
53(4) . . .
49(4) . . .
60(4) . . .
51(4) . . .
46(4) . . .
52(4) . . .
44.3(34) . . .
52(4) . . .
41(4) . . .
38.3(35) . . .
44(4) . . .
54(4) . . .
59(4) . . .
53(4) . . .
47(4) . . .
61(4) . . .
51(4) . . .
44.5(35) . . .
49(4) . . .
55(4) . . .
53(4) . . .
41.6(33) . . .
47(4) . . .
63(4) . . .
59(4) . . .
49(4) . . .
52(4) . . .
57(4) . . .
53(4) . . .
48(4) . . .
55(4) . . .
69(5) . . .
53(4) . . .
51(4) . . .
56(4) . . .
54(4) . . .
57(4) . . .
47(4) . . .
52(4) . . .
49(4) . . .
56(4) . . .
59(4) . . .
49(4) . . .
54(4) . . .
63(4) . . .
60(4) . . .
54(4) . . .
56(4) . . .
55(4) . . .
43.4(34) . . .
62(4) . . .
59(4) . . .
44(4) . . .
58(4) . . .
55(4) . . .
55(4) . . .
54(4) . . .
50(4) . . .
58(4) . . .
59(4) . . .
58(4) . . .
55(4) . . .
55(4) . . .
63(4) . . .
48(4) . . .
53(4) . . .
56(4) . . .
55(4) . . .
43.5(34) . . .
56(4) . . .
48(4) . . .
54(4) . . .
55(4) . . .
59(4) . . .
52(4) . . .
51(4) . . .
55(4) . . .
58(4) . . .
52(4) . . .
57(4) . . .
44(4) . . .
52(4) . . .
44(4) . . .
43.0(34) . . .
52(4) . . .
63(4) . . .
56(4) . . .
50(4) . . .
47(4) . . .
45(4) . . .
55(4) . . .
59(4) . . .
54(4) . . .
48(4) . . .
42.5(34) . . .
50(4) . . .
56(4) . . .
51(4) . . .
63(4) . . .
57(4) . . .
44.5(35) . . .
55(4) . . .
56(4) . . .
48(4) . . .
48(4) . . .
54(4) . . .
51(4) . . .
47(4) . . .
49(4) . . .
53(4) . . .
56(4) . . .
59(4) . . .
57(4) . . .
54(4) . . .
46(4) . . .
46(4) . . .
50(4) . . .
51(4) . . .
52(4) . . .
51(4) . . .
48(4) . . .
52(4) . . .
52(4) . . .
59(4) . . .
47(4) . . .
50(4) . . .
64(5) . . .
54(4) . . .
65(4) . . .
48(4) . . .
48(4) . . .
50(4) . . .
56(4) . . .
61(4) . . .
60(4) . . .
54(4) . . .
52(4) . . .
54(4) . . .
54(4) . . .
58(4) . . .
53(4) . . .
52(4) . . .
51(4) . . .
52(4) . . .
44(4) . . .
59(4) . . .
48(4) . . .
52(4) . . .
53(4) . . .
58(4) . . .
49(4) . . .
54(4) . . .
60(4) . . .
49(4) . . .
56(4) . . .
52(4) . . .
51(4) . . .
43.2(34) . . .
62(4) . . .
59(4) . . .
49(4) . . .
56(4) . . .
55(4) . . .
48(4) . . .
55(4) . . .
49(4) . . .
50(4) . . .
48(4) . . .
54(4) . . .
52(4) . . .
52(4) . . .
47(4) . . .
49(4) . . .
49(4) . . .
51(4) . . .
67(4) . . .
48(4) . . .
48(4) . . .
57(4) . . .
47.3(35) . . .
62(4) . . .
51(4) . . .
49(4) . . .
55(4) . . .
55(4) . . .
49(4) . . .
46(4) . . .
54(4) . . .
47(4) . . .
49(4) . . .
58(4) . . .
59(4) . . .
56(4) . . .
55(4) . . .
49(4) . . .
40.8(35) . . .
48(4) . . .
51(4) . . .
56(4) . . .
51(4) . . .
45(4) . . .
49(4) . . .
54(4) . . .
50(4) . . .
56(4) . . .
44(4) . . .
54(4) . . .
48(4) . . .
55(4) . . .
60(4) . . .
49(4) . . .
54(4) . . .
41.1(34) . . .
54(4) . . .
57(4) . . .
49(4) . . .
58(4) . . .
48(4) . . .
51(4) . . .
54(4) . . .
42.8(33) . . .
46(4) . . .
49(4) . . .
51(4) . . .
46(4) . . .
61(4) . . .
52(4) . . .
48(4) . . .
57(4) . . .
60(4) . . .
63(4) . . .
61(4) . . .
56(4) . . .
46(4) . . .
52(4) . . .
62(4) . . .
44.6(35) . . .
57(4) . . .
60(4) . . .
50(4) . . .
51(4) . . .
52(4) . . .
54(4) . . .
65(4) . . .
63(4) . . .
66(4) . . .
64(4) . . .
55(4) . . .
60(4) . . .
51(4) . . .
55(4) . . .
51(4) . . .
61(4) . . .
60(4) . . .
59(4) . . .
59(4) . . .
43.4(35) . . .
56(4) . . .
53(4) . . .
54(4) . . .
49(4) . . .
52(4) . . .
49(4) . . .
46(4) . . .
52(4) . . .
44.5(35) . . .
49(4) . . .
54(4) . . .
56(4) . . .
56(4) . . .
53(4) . . .
49(4) . . .
45(4) . . .
53(4) . . .
44(4) . . .
47(4) . . .
57(4) . . .
58(4) . . .
55(4) . . .
57(4) . . .
54(4) . . .
51(4) . . .
47(4) . . .
51(4) . . .
67(4) . . .
46(4) . . .
57(4) . . .
58(4) . . .
56(4) . . .
56(4) . . .
57(4) . . .
58(4) . . .
59(4) . . .
48(4) . . .
59(4) . . .
47(4) . . .
53(4) . . .
52(4) . . .
46(4) . . .
52(4) . . .
50(4) . . .
49(4) . . .
51(4) . . .
44(4) . . .
48(4) . . .
53(4) . . .
52(4) . . .
57(4) . . .
63(4) . . .
54(4) . . .
55(4) . . .
47(4) . . .
61(4) . . .
50(4) . . .
52(4) . . .
47(4) . . .
51(4) . . .
54(4) . . .
59(4) . . .
60(4) . . .
51(4) . . .
51(4) . . .
58(4) . . .
50(4) . . .
51(4) . . .
48(4) . . .
54(4) . . .
54(4) . . .
47(4) . . .
54(4) . . .
47(4) . . .
43(4) . . .
51(4) . . .
55(4) . . .
47(4) . . .
51(4) . . .
48(4) . . .
53(4) . . .
59(4) . . .
52(4) . . .
44(4) . . .
46(4) . . .
56(4) . . .
48(4) . . .
44.3(35) . . .
42.6(34) . . .
51(4) . . .
52(4) . . .
57(4) . . .
55(4) . . .
53(4) . . .
53(4) . . .
57(4) . . .
65(4) . . .
58(4) . . .
60(4) . . .
58(4) . . .
55(4) . . .
63(4) . . .
52(4) . . .
51(4) . . .
47(4) . . .
58(4) . . .
45(4) . . .
44.1(34) . . .
54(4) . . .
46(4) . . .
39.8(33) . . .
46(4) . . .
44.8(35) . . .
45(4) . . .
40.0(34) . . .
45(4) . . .
43.3(34) . . .
61(4) . . .
57(4) . . .
57(4) . . .
54(4) . . .
57(4) . . .
51(4) . . .
59(4) . . .
51(4) . . .
51(4) . . .
47(4) . . .
55(4) . . .
51(4) . . .
45(4) . . .
64(4) . . .
46(4) . . .
51(4) . . .
42(4) . . .
50(4) . . .
48(4) . . .
53(4) . . .
46(4) . . .
57(4) . . .
66(4) . . .
51(4) . . .
50(4) . . .
50(4) . . .
48(4) . . .
66(4) . . .
58(4) . . .
61(4) . . .
48(4) . . .
47(4) . . .
52(4) . . .
39.4(33) . . .
60(4) . . .
48(4) . . .
51(4) . . .
49(4) . . .
49(4) . . .
49(4) . . .
57(4) . . .
47(4) . . .
55(4) . . .
61(4) . . .
63(4) . . .
55(4) . . .
52(4) . . .
53(4) . . .
55(4) . . .
59(4) . . .
48(4) . . .
52(4) . . .
41(4) . . .
50(4) . . .
57(4) . . .
53(4) . . .
52(4) . . .
52(4) . . .
62(4) . . .
42(4) . . .
57(4) . . .
52(4) . . .
55(4) . . .
50(4) . . .
48(4) . . .
53(4) . . .
50(4) . . .
60(4) . . .
57(4) . . .
63(4) . . .
58(4) . . .
44(4) . . .
49(4) . . .
49(4) . . .
46(4) . . .
46(4) . . .
40.1(33) . . .
53(4) . . .
47(4) . . .
59(4) . . .
64(4) . . .
52(4) . . .
54(4) . . .
61(4) . . .
57(4) . . .
54(4) . . .
50(4) . . .
44.9(34) . . .
55(4) . . .
53(4) . . .
56(4) . . .
45.5(35) . . .
49(4) . . .
55(4) . . .
55(4) . . .
51(4) . . .
54(4) . . .
60(4) . . .
47(4) . . .
53(4) . . .
42(4) . . .
39.8(33) . . .
54(4) . . .
50(4) . . .
47(4) . . .
58(4) . . .
59(4) . . .
50(4) . . .
45.5(35) . . .
48(4) . . .
48(4) . . .
37.8(33) . . .
48(4) . . .
49(4) . . .
47(4) . . .
44(4) . . .
55(4) . . .
50(4) . . .
52(4) . . .
57(4) . . .
47(4) . . .
51(4) . . .
40.8(33) . . .
53(4) . . .
49(4) . . .
60(4) . . .
55(4) . . .
47(4) . . .
57(4) . . .
57(4) . . .
56(4) . . .
49(4) . . .
46(4) . . .
52(4) . . .
52(4) . . .
51(4) . . .
50(4) . . .
63(4) . . .
52(4) . . .
55(4) . . .
55(4) . . .
45(4) . . .
46(4) . . .
46(4) . . .
71(5) . . .
61(4) . . .
46(4) . . .
50(4) . . .
52(4) . . .
51(4) . . .
60(4) . . .
58(4) . . .
64(4) . . .
56(4) . . .
54(4) . . .
54(4) . . .
64(4) . . .
51(4) . . .
58(4) . . .
58(4) . . .
43(4) . . .
66(4) . . .
56(4) . . .
46(4) . . .
53(4) . . .
59(4) . . .
47(4) . . .
64(4) . . .
46(4) . . .
51(4) . . .
53(4) . . .
56(4) . . .
53(4) . . .
51(4) . . .
63(4) . . .
53(4) . . .
56(4) . . .
47(4) . . .
50(4) . . .
50(4) . . .
55(4) . . .
53(4) . . .
52(4) . . .
49(4) . . .
55(4) . . .
51(4) . . .
56(4) . . .
55(4) . . .
56(4) . . .
56(4) . . .
45(4) . . .
55(4) . . .
54(4) . . .
56(4) . . .
56(4) . . .
52(4) . . .
44(4) . . .
47(4) . . .
50(4) . . .
53(4) . . .
47(4) . . .
51(4) . . .
53(4) . . .
55(4) . . .
49(4) . . .
55(4) . . .
52(4) . . .
60(4) . . .
59(4) . . .
58(4) . . .
55(4) . . .
51(4) . . .
54(4) . . .
50(4) . . .
55(4) . . .
61(4) . . .
61(4) . . .
46(4) . . .
58(4) . . .
54(4) . . .
48(4) . . .
44(4) . . .
45(4) . . .
46(4) . . .
47(4) . . .
47(4) . . .
55(4) . . .
50(4) . . .
47(4) . . .
53(4) . . .
52(4) . . .
41(4) . . .
46(4) . . .
67(4) . . .
53(4) . . .
51(4) . . .
52(4) . . .
48(4) . . .
44.0(35) . . .
53(4) . . .
45.1(35) . . .
52(4) . . .
60(4) . . .
44(4) . . .
56(4) . . .
45(4) . . .
52(4) . . .
49(4) . . .
51(4) . . .
44.9(35) . . .
53(4) . . .
58(4) . . .
54(4) . . .
55(4) . . .
50(4) . . .
50(4) . . .
52(4) . . .
47(4) . . .
59(4) . . .
51(4) . . .
51(4) . . .
55(4) . . .
53(4) . . .
49(4) . . .
60(4) . . .
57(4) . . .
50(4) . . .
39.5(34) . . .
51(4) . . .
44.2(35) . . .
53(4) . . .
55(4) . . .
51(4) . . .
57(4) . . .
55(4) . . .
49(4) . . .
52(4) . . .
49(4) . . .
52(4) . . .
58(4) . . .
49(4) . . .
56(4) . . .
59(4) . . .
45.3(35) . . .
47(4) . . .
57(4) . . .
60(4) . . .
53(4) . . .
58(4) . . .
52(4) . . .
49(4) . . .
60(4) . . .
56(4) . . .
49(4) . . .
50(4) . . .
59(4) . . .
49(4) . . .
42(4) . . .
50(4) . . .
47(4) . . .
49(4) . . .
49(4) . . .
42.4(34) . . .
53(4) . . .
50(4) . . .
49(4) . . .
51(4) . . .
49(4) . . .
38.5(32) . . .
52(4) . . .
50(4) . . .
40.3(35) . . .
49(4) . . .
49(4) . . .
53(4) . . .
49(4) . . .
50(4) . . .
51(4) . . .
54(4) . . .
49(4) . . .
47(4) . . .
46.3(35) . . .
49(4) . . .
50(4) . . .
47(4) . . .
62(4) . . .
58(4) . . .
46(4) . . .
52(4) . . .
48(4) . . .
45(4) . . .
49(4) . . .
54(4) . . .
47(4) . . .
45(4) . . .
56(4) . . .
60(4) . . .
55(4) . . .
49(4) . . .
46(4) . . .
54(4) . . .
52(4) . . .
45.1(34) . . .
59(4) . . .
60(4) . . .
55(4) . . .
39.3(33) . . .
57(4) . . .
52(4) . . .
46(4) . . .
58(4) . . .
56(4) . . .
52(4) . . .
50(4) . . .
56(4) . . .
52(4) . . .
45(4) . . .
47(4) . . .
44(4) . . .
53(4) . . .
60(4) . . .
55(4) . . .
57(4) . . .
60(4) . . .
56(4) . . .
47(4) . . .
46(4) . . .
53(4) . . .
52(4) . . .
57(4) . . .
49(4) . . .
63(4) . . .
48(4) . . .
51(4) . . .
56(4) . . .
57(4) . . .
53(4) . . .
65(4) . . .
46(4) . . .
43.0(35) . . .
55(4) . . .
46(4) . . .
53(4) . . .
40.9(34) . . .
45(4) . . .
45.7(35) . . .
50(4) . . .
45(4) . . .
52(4) . . .
48(4) . . .
46(4) . . .
58(4) . . .
57(4) . . .
57(4) . . .
56(4) . . .
66(4) . . .
57(4) . . .
48(4) . . .
49(4) . . .
50(4) . . .
40.0(34) . . .
41.7(34) . . .
53(4) . . .
43.9(34) . . .
53(4) . . .
48(4) . . .
52(4) . . .
46(4) . . .
46(4) . . .
50(4) . . .
47(4) . . .
49(4) . . .
64(4) . . .
46(4) . . .
51(4) . . .
51(4) . . .
43.5(34) . . .
59(4) . . .
56(4) . . .
50(4) . . .
48(4) . . .
50(4) . . .
54(4) . . .
57(4) . . .
53(4) . . .
45(4) . . .
58(4) . . .
48(4) . . .
56(4) . . .
53(4) . . .
51(4) . . .
56(4) . . .
59(4) . . .
53(4) . . .
51(4) . . .
52(4) . . .
51(4) . . .
51(4) . . .
54(4) . . .
53(4) . . .
51(4) . . .
47(4) . . .
53(4) . . .
45(4) . . .
53(4) . . .
54(4) . . .
50(4) . . .
50(4) . . .
47(4) . . .
46(4) . . .
56(4) . . .
52(4) . . .
51(4) . . .
51(4) . . .
51(4) . . .
55(4) . . .
48(4) . . .
49(4) . . .
43.1(33) . . .
59(4) . . .
48(4) . . .
52(4) . . .
55(4) . . .
68(4) . . .
51(4) . . .
56(4) . . .
49(4) . . .
47(4) . . .
42.1(34) . . .
49(4) . . .
56(4) . . .
44(4) . . .
53(4) . . .
45.8(35) . . .
48(4) . . .
55(4) . . .
56(4) . . .
49(4) . . .
59(4) . . .
52(4) . . .
47(4) . . .
54(4) . . .
42(4) . . .
41.2(35) . . .
47(4) . . .
55(4) . . .
55(4) . . .
53(4) . . .
53(4) . . .
58(4) . . .
59(4) . . .
47(4) . . .
50(4) . . .
50(4) . . .
41.0(33) . . .
52(4) . . .
48(4) . . .
42.3(35) . . .
52(4) . . .
53(4) . . .
47(4) . . .
51(4) . . .
49(4) . . .
48(4) . . .
54(4) . . .
57(4) . . .
50(4) . . .
59(4) . . .
46(4) . . .
48(4) . . .
49(4) . . .
57(4) . . .
55(4) . . .
62(4) . . .
57(4) . . .
57(4) . . .
50(4) . . .
48(4) . . .
52(4) . . .
39.2(33) . . .
48(4) . . .
47(4) . . .
45(4) . . .
49(4) . . .
39.7(33) . . .
40.8(34) . . .
40.4(34) . . .
50(4) . . .
52(4) . . .
53(4) . . .
50(4) . . .
46(4) . . .
49(4) . . .
40.9(33) . . .
48(4) . . .
54(4) . . .
52(4) . . .
56(4) . . .
44.7(34) . . .
53(4) . . .
39.9(33) . . .
51(4) . . .
42.0(34) . . .
54(4) . . .
60(4) . . .
48(4) . . .
46(4) . . .
54(4) . . .
57(4) . . .
58(4) . . .
46(4) . . .
52(4) . . .
53(4) . . .
46.3(35) . . .
43.5(35) . . .
48(4) . . .
44(4) . . .
49(4) . . .
48(4) . . .
52(4) . . .
51(4) . . .
49(4) . . .
56(4) . . .
48(4) . . .
52(4) . . .
58(4) . . .
49(4) . . .
49(4) . . .
54(4) . . .
40.7(35) . . .
50(4) . . .
50(4) . . .
44.6(34) . . .
47(4) . . .
49(4) . . .
56(4) . . .
48(4) . . .
59(4) . . .
50(4) . . .
53(4) . . .
57(4) . . .
57(4) . . .
48(4) . . .
50(4) . . .
59(4) . . .
52(4) . . .
52(4) . . .
47(4) . . .
50(4) . . .
53(4) . . .
48(4) . . .
43(4) . . .
43.2(35) . . .
54(4) . . .
55(4) . . .
48(4) . . .
43(4) . . .
48(4) . . .
54(4) . . .
46(4) . . .
46(4) . . .
50(4) . . .
51(4) . . .
52(4) . . .
47(4) . . .
47(4) . . .
52(4) . . .
50(4) . . .
50(4) . . .
56(4) . . .
53(4) . . .
53(4) . . .
57(4) . . .
58(4) . . .
52(4) . . .
47(4) . . .
47(4) . . .
46(4) . . .
48(4) . . .
56(4) . . .
43(4) . . .
49(4) . . .
52(4) . . .
60(5) . . .
44(4) . . .
45(4) . . .
44(4) . . .
52(4) . . .
55(4) . . .
56(4) . . .
50(4) . . .
53(4) . . .
61(4) . . .
52(4) . . .
55(4) . . .
53(4) . . .
49(4) . . .
61(4) . . .
43.0(35) . . .
36.3(31) . . .
53(4) . . .
46(4) . . .
51(4) . . .
39.0(33) . . .
52(4) . . .
50(4) . . .
55(4) . . .
58(4) . . .
54(4) . . .
49(4) . . .
55(4) . . .
48(4) . . .
49(4) . . .
50(4) . . .
54(4) . . .
54(4) . . .
52(4) . . .
47(4) . . .
56(4) . . .
51(4) . . .
54(4) . . .
59(4) . . .
46(4) . . .
38.9(32) . . .
48(4) . . .
51(4) . . .
50(4) . . .
57(4) . . .
46(4) . . .
54(4) . . .
49(4) . . .
57(4) . . .
45(4) . . .
49(4) . . .
47(4) . . .
47(4) . . .
42.0(34) . . .
43(4) . . .
51(4) . . .
49(4) . . .
50(4) . . .
47(4) . . .
50(4) . . .
58(4) . . .
47(4) . . .
41.4(34) . . .
53(4) . . .
51(4) . . .
49(4) . . .
52(4) . . .
56(4) . . .
41.3(33) . . .
44(4) . . .
47(4) . . .
59(4) . . .
55(4) . . .
47(4) . . .
55(4) . . .
45(4) . . .
46(4) . . .
47(4) . . .
44(4) . . .
57(4) . . .
53(4) . . .
50(4) . . .
51(4) . . .
52(4) . . .
54(4) . . .
49(4) . . .
54(4) . . .
43.8(35) . . .
50(4) . . .
52(4) . . .
47(4) . . .
53(4) . . .
49(4) . . .
53(4) . . .
43.4(35) . . .
55(4) . . .
45(4) . . .
50(4) . . .
55(4) . . .
62(4) . . .
55(4) . . .
51(4) . . .
48(4) . . .
56(4) . . .
55(4) . . .
62(4) . . .
54(4) . . .
53(4) . . .
55(4) . . .
56(4) . . .
55(4) . . .
55(4) . . .
47(4) . . .
47(4) . . .
51(4) . . .
50(4) . . .
49(4) . . .
57(4) . . .
50(4) . . .
48(4) . . .
48(4) . . .
54(4) . . .
50(4) . . .
44.4(35) . . .
55(4) . . .
48(4) . . .
58(4) . . .
53(4) . . .
59(4) . . .
48(4) . . .
53(4) . . .
36.6(32) . . .
58(4) . . .
51(4) . . .
50(4) . . .
54(4) . . .
40.8(34) . . .
48(4) . . .
47(4) . . .
40.4(34) . . .
40.1(34) . . .
52(4) . . .
54(4) . . .
60(4) . . .
53(4) . . .
41.3(34) . . .
53(4) . . .
45(4) . . .
50(4) . . .
46(4) . . .
49(4) . . .
50(4) . . .
56(4) . . .
49(4) . . .
57(4) . . .
54(4) . . .
46(4) . . .
47(4) . . .
36.4(34) . . .
45(4) . . .
47(4) . . .
52(4) . . .
39.4(32) . . .
49(4) . . .
50(4) . . .
44.9(35) . . .
47(4) . . .
51(4) . . .
47(4) . . .
53(4) . . .
51(4) . . .
52(4) . . .
53(4) . . .
41.8(35) . . .
39.3(32) . . .
54(4) . . .
56(4) . . .
66(4) . . .
62(4) . . .
50(4) . . .
62(4) . . .
48(4) . . .
49(4) . . .
40.0(33) . . .
40.7(34) . . .
44.0(35) . . .
45(4) . . .
47(4) . . .
47(4) . . .
55(4) . . .
44.0(34) . . .
51(4) . . .
53(4) . . .
50(4) . . .
52(4) . . .
48(4) . . .
46(4) . . .
51(4) . . .
54(4) . . .
67(4) . . .
51(4) . . .
50(4) . . .
58(4) . . .
42.3(35) . . .
40.7(33) . . .
51(4) . . .
59(4) . . .
57(4) . . .
54(4) . . .
62(4) . . .
42.2(33) . . .
45(4) . . .
45(4) . . .
47(4) . . .
51(4) . . .
40.9(33) . . .
59(4) . . .
46(4) . . .
53(4) . . .
42.0(34) . . .
45(4) . . .
47(4) . . .
49(4) . . .
54(4) . . .
52(4) . . .
56(4) . . .
52(4) . . .
49(4) . . .
42.8(34) . . .
54(4) . . .
49(4) . . .
43.2(35) . . .
53(4) . . .
46(4) . . .
46(4) . . .
44.1(35) . . .
54(4) . . .
60(4) . . .
54(4) . . .
45(4) . . .
58(4) . . .
43(4) . . .
55(4) . . .
53(4) . . .
43.1(34) . . .
50(4) . . .
47(4) . . .
49(4) . . .
47(4) . . .
48(4) . . .
52(4) . . .
50(4) . . .
60(4) . . .
57(4) . . .
44.8(35) . . .
52(4) . . .
47(4) . . .
45(4) . . .
52(4) . . .
41.2(34) . . .
50(4) . . .
48(4) . . .
45(4) . . .
55(4) . . .
46(4) . . .
54(4) . . .
57(4) . . .
47(4) . . .
54(4) . . .
55(4) . . .
51(4) . . .
57(4) . . .
55(4) . . .
50(4) . . .
48(4) . . .
47(4) . . .
44(4) . . .
49(4) . . .
43.8(34) . . .
54(4) . . .
52(4) . . .
50(4) . . .
54(4) . . .
50(4) . . .
46(4) . . .
50(4) . . .
51(4) . . .
51(4) . . .
41.4(33) . . .
37.4(32) . . .
46(4) . . .
52(4) . . .
56(4) . . .
51(4) . . .
38.8(32) . . .
52(4) . . .
47(4) . . .
51(4) . . .
43.7(34) . . .
57(4) . . .
57(4) . . .
44.6(35) . . .
53(4) . . .
54(4) . . .
46(4) . . .
43(4) . . .
50(4) . . .
49(4) . . .
52(4) . . .
48(4) . . .
46(4) . . .
53(4) . . .
51(4) . . .
48(4) . . .
54(4) . . .
52(4) . . .
49(4) . . .
42.8(34) . . .
43.7(34) . . .
52(4) . . .
52(4) . . .
45(4) . . .
49(4) . . .
44.5(34) . . .
54(4) . . .
52(4) . . .
47(4) . . .
46(4) . . .
45.4(35) . . .
49(4) . . .
43(4) . . .
52(4) . . .
42.9(34) . . .
45(4) . . .
53(4) . . .
47(4) . . .
54(4) . . .
57(4) . . .
46(4) . . .
38.2(33) . . .
49(4) . . .
50(4) . . .
57(4) . . .
49(4) . . .
46(4) . . .
54(4) . . .
54(4) . . .
52(4) . . .
50(4) . . .
47(4) . . .
53(4) . . .
37.5(31) . . .
48(4) . . .
55(4) . . .
58(4) . . .
49(4) . . .
48(4) . . .
50(4) . . .
56(4) . . .
45(4) . . .
39.1(32) . . .
41.3(33) . . .
50(4) . . .
47(4) . . .
51(4) . . .
46(4) . . .
39.8(33) . . .
52(4) . . .
56(4) . . .
57(4) . . .
49(4) . . .
47(4) . . .
53(4) . . .
57(4) . . .
45(4) . . .
52(4) . . .
54(4) . . .
53(4) . . .
50(4) . . .
47(4) . . .
54(4) . . .
54(4) . . .
52(4) . . .
52(4) . . .
55(4) . . .
52(4) . . .
52(4) . . .
48(4) . . .
48(4) . . .
50(4) . . .
41.4(33) . . .
49(4) . . .
49(4) . . .
53(4) . . .
57(4) . . .
51(4) . . .
58(4) . . .
51(4) . . .
36.1(32) . . .
58(5) . . .
56(4) . . .
54(4) . . .
54(4) . . .
57(4) . . .
45(4) . . .
47(4) . . .
50(4) . . .
53(4) . . .
58(4) . . .
59(4) . . .
51(4) . . .
45.3(34) . . .
57(4) . . .
51(4) . . .
48(4) . . .
44.2(35) . . .
45.7(35) . . .
46(4) . . .
51(4) . . .
47(4) . . .
43(4) . . .
56(4) . . .
50(4) . . .
38.9(34) . . .
50(4) . . .
41.3(33) . . .
45.2(35) . . .
47(4) . . .
53(4) . . .
51(4) . . .
51(4) . . .
52(4) . . .
51(4) . . .
54(4) . . .
49(4) . . .
52(4) . . .
38.1(32) . . .
46(4) . . .
50(4) . . .
51(4) . . .
49(4) . . .
52(4) . . .
41.7(33) . . .
53(4) . . .
53(4) . . .
53(4) . . .
42.4(35) . . .
46(4) . . .
54(4) . . .
61(4) . . .
55(4) . . .
56(4) . . .
45(4) . . .
43.6(35) . . .
43.1(35) . . .
47(4) . . .
47(4) . . .
45(4) . . .
46(4) . . .
46(4) . . .
60(4) . . .
51(4) . . .
58(4) . . .
46(4) . . .
49(4) . . .
53(4) . . .
55(4) . . .
45(4) . . .
56(4) . . .
50(4) . . .
48(4) . . .
49(4) . . .
54(4) . . .
51(4) . . .
49(4) . . .
41.1(33) . . .
40.2(33) . . .
54(4) . . .
47(4) . . .
45.2(34) . . .
49(4) . . .
51(4) . . .
50(4) . . .
46(4) . . .
41.4(33) . . .
56(4) . . .
52(4) . . .
52(4) . . .
44(4) . . .
48(4) . . .
59(4) . . .
47(4) . . .
54(4) . . .
62(4) . . .
47(4) . . .
54(4) . . .
57(4) . . .
53(4) . . .
45(4) . . .
41.7(34) . . .
55(4) . . .
47(4) . . .
43(4) . . .
43.7(35) . . .
39.0(32) . . .
42.4(34) . . .
52(4) . . .
50(4) . . .
55(4) . . .
49(4) . . .
42.8(34) . . .
49(4) . . .
50(4) . . .
57(4) . . .
47(4) . . .
51(4) . . .
50(4) . . .
50(4) . . .
55(4) . . .
51(4) . . .
51(4) . . .
49(4) . . .
46(4) . . .
46.5(35) . . .
45(4) . . .
48(4) . . .
52(4) . . .
44(4) . . .
52(4) . . .
44(4) . . .
40(4) . . .
46(4) . . .
48(4) . . .
48(4) . . .
56(4) . . .
45(4) . . .
48(4) . . .
52(4) . . .
52(4) . . .
44(4) . . .
43.1(34) . . .
45(4) . . .
53(4) . . .
47(4) . . .
44(4) . . .
41.0(33) . . .
45.5(35) . . .
57(4) . . .
55(4) . . .
55(4) . . .
63(5) . . .
45(4) . . .
61(4) . . .
57(4) . . .
51(4) . . .
52(4) . . .
49(4) . . .
55(4) . . .
47(4) . . .
40.2(34) . . .
50(4) . . .
49(4) . . .
46(4) . . .
48(4) . . .
47(4) . . .
50(4) . . .
49(4) . . .
51(4) . . .
55(4) . . .
49(4) . . .
48(4) . . .
47(4) . . .
44.3(34) . . .
49(4) . . .
56(4) . . .
49(4) . . .
45(4) . . .
50(4) . . .
49(4) . . .
50(4) . . .
56(4) . . .
48(4) . . .
47(4) . . .
46(4) . . .
40.4(34) . . .
40.4(33) . . .
53(4) . . .
50(4) . . .
55(4) . . .
47(4) . . .
48(4) . . .
50(4) . . .
57(4) . . .
47(4) . . .
55(4) . . .
50(4) . . .
51(4) . . .
51(4) . . .
50(4) . . .
61(5) . . .
48(4) . . .
49(4) . . .
48(4) . . .
55(4) . . .
52(4) . . .
53(4) . . .
50(4) . . .
45.0(35) . . .
40.8(34) . . .
50(4) . . .
53(4) . . .
48(4) . . .
39.6(33) . . .
36.9(32) . . .
49(4) . . .
49(4) . . .
39.5(33) . . .
45.2(35) . . .
51(4) . . .
51(4) . . .
55(4) . . .
48(4) . . .
49(4) . . .
52(4) . . .
50(4) . . .
45(4) . . .
54(4) . . .
52(4) . . .
42(4) . . .
54(4) . . .
39.8(33) . . .
43.7(34) . . .
56(4) . . .
43.4(35) . . .
55(4) . . .
49(4) . . .
66(4) . . .
47(4) . . .
58(4) . . .
46(4) . . .
50(4) . . .
51(4) . . .
58(4) . . .
46(4) . . .
49(4) . . .
54(4) . . .
52(4) . . .
53(4) . . .
49(4) . . .
47(4) . . .
39.3(33) . . .
50(4) . . .
47(4) . . .
45(4) . . .
46(4) . . .
53(4) . . .
39.6(33) . . .
53(4) . . .
59(4) . . .
48(4) . . .
43(4) . . .
37.3(32) . . .
55(4) . . .
54(4) . . .
50(4) . . .
44.9(35) . . .
47(4) . . .
43(4) . . .
55(4) . . .
54(4) . . .
54(4) . . .
47(4) . . .
48(4) . . .
56(4) . . .
48(4) . . .
46(4) . . .
49(4) . . .
47(4) . . .
55(4) . . .
36.3(31) . . .
51(4) . . .
52(4) . . .
47(4) . . .
49(4) . . .
46(4) . . .
54(4) . . .
49(4) . . .
49(4) . . .
52(4) . . .
48(4) . . .
48(4) . . .
48(4) . . .
60(4) . . .
48(4) . . .
53(4) . . .
55(4) . . .
43(4) . . .
52(4) . . .
51(4) . . .
46(4) . . .
56(4) . . .
51(4) . . .
47(4) . . .
45(4) . . .
54(4) . . .
48(4) . . .
42(4) . . .
45(4) . . .
51(4) . . .
46(4) . . .
54(4) . . .
52(4) . . .
48(4) . . .
49(4) . . .
49(4) . . .
55(4) . . .
49(4) . . .
46(4) . . .
50(4) . . .
52(4) . . .
42.6(34) . . .
49(4) . . .
45(4) . . .
42.1(34) . . .
48(4) . . .
51(4) . . .
51(4) . . .
42(4) . . .
42.7(34) . . .
53(4) . . .
44.9(34) . . .
47(4) . . .
60(4) . . .
55(4) . . .
44.9(35) . . .
47(4) . . .
55(4) . . .
50(4) . . .
46(4) . . .
50(4) . . .
45(4) . . .
54(4) . . .
45(4) . . .
59(4) . . .
57(4) . . .
46(4) . . .
46(4) . . .
44(4) . . .
56(4) . . .
46(4) . . .
58(4) . . .
53(4) . . .
57(4) . . .
50(4) . . .
47(4) . . .
49(4) . . .
59(4) . . .
47(4) . . .
49(4) . . .
48(4) . . .
46(4) . . .
53(4) . . .
59(4) . . .
53(4) . . .
41.4(33) . . .
41.1(35) . . .
48(4) . . .
52(4) . . .
49(4) . . .
43.4(34) . . .
49(4) . . .
47(4) . . .
55(4) . . .
49(4) . . .
51(4) . . .
50(4) . . .
52(4) . . .
52(4) . . .
55(4) . . .
52(4) . . .
45(4) . . .
42.8(34) . . .
47(4) . . .
44(4) . . .
42.4(33) . . .
43(4) . . .
49(4) . . .
49(4) . . .
50(4) . . .
53(4) . . .
39.6(33) . . .
48(4) . . .
54(4) . . .
37.7(32) . . .
55(4) . . .
39.7(34) . . .
47(4) . . .
49(4) . . .
53(4) . . .
44(4) . . .
57(4) . . .
48(4) . . .
46(4) . . .
58(4) . . .
47(4) . . .
45(4) . . .
48(4) . . .
54(4) . . .
55(4) . . .
50(4) . . .
52(4) . . .
50(4) . . .
51(4) . . .
43.9(35) . . .
42.0(35) . . .
53(4) . . .
56(4) . . .
45.5(35) . . .
46.3(35) . . .
40.1(32) . . .
38.9(34) . . .
47(4) . . .
47(4) . . .
41.9(34) . . .
46(4) . . .
50(4) . . .
55(4) . . .
57(4) . . .
56(4) . . .
52(4) . . .
47(4) . . .
43.2(35) . . .
47(4) . . .
40.6(33) . . .
51(4) . . .
51(4) . . .
48(4) . . .
53(4) . . .
49(4) . . .
41.7(34) . . .
48(4) . . .
53(4) . . .
52(4) . . .
59(4) . . .
49(4) . . .
52(4) . . .
47(4) . . .
48(4) . . .
48(4) . . .
38.7(34) . . .
42(4) . . .
41.0(35) . . .
48(4) . . .
53(4) . . .
45(4) . . .
55(4) . . .
54(4) . . .
47(4) . . .
43(4) . . .
43(4) . . .
49(4) . . .
48(4) . . .
55(4) . . .
52(4) . . .
46(4) . . .
45(4) . . .
46(4) . . .
60(4) . . .
44(4) . . .
44(4) . . .
47(4) . . .
48(4) . . .
40.7(33) . . .
38.3(33) . . .
49(4) . . .
46(4) . . .
37.1(32) . . .
45.0(35) . . .
49(4) . . .
37.7(34) . . .
38.7(33) . . .
46(4) . . .
50(4) . . .
44(4) . . .
39.8(34) . . .
48(4) . . .
41.2(34) . . .
53(4) . . .
56(4) . . .
50(4) . . .
46(4) . . .
38.4(33) . . .
47(4) . . .
50(4) . . .
56(4) . . .
42.0(35) . . .
48(4) . . .
49(4) . . .
53(4) . . .
44(4) . . .
40.9(34) . . .
47(4) . . .
40.2(33) . . .
51(4) . . .
40.4(33) . . .
48(4) . . .
53(4) . . .
56(4) . . .
42(4) . . .
53(4) . . .
52(4) . . .
47(4) . . .
50(4) . . .
50(4) . . .
53(4) . . .
49(4) . . .
52(4) . . .
57(4) . . .
41(4) . . .
43(4) . . .
39.8(33) . . .
58(4) . . .
49(4) . . .
52(4) . . .
45(4) . . .
47(4) . . .
39.8(32) . . .
45(4) . . .
45(4) . . .
45(4) . . .
54(4) . . .
45(4) . . .
49(4) . . .
45(4) . . .
46(4) . . .
41.7(33) . . .
49(4) . . .
56(4) . . .
37.8(32) . . .
46(4) . . .
38.2(32) . . .
46(4) . . .
42(4) . . .
51(4) . . .
42(4) . . .
42.8(34) . . .
56(4) . . .
50(4) . . .
58(4) . . .
43.2(34) . . .
49(4) . . .
41.3(34) . . .
48(4) . . .
52(4) . . .
53(4) . . .
43.7(35) . . .
43(4) . . .
51(4) . . .
45(4) . . .
49(4) . . .
41.6(34) . . .
39.9(33) . . .
44(4) . . .
40.8(35) . . .
56(4) . . .
35.6(31) . . .
35.9(31) . . .
43(4) . . .
42(4) . . .
40.8(33) . . .
51(4) . . .
47(4) . . .
48(4) . . .
37.9(32) . . .
48(4) . . .
53(4) . . .
45(4) . . .
53(4) . . .
57(4) . . .
41.8(35) . . .
45.7(35) . . .
47(4) . . .
53(4) . . .
57(4) . . .
55(4) . . .
47(4) . . .
41.2(33) . . .
36.7(32) . . .
47(4) . . .
57(4) . . .
57(4) . . .
46(4) . . .
48(4) . . .
50(4) . . .
50(4) . . .
40.6(35) . . .
46(4) . . .
55(4) . . .
45(4) . . .
51(4) . . .
38.6(32) . . .
41.5(35) . . .
54(4) . . .
54(4) . . .
53(4) . . .
59(4) . . .
46(4) . . .
44(4) . . .
43.4(34) . . .
45.2(35) . . .
54(4) . . .
47(4) . . .
45.3(35) . . .
49(4) . . .
51(4) . . .
59(4) . . .
46(4) . . .
55(4) . . .
42.9(34) . . .
47(4) . . .
50(4) . . .
56(4) . . .
53(4) . . .
51(4) . . .
50(4) . . .
48(4) . . .
48(4) . . .
46(4) . . .
49(4) . . .
44(4) . . .
46(4) . . .
50(4) . . .
47(4) . . .
45.7(35) . . .
46(4) . . .
47(4) . . .
50(4) . . .
50(4) . . .
49(4) . . .
39.8(34) . . .
44(4) . . .
55(4) . . .
52(4) . . .
45.4(35) . . .
44(4) . . .
49(4) . . .
57(4) . . .
47(4) . . .
45.0(35) . . .
46(4) . . .
49(4) . . .
40.4(35) . . .
38.7(32) . . .
35.3(31) . . .
39.2(35) . . .
49(4) . . .
51(4) . . .
46(4) . . .
47(4) . . .
50(4) . . .
49(4) . . .
49(4) . . .
53(4) . . .
42.2(34) . . .
44(4) . . .
53(4) . . .
48(4) . . .
42.1(34) . . .
43.5(34) . . .
47(4) . . .
47(4) . . .
48(4) . . .
51(4) . . .
51(4) . . .
46(4) . . .
47(4) . . .
54(4) . . .
45.1(35) . . .
55(4) . . .
54(4) . . .
57(4) . . .
43(4) . . .
51(4) . . .
53(4) . . .
53(4) . . .
51(4) . . .
39.5(33) . . .
47(4) . . .
54(4) . . .
42.2(34) . . .
41(4) . . .
45(4) . . .
47(4) . . .
42.7(34) . . .
42(4) . . .
47(4) . . .
56(4) . . .
47(4) . . .
44.6(35) . . .
57(4) . . .
52(4) . . .
47(4) . . .
46(4) . . .
46(4) . . .
50(4) . . .
39.6(34) . . .
44.9(34) . . .
46(4) . . .
55(4) . . .
41.6(33) . . .
53(4) . . .
50(4) . . .
41.6(34) . . .
45(4) . . .
45(4) . . .
51(4) . . .
51(4) . . .
46(4) . . .
47(4) . . .
58(4) . . .
49(4) . . .
38.7(32) . . .
44.2(34) . . .
47(4) . . .
45(4) . . .
52(4) . . .
45.0(35) . . .
42.9(35) . . .
47(4) . . .
48(4) . . .
45(4) . . .
46(4) . . .
56(4) . . .
46(4) . . .
39.6(34) . . .
48(4) . . .
53(4) . . .
47(4) . . .
49(4) . . .
56(4) . . .
50(4) . . .
46(4) . . .
39.3(34) . . .
58(4) . . .
48(4) . . .
54(4) . . .
47(4) . . .
44(4) . . .
41.6(34) . . .
49(4) . . .
60(4) . . .
47(4) . . .
49(4) . . .
36.7(33) . . .
44.5(34) . . .
52(4) . . .
52(4) . . .
44(4) . . .
51(4) . . .
55(4) . . .
44.3(35) . . .
42.0(34) . . .
55(4) . . .
43.2(35) . . .
48(4) . . .
36.8(32) . . .
46(4) . . .
45(4) . . .
42(4) . . .
48(4) . . .
55(4) . . .
53(4) . . .
43.0(33) . . .
57(4) . . .
35.1(32) . . .
38.4(32) . . .
47(4) . . .
46(4) . . .
48(4) . . .
51(4) . . .
45.1(35) . . .
49(4) . . .
48(4) . . .
47(4) . . .
47(4) . . .
43.5(35) . . .
53(4) . . .
49(4) . . .
57(4) . . .
58(4) . . .
47(4) . . .
47(4) . . .
52(4) . . .
62(4) . . .
43.5(34) . . .
53(4) . . .
46(4) . . .
47(4) . . .
44(4) . . .
39.5(33) . . .
49(4) . . .
49(4) . . .
42.6(34) . . .
56(4) . . .
50(4) . . .
44.3(34) . . .
51(4) . . .
43.0(35) . . .
50(4) . . .
48(4) . . .
47(4) . . .
49(4) . . .
49(4) . . .
42.4(33) . . .
41.5(33) . . .
43.0(35) . . .
46(4) . . .
35.6(30) . . .
53(4) . . .
42.9(34) . . .
49(4) . . .
39.1(33) . . .
51(4) . . .
56(4) . . .
41.0(33) . . .
44.6(35) . . .
49(4) . . .
48(4) . . .
49(4) . . .
50(4) . . .
49(4) . . .
45(4) . . .
41(4) . . .
39.7(33) . . .
41.5(33) . . .
47(4) . . .
53(4) . . .
51(4) . . .
46(4) . . .
57(4) . . .
46(4) . . .
41(4) . . .
46(4) . . .
47(4) . . .
54(4) . . .
45(4) . . .
43.6(35) . . .
44(4) . . .
38.0(32) . . .
44.5(35) . . .
49(4) . . .
50(4) . . .
45(4) . . .
46(4) . . .
47(4) . . .
41(4) . . .
41(4) . . .
48(4) . . .
42.5(34) . . .
40.4(33) . . .
41.1(35) . . .
48(4) . . .
45(4) . . .
49(4) . . .
45.2(35) . . .
42.1(35) . . .
49(4) . . .
51(4) . . .
49(4) . . .
36.7(32) . . .
51(4) . . .
49(4) . . .
46(4) . . .
42.9(34) . . .
43.2(34) . . .
44(4) . . .
44(4) . . .
40.8(35) . . .
47(4) . . .
49(4) . . .
45(4) . . .
59(5) . . .
45(4) . . .
42.2(33) . . .
43.1(34) . . .
42(4) . . .
50(4) . . .
55(4) . . .
35.9(31) . . .
46(4) . . .
54(4) . . .
42.5(34) . . .
55(4) . . .
48(4) . . .
49(4) . . .
38.4(34) . . .
40(4) . . .
44(4) . . .
38.9(32) . . .
46(4) . . .
45(4) . . .
48(4) . . .
54(4) . . .
48(4) . . .
56(4) . . .
46(4) . . .
44(4) . . .
40.7(33) . . .
48(4) . . .
47(4) . . .
50(4) . . .
36.8(32) . . .
47(4) . . .
50(4) . . .
48(4) . . .
45(4) . . .
51(4) . . .
47(4) . . .
51(4) . . .
40.7(33) . . .
47(4) . . .
40.4(35) . . .
55(4) . . .
40.6(33) . . .
38.6(32) . . .
55(4) . . .
50(4) . . .
51(4) . . .
48(4) . . .
51(4) . . .
54(4) . . .
49(4) . . .
51(4) . . .
42.3(34) . . .
49(4) . . .
45(4) . . .
39.2(34) . . .
40.7(33) . . .
55(4) . . .
38.2(32) . . .
50(4) . . .
49(4) . . .
45(4) . . .
41.0(34) . . .
45(4) . . .
42(4) . . .
42.4(34) . . .
48(4) . . .
50(4) . . .
48(4) . . .
45(4) . . .
34.8(31) . . .
34.0(31) . . .
44(4) . . .
42(4) . . .
47(4) . . .
50(4) . . .
47(4) . . .
44(4) . . .
43(4) . . .
45(4) . . .
52(4) . . .
40.4(34) . . .
53(4) . . .
52(4) . . .
49(4) . . .
50(4) . . .
46.1(35) . . .
37.2(32) . . .
52(4) . . .
42.8(34) . . .
53(4) . . .
41.1(34) . . .
43.4(34) . . .
53(4) . . .
37.0(32) . . .
47(4) . . .
49(4) . . .
53(4) . . .
40.1(33) . . .
47(4) . . .
53(4) . . .
52(4) . . .
42.2(34) . . .
51(4) . . .
40.7(33) . . .
49(4) . . .
51(4) . . .
42.6(33) . . .
49(4) . . .
45.8(35) . . .
51(4) . . .
50(4) . . .
39.8(33) . . .
50(4) . . .
40.3(34) . . .
44.2(35) . . .
47(4) . . .
44(4) . . .
56(4) . . .
47(4) . . .
52(4) . . .
51(4) . . .
48(4) . . .
54(4) . . .
53(4) . . .
42.3(34) . . .
50(4) . . .
42.0(34) . . .
45(4) . . .
45(4) . . .
48(4) . . .
48(4) . . .
43(4) . . .
51(4) . . .
44(4) . . .
53(4) . . .
58(4) . . .
36.5(34) . . .
41.2(34) . . .
41.3(34) . . .
50(4) . . .
46(4) . . .
44(4) . . .
41.9(34) . . .
46(4) . . .
38.5(32) . . .
46(4) . . .
50(4) . . .
47(4) . . .
44.8(35) . . .
38.0(32) . . .
49(4) . . .
35.6(32) . . .
43.3(34) . . .
42.2(34) . . .
46(4) . . .
46(4) . . .
40.8(34) . . .
42.6(34) . . .
64(4) . . .
47(4) . . .
45(4) . . .
46(4) . . .
43.8(35) . . .
52(4) . . .
49(4) . . .
54(4) . . .
55(4) . . .
52(4) . . .
48(4) . . .
51(4) . . .
51(4) . . .
52(4) . . .
49(4) . . .
42.9(34) . . .
41.8(34) . . .
47(4) . . .
51(4) . . .
57(4) . . .
49(4) . . .
51(4) . . .
52(4) . . .
37.1(32) . . .
47(4) . . .
42.2(33) . . .
43(4) . . .
46(4) . . .
47(4) . . .
33.5(30) . . .
39.8(33) . . .
51(4) . . .
48(4) . . .
50(4) . . .
43.9(34) . . .
48(4) . . .
47(4) . . .
49(4) . . .
51(4) . . .
42(4) . . .
44.3(35) . . .
33.1(31) . . .
32.6(31) . . .
45(4) . . .
39.5(33) . . .
47(4) . . .
53(4) . . .
43(4) . . .
38.6(35) . . .
52(4) . . .
45(4) . . .
46(4) . . .
39(4) . . .
48(4) . . .
46(4) . . .
48(4) . . .
34.9(32) . . .
37.8(33) . . .
44.7(35) . . .
43.0(34) . . .
52(4) . . .
44(4) . . .
60(4) . . .
56(4) . . .
50(4) . . .
43.8(34) . . .
63(5) . . .
49(4) . . .
39.6(34) . . .
49(4) . . .
45(4) . . .
33.6(31) . . .
46(4) . . .
38.0(33) . . .
51(4) . . .
46(4) . . .
51(4) . . .
54(4) . . .
49(4) . . .
44.0(34) . . .
49(4) . . .
52(4) . . .
52(4) . . .
45.8(35) . . .
47(4) . . .
52(4) . . .
49(4) . . .
47(4) . . .
47(4) . . .
39.1(32) . . .
45(4) . . .
51(4) . . .
46(4) . . .
45(4) . . .
55(4) . . .
41.2(33) . . .
46(4) . . .
43.4(35) . . .
55(4) . . .
40.0(34) . . .
40.0(33) . . .
52(4) . . .
43(4) . . .
40.4(32) . . .
45(4) . . .
48(4) . . .
31.4(31) . . .
45(4) . . .
54(4) . . .
50(4) . . .
40(4) . . .
42(4) . . .
43(4) . . .
44.3(35) . . .
40.9(33) . . .
37.0(33) . . .
54(4) . . .
46(4) . . .
48(4) . . .
45(4) . . .
56(4) . . .
63(4) . . .
49(4) . . .
51(4) . . .
45(4) . . .
57(4) . . .
36.6(32) . . .
47(4) . . .
50(4) . . .
50(4) . . .
54(4) . . .
39.6(33) . . .
37.8(32) . . .
50(4) . . .
48(4) . . .
47(4) . . .
57(4) . . .
44.2(35) . . .
46(4) . . .
51(4) . . .
52(4) . . .
45(4) . . .
47(4) . . .
45.8(35) . . .
44.6(34) . . .
41.8(33) . . .
37.8(33) . . .
39.7(34) . . .
48(4) . . .
54(4) . . .
44(4) . . .
53(4) . . .
46(4) . . .
38.3(33) . . .
42(4) . . .
41.5(33) . . .
58(4) . . .
44.1(35) . . .
48(4) . . .
44(4) . . .
44.0(35) . . .
56(4) . . .
57(4) . . .
47(4) . . .
46(4) . . .
44(4) . . .
45(4) . . .
53(4) . . .
50(4) . . .
34.7(33) . . .
38.5(33) . . .
55(4) . . .
41.5(34) . . .
45(4) . . .
44.4(35) . . .
47(4) . . .
47(4) . . .
50(4) . . .
47(4) . . .
45(4) . . .
42.8(34) . . .
50(4) . . .
49(4) . . .
46(4) . . .
47(4) . . .
44(4) . . .
39.2(33) . . .
36.7(31) . . .
53(4) . . .
52(4) . . .
42(4) . . .
41.6(34) . . .
49(4) . . .
50(4) . . .
49(4) . . .
42(4) . . .
48(4) . . .
41.7(34) . . .
44(4) . . .
43(4) . . .
49(4) . . .
42.3(34) . . .
37.7(33) . . .
42(4) . . .
37.2(33) . . .
36.9(32) . . .
45.4(35) . . .
45(4) . . .
44(4) . . .
57(4) . . .
42.7(35) . . .
45(4) . . .
49(4) . . .
52(4) . . .
42.6(33) . . .
42.1(34) . . .
43.0(35) . . .
46(4) . . .
43(4) . . .
43.2(35) . . .
42.1(33) . . .
50(4) . . .
50(4) . . .
32.7(31) . . .
35.7(32) . . .
39.8(33) . . .
36.0(31) . . .
45(4) . . .
47(4) . . .
52(4) . . .
45.0(35) . . .
57(4) . . .
53(4) . . .
51(4) . . .
45(4) . . .
52(4) . . .
50(4) . . .
44(4) . . .
46(4) . . .
49(4) . . .
46(4) . . .
42.8(33) . . .
50(4) . . .
46(4) . . .
55(4) . . .
45.4(35) . . .
46(4) . . .
44(4) . . .
58(4) . . .
46(4) . . .
44.1(34) . . .
45.9(35) . . .
48(4) . . .
42(4) . . .
45(4) . . .
56(4) . . .
36.4(32) . . .
47(4) . . .
44(4) . . .
48(4) . . .
47(4) . . .
46(4) . . .
33.0(32) . . .
39.1(33) . . .
45(4) . . .
56(4) . . .
48(4) . . .
48(4) . . .
47(4) . . .
45(4) . . .
39.5(33) . . .
43(4) . . .
45(4) . . .
42.8(34) . . .
51(4) . . .
52(4) . . .
57(4) . . .
54(4) . . .
46(4) . . .
40.8(33) . . .
41.4(33) . . .
51(4) . . .
48(4) . . .
39.4(34) . . .
41.8(34) . . .
48(4) . . .
47(4) . . .
53(4) . . .
50(4) . . .
42.1(34) . . .
40.0(35) . . .
45(4) . . .
43(4) . . .
55(4) . . .
51(4) . . .
38.7(33) . . .
46(4) . . .
42(4) . . .
32.7(30) . . .
42.7(34) . . .
43.6(34) . . .
44.1(35) . . .
42(4) . . .
45(4) . . .
48(4) . . .
45(4) . . .
44(4) . . .
52(4) . . .
43.2(35) . . .
40.9(33) . . .
53(4) . . .
44(4) . . .
35.5(34) . . .
37.1(35) . . .
38.3(33) . . .
48(4) . . .
40.1(33) . . .
45(4) . . .
40.2(33) . . .
45.4(35) . . .
42.5(34) . . .
45(4) . . .
46(4) . . .
38.6(33) . . .
49(4) . . .
37.3(33) . . .
47(4) . . .
43.2(35) . . .
37.3(31) . . .
44.5(34) . . .
39.9(34) . . .
45(4) . . .
46(4) . . .
42.4(34) . . .
39.7(33) . . .
38.8(34) . . .
38(4) . . .
44(4) . . .
41.6(34) . . .
45(4) . . .
48(4) . . .
51(4) . . .
44.8(35) . . .
51(4) . . .
51(4) . . .
39.5(34) . . .
45(4) . . .
50(4) . . .
41.1(34) . . .
48(4) . . .
37.1(34) . . .
37.6(33) . . .
44(4) . . .
43.0(34) . . .
40.5(33) . . .
46(4) . . .
42(4) . . .
33.6(30) . . .
33.9(31) . . .
44(4) . . .
48(4) . . .
45(4) . . .
44(4) . . .
49(4) . . .
42.4(34) . . .
49(4) . . .
52(4) . . .
37.6(32) . . .
41.2(34) . . .
46(4) . . .
43.4(35) . . .
41.5(34) . . .
42.3(34) . . .
42.7(34) . . .
45(4) . . .
49(4) . . .
50(4) . . .
47(4) . . .
40.7(34) . . .
37.3(32) . . .
37.5(33) . . .
38.9(33) . . .
42.1(35) . . .
41.6(33) . . .
44(4) . . .
38.8(34) . . .
40.2(33) . . .
38.8(32) . . .
49(4) . . .
40.7(33) . . .
50(4) . . .
54(4) . . .
44.0(34) . . .
49(4) . . .
47(4) . . .
32.7(31) . . .
38.5(32) . . .
43.4(34) . . .
46(4) . . .
40.4(34) . . .
32.5(31) . . .
44(4) . . .
38.8(33) . . .
48(4) . . .
51(4) . . .
47(4) . . .
52(4) . . .
47(4) . . .
43(4) . . .
48(4) . . .
44(4) . . .
36.9(32) . . .
44.9(35) . . .
50(4) . . .
45(4) . . .
48(4) . . .
41.8(33) . . .
35.5(32) . . .
33.8(32) . . .
41(4) . . .
35.6(32) . . .
39.8(32) . . .
43.2(34) . . .
42(4) . . .
40(4) . . .
43(4) . . .
41.4(33) . . .
45.7(35) . . .
38.5(33) . . .
47(4) . . .
48(4) . . .
49(4) . . .
46(4) . . .
47(4) . . .
39.3(34) . . .
50(4) . . .
43.5(35) . . .
46(4) . . .
44.0(34) . . .
49(4) . . .
43(4) . . .
49(4) . . .
46(4) . . .
35.0(33) . . .
40(4) . . .
37.9(31) . . .
48(4) . . .
46(4) . . .
43(4) . . .
42(4) . . .
44(4) . . .
44.0(34) . . .
48(4) . . .
50(4) . . .
53(4) . . .
42.0(34) . . .
46(4) . . .
46(4) . . .
45(4) . . .
42.2(34) . . .
51(4) . . .
39.8(33) . . .
39.1(33) . . .
46(4) . . .
46(4) . . .
39.5(33) . . .
45.1(35) . . .
46(4) . . .
33.9(31) . . .
40.2(34) . . .
46(4) . . .
50(4) . . .
44(4) . . .
51(4) . . .
56(4) . . .
57(4) . . .
51(4) . . .
42.7(35) . . .
53(4) . . .
45(4) . . .
41.4(34) . . .
43.9(35) . . .
39.1(33) . . .
35.9(33) . . .
38.2(34) . . .
41.7(34) . . .
43.0(34) . . .
46(4) . . .
45(4) . . .
41(4) . . .
35.8(31) . . .
53(4) . . .
42.4(34) . . .
45(4) . . .
48(4) . . .
44(4) . . .
47(4) . . .
42.2(35) . . .
47(4) . . .
43.2(35) . . .
49(4) . . .
38.8(32) . . .
49(4) . . .
52(4) . . .
56(4) . . .
42.5(34) . . .
39(4) . . .
46(4) . . .
43.0(35) . . .
40.3(33) . . .
52(4) . . .
35.8(31) . . .
40.7(35) . . .
46(4) . . .
49(4) . . .
42.0(34) . . .
43.5(34) . . .
37.3(31) . . .
47(4) . . .
41.2(33) . . .
40.4(33) . . .
51(4) . . .
45(4) . . .
46(4) . . .
48(4) . . .
51(4) . . .
40.7(35) . . .
35.3(31) . . .
51(4) . . .
45(4) . . .
42.2(34) . . .
46(4) . . .
44(4) . . .
53(4) . . .
46(4) . . .
39.7(33) . . .
31.2(29) . . .
53(4) . . .
46(4) . . .
51(4) . . .
50(4) . . .
42.3(34) . . .
32.5(29) . . .
45(4) . . .
41.0(33) . . .
37.6(32) . . .
39.0(33) . . .
35.6(33) . . .
34.9(31) . . .
42.2(34) . . .
49(4) . . .
47(4) . . .
48(4) . . .
41.4(35) . . .
43(4) . . .
43(4) . . .
34.0(31) . . .
46(4) . . .
41.0(33) . . .
40.3(34) . . .
29.1(29) . . .
37.9(34) . . .
46(4) . . .
43.9(35) . . .
39.0(32) . . .
38.7(33) . . .
39.4(34) . . .
45(4) . . .
50(4) . . .
39.5(33) . . .
44(4) . . .
46(4) . . .
38.0(33) . . .
46.7(35) . . .
46(4) . . .
39.9(34) . . .
47(4) . . .
42.2(34) . . .
43(4) . . .
38.7(32) . . .
38.8(33) . . .
42(4) . . .
40.3(33) . . .
41.2(34) . . .
43(4) . . .
43(4) . . .
50(4) . . .
38.0(32) . . .
41.4(33) . . .
40.2(33) . . .
48(4) . . .
36.6(31) . . .
57(4) . . .
50(4) . . .
45.7(35) . . .
47(4) . . .
46(4) . . .
41(4) . . .
49(4) . . .
54(4) . . .
47(4) . . .
48(4) . . .
49(4) . . .
46(4) . . .
53(4) . . .
48(4) . . .
43.2(35) . . .
46(4) . . .
42.3(34) . . .
38.7(35) . . .
39.7(33) . . .
44(4) . . .
45(4) . . .
47(4) . . .
47(4) . . .
29.4(28) . . .
47(4) . . .
40.1(33) . . .
39.9(34) . . .
37.3(32) . . .
48(4) . . .
49(4) . . .
50(4) . . .
31.5(29) . . .
36.7(35) . . .
43(4) . . .
34.7(31) . . .
38.3(32) . . .
49(4) . . .
35.5(31) . . .
41(4) . . .
42(4) . . .
39.4(34) . . .
40.8(33) . . .
45(4) . . .
47(4) . . .
45(4) . . .
42.2(33) . . .
43.8(35) . . .
45(4) . . .
55(4) . . .
40.0(33) . . .
53(4) . . .
43(4) . . .
39.1(34) . . .
44(4) . . .
46(4) . . .
41.1(34) . . .
50(4) . . .
50(4) . . .
36.6(33) . . .
46(4) . . .
39.6(33) . . .
39.7(33) . . .
47(4) . . .
36.4(32) . . .
35.4(31) . . .
35.3(32) . . .
50(4) . . .
45(4) . . .
40.0(34) . . .
33.5(31) . . .
49(4) . . .
47(4) . . .
50(4) . . .
43(4) . . .
40.1(34) . . .
46(4) . . .
37.7(33) . . .
35.9(32) . . .
51(4) . . .
44.7(35) . . .
39.9(33) . . .
40.1(34) . . .
40(4) . . .
38.4(33) . . .
41.8(33) . . .
36.4(31) . . .
45(4) . . .
35.2(31) . . .
37.4(32) . . .
50(4) . . .
48(4) . . .
41(4) . . .
34.7(33) . . .
47(4) . . .
44.6(35) . . .
43.3(34) . . .
41(4) . . .
40(4) . . .
40.8(34) . . .
49(4) . . .
47(4) . . .
44.2(35) . . .
43(4) . . .
38.0(33) . . .
49(4) . . .
47(4) . . .
46(4) . . .
42.6(35) . . .
36.8(32) . . .
46(4) . . .
38.9(33) . . .
51(4) . . .
51(4) . . .
41.1(34) . . .
44(4) . . .
51(4) . . .
48(4) . . .
41.7(34) . . .
43.3(34) . . .
44.7(35) . . .
50(4) . . .
42.6(35) . . .
41.5(34) . . .
39.5(33) . . .
45(4) . . .
44.2(35) . . .
39.5(34) . . .
40.2(35) . . .
40.0(34) . . .
41.8(34) . . .
36.2(34) . . .
48(4) . . .
47(4) . . .
38.1(32) . . .
46.4(35) . . .
49(4) . . .
46(4) . . .
42.0(33) . . .
48(4) . . .
47(4) . . .
37.9(32) . . .
49(4) . . .
44(4) . . .
35.4(31) . . .
44.6(35) . . .
39.2(33) . . .
40(4) . . .
51(4) . . .
37.3(32) . . .
36.3(33) . . .
33.8(30) . . .
40.4(33) . . .
55(4) . . .
58(4) . . .
49(4) . . .
45.5(34) . . .
54(4) . . .
46(4) . . .
42.9(34) . . .
48(4) . . .
54(4) . . .
41.0(35) . . .
42.3(35) . . .
39.3(33) . . .
46(4) . . .
54(4) . . .
49(4) . . .
44.3(35) . . .
40.0(33) . . .
39.6(34) . . .
37.5(34) . . .
38.4(33) . . .
51(4) . . .
44.6(35) . . .
48(4) . . .
44(4) . . .
39.3(33) . . .
40.3(34) . . .
48(4) . . .
43.0(35) . . .
44(4) . . .
40.2(34) . . .
33.3(30) . . .
37.4(32) . . .
39.0(33) . . .
39.0(35) . . .
43(4) . . .
57(4) . . .
42.9(34) . . .
43(4) . . .
34.6(32) . . .
44(4) . . .
48(4) . . .
47(4) . . .
46(4) . . .
44(4) . . .
36.3(31) . . .
35.5(30) . . .
42.2(34) . . .
46(4) . . .
36.7(34) . . .
42(4) . . .
51(4) . . .
53(4) . . .
46(4) . . .
45(4) . . .
46(4) . . .
41.8(33) . . .
42.5(34) . . .
41.0(34) . . .
43(4) . . .
49(4) . . .
41.2(33) . . .
46(4) . . .
41(4) . . .
37.3(32) . . .
52(4) . . .
40.5(33) . . .
47(4) . . .
43(4) . . .
52(4) . . .
43.2(34) . . .
45.3(35) . . .
45(4) . . .
38.7(35) . . .
38.3(34) . . .
44(4) . . .
36.4(31) . . .
47(4) . . .
55(4) . . .
42.7(35) . . .
46(4) . . .
44.5(35) . . .
44(4) . . .
38.5(33) . . .
40.8(34) . . .
48(4) . . .
43.2(34) . . .
38.4(33) . . .
43(4) . . .
42.2(35) . . .
48(4) . . .
43.2(34) . . .
39(4) . . .
42(4) . . .
53(4) . . .
41.6(34) . . .
42.5(34) . . .
52(4) . . .
39.1(33) . . .
50(4) . . .
52(4) . . .
39.4(34) . . .
52(4) . . .
44(4) . . .
49(4) . . .
45.1(35) . . .
40.1(33) . . .
43(4) . . .
47(4) . . .
52(4) . . .
48(4) . . .
39.2(33) . . .
36.8(32) . . .
44(4) . . .
50(4) . . .
40.2(33) . . .
38(4) . . .
31.9(30) . . .
38(4) . . .
36.3(33) . . .
35.9(32) . . .
46(4) . . .
52(4) . . .
52(4) . . .
43.8(35) . . .
46(4) . . .
34.6(31) . . .
36.9(32) . . .
45(4) . . .
55(4) . . .
43(4) . . .
55(4) . . .
43(4) . . .
40.0(33) . . .
42.2(34) . . .
47(4) . . .
39.5(33) . . .
37.6(34) . . .
45(4) . . .
38.6(32) . . .
42.7(34) . . .
39.4(34) . . .
46(4) . . .
46(4) . . .
35.2(31) . . .
38.7(33) . . .
41.5(33) . . .
50(4) . . .
38.7(33) . . .
50(4) . . .
54(4) . . .
46(4) . . .
49(4) . . .
48(4) . . .
41.7(34) . . .
43.8(34) . . .
46(4) . . .
36.4(33) . . .
46(4) . . .
44.1(35) . . .
31.0(31) . . .
46(4) . . .
41.9(35) . . .
45.1(35) . . .
44.8(35) . . .
37.1(33) . . .
39.3(34) . . .
43(4) . . .
42(4) . . .
49(4) . . .
42(4) . . .
36.5(32) . . .
31.5(29) . . .
39.3(33) . . .
38.8(33) . . .
40.8(34) . . .
41(4) . . .
42.3(34) . . .
45(4) . . .
37.9(32) . . .
44.7(35) . . .
41.8(34) . . .
43(4) . . .
38.5(32) . . .
37.1(32) . . .
45(4) . . .
47(4) . . .
43(4) . . .
40.3(33) . . .
40.5(33) . . .
48(4) . . .
49(4) . . .
46(4) . . .
46(4) . . .
38.5(32) . . .
39.5(34) . . .
43(4) . . .
41.3(34) . . .
43.5(34) . . .
48(4) . . .
49(4) . . .
51(4) . . .
45(4) . . .
34.0(30) . . .
48(4) . . .
47(4) . . .
43(4) . . .
44(4) . . .
44.1(35) . . .
37.4(32) . . .
42.3(34) . . .
53(4) . . .
42.2(33) . . .
39.0(32) . . .
44(4) . . .
38.2(34) . . .
42(4) . . .
47(4) . . .
49(4) . . .
41.9(34) . . .
39.3(33) . . .
41.4(34) . . .
42.9(34) . . .
46(4) . . .
38.3(34) . . .
35.5(33) . . .
34.8(31) . . .
44(4) . . .
33.3(30) . . .
37.2(32) . . .
45(4) . . .
29.9(31) . . .
42.5(35) . . .
48(4) . . .
35.6(33) . . .
40.6(35) . . .
45(4) . . .
43.0(34) . . .
40.6(33) . . .
38.3(33) . . .
45(4) . . .
40.5(35) . . .
41.4(34) . . .
37.0(32) . . .
47(4) . . .
50(4) . . .
41.7(34) . . .
44.4(34) . . .
45(4) . . .
42(4) . . .
37.8(35) . . .
37.8(33) . . .
49(4) . . .
33.2(30) . . .
40(4) . . .
36.7(33) . . .
38.0(34) . . .
42.4(35) . . .
38.3(32) . . .
45(4) . . .
44(4) . . .
40.3(34) . . .
34.0(31) . . .
35.7(31) . . .
36.4(32) . . .
37.3(34) . . .
36.9(33) . . .
38.9(32) . . .
38.0(34) . . .
38.7(33) . . .
44(4) . . .
41.9(35) . . .
43.9(34) . . .
40.3(34) . . .
43(4) . . .
44(4) . . .
37.6(33) . . .
37.8(32) . . .
46(4) . . .
42(4) . . .
33.8(32) . . .
44(4) . . .
58(4) . . .
42.0(35) . . .
43.2(35) . . .
40.5(33) . . .
41.6(34) . . .
38.4(32) . . .
43.4(35) . . .
43(4) . . .
35.5(32) . . .
39.4(32) . . .
42.8(35) . . .
39(4) . . .
46(4) . . .
46(4) . . .
43.3(34) . . .
38.7(33) . . .
45(4) . . .
46(4) . . .
56(4) . . .
39.1(32) . . .
44(4) . . .
39.7(34) . . .
40.7(35) . . .
44(4) . . .
47(4) . . .
46(4) . . .
48(4) . . .
35.2(32) . . .
41.0(35) . . .
39.8(33) . . .
40(4) . . .
40.2(35) . . .
50(4) . . .
48(4) . . .
31.6(30) . . .
38.8(33) . . .
38.2(33) . . .
43(4) . . .
40.4(35) . . .
42.4(34) . . .
43.4(34) . . .
48(4) . . .
41.9(34) . . .
43(4) . . .
51(4) . . .
30.5(29) . . .
38.2(34) . . .
50(4) . . .
38.6(34) . . .
36.5(31) . . .
48(4) . . .
44(4) . . .
45(4) . . .
40.4(33) . . .
45(4) . . .
37.3(32) . . .
42(4) . . .
47(4) . . .
42.9(34) . . .
49(4) . . .
48(4) . . .
41(4) . . .
45(4) . . .
44(4) . . .
39.9(33) . . .
43(4) . . .
49(4) . . .
50(4) . . .
50(4) . . .
38.1(33) . . .
36.5(32) . . .
40(4) . . .
48(4) . . .
48(4) . . .
53(4) . . .
36.3(31) . . .
37.7(34) . . .
55(4) . . .
39.1(32) . . .
43(4) . . .
39.4(33) . . .
44(4) . . .
42.0(35) . . .
41.8(34) . . .
42.9(34) . . .
38.0(34) . . .
39.1(35) . . .
37.6(32) . . .
47(4) . . .
38.5(32) . . .
48(4) . . .
42(4) . . .
34.5(31) . . .
37.5(32) . . .
41.0(34) . . .
45(4) . . .
48(4) . . .
42.4(35) . . .
47(4) . . .
36.9(34) . . .
45(4) . . .
43.1(35) . . .
39.5(33) . . .
54(4) . . .
46(4) . . .
44(4) . . .
51(4) . . .
43.9(34) . . .
46(4) . . .
48(4) . . .
48(4) . . .
48(4) . . .
33.3(30) . . .
37.7(32) . . .
43(4) . . .
47(4) . . .
44(4) . . .
49(4) . . .
50(4) . . .
31.2(30) . . .
38(4) . . .
44(4) . . .
46(4) . . .
39.7(33) . . .
35.0(30) . . .
45(4) . . .
42(4) . . .
33.1(31) . . .
47(4) . . .
41.3(34) . . .
44(4) . . .
48(4) . . .
38.0(32) . . .
50(4) . . .
38.6(32) . . .
49(4) . . .
40.7(34) . . .
48(4) . . .
44.0(35) . . .
45(4) . . .
38.8(35) . . .
40.5(33) . . .
46(4) . . .
38.2(33) . . .
39.4(34) . . .
35.3(30) . . .
44(4) . . .
41.0(33) . . .
33.9(30) . . .
37.2(33) . . .
37.4(33) . . .
44(4) . . .
39.1(33) . . .
41(4) . . .
30.3(29) . . .
38.9(35) . . .
44(4) . . .
41.6(33) . . .
44(4) . . .
40(4) . . .
43(4) . . .
43.1(34) . . .
46(4) . . .
42.6(35) . . .
43(4) . . .
38.0(33) . . .
49(4) . . .
39.7(32) . . .
37.3(32) . . .
41(4) . . .
38.6(33) . . .
39.8(33) . . .
35.7(31) . . .
37.4(33) . . .
44(4) . . .
47(4) . . .
38.6(32) . . .
51(4) . . .
39.6(34) . . .
35.1(31) . . .
35.2(32) . . .
42.6(34) . . .
37.4(33) . . .
38.6(34) . . .
43(4) . . .
37.6(33) . . .
34.4(31) . . .
45(4) . . .
39.8(35) . . .
35.2(33) . . .
48(4) . . .
40.2(33) . . .
34.6(31) . . .
44(4) . . .
50(4) . . .
47(4) . . .
40.0(33) . . .
40.2(33) . . .
35.5(32) . . .
36.7(32) . . .
36.3(33) . . .
45.4(35) . . .
38(4) . . .
38.7(34) . . .
52(4) . . .
46(4) . . .
49(4) . . .
40.8(33) . . .
39.4(35) . . .
41.4(33) . . .
47(4) . . .
44.8(35) . . .
46(4) . . .
52(4) . . .
45(4) . . .
41.3(34) . . .
34.3(31) . . .
39.7(34) . . .
34.2(32) . . .
46(4) . . .
39.4(32) . . .
33.5(30) . . .
36.0(31) . . .
56(4) . . .
52(4) . . .
45.9(35) . . .
32.9(30) . . .
41(4) . . .
39(4) . . .
40.4(34) . . .
39.6(34) . . .
46(4) . . .
43(4) . . .
45(4) . . .
46.0(35) . . .
39.1(32) . . .
42.2(34) . . .
43.0(35) . . .
37.7(32) . . .
39.7(34) . . .
54(4) . . .
34.1(30) . . .
27.9(28) . . .
39(4) . . .
36.1(33) . . .
32.7(29) . . .
42(4) . . .
41.7(34) . . .
42.7(35) . . .
40.5(33) . . .
38.6(32) . . .
51(4) . . .
42.1(34) . . .
36.1(32) . . .
42.8(34) . . .
45.4(35) . . .
41.6(35) . . .
33.5(32) . . .
37.4(33) . . .
37.8(32) . . .
47(4) . . .
36.7(31) . . .
42(4) . . .
42.1(34) . . .
39.2(33) . . .
38.0(32) . . .
37.5(33) . . .
51(4) . . .
48(4) . . .
46(4) . . .
43.7(34) . . .
47(4) . . .
38.3(33) . . .
42(4) . . .
43.3(34) . . .
45.5(35) . . .
44(4) . . .
45(4) . . .
39.4(34) . . .
51(4) . . .
39.8(33) . . .
42.1(35) . . .
42(4) . . .
41.5(35) . . .
37.0(31) . . .
41.3(34) . . .
40.0(35) . . .
39.3(33) . . .
40.0(33) . . .
32.0(29) . . .
41.8(34) . . .
36.0(32) . . .
33.9(31) . . .
38.6(32) . . .
39.5(34) . . .
37.5(34) . . .
37.3(35) . . .
42(4) . . .
36.4(33) . . .
48(4) . . .
51(4) . . .
49(4) . . .
46(4) . . .
44.6(35) . . .
33.2(30) . . .
34.1(30) . . .
33.2(32) . . .
35.3(32) . . .
36.8(31) . . .
49(4) . . .
32.2(29) . . .
41(4) . . .
44(4) . . .
42.3(33) . . .
52(4) . . .
40.9(33) . . .
44(4) . . .
45(4) . . .
40.0(34) . . .
37.7(32) . . .
45.2(35) . . .
45.1(35) . . .
39.1(32) . . .
42.1(34) . . .
36.9(31) . . .
41(4) . . .
36.9(34) . . .
36.7(34) . . .
42.5(34) . . .
47(4) . . .
50(4) . . .
48(4) . . .
39(4) . . .
36.5(32) . . .
35.5(31) . . .
37.0(34) . . .
46(4) . . .
36.3(31) . . .
46(4) . . .
37.7(34) . . .
36.8(33) . . .
31.1(30) . . .
35.2(32) . . .
44.7(35) . . .
40.0(34) . . .
43.6(34) . . .
42.7(35) . . .
32.5(30) . . .
32.3(29) . . .
38.7(33) . . .
45(4) . . .
41.0(35) . . .
44(4) . . .
41.7(33) . . .
34.5(31) . . .
32.0(30) . . .
36.4(31) . . .
36.1(31) . . .
36.8(32) . . .
30.3(29) . . .
39(4) . . .
45(4) . . .
44(4) . . .
37.5(32) . . .
40(4) . . .
37.5(35) . . .
37.6(33) . . .
43.3(34) . . .
44.0(34) . . .
34.3(30) . . .
35.4(32) . . .
38.4(33) . . .
42.5(34) . . .
35.4(31) . . .
47(4) . . .
40(4) . . .
39(4) . . .
45(4) . . .
41.5(34) . . .
41.6(35) . . .
40.0(34) . . .
39.8(34) . . .
42.7(34) . . .
33.9(30) . . .
37.6(34) . . .
33.7(32) . . .
35.6(32) . . .
43.0(34) . . .
42(4) . . .
42(4) . . .
33.2(29) . . .
35.6(32) . . .
37.1(32) . . .
42.4(35) . . .
46(4) . . .
47(4) . . .
39.8(33) . . .
41.1(33) . . .
44.4(35) . . .
45(4) . . .
38(4) . . .
36.7(32) . . .
36.2(32) . . .
32.7(31) . . .
36.2(33) . . .
41.6(35) . . .
34.2(31) . . .
39.6(33) . . .
40.1(34) . . .
44(4) . . .
42(4) . . .
41.5(34) . . .
34.7(30) . . .
39.3(35) . . .
47(4) . . .
50(4) . . .
43.7(34) . . .
47(4) . . .
46(4) . . .
46(4) . . .
47(4) . . .
43.7(35) . . .
46(4) . . .
37.8(32) . . .
40.0(35) . . .
41.1(34) . . .
43.6(35) . . .
44.4(35) . . .
54(4) . . .
40(4) . . .
45(4) . . .
42.1(34) . . .
39.4(33) . . .
34.1(32) . . .
38.7(34) . . .
47(4) . . .
43(4) . . .
40.6(33) . . .
40.5(34) . . .
35.3(31) . . .
37.7(32) . . .
38.6(32) . . .
43(4) . . .
48(4) . . .
46(4) . . .
46(4) . . .
34.5(31) . . .
43(4) . . .
47(4) . . .
53(4) . . .
48(4) . . .
44(4) . . .
47(4) . . .
41(4) . . .
35.8(32) . . .
41.2(33) . . .
41.8(34) . . .
50(4) . . .
38.0(32) . . .
41(4) . . .
38.8(33) . . .
44.6(35) . . .
47(4) . . .
46(4) . . .
53(4) . . .
44(4) . . .
46(4) . . .
41(4) . . .
37.0(34) . . .
40.4(34) . . .
46(4) . . .
33.6(29) . . .
36.3(33) . . .
35.2(35) . . .
42(4) . . .
33.3(31) . . .
41.9(34) . . .
44.3(35) . . .
43(4) . . .
39.8(35) . . .
38.2(34) . . .
33.6(30) . . .
33.8(32) . . .
39.0(34) . . .
41.0(33) . . .
42.0(34) . . .
39.2(32) . . .
39.5(34) . . .
35.8(34) . . .
47(4) . . .
43.5(35) . . .
48(4) . . .
45(4) . . .
38.3(34) . . .
36.2(31) . . .
42.2(34) . . .
56(4) . . .
41.8(34) . . .
44(4) . . .
34.0(32) . . .
39.0(33) . . .
42(4) . . .
37.3(33) . . .
42.3(35) . . .
34.2(31) . . .
35.0(32) . . .
47(4) . . .
41(4) . . .
39.8(35) . . .
32.9(30) . . .
47(4) . . .
48(4) . . .
47(4) . . .
36.4(32) . . .
35.9(31) . . .
41.8(33) . . .
34.5(32) . . .
37.7(34) . . .
49(4) . . .
40.1(33) . . .
46(4) . . .
37.8(34) . . .
42(4) . . .
45(4) . . .
51(4) . . .
44.8(35) . . .
44(4) . . .
32.4(30) . . .
36.6(33) . . .
38.3(32) . . .
39.2(32) . . .
38.6(34) . . .
42(4) . . .
39.0(34) . . .
39.1(33) . . .
45.3(35) . . .
45(4) . . .
47(4) . . .
47(4) . . .
39.7(33) . . .
46(4) . . .
45(4) . . .
47(4) . . .
33.4(30) . . .
46.8(35) . . .
32.4(31) . . .
34.3(32) . . .
47(4) . . .
37.0(32) . . .
38.9(33) . . .
45(4) . . .
43(4) . . .
39.0(33) . . .
42.0(35) . . .
37.6(31) . . .
44(4) . . .
43(4) . . .
38.1(33) . . .
35.6(31) . . .
37.8(31) . . .
41.8(34) . . .
37.0(32) . . .
38.5(33) . . .
50(4) . . .
50(4) . . .
46(4) . . .
43(4) . . .
44(4) . . .
44.6(35) . . .
48(4) . . .
41.5(33) . . .
45(4) . . .
41.0(34) . . .
47(4) . . .
42.4(33) . . .
41.1(35) . . .
36.8(33) . . .
38.9(33) . . .
37.0(32) . . .
36.3(31) . . .
39.3(35) . . .
36.3(33) . . .
46(4) . . .
45.2(35) . . .
39.0(32) . . .
47(4) . . .
43(4) . . .
35.9(32) . . .
40.1(33) . . .
39.4(33) . . .
34.6(32) . . .
29.7(28) . . .
41.2(35) . . .
41.6(34) . . .
44(4) . . .
38.6(34) . . .
44(4) . . .
32.0(30) . . .
42.1(34) . . .
29.3(29) . . .
58(5) . . .
50(4) . . .
39.7(32) . . .
36.2(32) . . .
50(4) . . .
38.4(34) . . .
39.3(34) . . .
42.7(35) . . .
41.1(34) . . .
50(4) . . .
41(4) . . .
48(4) . . .
48(4) . . .
38.8(32) . . .
39.2(34) . . .
38.6(35) . . .
42.7(34) . . .
39.2(33) . . .
35.1(31) . . .
48(4) . . .
44(4) . . .
34.7(31) . . .
32.5(29) . . .
40.8(34) . . .
47(4) . . .
42.0(35) . . .
42.2(34) . . .
37.6(32) . . .
39.8(34) . . .
41.0(33) . . .
46(4) . . .
47(4) . . .
40.1(33) . . .
43.4(34) . . .
45(4) . . .
42.6(35) . . .
42(4) . . .
40.8(33) . . .
38.0(32) . . .
44(4) . . .
41.9(35) . . .
46(4) . . .
48(4) . . .
44(4) . . .
42(4) . . .
49(4) . . .
38.3(33) . . .
42.8(34) . . .
40.8(34) . . .
34.4(31) . . .
42(4) . . .
43.0(34) . . .
39.0(33) . . .
46(4) . . .
44(4) . . .
41.8(35) . . .
33.1(30) . . .
36.9(32) . . .
36.8(34) . . .
45(4) . . .
53(4) . . .
45.3(35) . . .
43.4(34) . . .
42.8(35) . . .
41(4) . . .
40.9(35) . . .
51(4) . . .
45(4) . . .
44.9(35) . . .
43(4) . . .
45(4) . . .
44(4) . . .
40.1(32) . . .
38.2(33) . . .
44(4) . . .
46(4) . . .
35.1(31) . . .
39.8(35) . . .
38.7(34) . . .
30.5(30) . . .
39.6(34) . . .
33.9(31) . . .
36.7(32) . . .
36.3(32) . . .
46(4) . . .
40.0(33) . . .
35.3(31) . . .
38.3(32) . . .
46(4) . . .
50(4) . . .
40.5(35) . . .
41.6(33) . . .
45(4) . . .
41(4) . . .
44(4) . . .
46(4) . . .
49(4) . . .
47(4) . . .
42.8(34) . . .
46(4) . . .
45(4) . . .
48(4) . . .
34.9(31) . . .
35.7(33) . . .
36.3(31) . . .
40.5(33) . . .
38.4(33) . . .
41.1(35) . . .
34.0(31) . . .
41(4) . . .
38.0(33) . . .
41.1(33) . . .
46(4) . . .
41.4(35) . . .
51(4) . . .
45.7(34) . . .
45(4) . . .
41.0(34) . . .
40(4) . . .
44(4) . . .
55(4) . . .
40.8(33) . . .
45(4) . . .
48(4) . . .
43.0(34) . . .
39.0(32) . . .
42.8(35) . . .
42(4) . . .
46(4) . . .
43(4) . . .
49(4) . . .
39.6(33) . . .
47(4) . . .
47(4) . . .
48(4) . . .
42.0(34) . . .
45(4) . . .
34.2(30) . . .
48(4) . . .
39.4(34) . . .
41.2(33) . . .
48(4) . . .
49(4) . . .
46(4) . . .
47(4) . . .
48(4) . . .
38.2(33) . . .
38.0(33) . . .
47(4) . . .
38.2(33) . . .
46(4) . . .
37.5(33) . . .
37.7(33) . . .
42.2(35) . . .
48(4) . . .
33.5(30) . . .
37.6(33) . . .
35.5(31) . . .
48(4) . . .
38.5(33) . . .
46(4) . . .
41.0(33) . . .
55(4) . . .
37.7(32) . . .
34.0(31) . . .
39.7(33) . . .
34.6(33) . . .
36.7(34) . . .
40(4) . . .
32.3(30) . . .
42.3(35) . . .
39.9(34) . . .
46(4) . . .
39.4(33) . . .
37.6(32) . . .
28.7(28) . . .
41(4) . . .
48(4) . . .
35.7(33) . . .
38.6(32) . . .
46(4) . . .
39.2(33) . . .
46(4) . . .
36.0(32) . . .
37.4(32) . . .
43(4) . . .
32.5(30) . . .
45(4) . . .
35.3(33) . . .
37.4(32) . . .
36.8(32) . . .
41.8(34) . . .
44(4) . . .
35.3(31) . . .
42.0(34) . . .
32.8(31) . . .
45(4) . . .
44.2(35) . . .
39.5(34) . . .
40.2(33) . . .
28.6(28) . . .
33.5(31) . . .
35.6(33) . . .
43(4) . . .
44.9(35) . . .
38.3(33) . . .
42(4) . . .
41(4) . . .
41.3(34) . . .
42.3(34) . . .
39.0(34) . . .
40(4) . . .
47(4) . . .
41.5(33) . . .
35.7(31) . . .
43(4) . . .
39.8(34) . . .
36.9(32) . . .
37.0(31) . . .
45(4) . . .
34.4(32) . . .
41(4) . . .
49(4) . . .
46(4) . . .
43(4) . . .
37.3(35) . . .
33.8(34) . . .
39(4) . . .
30.2(30) . . .
41.4(33) . . .
43.6(34) . . .
42(4) . . .
37.1(33) . . .
37.5(32) . . .
42.6(34) . . .
42(4) . . .
36.9(35) . . .
31.6(30) . . .
49(4) . . .
31.6(30) . . .
42(4) . . .
38.3(34) . . .
39.4(34) . . .
43.2(34) . . .
47(4) . . .
44(4) . . .
41(4) . . .
35.0(31) . . .
31.9(30) . . .
33.5(35) . . .
41(4) . . .
40.3(35) . . .
49(4) . . .
41.8(33) . . .
40.2(35) . . .
35.8(33) . . .
32.5(29) . . .
50(4) . . .
39.3(33) . . .
50(4) . . .
40.1(35) . . .
42(4) . . .
41.2(33) . . .
38.3(33) . . .
30.1(30) . . .
42(4) . . .
32.2(33) . . .
58(4) . . .
41.8(33) . . .
53(4) . . .
34.5(31) . . .
33.9(31) . . .
42.3(34) . . .
50(4) . . .
35.2(31) . . .
45(4) . . .
39.3(32) . . .
40.7(33) . . .
41.2(34) . . .
42(4) . . .
46(4) . . .
39.8(33) . . .
46.2(35) . . .
42.6(34) . . .
44(4) . . .
41(4) . . .
41(4) . . .
45.2(35) . . .
48(4) . . .
42.1(34) . . .
32.6(31) . . .
38.4(32) . . .
37.1(32) . . .
36.9(33) . . .
41(4) . . .
35.2(33) . . .
42(4) . . .
31.4(29) . . .
37.7(33) . . .
36.1(31) . . .
38.6(35) . . .
43(4) . . .
31.5(30) . . .
37.4(33) . . .
50(4) . . .
52(4) . . .
53(4) . . .
39.1(33) . . .
45(4) . . .
38.5(33) . . .
33.4(32) . . .
34.7(31) . . .
32.5(30) . . .
39(4) . . .
37(4) . . .
30.0(28) . . .
35.7(31) . . .
29.6(28) . . .
32.1(30) . . .
39(4) . . .
46(4) . . .
37.5(32) . . .
39.0(32) . . .
40(4) . . .
43(4) . . .
47(4) . . .
34.8(31) . . .
42.3(34) . . .
45(4) . . .
39(4) . . .
37.1(34) . . .
45(4) . . .
36.1(32) . . .
40.5(34) . . .
43(4) . . .
38.6(34) . . .
31.6(29) . . .
44(4) . . .
40(4) . . .
30.3(29) . . .
49(4) . . .
41.8(34) . . .
48(4) . . .
49(4) . . .
44(4) . . .
44(4) . . .
37.9(32) . . .
39.7(34) . . .
35.4(32) . . .
33.4(31) . . .
36.4(32) . . .
38.2(32) . . .
39.8(33) . . .
45(4) . . .
46(4) . . .
38.4(32) . . .
43.0(35) . . .
50(4) . . .
46(4) . . .
37.8(33) . . .
44.4(35) . . .
41.7(34) . . .
34.2(30) . . .
41(4) . . .
37.1(32) . . .
45(4) . . .
37.5(32) . . .
35.8(33) . . .
43(4) . . .
48(4) . . .
52(4) . . .
39.9(33) . . .
41(4) . . .
47(4) . . .
43(4) . . .
31.4(29) . . .
41.2(34) . . .
39.7(34) . . .
36.6(32) . . .
40.2(33) . . .
40.6(33) . . .
37.2(35) . . .
48(4) . . .
47(4) . . .
42.9(35) . . .
41.0(33) . . .
42.2(34) . . .
40(4) . . .
38.3(33) . . .
43(4) . . .
41.7(34) . . .
52(4) . . .
39.8(33) . . .
40.7(34) . . .
41.7(34) . . .
40.4(33) . . .
32.8(33) . . .
37.4(34) . . .
43.1(34) . . .
50(4) . . .
39.2(33) . . .
34.3(33) . . .
37.2(32) . . .
35.7(32) . . .
46(4) . . .
40.6(33) . . .
45(4) . . .
38.8(35) . . .
31.3(30) . . .
43.1(35) . . .
42.3(34) . . .
43(4) . . .
40.2(35) . . .
40.0(33) . . .
33.6(32) . . .
33.7(30) . . .
39.2(33) . . .
38.5(34) . . .
38.6(32) . . .
34.8(30) . . .
38.5(32) . . .
37.5(32) . . .
37.2(33) . . .
42.2(34) . . .
45.8(35) . . .
43.7(34) . . .
40.5(33) . . .
39.4(35) . . .
44(4) . . .
43.6(35) . . .
36.8(32) . . .
33.4(30) . . .
43(4) . . .
37.5(32) . . .
35.4(31) . . .
35.0(31) . . .
39.4(34) . . .
39.5(33) . . .
42(4) . . .
38.7(33) . . .
41.8(34) . . .
47(4) . . .
35.0(33) . . .
40.6(34) . . .
42.5(34) . . .
39.5(35) . . .
40(4) . . .
31.8(31) . . .
37.0(34) . . .
34.9(31) . . .
45(4) . . .
34.3(30) . . .
33.7(30) . . .
32.4(32) . . .
38.4(32) . . .
43(4) . . .
30.4(31) . . .
32.1(31) . . .
43.6(35) . . .
32.5(30) . . .
46(4) . . .
44(4) . . .
38.9(33) . . .
29.5(29) . . .
35.2(31) . . .
41.0(35) . . .
40.4(34) . . .
33.5(30) . . .
44(4) . . .
38.4(32) . . .
40(4) . . .
39(4) . . .
37.3(34) . . .
36.9(33) . . .
40.0(33) . . .
41.3(34) . . .
40.0(35) . . .
46(4) . . .
37.4(32) . . .
37.5(33) . . .
34.4(31) . . .
36.4(34) . . .
42(4) . . .
34.2(30) . . .
41(4) . . .
41(4) . . .
38.4(34) . . .
39.1(34) . . .
42.3(34) . . .
40.7(33) . . .
46(4) . . .
41.4(33) . . .
42.8(34) . . .
47(4) . . .
37.2(32) . . .
44(4) . . .
44(4) . . .
41.7(34) . . .
43.0(34) . . .
44(4) . . .
33.5(32) . . .
37.5(33) . . .
44(4) . . .
47(4) . . .
42(4) . . .
48(4) . . .
34.7(30) . . .
38.3(32) . . .
49(4) . . .
34.6(31) . . .
36.9(33) . . .
39.8(34) . . .
44(4) . . .
48(4) . . .
34.5(34) . . .
37(4) . . .
31.9(30) . . .
39.5(33) . . .
35.4(31) . . .
43(4) . . .
41(4) . . .
41(4) . . .
30.0(29) . . .
45(4) . . .
47(4) . . .
41(4) . . .
40(4) . . .
39.2(33) . . .
50(4) . . .
44(4) . . .
37.7(34) . . .
36.7(34) . . .
43.2(34) . . .
41.8(34) . . .
44(4) . . .
43(4) . . .
49(4) . . .
49(4) . . .
48(4) . . .
38.5(32) . . .
43(4) . . .
44(4) . . .
44.8(35) . . .
45(4) . . .
41.8(34) . . .
46(4) . . .
40.4(33) . . .
44.0(34) . . .
36.4(32) . . .
36.5(33) . . .
44(4) . . .
44(4) . . .
37.6(32) . . .
50(4) . . .
46(4) . . .
38.1(32) . . .
42.9(35) . . .
42.9(34) . . .
47(4) . . .
40.1(34) . . .
41.0(35) . . .
41.9(34) . . .
41.5(34) . . .
44.4(35) . . .
44(4) . . .
36.1(32) . . .
31.4(30) . . .
29.7(29) . . .
39.0(35) . . .
41(4) . . .
39.0(35) . . .
33.8(31) . . .
41.7(34) . . .
40(4) . . .
34.3(32) . . .
43(4) . . .
40.3(33) . . .
35.4(31) . . .
39.7(34) . . .
49(4) . . .
43.2(35) . . .
42.3(34) . . .
49(4) . . .
45(4) . . .
38.3(34) . . .
39(4) . . .
37.7(32) . . .
37.3(33) . . .
36.0(33) . . .
46(4) . . .
43(4) . . .
42.6(35) . . .
48(4) . . .
39.5(35) . . .
45(4) . . .
46(4) . . .
42.5(34) . . .
32.8(30) . . .
35.7(34) . . .
34.2(31) . . .
26.5(27) . . .
38.2(33) . . .
43.6(35) . . .
40(4) . . .
40(4) . . .
38.6(33) . . .
44.6(35) . . .
38.5(33) . . .
35.5(33) . . .
36.2(32) . . .
40.4(35) . . .
38.7(33) . . .
39.8(35) . . .
41(4) . . .
41.8(34) . . .
33.3(31) . . .
41.4(34) . . .
40.4(34) . . .
34.9(34) . . .
46(4) . . .
48(4) . . .
40.2(33) . . .
47(4) . . .
37.5(34) . . .
31.4(31) . . .
38.3(32) . . .
36.8(31) . . .
39.1(33) . . .
35.2(33) . . .
38.0(34) . . .
46(4) . . .
39.6(33) . . .
27.4(27) . . .
43(4) . . .
47(4) . . .
39.9(33) . . .
45(4) . . .
39.6(34) . . .
35.7(33) . . .
35.8(33) . . .
34.2(30) . . .
30.8(29) . . .
37.9(34) . . .
46(4) . . .
34.5(31) . . .
39.8(33) . . .
52(4) . . .
39(4) . . .
38.2(34) . . .
36.9(33) . . .
40.6(33) . . .
43.8(35) . . .
40.6(34) . . .
43(4) . . .
39.5(33) . . .
38.1(33) . . .
35.5(33) . . .
45(4) . . .
45(4) . . .
40.7(34) . . .
35.9(31) . . .
43.9(34) . . .
43(4) . . .
41(4) . . .
44.5(35) . . .
39.6(32) . . .
45(4) . . .
41(4) . . .
39.3(34) . . .
40.0(33) . . .
33.7(31) . . .
46(4) . . .
51(4) . . .
40.9(33) . . .
40.2(32) . . .
46(4) . . .
38.2(33) . . .
35.1(33) . . .
36.7(32) . . .
44.9(35) . . .
36.4(32) . . .
44(4) . . .
46(4) . . .
35.4(32) . . .
39.9(33) . . .
41.1(34) . . .
46(4) . . .
37.1(33) . . .
40.3(34) . . .
51(4) . . .
46(4) . . .
41.4(34) . . .
42.3(35) . . .
34.7(31) . . .
38.2(33) . . .
45(4) . . .
42.3(34) . . .
47(4) . . .
35.3(33) . . .
37.5(32) . . .
47(4) . . .
30.3(28) . . .
34.5(33) . . .
37.0(32) . . .
36.7(32) . . .
46(4) . . .
34.4(32) . . .
32.9(32) . . .
40.2(34) . . .
32.3(29) . . .
43(4) . . .
48(4) . . .
42.9(35) . . .
42.1(35) . . .
36.9(32) . . .
42(4) . . .
49(4) . . .
41.7(35) . . .
41.9(33) . . .
38.3(32) . . .
36.3(31) . . .
33.6(30) . . .
41(4) . . .
42.7(33) . . .
38.2(32) . . .
38.7(34) . . .
40(4) . . .
49(4) . . .
47(4) . . .
39.7(33) . . .
42(4) . . .
39.4(34) . . .
38.4(35) . . .
47(4) . . .
45.2(35) . . .
40.9(35) . . .
43(4) . . .
47(4) . . .
36.7(32) . . .
30.9(29) . . .
39.9(35) . . .
40.8(34) . . .
36.9(32) . . .
36.7(32) . . .
50(4) . . .
31.8(30) . . .
33.9(35) . . .
34.4(34) . . .
39.1(33) . . .
30.0(29) . . .
37.0(34) . . .
29.0(29) . . .
34.7(31) . . .
39.4(33) . . .
39.3(33) . . .
33.7(33) . . .
37.5(34) . . .
40.0(35) . . .
38.6(32) . . .
49(4) . . .
40(4) . . .
38.6(35) . . .
40.3(34) . . .
34.7(30) . . .
39.3(34) . . .
35.5(32) . . .
44.1(35) . . .
33.2(30) . . .
33.0(30) . . .
47(4) . . .
40(4) . . .
35.5(32) . . .
39.7(33) . . .
36.3(31) . . .
35.7(32) . . .
32.2(30) . . .
40(4) . . .
42.9(34) . . .
33.3(30) . . .
31.9(29) . . .
40(4) . . .
38.2(32) . . .
32.1(30) . . .
37.3(31) . . .
44(4) . . .
39.0(35) . . .
39.3(33) . . .
41.3(33) . . .
40.2(33) . . .
35.0(32) . . .
37.2(35) . . .
46(4) . . .
44.8(35) . . .
48(4) . . .
45(4) . . .
32.0(29) . . .
33.4(30) . . .
47(4) . . .
42.4(35) . . .
39(4) . . .
51(4) . . .
41.1(34) . . .
47(4) . . .
43.3(35) . . .
39.6(32) . . .
38.1(32) . . .
43.0(35) . . .
53(4) . . .
44(4) . . .
40(4) . . .
32.7(30) . . .
39.1(34) . . .
35.8(31) . . .
41.5(34) . . .
38.3(35) . . .
36.7(33) . . .
42.3(35) . . .
41.9(34) . . .
41.1(34) . . .
37(4) . . .
32.0(32) . . .
48(4) . . .
47(4) . . .
50(4) . . .
36.7(33) . . .
45(4) . . .
36.7(32) . . .
40.4(33) . . .
47(4) . . .
39.0(33) . . .
44(4) . . .
36.8(31) . . .
32.8(30) . . .
34.6(33) . . .
37.9(34) . . .
33.5(31) . . .
43.4(35) . . .
39.1(32) . . .
25.2(27) . . .
31.7(32) . . .
37.4(33) . . .
38.6(32) . . .
39.9(33) . . .
41(4) . . .
27.3(28) . . .
40.6(35) . . .
39.1(33) . . .
42(4) . . .
36.3(33) . . .
40(4) . . .
46(4) . . .
36.4(32) . . .
48(4) . . .
43.2(35) . . .
39.3(34) . . .
42.6(34) . . .
31.4(30) . . .
38(4) . . .
33.8(33) . . .
33.0(30) . . .
37.9(32) . . .
35.2(30) . . .
47(4) . . .
38.6(34) . . .
36.6(35) . . .
42(4) . . .
37.7(32) . . .
35.0(32) . . .
33.4(32) . . .
41.8(34) . . .
40.0(33) . . .
45(4) . . .
32.7(30) . . .
43(4) . . .
43(4) . . .
47(4) . . .
42.3(34) . . .
41.7(35) . . .
38.5(34) . . .
41.1(34) . . .
42.5(33) . . .
39.5(34) . . .
35.0(32) . . .
43(4) . . .
37.1(33) . . .
38.3(32) . . .
39.7(33) . . .
46(4) . . .
42(4) . . .
42.0(35) . . .
34.3(30) . . .
34.8(31) . . .
40(4) . . .
38(4) . . .
30.0(31) . . .
44.5(35) . . .
42(4) . . .
36.0(32) . . .
35.0(33) . . .
38.6(33) . . .
48(4) . . .
37.1(33) . . .
40(4) . . .
36.7(32) . . .
33.5(31) . . .
36.2(32) . . .
39.5(34) . . .
33.6(31) . . .
29.9(29) . . .
37.7(33) . . .
45.0(34) . . .
40(4) . . .
36.2(33) . . .
39.6(33) . . .
41.1(34) . . .
39.6(32) . . .
46(4) . . .
36.6(34) . . .
40(4) . . .
26.5(26) . . .
30.9(29) . . .
44(4) . . .
35.8(34) . . .
35.1(31) . . .
37.3(32) . . .
35.1(31) . . .
40.9(34) . . .
37.4(34) . . .
34.6(33) . . .
34.5(30) . . .
36.7(32) . . .
37.6(33) . . .
33.7(32) . . .
41.6(35) . . .
38.9(32) . . .
41.4(34) . . .
37.4(34) . . .
33.2(32) . . .
38.7(33) . . .
33.0(31) . . .
44.5(35) . . .
34.6(31) . . .
43(4) . . .
39.3(33) . . .
37.9(32) . . .
40.9(34) . . .
43(4) . . .
46(4) . . .
35.0(31) . . .
38.2(32) . . .
38.4(32) . . .
42(4) . . .
39.0(35) . . .
48(4) . . .
36.2(31) . . .
36.0(31) . . .
40(4) . . .
31.2(29) . . .
44.0(34) . . .
43.4(34) . . .
42(4) . . .
32.6(30) . . .
38.4(34) . . .
38.7(32) . . .
42.1(34) . . .
40.0(35) . . .
37.1(35) . . .
37.2(32) . . .
38.8(34) . . .
50(4) . . .
41(4) . . .
46(4) . . .
43(4) . . .
45(4) . . .
36.9(32) . . .
38.3(34) . . .
41(4) . . .
43.1(35) . . .
40.1(33) . . .
38.1(33) . . .
34.9(31) . . .
54(4) . . .
44(4) . . .
43.0(34) . . .
44.5(34) . . .
55(4) . . .
40.5(35) . . .
42(4) . . .
36.1(31) . . .
35.9(31) . . .
42.5(34) . . .
34.4(31) . . .
39.8(34) . . .
37.2(32) . . .
40.2(35) . . .
34.8(32) . . .
34.8(32) . . .
40.5(35) . . .
39.7(33) . . .
36.5(32) . . .
36.4(33) . . .
30.2(28) . . .
31.1(29) . . .
37.5(32) . . .
39.1(34) . . .
43(4) . . .
38.9(33) . . .
33.8(30) . . .
42.7(34) . . .
40.3(34) . . .
42.5(35) . . .
45(4) . . .
49(4) . . .
37.7(32) . . .
37.4(35) . . .
31.1(31) . . .
39.3(34) . . .
37.4(32) . . .
35.1(31) . . .
37.6(35) . . .
44(4) . . .
46(4) . . .
34.2(33) . . .
38.5(33) . . .
39.7(33) . . .
36.0(31) . . .
37.3(32) . . .
40.0(32) . . .
48(4) . . .
40.6(33) . . .
39.8(34) . . .
41(4) . . .
32.6(30) . . .
41.4(34) . . .
36.7(32) . . .
42(4) . . .
42(4) . . .
36.8(33) . . .
33.1(30) . . .
34.2(31) . . .
28.9(28) . . .
38.4(33) . . .
45(4) . . .
41.9(33) . . .
45(4) . . .
37.6(34) . . .
34.0(31) . . .
39.2(33) . . .
44(4) . . .
39(4) . . .
36.3(34) . . .
37.2(31) . . .
31.5(30) . . .
28.1(29) . . .
42(4) . . .
39(4) . . .
41.8(35) . . .
48(4) . . .
37.9(34) . . .
46(4) . . .
41.6(34) . . .
35.5(30) . . .
41.0(34) . . .
38.6(34) . . .
32.3(31) . . .
45(4) . . .
38.4(32) . . .
48(4) . . .
38.4(33) . . .
39.4(35) . . .
38.2(33) . . .
33.8(31) . . .
36.6(32) . . .
40.0(34) . . .
40.0(35) . . .
33.9(30) . . .
39.3(34) . . .
39.5(32) . . .
38.5(33) . . .
43(4) . . .
39.6(33) . . .
44.5(34) . . .
38.8(35) . . .
35.4(32) . . .
39.7(35) . . .
36.7(32) . . .
37.7(32) . . .
38.7(32) . . .
33.8(30) . . .
43(4) . . .
46(4) . . .
45(4) . . .
42.3(33) . . .
43.7(34) . . .
44(4) . . .
30.8(29) . . .
41.7(35) . . .
44.4(35) . . .
39(4) . . .
35.6(32) . . .
31.6(30) . . .
37.6(32) . . .
46.2(35) . . .
48(4) . . .
35.5(32) . . .
30.8(31) . . .
35.4(32) . . .
37.8(33) . . .
39.7(34) . . .
40.9(34) . . .
40.5(34) . . .
43.0(34) . . .
41(4) . . .
45(4) . . .
41.1(35) . . .
44.2(35) . . .
42.1(34) . . .
38.9(33) . . .
48(4) . . .
36.3(31) . . .
36.4(32) . . .
37.2(32) . . .
38.8(32) . . .
35.0(34) . . .
31.7(31) . . .
32.0(29) . . .
38.4(32) . . .
36.1(31) . . .
35.9(33) . . .
34.2(31) . . .
41.7(33) . . .
40.9(34) . . .
34.8(33) . . .
36.0(32) . . .
32.4(29) . . .
34.3(30) . . .
32.7(30) . . .
34.9(32) . . .
32.2(30) . . .
38.2(34) . . .
35.0(32) . . .
43(4) . . .
47(4) . . .
43.4(35) . . .
40.6(34) . . .
35.7(31) . . .
42.0(34) . . .
39.0(33) . . .
44.7(35) . . .
42(4) . . .
33.5(30) . . .
38.8(34) . . .
42(4) . . .
47(4) . . .
36.6(33) . . .
38.5(32) . . .
44(4) . . .
47(4) . . .
40.5(34) . . .
37.4(32) . . .
43.4(35) . . .
40(4) . . .
41(4) . . .
32.4(31) . . .
43(4) . . .
50(4) . . .
44(4) . . .
39.7(35) . . .
40.0(35) . . .
41.2(35) . . .
33.2(30) . . .
40(4) . . .
42(4) . . .
32.8(30) . . .
34.9(31) . . .
40.6(33) . . .
32.6(32) . . .
37.0(35) . . .
45.7(35) . . .
42.3(34) . . .
35.6(31) . . .
40.2(34) . . .
43(4) . . .
43(4) . . .
46(4) . . .
45(4) . . .
49(4) . . .
46(4) . . .
38.2(34) . . .
38.9(32) . . .
40.2(35) . . .
45(4) . . .
44(4) . . .
41.1(35) . . .
29.5(29) . . .
44(4) . . .
35.6(33) . . .
35.1(32) . . .
35.4(31) . . .
35.6(31) . . .
30.3(31) . . .
46(4) . . .
26.0(27) . . .
39(4) . . .
37.0(32) . . .
43.8(35) . . .
36.3(33) . . .
38.8(34) . . .
49(4) . . .
31.7(29) . . .
35.4(33) . . .
40(4) . . .
45(4) . . .
38.1(32) . . .
40.3(34) . . .
49(4) . . .
36.6(33) . . .
47(4) . . .
49(4) . . .
38.1(33) . . .
38.0(33) . . .
38.0(34) . . .
42.9(35) . . .
37.4(32) . . .
36.9(32) . . .
38.6(33) . . .
45(4) . . .
39.4(34) . . .
39.2(33) . . .
32.8(31) . . .
36.5(32) . . .
50(4) . . .
46(4) . . .
48(4) . . .
47(4) . . .
36.1(33) . . .
42(4) . . .
38.9(34) . . .
33.7(30) . . .
41(4) . . .
40(4) . . .
31.8(30) . . .
32.1(33) . . .
41.7(33) . . .
34.6(30) . . .
40.7(35) . . .
44.8(35) . . .
44(4) . . .
47(4) . . .
47(4) . . .
41.1(34) . . .
38.0(34) . . .
43(4) . . .
37.6(33) . . .
41.2(35) . . .
43(4) . . .
38.5(34) . . .
46(4) . . .
42.8(34) . . .
42(4) . . .
35.3(32) . . .
39.0(32) . . .
34.5(32) . . .
38.7(32) . . .
32.6(31) . . .
38.9(34) . . .
42.1(34) . . .
41.4(35) . . .
38.5(32) . . .
44(4) . . .
33.3(32) . . .
39.5(34) . . .
42.1(34) . . .
39.2(33) . . .
50(4) . . .
36(4) . . .
34.5(33) . . .
37.7(32) . . .
36.4(31) . . .
37.4(33) . . .
35.6(32) . . .
37.4(32) . . .
46(4) . . .
36.5(31) . . .
29.8(28) . . .
35.5(33) . . .
38.5(33) . . .
39.5(33) . . .
38.9(32) . . .
45(4) . . .
43(4) . . .
38.1(34) . . .
41.8(34) . . .
34.1(30) . . .
34.6(31) . . .
32.9(30) . . .
48(4) . . .
49(4) . . .
41.2(35) . . .
54(4) . . .
42.9(34) . . .
45(4) . . .
35.8(31) . . .
36.2(33) . . .
37.5(34) . . .
35.4(32) . . .
30.0(29) . . .
39.9(33) . . .
33.6(32) . . .
38.9(34) . . .
46(4) . . .
48(4) . . .
37.3(32) . . .
42(4) . . .
45.2(35) . . .
48(4) . . .
37.1(33) . . .
35.8(31) . . .
37.7(32) . . .
46(4) . . .
42.3(35) . . .
40.0(33) . . .
45(4) . . .
38.4(34) . . .
38.5(34) . . .
36.9(32) . . .
44(4) . . .
41.2(33) . . .
39.3(34) . . .
31.3(31) . . .
37.1(35) . . .
34.9(31) . . .
37.8(32) . . .
44(4) . . .
42(4) . . .
36.2(32) . . .
46(4) . . .
35.2(31) . . .
35.8(32) . . .
30.1(30) . . .
36.5(33) . . .
40.6(33) . . .
36.9(34) . . .
42(4) . . .
35.0(31) . . .
40.6(34) . . .
38.7(33) . . .
33.0(33) . . .
35.4(33) . . .
37.0(33) . . .
42(4) . . .
38.3(32) . . .
43.1(35) . . .
37.9(33) . . .
37.2(33) . . .
39.8(34) . . .
41.8(34) . . .
35.5(34) . . .
45(4) . . .
38.5(34) . . .
37.9(34) . . .
34.9(31) . . .
46(4) . . .
36.5(34) . . .
32.9(31) . . .
35.9(33) . . .
44.2(35) . . .
43(4) . . .
38.1(33) . . .
44.0(35) . . .
38.0(32) . . .
33.2(31) . . .
35.0(33) . . .
43(4) . . .
34.6(31) . . .
37.6(32) . . .
35.1(31) . . .
47(4) . . .
39(4) . . .
34.3(31) . . .
32.9(30) . . .
32.2(30) . . .
33.3(32) . . .
36.4(34) . . .
36.2(32) . . .
38.6(32) . . .
49(4) . . .
36.4(34) . . .
39.0(35) . . .
33.3(31) . . .
39.0(34) . . .
42.5(34) . . .
34.3(32) . . .
32.8(32) . . .
41(4) . . .
43.2(34) . . .
36.8(33) . . .
36.2(33) . . .
35.2(33) . . .
48(4) . . .
43.4(34) . . .
40.1(33) . . .
46(4) . . .
33.1(29) . . .
43.3(35) . . .
40.3(33) . . .
37.8(34) . . .
44(4) . . .
37.9(32) . . .
41.5(35) . . .
37.7(32) . . .
37.2(34) . . .
32.3(31) . . .
44(4) . . .
41.7(34) . . .
43.2(35) . . .
42(4) . . .
41(4) . . .
40.3(34) . . .
34.6(32) . . .
37.6(32) . . .
43(4) . . .
38.5(35) . . .
33.8(31) . . .
32.5(31) . . .
39.3(32) . . .
31.0(30) . . .
33.9(32) . . .
42.4(34) . . .
36.8(32) . . .
32.0(30) . . .
39.9(33) . . .
40.5(34) . . .
36.6(32) . . .
52(4) . . .
34.3(30) . . .
54(4) . . .
35.8(34) . . .
37.0(32) . . .
46(4) . . .
37.6(32) . . .
33.9(31) . . .
42(4) . . .
40.0(33) . . .
38.7(32) . . .
47(4) . . .
40.5(33) . . .
47(4) . . .
51(4) . . .
42.7(34) . . .
32.7(31) . . .
35.1(32) . . .
37.6(32) . . .
40.9(33) . . .
42.4(34) . . .
39.9(35) . . .
45(4) . . .
46(4) . . .
42.9(34) . . .
41.4(33) . . .
39.1(34) . . .
41(4) . . .
45(4) . . .
36.2(31) . . .
34.7(30) . . .
38(4) . . .
36.0(34) . . .
38.2(34) . . .
41.7(34) . . .
53(4) . . .
34.6(31) . . .
35.8(32) . . .
34.6(31) . . .
34.3(32) . . .
42.7(34) . . .
35.2(34) . . .
42(4) . . .
43.1(35) . . .
44.3(35) . . .
37.1(31) . . .
40.9(34) . . .
41(4) . . .
38.4(32) . . .
45.3(35) . . .
44.2(34) . . .
36.0(31) . . .
27.8(28) . . .
42(4) . . .
41.1(34) . . .
41.3(33) . . .
40.1(34) . . .
34.2(33) . . .
30.7(29) . . .
43.5(35) . . .
38.4(34) . . .
44(4) . . .
43.6(35) . . .
43(4) . . .
39.3(33) . . .
34.5(33) . . .
39.6(34) . . .
44(4) . . .
30.6(30) . . .
40.1(33) . . .
42.4(34) . . .
42(4) . . .
49(4) . . .
43.3(34) . . .
42.4(34) . . .
38.3(33) . . .
46(4) . . .
45(4) . . .
37.3(32) . . .
39.2(33) . . .
39.9(34) . . .
42(4) . . .
40.8(35) . . .
37.1(33) . . .
41.0(33) . . .
39.5(33) . . .
47(4) . . .
39.3(34) . . .
29.9(29) . . .
35.4(31) . . .
46.3(35) . . .
45(4) . . .
44(4) . . .
42.0(35) . . .
28.3(28) . . .
35(4) . . .
32.6(34) . . .
35.5(34) . . .
32.0(29) . . .
35.5(32) . . .
37.9(34) . . .
35.3(33) . . .
44(4) . . .
34.4(30) . . .
40.3(33) . . .
36.8(33) . . .
32.8(32) . . .
41(4) . . .
34.4(30) . . .
38.4(33) . . .
32.4(28) . . .
40.1(33) . . .
38.9(33) . . .
43.0(34) . . .
47(4) . . .
43(4) . . .
37.3(32) . . .
40.7(33) . . .
43.9(34) . . .
43(4) . . .
34.9(30) . . .
41.9(34) . . .
38.4(32) . . .
41.2(34) . . .
42(4) . . .
36.0(34) . . .
35.5(32) . . .
44(4) . . .
43.6(34) . . .
50(4) . . .
49(4) . . .
39(4) . . .
29.1(28) . . .
34.9(31) . . .
34.1(31) . . .
36.0(32) . . .
41.3(33) . . .
44.9(34) . . .
43.6(35) . . .
39.5(34) . . .
38.8(33) . . .
43.0(34) . . .
34.8(31) . . .
38.3(32) . . .
34.9(32) . . .
41(4) . . .
32.5(31) . . .
40.7(33) . . .
34.5(30) . . .
45.2(35) . . .
46(4) . . .
41.0(34) . . .
31.7(29) . . .
31.3(31) . . .
44(4) . . .
37.9(32) . . .
46(4) . . .
44(4) . . .
47(4) . . .
40.1(35) . . .
34.7(32) . . .
41.8(34) . . .
36.3(32) . . .
35.5(33) . . .
34.2(32) . . .
43(4) . . .
38.4(32) . . .
34.6(30) . . .
38.8(33) . . .
36.9(33) . . .
46(4) . . .
48(4) . . .
42.5(34) . . .
34.2(31) . . .
41(4) . . .
43.9(35) . . .
43.3(34) . . .
44.0(35) . . .
41(4) . . .
41.4(34) . . .
31.3(29) . . .
38.9(32) . . .
40.5(33) . . .
38.8(32) . . .
36.3(32) . . .
38.6(33) . . .
32.6(30) . . .
38.1(32) . . .
44(4) . . .
43(4) . . .
38.9(34) . . .
35.9(31) . . .
37.5(32) . . .
41.3(34) . . .
37(4) . . .
36.3(34) . . .
34.1(31) . . .
43.4(34) . . .
47(4) . . .
37.5(32) . . .
47(4) . . .
40.5(33) . . .
37.4(32) . . .
43(4) . . .
34.2(33) . . .
35.9(32) . . .
42.8(35) . . .
33.7(30) . . .
42.3(35) . . .
43.9(35) . . .
49(4) . . .
41.7(34) . . .
39.4(33) . . .
43(4) . . .
34.7(32) . . .
41.4(34) . . .
38.6(33) . . .
37.2(33) . . .
43(4) . . .
35.5(31) . . .
37.0(32) . . .
40.5(33) . . .
41.6(35) . . .
37.5(31) . . .
45.3(35) . . .
41.1(34) . . .
40.9(34) . . .
26.5(29) . . .
37.3(35) . . .
39(4) . . .
35.9(33) . . .
40.1(32) . . .
36.4(33) . . .
31.0(30) . . .
32.8(30) . . .
39.9(33) . . .
41.0(33) . . .
37.1(31) . . .
33.4(32) . . .
32.6(31) . . .
36.7(32) . . .
41.6(33) . . .
37.7(33) . . .
40(4) . . .
38.1(33) . . .
44.5(34) . . .
38.2(33) . . .
40(4) . . .
40(4) . . .
44(4) . . .
36.6(32) . . .
42.8(35) . . .
31.0(30) . . .
35.0(34) . . .
48(4) . . .
36.0(31) . . .
31.2(31) . . .
27.2(29) . . .
30.8(31) . . .
43(4) . . .
40.1(33) . . .
44(4) . . .
38.5(32) . . .
36.9(33) . . .
29.3(28) . . .
34.2(30) . . .
42.9(34) . . .
48(4) . . .
48(4) . . .
35.2(31) . . .
38.8(33) . . .
41(4) . . .
40(4) . . .
38(4) . . .
43.1(34) . . .
32.8(30) . . .
33.9(32) . . .
35.2(31) . . .
35.6(34) . . .
36.0(33) . . .
40.0(33) . . .
46(4) . . .
49(4) . . .
42.7(34) . . .
31.5(29) . . .
42.6(34) . . .
41(4) . . .
40(4) . . .
38.8(34) . . .
39.7(34) . . .
34.7(31) . . .
43(4) . . .
43(4) . . .
35.1(32) . . .
34.6(31) . . .
36.1(32) . . .
37.0(33) . . .
35.7(34) . . .
41(4) . . .
32.0(29) . . .
39.7(33) . . .
40(4) . . .
37.0(34) . . .
42.5(35) . . .
34.5(31) . . .
35.9(31) . . .
40(4) . . .
31.8(33) . . .
31.6(30) . . .
43.0(34) . . .
39.1(33) . . .
35.6(32) . . .
38(4) . . .
35.8(33) . . .
42.6(34) . . .
39.5(33) . . .
42(4) . . .
31.9(30) . . .
36.1(31) . . .
35.8(31) . . .
37.0(33) . . .
37(4) . . .
35.6(33) . . .
38.2(33) . . .
35.7(31) . . .
35.0(31) . . .
39.8(34) . . .
42.5(34) . . .
41.9(34) . . .
36.5(32) . . .
30.4(32) . . .
33.6(32) . . .
41.0(34) . . .
44(4) . . .
35.7(31) . . .
29.4(29) . . .
43(4) . . .
39.7(35) . . .
34.2(31) . . .
33.5(30) . . .
46(4) . . .
35.7(32) . . .
35.5(31) . . .
41.2(34) . . .
39.5(33) . . .
40.3(35) . . .
44(4) . . .
40.7(35) . . .
38.2(32) . . .
36.6(32) . . .
45(4) . . .
35.2(34) . . .
35.5(32) . . .
43.9(34) . . .
38.2(34) . . .
39.8(34) . . .
35.4(33) . . .
37.9(33) . . .
32.5(29) . . .
41.3(34) . . .
45(4) . . .
48(4) . . .
39.1(34) . . .
34.2(30) . . .
36.0(31) . . .
33.5(30) . . .
34.2(33) . . .
39.6(33) . . .
47(4) . . .
40.5(33) . . .
45(4) . . .
37.7(32) . . .
47(4) . . .
38.8(32) . . .
45(4) . . .
40(4) . . .
47(4) . . .
43(4) . . .
52(4) . . .
36.9(32) . . .
39(4) . . .
28.1(29) . . .
35.1(33) . . .
39.2(33) . . .
37.5(33) . . .
32.5(32) . . .
32.8(31) . . .
35.0(31) . . .
35.8(32) . . .
42.0(35) . . .
43(4) . . .
36.9(33) . . .
38.4(32) . . .
40.9(33) . . .
35.0(30) . . .
38.4(34) . . .
47(4) . . .
36.2(33) . . .
41.3(34) . . .
49(4) . . .
39(4) . . .
35.8(34) . . .
35.8(31) . . .
33.4(30) . . .
39.2(34) . . .
31.0(30) . . .
35.4(32) . . .
33.5(30) . . .
38.2(32) . . .
33.7(31) . . .
40.8(35) . . .
37.3(33) . . .
36.3(32) . . .
34.3(32) . . .
39.0(34) . . .
42.1(34) . . .
42(4) . . .
36.2(31) . . .
33.3(30) . . .
44(4) . . .
36.6(33) . . .
35.8(32) . . .
40.5(33) . . .
34.5(31) . . .
38(4) . . .
33.0(32) . . .
35.8(31) . . .
41.3(34) . . .
40.3(35) . . .
41(4) . . .
37.9(33) . . .
45(4) . . .
44.2(35) . . .
38.3(34) . . .
32.1(31) . . .
46(4) . . .
40.9(34) . . .
48(4) . . .
42(4) . . .
51(4) . . .
46(4) . . .
20.2(24) . . .
32.8(30) . . .
45(4) . . .
47(4) . . .
34.8(30) . . .
34.9(31) . . .
34.0(30) . . .
37.5(33) . . .
41(4) . . .
45(4) . . .
41.7(35) . . .
34.9(30) . . .
51(4) . . .
40.4(34) . . .
39.6(35) . . .
46(4) . . .
42.0(34) . . .
40.7(34) . . .
33.6(32) . . .
41.8(35) . . .
43.8(34) . . .
31.8(30) . . .
46(4) . . .
52(4) . . .
39.5(33) . . .
41.6(34) . . .
44(4) . . .
40(4) . . .
29.6(27) . . .
46(4) . . .
42.8(34) . . .
32.5(30) . . .
38.8(35) . . .
44(4) . . .
37.8(32) . . .
41.3(33) . . .
35.7(32) . . .
32.9(31) . . .
41(4) . . .
36.6(32) . . .
46(4) . . .
37.9(33) . . .
32.2(32) . . .
39(4) . . .
37.1(33) . . .
38.6(32) . . .
41.7(34) . . .
40(4) . . .
38.1(33) . . .
41.3(35) . . .
41.4(34) . . .
40.9(35) . . .
44(4) . . .
38.6(33) . . .
42.5(34) . . .
42.3(34) . . .
36.0(30) . . .
32.0(31) . . .
32.4(31) . . .
34.8(30) . . .
45(4) . . .
31.9(30) . . .
35.8(32) . . .
43.8(35) . . .
35.8(31) . . .
47(4) . . .
40.7(34) . . .
38.0(34) . . .
44(4) . . .
39.3(33) . . .
46(4) . . .
44(4) . . .
35.1(33) . . .
39.9(34) . . .
35.7(32) . . .
31.0(29) . . .
41.9(34) . . .
36.8(33) . . .
40.6(35) . . .
29.8(29) . . .
33.7(30) . . .
35.0(32) . . .
35.8(35) . . .
32.6(30) . . .
44.1(34) . . .
40.3(34) . . .
32.6(31) . . .
35.9(32) . . .
36.5(31) . . .
41.0(34) . . .
54(4) . . .
37.9(33) . . .
38.4(34) . . .
34.8(31) . . .
42.4(34) . . .
27.1(27) . . .
37.0(33) . . .
42.0(34) . . .
45.1(35) . . .
37.0(31) . . .
43.5(35) . . .
40.2(33) . . .
45(4) . . .
32.4(30) . . .
32.5(29) . . .
40.1(34) . . .
39(4) . . .
40(4) . . .
35.8(31) . . .
38.7(33) . . .
31.7(29) . . .
38.1(34) . . .
34.3(31) . . .
35.3(31) . . .
37.9(33) . . .
37.8(32) . . .
34.9(33) . . .
37.4(33) . . .
40.7(33) . . .
34.3(31) . . .
39.1(34) . . .
44(4) . . .
29.5(30) . . .
36.9(31) . . .
41.0(33) . . .
36.1(32) . . .
42(4) . . .
31.4(30) . . .
33.6(30) . . .
31.8(30) . . .
30.6(30) . . .
36.7(32) . . .
35.9(32) . . .
41.0(34) . . .
33.8(32) . . .
39.1(34) . . .
39.6(33) . . .
32.2(31) . . .
31.9(30) . . .
29.2(28) . . .
36.5(33) . . .
35.4(32) . . .
34.7(32) . . .
38.7(32) . . .
29.3(29) . . .
40(4) . . .
38(4) . . .
32.5(30) . . .
38.0(32) . . .
38.5(34) . . .
35.2(34) . . .
39.5(34) . . .
40.5(35) . . .
30.8(29) . . .
38.6(34) . . .
32.8(30) . . .
40.3(33) . . .
36.9(31) . . .
38.8(33) . . .
40.5(33) . . .
37.0(32) . . .
33.7(30) . . .
25.8(26) . . .
28.2(28) . . .
40(4) . . .
39(4) . . .
36.5(32) . . .
49(4) . . .
42.3(34) . . .
39(4) . . .
40(4) . . .
43(4) . . .
39.9(33) . . .
38.0(32) . . .
40.6(34) . . .
36.7(34) . . .
37.6(34) . . .
36.0(32) . . .
34.7(30) . . .
40(4) . . .
37.4(34) . . .
37.5(32) . . .
42.9(34) . . .
48(4) . . .
36.7(32) . . .
44(4) . . .
36.8(31) . . .
40.1(33) . . .
39.2(34) . . .
40.6(35) . . .
37(4) . . .
35.7(31) . . .
31.1(30) . . .
51(4) . . .
41.7(34) . . .
49(4) . . .
28.1(27) . . .
44.5(35) . . .
37.6(32) . . .
30.0(31) . . .
37.8(34) . . .
39.0(33) . . .
33.7(31) . . .
40.1(33) . . .
45(4) . . .
36.3(32) . . .
46(4) . . .
33.2(30) . . .
45(4) . . .
40(4) . . .
32.3(31) . . .
31.5(29) . . .
37.8(31) . . .
39.1(33) . . .
43(4) . . .
38.7(33) . . .
41.2(33) . . .
39.9(33) . . .
38.0(33) . . .
36.7(34) . . .
40.8(34) . . .
38.7(33) . . .
39.3(33) . . .
37.0(33) . . .
37.0(35) . . .
37.3(34) . . .
37.0(31) . . .
37.2(34) . . .
37.0(34) . . .
28.7(29) . . .
32.9(30) . . .
39.9(32) . . .
43(4) . . .
40.8(34) . . .
42(4) . . .
31.4(29) . . .
39.8(33) . . .
34.9(31) . . .
33.3(30) . . .
41.8(35) . . .
41(4) . . .
29.1(28) . . .
30.2(29) . . .
34.3(31) . . .
33.2(31) . . .
34.6(31) . . .
41.8(34) . . .
38.8(35) . . .
45(4) . . .
40.5(33) . . .
43.1(34) . . .
33.5(30) . . .
29.6(28) . . .
34.3(33) . . .
35.5(32) . . .
29.0(29) . . .
35.3(31) . . .
44(4) . . .
43(4) . . .
40.4(34) . . .
41.0(34) . . .
42.6(33) . . .
39.0(33) . . .
29.3(29) . . .
34.5(32) . . .
46.3(35) . . .
31.9(31) . . .
29.7(29) . . .
34.2(34) . . .
38.7(35) . . .
35.9(31) . . .
42.2(35) . . .
33.4(31) . . .
34.7(32) . . .
35.9(32) . . .
43.9(35) . . .
34.0(32) . . .
33.8(33) . . .
31.4(31) . . .
43(4) . . .
46(4) . . .
50(4) . . .
41.8(35) . . .
34.8(30) . . .
37.3(32) . . .
31.9(29) . . .
38.4(33) . . .
37.8(33) . . .
43.2(35) . . .
40.1(32) . . .
45(4) . . .
40(4) . . .
34.6(33) . . .
33.3(32) . . .
29.7(28) . . .
49(4) . . .
37.1(33) . . .
34.3(33) . . .
33.9(30) . . .
36.2(31) . . .
36.4(31) . . .
42.5(35) . . .
33.0(32) . . .
31.3(30) . . .
37.5(32) . . .
40.8(34) . . .
37.3(32) . . .
34.4(33) . . .
39(4) . . .
38.5(32) . . .
42.4(33) . . .
41(4) . . .
42(4) . . .
39.6(34) . . .
39.1(33) . . .
35.1(30) . . .
40.0(34) . . .
30.9(30) . . .
26.9(27) . . .
38.6(33) . . .
36.9(31) . . .
41.1(35) . . .
40.2(34) . . .
36.5(32) . . .
36.8(31) . . .
37.2(32) . . .
43(4) . . .
37.2(33) . . .
45(4) . . .
31.5(29) . . .
38.7(32) . . .
38.0(34) . . .
39.5(32) . . .
40.3(33) . . .
42.5(33) . . .
34.9(34) . . .
40.3(35) . . .
46(4) . . .
45(4) . . .
39.7(33) . . .
41.9(34) . . .
38.4(34) . . .
37.7(33) . . .
38.6(33) . . .
44.9(35) . . .
34.1(32) . . .
31.1(30) . . .
43(4) . . .
28.5(27) . . .
30.8(29) . . .
29.1(29) . . .
41(4) . . .
31.6(29) . . .
48(4) . . .
41.1(34) . . .
40.8(34) . . .
37.6(34) . . .
32.2(31) . . .
37.9(33) . . .
43.8(35) . . .
42.3(35) . . .
40(4) . . .
34.9(32) . . .
40.2(33) . . .
40.3(33) . . .
37.5(32) . . .
34.7(32) . . .
34.6(32) . . .
33.7(31) . . .
40.5(33) . . .
36.2(32) . . .
45(4) . . .
33.9(31) . . .
37.0(31) . . .
49(4) . . .
37.4(33) . . .
36.7(33) . . .
35.0(32) . . .
42.0(33) . . .
37.1(32) . . .
42.3(35) . . .
41.4(35) . . .
49(4) . . .
30.3(29) . . .
40.6(34) . . .
42(4) . . .
42(4) . . .
34.1(31) . . .
34.8(31) . . .
33.8(32) . . .
36.6(34) . . .
33.5(30) . . .
35.5(31) . . .
34.8(31) . . .
32.6(31) . . .
44(4) . . .
47(4) . . .
49(4) . . .
39.8(33) . . .
35.7(31) . . .
32.7(30) . . .
38.0(34) . . .
44.1(35) . . .
42.2(34) . . .
42.3(34) . . .
42.0(35) . . .
41.2(34) . . .
36.2(31) . . .
43.9(34) . . .
38.6(33) . . .
33.6(33) . . .
36.2(32) . . .
35.6(31) . . .
40.4(34) . . .
48(4) . . .
37.9(35) . . .
52(4) . . .
34.7(31) . . .
37.4(32) . . .
30.6(29) . . .
35.0(30) . . .
38.8(34) . . .
39.8(33) . . .
34.0(30) . . .
31.5(29) . . .
37.6(34) . . .
35.6(34) . . .
35.4(32) . . .
48(4) . . .
39.8(34) . . .
34.8(32) . . .
35.0(31) . . .
38.7(32) . . .
40(4) . . .
37.4(32) . . .
33.9(31) . . .
42.9(35) . . .
39.3(33) . . .
42.2(34) . . .
39.9(35) . . .
29.5(30) . . .
38.0(33) . . .
37.8(33) . . .
38.5(32) . . .
45(4) . . .
40.8(34) . . .
28.6(28) . . .
28.3(29) . . .
33.2(31) . . .
36(4) . . .
41.8(35) . . .
44.2(35) . . .
32.8(29) . . .
34.2(31) . . .
42(4) . . .
33.3(30) . . .
29.7(29) . . .
36.8(32) . . .
35.2(31) . . .
36.7(34) . . .
40.0(34) . . .
37.1(32) . . .
35.5(31) . . .
41(4) . . .
38(4) . . .
32.7(31) . . .
41.2(33) . . .
28.7(28) . . .
38.6(33) . . .
44(4) . . .
40.7(35) . . .
33.5(30) . . .
39.0(33) . . .
37.1(34) . . .
34.2(32) . . .
47(4) . . .
48(4) . . .
49(4) . . .
44(4) . . .
46(4) . . .
41(4) . . .
28.8(28) . . .
39.2(33) . . .
39.7(33) . . .
44.8(35) . . .
29.2(28) . . .
44.8(35) . . .
37.6(34) . . .
35.6(33) . . .
32.7(31) . . .
35.0(32) . . .
40.5(33) . . .
34.6(31) . . .
40(4) . . .
38.5(34) . . .
37.4(32) . . .
31.0(30) . . .
46(4) . . .
36.5(34) . . .
36.2(32) . . .
28.2(27) . . .
38.5(32) . . .
37.0(35) . . .
39(4) . . .
34.7(33) . . .
45(4) . . .
41.9(34) . . .
47(4) . . .
40.2(35) . . .
36.9(32) . . .
45.9(35) . . .
40.3(33) . . .
36.5(33) . . .
44(4) . . .
44(4) . . .
37.0(32) . . .
43(4) . . .
43.4(34) . . .
44(4) . . .
40.8(34) . . .
37.7(32) . . .
36.8(31) . . .
39.7(33) . . .
33.2(31) . . .
35.3(32) . . .
47(4) . . .
37.6(33) . . .
41(4) . . .
42(4) . . .
35.5(32) . . .
38.8(32) . . .
36.4(33) . . .
31.2(30) . . .
35.3(34) . . .
34.8(31) . . .
33.8(31) . . .
37.8(32) . . .
45(4) . . .
45(4) . . .
33.9(30) . . .
39.7(33) . . .
43.3(35) . . .
29.4(28) . . .
34.6(31) . . .
33.1(30) . . .
36.9(31) . . .
40.2(35) . . .
30.9(32) . . .
25.6(29) . . .
35.8(31) . . .
38.7(33) . . .
35.8(33) . . .
40(4) . . .
38.7(32) . . .
43.7(34) . . .
35.0(31) . . .
39.8(34) . . .
44(4) . . .
47(4) . . .
32.2(29) . . .
31.7(29) . . .
37.0(32) . . .
41(4) . . .
29.9(28) . . .
36.0(35) . . .
42.2(33) . . .
33.8(31) . . .
50(4) . . .
32.4(31) . . .
33.4(31) . . .
34.2(30) . . .
38.9(35) . . .
48(4) . . .
39.8(33) . . .
35.2(31) . . .
35.4(31) . . .
37.6(35) . . .
32.4(32) . . .
34.2(31) . . .
37.7(32) . . .
45.9(35) . . .
39.4(33) . . .
39(4) . . .
34.5(31) . . .
35.8(31) . . .
41(4) . . .
38.9(33) . . .
33.8(31) . . .
37.9(34) . . .
49(4) . . .
31.8(32) . . .
38.5(32) . . .
37.7(31) . . .
44.4(35) . . .
32.2(29) . . .
36.8(32) . . .
38.0(34) . . .
41(4) . . .
26.7(27) . . .
31.7(30) . . .
26.4(28) . . .
38.5(34) . . .
36.5(32) . . .
44(4) . . .
39.7(34) . . .
36.4(33) . . .
39.3(34) . . .
31.6(31) . . .
32.9(30) . . .
34.8(31) . . .
38.3(34) . . .
44(4) . . .
35.0(31) . . .
41.3(34) . . .
34.2(30) . . .
40(4) . . .
37(4) . . .
34.4(33) . . .
34.9(32) . . .
37.5(32) . . .
33.7(33) . . .
36.0(34) . . .
35.6(33) . . .
30.4(29) . . .
42.0(34) . . .
37.0(35) . . .
32.5(30) . . .
39.3(33) . . .
39.6(33) . . .
36.8(33) . . .
35.5(32) . . .
34.8(33) . . .
41(4) . . .
24.4(26) . . .
42.5(34) . . .
35.4(33) . . .
31.8(32) . . .
33.5(30) . . .
31.1(29) . . .
47(4) . . .
34.1(32) . . .
29.5(28) . . .
38.1(34) . . .
38.7(33) . . .
43(4) . . .
43(4) . . .
41(4) . . .
29.1(29) . . .
36.7(32) . . .
37.3(33) . . .
31.8(30) . . .
37.1(32) . . .
34.0(31) . . .
42.2(34) . . .
39.5(34) . . .
37.4(35) . . .
44(4) . . .
35.4(31) . . .
39.7(34) . . .
37.4(32) . . .
44(4) . . .
41(4) . . .
36.8(31) . . .
34.0(31) . . .
41.0(35) . . .
34.8(32) . . .
33.9(31) . . .
39.8(33) . . .
35.3(32) . . .
35.0(30) . . .
32.2(29) . . .
35.3(32) . . .
43.9(34) . . .
38.9(33) . . .
31.0(29) . . .
35.6(33) . . .
35.3(32) . . .
41.8(33) . . .
34.1(32) . . .
39(4) . . .
30.8(31) . . .
44(4) . . .
33.4(30) . . .
40.4(35) . . .
33.1(30) . . .
35.9(32) . . .
33.6(32) . . .
40.2(33) . . .
39.0(34) . . .
38.3(32) . . .
42.9(35) . . .
34.4(31) . . .
38.3(32) . . .
36.1(33) . . .
40(4) . . .
39(4) . . .
33.9(31) . . .
26.5(27) . . .
35.0(32) . . .
38.5(33) . . .
40.9(33) . . .
32.5(29) . . .
37.8(32) . . .
39(4) . . .
38(4) . . .
37.7(34) . . .
33.3(31) . . .
30.9(29) . . .
38.7(33) . . .
43(4) . . .
36.6(31) . . .
38.5(33) . . .
41.4(34) . . .
42.9(34) . . .
45(4) . . .
33.6(30) . . .
47(4) . . .
34.3(31) . . .
39.4(33) . . .
43(4) . . .
40(4) . . .
45.2(35) . . .
44.6(35) . . .
37.9(34) . . .
28.1(28) . . .
28.7(28) . . .
40.4(33) . . .
36.7(33) . . .
43(4) . . .
49(4) . . .
34.4(30) . . .
43.3(34) . . .
32.1(31) . . .
44(4) . . .
37.2(31) . . .
39.0(32) . . .
29.9(29) . . .
39.2(34) . . .
35.2(33) . . .
34.3(30) . . .
42.2(35) . . .
40.7(33) . . .
40.1(34) . . .
40(4) . . .
32.0(30) . . .
43.0(35) . . .
38.2(33) . . .
34.1(31) . . .
45(4) . . .
49(4) . . .
29.6(28) . . .
26.8(27) . . .
40.1(34) . . .
42(4) . . .
39.9(34) . . .
38.8(33) . . .
38.1(32) . . .
35.8(31) . . .
40(4) . . .
37.5(32) . . .
39.1(33) . . .
37.3(32) . . .
38.9(33) . . .
37.9(34) . . .
34.5(33) . . .
44.8(35) . . .
42.0(34) . . .
31.9(30) . . .
42(4) . . .
38.9(33) . . .
46(4) . . .
36.2(32) . . .
39.3(33) . . .
38.9(34) . . .
38.4(34) . . .
40.5(33) . . .
35.7(31) . . .
42(4) . . .
42.3(34) . . .
40.2(34) . . .
42.3(34) . . .
34.3(31) . . .
34.2(31) . . .
34.3(30) . . .
31.0(30) . . .
43.2(34) . . .
35.2(31) . . .
43(4) . . .
34.3(32) . . .
54(4) . . .
51(4) . . .
40.5(34) . . .
42(4) . . .
43(4) . . .
42.3(34) . . .
38.9(32) . . .
44(4) . . .
45(4) . . .
39.2(34) . . .
32.4(30) . . .
40.0(32) . . .
40(4) . . .
37.3(34) . . .
35.5(33) . . .
47(4) . . .
32.8(30) . . .
34.1(31) . . .
40(4) . . .
39.4(33) . . .
38.9(33) . . .
42.3(35) . . .
37.6(34) . . .
35(4) . . .
38.7(34) . . .
39.7(33) . . .
36.2(31) . . .
38.2(32) . . .
39.3(34) . . .
36.9(33) . . .
36.8(32) . . .
34.6(30) . . .
37.1(33) . . .
37(4) . . .
34.1(33) . . .
32.3(30) . . .
41.3(34) . . .
37.6(33) . . .
31.7(31) . . .
39.4(33) . . .
39.9(33) . . .
40.7(34) . . .
50(4) . . .
40.7(35) . . .
41.4(34) . . .
37.4(32) . . .
39.9(33) . . .
42.3(35) . . .
37.2(33) . . .
24.0(26) . . .
37.2(32) . . .
41(4) . . .
36.6(34) . . .
40.6(34) . . .
39.5(33) . . .
43.2(34) . . .
40.6(33) . . .
38.1(34) . . .
33(4) . . .
32.3(32) . . .
42.8(34) . . .
28.6(28) . . .
31.7(30) . . .
40.3(34) . . .
39.9(33) . . .
39.4(33) . . .
46(4) . . .
33.9(31) . . .
24.3(26) . . .
33.3(31) . . .
37.1(32) . . .
35.6(31) . . .
38(4) . . .
35.8(32) . . .
29.4(28) . . .
42.4(34) . . .
39.0(33) . . .
38.1(34) . . .
33.8(32) . . .
38.5(33) . . .
31.8(29) . . .
32.0(29) . . .
40(4) . . .
40.0(33) . . .
35.8(31) . . .
46(4) . . .
38.3(32) . . .
32.8(32) . . .
42(4) . . .
37.5(33) . . .
30.1(29) . . .
42(4) . . .
34.6(30) . . .
38.2(35) . . .
32.2(29) . . .
45(4) . . .
44(4) . . .
38.6(32) . . .
49(4) . . .
40.4(33) . . .
40.1(35) . . .
41.2(34) . . .
31.4(29) . . .
48(4) . . .
35.6(31) . . .
37(4) . . .
36.2(33) . . .
34.7(31) . . .
43(4) . . .
44.2(34) . . .
43(4) . . .
34.2(31) . . .
35.6(31) . . .
43.3(34) . . .
42.2(34) . . .
47(4) . . .
45(4) . . .
33.6(30) . . .
45(4) . . .
43.4(34) . . .
45(4) . . .
39.9(35) . . .
39.4(34) . . .
34.9(30) . . .
41.0(34) . . .
29.7(29) . . .
35.9(32) . . .
37.0(32) . . .
36.7(34) . . .
29.9(28) . . .
40(4) . . .
39(4) . . .
32.2(31) . . .
31.0(29) . . .
34.6(31) . . .
31.6(30) . . .
35.3(33) . . .
41(4) . . .
30.7(29) . . .
40.3(33) . . .
29.6(29) . . .
36.1(33) . . .
44(4) . . .
42.9(34) . . .
39.1(33) . . .
41.7(34) . . .
41.9(34) . . .
36.3(32) . . .
36.3(32) . . .
43(4) . . .
34.9(32) . . .
40.6(34) . . .
37.5(33) . . .
33.9(31) . . .
38.2(33) . . .
37.9(34) . . .
45(4) . . .
36.2(31) . . .
40.8(33) . . .
34.5(32) . . .
36.2(34) . . .
34.0(32) . . .
38.7(32) . . .
37.5(32) . . .
36.5(32) . . .
34.8(32) . . .
31.8(29) . . .
37.4(32) . . .
37.4(31) . . .
45(4) . . .
41.7(35) . . .
27.6(29) . . .
28.3(28) . . .
33.9(30) . . .
33.3(31) . . .
37.1(34) . . .
34.7(32) . . .
46(4) . . .
37.9(32) . . .
37.3(35) . . .
37.1(33) . . .
44(4) . . .
38.4(32) . . .
40.4(33) . . .
39.3(33) . . .
34.4(31) . . .
28.8(28) . . .
35.4(31) . . .
46(4) . . .
51(4) . . .
37.7(33) . . .
33.3(31) . . .
40.7(33) . . .
26.5(27) . . .
40(4) . . .
33.5(32) . . .
36.4(32) . . .
37.1(32) . . .
49(4) . . .
34.1(31) . . .
33.6(31) . . .
43(4) . . .
36.3(31) . . .
29.7(30) . . .
30.0(29) . . .
40(4) . . .
40.4(34) . . .
30.3(29) . . .
36.8(32) . . .
41(4) . . .
42(4) . . .
32.9(30) . . .
41.2(33) . . .
44(4) . . .
33.0(30) . . .
32.7(30) . . .
31.4(30) . . .
32.6(30) . . .
35.9(31) . . .
41(4) . . .
31.1(29) . . .
33.4(30) . . .
28.0(27) . . .
34.7(31) . . .
39(4) . . .
37.5(32) . . .
34.0(30) . . .
39.7(33) . . .
29.0(28) . . .
31.4(29) . . .
48(4) . . .
33.0(30) . . .
35.0(30) . . .
33.9(29) . . .
38.2(34) . . .
33.6(31) . . .
37.7(32) . . .
39.1(33) . . .
44(4) . . .
43(4) . . .
33.0(32) . . .
37.6(32) . . .
39.4(33) . . .
36.0(32) . . .
35.1(32) . . .
36.8(33) . . .
37.3(33) . . .
35.8(32) . . .
33.8(32) . . .
35.3(31) . . .
42.7(35) . . .
37.7(32) . . .
37.8(34) . . .
33.8(31) . . .
39.8(34) . . .
34.0(31) . . .
39.4(33) . . .
30.5(30) . . .
38.8(34) . . .
42.2(35) . . .
43.8(35) . . .
34.3(31) . . .
45(4) . . .
42(4) . . .
33.3(31) . . .
45(4) . . .
27.5(27) . . .
34.8(32) . . .
37.1(34) . . .
35.7(33) . . .
29.4(28) . . .
34.6(30) . . .
39(4) . . .
42(4) . . .
33.8(33) . . .
30.7(29) . . .
35.3(31) . . .
47(4) . . .
31.4(32) . . .
41(4) . . .
36.6(31) . . .
31.9(31) . . .
33.9(30) . . .
32.9(32) . . .
28.0(30) . . .
30.8(29) . . .
40.2(34) . . .
34.9(30) . . .
50(4) . . .
38.5(34) . . .
43.3(34) . . .
40.2(33) . . .
33.6(31) . . .
46(4) . . .
45(4) . . .
55(4) . . .
38.9(33) . . .
37.1(32) . . .
38.8(34) . . .
45(4) . . .
36.1(31) . . .
31.9(30) . . .
35.2(33) . . .
38.0(33) . . .
36.0(33) . . .
37.9(32) . . .
42(4) . . .
36.5(33) . . .
37.3(34) . . .
41(4) . . .
32.9(30) . . .
28.7(30) . . .
43(4) . . .
31.9(29) . . .
36.8(32) . . .
31.7(30) . . .
42(4) . . .
40(4) . . .
39.3(34) . . .
34.5(31) . . .
39.7(33) . . .
35.7(31) . . .
38.6(35) . . .
37.4(32) . . .
37.1(32) . . .
37.3(32) . . .
23.8(25) . . .
42(4) . . .
42(4) . . .
28.7(28) . . .
34.3(31) . . .
32.5(30) . . .
37(4) . . .
34.2(32) . . .
28.0(27) . . .
30.8(29) . . .
30.1(30) . . .
38(4) . . .
40.7(35) . . .
36.7(31) . . .
42.2(35) . . .
42.0(35) . . .
33.6(33) . . .
36.6(32) . . .
37.2(32) . . .
35.8(31) . . .
34.5(31) . . .
43(4) . . .
34.0(32) . . .
37.2(32) . . .
38.5(33) . . .
33.0(32) . . .
39.9(34) . . .
40.3(34) . . .
40.3(34) . . .
33.5(31) . . .
50(4) . . .
42(4) . . .
32.4(30) . . .
29.2(28) . . .
36.6(32) . . .
35.2(34) . . .
28.7(27) . . .
41.8(35) . . .
35.2(31) . . .
43(4) . . .
34.2(35) . . .
33.9(32) . . .
45.0(35) . . .
32.7(30) . . .
37.3(32) . . .
36.1(32) . . .
31.4(31) . . .
27.9(28) . . .
39.8(34) . . .
33.9(31) . . .
41(4) . . .
36.2(32) . . .
37.7(33) . . .
39.1(33) . . .
46(4) . . .
36.3(33) . . .
33.7(32) . . .
40.3(33) . . .
35.0(31) . . .
33.8(33) . . .
37.2(34) . . .
32.7(31) . . .
36.4(31) . . .
39.6(33) . . .
39.1(35) . . .
37.5(33) . . .
39.5(33) . . .
37.3(32) . . .
34.3(33) . . .
33.3(31) . . .
32.8(30) . . .
32.3(31) . . .
34.0(30) . . .
32.7(32) . . .
40(4) . . .
45(4) . . .
41.2(34) . . .
37.8(32) . . .
33.4(30) . . .
36.2(32) . . .
39.0(34) . . .
32.5(31) . . .
40.7(34) . . .
43(4) . . .
41.9(35) . . .
49(4) . . .
42.8(35) . . .
41.3(33) . . .
46(4) . . .
39.5(34) . . .
40.9(34) . . .
38.5(32) . . .
32.8(30) . . .
30.6(31) . . .
34.8(32) . . .
37.6(34) . . .
42.8(35) . . .
43.5(35) . . .
37.8(34) . . .
39(4) . . .
41.5(34) . . .
41.3(34) . . .
44.1(34) . . .
36.5(32) . . .
34.6(32) . . .
39.0(33) . . .
41.2(34) . . .
35.4(30) . . .
40.7(34) . . .
32.2(30) . . .
40.3(34) . . .
38.9(33) . . .
42(4) . . .
35.9(32) . . .
35.1(31) . . .
40(4) . . .
30.4(29) . . .
40.4(34) . . .
36.0(31) . . .
39.3(34) . . .
43(4) . . .
40.1(33) . . .
28.6(28) . . .
32.3(32) . . .
34.2(32) . . .
36.0(32) . . .
31.6(29) . . .
34.3(30) . . .
35.7(33) . . .
33.3(32) . . .
37.3(32) . . .
43.2(34) . . .
42.8(34) . . .
46(4) . . .
37.8(33) . . .
27.6(28) . . .
32.2(30) . . .
40.1(34) . . .
42(4) . . .
35.7(33) . . .
35.7(32) . . .
39.5(34) . . .
38.3(34) . . .
45(4) . . .
35.9(32) . . .
32.8(30) . . .
40.4(33) . . .
29.0(28) . . .
30.7(32) . . .
27.0(28) . . .
42.0(34) . . .
41.0(34) . . .
44(4) . . .
32.8(33) . . .
39.0(34) . . .
36.1(32) . . .
36.3(32) . . .
32.1(30) . . .
30.9(32) . . .
36.2(35) . . .
37.9(32) . . .
36.9(33) . . .
40.7(34) . . .
37.6(33) . . .
32.8(31) . . .
36.1(32) . . .
37.2(32) . . .
30.8(30) . . .
43(4) . . .
40.0(34) . . .
31.1(29) . . .
46(4) . . .
31.8(29) . . .
42(4) . . .
47(4) . . .
31.0(29) . . .
35.4(31) . . .
47(4) . . .
34.5(31) . . .
35.8(32) . . .
36.5(31) . . .
35.7(34) . . .
37.6(34) . . .
38.5(35) . . .
34.9(31) . . .
40.5(33) . . .
29.9(30) . . .
35.3(33) . . .
40.7(35) . . .
39.7(33) . . .
42.2(34) . . .
39.4(33) . . .
35.1(32) . . .
44(4) . . .
41.5(34) . . .
41.6(34) . . .
37.7(33) . . .
35.5(33) . . .
33.9(31) . . .
39.8(34) . . .
40.7(34) . . .
36.9(32) . . .
42(4) . . .
40.6(34) . . .
29.8(29) . . .
44.0(35) . . .
34.6(31) . . .
33.3(33) . . .
39.0(34) . . .
32.8(30) . . .
34.8(31) . . .
32.6(29) . . .
27.6(27) . . .
44(4) . . .
29.8(28) . . .
33.8(31) . . .
27.6(28) . . .
47(4) . . .
45(4) . . .
35.5(31) . . .
38.2(33) . . .
43(4) . . .
34.0(31) . . .
32.4(30) . . .
34.7(31) . . .
47(4) . . .
42.3(34) . . .
41.4(35) . . .
35.9(32) . . .
45(4) . . .
34.2(31) . . .
38.6(33) . . .
42.8(35) . . .
40.3(34) . . .
27.6(28) . . .
32.5(30) . . .
46(4) . . .
44(4) . . .
43.1(34) . . .
40.2(33) . . .
42(4) . . .
42(4) . . .
32.2(32) . . .
40.7(34) . . .
41.0(34) . . .
35.8(31) . . .
36.8(33) . . .
33.2(30) . . .
40.5(33) . . .
42.1(34) . . .
37.5(32) . . .
43(4) . . .
34.7(34) . . .
37.3(32) . . .
36.7(31) . . .
43(4) . . .
35.9(35) . . .
31.4(30) . . .
32.6(31) . . .
39.2(32) . . .
36.6(32) . . .
30.6(29) . . .
37.1(33) . . .
31.2(29) . . .
34.2(31) . . .
37.2(34) . . .
32.0(31) . . .
38.3(33) . . .
27.6(27) . . .
27.1(27) . . .
43(4) . . .
39.6(35) . . .
37.0(32) . . .
39.7(33) . . .
31.9(29) . . .
35.1(33) . . .
31.6(30) . . .
34.8(31) . . .
41.1(35) . . .
31.6(30) . . .
33.8(30) . . .
37.1(32) . . .
35.8(32) . . .
33.3(30) . . .
36.7(33) . . .
39.8(35) . . .
44(4) . . .
33.0(30) . . .
39.9(33) . . .
32.7(30) . . .
37.6(35) . . .
36.0(32) . . .
30.0(29) . . .
37.4(32) . . .
39.0(33) . . .
36.5(33) . . .
38.7(34) . . .
33.2(30) . . .
39.6(34) . . .
38.6(33) . . .
22.4(23) . . .
31.4(30) . . .
36.8(32) . . .
29.8(29) . . .
30.4(30) . . .
41(4) . . .
41.5(35) . . .
34.0(31) . . .
30.3(28) . . .
39.8(34) . . .
43(4) . . .
36.2(32) . . .
36.4(31) . . .
37.9(32) . . .
37.2(31) . . .
34.1(32) . . .
36.2(33) . . .
42.0(34) . . .
40.5(33) . . .
32.2(30) . . .
44(4) . . .
33.8(30) . . .
34.3(31) . . .
33.9(32) . . .
45(4) . . .
44(4) . . .
35.6(32) . . .
37.0(32) . . .
32.2(30) . . .
43.4(35) . . .
38.9(33) . . .
39.8(33) . . .
36.8(31) . . .
40.4(35) . . .
31.6(30) . . .
33.2(31) . . .
33.9(31) . . .
35.0(30) . . .
39.9(33) . . .
32.7(30) . . .
42(4) . . .
34.4(32) . . .
36.0(31) . . .
39.6(32) . . .
43(4) . . .
47(4) . . .
37.2(33) . . .
36.4(32) . . .
41.3(34) . . .
46(4) . . .
34.6(31) . . .
39.9(33) . . .
30.4(29) . . .
35.5(31) . . .
32.3(33) . . .
37.5(34) . . .
44.2(35) . . .
45.0(35) . . .
34.7(32) . . .
33.3(31) . . .
40.6(34) . . .
37.9(32) . . .
42(4) . . .
32.6(30) . . .
45(4) . . .
33.3(31) . . .
42.8(34) . . .
38.8(32) . . .
36.0(31) . . .
44(4) . . .
31.5(30) . . .
36.6(31) . . .
28.1(27) . . .
29.8(28) . . .
33.8(31) . . .
36.0(31) . . .
29.4(29) . . .
34.4(31) . . .
37.9(33) . . .
37.4(34) . . .
31.6(29) . . .
34.1(32) . . .
38.0(34) . . .
41(4) . . .
38.3(32) . . .
46(4) . . .
38.1(32) . . .
38.1(33) . . .
36.4(33) . . .
38.4(33) . . .
40.4(33) . . .
36.5(31) . . .
34.7(33) . . .
36.9(33) . . .
35.7(32) . . .
37.7(33) . . .
38.0(32) . . .
43(4) . . .
33.2(31) . . .
44.3(35) . . .
38.8(33) . . .
36.8(31) . . .
43(4) . . .
34.7(34) . . .
29.2(29) . . .
34.2(31) . . .
35.4(32) . . .
43(4) . . .
42(4) . . .
42(4) . . .
28.6(28) . . .
35.3(31) . . .
28.1(28) . . .
40.9(34) . . .
34.6(31) . . .
37.7(32) . . .
33.2(31) . . .
38.4(33) . . .
31.4(30) . . .
37.4(35) . . .
38.5(32) . . .
45(4) . . .
37.2(32) . . .
30.4(29) . . .
32.9(32) . . .
29.6(28) . . .
29.1(29) . . .
45(4) . . .
39.3(32) . . .
40.4(35) . . .
37.8(32) . . .
34.8(32) . . .
33.7(33) . . .
45(4) . . .
38.1(33) . . .
39.7(33) . . .
34.2(31) . . .
42(4) . . .
28.8(28) . . .
36.3(31) . . .
41.2(34) . . .
30.8(29) . . .
31.4(30) . . .
34.0(30) . . .
50(4) . . .
37.2(32) . . .
33.6(30) . . .
35.5(33) . . .
40(4) . . .
35.7(31) . . .
42.0(34) . . .
37.3(31) . . .
34.3(31) . . .
45(4) . . .
28.6(28) . . .
40.7(33) . . .
43(4) . . .
31.4(30) . . .
34.2(30) . . .
35.0(30) . . .
36.3(32) . . .
38.0(34) . . .
42(4) . . .
33.8(30) . . .
35.7(31) . . .
43.3(35) . . .
47(4) . . .
36.5(32) . . .
39(4) . . .
33.4(30) . . .
40.7(34) . . .
37.1(32) . . .
34.0(31) . . .
34.1(32) . . .
40.7(33) . . .
40.5(34) . . .
37.7(33) . . .
37.3(33) . . .
37.2(33) . . .
37.9(32) . . .
30.2(29) . . .
33.9(30) . . .
49(4) . . .
35.2(31) . . .
34.6(31) . . .
35.7(32) . . .
31.8(31) . . .
31.3(30) . . .
31.4(29) . . .
32.9(30) . . .
44(4) . . .
40.7(34) . . .
45(4) . . .
42.3(34) . . .
35.9(32) . . .
33.5(31) . . .
41(4) . . .
37.5(32) . . .
40.7(33) . . .
39.7(34) . . .
35.2(33) . . .
35.4(33) . . .
36.8(33) . . .
32.0(30) . . .
42.1(34) . . .
45(4) . . .
29.2(31) . . .
28.2(29) . . .
36.5(32) . . .
39.7(34) . . .
35.5(34) . . .
33.3(32) . . .
43(4) . . .
36.5(31) . . .
36.2(31) . . .
42(4) . . .
32.6(31) . . .
40.9(35) . . .
40.9(33) . . .
37.0(33) . . .
30.0(28) . . .
42(4) . . .
30.5(30) . . .
30.5(29) . . .
29.9(28) . . .
28.4(29) . . .
35.7(33) . . .
34.4(31) . . .
36.7(33) . . .
48(4) . . .
38.5(33) . . .
44(4) . . .
33.1(30) . . .
38.8(33) . . .
28.5(29) . . .
38(4) . . .
30.0(29) . . .
38.8(33) . . .
38.9(32) . . .
37.6(32) . . .
40.3(35) . . .
40.5(34) . . .
36.8(31) . . .
43(4) . . .
30.4(30) . . .
34.9(33) . . .
35.3(32) . . .
30.9(29) . . .
38.4(34) . . .
31.4(29) . . .
36.9(34) . . .
36.0(34) . . .
43(4) . . .
42.2(33) . . .
36.1(33) . . .
33.3(31) . . .
37.8(33) . . .
38.6(33) . . .
35.1(31) . . .
40.7(34) . . .
39.2(34) . . .
41(4) . . .
37.3(32) . . .
32.2(30) . . .
43(4) . . .
50(4) . . .
38.1(33) . . .
34.3(31) . . .
33.8(31) . . .
34.9(31) . . .
45(4) . . .
34.2(32) . . .
41.7(34) . . .
33.8(31) . . .
49(4) . . .
43(4) . . .
41.6(34) . . .
42.8(34) . . .
43(4) . . .
40.5(35) . . .
32.5(30) . . .
30.7(29) . . .
44.3(35) . . .
32.5(31) . . .
38(4) . . .
25.6(27) . . .
34.1(31) . . .
31.1(29) . . .
36.2(32) . . .
38(4) . . .
36.3(34) . . .
38.4(32) . . .
39.7(33) . . .
33.8(31) . . .
29.9(30) . . .
35.1(31) . . .
43.1(34) . . .
30.4(28) . . .
42(4) . . .
41(4) . . .
38.7(34) . . .
32.8(30) . . .
35.5(31) . . .
33.3(33) . . .
29.8(29) . . .
37.6(34) . . .
31.1(29) . . .
31.8(30) . . .
39.7(34) . . .
46(4) . . .
38.8(34) . . .
42.4(34) . . .
31.7(30) . . .
37.8(33) . . .
39.1(34) . . .
34.6(33) . . .
27.9(27) . . .
29.7(30) . . .
32.5(33) . . .
29.9(30) . . .
36(4) . . .
34.6(31) . . .
37.3(32) . . .
35.4(32) . . .
35.3(32) . . .
36.9(33) . . .
34.2(30) . . .
38.2(32) . . .
31.5(29) . . .
27.5(26) . . .
33.8(31) . . .
39.6(32) . . .
36.7(34) . . .
35.8(34) . . .
29.4(29) . . .
38.4(32) . . .
32.8(30) . . .
31.2(30) . . .
36.3(32) . . .
42(4) . . .
34.3(30) . . .
34.1(30) . . .
39.6(35) . . .
41(4) . . .
40(4) . . .
32.3(29) . . .
32.9(30) . . .
47(4) . . .
38.0(32) . . .
35.1(31) . . .
34.6(31) . . .
36.6(32) . . .
35.7(32) . . .
43(4) . . .
39.9(35) . . .
37.0(32) . . .
35.7(31) . . .
30.7(30) . . .
38.4(35) . . .
42(4) . . .
40.4(33) . . .
36.3(31) . . .
40.3(34) . . .
38.9(34) . . .
36.6(35) . . .
35.0(31) . . .
31.0(29) . . .
41.3(35) . . .
40(4) . . .
38.1(33) . . .
28.4(28) . . .
27.4(28) . . .
39.1(33) . . .
41.5(34) . . .
34.3(31) . . .
37.6(32) . . .
40.5(33) . . .
45(4) . . .
46(4) . . .
34.5(30) . . .
24.1(26) . . .
36.8(33) . . .
35.0(34) . . .
33.8(32) . . .
36.9(34) . . .
37.9(32) . . .
36.4(33) . . .
31.7(29) . . .
36.3(33) . . .
36.2(32) . . .
32.3(30) . . .
36.0(32) . . .
42(4) . . .
38.0(34) . . .
36.1(32) . . .
34.4(30) . . .
34.2(31) . . .
42.2(35) . . .
40.1(32) . . .
36.3(32) . . .
38.0(33) . . .
43(4) . . .
32.3(30) . . .
39.1(33) . . .
31.7(29) . . .
34.3(31) . . .
34.7(31) . . .
41(4) . . .
33.5(32) . . .
30.0(28) . . .
42.7(34) . . .
40.0(33) . . .
44(4) . . .
39.3(33) . . .
39.4(33) . . .
39.8(35) . . .
42(4) . . .
41.2(34) . . .
41.9(34) . . .
34.5(31) . . .
34.3(30) . . .
32.6(30) . . .
38(4) . . .
32.0(30) . . .
39.2(33) . . .
31.0(31) . . .
31.2(31) . . .
37.4(34) . . .
37.0(33) . . .
38.5(32) . . .
41.9(34) . . .
35.0(31) . . .
37.4(33) . . .
33.8(30) . . .
33.5(30) . . .
35.8(32) . . .
44(4) . . .
40.9(34) . . .
37.6(33) . . .
30.0(29) . . .
32.7(32) . . .
41(4) . . .
44(4) . . .
25.0(26) . . .
33.3(30) . . .
31.9(30) . . .
41(4) . . .
33.4(30) . . .
36.7(31) . . .
44(4) . . .
34.7(33) . . .
34.8(34) . . .
37.4(35) . . .
29.9(28) . . .
39.3(33) . . .
31.7(33) . . .
41(4) . . .
41.0(35) . . .
33.2(31) . . .
31.6(30) . . .
23.6(26) . . .
34.3(33) . . .
37.0(32) . . .
34.8(31) . . .
38.2(34) . . .
32.7(31) . . .
36.3(33) . . .
45(4) . . .
31.9(30) . . .
37.9(32) . . .
39.8(34) . . .
39.0(34) . . .
33.4(32) . . .
34.2(31) . . .
32.2(30) . . .
36.8(33) . . .
40(4) . . .
35.5(32) . . .
34.3(31) . . .
27.3(28) . . .
34.4(34) . . .
28.2(29) . . .
35.9(33) . . .
39.0(32) . . .
29.5(29) . . .
39.9(35) . . .
46(4) . . .
40.8(33) . . .
33.6(31) . . .
35.0(31) . . .
31.6(31) . . .
36.8(32) . . .
42(4) . . .
27.6(27) . . .
38.4(32) . . .
37.4(35) . . .
28.4(29) . . .
30.8(28) . . .
41.7(34) . . .
34.0(30) . . .
41(4) . . .
36.3(32) . . .
39.9(33) . . .
34.0(30) . . .
39(4) . . .
32.8(29) . . .
38.8(34) . . .
35.3(31) . . .
40.6(33) . . .
43(4) . . .
32.9(32) . . .
35.0(32) . . .
35.5(31) . . .
33.8(30) . . .
45(4) . . .
37.0(31) . . .
31.3(30) . . .
40.7(33) . . .
34.5(31) . . .
34.0(31) . . .
36.8(34) . . .
33.0(32) . . .
37.7(32) . . .
36.9(32) . . .
49(4) . . .
38.9(33) . . .
38.1(33) . . .
35.5(31) . . .
37.5(33) . . .
31.9(30) . . .
36.5(32) . . .
37.2(32) . . .
33.7(30) . . .
31.2(29) . . .
39.1(35) . . .
36.1(33) . . .
31.7(30) . . .
39.7(33) . . .
27.1(28) . . .
32.3(31) . . .
42.4(35) . . .
40.3(34) . . .
31.3(29) . . .
23.5(25) . . .
36.4(35) . . .
43(4) . . .
36.8(32) . . .
34.8(31) . . .
33.8(30) . . .
40(4) . . .
45(4) . . .
39.5(33) . . .
25.4(26) . . .
31.9(31) . . .
34.5(33) . . .
35.4(32) . . .
41.1(33) . . .
36.9(31) . . .
31.7(31) . . .
37.6(33) . . .
39.5(34) . . .
31.8(30) . . .
36.6(32) . . .
30.4(30) . . .
31.0(30) . . .
36.1(33) . . .
32.9(31) . . .
35.1(31) . . .
37.0(32) . . .
33.2(33) . . .
29.6(29) . . .
31.6(29) . . .
33.3(30) . . .
38.6(35) . . .
38.8(34) . . .
36.1(31) . . .
34.6(31) . . .
40(4) . . .
27.1(28) . . .
29.5(30) . . .
42(4) . . .
28.4(28) . . .
39.5(33) . . .
39(4) . . .
38.1(32) . . .
41.5(34) . . .
36.2(31) . . .
34.0(31) . . .
36.0(33) . . .
34.3(31) . . .
29.1(29) . . .
34.3(30) . . .
41.0(34) . . .
41(4) . . .
31.1(28) . . .
47(4) . . .
31.6(29) . . .
34.1(31) . . .
35.7(33) . . .
43.0(35) . . .
33.6(30) . . .
40.0(33) . . .
40.8(34) . . .
36.6(34) . . .
41.2(35) . . .
37.8(32) . . .
33.9(30) . . .
32.8(30) . . .
30.8(32) . . .
37.2(33) . . .
37.5(32) . . .
37.1(32) . . .
30.6(29) . . .
29.2(30) . . .
40(4) . . .
35.4(31) . . .
39.8(33) . . .
37.0(32) . . .
33.5(32) . . .
39(4) . . .
32.9(30) . . .
27.6(28) . . .
34.0(31) . . .
29.9(28) . . .
33.2(30) . . .
33.3(30) . . .
36.1(31) . . .
40(4) . . .
34.4(33) . . .
36.6(31) . . .
36.8(31) . . .
38.1(32) . . .
41.4(33) . . .
38.5(32) . . .
35.5(31) . . .
41.8(34) . . .
35.0(33) . . .
38.4(35) . . .
36.9(33) . . .
32.4(31) . . .
37.0(31) . . .
35.5(32) . . .
35.7(33) . . .
38.8(34) . . .
46(4) . . .
38.1(32) . . .
31.5(30) . . .
37(4) . . .
38.6(34) . . .
37.3(31) . . .
46(4) . . .
42(4) . . .
34.0(31) . . .
34.5(32) . . .
29.7(28) . . .
37.3(32) . . .
33.1(30) . . .
33.3(35) . . .
36.3(32) . . .
47(4) . . .
34.7(32) . . .
42(4) . . .
39(4) . . .
27.0(29) . . .
34.5(31) . . .
33.7(30) . . .
29.5(30) . . .
34.1(31) . . .
36.3(32) . . .
41.0(34) . . .
29.7(28) . . .
29.6(28) . . .
37.2(33) . . .
31.8(30) . . .
36.6(32) . . .
38.5(33) . . .
38.5(33) . . .
30.9(30) . . .
40.0(33) . . .
33.1(30) . . .
40.0(34) . . .
35.8(30) . . .
37.2(31) . . .
33.8(30) . . .
36.6(32) . . .
26.2(27) . . .
30.5(31) . . .
39.1(34) . . .
41.0(33) . . .
36.3(31) . . .
33.6(32) . . .
33.8(31) . . .
34.9(32) . . .
32.3(30) . . .
40.6(33) . . .
36.8(32) . . .
35.7(34) . . .
35.1(32) . . .
35.1(31) . . .
28.0(28) . . .
36.1(32) . . .
47(4) . . .
37.7(34) . . .
23.0(25) . . .
34.8(30) . . .
32.0(30) . . .
38(4) . . .
41.6(33) . . .
35.7(31) . . .
30.3(29) . . .
31.0(30) . . .
33.7(30) . . .
38.4(33) . . .
36.6(32) . . .
31.3(29) . . .
42(4) . . .
41(4) . . .
43(4) . . .
25.4(26) . . .
33.2(31) . . .
36.4(33) . . .
26.2(28) . . .
35.2(33) . . .
42.2(34) . . .
36.2(32) . . .
41.5(34) . . .
36.8(32) . . .
31.2(29) . . .
36.7(32) . . .
34.7(31) . . .
34.5(32) . . .
34.0(32) . . .
33.0(30) . . .
39.3(33) . . .
32.3(30) . . .
37.2(33) . . .
29.6(28) . . .
32.4(29) . . .
32.0(29) . . .
50(4) . . .
33.3(30) . . .
39.1(34) . . .
38.5(33) . . .
34.4(30) . . .
37.8(35) . . .
39.8(34) . . .
42.1(34) . . .
42.9(34) . . .
34.5(31) . . .
34.1(31) . . .
36.4(34) . . .
37.5(34) . . .
36.0(31) . . .
33.8(30) . . .
37.0(34) . . .
35.3(32) . . .
36.3(32) . . .
44.0(35) . . .
29.8(29) . . .
25.8(28) . . .
28.8(30) . . .
38.4(33) . . .
40.5(33) . . .
33.2(31) . . .
32.6(31) . . .
37.3(34) . . .
30.9(29) . . .
34.5(31) . . .
30.4(29) . . .
31.9(30) . . .
37.7(34) . . .
36.6(33) . . .
45.0(34) . . .
33.8(31) . . .
37.1(34) . . .
36.0(32) . . .
43.0(35) . . .
49(4) . . .
28.9(28) . . .
28.2(28) . . .
39.4(35) . . .
36.0(32) . . .
32.0(30) . . .
32.3(29) . . .
41(4) . . .
36.2(35) . . .
40.9(34) . . .
31.0(29) . . .
31.9(29) . . .
39(4) . . .
29.3(28) . . .
33.2(30) . . .
40.9(33) . . .
37.7(33) . . .
32.1(31) . . .
32.0(31) . . .
35.7(33) . . .
30.2(29) . . .
36.4(34) . . .
27.9(31) . . .
24.5(26) . . .
34.7(31) . . .
34.4(31) . . .
39.1(34) . . .
36.8(34) . . .
33.0(29) . . .
37.0(32) . . .
46(4) . . .
36.7(32) . . .
38.2(34) . . .
32.0(29) . . .
31.0(29) . . .
33.5(31) . . .
36.2(35) . . .
43(4) . . .
38.7(34) . . .
29.7(28) . . .
35.3(32) . . .
34.9(32) . . .
30.5(29) . . .
35.0(32) . . .
39.5(33) . . .
35.0(31) . . .
38.5(34) . . .
34.1(35) . . .
31.6(30) . . .
42.4(34) . . .
42.9(35) . . .
30.1(31) . . .
34.5(33) . . .
27.1(27) . . .
29.3(28) . . .
38.8(33) . . .
39.5(34) . . .
36.8(34) . . .
35.5(33) . . .
33.9(30) . . .
39.3(33) . . .
32.9(29) . . .
28.4(28) . . .
38.2(34) . . .
40.2(33) . . .
27.1(28) . . .
43(4) . . .
46(4) . . .
40.3(33) . . .
28.3(28) . . .
36.8(33) . . .
32.8(31) . . .
38.5(32) . . .
33.5(30) . . .
29.3(29) . . .
32.2(31) . . .
33.0(33) . . .
30.7(28) . . .
32.0(29) . . .
26.6(28) . . .
39.4(33) . . .
35.9(32) . . .
32.8(31) . . .
32.1(30) . . .
35.2(31) . . .
41.5(35) . . .
35.4(33) . . .
29.6(29) . . .
30.6(29) . . .
40.2(34) . . .
44(4) . . .
40.3(34) . . .
34.5(31) . . .
24.9(26) . . .
34.7(31) . . .
35.0(34) . . .
29.9(30) . . .
27.1(27) . . .
35.0(31) . . .
36.9(34) . . .
30.0(29) . . .
34.1(32) . . .
46(4) . . .
34.8(31) . . .
31.4(31) . . .
36.2(33) . . .
35.5(31) . . .
32.1(31) . . .
36.5(31) . . .
39.3(33) . . .
29.4(32) . . .
30.8(31) . . .
39.3(34) . . .
35.5(31) . . .
48(4) . . .
35.7(31) . . .
36.9(32) . . .
36.3(31) . . .
35.8(31) . . .
35.1(33) . . .
33.5(33) . . .
35.9(33) . . .
33.1(31) . . .
36.5(32) . . .
36.9(34) . . .
40(4) . . .
27.6(29) . . .
40.6(33) . . .
35.3(32) . . .
35.3(32) . . .
36.7(33) . . .
42(4) . . .
36.3(31) . . .
31.5(29) . . .
36.9(32) . . .
37.2(34) . . .
37.6(33) . . .
36.0(31) . . .
39.7(33) . . .
35.8(32) . . .
41(4) . . .
41.3(35) . . .
39.4(34) . . .
40.5(33) . . .
46(4) . . .
34.4(30) . . .
37.3(32) . . .
37.9(32) . . .
27.5(27) . . .
25.9(28) . . .
25.7(26) . . .
43(4) . . .
29.4(29) . . .
35.0(33) . . .
37.4(34) . . .
36.5(32) . . .
42.9(35) . . .
38.6(33) . . .
37.2(32) . . .
37.2(32) . . .
36.3(33) . . .
40.4(35) . . .
40.9(34) . . .
37.4(32) . . .
44(4) . . .
25.9(26) . . .
37.1(33) . . .
37.0(33) . . .
25.3(28) . . .
37.0(34) . . .
38.6(34) . . .
35.1(32) . . .
36.3(32) . . .
34.1(33) . . .
37.2(34) . . .
33.3(30) . . .
39.3(32) . . .
37.7(33) . . .
33.7(30) . . .
32.1(31) . . .
25.5(26) . . .
31.3(29) . . .
34.0(31) . . .
41(4) . . .
38(4) . . .
49(4) . . .
32.3(30) . . .
40.2(34) . . .
37.5(33) . . .
32.4(32) . . .
32.4(32) . . .
35.1(31) . . .
36.2(31) . . .
39(4) . . .
32.5(30) . . .
40.0(33) . . .
34.9(31) . . .
29.8(28) . . .
36.3(31) . . .
36.8(33) . . .
44(4) . . .
32.0(29) . . .
35.3(31) . . .
26.6(27) . . .
35.1(34) . . .
27.6(29) . . .
40.6(33) . . .
33.2(30) . . .
28.0(30) . . .
29.6(29) . . .
43.8(35) . . .
30.8(29) . . .
30.8(30) . . .
41(4) . . .
22.9(26) . . .
33.7(31) . . .
34.7(31) . . .
36.2(33) . . .
40(4) . . .
42(4) . . .
35.9(32) . . .
43.7(35) . . .
35.5(32) . . .
39(4) . . .
36.5(33) . . .
35.5(31) . . .
39.5(33) . . .
40.6(33) . . .
38(4) . . .
32.3(31) . . .
34.3(30) . . .
35.9(31) . . .
30.0(31) . . .
30.0(33) . . .
30.4(31) . . .
45.3(35) . . .
45(4) . . .
45(4) . . .
35.8(33) . . .
37.2(33) . . .
36.3(31) . . .
40.7(35) . . .
42(4) . . .
35.8(33) . . .
39(4) . . .
24.4(26) . . .
30.2(29) . . .
33.0(30) . . .
31.3(31) . . .
34.0(32) . . .
29.3(28) . . .
32.2(30) . . .
27.3(27) . . .
38.5(33) . . .
31.5(31) . . .
34.1(31) . . .
31.6(31) . . .
34.5(31) . . .
38.5(34) . . .
31.3(29) . . .
28.0(28) . . .
30.9(32) . . .
42(4) . . .
35.0(32) . . .
36.8(32) . . .
27.4(27) . . .
41(4) . . .
37.0(32) . . .
39.2(34) . . .
38.3(32) . . .
38.2(32) . . .
35.2(34) . . .
37.3(34) . . .
44(4) . . .
36.5(31) . . .
36.9(32) . . .
35.5(32) . . .
32.4(32) . . .
43(4) . . .
23.7(26) . . .
30.2(30) . . .
35.3(32) . . .
40(4) . . .
28.9(28) . . .
36.4(32) . . .
29.4(29) . . .
35.1(34) . . .
39.8(35) . . .
42.4(34) . . .
40.0(33) . . .
31.9(29) . . .
38.2(34) . . .
32.1(30) . . .
37.4(33) . . .
47(4) . . .
34.5(32) . . .
37.4(33) . . .
38.1(33) . . .
37.9(32) . . .
34.3(31) . . .
35.9(32) . . .
35.5(32) . . .
36.0(32) . . .
44.0(35) . . .
36.1(32) . . .
31.4(30) . . .
30.4(30) . . .
25.9(27) . . .
34.3(32) . . .
36.6(32) . . .
38.8(33) . . .
38.7(34) . . .
37.0(34) . . .
33.6(31) . . .
31.7(30) . . .
35.4(33) . . .
36.4(34) . . .
37.6(34) . . .
43.0(35) . . .
44.3(34) . . .
38.1(34) . . .
29.4(30) . . .
35.5(31) . . .
50(4) . . .
40.9(33) . . .
37.9(33) . . .
30.7(29) . . .
37.3(32) . . .
39.1(33) . . .
34.8(31) . . .
35.1(33) . . .
32.9(34) . . .
35(4) . . .
32.2(30) . . .
36.7(31) . . .
41.1(34) . . .
43(4) . . .
39.6(34) . . .
38.6(32) . . .
35.5(31) . . .
28.8(28) . . .
38(4) . . .
44(4) . . .
38.7(33) . . .
42.4(34) . . .
39.8(34) . . .
28.2(30) . . .
33.8(33) . . .
37.7(32) . . .
33.3(30) . . .
30.8(30) . . .
37.4(34) . . .
42.1(35) . . .
37.1(32) . . .
38.8(33) . . .
37.4(32) . . .
41.3(33) . . .
37.1(33) . . .
34.1(30) . . .
32.2(31) . . .
25.6(28) . . .
33.3(32) . . .
32.4(34) . . .
32.5(29) . . .
35.9(32) . . .
34.7(32) . . .
37.1(31) . . .
37.1(31) . . .
38.0(32) . . .
44(4) . . .
45(4) . . .
38.1(32) . . .
42.1(34) . . .
33.9(31) . . .
38.6(33) . . .
31.7(30) . . .
38.8(32) . . .
40.6(34) . . .
44.8(35) . . .
39.2(35) . . .
39(4) . . .
41(4) . . .
34.5(31) . . .
34.3(30) . . .
38.0(34) . . .
35.2(33) . . .
34.3(31) . . .
35.3(31) . . .
34.5(32) . . .
32.1(28) . . .
32.2(32) . . .
35(4) . . .
42.3(33) . . .
39.8(35) . . .
31.8(31) . . .
25.9(28) . . .
31.4(29) . . .
40.8(33) . . .
30.5(29) . . .
31.7(32) . . .
31.9(30) . . .
35.8(33) . . .
26.7(27) . . .
32.8(31) . . .
35.8(33) . . .
35.3(31) . . .
39.2(33) . . .
41.2(33) . . .
34.6(30) . . .
37.2(34) . . .
25.9(28) . . .
31.3(31) . . .
41.6(34) . . .
38.5(33) . . .
32.2(30) . . .
48(4) . . .
39.4(33) . . .
36.8(31) . . .
33.4(30) . . .
34.2(32) . . .
34.7(31) . . .
33.7(30) . . .
36.6(32) . . .
34.2(32) . . .
31.9(30) . . .
37.7(35) . . .
28.9(28) . . .
42.9(34) . . .
41.5(34) . . .
38(4) . . .
34.3(31) . . .
42.1(34) . . .
49(4) . . .
32.3(34) . . .
37(4) . . .
34.2(30) . . .
46(4) . . .
37.1(32) . . .
28.3(28) . . .
34.1(32) . . .
44(4) . . .
31.2(29) . . .
33.7(30) . . .
42(4) . . .
37.2(34) . . .
32.6(30) . . .
36.0(31) . . .
38.3(33) . . .
44(4) . . .
43(4) . . .
32.5(33) . . .
38.6(33) . . .
43(4) . . .
36.0(32) . . .
34.3(30) . . .
30.4(30) . . .
37.3(31) . . .
34.8(32) . . .
41(4) . . .
36.3(31) . . .
32.7(29) . . .
35.9(31) . . .
32.2(32) . . .
34.5(33) . . .
35.3(32) . . .
36.6(32) . . .
32.0(30) . . .
33.7(32) . . .
37(4) . . .
30.4(29) . . .
31.0(28) . . .
39.1(33) . . .
30.4(28) . . .
28.2(29) . . .
32.1(31) . . .
32.0(29) . . .
46(4) . . .
43.7(35) . . .
39.8(35) . . .
37.5(34) . . .
37.8(32) . . .
33.7(30) . . .
42(4) . . .
29.9(31) . . .
36.1(33) . . .
41.1(34) . . .
35.6(31) . . .
36.3(33) . . .
33.5(32) . . .
41(4) . . .
28.8(29) . . .
39.7(33) . . .
31.5(30) . . .
34.2(33) . . .
39.6(35) . . .
37.6(32) . . .
27.1(27) . . .
31.4(30) . . .
31.7(30) . . .
30.5(28) . . .
35.4(31) . . .
37.2(32) . . .
36.7(32) . . .
40(4) . . .
40.2(34) . . .
36.2(32) . . .
33.0(30) . . .
32.8(31) . . .
22.3(24) . . .
39.2(34) . . .
41.3(33) . . .
35.0(31) . . .
34.5(34) . . .
36.8(34) . . .
33.8(30) . . .
32.5(30) . . .
37.8(34) . . .
34.4(33) . . .
32.7(30) . . .
33.2(30) . . .
28.4(28) . . .
27.5(30) . . .
24.6(26) . . .
33.9(31) . . .
41.3(33) . . .
41.3(34) . . .
31.3(30) . . .
43(4) . . .
39.4(33) . . .
36.1(31) . . .
34.3(30) . . .
33.2(32) . . .
31.2(31) . . .
28.6(27) . . .
42.9(34) . . .
38.0(33) . . .
34.5(32) . . .
40.7(35) . . .
35.7(31) . . .
44.2(35) . . .
40.8(34) . . .
33.4(31) . . .
42(4) . . .
36.5(33) . . .
36.3(31) . . .
38.2(32) . . .
37.5(32) . . .
30.3(29) . . .
48(4) . . .
34.0(31) . . .
36.5(32) . . .
32.5(32) . . .
32.8(32) . . .
39.9(35) . . .
32.0(30) . . .
32.0(30) . . .
32.7(31) . . .
35.7(33) . . .
45(4) . . .
38.3(33) . . .
40.7(34) . . .
34.1(31) . . .
34.4(31) . . .
31.8(30) . . .
23.2(26) . . .
33.7(31) . . .
41(4) . . .
40(4) . . .
31.7(29) . . .
32.0(29) . . .
31.8(30) . . .
41(4) . . .
38.3(33) . . .
34.1(32) . . .
27.1(28) . . .
39.8(34) . . .
33.2(30) . . .
36.5(31) . . .
40.4(33) . . .
41.8(35) . . .
35.9(32) . . .
39(4) . . .
30.5(30) . . .
34.3(30) . . .
31.8(30) . . .
29.4(28) . . .
40(4) . . .
31.8(31) . . .
42.3(34) . . .
38.0(32) . . .
30.0(28) . . .
32.0(30) . . .
32.8(30) . . .
34.0(31) . . .
32.5(29) . . .
31.6(32) . . .
31.3(32) . . .
40(4) . . .
34.4(30) . . .
34.1(31) . . .
33.8(32) . . .
36(4) . . .
32.2(30) . . .
34.9(31) . . .
36.3(32) . . .
31.1(31) . . .
29.5(30) . . .
34(4) . . .
39.8(32) . . .
35.0(31) . . .
38.2(34) . . .
37.8(34) . . .
36.9(32) . . .
47(4) . . .
40.4(33) . . .
36.3(33) . . .
35.6(33) . . .
31.0(29) . . .
29.5(28) . . .
26.7(30) . . .
29.1(29) . . .
35.7(31) . . .
48(4) . . .
38.8(33) . . .
40.8(34) . . .
31.8(30) . . .
30.9(30) . . .
40.9(34) . . .
34.1(31) . . .
40.9(33) . . .
39.0(34) . . .
41.7(34) . . .
37.0(32) . . .
33.5(30) . . .
36(4) . . .
36.2(34) . . .
35.5(32) . . .
43.0(34) . . .
43.0(34) . . .
37.8(33) . . .
32.0(33) . . .
34.4(31) . . .
36.3(31) . . .
31.2(29) . . .
28.9(29) . . .
32.8(34) . . .
29.0(30) . . .
43.0(34) . . .
32.7(30) . . .
33.6(31) . . .
38.8(34) . . .
31.9(29) . . .
41(4) . . .
33.6(32) . . .
30.8(30) . . .
36.5(33) . . .
34.4(31) . . .
38.0(32) . . .
39.9(34) . . .
42.5(35) . . .
35.8(31) . . .
34.1(31) . . .
35.4(32) . . .
31.3(29) . . .
29.9(29) . . .
41(4) . . .
38.2(33) . . .
33.2(30) . . .
43.2(35) . . .
43(4) . . .
31.8(29) . . .
31.1(29) . . .
37.7(32) . . .
34.8(31) . . .
33.0(31) . . .
36.8(33) . . .
36.8(31) . . .
35.5(31) . . .
30.0(28) . . .
42(4) . . .
33.4(30) . . .
36.6(32) . . .
32.3(30) . . .
34.7(32) . . .
33.0(32) . . .
37.5(33) . . .
33.0(30) . . .
37.8(32) . . .
36.8(33) . . .
35(4) . . .
36.8(32) . . .
39.0(33) . . .
34.8(31) . . .
35.0(31) . . .
39.0(35) . . .
36.8(31) . . .
43.0(34) . . .
32.8(32) . . .
30.4(29) . . .
35.9(32) . . .
33.1(31) . . .
32.1(29) . . .
41.7(34) . . .
35.1(32) . . .
27.5(28) . . .
32.7(32) . . .
29.0(28) . . .
43(4) . . .
38(4) . . .
38.7(34) . . .
34.9(32) . . .
39.5(33) . . .
40.8(35) . . .
33.4(33) . . .
31.5(32) . . .
36.0(31) . . .
36.4(32) . . .
33.1(31) . . .
34.7(32) . . .
40.5(34) . . .
48(4) . . .
43.0(34) . . .
42.2(33) . . .
47(4) . . .
29.8(29) . . .
33.2(30) . . .
30.2(29) . . .
36.7(34) . . .
32.6(33) . . .
37.5(33) . . .
31.9(30) . . .
37.6(32) . . .
41(4) . . .
38.0(32) . . .
47(4) . . .
35.6(31) . . .
38.3(34) . . .
33.6(30) . . .
35.0(32) . . .
37.1(34) . . .
39.2(33) . . .
35.4(31) . . .
32.8(30) . . .
37.7(34) . . .
39.4(34) . . .
34.1(31) . . .
34.3(30) . . .
37.5(35) . . .
34.1(33) . . .
30.5(30) . . .
33.4(29) . . .
34.3(31) . . .
38.2(34) . . .
32.0(30) . . .
32.2(30) . . .
32.3(30) . . .
42.4(34) . . .
40.2(35) . . .
39.2(33) . . .
36.4(31) . . .
35.0(31) . . .
29.9(30) . . .
35.4(34) . . .
39(4) . . .
30.3(29) . . .
28.2(28) . . .
29.5(29) . . .
31.0(31) . . .
29.6(29) . . .
30.5(29) . . .
30.5(30) . . .
30.7(29) . . .
34.3(32) . . .
35.7(32) . . .
48(4) . . .
37.1(32) . . .
30.9(29) . . .
35.9(33) . . .
36.3(32) . . .
36.8(31) . . .
37.5(32) . . .
40(4) . . .
33.9(33) . . .
31.4(30) . . .
39.1(32) . . .
37.0(33) . . .
42(4) . . .
30.5(31) . . .
32.0(31) . . .
32.9(30) . . .
32.6(29) . . .
29.6(29) . . .
33.8(33) . . .
27.2(27) . . .
42.1(34) . . .
38.8(33) . . .
44(4) . . .
34.7(33) . . .
39.7(34) . . .
33.3(30) . . .
32.5(31) . . .
48(4) . . .
34.7(31) . . .
30.7(29) . . .
32.9(30) . . .
30.0(29) . . .
32.3(32) . . .
33.6(32) . . .
40.0(34) . . .
38.7(32) . . .
33.6(31) . . .
34.2(31) . . .
32.7(31) . . .
35.6(33) . . .
37.6(32) . . .
34.6(31) . . .
37.0(34) . . .
39.1(34) . . .
34.3(31) . . .
28.6(28) . . .
30.6(32) . . .
37(4) . . .
38.0(35) . . .
35.0(31) . . .
24.6(27) . . .
37.8(34) . . .
37.5(34) . . .
30.0(31) . . .
29.2(30) . . .
38.5(33) . . .
31.4(30) . . .
34.0(34) . . .
33.3(31) . . .
35.0(31) . . .
38.8(33) . . .
27.0(26) . . .
34.5(33) . . .
36.9(32) . . .
40.1(33) . . .
38.0(32) . . .
33.6(33) . . .
34.3(31) . . .
41.6(34) . . .
35.6(31) . . .
37.7(32) . . .
41.1(34) . . .
43(4) . . .
44(4) . . .
41.1(33) . . .
47(4) . . .
42.8(34) . . .
39.9(35) . . .
28.0(30) . . .
31.3(30) . . .
39.3(33) . . .
31.0(28) . . .
32.1(30) . . .
39.0(34) . . .
46(4) . . .
32.6(30) . . .
38.4(33) . . .
33.9(32) . . .
29.8(28) . . .
36.0(31) . . .
40.6(35) . . .
32.0(30) . . .
34.2(32) . . .
38.9(32) . . .
37.5(32) . . .
29.5(28) . . .
28.8(29) . . .
30.8(30) . . .
31.0(29) . . .
37.8(33) . . .
40.8(34) . . .
42(4) . . .
34.1(31) . . .
37.9(32) . . .
31.0(30) . . .
39.4(35) . . .
40(4) . . .
38(4) . . .
32.6(30) . . .
47(4) . . .
34.9(32) . . .
45(4) . . .
36.3(31) . . .
37.5(32) . . .
37.5(33) . . .
39(4) . . .
37.7(32) . . .
40(4) . . .
36.0(33) . . .
35.2(31) . . .
34.4(31) . . .
34.5(32) . . .
34.1(31) . . .
28.1(29) . . .
39.6(33) . . .
33.8(31) . . .
35.0(33) . . .
41(4) . . .
34.7(31) . . .
37.7(33) . . .
28.3(29) . . .
29.0(30) . . .
37.8(33) . . .
33.0(29) . . .
36.2(33) . . .
33.7(31) . . .
36.1(33) . . .
34.7(31) . . .
43.4(35) . . .
37.8(33) . . .
28.5(29) . . .
27.7(30) . . .
31.2(29) . . .
41.4(33) . . .
24.2(26) . . .
36.1(33) . . .
37.0(32) . . .
45(4) . . .
43.8(34) . . .
38.8(33) . . .
29.1(30) . . .
29.4(32) . . .
31.8(29) . . .
36.5(33) . . .
30.7(30) . . .
31.1(31) . . .
30.0(29) . . .
36.3(31) . . .
31.7(30) . . .
33.6(31) . . .
33.3(33) . . .
32.4(32) . . .
37.1(32) . . .
34.8(32) . . .
30.5(29) . . .
31.0(31) . . .
28.3(29) . . .
32.2(30) . . .
40.2(34) . . .
31.1(30) . . .
31.6(30) . . .
46(4) . . .
32.3(29) . . .
37.7(33) . . .
28.7(29) . . .
38.5(35) . . .
40.2(34) . . .
35.5(31) . . .
43.8(34) . . .
36.4(32) . . .
31.5(29) . . .
39.8(34) . . .
32.7(31) . . .
35.5(31) . . .
35.4(33) . . .
38.0(34) . . .
37.3(32) . . .
44(4) . . .
42.7(34) . . .
40.8(33) . . .
35.0(32) . . .
33.0(30) . . .
37.3(32) . . .
38.9(33) . . .
36.1(32) . . .
40.6(35) . . .
26.1(27) . . .
36.0(31) . . .
34.2(30) . . .
42.4(35) . . .
41.7(34) . . .
39.5(34) . . .
37.7(32) . . .
39.7(33) . . .
35.4(34) . . .
33.4(31) . . .
30.2(29) . . .
30.6(29) . . .
36(4) . . .
30.4(32) . . .
31.6(30) . . .
34.2(30) . . .
35.3(31) . . .
29.8(28) . . .
34.5(33) . . .
36.9(33) . . .
43.5(34) . . .
35.6(32) . . .
44(4) . . .
33.1(32) . . .
33.9(32) . . .
33.7(30) . . .
32.2(29) . . .
40.3(34) . . .
39.5(35) . . .
37.4(33) . . .
41.3(33) . . .
40.0(34) . . .
39.1(33) . . .
34.9(31) . . .
37.5(32) . . .
34.0(30) . . .
39.0(33) . . .
29.8(29) . . .
35.9(33) . . .
35.8(31) . . .
36.2(32) . . .
32.8(29) . . .
36.0(34) . . .
32.4(31) . . .
33.2(30) . . .
38.9(33) . . .
37.8(33) . . .
44(4) . . .
40(4) . . .
34.9(33) . . .
44.4(35) . . .
24.9(26) . . .
36.2(33) . . .
39.2(34) . . .
30.7(28) . . .
32.2(29) . . .
41.3(35) . . .
35.8(32) . . .
36.8(34) . . .
30.7(30) . . .
31.0(29) . . .
31.6(29) . . .
39.3(34) . . .
41.1(33) . . .
41.4(33) . . .
37.0(32) . . .
33.7(30) . . .
39(4) . . .
33.2(30) . . .
35.7(31) . . .
38.6(32) . . .
34.1(32) . . .
36.1(35) . . .
36.0(33) . . .
33.7(31) . . .
36.1(31) . . .
34.3(32) . . .
31.8(30) . . .
32.0(30) . . .
39.9(33) . . .
37.5(32) . . .
40(4) . . .
48(4) . . .
43(4) . . .
37.6(32) . . .
36.3(32) . . .
44(4) . . .
40.3(32) . . .
49(4) . . .
35.8(31) . . .
31.6(31) . . .
30.7(31) . . .
31.7(29) . . .
37.7(32) . . .
26.9(27) . . .
31.1(33) . . .
30.9(30) . . .
36.0(34) . . .
28.6(30) . . .
32.2(30) . . .
35.0(32) . . .
34.9(34) . . .
38.6(33) . . .
36.5(31) . . .
38.7(33) . . .
34.6(33) . . .
28.8(32) . . .
32.9(33) . . .
35.3(32) . . .
40.3(33) . . .
32.2(30) . . .
34.1(31) . . .
46(4) . . .
33.6(30) . . .
40.7(34) . . .
25.3(27) . . .
35.3(35) . . .
39(4) . . .
36.4(32) . . .
37.5(32) . . .
35.9(32) . . .
33.3(32) . . .
37.4(33) . . .
34.5(31) . . .
37.0(34) . . .
30.8(31) . . .
34.2(33) . . .
38.6(35) . . .
36.2(31) . . .
33.7(30) . . .
28.1(29) . . .
32.3(31) . . .
38.0(34) . . .
40.0(32) . . .
37.2(32) . . .
37.7(32) . . .
45(4) . . .
38.6(33) . . .
28.8(28) . . .
38.3(33) . . .
29.8(30) . . .
30.3(28) . . .
30.8(28) . . .
33.9(31) . . .
32.5(31) . . .
32.2(32) . . .
39.5(34) . . .
31.2(29) . . .
35.0(32) . . .
32.8(31) . . .
31.6(31) . . .
40(4) . . .
30.4(29) . . .
30.9(29) . . .
41.9(35) . . .
36.6(34) . . .
37.0(33) . . .
30.8(30) . . .
30.9(29) . . .
31.9(31) . . .
27.6(28) . . .
40(4) . . .
37.5(33) . . .
39.9(34) . . .
38.6(33) . . .
28.5(31) . . .
28.1(28) . . .
24.8(26) . . .
30.5(29) . . .
30.6(29) . . .
31.8(31) . . .
41.8(35) . . .
36.8(32) . . .
34.9(32) . . .
39.6(35) . . .
35.4(31) . . .
39.1(34) . . .
32.2(29) . . .
27.4(28) . . .
27.9(29) . . .
36.5(33) . . .
42.6(34) . . .
36.5(32) . . .
36.8(33) . . .
36.8(34) . . .
33.1(33) . . .
30.2(30) . . .
34.9(31) . . .
37.9(33) . . .
38.5(34) . . .
39(4) . . .
34.6(32) . . .
36.1(32) . . .
35.2(32) . . .
39.4(35) . . .
37.0(34) . . .
27.4(27) . . .
33.3(30) . . .
38.5(33) . . .
31.5(31) . . .
38.1(34) . . .
35.5(32) . . .
29.6(28) . . .
41(4) . . .
27.3(27) . . .
35.6(32) . . .
32.5(30) . . .
37.6(32) . . .
38.0(34) . . .
42(4) . . .
34.8(31) . . .
38.1(33) . . .
40.1(34) . . .
31.5(30) . . .
30.5(30) . . .
40.4(34) . . .
29.0(28) . . .
38.1(32) . . .
31.4(31) . . .
32.1(31) . . .
30.8(28) . . .
30.7(28) . . .
34.3(31) . . .
34.2(33) . . .
29.0(31) . . .
43(4) . . .
40.5(33) . . .
30.5(29) . . .
35.4(32) . . .
40(4) . . .
34.4(31) . . .
29.1(29) . . .
41.9(35) . . .
35.6(31) . . .
38.6(33) . . .
28.2(28) . . .
35.7(31) . . .
38.3(32) . . .
37.0(33) . . .
30.5(31) . . .
37.1(34) . . .
34.4(30) . . .
44(4) . . .
33.0(32) . . .
32.5(32) . . .
34.1(32) . . .
38.4(32) . . .
32.4(30) . . .
29.0(30) . . .
46(4) . . .
33.3(31) . . .
30.3(30) . . .
45(4) . . .
38.4(32) . . .
37.9(33) . . .
35.3(31) . . .
36.4(31) . . .
35.4(32) . . .
35.0(34) . . .
30.6(30) . . .
32.0(30) . . .
35.5(32) . . .
34.7(33) . . .
34.3(32) . . .
31.9(29) . . .
38.3(32) . . .
36.5(32) . . .
40.1(34) . . .
41(4) . . .
33.1(30) . . .
34.2(30) . . .
26.3(27) . . .
33.6(34) . . .
38(4) . . .
22.8(26) . . .
31.2(29) . . .
32.6(30) . . .
37.8(33) . . .
33.5(31) . . .
30.7(30) . . .
33.3(31) . . .
32.3(30) . . .
35.3(34) . . .
26.9(27) . . .
31.9(30) . . .
28.9(27) . . .
32.3(31) . . .
30.4(30) . . .
33.9(31) . . .
33.8(31) . . .
35.5(31) . . .
39.0(35) . . .
34.5(30) . . .
36.3(33) . . .
29.0(29) . . .
24.0(26) . . .
33.8(30) . . .
42(4) . . .
32.0(32) . . .
31.6(29) . . .
43.8(35) . . .
33.7(31) . . .
38.8(35) . . .
36.5(32) . . .
38.3(34) . . .
36.7(32) . . .
36.8(33) . . .
29.4(29) . . .
40.2(34) . . .
39.7(33) . . .
32.8(30) . . .
34.8(31) . . .
37(4) . . .
33.5(34) . . .
26.6(26) . . .
26.3(28) . . .
26.8(28) . . .
30.6(30) . . .
37.1(32) . . .
30.3(29) . . .
39.2(33) . . .
43(4) . . .
40(4) . . .
26.9(27) . . .
27.4(28) . . .
25.6(26) . . .
29.2(30) . . .
39(4) . . .
31.0(29) . . .
36.3(32) . . .
29.6(28) . . .
35.6(32) . . .
36.7(32) . . .
32.2(29) . . .
32.3(30) . . .
30.4(30) . . .
31.8(31) . . .
43(4) . . .
49(4) . . .
45(4) . . .
35.0(31) . . .
36.3(32) . . .
32.3(30) . . .
36.7(32) . . .
33.7(30) . . .
39.7(34) . . .
37.9(34) . . .
29.6(30) . . .
36.8(33) . . .
37.7(32) . . .
29.4(29) . . .
43(4) . . .
38.9(34) . . .
40.4(34) . . .
34.4(30) . . .
38.1(33) . . .
37.5(35) . . .
34.9(32) . . .
28.4(28) . . .
30.9(28) . . .
36.8(35) . . .
41(4) . . .
34.7(31) . . .
32.8(30) . . .
33.1(30) . . .
44(4) . . .
42(4) . . .
39.5(35) . . .
32.0(30) . . .
31.9(29) . . .
33.9(32) . . .
32.1(33) . . .
35.4(31) . . .
42.5(33) . . .
35.8(33) . . .
34.1(32) . . .
34.7(31) . . .
36.7(32) . . .
39.5(33) . . .
29.6(28) . . .
34.5(32) . . .
33.5(32) . . .
45(4) . . .
35.6(31) . . .
39.2(35) . . .
34.0(31) . . .
38.1(33) . . .
41(4) . . .
32.6(30) . . .
39.1(32) . . .
34.3(30) . . .
42(4) . . .
33.4(30) . . .
42.0(34) . . .
35.2(33) . . .
36.9(33) . . .
43(4) . . .
29.9(29) . . .
42.4(34) . . .
37.2(33) . . .
29.2(29) . . .
33.3(32) . . .
32.5(31) . . .
28.0(28) . . .
38.4(34) . . .
28.9(28) . . .
30.6(29) . . .
33.5(30) . . .
31.6(29) . . .
29.0(28) . . .
34.9(33) . . .
35.3(32) . . .
30.5(30) . . .
32.1(29) . . .
36.6(32) . . .
40(4) . . .
28.4(29) . . .
38.9(32) . . .
39.7(33) . . .
38(4) . . .
28.4(32) . . .
35.4(33) . . .
32.6(30) . . .
38.3(32) . . .
28.2(29) . . .
33.6(32) . . .
33.1(31) . . .
34.8(31) . . .
34.8(30) . . .
30.6(30) . . .
34.5(32) . . .
38.0(34) . . .
34.8(31) . . .
34.2(31) . . .
37.2(33) . . .
37.3(32) . . .
43(4) . . .
36.5(31) . . .
34.6(30) . . .
39.2(33) . . .
37.5(34) . . .
32.2(31) . . .
30.6(29) . . .
35.1(33) . . .
28.2(30) . . .
35.6(33) . . .
30.4(28) . . .
35.1(31) . . .
39.0(34) . . .
42(4) . . .
42.4(35) . . .
45(4) . . .
43.6(34) . . .
36.0(32) . . .
33.3(31) . . .
38.0(34) . . .
38.3(33) . . .
41.1(33) . . .
39.2(34) . . .
29.1(30) . . .
29.9(29) . . .
35.1(31) . . .
36.6(31) . . .
32.4(30) . . .
34.7(32) . . .
36.4(33) . . .
29.4(29) . . .
24.7(27) . . .
37.6(33) . . .
38.3(34) . . .
31.3(29) . . .
34.9(31) . . .
30.3(31) . . .
31.1(32) . . .
35.0(33) . . .
48(4) . . .
38.8(32) . . .
32.4(31) . . .
27.4(28) . . .
31.5(31) . . .
35.4(33) . . .
30.9(29) . . .
33.0(32) . . .
34.3(32) . . .
34.7(32) . . .
37.7(32) . . .
35.3(31) . . .
38.3(33) . . .
36.5(33) . . .
40(4) . . .
41.3(34) . . .
34.9(31) . . .
34.7(30) . . .
38.5(34) . . .
39(4) . . .
37.2(31) . . .
37.0(32) . . .
28.9(28) . . .
37.8(34) . . .
30.4(30) . . .
37.0(31) . . .
41.6(34) . . .
33.0(30) . . .
29.8(31) . . .
30.2(29) . . .
46(4) . . .
40.0(33) . . .
33.0(30) . . .
31.6(30) . . .
36.1(33) . . .
43.7(34) . . .
36.0(31) . . .
35.4(32) . . .
41(4) . . .
37.6(33) . . .
33.5(30) . . .
26.9(27) . . .
29.9(28) . . .
37.8(32) . . .
29.9(29) . . .
28.7(28) . . .
36.5(31) . . .
35.0(32) . . .
35.7(35) . . .
42.3(35) . . .
37.5(32) . . .
31.7(30) . . .
33.4(32) . . .
35.0(32) . . .
37.6(33) . . .
39.8(34) . . .
34.5(30) . . .
32.9(31) . . .
41(4) . . .
33.3(32) . . .
39.8(33) . . .
39.3(33) . . .
31.0(29) . . .
37.5(35) . . .
30.3(29) . . .
37.0(32) . . .
31.4(29) . . .
35.7(33) . . .
31.3(30) . . .
39.7(33) . . .
30.7(29) . . .
28.8(28) . . .
35.6(32) . . .
30.4(29) . . .
32.6(30) . . .
37.0(33) . . .
41(4) . . .
37(4) . . .
34.9(32) . . .
31.5(29) . . .
39.7(33) . . .
42(4) . . .
41(4) . . .
34.2(30) . . .
41.9(35) . . .
36.8(31) . . .
36.8(32) . . .
33.8(33) . . .
35.8(33) . . .
32.3(30) . . .
28.1(28) . . .
29.4(29) . . .
35.7(35) . . .
39.9(33) . . .
35.9(31) . . .
29.9(28) . . .
30.5(30) . . .
37(4) . . .
35.8(32) . . .
35.6(31) . . .
38.0(32) . . .
35.8(31) . . .
33.7(31) . . .
24.9(26) . . .
36.3(32) . . .
31.3(29) . . .
31.2(29) . . .
38.8(34) . . .
34.1(31) . . .
33.5(30) . . .
45(4) . . .
43(4) . . .
39.7(35) . . .
28.1(29) . . .
31.1(29) . . .
34.4(31) . . .
27.5(29) . . .
34.3(32) . . .
37.3(32) . . .
40.1(33) . . .
34.6(31) . . .
34.2(31) . . .
33.3(31) . . .
36.8(31) . . .
37.3(32) . . .
33.9(31) . . .
28.9(29) . . .
30.5(30) . . .
40.1(35) . . .
36.5(31) . . .
36.9(32) . . .
32.0(31) . . .
38(4) . . .
26.2(26) . . .
27.1(27) . . .
39.8(34) . . .
37.6(33) . . .
42(4) . . .
40.0(33) . . .
29.0(28) . . .
32.1(30) . . .
37.0(34) . . .
32.7(30) . . .
38.6(33) . . .
28.6(27) . . .
40.6(33) . . .
36.1(33) . . .
33.1(31) . . .
38.5(32) . . .
40.2(33) . . .
33.5(31) . . .
36.8(32) . . .
36.3(33) . . .
31.7(30) . . .
34.9(31) . . .
40.4(35) . . .
36.8(34) . . .
39.1(34) . . .
40.5(33) . . .
33.0(30) . . .
31.8(32) . . .
32.5(31) . . .
39.5(34) . . .
34.6(31) . . .
34.9(31) . . .
40(4) . . .
43(4) . . .
39.5(35) . . .
36.0(31) . . .
27.4(28) . . .
28.3(32) . . .
44(4) . . .
32.8(30) . . .
38.3(32) . . .
25.7(26) . . .
34.0(32) . . .
37.2(34) . . .
36.1(32) . . .
35.3(31) . . .
35.3(32) . . .
36.2(34) . . .
34.2(32) . . .
44(4) . . .
41.4(33) . . .
30.7(30) . . .
36.2(32) . . .
35.6(33) . . .
35.5(32) . . .
33.5(31) . . .
28.9(28) . . .
36.2(35) . . .
30.7(28) . . .
41.5(33) . . .
46(4) . . .
36.4(33) . . .
34.6(33) . . .
34.0(32) . . .
38.0(32) . . .
36.0(31) . . .
28.2(28) . . .
40(4) . . .
32.1(28) . . .
39.7(33) . . .
38.1(32) . . .
33.1(30) . . .
28.4(29) . . .
33.7(31) . . .
35.9(31) . . .
41.8(34) . . .
33.7(30) . . .
43(4) . . .
30.5(32) . . .
29.5(29) . . .
28.0(29) . . .
30.9(31) . . .
36.0(34) . . .
30.9(30) . . .
27.6(28) . . .
40.9(34) . . .
38.3(34) . . .
34.7(32) . . .
42(4) . . .
26.9(27) . . .
31.3(29) . . .
29.4(29) . . .
32.0(29) . . .
46(4) . . .
30.4(28) . . .
34.3(31) . . .
30.7(30) . . .
35.6(32) . . .
36.0(31) . . .
39.6(33) . . .
32.8(32) . . .
26.2(29) . . .
25.3(26) . . .
33.2(30) . . .
35.8(31) . . .
28.1(27) . . .
29.5(30) . . .
33.0(31) . . .
40.2(33) . . .
31.4(29) . . .
45(4) . . .
39.5(34) . . .
31.5(29) . . .
30.8(30) . . .
35.0(30) . . .
36.1(33) . . .
37(4) . . .
32.5(32) . . .
31.5(29) . . .
31.8(30) . . .
34.9(31) . . .
33.8(31) . . .
36.5(33) . . .
39.3(33) . . .
30.0(29) . . .
35.6(32) . . .
31.4(31) . . .
33.9(31) . . .
37.2(32) . . .
34.6(32) . . .
30.2(29) . . .
34.1(31) . . .
40.7(33) . . .
35.7(32) . . .
35.0(32) . . .
39.0(34) . . .
31.8(31) . . .
31.6(29) . . .
32.1(30) . . .
37.2(33) . . .
30.6(30) . . .
27.2(29) . . .
31.7(29) . . .
29.1(28) . . .
35.5(31) . . .
36.0(34) . . .
34.5(34) . . .
32.7(30) . . .
42.2(34) . . .
35.0(34) . . .
28.0(30) . . .
31.3(31) . . .
34.6(30) . . .
38.3(32) . . .
31.6(29) . . .
43(4) . . .
34.2(32) . . .
33.7(31) . . .
35.3(31) . . .
38.1(34) . . .
34.8(33) . . .
33.7(30) . . .
33.7(30) . . .
34.5(30) . . .
30.6(32) . . .
27.1(29) . . .
31.3(29) . . .
33.0(29) . . .
33.1(31) . . .
30.3(30) . . .
40(4) . . .
33.1(32) . . .
33.7(30) . . .
31.1(29) . . .
43(4) . . .
34.7(30) . . .
33.5(32) . . .
41.7(34) . . .
35.8(31) . . .
30.9(30) . . .
27.2(30) . . .
29.8(29) . . .
34.5(31) . . .
41.9(34) . . .
37.3(33) . . .
30.2(29) . . .
34.5(32) . . .
35.9(31) . . .
33.1(31) . . .
32.3(30) . . .
33.2(30) . . .
36.0(32) . . .
30.0(28) . . .
26.9(28) . . .
31.1(31) . . .
35.9(32) . . .
29.1(28) . . .
43.7(34) . . .
33.7(32) . . .
38.2(34) . . .
39.3(34) . . .
24.2(26) . . .
35.7(31) . . .
39.9(33) . . .
28.5(29) . . .
30.9(31) . . .
28.6(29) . . .
31.9(30) . . .
35.5(32) . . .
28.9(29) . . .
43(4) . . .
37.0(32) . . .
33.2(31) . . .
30.2(29) . . .
35.4(32) . . .
27.0(28) . . .
34.8(32) . . .
35.2(31) . . .
33.9(32) . . .
31.7(33) . . .
34.5(32) . . .
28.4(27) . . .
27.4(27) . . .
31.1(29) . . .
33.5(32) . . .
32.6(32) . . .
31.8(30) . . .
32.3(30) . . .
32.5(30) . . .
30.3(31) . . .
33.4(31) . . .
34.8(31) . . .
28.9(29) . . .
25.6(28) . . .
28.9(30) . . .
34.5(32) . . .
35.9(31) . . .
46(4) . . .
39.5(33) . . .
33.5(32) . . .
41(4) . . .
29.7(29) . . .
38.0(33) . . .
30.1(30) . . .
35.2(32) . . .
39.3(32) . . .
32.1(29) . . .
38.1(33) . . .
35.0(31) . . .
36.7(33) . . .
40.3(33) . . .
37.3(32) . . .
30.1(30) . . .
40.1(34) . . .
44(4) . . .
33.3(31) . . .
28.9(27) . . .
30.8(31) . . .
31.9(31) . . .
39.9(34) . . .
31.3(29) . . .
35.6(31) . . .
31.1(29) . . .
24.2(26) . . .
39.5(34) . . .
35.3(31) . . .
37.0(33) . . .
34.2(32) . . .
29.1(30) . . .
34.2(31) . . .
31.4(29) . . .
32.8(31) . . .
46(4) . . .
27.3(28) . . .
35.3(32) . . .
34.9(31) . . .
27.0(28) . . .
34.0(32) . . .
32.1(31) . . .
28.3(29) . . .
32.3(30) . . .
29.3(30) . . .
37.5(34) . . .
27.1(27) . . .
35.1(32) . . .
36.9(32) . . .
34.3(31) . . .
35.9(32) . . .
32.0(31) . . .
40.2(33) . . .
39.9(33) . . .
31.3(30) . . .
40(4) . . .
28.5(30) . . .
35.6(31) . . .
30.5(29) . . .
39.4(34) . . .
30.7(30) . . .
28.2(29) . . .
38.7(33) . . .
27.3(27) . . .
34.8(31) . . .
26.2(28) . . .
33.3(32) . . .
37.4(33) . . .
37.2(32) . . .
36.2(33) . . .
35.3(32) . . .
38.8(33) . . .
35.5(31) . . .
29.8(28) . . .
29.7(29) . . .
35.7(34) . . .
33.7(32) . . .
38.9(32) . . .
36.2(33) . . .
29.8(29) . . .
29.5(29) . . .
39.0(34) . . .
41.7(33) . . .
36.2(32) . . .
34.5(31) . . .
30.5(30) . . .
23.9(27) . . .
33.2(31) . . .
38.0(32) . . .
36.8(34) . . .
39(4) . . .
27.4(28) . . .
36.5(32) . . .
31.4(29) . . .
31.6(31) . . .
34.4(32) . . .
35.1(31) . . .
32.9(30) . . .
34.6(32) . . .
29.4(30) . . .
28.3(29) . . .
29.8(29) . . .
31.6(29) . . .
26.3(27) . . .
43(4) . . .
37.0(34) . . .
36.4(32) . . .
42.1(34) . . .
36.9(32) . . .
41(4) . . .
31.8(29) . . .
31.8(30) . . .
38.2(33) . . .
25.4(28) . . .
31.9(32) . . .
37.8(34) . . .
35.0(31) . . .
43.7(35) . . .
32.7(30) . . .
35.0(32) . . .
39.3(34) . . .
42.5(34) . . .
32.3(29) . . .
31.8(30) . . .
40(4) . . .
50(4) . . .
28.2(28) . . .
34.5(31) . . .
30.5(29) . . .
31.0(31) . . .
35.0(32) . . .
31.4(29) . . .
34.9(30) . . .
32.0(30) . . .
42(4) . . .
32.6(31) . . .
36.0(32) . . .
42.4(35) . . .
30.9(31) . . .
43(4) . . .
39.4(33) . . .
30.0(28) . . .
32.3(31) . . .
34.0(31) . . .
30.3(30) . . .
31.0(32) . . .
29.9(28) . . .
27.3(27) . . .
32.0(30) . . .
35.2(32) . . .
31.0(30) . . .
27.1(27) . . .
33.7(30) . . .
39(4) . . .
41(4) . . .
34.8(31) . . .
37.2(32) . . .
36.8(33) . . .
35.9(34) . . .
30.5(31) . . .
38.9(32) . . .
44(4) . . .
30.7(29) . . .
38.5(34) . . .
36.5(34) . . .
35.9(34) . . .
32.7(30) . . .
26.0(27) . . .
31.6(32) . . .
32.8(29) . . .
35.2(31) . . .
35.9(31) . . .
33.4(31) . . .
37.0(34) . . .
39(4) . . .
29.2(28) . . .
33.9(30) . . .
31.7(32) . . .
33.7(32) . . .
32.6(31) . . .
34.6(31) . . .
36.7(32) . . .
36.2(33) . . .
43(4) . . .
26.8(28) . . .
33.7(30) . . .
31.9(31) . . .
30.9(31) . . .
33.4(32) . . .
29.9(28) . . .
44.1(34) . . .
40.0(33) . . .
33.9(31) . . .
30.4(30) . . .
37.4(32) . . .
40.9(33) . . .
35.7(32) . . .
32.8(30) . . .
40.8(34) . . .
40.3(34) . . .
34.3(30) . . .
45(4) . . .
40(4) . . .
43(4) . . .
41.5(33) . . .
35.8(31) . . .
30.5(29) . . .
32.2(31) . . .
28.2(28) . . .
36.4(34) . . .
34.4(30) . . .
33.9(32) . . .
39.3(34) . . .
42.4(34) . . .
40.9(34) . . .
44.0(35) . . .
34.0(31) . . .
31.1(30) . . .
30.2(29) . . .
35.0(30) . . .
30.0(29) . . .
30.6(29) . . .
33.7(32) . . .
41.4(33) . . .
45.0(35) . . .
41.7(33) . . .
35.3(31) . . .
36.5(34) . . .
36.2(33) . . .
43.4(35) . . .
36.2(31) . . .
24.9(26) . . .
33.8(33) . . .
34.0(34) . . .
34.5(30) . . .
39.1(33) . . .
37.1(32) . . .
31.2(31) . . .
30.0(32) . . .
27.5(27) . . .
32.7(29) . . .
32.8(31) . . .
22.6(24) . . .
33.8(33) . . .
27.1(28) . . .
40.8(34) . . .
37.6(33) . . .
34.2(31) . . .
40.4(34) . . .
29.1(28) . . .
32.3(33) . . .
23.7(26) . . .
37.2(34) . . .
39.2(33) . . .
33.0(29) . . .
35.0(32) . . .
38.9(34) . . .
35.4(31) . . .
40.8(34) . . .
30.7(29) . . .
31.8(31) . . .
31.0(30) . . .
34.3(31) . . .
36.4(32) . . .
39.0(33) . . .
35.9(31) . . .
37.6(32) . . .
33.6(32) . . .
29.5(30) . . .
33.0(30) . . .
34.4(31) . . .
24.9(27) . . .
37.0(33) . . .
29.3(28) . . .
33.3(30) . . .
40.9(35) . . .
30.3(29) . . .
35.7(32) . . .
27.6(28) . . .
31.2(29) . . .
28.4(30) . . .
28.0(30) . . .
34.5(31) . . .
37.3(32) . . .
36.5(32) . . .
32.8(32) . . .
33.8(33) . . .
39(4) . . .
33.9(30) . . .
32.5(31) . . .
23.5(26) . . .
30.5(31) . . .
33.4(31) . . .
30.6(29) . . .
39.4(32) . . .
35.4(32) . . .
33.6(30) . . .
31.9(30) . . .
40.2(33) . . .
32.3(30) . . .
43(4) . . .
27.6(28) . . .
30.2(29) . . .
28.0(27) . . .
35.3(31) . . .
32.0(30) . . .
28.9(29) . . .
30.5(29) . . .
40.4(33) . . .
39.4(34) . . .
36.0(34) . . .
35.1(34) . . .
30.4(29) . . .
25.8(27) . . .
26.7(28) . . .
33.4(33) . . .
34.1(30) . . .
26.1(26) . . .
35.6(31) . . .
41(4) . . .
40.2(34) . . .
36.1(33) . . .
28.2(28) . . .
36.1(31) . . .
27.7(27) . . .
32.9(32) . . .
44(4) . . .
35.8(32) . . .
29.6(28) . . .
37.2(33) . . .
30.9(30) . . .
40(4) . . .
31.4(29) . . .
34.9(31) . . .
36(4) . . .
34.8(32) . . .
30.2(29) . . .
33.0(30) . . .
40.0(33) . . .
35.8(31) . . .
37.0(35) . . .
39.6(35) . . .
39.3(34) . . .
31.9(31) . . .
44(4) . . .
37.1(32) . . .
36.3(33) . . .
45.9(35) . . .
30.4(29) . . .
36.1(31) . . .
36.4(32) . . .
29.6(28) . . .
31.5(29) . . .
36.3(33) . . .
32.5(32) . . .
33.8(31) . . .
43(4) . . .
44.4(34) . . .
39.4(33) . . .
34.9(32) . . .
32.2(29) . . .
35.0(31) . . .
37.0(31) . . .
43(4) . . .
28.9(28) . . .
31.6(32) . . .
33.4(30) . . .
33.5(30) . . .
32.8(31) . . .
34.3(34) . . .
37.8(34) . . .
30.6(29) . . .
41.5(34) . . .
35.5(31) . . .
34.9(33) . . .
40.7(34) . . .
35.5(31) . . .
26.8(27) . . .
25.1(27) . . .
42(4) . . .
33.4(30) . . .
42.4(34) . . .
40.3(33) . . .
31.8(30) . . .
33.9(32) . . .
35.5(32) . . .
38.9(33) . . .
36.9(32) . . .
30.7(28) . . .
38.6(34) . . .
31.4(30) . . .
33.9(31) . . .
35.6(31) . . .
41.1(35) . . .
36.8(33) . . .
37.9(32) . . .
38.0(32) . . .
34.7(32) . . .
42(4) . . .
35.0(32) . . .
28.4(29) . . .
31.5(29) . . .
27.3(27) . . .
37.7(35) . . .
42(4) . . .
36.6(32) . . .
27.9(27) . . .
35(4) . . .
34.7(31) . . .
35.0(31) . . .
31.3(30) . . .
36.8(31) . . .
34.1(35) . . .
30.6(31) . . .
26.8(28) . . .
33.6(32) . . .
32.4(30) . . .
40(4) . . .
35.2(31) . . .
38.4(32) . . .
34.7(30) . . .
35.5(31) . . .
29.4(30) . . .
36.3(34) . . .
34.0(30) . . .
32.9(30) . . .
30.1(28) . . .
31.3(28) . . .
30.6(31) . . .
32.0(32) . . .
33.5(30) . . .
39.8(32) . . .
33.7(32) . . .
27.4(29) . . .
40.8(33) . . .
30.6(29) . . .
32.3(30) . . .
29.7(28) . . .
41(4) . . .
29.2(28) . . .
37.2(31) . . .
34.5(30) . . .
34.1(31) . . .
41(4) . . .
33.2(32) . . .
37.9(33) . . .
37.0(32) . . .
43(4) . . .
43(4) . . .
26.7(29) . . .
36.2(32) . . .
29.4(29) . . .
33.2(31) . . .
32.3(32) . . .
22.5(25) . . .
32.7(31) . . .
32.0(31) . . .
30.4(31) . . .
38.3(35) . . .
35.2(31) . . .
37.5(32) . . .
44(4) . . .
41.5(34) . . .
39.3(32) . . .
36.3(31) . . .
37.9(32) . . .
42(4) . . .
32.6(31) . . .
34.1(32) . . .
30.5(29) . . .
42.4(34) . . .
45(4) . . .
34.8(30) . . .
37.5(33) . . .
32.5(30) . . .
38.3(32) . . .
33.9(31) . . .
36.9(34) . . .
41.0(35) . . .
29.8(29) . . .
36.8(32) . . .
33.4(31) . . .
39(4) . . .
37.7(33) . . .
43.0(34) . . .
32.9(30) . . .
34.2(32) . . .
31.0(31) . . .
30.1(30) . . .
33.2(30) . . .
38.4(33) . . .
35.3(32) . . .
42(4) . . .
27.4(31) . . .
34.1(31) . . .
30.1(29) . . .
38.5(34) . . .
45(4) . . .
35.8(33) . . .
27.1(27) . . .
41(4) . . .
40.8(34) . . .
39(4) . . .
40.8(35) . . .
37.6(32) . . .
36.0(33) . . .
30.3(29) . . .
38.8(33) . . .
37.9(33) . . .
31.8(29) . . .
38.3(34) . . .
39.6(34) . . .
31.8(29) . . .
31.7(30) . . .
36.3(31) . . .
31.2(30) . . .
32.4(34) . . .
34.6(32) . . .
40.3(34) . . .
35.5(30) . . .
30.5(30) . . .
32.3(33) . . .
40(4) . . .
34.5(31) . . .
41.3(33) . . .
29.2(28) . . .
29.5(30) . . .
33.2(30) . . .
35.0(32) . . .
31.3(29) . . .
34.4(30) . . .
39.2(34) . . .
38.8(33) . . .
45.9(35) . . .
38.8(32) . . .
43(4) . . .
26.3(26) . . .
37.7(35) . . .
37.7(32) . . .
33.7(30) . . .
36.4(32) . . .
40.0(35) . . .
38.9(35) . . .
36.4(32) . . .
31.1(30) . . .
28.7(28) . . .
39.4(34) . . .
39.0(33) . . .
33.0(30) . . .
35.1(31) . . .
28.0(27) . . .
36.9(34) . . .
29.9(31) . . .
35.1(31) . . .
32.8(31) . . .
37.0(33) . . .
33.2(30) . . .
36.6(32) . . .
29.8(29) . . .
29.6(29) . . .
30.2(33) . . .
37.8(34) . . .
37.3(33) . . .
38.2(32) . . .
26.7(27) . . .
33.4(32) . . .
29.9(29) . . .
38.5(34) . . .
39.4(33) . . .
29.4(29) . . .
38(4) . . .
33.6(31) . . .
27.1(27) . . .
29.6(29) . . .
28.9(30) . . .
33.6(33) . . .
39.7(35) . . .
39.3(33) . . .
33.7(30) . . .
30.8(29) . . .
28.6(31) . . .
33.4(31) . . .
36.8(31) . . .
39.2(33) . . .
31.0(29) . . .
38.1(34) . . .
36.0(33) . . .
28.2(28) . . .
32.2(30) . . .
34.2(33) . . .
29.4(29) . . .
32.8(31) . . .
45.0(34) . . .
29.2(28) . . .
29.7(29) . . .
38.5(33) . . .
33.1(31) . . .
29.8(29) . . .
24.1(26) . . .
25.5(27) . . .
30.2(30) . . .
35.0(33) . . .
31.0(29) . . .
30.3(30) . . .
31.0(29) . . .
41.2(35) . . .
31.4(29) . . .
36.1(31) . . .
42(4) . . .
34.9(32) . . .
36.3(32) . . .
30.2(29) . . .
34.1(31) . . .
35(4) . . .
32.2(33) . . .
39.4(34) . . .
30.4(29) . . .
31.2(29) . . .
41(4) . . .
28.7(29) . . .
29.5(28) . . .
33.6(30) . . .
34.2(31) . . .
22.4(25) . . .
28.8(30) . . .
33.8(32) . . .
38.1(33) . . .
34.0(30) . . .
37.7(33) . . .
34.7(32) . . .
40.3(34) . . .
44(4) . . .
25.1(26) . . .
33.9(31) . . .
28.8(27) . . .
31.9(29) . . .
44.1(34) . . .
28.9(28) . . .
26.4(27) . . .
30.3(31) . . .
47(4) . . .
34.4(31) . . .
28.2(28) . . .
39.0(34) . . .
36.3(34) . . .
34.5(31) . . .
29.2(28) . . .
36.0(32) . . .
36.8(34) . . .
35.8(32) . . .
39.7(33) . . .
39.2(33) . . .
37.1(32) . . .
37.7(34) . . .
43(4) . . .
39.2(34) . . .
39.2(33) . . .
34.9(34) . . .
26.8(27) . . .
34.2(31) . . .
39.1(34) . . .
41.8(34) . . .
37.3(32) . . .
37(4) . . .
29.7(31) . . .
33.8(31) . . .
35.5(31) . . .
44.2(35) . . .
43(4) . . .
39.6(34) . . .
38.5(33) . . .
32.6(29) . . .
42(4) . . .
41(4) . . .
31.9(30) . . .
36.1(31) . . .
35.6(31) . . .
29.5(29) . . .
42(4) . . .
30.7(29) . . .
37.2(32) . . .
25.6(27) . . .
27.4(28) . . .
29.6(30) . . .
37.3(32) . . .
25.4(26) . . .
38.4(33) . . .
38(4) . . .
33.3(32) . . .
35.6(31) . . .
41.2(33) . . .
36.0(32) . . .
26.5(27) . . .
32.1(31) . . .
33.8(31) . . .
32.3(29) . . .
26.6(28) . . .
28.0(31) . . .
36.1(33) . . .
33.1(32) . . .
35.6(31) . . .
36.3(31) . . .
32.0(31) . . .
34.6(33) . . .
33.6(31) . . .
43.7(34) . . .
30.8(29) . . .
33.4(33) . . .
29.3(29) . . .
40.1(34) . . .
36.3(31) . . .
30.0(30) . . .
32.0(31) . . .
34.9(35) . . .
30.9(29) . . .
37.0(32) . . .
27.9(28) . . .
33.9(31) . . .
41(4) . . .
36.6(32) . . .
28.3(28) . . .
29.1(30) . . .
33.5(33) . . .
34.2(31) . . .
30.0(28) . . .
39.5(33) . . .
32.8(30) . . .
29.9(30) . . .
37.9(34) . . .
34.8(30) . . .
28.3(28) . . .
26.7(27) . . .
34.2(34) . . .
25.8(30) . . .
35.0(31) . . .
38.2(34) . . .
43(4) . . .
31.6(31) . . .
34.4(33) . . .
35.0(31) . . .
35.1(31) . . .
35.6(32) . . .
33.0(29) . . .
38.3(33) . . .
35.3(31) . . .
37.5(32) . . .
30.7(30) . . .
33.1(34) . . .
35.2(33) . . .
39.3(32) . . .
34.4(31) . . .
34.5(31) . . .
47(4) . . .
42.3(35) . . .
38.3(32) . . .
40.7(34) . . .
41(4) . . .
32.3(31) . . .
30.7(29) . . .
33.6(30) . . .
29.9(31) . . .
31.6(31) . . .
31.3(29) . . .
33.0(31) . . .
38.9(33) . . .
38.4(33) . . .
35.7(33) . . .
36.0(35) . . .
32.6(32) . . .
33.7(30) . . .
35.0(32) . . .
38.5(35) . . .
38.0(33) . . .
38.2(32) . . .
37.1(31) . . .
37.4(33) . . .
34.5(33) . . .
36.4(31) . . .
31.7(29) . . .
33.9(30) . . .
34.7(32) . . .
45(4) . . .
38.8(34) . . .
33.1(30) . . .
36.7(32) . . .
47(4) . . .
32.8(32) . . .
44(4) . . .
31.8(29) . . .
43.5(35) . . .
37.3(33) . . .
34.5(31) . . .
31.2(28) . . .
33.7(30) . . .
26.8(28) . . .
32.4(30) . . .
45(4) . . .
36.1(32) . . .
35.7(32) . . .
31.6(30) . . .
32.7(33) . . .
35.1(33) . . .
34.9(32) . . .
41.4(33) . . .
35.5(32) . . .
41(4) . . .
33.5(32) . . .
30.5(30) . . .
31.0(29) . . .
29.6(28) . . .
30.5(30) . . .
31.2(32) . . .
33.4(31) . . .
38.5(32) . . .
42(4) . . .
33.6(32) . . .
32.2(31) . . .
32.1(29) . . .
43(4) . . .
28.3(28) . . .
39(4) . . .
28.8(29) . . .
43.8(34) . . .
32.0(29) . . .
38.2(35) . . .
34.8(33) . . .
35.1(32) . . .
35.8(31) . . .
37.3(33) . . .
44(4) . . .
39(4) . . .
31.3(31) . . .
36.3(31) . . .
35.3(33) . . .
30.0(29) . . .
27.4(28) . . .
28.0(27) . . .
31.1(29) . . .
43(4) . . .
34.6(33) . . .
32.8(31) . . .
39.9(34) . . .
32.6(30) . . .
38.7(35) . . .
35.7(33) . . .
37.8(34) . . .
40.2(33) . . .
32.5(30) . . .
30.5(32) . . .
30.5(31) . . .
28.3(31) . . .
34.2(33) . . .
32.6(30) . . .
29.7(28) . . .
40(4) . . .
32.2(29) . . .
31.9(29) . . .
42.5(34) . . .
41.8(35) . . .
36.4(33) . . .
30.6(29) . . .
41(4) . . .
34.8(31) . . .
41(4) . . .
36.8(33) . . .
35.3(34) . . .
37.4(32) . . .
35.8(31) . . .
28.6(29) . . .
33.3(33) . . .
37.7(33) . . .
37.5(33) . . .
43.2(34) . . .
44(4) . . .
39(4) . . .
26.7(29) . . .
27.2(27) . . .
38.7(33) . . .
43(4) . . .
34.1(32) . . .
33.0(30) . . .
34.8(31) . . .
38.4(32) . . .
32.4(32) . . .
34.0(34) . . .
30.6(29) . . .
34.3(31) . . .
37.2(32) . . .
37.1(33) . . .
34.8(33) . . .
38(4) . . .
32.6(31) . . .
37.0(33) . . .
36.4(31) . . .
35.1(33) . . .
37.3(32) . . .
42.5(34) . . .
40.4(34) . . .
36.0(33) . . .
37.2(34) . . .
34.3(31) . . .
34.9(31) . . .
31.8(30) . . .
33.0(31) . . .
33.7(31) . . .
36.9(32) . . .
24.5(25) . . .
30.4(29) . . .
34.4(33) . . .
42(4) . . .
37.5(32) . . .
42.9(35) . . .
35.1(31) . . .
38.9(34) . . .
33.4(30) . . .
41.1(34) . . .
35.9(31) . . .
27.9(31) . . .
25.3(28) . . .
33.6(32) . . .
35.9(31) . . .
30.8(29) . . .
30.8(30) . . .
29.6(30) . . .
36.6(34) . . .
33.4(31) . . .
28.8(28) . . .
31.2(30) . . .
29.0(30) . . .
34.1(32) . . .
30.1(28) . . .
34.0(30) . . .
39.1(34) . . .
31.7(31) . . .
33.6(31) . . .
44.7(35) . . .
33.0(31) . . .
40.2(35) . . .
35.5(33) . . .
40.6(34) . . .
35.8(31) . . .
30.6(29) . . .
31.1(30) . . .
49(4) . . .
37.4(32) . . .
35.0(32) . . .
22.2(24) . . .
34.7(33) . . .
31.7(31) . . .
38.4(32) . . .
44.0(35) . . .
38.6(32) . . .
28.7(28) . . .
28.1(29) . . .
38.3(33) . . .
29.9(28) . . .
37.4(33) . . .
44(4) . . .
32.3(31) . . .
33.1(31) . . .
32.9(30) . . .
33.9(32) . . .
34.5(35) . . .
32.2(31) . . .
31.2(29) . . .
40.5(33) . . .
37.4(33) . . .
34.3(33) . . .
32.1(30) . . .
32.3(30) . . .
35.8(31) . . .
38.5(34) . . .
28.3(29) . . .
33.8(32) . . .
45.0(35) . . .
47(4) . . .
31.4(29) . . .
34.6(33) . . .
33.9(32) . . .
35.5(31) . . .
38.0(33) . . .
27.8(29) . . .
33.4(33) . . .
39.9(34) . . .
31.5(29) . . .
34.0(31) . . .
37.8(32) . . .
32.5(30) . . .
38.3(33) . . .
26.9(28) . . .
36.8(32) . . .
38.5(33) . . .
30.1(32) . . .
38.6(34) . . .
35.5(32) . . .
43.0(34) . . .
33.2(30) . . .
32.9(30) . . .
41.4(35) . . .
33.9(30) . . .
30.9(29) . . .
32.7(31) . . .
26.8(27) . . .
35.9(32) . . .
32.3(30) . . .
40.8(34) . . .
35.2(31) . . .
39.9(34) . . .
35.1(30) . . .
24.9(26) . . .
31.5(31) . . .
41(4) . . .
39.0(34) . . .
34.6(31) . . .
31.7(30) . . .
31.2(30) . . .
29.2(30) . . .
43(4) . . .
30.1(29) . . .
34.0(30) . . .
45(4) . . .
38.0(33) . . .
36.3(33) . . .
42(4) . . .
35.6(31) . . .
35(4) . . .
31.5(30) . . .
44(4) . . .
36.4(31) . . .
33.1(30) . . .
27.6(27) . . .
33.1(31) . . .
25.5(26) . . .
37.6(31) . . .
38.3(33) . . .
38.1(32) . . .
49(4) . . .
34.6(31) . . .
32.0(29) . . .
33.2(31) . . .
36.2(31) . . .
34.2(30) . . .
32.0(31) . . .
40.7(33) . . .
37.4(33) . . .
40.9(34) . . .
38.8(33) . . .
43(4) . . .
34.1(30) . . .
37.5(33) . . .
38.3(35) . . .
38.6(34) . . .
40(4) . . .
32.7(29) . . .
34.3(30) . . .
37.5(33) . . .
35.7(33) . . .
33.5(31) . . .
33.5(30) . . .
35.5(32) . . .
31.5(30) . . .
33.1(31) . . .
31.5(29) . . .
26.6(27) . . .
34.8(33) . . .
40(4) . . .
30.9(30) . . .
33.5(31) . . .
32.7(29) . . .
35.8(31) . . .
32.5(29) . . .
45(4) . . .
32.6(31) . . .
44.7(35) . . .
30.8(29) . . .
31.3(32) . . .
28.5(30) . . .
36.9(32) . . .
42.2(33) . . .
28.9(28) . . .
27.3(29) . . .
26.6(27) . . .
33.0(30) . . .
31.8(31) . . .
34.0(33) . . .
31.1(30) . . .
34.4(31) . . .
37.8(32) . . .
36.8(31) . . .
34.2(34) . . .
33.3(32) . . .
31.0(32) . . .
27.9(28) . . .
38.4(32) . . .
42(4) . . .
41(4) . . .
33.5(34) . . .
35.1(31) . . .
30.5(29) . . .
33.4(32) . . .
38.0(35) . . .
32.7(30) . . .
39.1(33) . . .
33.0(31) . . .
34.0(31) . . .
33.5(31) . . .
27.8(28) . . .
29.1(29) . . .
35.9(31) . . .
30.8(30) . . .
33.5(31) . . .
34.1(32) . . .
47(4) . . .
30.0(30) . . .
39(4) . . .
38.5(34) . . .
39.2(33) . . .
36.1(31) . . .
34.6(32) . . .
30.5(31) . . .
31.3(31) . . .
38.5(34) . . .
36.4(32) . . .
33.4(30) . . .
38.4(35) . . .
32.5(30) . . .
33.9(31) . . .
35.8(31) . . .
28.4(28) . . .
33.6(32) . . .
27.0(26) . . .
33.6(31) . . .
31.3(29) . . .
35(4) . . .
31.0(32) . . .
36.8(33) . . .
33.3(30) . . .
26.0(28) . . .
31.3(29) . . .
41(4) . . .
33.3(30) . . .
37.4(32) . . .
31.9(30) . . .
35.0(31) . . .
43(4) . . .
40.1(34) . . .
40.8(33) . . .
38.8(33) . . .
36.2(32) . . .
38(4) . . .
36.5(32) . . .
35.5(31) . . .
29.1(28) . . .
34.7(32) . . .
36.9(33) . . .
38.3(33) . . .
36.6(31) . . .
33.9(32) . . .
30.6(30) . . .
31.9(31) . . .
33.5(30) . . .
35.7(31) . . .
34.2(32) . . .
32.8(32) . . .
36.1(32) . . .
31.3(29) . . .
38.5(32) . . .
51(4) . . .
41(4) . . .
32.9(31) . . .
30.3(29) . . .
39.1(33) . . .
45(4) . . .
38.5(35) . . .
34.5(31) . . .
38.3(32) . . .
34.3(30) . . .
34.0(32) . . .
32.1(31) . . .
29.4(29) . . .
32.4(29) . . .
37.7(32) . . .
32.3(31) . . .
39.0(35) . . .
35.7(32) . . .
32.4(30) . . .
31.0(30) . . .
39.8(34) . . .
28.0(29) . . .
32.7(31) . . .
32.5(29) . . .
40.4(33) . . .
38(4) . . .
36.8(33) . . .
29.4(29) . . .
28.8(28) . . .
34.0(32) . . .
31.9(30) . . .
33.0(30) . . .
31.2(30) . . .
31.9(30) . . .
35.1(32) . . .
35.8(34) . . .
32.7(30) . . .
30.1(28) . . .
35.6(32) . . .
33.6(31) . . .
33.5(32) . . .
33.4(31) . . .
38.9(33) . . .
29.9(29) . . .
31.8(30) . . .
36.0(31) . . .
34.0(33) . . .
30.9(30) . . .
28.0(28) . . .
37(4) . . .
39.8(34) . . .
36.9(32) . . .
32.8(30) . . .
36.5(31) . . .
47(4) . . .
36.1(33) . . .
44(4) . . .
34.3(31) . . .
34.2(30) . . .
33.1(30) . . .
33.3(33) . . .
31.0(30) . . .
34.5(32) . . .
28.2(28) . . .
41(4) . . .
35.5(34) . . .
36.2(32) . . .
33.6(34) . . .
38.2(32) . . .
32.4(34) . . .
26.5(27) . . .
37.3(34) . . .
39.1(33) . . .
36.1(31) . . .
30.3(29) . . .
37.0(32) . . .
32.2(31) . . .
29.8(29) . . .
32.4(31) . . .
26.0(26) . . .
30.5(32) . . .
26.5(27) . . .
39.6(33) . . .
35.0(31) . . .
34.3(34) . . .
32.1(32) . . .
31.5(31) . . .
33.6(30) . . .
37.2(32) . . .
28.7(28) . . .
32.5(31) . . .
31.5(30) . . .
36.5(31) . . .
37.7(33) . . .
31.7(32) . . .
33.8(32) . . .
35.1(31) . . .
36.9(32) . . .
44(4) . . .
34.9(31) . . .
36.6(32) . . .
38.1(32) . . .
36.7(31) . . .
31.9(29) . . .
40.2(34) . . .
38.9(34) . . .
30.5(29) . . .
38.9(33) . . .
33.1(32) . . .
45(4) . . .
31.7(30) . . .
31.3(30) . . .
34.3(31) . . .
23.6(26) . . .
30.8(32) . . .
31.5(30) . . .
27.9(27) . . .
30.4(29) . . .
33.6(30) . . .
33.8(31) . . .
40(4) . . .
31.1(29) . . .
45.5(35) . . .
35.8(32) . . .
40(4) . . .
34.0(33) . . .
33.2(30) . . .
43.0(34) . . .
37.2(32) . . .
30.0(30) . . .
35.6(32) . . .
31.7(29) . . .
40.2(33) . . .
43(4) . . .
46(4) . . .
36.5(31) . . .
36.3(32) . . .
37.2(33) . . .
25.7(27) . . .
30.4(31) . . .
39(4) . . .
43.8(35) . . .
31.2(29) . . .
40(4) . . .
27.9(29) . . .
36.5(32) . . .
46(4) . . .
28.6(30) . . .
40(4) . . .
42.3(35) . . .
34.2(30) . . .
29.1(28) . . .
32.8(31) . . .
32.3(32) . . .
39(4) . . .
32.6(30) . . .
30.6(28) . . .
36.4(33) . . .
33.0(34) . . .
26.4(29) . . .
29.8(28) . . .
29.8(28) . . .
33.8(31) . . .
27.5(30) . . .
27.7(29) . . .
31.5(30) . . .
33.2(31) . . .
31.0(30) . . .
38(4) . . .
46(4) . . .
38.0(33) . . .
40.4(33) . . .
32.4(31) . . .
37.5(33) . . .
44(4) . . .
28.2(28) . . .
31.7(30) . . .
33.9(31) . . .
32.5(32) . . .
35.3(33) . . .
35.0(31) . . .
34.8(31) . . .
44(4) . . .
34.7(32) . . .
34.8(32) . . .
29.8(28) . . .
39.7(33) . . .
33.4(31) . . .
39(4) . . .
30.7(33) . . .
25.9(26) . . .
26.5(28) . . .
42(4) . . .
43(4) . . .
36.0(31) . . .
34.6(30) . . .
33.6(31) . . .
35.2(32) . . .
34.8(31) . . .
30.8(29) . . .
30.9(29) . . .
30.2(31) . . .
37.7(35) . . .
40.1(35) . . .
31.7(29) . . .
40.3(33) . . .
29.1(29) . . .
32.7(34) . . .
29.1(29) . . .
39.9(33) . . .
33.9(31) . . .
32.0(30) . . .
38(4) . . .
33.3(31) . . .
41.5(34) . . .
37.9(33) . . .
31.0(29) . . .
35.3(33) . . .
32.4(30) . . .
37.0(32) . . .
31.1(30) . . .
33.3(31) . . .
34.8(33) . . .
39.1(35) . . .
30.6(29) . . .
35.5(33) . . .
28.3(27) . . .
32.3(31) . . .
40.4(35) . . .
35.4(32) . . .
34.7(31) . . .
37.1(34) . . .
31.2(30) . . .
32.2(30) . . .
38.3(32) . . .
25.1(27) . . .
26.3(27) . . .
27.3(29) . . .
35.8(31) . . .
37.6(32) . . .
33.2(29) . . .
33.7(30) . . .
33.1(32) . . .
38.6(34) . . .
37.6(32) . . .
30.3(30) . . .
37.3(34) . . .
35.3(31) . . .
40.6(35) . . .
45(4) . . .
37.5(34) . . .
32.9(33) . . .
35.5(33) . . .
46(4) . . .
36.9(32) . . .
34.1(31) . . .
40(4) . . .
24.6(27) . . .
32.9(30) . . .
33.4(30) . . .
37.5(34) . . .
38(4) . . .
25.6(27) . . .
30.5(29) . . .
32.6(29) . . .
37.0(32) . . .
39.0(33) . . .
38.7(33) . . .
39.3(32) . . .
32.0(30) . . .
35.6(32) . . .
34.6(32) . . .
29.9(29) . . .
30.8(29) . . .
41.2(34) . . .
28.0(28) . . .
37.1(34) . . .
38.6(33) . . .
29.3(28) . . .
36.3(31) . . .
34.0(32) . . .
39(4) . . .
30.2(29) . . .
42.5(34) . . .
32.9(30) . . .
30.8(30) . . .
28.9(31) . . .
32.5(30) . . .
31.8(29) . . .
25.5(27) . . .
39(4) . . .
37.1(34) . . .
34.1(31) . . .
42.1(34) . . .
29.4(29) . . .
29.1(30) . . .
39(4) . . .
30.3(29) . . .
30.8(29) . . .
32.1(32) . . .
40(4) . . .
34.2(32) . . .
31.6(30) . . .
39.1(33) . . .
37.9(33) . . .
29.3(30) . . .
33.3(32) . . .
35.5(32) . . .
36.3(31) . . .
38.7(34) . . .
33.5(32) . . .
38.1(34) . . .
38.0(32) . . .
35.2(31) . . .
45(4) . . .
40(4) . . .
35.5(32) . . .
35.3(32) . . .
37.1(33) . . .
31.9(30) . . .
34.1(32) . . .
37.5(32) . . .
29.1(28) . . .
24.9(26) . . .
31.5(30) . . .
30.9(30) . . .
36.1(33) . . .
27.5(27) . . .
45(4) . . .
30.1(29) . . .
35.0(34) . . .
34.5(31) . . .
26.3(28) . . .
32.5(31) . . .
35.2(33) . . .
32.8(31) . . .
27.5(28) . . .
30.3(29) . . .
37.4(33) . . .
37.0(34) . . .
31.0(32) . . .
32.9(30) . . .
38.0(33) . . .
32.1(29) . . .
38.3(33) . . .
35.0(31) . . .
33.3(32) . . .
34.0(31) . . .
30.6(29) . . .
37.5(33) . . .
38.8(35) . . .
30.4(29) . . .
36.5(31) . . .
33.1(30) . . .
33.9(31) . . .
30.5(28) . . .
29.1(28) . . .
40.0(33) . . .
35.0(32) . . .
49(4) . . .
35.2(30) . . .
37.6(33) . . .
36.8(32) . . .
31.9(32) . . .
22.6(26) . . .
33.4(32) . . .
35.0(30) . . .
33.2(31) . . .
30.4(29) . . .
41(4) . . .
35.2(31) . . .
34.7(32) . . .
30.2(29) . . .
38.8(34) . . .
31.0(30) . . .
28.6(31) . . .
35.2(31) . . .
41.0(34) . . .
32.9(30) . . .
30.5(29) . . .
32.4(29) . . .
42.1(34) . . .
34.6(34) . . .
35.0(32) . . .
39.1(33) . . .
35.8(31) . . .
33.7(30) . . .
29.2(28) . . .
29.8(30) . . .
32.9(31) . . .
35.2(31) . . .
44.9(35) . . .
28.9(29) . . .
34.7(33) . . .
37.2(35) . . .
41.7(34) . . .
34.1(31) . . .
33.5(32) . . .
34.4(31) . . .
43(4) . . .
30.1(28) . . .
32.0(29) . . .
30.6(28) . . .
35.9(34) . . .
36.3(32) . . .
37.0(33) . . .
30.5(29) . . .
28.4(29) . . .
29.5(28) . . .
39.4(33) . . .
39.8(32) . . .
30.6(28) . . .
36.0(31) . . .
37.9(34) . . .
44(4) . . .
37.5(32) . . .
42.9(35) . . .
35.9(32) . . .
39(4) . . .
37.4(33) . . .
37.0(32) . . .
34.0(32) . . .
28.6(28) . . .
37.6(35) . . .
31.6(31) . . .
33.7(31) . . .
33.3(30) . . .
35.4(32) . . .
26.5(27) . . .
37.0(34) . . .
33.9(30) . . .
36.3(32) . . .
24.3(25) . . .
28.9(31) . . .
29.1(29) . . .
35.7(31) . . .
28.3(28) . . .
28.2(28) . . .
30.7(30) . . .
36.3(31) . . .
34.0(30) . . .
31.9(29) . . .
39.6(35) . . .
37.6(33) . . .
42.4(35) . . .
35.6(32) . . .
34.6(31) . . .
31.2(31) . . .
30.5(32) . . .
37.0(35) . . .
42.7(34) . . .
40.0(34) . . .
38.1(35) . . .
28.4(28) . . .
37.6(33) . . .
32.8(30) . . .
37.1(32) . . .
27.7(28) . . .
32.9(32) . . .
26.1(27) . . .
30.1(29) . . .
28.5(29) . . .
31.1(33) . . .
33.5(33) . . .
31.7(29) . . .
37.4(32) . . .
27.2(29) . . .
34.1(35) . . .
27.9(28) . . .
30.8(29) . . .
33.4(30) . . .
35.3(32) . . .
28.8(29) . . .
38.4(33) . . .
34.0(31) . . .
32.8(30) . . .
30.9(29) . . .
34.9(35) . . .
32.4(31) . . .
31.4(29) . . .
32.8(31) . . .
37.6(33) . . .
34.0(30) . . .
40(4) . . .
34.4(31) . . .
36.3(33) . . .
40.8(34) . . .
40(4) . . .
38.2(33) . . .
33.3(31) . . .
42(4) . . .
32.1(30) . . .
34.3(33) . . .
26.8(30) . . .
26.9(28) . . .
33.7(30) . . .
32.0(31) . . .
32.7(32) . . .
29.6(28) . . .
35.0(30) . . .
30.7(34) . . .
32.0(32) . . .
27.7(29) . . .
37.1(32) . . .
35.1(31) . . .
28.7(28) . . .
30.6(29) . . .
39.0(34) . . .
37.5(34) . . .
36.9(32) . . .
31.9(31) . . .
26.7(30) . . .
32.8(34) . . .
32.6(29) . . .
38.7(33) . . .
37.4(33) . . .
37(4) . . .
40.9(35) . . .
27.1(28) . . .
41.7(33) . . .
35.2(32) . . .
37.5(35) . . .
38.0(34) . . .
35.1(31) . . .
39.1(33) . . .
39.3(33) . . .
39(4) . . .
29.9(29) . . .
32.7(30) . . .
36.2(31) . . .
41.6(35) . . .
39(4) . . .
36.2(34) . . .
35.1(31) . . .
31.6(30) . . .
33.5(32) . . .
26.1(30) . . .
32.1(30) . . .
30.0(29) . . .
32.9(30) . . .
35.5(33) . . .
31.5(29) . . .
41.2(34) . . .
36.0(31) . . .
34.2(31) . . .
37(4) . . .
30.7(29) . . .
36.7(33) . . .
39.9(33) . . .
33.8(31) . . .
28.3(28) . . .
30.3(30) . . .
35.6(31) . . .
26.8(27) . . .
29.0(31) . . .
28.8(29) . . .
32.8(30) . . .
36.3(32) . . .
33.8(31) . . .
26.5(27) . . .
37.3(34) . . .
27.0(27) . . .
36.9(32) . . .
45(4) . . .
43(4) . . .
31.5(31) . . .
33.7(33) . . .
25.1(27) . . .
30.4(29) . . .
35.4(32) . . .
32.3(33) . . .
30.6(30) . . .
35.0(30) . . .
34.8(31) . . .
24.2(26) . . .
29.7(32) . . .
33.1(32) . . .
30.0(29) . . .
35.8(30) . . .
33.5(32) . . .
34.5(31) . . .
41.5(34) . . .
33.5(30) . . .
37.3(32) . . .
30.5(31) . . .
34.8(34) . . .
34.4(33) . . .
44.6(35) . . .
34.5(31) . . .
33.1(30) . . .
31.6(30) . . .
32.5(30) . . .
30.9(29) . . .
26.9(28) . . .
27.3(30) . . .
30.6(31) . . .
35.2(32) . . .
40.2(33) . . .
34.6(32) . . .
40.2(34) . . .
40.6(34) . . .
39.2(33) . . .
36.3(31) . . .
34.3(31) . . .
34.8(32) . . .
32.1(31) . . .
37.8(32) . . .
35.1(31) . . .
42.2(35) . . .
43(4) . . .
26.4(26) . . .
28.3(28) . . .
33.8(30) . . .
30.5(29) . . .
31.4(33) . . .
26.8(28) . . .
38.3(33) . . .
38.2(32) . . .
31.0(29) . . .
39(4) . . .
31.4(31) . . .
35.0(31) . . .
37.0(32) . . .
33.6(33) . . .
32.7(32) . . .
29.5(29) . . .
24.0(26) . . .
35.1(31) . . .
35.6(32) . . .
40(4) . . .
27.8(28) . . .
44.5(34) . . .
30.4(31) . . .
25.5(28) . . .
26.0(27) . . .
37.3(32) . . .
37.3(32) . . .
35.7(32) . . .
27.1(28) . . .
33.0(34) . . .
41(4) . . .
47(4) . . .
45(4) . . .
38.5(33) . . .
36.4(33) . . .
39.6(33) . . .
40.4(33) . . .
39.4(33) . . .
31.5(31) . . .
31.6(31) . . .
37.7(33) . . .
35.6(31) . . .
30.9(29) . . .
37.5(32) . . .
35.6(32) . . .
38.9(34) . . .
33.5(30) . . .
35.6(32) . . .
37.2(34) . . .
39.3(34) . . .
36.2(32) . . .
31.7(29) . . .
31.8(30) . . .
35.0(32) . . .
34.5(33) . . .
33.4(32) . . .
36.5(31) . . .
33.3(30) . . .
29.0(29) . . .
38.0(35) . . .
39.1(34) . . .
38.6(32) . . .
36.0(32) . . .
36.6(32) . . .
38.7(33) . . .
26.5(27) . . .
36.8(32) . . .
32.5(31) . . .
34.5(32) . . .
33.7(30) . . .
37.1(32) . . .
34.4(30) . . .
29.5(29) . . .
34.0(33) . . .
28.1(28) . . .
37.9(32) . . .
36.4(31) . . .
35.1(31) . . .
38.3(34) . . .
36.8(32) . . .
30.4(29) . . .
33.6(30) . . .
35.5(32) . . .
42(4) . . .
34.9(32) . . .
36.2(31) . . .
30.5(29) . . .
33.8(33) . . .
39.4(35) . . .
38.2(32) . . .
32.2(30) . . .
47(4) . . .
40(4) . . .
33.6(32) . . .
31.5(30) . . .
32.5(30) . . .
38.9(33) . . .
31.3(31) . . .
32.4(30) . . .
31.1(29) . . .
33.1(30) . . .
37(4) . . .
28.6(29) . . .
39(4) . . .
30.1(30) . . .
31.0(30) . . .
35.7(32) . . .
32.9(31) . . .
31.0(30) . . .
35.3(32) . . .
37.5(33) . . .
39.2(34) . . .
37(4) . . .
31.3(31) . . .
34.5(30) . . .
26.8(28) . . .
38.9(34) . . .
36.6(34) . . .
30.0(31) . . .
32.7(31) . . .
35.5(31) . . .
32.7(32) . . .
29.5(31) . . .
37.1(32) . . .
38.8(32) . . .
38.6(33) . . .
30.2(28) . . .
27.8(29) . . .
24.2(28) . . .
36.8(31) . . .
40.9(33) . . .
32.4(31) . . .
30.3(30) . . .
25.4(26) . . .
31.2(29) . . .
36.0(31) . . .
29.1(28) . . .
39.7(35) . . .
34.2(31) . . .
34.4(31) . . .
35.6(32) . . .
34.8(33) . . .
31.1(31) . . .
37.2(33) . . .
44.9(35) . . .
34.3(31) . . .
32.9(31) . . .
39.5(34) . . .
30.3(29) . . .
30.3(29) . . .
38.6(34) . . .
31.7(31) . . .
33.2(31) . . .
37.3(33) . . .
26.8(27) . . .
31.9(30) . . .
24.7(26) . . .
49(4) . . .
31.1(29) . . .
31.9(29) . . .
39.0(34) . . .
36.6(35) . . .
27.7(29) . . .
35.9(31) . . .
31.0(31) . . .
26.6(29) . . .
34.3(35) . . .
38(4) . . .
28.4(27) . . .
30.0(30) . . .
36.0(33) . . .
31.2(31) . . .
34.4(32) . . .
38.5(33) . . .
31.4(29) . . .
40.6(35) . . .
33.0(31) . . .
33.0(30) . . .
36.4(31) . . .
30.6(29) . . .
41(4) . . .
32.9(31) . . .
35.7(32) . . .
31.3(29) . . .
35.3(32) . . .
37.9(34) . . .
42.1(35) . . .
33.2(30) . . .
23.5(26) . . .
31.3(31) . . .
33.7(32) . . .
35.9(32) . . .
36.8(31) . . .
38.9(33) . . .
30.0(28) . . .
34.0(32) . . .
22.9(26) . . .
37.5(33) . . .
40.8(33) . . .
31.4(31) . . .
26.7(27) . . .
37.3(32) . . .
28.4(28) . . .
36.1(31) . . .
27.8(27) . . .
31.5(33) . . .
31.5(31) . . .
31.4(30) . . .
40.6(33) . . .
30.2(29) . . .
31.6(32) . . .
31.0(30) . . .
35.2(31) . . .
36.8(32) . . .
38.0(34) . . .
29.2(31) . . .
27.0(28) . . .
30.0(29) . . .
36.7(32) . . .
32.2(29) . . .
32.5(31) . . .
39.9(35) . . .
28.7(28) . . .
30.2(28) . . .
36.5(33) . . .
36.2(32) . . .
30.0(29) . . .
31.8(29) . . .
34.4(32) . . .
31.1(31) . . .
21.0(25) . . .
35.0(33) . . .
30.9(30) . . .
32.7(32) . . .
31.1(31) . . .
32.6(30) . . .
27.5(28) . . .
30.9(29) . . .
39(4) . . .
34.9(32) . . .
36.5(32) . . .
33.1(29) . . .
33.7(30) . . .
32.5(30) . . .
29.3(29) . . .
30.6(29) . . .
29.1(28) . . .
30.0(29) . . .
33.7(32) . . .
33.1(31) . . .
39.1(33) . . .
30.4(31) . . .
34.9(31) . . .
36.6(32) . . .
31.8(30) . . .
36.2(34) . . .
31.8(30) . . .
41.0(33) . . .
32.1(31) . . .
30.1(32) . . .
29.3(30) . . .
47(4) . . .
41.5(33) . . .
30.2(30) . . .
28.2(29) . . .
33.2(31) . . .
28.2(28) . . .
29.8(29) . . .
33.8(32) . . .
25.4(27) . . .
28.6(33) . . .
31.0(29) . . .
40.7(34) . . .
35.7(33) . . .
30.9(29) . . .
29.1(28) . . .
36.0(32) . . .
29.4(28) . . .
25.3(28) . . .
33.5(32) . . .
39.5(34) . . .
30.4(29) . . .
32.9(30) . . .
30.4(29) . . .
33.4(31) . . .
36.1(33) . . .
29.4(29) . . .
41.1(34) . . .
38.4(35) . . .
25.1(28) . . .
18.4(22) . . .
31.6(29) . . .
34.3(31) . . .
30.1(30) . . .
38.5(35) . . .
34.6(32) . . .
37.5(32) . . .
43(4) . . .
26.9(29) . . .
26.8(27) . . .
41.1(33) . . .
38.1(33) . . .
28.2(30) . . .
25.5(29) . . .
37.0(34) . . .
33.7(31) . . .
29.8(28) . . .
29.5(29) . . .
33.5(33) . . .
33.0(31) . . .
31.5(29) . . .
44(4) . . .
31.0(31) . . .
33.3(33) . . .
31.9(30) . . .
37.1(32) . . .
26.4(27) . . .
33.3(31) . . .
31.4(32) . . .
29.1(29) . . .
34.0(31) . . .
34.8(31) . . .
36.1(32) . . .
39.4(34) . . .
39.3(34) . . .
31.2(29) . . .
29.9(28) . . .
41(4) . . .
32.8(30) . . .
36.7(33) . . .
34.7(31) . . .
30.9(29) . . .
33.4(31) . . .
29.6(31) . . .
29.6(29) . . .
36.5(32) . . .
42(4) . . .
31.1(30) . . .
28.5(31) . . .
31.1(30) . . .
32.7(30) . . .
40.4(34) . . .
35.6(32) . . .
31.8(30) . . .
39.0(33) . . .
38.6(33) . . .
38.2(33) . . .
33.5(31) . . .
45(4) . . .
41.0(33) . . .
41.5(34) . . .
31.3(30) . . .
30.3(29) . . .
31.6(29) . . .
36.6(32) . . .
32.1(31) . . .
33.2(32) . . .
39(4) . . .
34.9(31) . . .
31.5(29) . . .
31.4(30) . . .
41(4) . . .
31.9(30) . . .
40(4) . . .
37.9(32) . . .
40.5(33) . . .
28.9(28) . . .
35.4(34) . . .
37.3(33) . . .
34.0(30) . . .
34.2(31) . . .
38.3(33) . . .
39(4) . . .
33.3(32) . . .
31.5(29) . . .
38.7(33) . . .
35.6(33) . . .
35.6(34) . . .
43(4) . . .
33.2(30) . . .
36.0(31) . . .
35.6(32) . . .
36.9(34) . . .
36.7(32) . . .
42.5(35) . . .
34.1(31) . . .
27.0(28) . . .
32.2(32) . . .
38.8(32) . . .
32.5(30) . . .
36.4(32) . . .
27.0(29) . . .
33.2(32) . . .
30.6(30) . . .
37.7(33) . . .
32.4(30) . . .
29.5(28) . . .
32.0(29) . . .
35.4(32) . . .
32.8(30) . . .
37(4) . . .
35.7(33) . . .
38.4(33) . . .
36.6(32) . . .
39.7(33) . . .
40.1(35) . . .
35.0(32) . . .
35.2(31) . . .
30.4(28) . . .
29.0(28) . . .
30.1(30) . . .
30.4(32) . . .
26.2(28) . . .
38.4(32) . . .
32.9(30) . . .
30.5(29) . . .
35.9(34) . . .
41.4(35) . . .
39.6(33) . . .
35.9(32) . . .
40(4) . . .
30.7(32) . . .
32.8(32) . . .
40.2(33) . . .
35.1(31) . . .
26.6(27) . . .
39.7(34) . . .
41.0(35) . . .
43.4(34) . . .
41.1(34) . . .
32.8(32) . . .
44(4) . . .
32.2(32) . . .
31.8(29) . . .
29.6(29) . . .
34.3(32) . . .
32.1(31) . . .
29.0(28) . . .
32.2(29) . . .
31.1(32) . . .
28.1(30) . . .
37.2(34) . . .
36.5(34) . . .
31.2(29) . . .
35.2(33) . . .
35.1(34) . . .
28.3(29) . . .
31.2(30) . . .
38.9(32) . . .
30.7(29) . . .
31.5(30) . . .
36.9(33) . . .
38.1(32) . . .
33.5(30) . . .
40(4) . . .
40.0(35) . . .
34.4(31) . . .
26.2(27) . . .
38.8(33) . . .
32.0(29) . . .
27.5(28) . . .
34.7(32) . . .
30.0(29) . . .
33.5(30) . . .
29.8(29) . . .
31.1(30) . . .
27.6(27) . . .
30.1(29) . . .
38.7(33) . . .
40.3(33) . . .
44(4) . . .
38.0(32) . . .
38.6(34) . . .
39.0(32) . . .
28.8(30) . . .
35.3(33) . . .
38.7(35) . . .
24.1(26) . . .
29.9(31) . . .
27.4(30) . . .
28.6(31) . . .
36.0(34) . . .
28.7(28) . . .
38.6(32) . . .
39.7(34) . . .
42(4) . . .
34.9(32) . . .
41.5(34) . . .
29.5(29) . . .
32.9(31) . . .
28.3(29) . . .
38.4(33) . . .
37.6(32) . . .
32.0(30) . . .
31.4(30) . . .
30.6(28) . . .
29.3(28) . . .
32.8(30) . . .
30.8(30) . . .
38.6(35) . . .
28.3(28) . . .
36.3(32) . . .
33.9(31) . . .
37.7(34) . . .
31.4(30) . . .
36.2(33) . . .
28.3(28) . . .
31.3(29) . . .
37.1(33) . . .
41.4(34) . . .
40.8(34) . . .
44.0(35) . . .
36.9(32) . . .
36.1(34) . . .
31.6(33) . . .
35.5(32) . . .
34.5(30) . . .
38.3(32) . . .
36.0(32) . . .
38.9(35) . . .
31.3(29) . . .
35.4(31) . . .
32.4(31) . . .
34.3(33) . . .
26.9(27) . . .
36.9(33) . . .
25.5(27) . . .
35.4(32) . . .
31.7(31) . . .
28.9(28) . . .
33.0(30) . . .
26.9(27) . . .
30.3(28) . . .
41.3(34) . . .
35.6(31) . . .
36.5(34) . . .
37.4(32) . . .
33.5(30) . . .
43(4) . . .
39.8(34) . . .
28.5(28) . . .
30.5(28) . . .
35.6(31) . . .
39.6(35) . . .
31.6(32) . . .
30.0(31) . . .
39.5(33) . . .
32.7(31) . . .
37.8(33) . . .
43(4) . . .
38.8(33) . . .
32.0(30) . . .
36.2(32) . . .
30.4(30) . . .
27.6(28) . . .
29.4(28) . . .
28.1(28) . . .
32.5(30) . . .
44(4) . . .
27.9(27) . . .
36.6(31) . . .
40.7(34) . . .
31.1(30) . . .
35.9(34) . . .
41(4) . . .
30.6(29) . . .
42.0(35) . . .
34.2(30) . . .
29.7(31) . . .
32.2(32) . . .
32.3(29) . . .
36.0(33) . . .
30.6(31) . . .
28.0(30) . . .
31.7(31) . . .
34.2(31) . . .
27.4(27) . . .
36.1(33) . . .
34.0(30) . . .
34.9(31) . . .
34.1(31) . . .
30.3(29) . . .
31.6(31) . . .
34.8(31) . . .
35.5(32) . . .
33.9(31) . . .
35.4(32) . . .
36.5(34) . . .
33.4(32) . . .
37.4(33) . . .
28.6(28) . . .
27.8(29) . . .
30.0(29) . . .
42.3(35) . . .
35.4(30) . . .
36.8(32) . . .
35.0(33) . . .
30.7(32) . . .
31.0(32) . . .
35.5(32) . . .
32.7(30) . . .
35.0(34) . . .
29.9(30) . . .
35.2(32) . . .
35.5(32) . . .
43.1(34) . . .
27.4(27) . . .
37.0(33) . . .
43(4) . . .
35.3(32) . . .
35.2(31) . . .
25.8(26) . . .
29.8(31) . . .
26.5(29) . . .
36.0(32) . . .
37.7(34) . . .
37.8(33) . . .
32.9(30) . . .
34.2(31) . . .
41.8(35) . . .
34.7(30) . . .
32.8(32) . . .
27.8(30) . . .
30.0(30) . . .
32.2(30) . . .
39.2(33) . . .
41(4) . . .
38.9(34) . . .
31.6(29) . . .
31.3(29) . . .
35.1(30) . . .
38.3(34) . . .
29.3(29) . . .
39.0(34) . . .
35.6(31) . . .
30.3(30) . . .
39.3(34) . . .
40(4) . . .
38.1(35) . . .
27.4(27) . . .
41(4) . . .
41(4) . . .
26.9(29) . . .
24.0(26) . . .
34.1(30) . . .
31.4(30) . . .
35.3(33) . . .
27.6(28) . . .
24.3(26) . . .
33.1(30) . . .
24.9(26) . . .
35.2(32) . . .
32.7(30) . . .
37.7(33) . . .
25.9(26) . . .
30.5(32) . . .
28.0(30) . . .
32.8(33) . . .
35.0(32) . . .
33.3(31) . . .
32.5(30) . . .
33.7(32) . . .
36.8(32) . . .
30.9(29) . . .
30.6(29) . . .
30.1(30) . . .
30.3(30) . . .
35.5(31) . . .
29.1(28) . . .
37.3(32) . . .
40.0(35) . . .
30.9(30) . . .
33.0(30) . . .
28.2(28) . . .
35.5(32) . . .
37.7(35) . . .
24.0(26) . . .
34.6(33) . . .
31.4(29) . . .
30.4(28) . . .
31.9(29) . . .
38.4(35) . . .
34.8(32) . . .
39.8(33) . . .
32.3(32) . . .
41(4) . . .
40.3(35) . . .
39.3(33) . . .
33.7(31) . . .
27.8(28) . . .
34.1(33) . . .
28.5(28) . . .
34.6(31) . . .
29.3(28) . . .
34.4(33) . . .
39.8(35) . . .
33.7(31) . . .
36.2(32) . . .
37.6(32) . . .
36.6(32) . . .
40(4) . . .
32.0(31) . . .
31.9(31) . . .
36.6(31) . . .
28.8(28) . . .
43(4) . . .
35.3(32) . . .
32.3(29) . . .
39.6(33) . . .
38.4(33) . . .
28.3(28) . . .
37.6(32) . . .
38.2(32) . . .
34.5(30) . . .
34.3(31) . . .
43(4) . . .
32.3(31) . . .
32.4(31) . . .
37.3(32) . . .
37.9(33) . . .
33.6(30) . . .
37.1(32) . . .
32.7(30) . . .
29.8(29) . . .
35.0(32) . . .
36(4) . . .
43(4) . . .
37.7(32) . . .
34.5(31) . . .
32.5(29) . . .
35.1(33) . . .
27.0(27) . . .
32.3(30) . . .
31.9(30) . . .
44(4) . . .
36.8(33) . . .
38.3(34) . . .
32.1(29) . . .
32.6(33) . . .
35.1(34) . . .
25.0(26) . . .
32.7(30) . . .
41.6(34) . . .
40.0(34) . . .
28.7(29) . . .
29.0(29) . . .
33.8(31) . . .
30.1(29) . . .
33.4(31) . . .
38.6(34) . . .
33.4(32) . . .
36.4(32) . . .
29.9(29) . . .
35.9(32) . . .
36.4(34) . . .
27.1(27) . . .
38.3(32) . . .
36.9(32) . . .
45(4) . . .
35.5(35) . . .
30.6(30) . . .
34.5(30) . . .
32.8(31) . . .
36.5(32) . . .
40.8(34) . . .
29.5(28) . . .
33.5(30) . . .
37.3(32) . . .
30.5(29) . . .
32.7(34) . . .
26.6(27) . . .
32.4(29) . . .
33.8(31) . . .
41(4) . . .
26.9(30) . . .
27.6(29) . . .
30.4(29) . . .
39.2(32) . . .
41(4) . . .
31.2(29) . . .
33.2(32) . . .
35.3(31) . . .
30.5(30) . . .
26.3(27) . . .
31.4(30) . . .
35.1(33) . . .
25.0(26) . . .
29.0(29) . . .
30.9(30) . . .
34.5(31) . . .
29.3(29) . . .
41.5(33) . . .
33.1(31) . . .
32.5(32) . . .
34.4(31) . . .
35.2(32) . . .
33.8(30) . . .
33.8(33) . . .
30.7(30) . . .
34.0(34) . . .
42.7(34) . . .
39.2(32) . . .
26.8(27) . . .
30.5(29) . . .
39.7(34) . . .
31.6(30) . . .
39.6(33) . . .
35.0(32) . . .
38(4) . . .
33.6(34) . . .
38.3(32) . . .
26.5(27) . . .
25.6(28) . . .
33.0(33) . . .
28.8(27) . . .
27.3(28) . . .
27.7(28) . . .
38.9(34) . . .
37.4(34) . . .
40(4) . . .
40.5(33) . . .
36.2(32) . . .
34.4(32) . . .
28.9(29) . . .
38.9(34) . . .
19.8(23) . . .
33.4(31) . . .
42.1(35) . . .
32.6(31) . . .
36.3(32) . . .
33.6(31) . . .
28.7(28) . . .
27.4(26) . . .
31.6(30) . . .
35.1(32) . . .
33.0(31) . . .
35.4(31) . . .
30.8(30) . . .
31.2(31) . . .
28.0(29) . . .
39.1(33) . . .
40(4) . . .
26.0(29) . . .
27.8(29) . . .
28.2(29) . . .
40.5(33) . . .
37.4(33) . . .
33.0(30) . . .
29.5(28) . . .
37.1(33) . . .
36.2(32) . . .
38.0(34) . . .
30.0(29) . . .
32.6(31) . . .
36.6(32) . . .
36.6(31) . . .
27.7(28) . . .
24.9(28) . . .
33.3(32) . . .
36.5(33) . . .
39.5(32) . . .
32.3(30) . . .
38.5(34) . . .
39.5(34) . . .
30.9(29) . . .
34.9(31) . . .
38.3(33) . . .
26.6(29) . . .
35.3(34) . . .
28.7(28) . . .
31.1(29) . . .
36.8(32) . . .
43(4) . . .
35.3(32) . . .
37.5(32) . . .
31.2(30) . . .
34.8(33) . . .
27.5(30) . . .
38.5(35) . . .
39.2(32) . . .
41.5(34) . . .
35.5(32) . . .
37.7(35) . . .
34.5(31) . . .
36.1(31) . . .
37.0(33) . . .
43(4) . . .
35.0(32) . . .
34.7(32) . . .
31.7(29) . . .
25.1(26) . . .
33.0(32) . . .
28.6(28) . . .
31.5(30) . . .
25.5(27) . . .
34.8(31) . . .
37.0(33) . . .
33.8(30) . . .
34.6(31) . . .
37.0(32) . . .
39.3(34) . . .
38.8(35) . . .
32.4(31) . . .
38.9(33) . . .
30.5(29) . . .
34.9(32) . . .
29.4(30) . . .
27.4(27) . . .
32.0(30) . . .
45.3(35) . . .
32.6(33) . . .
21.4(26) . . .
31.4(31) . . .
46(4) . . .
42.1(34) . . .
34.5(30) . . .
40(4) . . .
33.0(31) . . .
32.7(30) . . .
39.9(34) . . .
40.2(35) . . .
35.5(34) . . .
41.9(35) . . .
33.4(30) . . .
36.6(31) . . .
35.5(32) . . .
43(4) . . .
34.5(30) . . .
34.4(31) . . .
35.2(32) . . .
42(4) . . .
31.6(31) . . .
23.0(25) . . .
35.3(31) . . .
30.3(28) . . .
36.9(33) . . .
34.1(32) . . .
35.5(32) . . .
32.7(30) . . .
37.7(32) . . .
40.1(33) . . .
24.8(26) . . .
30.8(30) . . .
34.7(31) . . .
30.5(29) . . .
38.5(34) . . .
32.1(30) . . .
22.4(25) . . .
42.1(34) . . .
30.3(29) . . .
34.2(34) . . .
31.7(30) . . .
31.4(29) . . .
28.6(28) . . .
29.2(28) . . .
32.7(30) . . .
38.6(32) . . .
36.0(32) . . .
33.0(30) . . .
26.1(29) . . .
37.5(33) . . .
38.1(33) . . .
35.5(32) . . .
37.3(31) . . .
28.3(28) . . .
32.1(32) . . .
27.0(29) . . .
34.2(31) . . .
35.6(32) . . .
34.5(30) . . .
33.2(31) . . .
36.8(32) . . .
34.3(30) . . .
40.5(35) . . .
25.0(26) . . .
34.4(33) . . .
31.5(29) . . .
29.5(28) . . .
33.5(30) . . .
34.9(31) . . .
38.9(35) . . .
42(4) . . .
48(4) . . .
39.1(34) . . .
38(4) . . .
41.1(35) . . .
39.0(34) . . .
37.9(32) . . .
36.7(32) . . .
34.0(31) . . .
32.3(31) . . .
28.6(29) . . .
28.1(29) . . .
34.5(31) . . .
26.8(28) . . .
23.3(25) . . .
27.6(29) . . .
35.9(31) . . .
30.4(30) . . .
31.5(31) . . .
36.0(33) . . .
46(4) . . .
28.5(28) . . .
36.6(35) . . .
loop_
_refln_index_h
_refln_index_k
_refln_index_l
_refln_observed_status
_refln_F_squared_meas
_refln_F_squared_calc
_refln_phase_calc
_refln_d_spacing
_gsas_i100_meas
0 2 0 o 1112.243 1375.757 180.00 8.37286 4.69
0 0 2 o 0.000 17.156 180.00 6.40494 0.00
1 0 1 o 13481.630 14040.004 0.00 5.88748 56.24
0 2 2 o 30088.625 30607.789 0.00 5.08718 93.77
0 3 1 o 1165.080 1266.462 180.00 5.11719 3.67
1 2 1 o 1661.806 1742.668 0.00 4.81605 9.28
1 1 2 o 4076.584 4202.087 0.00 4.44124 19.38
0 1 3 o 493.745 46.008 0.00 4.13757 1.02
0 4 0 o 3063.693 883.512 0.00 4.18643 3.24
1 0 3 o 253.611 226.228 180.00 3.58973 0.39
1 3 2 o 3666.125 3657.646 0.00 3.55274 11.17
0 0 4 o 196.661 245.880 180.00 3.20247 0.12
0 4 2 o 2.735 6.888 0.00 3.50427 0.00
0 3 3 o 11234.136 11402.292 0.00 3.39145 15.60
1 4 1 o 836.129 890.105 180.00 3.41182 2.35
1 2 3 o 900.792 1191.831 0.00 3.29929 2.37
0 5 1 o 42.117 81.233 180.00 3.24023 0.05
2 0 0 o 1995.352 2173.888 180.00 3.31456 1.32
0 2 4 o 1167.007 1993.022 0.00 2.99114 1.26
2 1 1 o 918.906 990.868 180.00 3.15154 2.21
2 2 0 o 145.992 184.140 0.00 3.08187 0.17
1 1 4 o 70.691 35.888 0.00 2.84179 0.14
2 0 2 o 156.090 405.993 0.00 2.94374 0.16
0 6 0 o 1410.020 1649.347 0.00 2.79095 0.66
2 3 1 o 799.306 862.689 0.00 2.78196 1.50
2 2 2 o 2312.368 2292.568 180.00 2.77710 4.32
0 1 5 o 1923.266 2041.643 180.00 2.53251 1.49
1 4 3 o 5213.787 5277.680 0.00 2.72509 9.37
1 5 2 o 3177.392 2953.963 180.00 2.70880 5.64
1 3 4 o 69.866 88.405 0.00 2.56195 0.11
2 1 3 o 1494.350 1358.865 0.00 2.58686 2.42
2 4 0 o 1729.136 1713.610 180.00 2.59868 1.41
0 5 3 o 596.269 581.046 180.00 2.63524 0.50
0 4 4 o 10001.547 11704.502 0.00 2.54359 7.84
0 6 2 o 119.216 169.230 0.00 2.55859 0.09
1 6 1 o 794.297 829.527 0.00 2.52193 1.22
1 0 5 o 482.593 365.467 180.00 2.38972 0.33
1 2 5 o 549.523 457.387 0.00 2.29795 0.70
0 3 5 o 137.703 218.283 0.00 2.32843 0.09
0 7 1 o 281.017 327.630 0.00 2.35159 0.19
2 0 4 o 2572.023 2299.392 180.00 2.30310 1.66
2 3 3 o 96.858 156.719 180.00 2.37047 0.13
2 4 2 o 53.138 56.169 180.00 2.40802 0.07
0 0 6 o 4041.214 3595.643 0.00 2.13498 1.12
2 5 1 o 1.170 1.631 180.00 2.31702 0.00
2 2 4 o 61.439 44.770 0.00 2.22062 0.07
0 2 6 o 239.096 176.678 180.00 2.06878 0.12
1 5 4 o 5548.085 5600.315 0.00 2.18523 6.44
1 6 3 o 5003.076 4813.251 180.00 2.20336 5.90
1 1 6 o 989.043 799.056 180.00 2.01739 0.98
0 8 0 o 17.826 10.865 180.00 2.09321 0.00
2 6 0 o 1477.749 1327.520 180.00 2.13491 0.82
1 7 2 o 2920.063 2718.223 0.00 2.12300 3.20
1 4 5 o 12.601 10.578 180.00 2.07540 0.01
3 0 1 o 3149.066 2776.010 180.00 2.17755 1.81
2 1 5 o 487.709 358.456 180.00 2.01235 0.48
0 6 4 o 9879.425 7844.065 180.00 2.10405 5.32
0 7 3 o 7558.577 6193.108 0.00 2.08703 4.01
0 5 5 o 22134.100 21478.756 0.00 2.03487 11.16
3 2 1 o 47.400 50.922 0.00 2.10744 0.05
3 1 2 o 3203.267 3019.989 180.00 2.07282 3.35
2 4 4 o 1569.770 1427.893 180.00 2.01790 1.56
2 5 3 o 518.353 359.523 0.00 2.06275 0.54
1 8 1 o 1054.391 789.667 180.00 1.97227 1.00
2 6 2 o 582.641 511.768 180.00 2.02536 0.58
0 8 2 o 3724.368 2547.592 180.00 1.98966 1.80
1 3 6 o 733.231 596.926 0.00 1.90957 0.65
0 4 6 o 2118.080 1729.058 180.00 1.90193 0.93
0 1 7 o 368.956 514.553 0.00 1.81915 0.15
3 0 3 o 3027.470 2742.123 0.00 1.96249 1.42
2 3 5 o 1265.744 1007.699 0.00 1.90530 1.12
2 7 1 o 309.620 270.507 180.00 1.91793 0.28
3 3 2 o 1245.427 689.212 0.00 1.95639 1.16
3 2 3 o 5086.035 4225.577 180.00 1.91071 4.53
3 4 1 o 1000.272 459.206 180.00 1.93184 0.91
2 0 6 o 1.287 1.917 180.00 1.79487 0.00
1 0 7 o 1070.216 1078.821 0.00 1.76400 0.41
0 9 1 o 3502.439 3359.471 0.00 1.84131 1.45
0 3 7 o 1261.969 1433.252 0.00 1.73892 0.47
1 2 7 o 639.969 687.653 180.00 1.72611 0.47
2 2 6 o 1568.047 1483.292 180.00 1.75500 1.18
3 1 4 o 3075.276 3071.755 0.00 1.80813 2.46
1 6 5 o 257.734 348.566 0.00 1.81522 0.21
1 7 4 o 415.554 409.206 180.00 1.84115 0.34
1 8 3 o 131.194 126.425 0.00 1.80825 0.10
2 8 0 o 29.648 28.715 0.00 1.76984 0.01
1 5 6 o 1243.539 1486.477 0.00 1.73737 0.92
1 9 2 o 14.141 15.438 0.00 1.72520 0.01
3 4 3 o 344.989 316.516 180.00 1.77694 0.27
2 6 4 o 1490.422 1350.596 0.00 1.77637 1.15
2 5 5 o 2205.595 2661.851 180.00 1.73415 1.62
0 0 8 o 84.172 107.808 0.00 1.60123 0.01
2 7 3 o 1583.734 1518.021 180.00 1.76609 1.21
3 5 2 o 466.529 440.291 0.00 1.77240 0.36
0 7 5 o 1713.290 1381.169 180.00 1.74850 0.64
3 3 4 o 192.416 238.159 180.00 1.72929 0.14
0 6 6 o 4960.857 6303.081 0.00 1.69573 1.75
0 8 4 o 976.543 914.631 0.00 1.75213 0.37
0 10 0 o 11488.498 11825.101 180.00 1.67457 1.97
2 8 2 o 4.933 5.874 0.00 1.70591 0.00
0 9 3 o 97.933 116.781 180.00 1.70573 0.03
3 6 1 o 1917.958 1535.103 180.00 1.71682 1.38
1 4 7 o 332.482 335.359 180.00 1.62559 0.22
3 0 5 o 2402.638 2502.570 180.00 1.67330 0.82
2 4 6 o 1946.578 1917.617 0.00 1.64964 1.30
2 1 7 o 290.689 362.020 0.00 1.59475 0.18
0 2 8 o 878.450 676.588 180.00 1.57273 0.27
1 1 8 o 921.529 765.004 0.00 1.54979 0.54
0 5 7 o 7.638 9.933 0.00 1.60589 0.00
3 2 5 o 23.787 40.049 0.00 1.64085 0.02
1 10 1 o 427.953 620.682 180.00 1.61069 0.27
0 10 2 o 363.087 476.496 0.00 1.62011 0.12
2 9 1 o 40.043 55.244 180.00 1.60962 0.03
4 0 0 o 1929.754 2052.855 0.00 1.65728 0.33
2 3 7 o 2450.245 2072.465 180.00 1.53987 1.43
1 3 8 o 259.976 175.486 0.00 1.49928 0.14
4 1 1 o 1097.531 842.701 0.00 1.63572 0.72
0 4 8 o 1.877 1.319 180.00 1.49557 0.00
4 2 0 o 373.121 233.744 180.00 1.62574 0.12
3 5 4 o 301.654 481.459 180.00 1.59830 0.19
3 1 6 o 5.976 2.751 180.00 1.52898 0.00
3 6 3 o 505.268 661.699 0.00 1.60535 0.32
4 0 2 o 147.544 138.219 180.00 1.60444 0.05
3 4 5 o 53.781 45.466 180.00 1.55378 0.03
3 7 2 o 2032.405 1907.687 180.00 1.57346 1.24
0 11 1 o 6224.992 5483.907 180.00 1.51170 1.75
1 7 6 o 274.287 262.877 0.00 1.54879 0.16
4 2 2 o 1521.038 1595.034 0.00 1.57577 0.93
1 8 5 o 418.052 429.738 180.00 1.57458 0.25
0 1 9 o 1933.590 2417.948 0.00 1.41821 0.48
1 9 4 o 281.664 226.782 0.00 1.56343 0.17
4 3 1 o 834.326 787.020 180.00 1.57666 0.51
1 6 7 o 1235.663 879.065 0.00 1.49113 0.68
2 7 5 o 2012.519 1992.492 0.00 1.54651 1.18
2 0 8 o 1269.521 1111.134 180.00 1.44181 0.33
2 6 6 o 3122.635 3011.213 180.00 1.50963 1.75
2 10 0 o 319.226 237.597 0.00 1.49465 0.09
4 1 3 o 569.595 518.474 180.00 1.53846 0.33
1 10 3 o 13.961 9.411 180.00 1.51757 0.01
2 8 4 o 2066.457 2243.271 180.00 1.54902 1.22
3 8 1 o 89.932 91.243 0.00 1.50906 0.05
2 9 3 o 327.435 233.160 0.00 1.51668 0.19
4 4 0 o 1441.037 1643.272 0.00 1.54093 0.42
1 0 9 o 214.328 447.024 180.00 1.39160 0.05
3 3 6 o 6.498 3.328 180.00 1.48041 0.00
2 2 8 o 632.583 723.403 0.00 1.42089 0.32
0 8 6 o 1495.130 1197.702 180.00 1.49467 0.41
2 5 7 o 2492.784 2052.289 0.00 1.44520 1.29
0 7 7 o 4409.718 4381.696 0.00 1.45348 1.15
0 10 4 o 211.113 117.140 180.00 1.48394 0.06
1 5 8 o 85.697 143.332 180.00 1.41149 0.04
0 3 9 o 0.000 26.912 0.00 1.37919 0.00
1 11 2 o 322.825 262.979 180.00 1.44544 0.17
2 10 2 o 276.457 273.029 180.00 1.45554 0.14
4 4 2 o 1996.444 1291.177 180.00 1.49818 1.10
1 2 9 o 25.913 56.237 180.00 1.37277 0.01
4 3 3 o 2558.872 1960.810 0.00 1.48901 1.40
4 0 4 o 1212.690 1091.585 0.00 1.47187 0.32
0 9 5 o 628.213 768.031 0.00 1.50549 0.18
3 0 7 o 739.969 1364.708 180.00 1.40941 0.18
4 5 1 o 2526.979 2462.499 0.00 1.47549 1.36
0 11 3 o 339.823 358.012 0.00 1.43393 0.09
4 2 4 o 917.839 716.345 180.00 1.44964 0.48
3 2 7 o 22.691 43.170 0.00 1.38986 0.01
0 6 8 o 0.003 0.006 0.00 1.38889 0.00
0 12 0 o 1363.903 2862.154 0.00 1.39548 0.16
3 6 5 o 16.396 17.170 180.00 1.43513 0.01
2 4 8 o 1823.858 1880.832 180.00 1.36322 0.84
3 7 4 o 70.649 54.733 0.00 1.44784 0.04
3 8 3 o 514.048 592.947 180.00 1.43168 0.26
4 6 0 o 3943.816 3795.271 180.00 1.42499 0.99
3 5 6 o 183.417 365.629 180.00 1.39572 0.09
1 4 9 o 56.300 53.315 0.00 1.32056 0.02
4 1 5 o 514.173 1252.480 0.00 1.38674 0.24
2 11 1 o 26.214 441.867 0.00 1.37541 0.01
0 12 2 o 4214.243 4296.906 180.00 1.36349 0.97
0 0 10 o 4317.557 5619.128 180.00 1.28099 0.44
1 12 1 o 15.319 12.426 180.00 1.35786 0.01
3 9 2 o 12.812 19.830 180.00 1.38939 0.01
2 1 9 o 955.864 1333.296 180.00 1.30387 0.40
0 5 9 o 10.373 13.360 0.00 1.30993 0.00
0 2 10 o 368.258 362.757 0.00 1.26625 0.07
4 5 3 o 411.934 398.348 180.00 1.40291 0.20
4 4 4 o 526.981 694.637 0.00 1.38855 0.25
4 6 2 o 692.376 1154.230 0.00 1.39098 0.33
3 4 7 o 71.610 97.225 0.00 1.33575 0.03
1 1 10 o 105.789 79.563 0.00 1.25419 0.04
1 8 7 o 65.341 61.418 0.00 1.34889 0.03
2 8 6 o 2585.148 2507.286 0.00 1.36254 1.19
2 3 9 o 513.653 680.505 0.00 1.27335 0.21
4 3 5 o 154.524 122.155 180.00 1.35020 0.07
1 9 6 o 185.218 201.041 180.00 1.37232 0.09
2 7 7 o 2669.216 3012.327 180.00 1.33112 1.17
1 11 4 o 12.187 14.380 180.00 1.34625 0.01
2 10 4 o 1103.243 891.376 0.00 1.35440 0.50
1 7 8 o 556.339 834.063 0.00 1.30464 0.24
3 1 8 o 736.946 1448.506 180.00 1.29273 0.31
1 10 5 o 136.830 138.536 0.00 1.37139 0.06
2 9 5 o 2944.051 3082.261 180.00 1.37073 1.37
4 7 1 o 2998.437 2387.967 180.00 1.35467 1.37
3 10 1 o 156.969 167.691 0.00 1.32744 0.07
4 0 6 o 857.065 1288.525 180.00 1.30915 0.18
2 11 3 o 1266.696 917.275 180.00 1.31606 0.55
0 13 1 o 2188.775 2717.426 0.00 1.28167 0.45
2 6 8 o 1475.841 1850.887 0.00 1.28097 0.60
1 12 3 o 117.975 145.122 180.00 1.30066 0.05
2 12 0 o 354.349 564.933 180.00 1.28614 0.07
1 3 10 o 3.605 3.062 180.00 1.22696 0.00
3 3 8 o 16.289 15.070 180.00 1.26297 0.01
4 2 6 o 219.538 414.771 0.00 1.29343 0.09
0 4 10 o 3.941 3.449 180.00 1.22493 0.00
1 6 9 o 386.618 164.573 180.00 1.24538 0.15
0 9 7 o 4.008 6.498 180.00 1.30470 0.00
0 8 8 o 564.912 810.836 0.00 1.27179 0.11
0 11 5 o 246.199 424.704 0.00 1.30873 0.05
0 10 6 o 46.884 28.065 180.00 1.31762 0.01
3 7 6 o 25.297 71.440 0.00 1.29215 0.01
4 8 0 o 1282.249 1664.043 0.00 1.29934 0.27
5 0 1 o 2056.027 1987.019 0.00 1.31878 0.44
0 12 4 o 164.028 217.170 180.00 1.27930 0.03
3 8 5 o 17.613 40.487 180.00 1.30701 0.01
4 6 4 o 132.118 147.819 180.00 1.30192 0.06
3 9 4 o 68.340 73.775 180.00 1.30061 0.03
2 12 2 o 1204.955 1114.829 0.00 1.26097 0.48
4 7 3 o 413.408 621.324 0.00 1.29785 0.17
4 5 5 o 237.960 317.565 0.00 1.28502 0.10
2 5 9 o 1542.130 1438.488 180.00 1.21825 0.57
3 6 7 o 655.656 716.790 180.00 1.25810 0.26
3 10 3 o 187.976 265.820 180.00 1.27385 0.08
5 2 1 o 456.999 480.136 0.00 1.30272 0.19
5 1 2 o 331.436 426.737 0.00 1.29442 0.14
0 7 9 o 555.112 521.683 0.00 1.22319 0.10
1 13 2 o 79.088 23.826 180.00 1.24054 0.03
4 8 2 o 1193.847 1663.696 180.00 1.27340 0.48
0 13 3 o 1112.188 749.936 180.00 1.23324 0.21
4 4 6 o 36.264 28.896 180.00 1.24948 0.01
4 1 7 o 538.351 470.432 180.00 1.22511 0.20
5 0 3 o 13.489 12.087 0.00 1.26619 0.00
3 5 8 o 147.771 294.394 0.00 1.20915 0.05
5 3 2 o 460.626 501.612 0.00 1.26455 0.18
3 11 2 o 581.856 614.593 0.00 1.23029 0.22
5 4 1 o 7.363 12.331 180.00 1.25785 0.00
5 2 3 o 352.225 360.490 0.00 1.25196 0.14
4 9 1 o 1446.038 1306.320 0.00 1.23181 0.55
5 1 4 o 11.750 13.515 0.00 1.22173 0.00
2 9 7 o 111.607 94.299 0.00 1.21403 0.04
1 10 7 o 132.390 110.261 180.00 1.21449 0.05
2 11 5 o 28.749 31.557 180.00 1.21728 0.01
2 10 6 o 197.523 231.235 180.00 1.22442 0.07
1 11 6 o 98.120 94.552 0.00 1.21839 0.04
5 4 3 o 1117.194 1093.504 0.00 1.21197 0.41
5 5 2 o 447.980 316.536 180.00 1.21053 0.16
