#------------------------------------------------------------------------------
#$Date: 2019-10-29 23:19:51 +0200 (Tue, 29 Oct 2019) $
#$Revision: 220414 $
#$URL: file:///home/coder/svn-repositories/cod/cif/4/00/29/4002990.cif $
#------------------------------------------------------------------------------
#
# This file is available in the Crystallography Open Database (COD),
# http://www.crystallography.net/
#
# All data on this site have been placed in the public domain by the
# contributors.
#
data_4002990
loop_
_publ_author_name
'Zhou, Laidong'
'Assoud, Abdeljalil'
'Shyamsunder, Abhinandan'
'Huq, Ashfia'
'Zhang, Qiang'
'Hartmann, Pascal'
'Kulisch, Joern'
'Nazar, Linda F.'
_publ_section_title
;
 An Entropically Stabilized Fast-Ion Conductor: Li3.25[Si0.25P0.75]S4
;
_journal_issue                   19
_journal_name_full               'Chemistry of Materials'
_journal_page_first              7801
_journal_paper_doi               10.1021/acs.chemmater.9b00657
_journal_volume                  31
_journal_year                    2019
_chemical_formula_sum            'Li3.66 P0.33 S4 Si0.67'
_chemical_formula_weight         182.68
_space_group_crystal_system      orthorhombic
_space_group_IT_number           62
_space_group_name_Hall           '-P 2ac 2n'
_space_group_name_H-M_alt        'P n m a'
_symmetry_space_group_name_Hall  '-P 2ac 2n'
_symmetry_space_group_name_H-M   'P n m a'
_audit_creation_method           SHELXL-2016
_cell_angle_alpha                90
_cell_angle_beta                 90
_cell_angle_gamma                90
_cell_formula_units_Z            4
_cell_length_a                   13.6750(18)
_cell_length_b                   7.7946(10)
_cell_length_c                   6.1411(9)
_cell_measurement_reflns_used    536
_cell_measurement_temperature    280(2)
_cell_measurement_theta_max      30.0
_cell_measurement_theta_min      1.5
_cell_volume                     654.59(15)
_computing_cell_refinement       'SMART, 'Bruker APEX II'
_computing_data_collection       'Bruker kappa APEX II'
_computing_data_reduction        'SAINT, 'Bruker APEX II'
_computing_molecular_graphics    Diamond
_computing_structure_refinement  'SHELXL-2016/6 (Sheldrick, 2016)'
_computing_structure_solution    'SHELXT 2014/5 (Sheldrick, 2014)'
_diffrn_ambient_temperature      280(2)
_diffrn_measured_fraction_theta_full 1.000
_diffrn_measured_fraction_theta_max 1.000
_diffrn_measurement_device_type  'BRUKER kappa APEX II'
_diffrn_measurement_method       'Omega and phi scan'
_diffrn_radiation_type           MoK\a
_diffrn_radiation_wavelength     0.71073
_diffrn_reflns_av_R_equivalents  0.0283
_diffrn_reflns_av_unetI/netI     0.0232
_diffrn_reflns_Laue_measured_fraction_full 1.000
_diffrn_reflns_Laue_measured_fraction_max 1.000
_diffrn_reflns_limit_h_max       19
_diffrn_reflns_limit_h_min       -19
_diffrn_reflns_limit_k_max       9
_diffrn_reflns_limit_k_min       -10
_diffrn_reflns_limit_l_max       8
_diffrn_reflns_limit_l_min       -7
_diffrn_reflns_number            6445
_diffrn_reflns_point_group_measured_fraction_full 1.000
_diffrn_reflns_point_group_measured_fraction_max 1.000
_diffrn_reflns_theta_full        25.242
_diffrn_reflns_theta_max         29.993
_diffrn_reflns_theta_min         2.979
_diffrn_source                   'fine-focus sealed tube'
_exptl_absorpt_coefficient_mu    1.515
_exptl_absorpt_correction_T_max  0.745985
_exptl_absorpt_correction_T_min  0.536630
_exptl_absorpt_correction_type   multi-scan
_exptl_absorpt_process_details   SADABS
_exptl_crystal_colour            Colourless
_exptl_crystal_density_diffrn    1.854
_exptl_crystal_description       Plate
_exptl_crystal_F_000             357
_exptl_crystal_size_max          0.090
_exptl_crystal_size_mid          0.060
_exptl_crystal_size_min          0.030
_refine_diff_density_max         2.714
_refine_diff_density_min         -0.532
_refine_diff_density_rms         0.196
_refine_ls_extinction_method     none
_refine_ls_goodness_of_fit_ref   1.099
_refine_ls_hydrogen_treatment    undef
_refine_ls_matrix_type           full
_refine_ls_number_parameters     69
_refine_ls_number_reflns         1015
_refine_ls_number_restraints     6
_refine_ls_restrained_S_all      1.099
_refine_ls_R_factor_all          0.0472
_refine_ls_R_factor_gt           0.0441
_refine_ls_shift/su_max          0.000
_refine_ls_shift/su_mean         0.000
_refine_ls_structure_factor_coef Fsqd
_refine_ls_weighting_details
'w=1/[\s^2^(Fo^2^)+(0.0745P)^2^+1.0217P] where P=(Fo^2^+2Fc^2^)/3'
_refine_ls_weighting_scheme      calc
_refine_ls_wR_factor_gt          0.1158
_refine_ls_wR_factor_ref         0.1185
_reflns_Friedel_coverage         0.000
_reflns_number_gt                930
_reflns_number_total             1015
_reflns_threshold_expression     'I > 2\s(I)'
_cod_data_source_file            Li3.67Si0.67P0.33S4.cif
_cod_data_source_block           Li3.67Si0.67P0.33S4
_cod_database_code               4002990
_shelx_space_group_comment
;
The symmetry employed for this shelxl refinement is uniquely defined
by the following loop, which should always be used as a source of
symmetry information in preference to the above space-group names.
They are only intended as comments.
;
_shelx_estimated_absorpt_t_min   0.876
_shelx_estimated_absorpt_t_max   0.956
_shelx_res_file
;
TITL LN9_0ma in Pnma
    LN9-free.res
    created by SHELXL-2016/6 at 10:23:09 on 24-May-2018
CELL 0.71073  13.67500   7.79460   6.14110  90.0000  90.0000  90.0000
ZERR    4.00   0.00180   0.00100   0.00090   0.0000   0.0000   0.0000
LATT  1
SYMM 1/2-X, -Y, 1/2+Z
SYMM -X, 1/2+Y, -Z
SYMM 1/2+X, 1/2-Y, 1/2-Z
SFAC LI P S SI
UNIT 14.6346 1.33336 16 2.66664
TEMP 6.850
SIZE 0.03 0.06 0.09
EXYZ P1 SI1
EADP P1 SI1
ACTA
L.S. 30
OMIT -3 60

BOND
LIST 4
FMAP 2
PLAN 10

WGHT    0.074500    1.021700
FVAR       0.14898
P1    2    0.087332    0.250000    0.152107    10.16667    0.01301    0.01319 =
         0.01253    0.00000    0.00050    0.00000
SI1   4    0.087332    0.250000    0.152107    10.33333    0.01301    0.01319 =
         0.01253    0.00000    0.00050    0.00000
S1    3    0.155334    0.026276    0.269711    11.00000    0.01444    0.01493 =
         0.02215    0.00276   -0.00097    0.00299
S2    3   -0.059545    0.250000    0.265892    10.50000    0.01186    0.01267 =
         0.01741    0.00000    0.00148    0.00000
S3    3    0.090915    0.250000   -0.191258    10.50000    0.02417    0.01672 =
         0.01505    0.00000    0.00218    0.00000
LI1A  1    0.326287    0.021030    0.350782     0.44135    0.01499    0.02103 =
         0.05908    0.01569    0.00336    0.00823
LI1B  1    0.327981    0.002374    0.186709     0.46097    0.02787    0.02699 =
         0.03175    0.01150   -0.00714    0.00080
LI2   1    0.000000    0.000000    0.500000     0.42688    0.06451    0.07690 =
         0.09519    0.05994    0.04556    0.03922
LI3A  1   -0.087669    0.250000   -0.138864     0.32163    0.02711    0.02402 =
         0.04028    0.00000   -0.00954    0.00000
LI3B  1   -0.070372    0.250000   -0.303722     0.17850    0.10415    0.04772 =
         0.09400    0.00000   -0.04584    0.00000
HKLF 4




REM  LN9_0ma in Pnma
REM R1 =  0.0441 for     930 Fo > 4sig(Fo)  and  0.0472 for all    1015 data
REM     69 parameters refined using      0 restraints

END

WGHT      0.0761      0.8951

REM Highest difference peak  2.714,  deepest hole -0.532,  1-sigma level  0.196
Q1    1   0.0883  0.2500  0.3494  10.50000  0.05    2.71
Q2    1   0.0907  0.2500 -0.3126  10.50000  0.05    2.61
Q3    1   0.1598  0.0211  0.2100  11.00000  0.05    1.29
Q4    1   0.1631  0.2500 -0.2619  10.50000  0.05    0.49
Q5    1   0.1559  0.2500  0.3671  10.50000  0.05    0.32
Q6    1   0.3390 -0.0056  0.2763  11.00000  0.05    0.32
Q7    1   0.3199  0.0178  0.1395  11.00000  0.05    0.29
Q8    1   0.0199  0.0216  0.5504  11.00000  0.05    0.24
Q9    1   0.0595  0.2500 -0.0412  10.50000  0.05    0.23
Q10   1  -0.0036  0.2500 -0.1462  10.50000  0.05    0.23
;
_shelx_res_checksum              54809
_shelx_hkl_file
;
   0   0  -1    0.44    0.04
   0   0   2  964.52   39.16
   0   0   2 1000.00   39.20
   0   0  -2  992.88   39.12
   0   0   3    0.12    0.09
   0   0  -3    0.27    0.08
   0   0   3    0.35    0.09
   0   0   4   79.75    3.21
   0   0  -4   77.25    3.16
   0   0   5    0.01    0.13
   0   0   5   -0.02    0.12
   0   0   6    2.61    0.29
   0   0   6    1.64    0.23
   0   0   7    0.30    0.20
   0   0   7    0.33    0.18
   0   0   8    1.50    0.29
   0  -1   0    0.03    0.02
   0   1   0    0.01    0.02
   0  -1  -1   84.83    3.38
   0   1   2    0.01    0.07
   0   1  -2    0.02    0.04
   0  -1  -2   -0.03    0.06
   0  -1   2    0.09    0.08
   0  -1   2    0.00    0.06
   0  -1   2   -0.05    0.06
   0  -1  -3   12.20    0.53
   0   1   3   12.72    0.55
   0  -1   3   11.88    0.55
   0   1  -3   11.89    0.51
   0  -1   3   11.57    0.55
   0  -1   3   11.91    0.57
   0   1   3   12.25    0.55
   0   1   4    0.09    0.11
   0  -1   4   -0.05    0.10
   0  -1   4    0.17    0.11
   0  -1   4    0.11    0.11
   0   1  -4    0.19    0.08
   0   1   4    0.14    0.11
   0  -1  -4    0.16    0.09
   0  -1   5    2.70    0.25
   0  -1  -5    2.88    0.23
   0   1   5    3.01    0.27
   0  -1   5    2.94    0.30
   0   1   5    2.88    0.26
   0   1   6    0.62    0.18
   0  -1   6    0.46    0.16
   0   1   6    0.24    0.17
   0  -1   6    0.18    0.19
   0  -1   7   12.40    0.70
   0   1   7   12.22    0.69
   0  -1   7   13.54    0.73
   0  -1   8    0.19    0.21
   0   1   8    0.65    0.23
   0  -1   8   -0.02    0.22
   0  -2   0   35.22    1.45
   0  -2   0   35.53    1.42
   0  -2   1    0.40    0.08
   0  -2   1    0.63    0.08
   0  -2   1    0.46    0.08
   0  -2  -1    0.59    0.07
   0  -2   2    1.85    0.15
   0   2   2    2.23    0.16
   0  -2   2    2.22    0.15
   0  -2  -2    2.05    0.15
   0  -2   2    2.22    0.15
   0  -2   2    2.33    0.19
   0  -2   3    0.38    0.08
   0   2   3    0.57    0.10
   0  -2   3    0.41    0.12
   0  -2   3    0.87    0.12
   0   2   3    0.47    0.10
   0  -2  -3    0.55    0.10
   0  -2   3    0.67    0.11
   0   2   4   38.63    1.60
   0  -2  -4   40.05    1.60
   0   2   4   37.53    1.61
   0  -2   4   38.20    1.61
   0  -2   4   37.41    1.62
   0  -2   4   39.15    1.65
   0  -2   5    0.07    0.15
   0  -2   5    0.02    0.14
   0   2   5    0.11    0.14
   0  -2   5    0.25    0.14
   0  -2  -5    0.19    0.12
   0  -2   6   31.97    1.46
   0   2   6   31.53    1.41
   0  -2   6   32.13    1.41
   0  -2   7   -0.17    0.18
   0   2   7   -0.09    0.16
   0  -2   7   -0.20    0.16
   0   2   8    4.26    0.41
   0  -2   8    4.05    0.46
   0  -3   0    0.02    0.06
   0  -3   0    0.01    0.07
   0  -3   0    0.01    0.04
   0  -3   1    4.26    0.24
   0  -3  -1    4.34    0.22
   0  -3   1    4.27    0.24
   0  -3   1    4.58    0.25
   0  -3  -1    4.27    0.23
   0   3   2    0.09    0.07
   0  -3   2   -0.06    0.07
   0  -3   2    0.16    0.08
   0  -3  -2   -0.02    0.06
   0  -3  -2    0.01    0.06
   0  -3   3    9.05    0.46
   0   3   3    8.24    0.42
   0  -3  -3    8.27    0.38
   0  -3  -3    8.34    0.41
   0  -3   3    8.59    0.41
   0  -3   3    8.26    0.43
   0  -3   4    0.14    0.09
   0   3   4    0.05    0.11
   0  -3   4   -0.12    0.11
   0  -3   4    0.06    0.13
   0  -3  -4    0.04    0.10
   0  -3   5    1.71    0.26
   0  -3   5    1.94    0.24
   0  -3  -5    2.02    0.21
   0   3   5    1.95    0.22
   0  -3   6    0.18    0.19
   0   3   6    0.22    0.16
   0  -3   6    0.25    0.18
   0   3   7    4.14    0.39
   0  -3   7    3.54    0.41
   0   3   8    0.28    0.21
   0  -3   8   -0.09    0.23
   0  -4   0  899.55   34.49
   0  -4   0  830.97   34.58
   0  -4   0  875.72   34.55
   0  -4   1    0.02    0.08
   0  -4   1    0.10    0.08
   0   4   1    0.17    0.07
   0   4  -1    0.21    0.06
   0  -4  -1    0.01    0.08
   0  -4   1    0.10    0.08
   0  -4  -1    0.24    0.07
   0  -4  -2  352.73   13.83
   0  -4   2  343.93   13.84
   0  -4   2  336.41   13.85
   0   4   2  348.09   13.82
   0  -4   2  349.86   13.86
   0  -4  -2  356.70   13.83
   0  -4  -3    0.02    0.09
   0  -4   3    0.33    0.12
   0  -4  -3    0.24    0.10
   0  -4   3    0.16    0.12
   0   4   3    0.20    0.10
   0  -4   3    0.35    0.12
   0   4   4   32.38    1.43
   0  -4   4   34.22    1.43
   0  -4   4   33.56    1.47
   0  -4   4   33.99    1.49
   0  -4  -4   34.79    1.44
   0   4   5    0.02    0.14
   0  -4   5    0.05    0.14
   0  -4   5    0.02    0.16
   0   4   6    0.70    0.20
   0  -4   6    0.47    0.20
   0  -4   6    0.41    0.22
   0   4   7    0.11    0.20
   0  -4   7   -0.02    0.21
   0  -4   7    0.04    0.22
   0   4   8    0.99    0.25
   0  -4   8    1.14    0.32
   0  -5   0   -0.02    0.09
   0  -5   0    0.00    0.09
   0  -5   0    0.04    0.06
   0  -5   1  119.01    4.77
   0  -5   1  119.43    4.77
   0   5  -1  113.04    4.72
   0   5   1  116.63    4.72
   0  -5   1  120.68    4.76
   0  -5  -1  120.66    4.76
   0  -5  -2   -0.01    0.09
   0  -5  -2   -0.08    0.08
   0  -5   2    0.03    0.11
   0  -5   2   -0.04    0.10
   0  -5   2   -0.08    0.09
   0   5  -2    0.17    0.09
   0   5   2   -0.04    0.09
   0  -5   3   43.94    1.77
   0  -5   3   41.42    1.79
   0  -5   3   43.04    1.81
   0   5   3   43.22    1.75
   0  -5  -3   42.32    1.75
   0  -5  -3   38.92    1.74
   0   5   4    0.12    0.12
   0  -5   4    0.19    0.14
   0  -5   4    0.11    0.15
   0  -5   4    0.24    0.15
   0  -5   5   12.77    0.70
   0  -5   5   13.47    0.74
   0   5   5   13.13    0.66
   0  -5   6    0.35    0.19
   0  -5   6    0.39    0.23
   0   5   6    0.15    0.18
   0   5   7   17.55    0.91
   0  -5   7   17.52    0.98
   0  -5   7   17.64    0.95
   0  -6   0   50.43    2.13
   0   6   0   49.84    2.06
   0  -6   0   53.54    2.14
   0  -6   1    0.19    0.12
   0  -6   1    0.09    0.10
   0  -6   1   -0.02    0.12
   0  -6  -1    0.21    0.13
   0  -6  -1    0.05    0.11
   0  -6   2   14.75    0.71
   0  -6   2   13.81    0.71
   0  -6  -2   15.40    0.70
   0  -6   2   14.48    0.71
   0  -6   3    0.13    0.14
   0  -6   3    0.09    0.15
   0  -6  -3   -0.03    0.12
   0  -6   3    0.21    0.14
   0  -6   4    5.73    0.41
   0  -6   4    5.59    0.39
   0  -6   4    5.92    0.44
   0  -6   5   -0.17    0.17
   0  -6   5    0.05    0.16
   0  -6   6   10.15    0.68
   0  -6   6    9.68    0.64
   0  -6   7    0.01    0.23
   0  -6   7    0.14    0.23
   0  -7   0   -0.09    0.11
   0  -7   0    0.01    0.13
   0  -7  -1   15.13    0.74
   0  -7   1   15.76    0.75
   0  -7  -1   14.75    0.73
   0  -7   1   14.67    0.74
   0  -7   2    0.03    0.12
   0  -7   2   -0.08    0.12
   0  -7  -2   -0.18    0.12
   0  -7   2    0.24    0.15
   0  -7  -2   -0.04    0.12
   0  -7   3   18.86    0.94
   0  -7   3   20.42    0.95
   0  -7   3   19.72    0.93
   0  -7  -3   18.71    0.89
   0  -7   4   -0.08    0.16
   0  -7   4    0.02    0.15
   0  -7   4   -0.04    0.16
   0  -7   5    5.14    0.48
   0  -7   5    6.13    0.48
   0  -7   6    0.08    0.22
   0  -7   6    0.28    0.22
   0  -8   0  151.38    6.01
   0  -8   0  144.29    6.00
   0  -8   1    0.03    0.15
   0  -8  -1    0.06    0.15
   0  -8  -1    0.07    0.13
   0  -8   1    0.03    0.13
   0  -8  -2   62.51    2.62
   0  -8   2   65.22    2.64
   0  -8  -2   60.23    2.60
   0  -8   2   60.73    2.63
   0  -8   3   -0.25    0.17
   0  -8  -3   -0.02    0.15
   0  -8   3   -0.04    0.15
   0  -8   3    0.04    0.22
   0  -8   4    2.88    0.34
   0  -8   4    3.32    0.37
   0  -8   4    3.22    0.34
   0  -8   5   -0.35    0.16
   0  -8   5    0.24    0.22
   0  -9   0   -0.15    0.16
   0  -9   0   -0.15    0.13
   0  -9  -1   58.01    2.49
   0  -9   1   59.44    2.50
   0  -9  -1   57.53    2.48
   0  -9   1   58.30    2.50
   0  -9  -2    0.08    0.17
   0  -9  -2    0.02    0.15
   0  -9   2   -0.07    0.17
   0  -9   2    0.09    0.17
   0  -9   3   24.32    1.16
   0  -9  -3   23.98    1.15
   0  -9   3   23.82    1.17
   0  -9   4    0.03    0.18
   0  -9   4    0.20    0.21
   0 -10   0   50.64    2.20
   0 -10   0   49.25    2.18
   0 -10   1   -0.03    0.18
   0 -10   1    0.15    0.19
   0 -10  -1    0.06    0.18
   0 -10  -1    0.14    0.17
   0 -10  -2   20.11    1.03
   0 -10   2   20.92    1.05
   0 -10  -2   20.94    1.05
   0 -10   2   21.20    1.06
   0 -10   3   -0.11    0.21
   0 -10   3    0.24    0.21
   0 -10  -3   -0.02    0.17
   0 -11   0    0.01    0.22
   1   0   0    0.00    0.01
   1   0  -1    7.98    0.33
  -1   0   2    2.75    0.18
   1   0  -2    2.62    0.16
  -1   0   2    3.38    0.17
  -1   0   2    2.68    0.18
   1   0   2    2.63    0.19
   1   0   2    2.55    0.17
  -1   0   3   23.29    1.04
   1   0   3   25.09    1.04
   1   0  -3   24.50    1.01
  -1   0   3   24.12    1.03
  -1   0   4   10.86    0.55
   1   0  -4   11.29    0.51
  -1   0   4   11.38    0.54
   1   0   4   10.60    0.55
   1   0   5    1.12    0.18
   1   0  -5    1.25    0.15
  -1   0   5    1.25    0.20
   1   0   5    1.49    0.20
  -1   0   5    1.33    0.19
   1   0   6   19.60    0.96
  -1   0   6   20.67    0.95
  -1   0   6   20.19    0.96
   1   0   6   19.09    0.93
   1   0  -6   20.35    0.89
  -1   0   7   18.85    0.92
   1   0   7   19.30    0.95
  -1   0   7   17.73    0.94
   1   0   7   18.42    0.92
   1   0   8    9.10    0.61
  -1   0   8    9.73    0.62
   1   1   0    0.13    0.03
  -1   1   0    0.21    0.03
   1  -1   0    0.13    0.02
   1   1  -1    7.19    0.30
   1   1   2    1.04    0.11
  -1  -1   2    1.06    0.12
  -1  -1   2    0.99    0.11
  -1  -1   2    1.19    0.12
   1  -1  -2    1.11    0.10
   1  -1   2    1.01    0.12
  -1  -1  -2    1.03    0.10
   1   1  -2    1.09    0.09
  -1   1   2    1.04    0.12
   1  -1   2    1.05    0.11
   1  -1   2    1.39    0.13
  -1  -1   3   18.73    0.86
   1   1   3   19.33    0.84
   1   1   3   18.35    0.83
  -1  -1   3   21.39    0.84
   1  -1  -3   19.69    0.82
  -1  -1   3   19.41    0.83
   1  -1   3   18.40    0.83
   1   1  -3   20.11    0.81
  -1  -1  -3   19.22    0.82
   1  -1   3   20.56    0.84
  -1   1   3   19.58    0.84
  -1   1   3   18.36    0.83
   1  -1   3   18.73    0.86
  -1  -1   4   12.73    0.56
   1   1   4   11.45    0.55
   1  -1  -4   11.22    0.53
   1   1   4   11.16    0.56
  -1  -1   4   11.11    0.58
  -1  -1   4   11.39    0.55
   1  -1   4   11.53    0.59
   1  -1   4   12.11    0.56
   1   1  -4   11.38    0.51
   1  -1   4   11.74    0.55
  -1   1   4   11.20    0.55
  -1   1   4   11.56    0.56
   1   1   5    4.66    0.34
  -1  -1   5    5.18    0.35
  -1  -1   5    4.63    0.36
   1  -1  -5    5.28    0.30
   1   1   5    5.29    0.34
  -1   1   5    4.67    0.34
   1  -1   5    4.51    0.33
   1   1  -5    4.92    0.28
  -1   1   5    4.67    0.34
   1  -1   5    4.90    0.37
   1   1   6   26.86    1.21
   1   1   6   27.30    1.22
   1  -1  -6   26.84    1.17
  -1  -1   6   27.08    1.25
  -1  -1   6   25.64    1.20
  -1   1   6   26.50    1.21
  -1   1   6   26.49    1.21
   1  -1   6   28.40    1.22
   1  -1   6   26.17    1.24
  -1  -1   7   -0.18    0.18
  -1  -1   7    0.21    0.18
   1   1   7    0.01    0.17
   1  -1   7   -0.11    0.16
  -1   1   7    0.13    0.18
   1  -1   7    0.00    0.18
  -1  -1   8   12.19    0.72
  -1  -1   8   11.57    0.74
   1   1   8   12.70    0.72
   1  -1   8   12.52    0.77
  -1   1   8   11.61    0.71
  -1  -2   0    0.04    0.06
   1  -2   0    0.07    0.06
   1  -2   0    0.01    0.04
  -1  -2   1   31.24    1.34
  -1  -2   1   35.98    1.34
  -1  -2   1   30.16    1.33
   1  -2  -1   31.50    1.32
   1  -2   1   32.28    1.34
   1  -2   1   36.23    1.34
   1  -2   1   31.43    1.33
   1  -2  -2   10.16    0.45
  -1  -2   2   10.55    0.45
  -1  -2   2   11.47    0.47
  -1  -2   2   10.08    0.45
  -1  -2   2   10.13    0.49
   1   2   2    9.96    0.45
   1  -2   2   10.06    0.49
  -1  -2  -2   10.25    0.46
  -1   2   2    9.79    0.46
   1  -2   2    9.68    0.45
  -1  -2   3   53.08    2.23
  -1  -2   3   53.48    2.27
   1   2   3   56.40    2.24
  -1  -2   3   53.07    2.21
   1  -2  -3   55.40    2.23
  -1  -2   3   57.51    2.25
   1   2   3   57.84    2.23
   1  -2   3   52.68    2.21
  -1  -2  -3   55.27    2.23
  -1   2   3   52.06    2.24
   1   2  -3   54.43    2.20
   1  -2   3   55.68    2.27
   1  -2   3   57.60    2.25
  -1   2   3   53.97    2.22
   1   2   4    5.93    0.34
   1   2   4    5.70    0.32
   1  -2  -4    5.47    0.32
  -1  -2   4    6.12    0.34
  -1  -2   4    5.34    0.32
  -1  -2   4    5.13    0.36
   1  -2   4    5.17    0.36
   1   2  -4    5.46    0.27
  -1   2   4    5.38    0.32
   1  -2   4    5.98    0.34
   1  -2   4    5.50    0.33
  -1   2   4    5.52    0.33
  -1  -2   5   13.99    0.74
  -1  -2   5   13.69    0.69
  -1  -2   5   15.12    0.71
   1   2   5   14.32    0.69
   1  -2  -5   13.82    0.66
   1  -2   5   14.27    0.74
   1  -2   5   14.57    0.69
   1  -2   5   14.26    0.70
  -1   2   5   14.38    0.70
  -1  -2   6    0.89    0.19
   1   2   6    0.98    0.21
  -1  -2   6    0.78    0.22
   1  -2  -6    1.03    0.17
  -1   2   6    0.79    0.20
   1  -2   6    0.81    0.22
   1  -2   6    1.14    0.21
   1   2   7    0.40    0.18
  -1  -2   7    0.31    0.19
  -1  -2   7    0.10    0.21
  -1   2   7    0.64    0.22
   1  -2   7    0.29    0.20
  -1  -2   8    2.46    0.35
   1   2   8    2.73    0.35
  -1  -2   8    2.09    0.32
  -1   2   8    1.91    0.30
   1  -2   8    2.23    0.36
  -1  -3   0   -0.02    0.07
  -1  -3   0    0.11    0.06
   1  -3   0    0.03    0.04
   1  -3   0    0.08    0.07
   1  -3   0    0.11    0.06
  -1  -3   1   10.33    0.50
  -1   3  -1   12.54    0.48
  -1  -3   1   10.57    0.50
   1  -3  -1   10.07    0.47
   1  -3  -1   10.66    0.49
  -1  -3   1   11.95    0.50
   1  -3   1   10.92    0.50
  -1  -3  -1   10.73    0.49
   1  -3   1   10.84    0.50
  -1   3   1   11.15    0.48
   1   3   2    0.01    0.07
  -1  -3   2   -0.07    0.08
   1  -3  -2   -0.02    0.06
  -1  -3   2    0.04    0.08
  -1  -3   2    0.02    0.07
   1  -3  -2    0.00    0.07
  -1   3   2    0.01    0.07
  -1  -3  -2   -0.08    0.06
   1  -3   2    0.05    0.07
   1  -3   2   -0.09    0.07
   1  -3   2    0.00    0.07
   1   3   3   35.57    1.47
  -1  -3   3   36.42    1.49
  -1  -3   3   36.23    1.47
  -1  -3   3   35.59    1.52
   1  -3  -3   36.72    1.48
   1  -3  -3   33.55    1.45
  -1  -3   3   36.02    1.47
   1  -3   3   33.45    1.47
  -1   3   3   34.46    1.48
   1  -3   3   35.59    1.52
   1  -3   3   37.20    1.50
  -1  -3   4    2.28    0.22
  -1  -3   4    2.18    0.24
  -1  -3   4    2.24    0.20
   1  -3  -4    2.19    0.20
   1   3   4    1.81    0.20
  -1  -3   4    2.17    0.22
   1  -3   4    2.09    0.19
   1  -3   4    2.46    0.24
  -1   3   4    1.73    0.20
   1  -3   4    2.09    0.24
   1  -3  -5   16.61    0.77
  -1  -3   5   17.44    0.80
  -1  -3   5   17.05    0.79
  -1  -3   5   15.61    0.83
   1   3   5   16.69    0.79
   1  -3   5   16.13    0.84
  -1   3   5   16.72    0.79
   1  -3   5   16.66    0.80
  -1  -3   6   12.53    0.67
   1   3   6   14.27    0.69
  -1  -3   6   12.30    0.69
  -1  -3   6   12.64    0.73
   1  -3  -6   12.76    0.65
   1  -3   6   13.60    0.71
  -1   3   6   13.01    0.69
   1  -3   6   12.99    0.74
   1   3   7    2.36    0.30
  -1  -3   7    2.32    0.34
   1  -3   7    1.82    0.32
  -1   3   7    2.13    0.30
  -1  -3   8    4.87    0.51
   1   3   8    5.16    0.45
   1  -3   8    5.15    0.53
  -1   3   8    4.35    0.44
  -1  -4   0    0.04    0.06
  -1  -4   0    0.00    0.07
   1  -4   0    0.10    0.07
   1  -4   0   -0.02    0.05
   1  -4   0   -0.04    0.08
   1  -4   0   -0.10    0.06
  -1   4   0   -0.01    0.06
  -1  -4   0    0.08    0.09
  -1  -4   1    5.31    0.31
  -1  -4   1    5.21    0.31
   1  -4  -1    5.29    0.28
   1  -4  -1    5.46    0.31
  -1  -4   1    6.40    0.32
  -1   4  -1    6.56    0.28
   1  -4   1    6.03    0.31
   1  -4   1    5.70    0.31
  -1  -4  -1    5.95    0.32
   1  -4   1    5.41    0.31
  -1   4   1    5.70    0.28
  -1  -4   2    0.22    0.10
  -1  -4   2    0.16    0.10
  -1  -4   2    0.12    0.09
   1  -4  -2    0.29    0.09
   1  -4  -2    0.22    0.08
   1   4   2    0.18    0.08
   1  -4   2    0.02    0.09
   1  -4   2    0.29    0.10
  -1   4   2    0.08    0.08
   1  -4   2    0.19    0.09
  -1  -4  -2    0.13    0.09
   1  -4  -3   17.89    0.77
   1   4   3   16.95    0.76
  -1  -4   3   17.36    0.78
  -1  -4   3   18.08    0.80
  -1  -4   3   17.35    0.82
   1  -4  -3   16.26    0.75
   1  -4   3   17.17    0.82
   1  -4   3   18.24    0.80
   1  -4   3   17.15    0.78
  -1   4   3   17.39    0.77
  -1  -4   4    4.07    0.35
  -1  -4   4    4.35    0.30
   1  -4  -4    4.43    0.30
   1   4   4    4.67    0.31
  -1  -4   4    4.74    0.33
   1  -4   4    4.14    0.29
   1  -4   4    5.49    0.34
  -1   4   4    4.54    0.31
   1  -4   4    5.12    0.38
  -1  -4   5    0.34    0.18
   1  -4  -5    0.28    0.14
  -1  -4   5    0.35    0.16
   1   4   5    0.30    0.15
   1  -4   5    0.34    0.19
   1  -4   5    0.35    0.16
  -1   4   5    0.48    0.15
   1   4   6   10.19    0.60
  -1  -4   6   11.13    0.68
  -1  -4   6   10.34    0.62
   1  -4   6   11.21    0.64
   1  -4   6   10.81    0.67
  -1   4   6   11.14    0.61
  -1  -4   7   12.38    0.75
   1   4   7   11.21    0.65
  -1  -4   7   10.62    0.68
   1  -4   7   11.89    0.73
   1  -4   7   10.94    0.68
  -1   4   7   11.04    0.66
  -1  -4   8    4.93    0.51
   1   4   8    4.16    0.42
  -1   4   8    4.32    0.45
   1  -4   8    4.37    0.49
   1  -5   0    0.02    0.06
   1  -5   0   -0.04    0.09
   1   5   0   -0.02    0.05
  -1  -5   0   -0.02    0.07
   1  -5   0   -0.03    0.06
  -1  -5   0    0.00    0.08
   1  -5   0    0.02    0.08
  -1  -5   0   -0.06    0.09
  -1   5   0    0.00    0.07
  -1  -5   1    0.84    0.15
   1  -5  -1    0.82    0.11
  -1  -5   1    1.16    0.15
   1  -5  -1    0.97    0.14
  -1   5  -1    1.04    0.12
   1  -5  -1    1.07    0.14
  -1  -5   1    1.04    0.14
  -1  -5  -1    0.79    0.14
  -1   5   1    1.24    0.12
   1  -5   1    1.05    0.14
   1  -5   1    1.26    0.16
   1  -5   1    0.92    0.13
  -1  -5   2    0.59    0.13
   1  -5  -2    0.49    0.10
  -1   5  -2    0.65    0.12
  -1  -5   2    0.55    0.14
   1  -5  -2    0.62    0.13
  -1  -5   2    0.42    0.14
  -1  -5  -2    0.63    0.13
  -1   5   2    0.66    0.12
   1  -5   2    0.60    0.13
   1  -5   2    0.55    0.14
   1  -5   2    0.63    0.13
   1   5   3    3.18    0.25
   1  -5  -3    2.84    0.24
  -1  -5   3    3.16    0.29
  -1  -5   3    3.09    0.27
   1  -5  -3    3.18    0.24
  -1  -5   3    3.67    0.29
   1  -5   3    3.24    0.27
  -1   5   3    3.04    0.24
  -1  -5  -3    2.82    0.24
   1  -5   3    2.96    0.29
   1  -5   3    3.33    0.28
   1   5   4   15.40    0.70
  -1  -5   4   15.28    0.74
  -1  -5   4   14.19    0.76
   1  -5  -4   14.67    0.70
  -1  -5   4   14.51    0.71
   1  -5   4   14.71    0.71
  -1   5   4   14.17    0.70
   1  -5   4   15.04    0.78
   1  -5   4   15.70    0.74
   1   5   5    0.11    0.15
   1  -5  -5   -0.27    0.11
  -1  -5   5    0.02    0.16
  -1  -5   5    0.30    0.16
   1  -5   5   -0.06    0.15
  -1   5   5    0.05    0.14
   1  -5   5    0.00    0.17
  -1  -5   6   26.01    1.31
   1   5   6   29.32    1.25
  -1  -5   6   26.25    1.26
  -1   5   6   26.35    1.23
   1  -5   6   27.12    1.27
   1  -5   6   26.90    1.31
  -1  -5   7    2.02    0.36
  -1  -5   7    2.38    0.34
   1  -5   7    2.24    0.36
   1  -5   7    2.72    0.38
  -1   5   7    1.92    0.30
  -1  -6   0   -0.01    0.10
   1   6   0   -0.02    0.06
  -1  -6   0    0.14    0.12
   1  -6   0   -0.04    0.10
   1  -6   0   -0.04    0.11
  -1  -6   1    9.34    0.51
   1  -6  -1   10.06    0.51
  -1  -6   1    9.68    0.50
  -1  -6   1    9.64    0.53
   1  -6  -1    9.56    0.51
  -1  -6  -1   10.38    0.52
   1  -6   1   10.28    0.52
  -1  -6  -1    9.59    0.52
   1  -6   1   10.07    0.52
   1  -6   1    9.44    0.49
   1  -6  -2    1.83    0.18
  -1  -6   2    1.71    0.21
   1  -6  -2    1.90    0.21
  -1  -6   2    1.64    0.20
  -1  -6   2    1.87    0.22
   1  -6   2    1.84    0.21
   1  -6   2    1.90    0.22
  -1  -6  -2    1.73    0.20
   1  -6   2    2.20    0.22
  -1  -6   3   23.09    1.03
  -1  -6   3   21.26    1.03
   1  -6  -3   21.58    0.97
   1  -6  -3   20.99    0.98
  -1  -6   3   21.91    1.01
   1  -6   3   22.40    1.01
   1  -6   3   21.61    1.04
   1  -6   3   23.70    1.03
  -1  -6  -3   22.36    0.99
   1  -6  -4    0.42    0.14
  -1  -6   4    0.24    0.15
  -1  -6   4    0.33    0.17
  -1  -6   4    0.69    0.18
   1  -6   4    0.39    0.16
   1  -6   4    0.61    0.20
   1  -6   4    0.24    0.17
  -1  -6   5    3.59    0.36
  -1  -6   5    3.96    0.41
   1  -6   5    3.45    0.35
   1  -6   5    3.00    0.35
  -1  -6   6   -0.02    0.19
  -1  -6   6   -0.11    0.19
   1  -6   6    0.40    0.21
   1  -6   6    0.18    0.20
  -1  -6   7    1.13    0.31
  -1  -6   7    0.92    0.27
   1  -6   7    0.80    0.28
   1  -6   7    1.68    0.34
  -1  -7   0   -0.16    0.10
   1  -7   0    0.09    0.13
   1   7   0    0.07    0.07
   1  -7   0    0.05    0.11
  -1  -7   0   -0.04    0.12
  -1  -7   1    5.79    0.40
   1  -7  -1    6.08    0.39
  -1  -7   1    6.44    0.40
   1  -7  -1    6.01    0.40
   1  -7   1    5.52    0.39
   1  -7   1    6.20    0.39
  -1  -7  -1    6.46    0.40
  -1  -7  -1    6.08    0.39
   1  -7  -2    0.22    0.14
  -1  -7   2    0.34    0.14
   1  -7  -2    0.30    0.14
  -1  -7   2    0.21    0.16
  -1  -7   2    0.10    0.13
  -1  -7  -2    0.20    0.14
   1  -7   2    0.49    0.15
   1  -7   2    0.31    0.14
   1  -7   2    0.10    0.14
  -1  -7   3   23.18    1.08
   1  -7  -3   22.33    1.04
  -1  -7   3   23.51    1.08
  -1  -7   3   22.75    1.07
   1  -7   3   22.90    1.07
   1  -7   3   23.25    1.06
  -1  -7  -3   22.15    1.04
   1  -7   3   22.90    1.08
  -1  -7   4    0.06    0.16
  -1  -7   4    0.06    0.17
  -1  -7   4    0.28    0.17
   1  -7   4    0.26    0.18
   1  -7   4    0.03    0.16
   1  -7   4    0.18    0.17
  -1  -7   5   13.36    0.78
  -1  -7   5   13.49    0.75
   1  -7   5   13.57    0.76
   1  -7   5   13.12    0.77
  -1  -7   6    4.02    0.45
  -1  -7   6    3.67    0.42
   1  -7   6    3.38    0.40
   1  -7   6    4.15    0.45
  -1  -8   0    0.00    0.13
   1  -8   0    0.22    0.15
  -1  -8   0    0.02    0.15
   1  -8   0    0.24    0.14
   1  -8  -1    3.55    0.30
  -1  -8   1    3.18    0.32
  -1  -8   1    3.10    0.31
   1  -8  -1    3.67    0.33
   1   8   1    2.92    0.22
  -1  -8  -1    2.76    0.30
   1  -8   1    3.56    0.32
   1  -8   1    3.23    0.32
  -1  -8  -1    3.55    0.31
   1  -8  -2    0.13    0.15
  -1  -8   2    0.07    0.16
  -1  -8   2    0.32    0.16
   1  -8  -2    0.28    0.15
  -1  -8  -2    0.26    0.16
  -1  -8  -2    0.31    0.16
   1  -8   2    0.49    0.18
   1  -8   2    0.65    0.19
   1  -8  -3    9.05    0.53
   1  -8  -3    9.35    0.55
  -1  -8   3    9.57    0.58
  -1  -8   3    8.83    0.56
  -1  -8   3    9.50    0.58
   1  -8   3   10.25    0.58
  -1  -8  -3    9.18    0.55
   1  -8   3    9.46    0.58
  -1  -8   4    0.12    0.18
  -1  -8   4    0.15    0.18
  -1  -8   4    0.19    0.19
   1  -8   4    0.23    0.18
   1  -8   4    0.10    0.19
   1  -8   4   -0.07    0.17
  -1  -8   5    0.06    0.19
  -1  -8   5    0.34    0.22
   1  -8   5    0.39    0.22
   1  -8   5    0.24    0.21
  -1  -9   0    0.07    0.17
   1  -9   0    0.12    0.15
   1  -9   0   -0.11    0.16
  -1  -9   0    0.10    0.16
  -1  -9   1    0.28    0.18
   1  -9  -1    0.32    0.18
   1  -9  -1    0.18    0.16
  -1  -9   1    0.20    0.16
   1  -9   1    0.29    0.18
   1  -9   1    0.11    0.16
  -1  -9  -1    0.59    0.18
  -1  -9  -1    0.03    0.17
   1  -9  -2   -0.05    0.17
  -1  -9   2    0.30    0.18
   1  -9  -2    0.43    0.18
  -1  -9   2    0.29    0.18
   1  -9   2    0.33    0.20
  -1  -9  -2    0.37    0.18
  -1  -9  -2    0.61    0.20
   1  -9   2    0.33    0.18
   1  -9  -3    0.53    0.19
  -1  -9   3    0.68    0.23
  -1  -9   3    0.36    0.20
   1  -9   3    0.51    0.22
  -1  -9  -3    0.73    0.22
   1  -9   3    0.50    0.20
  -1  -9   4    5.98    0.49
   1  -9  -4    6.34    0.48
  -1  -9   4    6.09    0.50
   1  -9   4    6.03    0.50
   1  -9   4    6.07    0.48
  -1 -10   0   -0.17    0.18
  -1 -10   0    0.23    0.18
   1 -10   0   -0.08    0.19
   1 -10   0   -0.08    0.16
   1 -10  -1    1.68    0.28
   1 -10  -1    1.68    0.27
  -1 -10   1    1.67    0.28
  -1 -10   1    1.88    0.30
   1 -10   1    1.54    0.28
  -1 -10  -1    1.79    0.28
   1 -10   1    2.25    0.32
  -1 -10  -1    1.75    0.29
  -1 -10   2    0.09    0.19
   1 -10  -2    0.14    0.17
   1 -10  -2    0.02    0.17
  -1 -10   2    0.12    0.20
   1 -10   2   -0.01    0.19
  -1 -10  -2   -0.04    0.20
  -1 -10  -2    0.11    0.18
   1 -10   2    0.00    0.20
  -1 -10   3    3.81    0.42
  -1 -10   3    4.17    0.43
   1 -10  -3    4.17    0.41
  -1 -10  -3    4.26    0.41
   1 -10   3    4.38    0.44
   1 -10   3    4.41    0.43
   2   0   0   62.23    2.48
   2   0  -1   51.61    2.06
  -2   0   2    4.47    0.24
   2   0   2    4.17    0.24
  -2   0   2    4.64    0.24
   2   0  -2    4.39    0.22
  -2   0   3    4.65    0.28
   2   0   3    6.07    0.28
   2   0  -3    4.48    0.25
  -2   0   3    4.44    0.27
   2   0   4    0.21    0.12
  -2   0   4    0.87    0.14
   2   0  -4    0.78    0.12
   2   0   4    0.31    0.12
  -2   0   4    0.57    0.13
   2   0  -5    0.70    0.13
  -2   0   5    1.01    0.18
   2   0   5    0.86    0.17
  -2   0   5    0.86    0.18
   2   0   5    0.94    0.17
   2   0   6    2.56    0.31
  -2   0   6    3.85    0.35
  -2   0   6    3.91    0.33
   2   0   6    2.58    0.29
   2   0  -6    3.67    0.26
  -2   0   7    8.22    0.52
  -2   0   7    7.59    0.54
   2   0   7    7.43    0.52
   2   0   7    7.57    0.51
  -2   0   8    0.39    0.22
   2   1   0  109.26    4.32
   2  -1   0  108.40    4.32
   2  -1  -1   18.42    0.75
   2   1  -1   18.35    0.75
  -2  -1   2   13.92    0.60
   2   1   2   12.94    0.58
   2   1   2   12.98    0.57
  -2  -1   2   13.89    0.58
   2  -1  -2   13.87    0.57
  -2  -1   2   13.30    0.57
   2   1  -2   13.66    0.56
   2  -1   2   13.26    0.60
   2  -1   2   12.74    0.58
  -2   1   2   13.47    0.58
  -2  -1   3    4.55    0.30
  -2  -1   3    4.54    0.27
   2  -1  -3    5.03    0.26
  -2  -1   3    5.10    0.27
  -2   1   3    4.82    0.28
  -2   1   3    5.07    0.28
   2   1  -3    4.95    0.24
  -2  -1   4   15.51    0.74
  -2  -1   4   14.23    0.70
   2  -1  -4   15.17    0.69
  -2  -1   4   14.21    0.71
   2   1   4   16.48    0.71
   2   1   4   16.95    0.72
   2  -1   4   16.55    0.74
   2   1  -4   15.19    0.67
   2  -1   4   16.46    0.72
  -2   1   4   15.44    0.71
  -2   1   4   14.97    0.71
   2  -1  -5    1.03    0.15
  -2  -1   5    0.94    0.18
  -2  -1   5    1.38    0.19
   2   1   5    0.48    0.15
   2   1   5    0.59    0.15
  -2   1   5    1.03    0.18
   2  -1   5    0.54    0.17
   2   1  -5    1.20    0.14
  -2   1   5    1.06    0.18
   2  -1   5    0.51    0.16
   2  -1  -6   27.36    1.20
   2   1   6   29.40    1.26
  -2  -1   6   26.44    1.27
  -2  -1   6   27.39    1.25
   2   1   6   27.79    1.24
   2  -1   6   29.27    1.28
  -2   1   6   26.82    1.24
   2   1  -6   26.26    1.17
  -2   1   6   27.91    1.30
   2  -1   6   27.91    1.24
  -2  -1   7    3.24    0.36
  -2  -1   7    3.33    0.34
   2   1   7    3.69    0.36
   2  -1  -7    3.06    0.28
  -2   1   7    3.45    0.35
   2  -1   7    3.33    0.38
  -2  -1   8    5.41    0.47
  -2  -1   8    4.91    0.50
   2   1   8    5.70    0.47
   2  -1   8    5.36    0.51
  -2   1   8    5.44    0.47
  -2  -2   0  383.47   14.91
   2  -2   0  379.23   14.87
   2   2   0  359.88   14.88
   2  -2   0  376.58   14.86
  -2  -2   1  312.58   12.81
   2  -2  -1  331.76   12.80
   2  -2  -1  331.82   12.81
  -2  -2   1  334.23   12.81
  -2  -2   1  336.90   12.82
  -2   2  -1  309.57   12.80
   2  -2   1  323.24   12.82
   2  -2   1  321.05   12.81
   2   2  -1  315.84   12.81
   2  -2   1  312.94   12.82
  -2   2   1  319.92   12.82
  -2  -2   2  177.01    7.15
  -2  -2   2  178.91    7.14
   2   2   2  173.63    7.14
   2  -2  -2  185.50    7.14
  -2  -2   2  188.71    7.14
  -2  -2   2  186.72    7.17
   2  -2   2  178.01    7.17
   2  -2   2  168.24    7.15
   2   2  -2  182.82    7.12
  -2   2   2  179.87    7.15
   2  -2   2  173.59    7.14
  -2  -2   3  236.99    9.60
   2  -2  -3  244.75    9.60
  -2  -2   3  238.68    9.61
  -2  -2   3  247.17    9.64
   2   2   3  233.56    9.59
   2   2   3  238.30    9.60
  -2   2   3  242.15    9.61
   2  -2   3  243.05    9.58
  -2   2   3  250.25    9.59
   2  -2   3  245.51    9.64
   2  -2   3  230.04    9.61
   2   2  -3  242.04    9.57
  -2  -2   4   11.71    0.59
   2   2   4   11.40    0.58
  -2  -2   4   12.08    0.59
   2   2   4   11.81    0.58
   2  -2  -4   13.25    0.58
  -2  -2   4   12.58    0.63
   2  -2   4   11.67    0.60
  -2   2   4   13.23    0.57
   2  -2   4   12.34    0.60
   2  -2   4   12.36    0.63
   2   2  -4   12.99    0.54
  -2   2   4   12.65    0.60
   2   2   5   98.60    4.10
  -2  -2   5   94.39    4.01
  -2  -2   5   98.16    4.01
   2  -2  -5   98.26    3.99
   2   2   5   99.02    4.01
  -2  -2   5  100.52    4.05
   2   2  -5   97.82    3.95
   2  -2   5   97.95    4.02
  -2   2   5   98.85    4.01
   2  -2   5  101.30    4.05
  -2  -2   6    0.93    0.22
   2   2   6    1.28    0.21
  -2  -2   6    1.14    0.21
   2  -2  -6    1.12    0.18
   2   2  -6    1.05    0.14
   2  -2   6    1.34    0.25
  -2   2   6    1.41    0.22
  -2  -2   7    5.78    0.50
   2   2   7    6.32    0.45
   2  -2  -7    6.00    0.40
  -2  -2   7    6.17    0.45
  -2   2   7    5.47    0.45
   2  -2   7    6.85    0.51
   2   2   8    0.75    0.25
  -2  -2   8    0.95    0.25
  -2  -2   8    0.84    0.28
  -2   2   8    0.96    0.26
   2  -2   8    0.55    0.27
  -2  -3   0    0.14    0.07
  -2   3   0    0.09    0.06
   2  -3   0    0.15    0.05
   2   3   0    0.23    0.06
   2  -3   0    0.10    0.07
   2  -3   0    0.09    0.06
  -2  -3   0    0.06    0.06
  -2  -3   1   48.79    1.86
  -2  -3   1   49.53    1.87
   2  -3  -1   49.07    1.86
  -2   3  -1   41.49    1.84
   2  -3  -1   50.14    1.84
   2  -3   1   41.85    1.86
   2   3  -1   45.92    1.82
  -2   3   1   47.50    1.85
   2  -3   1   41.28    1.86
   2  -3   1   42.83    1.86
  -2  -3  -1   42.76    1.85
  -2  -3   2   10.78    0.52
   2  -3  -2   11.11    0.51
  -2  -3   2   11.17    0.54
   2   3   2   11.91    0.50
  -2  -3   2   11.04    0.49
   2  -3  -2   11.66    0.50
  -2  -3   2   11.58    0.52
  -2   3   2   11.51    0.52
   2  -3   2   10.76    0.52
   2  -3   2   11.42    0.52
   2  -3   2   11.98    0.55
  -2  -3   3   14.52    0.68
  -2  -3   3   13.71    0.65
   2  -3  -3   14.30    0.64
   2  -3  -3   13.63    0.61
  -2  -3   3   14.29    0.63
  -2  -3   3   14.33    0.63
  -2   3   3   14.49    0.65
   2  -3  -4   60.05    2.52
   2   3   4   64.37    2.53
  -2  -3   4   57.88    2.54
  -2  -3   4   60.63    2.58
  -2  -3   4   59.87    2.52
   2  -3   4   62.71    2.51
   2  -3   4   62.57    2.55
   2  -3   4   65.05    2.59
  -2   3   4   61.27    2.54
  -2  -3   5    6.15    0.42
   2  -3  -5    6.01    0.34
  -2  -3   5    5.28    0.36
   2   3   5    4.42    0.35
  -2  -3   5    5.43    0.35
   2  -3   5    3.80    0.38
  -2   3   5    5.74    0.36
   2  -3   5    3.75    0.35
  -2  -3   6   46.66    2.07
  -2  -3   6   44.72    2.02
   2  -3  -6   46.22    1.98
   2   3   6   48.94    2.01
  -2  -3   6   44.92    2.00
  -2   3   6   45.56    2.02
   2  -3   6   48.46    2.04
   2  -3   6   51.64    2.09
  -2  -3   7    4.16    0.39
   2  -3  -7    5.09    0.36
  -2  -3   7    4.86    0.48
   2   3   7    3.80    0.38
  -2   3   7    4.11    0.40
   2  -3   7    3.89    0.43
  -2  -3   8    7.67    0.65
   2   3   8    8.73    0.59
   2  -3   8    8.75    0.66
  -2   3   8    8.31    0.59
   2  -4   0   32.74    1.34
   2  -4   0   32.35    1.37
  -2  -4   0   32.64    1.37
   2   4   0   32.23    1.34
   2  -4   0   33.70    1.37
  -2  -4   0   33.48    1.35
   2  -4   0   32.71    1.33
  -2   4   0   32.87    1.35
  -2  -4   0   32.91    1.37
   2  -4  -1    7.28    0.34
   2  -4  -1    7.32    0.37
  -2   4  -1    7.70    0.35
  -2  -4   1    7.31    0.37
   2  -4  -1    6.85    0.36
  -2  -4   1    6.84    0.37
   2  -4   1    7.63    0.37
  -2  -4  -1    7.60    0.37
   2  -4   1    7.96    0.38
   2  -4   1    7.39    0.37
   2   4  -1    6.87    0.32
  -2   4   1    6.70    0.34
  -2  -4   2    5.43    0.31
   2  -4  -2    5.64    0.29
  -2  -4   2    5.73    0.33
   2   4   2    4.98    0.27
  -2   4  -2    5.14    0.29
   2  -4  -2    5.47    0.29
  -2  -4   2    5.59    0.31
   2  -4   2    5.61    0.32
   2  -4   2    5.02    0.31
  -2  -4  -2    5.14    0.30
   2  -4   2    5.42    0.33
  -2   4   2    5.54    0.30
  -2  -4   3    0.06    0.11
   2  -4  -3    0.18    0.09
  -2  -4   3    0.15    0.11
  -2  -4   3    0.04    0.11
   2  -4  -3    0.05    0.08
   2   4   3    0.15    0.10
   2  -4   3    0.10    0.11
   2  -4   3    0.25    0.10
  -2   4   3    0.14    0.11
   2  -4   3    0.01    0.12
   2   4   4    0.18    0.13
  -2  -4   4    0.30    0.12
  -2  -4   4    0.02    0.12
   2  -4  -4    0.08    0.11
  -2  -4   4   -0.02    0.13
  -2  -4   4    0.00    0.12
   2  -4   4    0.04    0.11
   2  -4   4    0.12    0.13
  -2   4   4    0.04    0.13
   2  -4   4    0.04    0.14
  -2  -4   5    0.01    0.13
   2  -4  -5   -0.05    0.12
  -2  -4   5    0.16    0.16
   2   4   5    0.05    0.14
  -2  -4   5    0.15    0.15
   2  -4   5    0.05    0.14
   2  -4   5    0.08    0.16
  -2   4   5   -0.06    0.13
  -2  -4   6    1.86    0.29
   2  -4  -6    2.35    0.25
  -2  -4   6    1.77    0.26
   2   4   6    1.12    0.22
   2  -4   6    1.39    0.25
  -2   4   6    1.79    0.25
   2  -4   6    1.18    0.26
  -2  -4   7    4.62    0.50
   2   4   7    4.12    0.40
  -2  -4   7    4.61    0.43
   2  -4   7    4.23    0.43
  -2   4   7    4.25    0.41
   2  -4   7    3.83    0.44
  -2  -4   8   -0.07    0.24
   2   4   8    0.03    0.21
   2  -4   8    0.07    0.26
  -2   4   8    0.10    0.23
  -2  -5   0  116.72    4.57
   2  -5   0  111.31    4.59
  -2  -5   0  115.57    4.59
   2   5   0  111.44    4.54
  -2  -5   0  111.07    4.59
  -2   5   0  113.60    4.56
   2  -5   0  116.26    4.59
   2  -5   0  114.78    4.56
   2  -5  -1    0.13    0.09
  -2  -5   1    0.06    0.11
  -2  -5   1    0.18    0.09
   2  -5  -1    0.10    0.10
  -2  -5   1    0.14    0.10
  -2   5  -1    0.07    0.09
   2  -5  -1    0.18    0.08
   2  -5   1    0.06    0.09
  -2  -5  -1    0.20    0.11
   2  -5   1    0.01    0.09
   2  -5   1    0.20    0.10
  -2   5   1    0.34    0.10
  -2  -5   2   44.82    1.84
  -2  -5   2   44.22    1.82
   2  -5  -2   44.05    1.80
   2  -5  -2   43.82    1.81
  -2   5  -2   41.71    1.79
  -2  -5   2   42.54    1.83
  -2   5   2   42.98    1.80
  -2  -5  -2   43.95    1.82
   2  -5   2   42.95    1.83
   2  -5   2   45.11    1.84
   2  -5   2   43.32    1.82
  -2  -5   3    0.22    0.13
  -2  -5   3    0.28    0.13
   2  -5  -3    0.02    0.11
   2  -5  -3    0.19    0.11
  -2  -5   3    0.11    0.13
   2  -5   3    0.45    0.14
   2  -5   3    0.36    0.15
  -2   5   3    0.17    0.13
   2  -5   3    0.51    0.14
  -2  -5   4   -0.07    0.14
  -2  -5   4   -0.11    0.11
   2  -5  -4    0.05    0.11
  -2  -5   4   -0.13    0.13
   2  -5   4    0.20    0.13
  -2   5   4   -0.06    0.12
   2  -5   4   -0.05    0.14
   2  -5   4    0.25    0.16
  -2  -5   5    0.17    0.16
  -2  -5   5    0.11    0.17
   2  -5  -5    0.03    0.12
   2  -5   5    0.22    0.17
  -2   5   5    0.16    0.16
   2  -5   5    0.09    0.16
   2  -5  -6    5.62    0.42
  -2  -5   6    6.23    0.52
  -2  -5   6    6.36    0.47
   2  -5   6    6.62    0.48
  -2   5   6    6.11    0.45
   2  -5   6    6.72    0.52
  -2  -5   7    1.36    0.32
  -2  -5   7    0.99    0.27
  -2   5   7    1.03    0.25
   2  -5   7    1.18    0.29
   2  -5   7    1.10    0.29
  -2  -6   0   77.39    3.23
   2   6   0   78.16    3.16
  -2  -6   0   78.57    3.22
   2  -6   0   80.27    3.22
  -2   6   0   77.29    3.25
   2  -6   0   80.22    3.22
   2  -6  -1   43.45    1.77
  -2  -6   1   42.89    1.75
  -2   6  -1   39.96    1.73
  -2  -6   1   44.12    1.78
  -2  -6   1   42.83    1.78
   2  -6  -1   43.17    1.76
  -2   6   1   39.86    1.78
   2  -6   1   40.90    1.77
  -2  -6  -1   40.92    1.76
   2  -6   1   41.42    1.75
   2  -6   1   41.14    1.77
  -2  -6  -1   41.19    1.77
  -2   6  -2   41.82    1.82
  -2  -6   2   45.49    1.87
   2  -6  -2   45.58    1.83
  -2  -6   2   46.05    1.88
   2  -6  -2   45.41    1.86
  -2  -6   2   46.22    1.88
  -2  -6  -2   43.34    1.86
   2  -6   2   44.60    1.87
   2  -6   2   42.29    1.86
  -2   6   2   43.39    1.86
   2  -6   2   41.80    1.87
  -2  -6   3   67.42    2.69
   2  -6  -3   64.22    2.63
  -2  -6   3   65.10    2.65
  -2   6  -3   60.22    2.61
   2  -6  -3   65.44    2.63
  -2  -6   3   63.91    2.67
   2  -6   3   63.47    2.65
   2  -6   3   60.63    2.66
   2  -6   3   64.25    2.68
  -2   6   3   64.72    2.63
   2  -6  -4    3.73    0.29
  -2  -6   4    3.50    0.33
  -2  -6   4    3.85    0.32
  -2  -6   4    3.50    0.35
   2  -6   4    3.69    0.34
  -2   6   4    3.95    0.32
   2  -6   4    3.90    0.31
   2  -6   4    4.10    0.36
   2  -6  -5   33.89    1.49
  -2  -6   5   34.05    1.54
  -2  -6   5   34.38    1.57
   2  -6   5   34.23    1.57
  -2   6   5   33.83    1.52
   2  -6   5   33.94    1.54
  -2  -6   6    0.39    0.23
  -2  -6   6    0.34    0.21
   2  -6   6    0.22    0.20
   2  -6   6    0.34    0.23
  -2  -6   7    2.08    0.38
  -2  -6   7    1.48    0.32
   2  -6   7    1.80    0.34
   2  -6   7    2.31    0.36
  -2  -7   0    5.30    0.37
  -2  -7   0    5.51    0.37
   2   7   0    5.78    0.28
   2  -7   0    5.46    0.37
   2  -7   0    5.29    0.35
   2  -7  -1   27.93    1.20
  -2  -7   1   27.77    1.20
  -2  -7   1   28.55    1.21
   2  -7  -1   28.52    1.19
   2  -7   1   25.91    1.20
  -2  -7  -1   24.75    1.19
  -2  -7  -1   25.37    1.19
   2  -7   1   24.96    1.19
  -2  -7   2   20.01    0.98
  -2  -7   2   20.83    0.97
  -2  -7   2   20.90    0.97
   2  -7  -2   20.80    0.96
   2  -7  -2   20.17    0.96
   2  -7   2   21.18    0.98
   2  -7   2   21.66    0.97
  -2  -7  -2   21.28    0.97
   2  -7   2   20.90    0.98
   2  -7  -3   11.09    0.56
  -2  -7   3   11.13    0.59
  -2  -7   3   10.97    0.58
  -2  -7   3   10.98    0.59
   2  -7   3    7.51    0.56
  -2  -7   4   53.30    2.30
  -2  -7   4   52.32    2.25
  -2  -7   4   50.61    2.27
   2  -7   4   52.26    2.28
   2  -7   4   54.92    2.30
   2  -7   4   54.21    2.25
  -2  -7   5    4.90    0.44
  -2  -7   5    5.69    0.47
   2  -7   5    4.07    0.43
   2  -7   5    4.38    0.46
  -2  -7   6   34.02    1.65
  -2  -7   6   32.25    1.60
   2  -7   6   35.63    1.65
   2  -7   6   37.00    1.63
  -2  -8   0   21.07    1.00
  -2  -8   0   20.40    0.99
   2  -8   0   21.86    1.00
   2  -8   0   20.23    0.98
   2   8   1    1.66    0.17
   2  -8  -1    2.06    0.25
  -2  -8   1    2.25    0.26
   2  -8  -1    1.68    0.24
  -2  -8   1    1.90    0.25
   2  -8   1    1.56    0.23
  -2  -8  -1    1.91    0.25
  -2  -8  -1    1.76    0.24
   2  -8   1    1.69    0.24
   2  -8  -2    8.50    0.49
  -2  -8   2    8.73    0.51
   2  -8  -2    8.28    0.49
  -2  -8   2    8.51    0.52
  -2  -8  -2    7.35    0.50
   2  -8   2    7.61    0.49
  -2  -8  -2    7.98    0.50
   2  -8   2    7.13    0.49
   2  -8  -3    5.93    0.42
  -2  -8   3    6.38    0.44
  -2  -8   3    6.32    0.45
  -2  -8   3    6.49    0.45
   2  -8  -3    5.47    0.44
   2  -8   3    4.90    0.42
   2  -8   3    5.24    0.43
  -2  -8   4    0.41    0.20
  -2  -8   4    0.50    0.21
  -2  -8   4    0.38    0.20
   2  -8   4    0.26    0.19
   2  -8   4    0.24    0.18
   2  -8   4    0.32    0.19
  -2  -8   5    2.35    0.35
  -2  -8   5    2.61    0.36
   2  -8   5    3.10    0.37
   2  -8   5    2.89    0.36
   2  -9   0   52.85    2.30
  -2  -9   0   52.49    2.31
   2  -9   0   53.64    2.30
  -2  -9   0   54.81    2.31
   2  -9  -1    0.07    0.17
  -2  -9   1   -0.05    0.16
  -2  -9   1    0.04    0.17
   2  -9  -1    0.09    0.15
  -2  -9  -1    0.18    0.19
   2  -9   1    0.05    0.18
  -2  -9  -1    0.10    0.16
   2  -9   1    0.01    0.16
   2  -9  -2   23.54    1.14
  -2  -9   2   24.63    1.16
  -2  -9   2   22.48    1.15
   2  -9  -2   24.21    1.14
   2  -9   2   24.91    1.16
   2  -9   2   23.83    1.16
  -2  -9  -2   24.41    1.15
  -2  -9  -2   24.57    1.16
  -2  -9   3    0.26    0.21
   2  -9  -3    0.31    0.17
  -2  -9   3   -0.06    0.17
   2  -9   3    0.33    0.19
  -2  -9  -3    0.47    0.20
   2  -9   3    0.68    0.23
   2  -9  -4    0.68    0.22
  -2  -9   4    0.29    0.23
  -2  -9   4    0.71    0.24
   2  -9   4    0.53    0.23
   2  -9   4    0.40    0.23
   2 -10   0   13.93    0.77
  -2 -10   0   13.82    0.77
   2 -10   0   12.76    0.73
  -2 -10   0   12.71    0.75
  -2 -10   1    1.92    0.32
  -2 -10   1    1.79    0.29
   2 -10  -1    2.04    0.30
   2 -10  -1    1.84    0.28
   2 -10   1    1.61    0.28
   2 -10   1    2.03    0.32
  -2 -10  -1    1.95    0.31
  -2 -10  -1    1.75    0.29
  -2 -10   2    6.18    0.52
   2 -10  -2    6.22    0.47
   2 -10  -2    6.49    0.48
  -2 -10   2    7.00    0.51
  -2 -10  -2    5.87    0.49
   2 -10   2    5.80    0.50
   2 -10   2    5.88    0.49
  -2 -10   3    6.26    0.51
  -2 -10   3    6.11    0.52
   2 -10  -3    5.95    0.47
  -2 -10  -3    5.70    0.48
   2 -10   3    5.79    0.50
   2 -10   3    5.79    0.51
   3   0   0    0.03    0.04
   3   0   1    0.18    0.07
  -3   0   1    0.15    0.08
   3   0  -1    0.10    0.05
  -3   0   2    3.48    0.21
   3   0  -2    3.42    0.19
  -3   0   2    3.58    0.22
   3   0   2    3.48    0.22
  -3   0   3    4.45    0.27
   3   0   3    4.91    0.23
  -3   0   3    4.44    0.28
   3   0  -3    4.43    0.25
   3   0   3    4.56    0.29
   3   0   4    0.80    0.15
  -3   0   4    0.92    0.15
  -3   0   4    1.04    0.15
   3   0   4    0.85    0.14
   3   0  -4    1.04    0.13
   3   0   5    7.38    0.45
  -3   0   5    8.65    0.47
  -3   0   5    7.95    0.47
   3   0  -5    8.45    0.42
   3   0   5    7.67    0.47
  -3   0   6   11.94    0.65
   3   0  -6   11.44    0.58
   3   0   6   11.82    0.63
  -3   0   6   11.88    0.64
   3   0   6   12.35    0.66
   3   0   7    8.09    0.55
   3   0  -7    8.22    0.46
  -3   0   7    7.66    0.55
  -3   0   7    7.94    0.53
  -3   0   8    2.58    0.34
   3   1   0    0.20    0.05
   3  -1   0    0.19    0.04
  -3   1   0    0.26    0.07
   3  -1  -1   29.64    1.26
  -3  -1   1   30.60    1.28
  -3   1  -1   31.15    1.27
   3  -1   1   29.73    1.28
   3   1  -1   33.08    1.26
   3  -1   1   31.75    1.25
  -3   1   1   31.94    1.27
  -3  -1   2    0.12    0.06
   3  -1  -2    0.09    0.07
  -3  -1   2    0.13    0.07
   3   1   2    0.04    0.07
   3   1   2    0.04    0.06
  -3  -1   2    0.07    0.08
  -3   1   2    0.08    0.07
   3   1  -2    0.06    0.06
  -3   1   2    0.07    0.07
   3  -1   2    0.10    0.07
   3  -1   2   -0.04    0.07
   3  -1   2    0.01    0.06
   3   1   3   82.51    3.42
  -3  -1   3   88.42    3.42
  -3  -1   3   83.16    3.42
  -3  -1   3   85.70    3.45
   3   1   3   84.39    3.43
  -3   1   3   83.54    3.43
   3  -1   3   85.21    3.45
   3  -1   3   83.08    3.40
   3  -1   3   86.50    3.43
   3   1  -3   85.88    3.40
  -3   1   3   85.24    3.42
   3   1   4    0.14    0.11
  -3  -1   4    0.03    0.11
  -3  -1   4    0.05    0.12
  -3  -1   4    0.33    0.11
   3  -1  -4    0.09    0.09
   3   1   4   -0.05    0.10
   3   1  -4    0.11    0.09
  -3   1   4    0.03    0.11
  -3   1   4    0.22    0.11
   3  -1   4    0.06    0.12
  -3  -1   5   27.88    1.20
   3   1   5   27.67    1.20
   3  -1  -5   26.50    1.16
   3   1   5   27.32    1.19
  -3  -1   5   26.59    1.22
  -3   1   5   26.56    1.19
   3   1  -5   27.02    1.14
   3  -1   5   26.14    1.23
  -3   1   5   27.79    1.20
   3  -1  -6    0.20    0.13
   3   1   6    0.07    0.16
   3   1   6    0.26    0.17
  -3  -1   6    0.06    0.16
  -3  -1   6    0.03    0.16
   3  -1   6   -0.06    0.16
   3   1  -6    0.24    0.12
  -3   1   6    0.20    0.17
  -3  -1   7    0.41    0.21
  -3  -1   7    0.45    0.21
   3  -1  -7    0.48    0.15
   3   1   7    0.20    0.18
  -3   1   7    0.25    0.19
   3  -1   7    0.32    0.21
   3   1  -7    0.34    0.14
  -3  -1   8   -0.02    0.20
  -3  -1   8    0.32    0.24
   3  -1   8   -0.18    0.22
  -3   1   8    0.08    0.22
  -3   2   0    0.02    0.07
   3  -2   0   -0.08    0.06
   3  -2   0    0.08    0.04
   3   2   0    0.04    0.05
  -3  -2   1    2.06    0.14
   3  -2  -1    1.81    0.14
  -3   2  -1    2.23    0.15
   3  -2  -1    1.89    0.13
   3  -2   1    1.97    0.14
   3  -2   1    1.79    0.15
   3  -2   1    1.77    0.16
  -3   2   1    2.12    0.15
   3   2  -1    2.31    0.13
   3  -2  -2    7.58    0.35
  -3  -2   2    8.47    0.37
  -3  -2   2    7.71    0.36
   3  -2  -2    7.68    0.36
   3   2   2    7.28    0.36
  -3  -2   2    7.74    0.40
   3  -2   2    7.34    0.39
  -3   2   2    7.97    0.38
   3   2  -2    7.92    0.34
   3  -2   2    8.22    0.38
   3  -2   2    7.50    0.37
   3  -2  -3   26.03    1.08
   3   2   3   25.41    1.07
  -3  -2   3   26.11    1.08
  -3  -2   3   25.45    1.08
  -3  -2   3   25.35    1.11
   3   2   3   25.21    1.08
   3  -2   3   25.64    1.09
   3  -2   3   24.87    1.11
   3  -2   3   24.76    1.06
   3   2  -3   26.07    1.05
  -3   2   3   25.54    1.07
  -3   2   3   25.00    1.09
   3   2   4    0.61    0.14
  -3  -2   4    0.58    0.13
  -3  -2   4    0.71    0.14
   3  -2  -4    0.70    0.13
  -3  -2   4    0.47    0.15
   3   2   4    0.56    0.12
   3   2  -4    0.65    0.10
  -3   2   4    0.83    0.15
   3  -2   4    0.54    0.15
  -3   2   4    0.58    0.12
   3  -2   4    0.53    0.11
   3  -2   4    0.77    0.17
   3  -2  -5   23.08    1.03
   3   2   5   23.67    1.06
  -3  -2   5   23.49    1.06
  -3  -2   5   23.31    1.10
  -3  -2   5   23.64    1.06
   3   2   5   23.80    1.06
   3  -2   5   22.47    1.10
   3   2  -5   23.54    1.00
   3  -2   5   25.24    1.09
  -3   2   5   24.11    1.07
   3  -2  -6    3.11    0.28
   3   2   6    3.22    0.32
  -3  -2   6    2.96    0.33
  -3  -2   6    3.29    0.32
   3  -2   6    3.04    0.34
   3   2  -6    3.36    0.24
  -3   2   6    3.82    0.34
  -3  -2   7   14.33    0.81
   3   2   7   13.95    0.76
  -3  -2   7   14.60    0.76
   3  -2  -7   14.50    0.71
  -3   2   7   14.25    0.77
   3  -2   7   13.76    0.81
  -3  -2   8   -0.10    0.19
  -3  -2   8    0.24    0.25
   3  -2   8    0.22    0.25
  -3   2   8    0.05    0.22
   3  -3   0    0.14    0.06
  -3   3   0    0.10    0.07
   3  -3   0    0.02    0.04
   3   3   0   -0.02    0.05
  -3  -3   0    0.05    0.07
   3  -3   0    0.05    0.06
   3  -3   0    0.14    0.07
  -3  -3   1   25.21    0.99
  -3   3  -1   24.55    0.98
   3  -3  -1   22.46    0.98
   3  -3  -1   24.10    0.97
   3  -3  -1   21.65    0.97
  -3  -3   1   22.57    1.00
  -3   3   1   23.33    0.98
   3  -3   1   24.05    0.99
   3  -3   1   22.64    0.99
   3  -3   1   22.08    0.99
   3   3  -1   25.02    0.96
   3  -3  -2    1.35    0.14
  -3  -3   2    1.17    0.15
  -3  -3   2    1.99    0.16
  -3  -3   2    1.71    0.13
   3   3   2    1.67    0.13
   3  -3  -2    1.69    0.15
   3  -3   2    1.59    0.16
   3  -3   2    1.64    0.18
   3  -3   2    1.56    0.16
  -3   3   2    1.44    0.15
   3   3  -2    1.60    0.11
   3   3   3   72.72    2.94
   3  -3  -3   73.52    2.94
  -3  -3   3   72.69    2.99
   3  -3  -3   70.09    2.92
  -3  -3   3   70.92    2.93
  -3  -3   3   73.88    2.96
   3   3  -3   75.28    2.91
   3  -3   3   70.47    2.99
   3  -3   3   76.37    2.97
  -3   3   3   71.01    2.95
   3  -3   3   71.44    2.94
  -3  -3   4    3.74    0.28
   3   3   4    3.69    0.27
  -3  -3   4    3.19    0.31
  -3  -3   4    3.41    0.26
   3  -3  -4    3.60    0.26
   3  -3   4    3.78    0.25
  -3   3   4    3.55    0.28
   3   3  -4    3.52    0.21
   3  -3   4    3.80    0.33
   3  -3   4    3.97    0.29
   3   3   5   28.38    1.22
  -3  -3   5   26.67    1.23
   3  -3  -5   27.85    1.21
  -3  -3   5   28.55    1.22
  -3  -3   5   27.93    1.28
  -3   3   5   27.88    1.24
   3  -3   5   27.00    1.28
   3   3  -5   27.34    1.15
   3  -3   5   28.36    1.25
  -3  -3   6    4.43    0.43
   3  -3  -6    4.51    0.35
  -3  -3   6    5.34    0.39
   3   3   6    5.82    0.40
  -3  -3   6    5.33    0.41
   3  -3   6    5.60    0.46
   3  -3   6    5.74    0.43
  -3   3   6    5.52    0.41
   3  -3  -7    0.88    0.22
   3   3   7    0.95    0.23
  -3  -3   7    0.97    0.26
  -3  -3   7    1.16    0.24
  -3   3   7    0.98    0.23
   3  -3   7    1.00    0.27
  -3  -3   8    2.87    0.42
   3   3   8    2.84    0.36
  -3  -3   8    3.03    0.37
  -3   3   8    3.32    0.40
   3  -3   8    3.63    0.43
   3  -4   0    0.03    0.08
   3  -4   0    0.01    0.06
   3  -4   0   -0.01    0.05
  -3  -4   0    0.02    0.09
  -3  -4   0   -0.04    0.07
   3  -4   0    0.03    0.07
  -3   4   0    0.02    0.08
  -3  -4   0   -0.08    0.07
   3   4   0   -0.01    0.05
  -3  -4   1    0.23    0.10
  -3  -4   1    0.05    0.08
  -3   4  -1    0.20    0.08
   3  -4  -1    0.06    0.07
  -3  -4   1    0.21    0.09
   3  -4  -1    0.18    0.09
   3  -4  -1    0.06    0.06
   3  -4   1    0.11    0.08
   3   4  -1    0.19    0.06
   3  -4   1    0.16    0.08
   3  -4   1    0.15    0.09
  -3   4   1    0.17    0.09
   3   4   2    3.37    0.19
  -3  -4   2    3.46    0.24
   3  -4  -2    3.06    0.21
  -3  -4   2    3.54    0.25
  -3  -4   2    3.27    0.26
   3  -4  -2    2.99    0.22
  -3   4  -2    3.66    0.23
  -3   4   2    3.10    0.23
   3  -4   2    3.43    0.24
   3   4  -2    3.53    0.17
   3  -4   2    3.10    0.24
   3  -4   2    3.21    0.25
   3   4   3    1.21    0.14
  -3  -4   3    1.30    0.17
   3  -4  -3    1.04    0.14
   3  -4  -3    1.12    0.13
  -3  -4   3    1.25    0.17
  -3  -4   3    0.95    0.17
  -3  -4   3    1.04    0.13
   3  -4   3    1.13    0.15
   3  -4   3    1.09    0.18
   3  -4   3    1.35    0.17
  -3   4   3    1.14    0.16
  -3  -4   4    0.55    0.15
  -3  -4   4    0.60    0.13
   3   4   4    0.73    0.15
   3  -4  -4    0.55    0.14
  -3  -4   4    0.39    0.16
   3  -4   4    0.47    0.15
   3  -4   4    0.40    0.12
  -3   4   4    0.36    0.14
   3  -4   4    0.46    0.16
   3  -4  -5    2.48    0.24
  -3  -4   5    2.86    0.28
  -3  -4   5    2.41    0.29
  -3  -4   5    2.74    0.26
   3   4   5    2.21    0.24
  -3   4   5    2.10    0.25
   3  -4   5    2.26    0.29
   3  -4   5    2.61    0.28
  -3  -4   6    8.06    0.56
  -3  -4   6    7.41    0.51
   3  -4  -6    7.70    0.46
   3   4   6    8.48    0.50
  -3  -4   6    8.06    0.48
   3  -4   6    8.36    0.57
   3  -4   6    7.72    0.53
  -3   4   6    7.60    0.50
  -3  -4   7    2.79    0.38
   3   4   7    2.83    0.33
  -3  -4   7    3.23    0.37
   3  -4   7    3.35    0.41
  -3   4   7    2.90    0.34
   3  -5   0   -0.01    0.08
   3  -5   0    0.08    0.10
  -3  -5   0    0.04    0.08
  -3  -5   0    0.03    0.09
   3   5   0    0.05    0.07
  -3   5   0    0.09    0.09
  -3  -5   0   -0.03    0.10
   3  -5   0   -0.01    0.07
  -3  -5   1   11.81    0.60
  -3   5  -1   12.98    0.57
   3  -5  -1   12.94    0.58
  -3  -5   1   11.69    0.58
  -3  -5   1   12.67    0.60
   3  -5  -1   12.08    0.55
   3  -5  -1   12.11    0.59
   3   5  -1   13.56    0.53
   3  -5   1   11.84    0.59
  -3   5   1   12.18    0.56
   3  -5   1   13.05    0.59
  -3  -5  -1   11.59    0.59
   3  -5   1   11.77    0.58
  -3  -5   2    1.33    0.17
  -3  -5   2    1.32    0.19
  -3   5  -2    1.40    0.16
  -3  -5   2    1.61    0.19
   3  -5  -2    1.32    0.16
   3  -5  -2    1.45    0.15
   3  -5   2    1.41    0.18
   3  -5   2    1.50    0.18
   3  -5   2    1.35    0.18
  -3   5   2    1.42    0.17
  -3  -5   3   44.52    1.90
  -3   5  -3   45.46    1.85
   3  -5  -3   42.86    1.84
  -3  -5   3   43.62    1.87
   3  -5  -3   44.50    1.85
  -3  -5   3   44.85    1.88
   3  -5   3   45.92    1.88
   3  -5   3   43.37    1.90
  -3   5   3   44.45    1.86
   3  -5   3   44.75    1.87
  -3  -5   4    3.76    0.30
   3  -5  -4    3.67    0.28
  -3  -5   4    3.25    0.33
   3  -5   4    3.27    0.34
   3  -5   4    3.02    0.30
  -3   5   4    3.83    0.30
   3  -5   4    3.40    0.29
  -3  -5   5   14.07    0.76
  -3  -5   5   13.32    0.71
   3  -5  -5   13.33    0.67
   3  -5   5   12.99    0.75
  -3   5   5   13.37    0.69
   3  -5   5   13.20    0.71
  -3  -5   6    5.43    0.48
   3  -5  -6    5.01    0.38
  -3  -5   6    5.23    0.43
   3  -5   6    4.80    0.47
   3  -5   6    4.85    0.44
  -3   5   6    5.04    0.41
  -3  -5   7    0.17    0.24
  -3  -5   7   -0.11    0.21
  -3   5   7    0.01    0.19
   3  -5   7   -0.04    0.22
   3  -5   7   -0.01    0.22
   3  -6   0   -0.04    0.09
  -3   6   0   -0.01    0.10
   3  -6   0   -0.13    0.10
  -3  -6   0   -0.01    0.11
   3   6   0    0.05    0.07
  -3  -6   0   -0.11    0.12
  -3  -6   1    0.27    0.11
  -3  -6   1    0.41    0.15
  -3  -6   1    0.32    0.14
   3  -6  -1    0.50    0.14
   3  -6  -1    0.42    0.12
  -3   6  -1    0.48    0.12
   3  -6   1    0.63    0.15
   3  -6   1    0.63    0.14
  -3  -6  -1    0.35    0.15
   3  -6   1    0.26    0.11
  -3   6   1    0.39    0.12
   3  -6  -2    4.05    0.28
  -3  -6   2    3.72    0.30
   3  -6  -2    3.51    0.28
  -3  -6   2    4.14    0.31
  -3  -6   2    3.63    0.31
  -3   6  -2    3.62    0.27
   3  -6   2    3.54    0.30
  -3   6   2    3.93    0.27
   3  -6   2    3.52    0.29
   3  -6   2    3.59    0.30
  -3   6  -3    5.99    0.36
  -3  -6   3    5.95    0.39
   3  -6  -3    5.33    0.34
  -3  -6   3    5.50    0.40
  -3  -6   3    5.42    0.39
   3  -6  -3    5.42    0.35
   3  -6   3    5.49    0.37
   3  -6   3    5.51    0.38
   3  -6   3    5.40    0.40
  -3   6   3    5.42    0.36
   3  -6  -4    0.09    0.12
  -3  -6   4    0.24    0.17
  -3  -6   4    0.25    0.16
  -3   6  -4    0.02    0.13
   3  -6   4    0.03    0.15
   3  -6   4    0.06    0.15
  -3   6   4    0.10    0.15
   3  -6   4    0.21    0.15
  -3  -6   5    5.12    0.45
  -3  -6   5    5.52    0.43
   3  -6  -5    5.26    0.37
   3  -6   5    4.80    0.45
  -3   6   5    5.51    0.41
   3  -6   5    5.36    0.43
  -3  -6   6    2.39    0.32
  -3  -6   6    2.24    0.33
   3  -6  -6    2.48    0.35
   3  -6   6    2.01    0.31
  -3   6   6    1.93    0.28
   3  -6   6    2.54    0.36
  -3  -6   7    2.57    0.38
  -3  -6   7    2.82    0.41
  -3   6   7    2.70    0.35
   3  -6   7    3.06    0.41
   3  -6   7    2.99    0.40
  -3  -7   0    0.11    0.14
   3   7   0    0.02    0.08
   3  -7   0   -0.14    0.12
   3  -7   0    0.04    0.12
  -3  -7   0   -0.04    0.11
   3   7   1   10.22    0.48
   3  -7  -1   10.22    0.53
  -3  -7   1   10.08    0.55
   3  -7  -1    9.96    0.55
  -3  -7   1    9.11    0.55
  -3  -7  -1   10.17    0.56
   3  -7   1   10.14    0.54
   3  -7   1    9.85    0.55
  -3  -7  -1   10.23    0.55
  -3  -7   2    1.76    0.23
   3  -7  -2    2.11    0.22
  -3  -7   2    1.98    0.25
   3  -7  -2    1.82    0.22
  -3  -7   2    1.90    0.25
   3  -7   2    2.00    0.24
   3  -7   2    2.05    0.25
   3  -7   2    1.60    0.23
  -3  -7   3   36.41    1.59
  -3  -7   3   36.31    1.60
  -3  -7   3   36.25    1.60
   3  -7  -3   34.09    1.55
   3  -7   3   35.15    1.59
   3  -7   3   36.77    1.59
   3  -7   3   37.02    1.58
  -3  -7   4    5.06    0.42
  -3  -7   4    5.25    0.43
   3  -7   4    5.40    0.44
   3  -7   4    5.17    0.40
   3  -7   4    5.77    0.43
  -3  -7   5   13.91    0.78
   3  -7  -5   14.21    0.73
  -3  -7   5   14.09    0.81
   3  -7   5   14.38    0.79
   3  -7   5   13.77    0.81
  -3  -7   6    7.41    0.59
  -3  -7   6    6.60    0.55
   3  -7   6    7.18    0.59
   3  -7   6    7.74    0.56
  -3  -8   0    0.15    0.17
   3  -8   0    0.00    0.15
   3  -8   0    0.02    0.14
  -3  -8   0   -0.08    0.12
   3  -8  -1    0.08    0.15
  -3  -8   1    0.10    0.16
   3  -8  -1    0.20    0.14
  -3  -8   1    0.07    0.14
   3   8   1    0.14    0.10
   3  -8   1    0.14    0.14
  -3  -8  -1    0.05    0.13
  -3  -8  -1   -0.22    0.14
   3  -8   1    0.21    0.16
   3  -8  -2    1.69    0.24
  -3  -8   2    1.56    0.24
   3  -8  -2    1.59    0.22
  -3  -8   2    1.35    0.24
   3  -8   2    1.32    0.22
  -3  -8  -2    1.66    0.24
   3  -8   2    1.61    0.24
  -3  -8   3    0.64    0.21
  -3  -8   3    0.18    0.17
   3  -8  -3    0.11    0.14
  -3  -8   3    0.07    0.15
   3  -8   3    0.23    0.16
   3  -8   3    0.05    0.17
  -3  -8   4    0.15    0.19
  -3  -8   4   -0.04    0.17
   3  -8   4   -0.08    0.17
   3  -8   4    0.14    0.19
   3  -8   4    0.22    0.19
  -3  -8   5    0.07    0.22
  -3  -8   5    0.00    0.20
   3  -8   5    0.22    0.22
   3  -8   5    0.23    0.23
  -3  -9   0   -0.30    0.16
  -3  -9   0    0.06    0.16
   3  -9   0    0.12    0.16
   3  -9   0   -0.01    0.14
   3  -9  -1    3.92    0.37
  -3  -9   1    4.26    0.41
   3  -9  -1    4.56    0.37
  -3  -9   1    4.35    0.40
  -3  -9  -1    4.14    0.38
   3  -9   1    4.46    0.39
   3  -9   1    4.82    0.38
   3  -9  -2    0.91    0.21
   3   9   2    0.59    0.14
  -3  -9   2    0.69    0.23
   3  -9  -2    0.41    0.17
  -3  -9   2    0.75    0.22
   3  -9   2    0.78    0.23
   3  -9   2    0.86    0.22
  -3  -9  -2    0.68    0.21
  -3  -9   3   16.07    0.84
   3  -9  -3   14.38    0.79
  -3  -9   3   15.35    0.83
   3  -9   3   15.28    0.82
  -3  -9  -3   14.68    0.82
   3  -9   3   14.30    0.80
  -3  -9   4    1.92    0.32
   3  -9   4    2.14    0.32
   3  -9   4    1.97    0.31
   3 -10   0    0.16    0.19
   3 -10   0    0.09    0.17
  -3 -10   0    0.23    0.19
   3 -10  -1   -0.07    0.18
   3 -10  -1    0.02    0.17
  -3 -10   1    0.17    0.19
  -3 -10   1    0.17    0.20
   3 -10   1   -0.10    0.18
   3 -10   1    0.10    0.17
  -3 -10  -1   -0.10    0.17
  -3 -10   2    1.10    0.25
   3 -10  -2    0.64    0.20
   3 -10  -2    0.84    0.24
  -3 -10  -2    0.88    0.24
   3 -10   2    0.87    0.24
   3 -10   2    0.66    0.25
  -3 -10   3    0.17    0.21
   3 -10   3    0.20    0.23
  -3 -10  -3    0.26    0.19
   3 -10   3   -0.01    0.19
  -4   0   0  420.43   16.64
   4   0   0  416.52   16.62
  -4   0  -1  270.43   10.60
   4   0  -1  261.07   10.60
   4   0   1  270.65   10.60
  -4   0   1  266.25   10.60
  -4   0   2  183.79    7.51
  -4   0   2  182.13    7.50
   4   0   2  192.59    7.49
   4   0  -2  186.06    7.49
   4   0   2  196.43    7.52
   4   0  -3  211.08    8.44
  -4   0   3  209.91    8.46
   4   0   3  216.41    8.48
  -4   0   3  210.30    8.47
   4   0   3  212.57    8.43
  -4   0   4    5.58    0.36
   4   0  -4    6.14    0.33
  -4   0   4    6.26    0.38
   4   0   4    7.12    0.39
   4   0  -5   99.89    4.09
  -4   0   5  101.19    4.13
  -4   0   5  100.55    4.14
   4   0   5  104.00    4.16
  -4   0   6    0.20    0.17
   4   0   6    0.20    0.17
  -4   0   6    0.27    0.17
   4   0  -6    0.15    0.12
  -4   0   7    9.02    0.55
   4   0   7    7.17    0.54
  -4   0   7    8.69    0.55
   4   0  -7    7.92    0.45
  -4   0   8    0.17    0.22
   4  -1   0    0.55    0.07
  -4   1   0    0.63    0.09
   4  -1   0    0.52    0.08
   4   1   0    0.59    0.08
  -4   1  -1    0.38    0.09
  -4  -1   1    1.00    0.10
   4   1  -1    0.90    0.08
   4  -1   1    0.15    0.07
   4  -1   1    0.20    0.08
  -4   1   1    0.99    0.10
   4  -1   1    0.58    0.06
   4  -1   1    0.30    0.07
  -4  -1   2    8.32    0.40
  -4  -1   2    7.46    0.36
   4  -1  -2    8.01    0.37
  -4  -1   2    7.89    0.37
   4  -1  -2    8.44    0.36
   4  -1   2    7.91    0.38
  -4   1   2    8.04    0.39
   4  -1   2    8.08    0.40
   4  -1   2    7.94    0.37
   4   1  -2    8.40    0.37
  -4   1   2    7.92    0.38
  -4  -1   3    3.57    0.24
   4  -1  -3    3.85    0.23
  -4  -1   3    3.98    0.22
  -4  -1   3    3.91    0.26
  -4   1   3    3.92    0.25
  -4   1   3    3.36    0.25
   4   1  -3    3.79    0.22
   4  -1  -4   46.50    1.95
  -4  -1   4   48.33    2.01
  -4  -1   4   47.15    1.97
  -4  -1   4   45.81    1.96
   4   1   4   47.29    1.99
  -4   1   4   49.52    1.98
   4  -1   4   47.86    2.01
  -4   1   4   48.50    1.99
   4  -1   4   47.21    1.98
   4   1  -4   47.93    1.95
   4  -1  -5    1.07    0.16
   4   1   5    0.51    0.16
  -4  -1   5    1.09    0.20
  -4  -1   5    1.24    0.20
   4   1  -5    0.96    0.14
  -4   1   5    1.11    0.18
   4  -1   5    0.49    0.18
  -4   1   5    1.16    0.20
   4   1   6   37.12    1.69
  -4  -1   6   38.62    1.69
  -4  -1   6   40.38    1.72
   4  -1  -6   39.31    1.64
   4  -1   6   37.39    1.72
  -4   1   6   39.16    1.69
   4   1  -6   39.35    1.63
   4  -1  -7    0.70    0.17
  -4  -1   7    0.89    0.24
  -4  -1   7    0.95    0.25
  -4   1   7    1.16    0.25
   4  -1   7    1.33    0.28
   4   1  -7    0.95    0.17
  -4  -1   8    7.32    0.59
  -4  -1   8    7.72    0.55
  -4   1   8    7.30    0.55
   4  -1   8    6.23    0.56
   4   2   0    2.20    0.14
  -4   2   0    2.35    0.16
   4  -2   0    2.20    0.13
   4  -2   0    2.31    0.17
   4  -2  -1    0.34    0.07
  -4  -2   1    0.42    0.08
  -4   2  -1    0.15    0.08
   4  -2  -1    0.46    0.08
  -4  -2   1    0.53    0.10
   4  -2   1    0.21    0.07
  -4   2   1    0.44    0.09
   4  -2   1    0.16    0.07
   4   2  -1    0.47    0.07
   4  -2   1    0.14    0.08
  -4  -2   2   26.88    1.11
  -4  -2   2   27.54    1.15
   4  -2  -2   27.88    1.12
  -4  -2   2   26.45    1.12
   4  -2  -2   28.14    1.11
   4  -2   2   25.72    1.13
  -4   2   2   27.56    1.11
  -4   2   2   26.80    1.13
   4   2  -2   26.73    1.10
   4  -2   2   25.95    1.15
   4  -2   2   25.65    1.12
  -4  -2   3    2.73    0.19
  -4  -2   3    2.41    0.20
   4  -2  -3    2.29    0.19
  -4  -2   3    2.72    0.24
   4  -2  -3    2.46    0.16
  -4   2   3    2.50    0.22
  -4   2   3    2.48    0.19
   4   2  -3    2.50    0.17
  -4  -2   4   42.70    1.80
   4   2   4   41.61    1.76
   4   2   4   42.28    1.76
  -4  -2   4   41.38    1.76
   4  -2  -4   42.46    1.75
  -4  -2   4   40.56    1.75
   4  -2   4   42.29    1.78
   4  -2   4   41.80    1.80
  -4   2   4   43.65    1.75
   4  -2   4   42.63    1.73
  -4   2   4   41.61    1.77
   4   2  -4   42.02    1.72
   4   2   5    2.55    0.24
   4  -2  -5    1.71    0.20
  -4  -2   5    1.54    0.22
   4   2   5    2.31    0.24
  -4  -2   5    1.53    0.21
  -4  -2   5    1.92    0.25
   4   2  -5    1.60    0.17
  -4   2   5    1.66    0.24
   4  -2   5    2.59    0.28
  -4  -2   6   27.84    1.29
   4   2   6   30.27    1.29
   4  -2  -6   28.53    1.26
  -4  -2   6   27.14    1.33
  -4   2   6   28.84    1.30
   4   2  -6   27.99    1.22
   4  -2   6   30.35    1.35
  -4  -2   7    1.40    0.28
  -4  -2   7    1.10    0.24
   4  -2  -7    1.07    0.21
  -4   2   7    1.30    0.27
   4  -2   7    1.00    0.28
  -4  -2   8    4.89    0.52
  -4  -2   8    5.07    0.47
   4  -2   8    4.91    0.52
  -4   2   8    4.66    0.47
   4  -3   0   35.01    1.40
   4   3   0   33.26    1.41
   4  -3   0   34.98    1.43
   4  -3   0   35.51    1.42
  -4   3   0   34.03    1.42
   4  -3  -1   34.36    1.36
   4  -3  -1   35.27    1.36
  -4   3  -1   31.05    1.38
   4  -3  -1   36.40    1.39
  -4  -3   1   35.25    1.39
  -4  -3   1   35.46    1.40
   4  -3   1   31.10    1.39
   4  -3   1   30.34    1.34
   4   3  -1   33.95    1.36
  -4   3   1   34.63    1.38
   4  -3   1   31.46    1.38
   4  -3   1   30.99    1.38
  -4  -3   2    5.17    0.26
   4  -3  -2    5.00    0.27
  -4   3  -2    4.72    0.28
  -4  -3   2    5.30    0.32
  -4  -3   2    4.94    0.28
   4  -3  -2    5.36    0.27
   4   3  -2    4.85    0.24
  -4   3   2    4.99    0.29
   4  -3   2    4.99    0.31
   4  -3   2    5.02    0.29
   4  -3   2    4.39    0.28
  -4  -3   3   24.81    1.03
  -4  -3   3   24.35    0.99
  -4  -3   3   24.38    0.97
   4   3   3   20.41    0.97
   4  -3  -3   24.35    0.98
   4  -3  -3   24.55    0.96
   4  -3   3   19.83    1.01
   4  -3   3   19.40    0.97
   4  -3   3   19.33    0.99
   4   3  -3   25.10    0.95
  -4   3   3   23.77    0.99
   4   3   4   10.86    0.52
  -4  -3   4    9.95    0.52
   4  -3  -4   10.46    0.51
  -4  -3   4   10.90    0.57
  -4  -3   4   10.40    0.51
   4  -3   4    9.86    0.54
   4  -3   4   10.10    0.51
  -4   3   4    9.85    0.53
   4  -3   4   10.50    0.58
   4   3  -4   10.83    0.47
  -4  -3   5    9.52    0.56
  -4  -3   5   10.19    0.52
   4  -3  -5    9.80    0.50
   4   3   5    8.29    0.50
  -4  -3   5    9.90    0.51
   4   3  -5    9.91    0.45
  -4   3   5   10.07    0.53
   4  -3   5    7.61    0.54
   4  -3   5    9.20    0.54
  -4  -3   6   17.24    0.91
  -4  -3   6   16.72    0.83
  -4  -3   6   17.40    0.85
   4   3   6   16.78    0.84
   4  -3  -6   18.10    0.82
   4  -3   6   16.83    0.90
  -4   3   6   17.56    0.86
   4   3   7    0.19    0.19
  -4  -3   7   -0.04    0.20
  -4  -3   7    0.04    0.18
   4  -3   7   -0.03    0.20
  -4   3   7    0.00    0.19
  -4  -3   8    3.83    0.46
  -4  -3   8    3.11    0.38
   4  -3   8    3.45    0.45
  -4   3   8    3.44    0.40
   4  -4   0  143.17    5.77
  -4  -4   0  144.76    5.80
   4   4   0  142.22    5.76
   4  -4   0  144.66    5.79
  -4  -4   0  144.41    5.78
   4  -4   0  145.53    5.75
  -4   4   0  143.62    5.78
   4  -4   0  147.57    5.78
  -4  -4   1   80.26    3.39
  -4   4  -1   86.19    3.38
   4  -4  -1   82.55    3.37
  -4  -4   1   83.54    3.39
   4  -4  -1   83.05    3.36
   4  -4  -1   82.83    3.38
  -4   4   1   80.55    3.37
   4  -4   1   86.44    3.38
   4   4  -1   80.30    3.35
   4  -4   1   87.49    3.39
   4  -4   1   86.61    3.39
  -4  -4   2   70.18    2.95
   4  -4  -2   70.63    2.93
  -4  -4   2   69.03    2.96
   4  -4  -2   71.53    2.93
  -4   4  -2   73.84    2.94
   4  -4   2   76.69    2.95
   4  -4   2   76.52    2.97
   4   4  -2   70.38    2.90
   4  -4   2   74.13    2.95
  -4   4   2   70.49    2.94
  -4  -4   3  109.33    4.49
  -4  -4   3  107.83    4.46
  -4  -4   3  106.06    4.42
   4  -4  -3  107.77    4.44
   4  -4  -3  107.72    4.43
   4   4   3  113.54    4.44
   4  -4   3  113.79    4.48
   4   4  -3  108.45    4.40
   4  -4   3  115.11    4.46
   4  -4   3  117.12    4.50
  -4   4   3  106.30    4.45
   4  -4  -4    2.00    0.21
  -4  -4   4    2.02    0.25
   4   4   4    2.26    0.21
  -4  -4   4    1.69    0.21
  -4  -4   4    2.36    0.22
   4  -4   4    2.38    0.23
   4  -4   4    1.92    0.24
   4  -4   4    2.13    0.26
  -4   4   4    1.63    0.22
  -4  -4   5   58.28    2.59
   4   4   5   64.00    2.53
   4  -4  -5   61.43    2.53
  -4  -4   5   59.55    2.52
  -4  -4   5   59.58    2.55
  -4   4   5   60.42    2.55
   4  -4   5   60.70    2.57
   4  -4   5   63.45    2.61
  -4  -4   6    0.37    0.22
  -4  -4   6    0.29    0.16
   4  -4  -6    0.66    0.18
  -4  -4   6    0.45    0.19
   4   4   6    0.35    0.18
   4  -4   6    0.70    0.23
  -4   4   6    0.22    0.18
   4  -4   6    0.58    0.22
   4   4   7    4.37    0.52
  -4  -4   7    5.44    0.43
  -4  -4   7    4.65    0.50
  -4  -4   7    4.34    0.45
   4  -4   7    4.89    0.50
  -4   4   7    5.09    0.45
  -4  -5   0    5.93    0.34
  -4  -5   0    5.82    0.32
  -4   5   0    5.47    0.31
   4  -5   0    5.32    0.30
   4   5   0    5.59    0.29
   4  -5   0    5.49    0.32
   4  -5   0    5.51    0.33
  -4  -5   1   11.27    0.58
   4  -5  -1   10.97    0.54
   4  -5  -1   11.26    0.58
  -4   5  -1   13.18    0.57
   4   5   1   13.13    0.55
   4  -5  -1   10.82    0.56
  -4  -5   1   11.16    0.59
   4  -5   1   13.61    0.60
   4  -5   1   13.97    0.59
   4   5  -1   10.79    0.53
   4  -5   1   13.75    0.59
  -4   5   1   11.75    0.57
  -4  -5  -1   13.26    0.58
  -4   5  -2   23.78    1.10
  -4  -5   2   25.80    1.14
   4  -5  -2   26.11    1.11
  -4  -5   2   27.02    1.14
   4  -5  -2   26.77    1.10
   4  -5  -2   26.12    1.12
  -4   5   2   25.43    1.11
   4  -5   2   25.04    1.13
   4   5  -2   26.12    1.06
   4  -5   2   26.14    1.14
   4  -5   2   24.93    1.12
  -4  -5   3    1.85    0.21
  -4  -5   3    1.68    0.22
   4  -5  -3    1.82    0.18
   4  -5  -3    1.30    0.17
  -4   5   3    1.84    0.21
  -4  -5   4   59.25    2.49
  -4  -5   4   61.95    2.53
   4  -5  -4   60.40    2.46
   4  -5   4   55.99    2.49
   4  -5   4   58.75    2.53
   4  -5   4   60.23    2.47
  -4   5   4   59.70    2.48
  -4  -5   5    1.01    0.21
  -4  -5   5    1.08    0.24
   4  -5  -5    1.07    0.19
   4  -5   5    1.93    0.26
   4  -5   5    1.82    0.28
  -4   5   5    1.27    0.23
  -4  -5   6   39.10    1.71
  -4  -5   6   38.83    1.77
   4  -5  -6   38.73    1.67
   4  -5   6   37.49    1.76
   4  -5   6   37.05    1.73
  -4   5   6   39.11    1.70
  -4  -5   7    2.61    0.36
  -4  -5   7    2.24    0.35
   4  -5   7    2.05    0.34
  -4   5   7    1.93    0.31
   4  -5   7    2.43    0.38
  -4  -6   0    1.80    0.21
   4  -6   0    2.23    0.23
  -4   6   0    2.08    0.20
   4  -6   0    1.94    0.20
   4   6   0    2.01    0.17
   4  -6  -1    2.73    0.23
  -4   6  -1    3.19    0.24
   4  -6  -1    2.82    0.26
  -4  -6   1    2.36    0.25
  -4  -6   1    2.43    0.24
   4   6   1    3.37    0.21
   4  -6   1    3.24    0.27
   4  -6   1    3.51    0.26
   4   6  -1    2.56    0.18
  -4   6   1    2.59    0.23
   4  -6   1    3.14    0.25
  -4   6  -2    1.24    0.18
  -4  -6   2    1.82    0.21
  -4  -6   2    1.66    0.21
   4  -6  -2    1.72    0.20
   4  -6  -2    1.42    0.18
   4  -6   2    1.10    0.19
   4  -6   2    1.37    0.20
   4  -6   2    1.35    0.20
  -4   6   2    1.79    0.20
  -4  -6   3    8.65    0.54
   4  -6  -3    7.96    0.47
   4  -6  -3    8.39    0.48
  -4   6  -3   10.67    0.50
  -4  -6   3    8.10    0.52
   4  -6   3   10.44    0.52
  -4   6   3    8.61    0.50
   4  -6   3   10.53    0.53
   4  -6   3   10.42    0.55
  -4  -6   4   12.01    0.65
  -4  -6   4   12.48    0.68
  -4   6  -4   11.57    0.61
   4  -6  -4   12.21    0.61
   4  -6   4   11.76    0.65
   4  -6   4   12.17    0.68
  -4   6   4   11.10    0.61
   4  -6   4   12.33    0.63
  -4   6  -5    4.94    0.38
  -4  -6   5    4.01    0.38
   4  -6  -5    4.16    0.35
  -4  -6   5    4.29    0.43
   4  -6   5    5.30    0.45
  -4   6   5    4.48    0.39
   4  -6   5    5.07    0.42
  -4  -6   6   10.14    0.71
  -4  -6   6   10.46    0.67
   4  -6   6   12.20    0.71
  -4   6   6   10.38    0.65
   4  -6   6   13.28    0.75
  -4  -6   7   -0.01    0.24
  -4  -6   7    0.00    0.23
   4  -6   7    0.07    0.24
   4  -6   7    0.25    0.25
  -4   6   7    0.08    0.21
   4   7   0   30.17    1.25
  -4  -7   0   30.03    1.34
   4  -7   0   29.63    1.31
   4  -7   0   29.99    1.33
  -4  -7   1   30.55    1.32
   4   7   1   28.08    1.24
   4  -7  -1   30.03    1.29
   4  -7  -1   31.10    1.31
  -4  -7  -1   27.86    1.31
   4  -7   1   28.80    1.30
   4  -7   1   29.37    1.31
  -4  -7   2   10.69    0.59
  -4  -7   2   10.99    0.58
   4  -7  -2   11.10    0.56
   4  -7  -2   10.53    0.57
   4  -7   2   10.44    0.58
   4  -7   2   10.44    0.58
  -4  -7   3   23.93    1.08
   4  -7  -3   24.39    1.06
  -4  -7   3   24.52    1.08
   4  -7  -3   23.98    1.04
   4  -7   3   20.44    1.06
   4  -7   3   20.05    1.04
   4  -7   3   20.88    1.04
  -4  -7   4    1.11    0.23
  -4  -7   4    0.86    0.22
   4  -7   4    0.60    0.20
   4  -7   4    0.64    0.21
   4  -7   4    0.72    0.21
  -4  -7   5   10.15    0.63
  -4  -7   5    9.92    0.65
   4  -7  -5   11.20    0.57
   4  -7   5    8.78    0.64
   4  -7   5    9.28    0.63
  -4  -7   6    4.56    0.46
  -4  -7   6    4.89    0.50
   4  -7   6    5.16    0.49
   4  -7   6    4.27    0.47
   4  -8   0   23.52    1.08
   4  -8   0   23.29    1.10
  -4  -8   0   24.03    1.11
   4  -8  -1   11.51    0.64
   4   8   1   12.33    0.57
  -4  -8   1   10.93    0.64
   4  -8  -1   11.23    0.62
   4  -8   1   12.33    0.64
   4  -8   1   12.86    0.66
  -4  -8  -1   12.35    0.66
   4  -8  -2    8.61    0.51
   4   8   2    9.26    0.48
  -4  -8   2    8.84    0.56
   4  -8  -2    8.56    0.53
  -4  -8  -2    9.53    0.56
   4  -8   2    9.73    0.55
   4  -8   2    9.78    0.56
  -4  -8   3   21.30    1.08
  -4  -8   3   21.61    1.09
   4  -8   3   23.12    1.08
   4  -8   3   24.22    1.09
  -4  -8   4    0.40    0.20
  -4  -8   4    0.25    0.20
   4  -8   4    0.10    0.20
   4  -8   4    0.21    0.19
   4  -8   4    0.04    0.17
  -4  -8   5   13.76    0.80
  -4  -8   5   14.15    0.84
   4  -8   5   13.53    0.81
   4  -8   5   14.38    0.83
   4  -9   0    5.17    0.41
  -4  -9   0    4.75    0.40
   4  -9   0    4.79    0.39
   4  -9  -1    9.14    0.56
   4  -9  -1    9.45    0.59
  -4  -9   1    8.71    0.59
  -4  -9  -1   10.54    0.61
   4  -9   1   10.33    0.60
   4  -9   1   10.28    0.58
   4  -9  -2   13.63    0.74
  -4  -9   2   13.71    0.77
   4   9   2   13.61    0.67
   4  -9  -2   14.21    0.77
  -4  -9  -2   14.24    0.77
   4  -9   2   13.61    0.76
   4  -9   2   13.15    0.75
  -4  -9   3    2.39    0.35
   4  -9   3    4.38    0.41
   4  -9   3    3.76    0.38
  -4  -9   4   28.66    1.35
   4  -9   4   27.35    1.32
   4  -9   4   27.30    1.33
  -4 -10   0    6.47    0.49
   4 -10   0    6.32    0.47
   4 -10   0    5.53    0.48
   4 -10  -1    7.41    0.51
   4 -10  -1    7.65    0.54
  -4 -10   1    7.15    0.54
   4 -10   1    7.83    0.56
  -4 -10  -1    7.97    0.55
   4 -10   1    7.45    0.52
  -4 -10   2    1.14    0.27
   4 -10  -2    0.93    0.24
   4 -10   2    1.50    0.28
   4 -10   2    1.66    0.30
  -4 -10  -2    1.39    0.28
  -4 -10   3    9.82    0.68
   4 -10   3   10.29    0.66
   4 -10   3   10.76    0.68
  -4 -10  -3   11.05    0.69
   5   0   0   -0.04    0.05
  -5   0   0    0.06    0.07
   5   0  -1   32.24    1.29
   5   0   1   30.93    1.28
  -5   0  -1   31.87    1.29
  -5   0   1   30.81    1.29
   5   0   2   22.03    0.95
  -5   0   2   21.98    0.95
  -5   0   2   21.65    0.93
   5   0  -2   22.30    0.92
   5   0   3   54.39    2.33
  -5   0   3   55.63    2.31
   5   0   3   58.04    2.29
   5   0  -3   56.10    2.29
  -5   0   3   57.85    2.33
  -5   0   4   20.93    0.97
  -5   0   4   20.91    0.95
   5   0  -4   21.96    0.93
   5   0   4   21.83    0.98
   5   0   5   14.34    0.72
  -5   0   5   14.30    0.69
   5   0  -5   13.85    0.65
  -5   0   5   12.87    0.69
   5   0   6   13.01    0.72
  -5   0   6   13.38    0.69
   5   0  -6   13.55    0.64
  -5   0   6   12.45    0.70
   5   0   7    0.27    0.21
   5   0  -7    0.46    0.16
  -5   0   7    0.41    0.21
  -5   0   7    0.34    0.24
  -5   0   8    9.45    0.64
   5  -1   0    0.07    0.05
  -5  -1   0   -0.01    0.06
  -5   1   0    0.06    0.08
   5   1   0    0.03    0.06
   5  -1   0    0.03    0.07
   5  -1  -1    5.83    0.28
   5  -1  -1    6.14    0.29
  -5  -1   1    5.48    0.28
   5   1   1    5.71    0.28
  -5   1  -1    5.73    0.29
  -5   1   1    6.09    0.30
   5  -1   1    6.21    0.28
   5   1  -1    6.33    0.29
   5  -1   1    5.83    0.28
   5  -1   1    5.90    0.29
  -5  -1  -1    5.89    0.28
   5  -1  -2    0.00    0.07
  -5  -1   2    0.03    0.08
  -5  -1   2    0.03    0.09
  -5  -1   2    0.04    0.05
   5  -1  -2   -0.06    0.06
   5   1  -2   -0.08    0.06
   5  -1   2    0.05    0.09
   5  -1   2   -0.02    0.07
  -5   1   2    0.04    0.08
   5   1   3   19.54    0.85
   5  -1  -3   18.89    0.82
  -5  -1   3   19.39    0.87
  -5  -1   3   19.56    0.81
   5  -1  -3   18.84    0.80
  -5  -1   3   18.03    0.83
   5  -1   3   19.03    0.87
  -5   1   3   19.19    0.84
   5  -1   3   19.50    0.82
   5   1  -3   19.96    0.82
  -5   1   3   18.47    0.84
  -5  -1   4    3.00    0.26
  -5  -1   4    3.43    0.24
   5   1   4    2.81    0.26
   5  -1  -4    3.19    0.23
  -5  -1   4    3.17    0.29
   5  -1   4    2.90    0.21
  -5   1   4    3.07    0.26
   5  -1   4    3.15    0.29
  -5   1   4    3.04    0.27
   5   1  -4    3.26    0.22
   5   1   5   10.00    0.56
  -5  -1   5   10.18    0.58
  -5  -1   5   10.19    0.55
   5  -1  -5   10.08    0.52
   5   1  -5   10.65    0.51
  -5   1   5   10.78    0.56
   5  -1   5   10.28    0.59
  -5   1   5   10.65    0.56
  -5  -1   6   13.74    0.70
   5   1   6   12.54    0.70
   5  -1  -6   13.78    0.65
  -5  -1   6   13.69    0.73
  -5   1   6   13.88    0.71
   5  -1   6   11.49    0.72
   5   1  -6   13.93    0.64
   5  -1  -7    2.92    0.28
  -5  -1   7    2.93    0.34
  -5  -1   7    2.56    0.34
   5   1  -7    2.89    0.26
   5  -1   7    2.39    0.33
  -5   1   7    3.19    0.34
  -5  -1   8    5.12    0.48
  -5  -1   8    4.32    0.47
  -5   1   8    5.49    0.48
   5  -1   8    4.31    0.48
   5  -2   0   -0.04    0.05
  -5   2   0    0.02    0.08
   5   2   0    0.07    0.06
   5  -2   0   -0.06    0.07
  -5  -2   1   16.17    0.66
   5  -2  -1   14.94    0.65
   5   2   1   15.20    0.66
  -5  -2   1   14.04    0.64
  -5   2  -1   15.92    0.67
   5  -2  -1   14.92    0.67
   5  -2   1   16.85    0.64
   5   2  -1   15.89    0.65
   5  -2   1   16.26    0.66
   5  -2   1   14.00    0.68
  -5   2   1   15.10    0.67
   5  -2   1   15.11    0.67
  -5  -2   2    0.22    0.08
   5  -2  -2    0.28    0.08
   5  -2  -2    0.22    0.08
  -5  -2   2    0.13    0.10
  -5   2  -2    0.20    0.09
  -5  -2   2    0.30    0.08
  -5   2   2    0.14    0.09
   5  -2   2    0.18    0.05
   5  -2   2    0.17    0.08
   5  -2   2    0.22    0.09
   5  -2   2    0.24    0.10
   5   2  -2    0.31    0.08
  -5  -2   3   49.33    2.08
  -5  -2   3   48.27    2.04
  -5  -2   3   50.58    2.03
   5  -2  -3   51.17    2.04
   5  -2  -3   47.99    2.01
   5   2  -3   49.30    2.02
   5  -2   3   52.49    2.06
   5  -2   3   51.31    2.04
  -5   2   3   48.63    2.04
  -5   2   3   48.34    2.05
   5  -2   3   49.26    2.08
  -5  -2   4    2.63    0.28
   5   2   4    2.58    0.24
  -5  -2   4    2.44    0.24
   5  -2  -4    2.41    0.22
  -5  -2   4    2.69    0.23
   5  -2   4    2.85    0.21
  -5   2   4    2.40    0.25
  -5   2   4    2.71    0.25
   5  -2   4    2.64    0.26
   5   2  -4    2.84    0.20
   5  -2   4    2.84    0.29
  -5  -2   5    2.42    0.29
  -5  -2   5    3.15    0.27
  -5  -2   5    2.84    0.28
   5  -2  -5    3.01    0.26
   5   2   5    3.08    0.29
   5   2  -5    3.27    0.23
  -5   2   5    2.55    0.27
   5  -2   5    3.33    0.34
  -5  -2   6    8.31    0.54
  -5  -2   6    8.35    0.50
   5  -2  -6    7.61    0.45
   5  -2   6    8.22    0.56
  -5   2   6    7.90    0.51
   5   2  -6    7.62    0.42
   5  -2  -7    2.73    0.32
  -5  -2   7    4.21    0.39
  -5  -2   7    3.49    0.39
  -5   2   7    2.84    0.35
   5  -2   7    2.66    0.36
  -5  -2   8    4.20    0.43
  -5  -2   8    4.40    0.48
   5  -2   8    4.49    0.47
  -5   2   8    3.88    0.43
  -5   3   0   -0.04    0.08
   5   3   0   -0.01    0.06
   5  -3   0    0.03    0.05
   5  -3   0    0.05    0.08
   5  -3   0    0.06    0.06
   5  -3  -1    1.43    0.11
   5   3   1    1.22    0.12
  -5  -3   1    1.20    0.15
   5  -3  -1    1.57    0.13
  -5  -3   1    1.32    0.13
   5  -3  -1    1.23    0.14
  -5   3  -1    1.33    0.14
   5  -3   1    1.28    0.14
   5  -3   1    1.41    0.13
   5  -3   1    1.34    0.10
   5  -3   1    1.18    0.14
   5   3  -1    1.50    0.12
  -5   3   1    1.45    0.15
   5  -3  -2   -0.05    0.07
  -5   3  -2    0.11    0.10
  -5  -3   2    0.01    0.07
   5  -3  -2   -0.06    0.08
  -5  -3   2    0.03    0.08
  -5  -3   2    0.09    0.10
   5  -3   2    0.06    0.09
   5   3  -2    0.02    0.07
   5  -3   2   -0.04    0.08
  -5   3   2   -0.10    0.09
   5  -3   2    0.12    0.10
  -5  -3   3    3.17    0.23
  -5  -3   3    3.31    0.24
   5  -3  -3    3.06    0.21
  -5  -3   3    3.14    0.28
   5  -3  -3    3.15    0.23
   5  -3   3    3.14    0.29
   5  -3   3    3.18    0.24
   5   3  -3    3.09    0.20
  -5   3   3    3.32    0.26
   5  -3  -4    4.83    0.32
  -5  -3   4    5.34    0.33
  -5  -3   4    5.43    0.34
   5  -3   4    4.85    0.39
   5  -3   4    5.10    0.32
   5   3  -4    5.48    0.28
   5  -3   4    5.29    0.36
  -5   3   4    5.32    0.37
  -5  -3   5    0.64    0.16
  -5  -3   5    0.56    0.16
  -5  -3   5    0.44    0.18
   5  -3  -5    0.56    0.15
   5  -3   5    0.69    0.19
   5  -3   5    0.28    0.18
   5   3  -5    0.70    0.12
  -5   3   5    0.52    0.17
  -5  -3   6   14.35    0.81
  -5  -3   6   15.15    0.75
  -5  -3   6   14.23    0.76
   5  -3  -6   15.44    0.73
   5  -3   6   14.23    0.82
  -5   3   6   15.37    0.78
  -5  -3   7    0.32    0.20
  -5  -3   7    0.19    0.22
   5  -3   7    0.27    0.24
  -5   3   7    0.43    0.23
  -5  -3   8    5.69    0.50
  -5  -3   8    5.77    0.57
   5  -3   8    5.55    0.56
  -5   3   8    6.08    0.52
   5  -4   0    0.05    0.07
  -5  -4   0    0.06    0.09
  -5   4   0    0.09    0.10
   5   4   0   -0.02    0.07
   5  -4   0    0.03    0.06
   5  -4   0   -0.19    0.08
  -5   4  -1   17.97    0.76
  -5  -4   1   16.39    0.77
   5  -4  -1   16.57    0.75
   5   4   1   16.34    0.73
  -5  -4   1   17.50    0.76
   5  -4  -1   16.19    0.73
   5  -4  -1   16.38    0.73
   5  -4   1   17.53    0.75
   5  -4   1   16.53    0.76
  -5   4   1   16.81    0.75
   5  -4   1   16.56    0.76
   5   4  -1   18.10    0.73
  -5  -4   2   10.54    0.54
   5  -4  -2   10.49    0.49
   5  -4  -2   10.58    0.48
  -5   4  -2   11.29    0.52
   5  -4  -2   10.07    0.50
  -5  -4   2   10.82    0.52
   5  -4   2    9.99    0.53
   5  -4   2   10.48    0.52
   5  -4   2   10.31    0.51
  -5   4   2   10.09    0.52
   5   4  -2   10.43    0.47
  -5   4  -3   38.97    1.60
   5  -4  -3   35.24    1.57
  -5  -4   3   38.25    1.64
  -5  -4   3   38.22    1.60
   5  -4   3   37.40    1.59
   5   4  -3   38.37    1.54
  -5   4   3   37.58    1.60
   5  -4   3   36.65    1.63
   5  -4   3   38.48    1.61
  -5  -4   4   11.56    0.53
  -5  -4   4   10.43    0.60
   5  -4  -4   10.74    0.54
  -5  -4   4   10.33    0.55
   5  -4   4   10.42    0.57
  -5   4   4   10.76    0.58
   5  -4   4   10.47    0.54
   5  -4   4   10.11    0.60
   5   4  -4   10.98    0.48
  -5  -4   5    9.13    0.49
   5  -4  -5    8.36    0.48
  -5  -4   5    8.57    0.56
  -5  -4   5    8.74    0.51
   5  -4   5    8.71    0.57
   5  -4   5    9.24    0.54
  -5   4   5    8.23    0.52
  -5  -4   6    6.48    0.42
  -5  -4   6    5.93    0.44
  -5  -4   6    5.94    0.50
  -5   4   6    5.87    0.46
   5  -4   6    5.35    0.47
   5  -4   6    5.21    0.49
  -5  -4   7    0.65    0.25
  -5  -4   7    0.99    0.23
   5  -4   7    0.33    0.25
  -5   4   7    0.40    0.22
  -5  -5   0    0.01    0.10
  -5   5   0    0.09    0.11
   5  -5   0    0.12    0.11
  -5  -5   0   -0.01    0.09
   5   5   0   -0.02    0.08
   5  -5   0    0.02    0.09
   5   5   1    5.45    0.30
   5  -5  -1    5.57    0.34
   5  -5  -1    5.68    0.31
  -5  -5   1    5.66    0.34
  -5  -5   1    4.99    0.34
  -5   5  -1    5.74    0.33
   5  -5   1    5.38    0.32
   5   5  -1    5.64    0.29
   5  -5   1    5.69    0.34
   5  -5   1    5.30    0.34
  -5   5   1    5.40    0.33
  -5  -5  -1    5.29    0.31
   5  -5  -2    0.14    0.09
   5  -5  -2    0.15    0.11
  -5  -5   2    0.02    0.11
  -5  -5   2   -0.05    0.10
   5  -5  -2    0.00    0.09
  -5   5  -2    0.23    0.13
  -5   5   2    0.00    0.12
   5  -5   2    0.07    0.12
   5   5  -2    0.16    0.08
   5  -5   2    0.07    0.11
   5  -5   2   -0.09    0.11
   5  -5  -3   24.78    1.12
  -5  -5   3   25.21    1.18
  -5   5  -3   27.62    1.14
   5  -5  -3   25.80    1.12
  -5  -5   3   26.01    1.15
   5  -5   3   26.56    1.16
   5  -5   3   24.96    1.14
  -5   5   3   25.56    1.14
   5  -5   3   25.68    1.18
   5   5  -3   26.38    1.07
  -5   5  -4    0.98    0.19
   5  -5  -4    1.03    0.17
  -5  -5   4    1.05    0.21
  -5  -5   4    1.14    0.19
   5  -5   4    0.95    0.22
   5  -5   4    1.06    0.18
   5  -5   4    0.98    0.20
  -5   5   4    1.21    0.21
  -5  -5   5   17.86    0.89
   5  -5  -5   18.44    0.86
  -5  -5   5   17.47    0.92
  -5   5   5   18.10    0.89
   5  -5   5   18.06    0.90
   5  -5   5   18.15    0.94
  -5  -5   6    7.15    0.56
  -5  -5   6    7.73    0.52
   5  -5  -6    7.47    0.47
   5  -5   6    7.22    0.58
  -5   5   6    7.28    0.52
   5  -5   6    6.92    0.55
  -5  -5   7    7.82    0.63
  -5   5   7    8.42    0.58
   5  -5   7    7.89    0.65
   5  -5   7    7.99    0.60
  -5  -6   0    0.07    0.10
   5  -6   0    0.19    0.13
   5   6   0    0.01    0.08
  -5  -6   0    0.12    0.12
  -5   6   0    0.08    0.12
   5  -6   0   -0.12    0.09
   5   6   1    7.95    0.39
  -5   6  -1    7.43    0.41
   5  -6  -1    7.64    0.41
  -5  -6   1    7.56    0.43
   5  -6  -1    7.48    0.44
  -5  -6   1    7.92    0.45
   5  -6   1    7.49    0.42
   5   6  -1    8.25    0.37
   5  -6   1    7.18    0.42
  -5   6   1    7.19    0.42
   5  -6   1    7.43    0.44
  -5  -6   2    0.38    0.15
   5  -6  -2    0.48    0.14
  -5   6  -2    0.43    0.14
  -5  -6   2    0.40    0.14
   5  -6  -2    0.47    0.12
   5   6  -2    0.33    0.09
   5  -6   2    0.36    0.13
  -5   6   2    0.32    0.15
   5  -6   2    0.17    0.14
   5  -6   2    0.32    0.14
   5  -6  -3   24.01    1.16
   5  -6  -3   25.59    1.13
  -5  -6   3   25.11    1.16
  -5   6  -3   26.85    1.14
  -5  -6   3   25.47    1.19
  -5   6   3   25.15    1.14
   5  -6   3   26.70    1.17
   5  -6   3   26.02    1.19
   5  -6   3   26.18    1.17
   5  -6  -4   -0.05    0.12
  -5  -6   4    0.13    0.17
  -5  -6   4    0.22    0.16
  -5   6  -4   -0.13    0.13
   5  -6   4   -0.14    0.13
   5  -6   4    0.03    0.17
  -5   6   4    0.08    0.16
   5  -6   4    0.09    0.16
   5  -6  -5    2.94    0.29
  -5  -6   5    2.35    0.33
  -5   6  -5    3.01    0.32
  -5  -6   5    2.65    0.31
   5  -6   5    2.32    0.31
  -5   6   5    2.74    0.31
   5  -6   5    2.47    0.34
  -5  -6   6    0.97    0.28
  -5   6  -6    0.55    0.23
  -5  -6   6    0.83    0.24
   5  -6   6    1.15    0.27
   5  -6   6    0.97    0.28
  -5   6   6    0.87    0.25
   5  -7   0   -0.06    0.13
  -5  -7   0    0.00    0.13
   5   7   0    0.00    0.09
   5  -7   0    0.17    0.12
  -5   7   0    0.05    0.13
   5   7   1    0.11    0.10
  -5   7  -1    0.32    0.14
  -5  -7   1    0.03    0.13
   5  -7  -1    0.14    0.14
   5  -7  -1    0.23    0.12
   5  -7   1    0.08    0.14
   5   7  -1    0.44    0.09
  -5  -7  -1    0.10    0.13
  -5   7   1    0.22    0.14
   5  -7   1    0.08    0.12
  -5  -7   2    0.18    0.14
   5  -7  -2    0.15    0.19
  -5   7  -2    0.12    0.14
  -5  -7   2    0.05    0.13
   5  -7  -2   -0.01    0.12
   5   7   2    0.07    0.10
  -5   7   2    0.11    0.15
   5  -7   2    0.15    0.14
   5  -7   2    0.11    0.14
  -5  -7   3    0.17    0.15
   5  -7  -3    0.15    0.22
  -5   7  -3    0.28    0.15
  -5  -7   3    0.17    0.15
  -5   7   3    0.01    0.18
   5  -7   3    0.08    0.15
   5  -7   3    0.34    0.16
   5  -7   3    0.20    0.17
  -5  -7   4    2.99    0.33
  -5   7  -4    2.80    0.28
  -5  -7   4    2.14    0.31
   5  -7   4    2.62    0.32
  -5   7   4    3.61    0.50
   5  -7   4    2.40    0.33
   5  -7   4    3.15    0.32
  -5  -7   5    0.49    0.22
  -5   7  -5    0.24    0.19
  -5  -7   5    0.46    0.22
   5  -7   5   -0.12    0.19
   5  -7   5    0.14    0.22
  -5  -7   6    8.25    0.63
  -5  -7   6    7.79    0.58
  -5   7  -6    7.18    0.67
   5  -7   6    7.45    0.63
   5  -7   6    8.03    0.60
   5  -8   0   -0.14    0.12
  -5  -8   0    0.15    0.15
   5  -8   0   -0.08    0.14
   5   8   0    0.00    0.10
   5  -8  -1    5.48    0.40
   5  -8  -1    5.25    0.37
  -5  -8   1    5.27    0.40
   5   8   1    4.46    0.31
  -5  -8  -1    5.27    0.41
   5  -8   1    5.40    0.41
   5  -8   1    5.90    0.39
   5  -8  -2    1.10    0.21
  -5  -8   2    1.44    0.24
   5   8   2    1.25    0.18
   5  -8   2    1.12    0.21
   5  -8   2    1.15    0.22
  -5  -8   3   14.00    0.76
  -5  -8   3   13.33    0.75
   5  -8   3   13.72    0.73
   5  -8   3   14.07    0.75
  -5  -8   4    1.08    0.24
  -5  -8   4    0.68    0.23
   5  -8   4    0.89    0.24
   5  -8   4    0.95    0.24
   5  -8   4    0.64    0.23
  -5  -8   5    1.99    0.31
  -5  -8   5    2.07    0.33
   5  -8   5    2.50    0.35
   5  -8   5    2.14    0.34
  -5  -9   0    0.13    0.17
   5  -9   0   -0.03    0.17
   5  -9   0   -0.02    0.15
   5  -9  -1    2.35    0.30
   5  -9  -1    2.35    0.37
  -5  -9   1    2.22    0.30
   5  -9   1    2.04    0.29
  -5  -9  -1    1.90    0.29
   5  -9   1    2.11    0.28
   5   9   2    0.14    0.13
  -5  -9   2    0.18    0.18
   5  -9  -2    0.05    0.18
  -5  -9  -2    0.02    0.17
   5  -9   2   -0.03    0.18
   5  -9   2    0.07    0.17
  -5  -9   3   11.70    0.69
   5  -9   3   10.44    0.65
   5  -9   3   11.12    0.67
  -5  -9   4    0.40    0.23
   5  -9   4    0.29    0.22
   5  -9   4    0.23    0.22
  -5 -10   0    0.02    0.18
   5 -10   0    0.10    0.16
   5 -10   0   -0.12    0.19
   5 -10  -1    2.26    0.32
  -5 -10   1    2.47    0.34
   5 -10   1    1.90    0.29
  -5 -10  -1    2.69    0.33
   5 -10   1    2.02    0.31
  -5 -10   2    1.20    0.27
   5 -10  -2    0.85    0.24
   5 -10   2    0.93    0.25
   5 -10   2    0.76    0.24
  -5 -10  -2    1.23    0.27
   6   0   0    5.38    0.27
  -6   0   0    5.44    0.28
   6   0  -1   82.34    3.50
  -6   0   1   83.72    3.50
   6   0   1   92.76    3.50
  -6   0  -1   90.20    3.50
   6   0   2    0.53    0.09
   6   0  -2    0.64    0.10
  -6   0   2    0.49    0.11
  -6   0   3   34.04    1.54
   6   0   3   41.51    1.57
   6   0   3   41.05    1.53
  -6   0   3   33.24    1.55
   6   0  -3   34.13    1.52
  -6   0   4   46.28    1.85
   6   0  -4   44.99    1.82
   6   0   4   42.44    1.87
   6   0   4   41.84    1.81
  -6   0   4   44.69    1.86
   6   0  -5   16.29    0.79
  -6   0   5   17.06    0.83
  -6   0   5   16.87    0.84
   6   0   5   19.46    0.87
   6   0   6   29.53    1.47
  -6   0   6   33.53    1.47
  -6   0   6   33.59    1.45
   6   0  -6   33.05    1.40
   6   0  -7    6.86    0.43
  -6   0   7    7.23    0.51
   6   0   7    7.38    0.55
  -6   0   8    4.99    0.49
   6  -1   0   66.02    2.71
  -6  -1   0   68.33    2.69
   6  -1   0   66.47    2.69
  -6   1   0   67.13    2.70
   6   1   0   66.88    2.70
   6  -1  -1    0.29    0.08
   6   1   1    0.20    0.07
  -6  -1   1    0.27    0.08
   6  -1  -1    0.51    0.08
  -6   1  -1    0.22    0.09
   6  -1   1    0.26    0.07
   6   1  -1    0.29    0.07
  -6  -1  -1    0.33    0.08
  -6   1   1    0.25    0.09
   6  -1   1    0.19    0.08
  -6   1  -2   37.36    1.56
   6  -1  -2   37.98    1.55
  -6  -1   2   35.19    1.53
   6  -1  -2   38.36    1.55
  -6  -1   2   38.21    1.55
  -6  -1   2   37.81    1.59
   6   1  -2   38.48    1.55
   6  -1   2   36.64    1.56
   6  -1   2   39.05    1.59
   6  -1   2   38.67    1.54
  -6   1   2   37.64    1.57
   6  -1  -3    2.59    0.20
  -6  -1   3    2.25    0.21
   6  -1  -3    2.21    0.17
  -6  -1   3    2.54    0.17
  -6  -1   3    2.62    0.25
  -6   1   3    2.44    0.23
   6  -1   3    2.45    0.19
   6  -1   3    2.64    0.25
   6   1  -3    2.37    0.19
  -6   1   3    2.54    0.23
  -6  -1   4    8.83    0.45
   6  -1  -4    8.55    0.43
   6   1   4    7.21    0.46
  -6  -1   4    9.03    0.49
   6  -1   4    6.96    0.47
  -6   1   4    8.88    0.46
  -6   1   4    8.74    0.46
   6  -1   4    7.54    0.41
   6   1  -4    8.71    0.42
  -6  -1   5    1.40    0.21
   6   1   5    0.72    0.18
   6  -1  -5    1.16    0.17
  -6  -1   5    1.47    0.23
   6   1  -5    1.21    0.16
  -6   1   5    1.21    0.20
  -6   1   5    1.50    0.22
   6  -1   5    1.34    0.23
  -6  -1   6    1.16    0.22
   6  -1  -6    1.57    0.21
  -6  -1   6    1.36    0.24
   6   1   6    0.72    0.20
  -6   1   6    1.39    0.23
   6  -1   6    0.60    0.23
   6   1  -6    1.45    0.18
  -6  -1   7    2.96    0.37
   6  -1  -7    3.06    0.30
  -6  -1   7    3.79    0.37
   6   1  -7    3.55    0.30
   6  -1   7    3.98    0.44
  -6   1   7    3.70    0.39
  -6  -1   8    0.21    0.39
  -6  -1   8    0.81    0.27
  -6   1   8    0.38    0.24
   6  -1   8    0.29    0.26
  -6   2   0  726.44   29.02
   6  -2   0  725.16   29.02
   6  -2   0  739.29   28.99
  -6  -2   0  731.21   28.98
   6   2   0  732.90   29.04
   6  -2  -1    1.84    0.15
  -6   2  -1    1.08    0.13
   6   2   1    1.08    0.12
   6  -2   1    1.21    0.12
   6  -2   1    1.08    0.10
  -6  -2  -1    1.13    0.10
   6  -2   1    0.93    0.12
  -6  -2   2  294.13   11.39
  -6  -2   2  278.86   11.38
   6  -2  -2  295.96   11.40
   6  -2  -2  287.18   11.39
  -6  -2   2  284.86   11.43
  -6   2  -2  278.73   11.40
   6  -2   2  288.59   11.40
   6  -2   2  289.45   11.43
   6  -2   2  281.02   11.37
   6   2  -2  287.40   11.39
   6  -2   2  287.89   11.41
  -6   2   2  283.11   11.41
  -6  -2   3    0.85    0.13
  -6  -2   3    0.71    0.11
  -6  -2   3    0.90    0.16
   6  -2  -3    0.69    0.12
   6  -2  -3    0.57    0.10
   6  -2   3    0.32    0.12
   6   2  -3    0.67    0.11
  -6   2   3    0.94    0.14
  -6   2   3    0.58    0.15
   6  -2   3    0.33    0.11
   6  -2   3    0.61    0.16
   6  -2  -4   23.19    1.02
  -6  -2   4   22.53    1.02
  -6  -2   4   23.28    1.03
  -6  -2   4   23.42    1.08
   6  -2   4   24.73    1.02
  -6   2   4   23.24    1.03
  -6   2   4   23.85    1.06
   6   2  -4   22.68    1.00
   6  -2   4   25.13    1.10
  -6  -2   5   -0.08    0.14
   6  -2  -5    0.00    0.12
  -6  -2   5    0.02    0.14
   6  -2   5    0.08    0.15
  -6   2   5    0.19    0.15
   6   2  -5    0.12    0.11
  -6  -2   6    0.40    0.18
   6  -2  -6    0.24    0.14
  -6  -2   6    0.19    0.18
  -6   2   6    0.22    0.20
   6  -2   6    0.19    0.19
   6   2  -6    0.12    0.12
  -6  -2   7    1.29    0.29
  -6  -2   7    1.09    0.25
  -6   2   7    1.33    0.26
   6  -2   7    0.42    0.25
   6   2  -7    1.18    0.19
  -6  -2   8    0.64    0.25
  -6  -2   8    0.33    0.26
  -6   2   8    0.49    0.27
   6  -2   8    0.50    0.28
   6  -3   0   18.91    0.81
   6   3   0   19.44    0.82
   6  -3   0   19.19    0.84
   6  -3   0   19.81    0.81
  -6   3   0   19.06    0.84
   6  -3  -1   45.16    1.81
  -6  -3   1   44.87    1.84
   6  -3  -1   46.65    1.85
   6   3   1   44.66    1.83
  -6  -3   1   44.96    1.87
  -6   3  -1   44.09    1.85
   6  -3  -1   45.20    1.82
   6  -3   1   43.44    1.80
   6  -3   1   45.01    1.86
  -6   3   1   43.52    1.85
   6  -3   1   45.01    1.85
   6   3  -1   43.57    1.82
   6  -3   1   45.29    1.83
   6  -3  -2   10.06    0.47
  -6   3  -2    9.69    0.49
   6  -3  -2    9.32    0.46
  -6  -3   2   10.30    0.52
  -6  -3   2    9.84    0.45
  -6  -3   2    9.60    0.47
  -6   3   2   10.12    0.50
   6  -3   2    9.73    0.48
   6  -3   2    9.86    0.49
   6   3  -2    9.48    0.45
   6  -3   2   10.46    0.52
  -6  -3   3    9.89    0.47
  -6   3  -3    9.27    0.50
   6  -3  -3    9.86    0.46
  -6  -3   3   10.54    0.54
   6  -3  -3    9.64    0.47
  -6  -3   3    9.44    0.48
  -6   3   3    9.97    0.51
   6  -3   3    9.50    0.50
   6  -3   3    9.55    0.49
   6   3  -3    9.49    0.45
   6  -3   3    9.39    0.54
  -6  -3   4    2.48    0.23
   6  -3  -4    2.53    0.22
  -6  -3   4    2.46    0.28
  -6  -3   4    2.30    0.23
  -6   3   4    2.82    0.27
   6  -3   4    1.62    0.20
   6   3  -4    2.38    0.19
   6  -3   4    1.48    0.22
   6  -3   4    1.59    0.25
  -6  -3   5    2.34    0.27
   6  -3  -5    2.49    0.25
  -6  -3   5    2.61    0.26
  -6  -3   5    2.32    0.29
   6   3  -5    2.48    0.21
  -6   3   5    2.63    0.29
   6  -3   5    2.18    0.27
   6  -3   5    2.48    0.31
   6  -3  -6    0.38    0.15
  -6  -3   6    0.42    0.21
  -6  -3   6    0.41    0.18
   6  -3   6    0.23    0.20
  -6   3   6    0.16    0.20
   6   3  -6    0.16    0.17
  -6  -3   7    8.89    0.65
  -6  -3   7    8.92    0.56
  -6   3   7    9.28    0.60
   6  -3   7    7.95    0.62
  -6   4   0   15.48    0.71
   6  -4   0   15.60    0.68
   6  -4   0   15.82    0.66
   6  -4   0   15.22    0.71
   6   4   0   15.30    0.68
   6  -4  -1   38.11    1.62
   6  -4  -1   37.20    1.65
  -6  -4   1   37.30    1.66
   6   4   1   42.50    1.64
  -6   4  -1   41.37    1.65
   6  -4  -1   37.85    1.62
  -6  -4   1   37.42    1.65
   6  -4   1   42.35    1.66
  -6   4   1   35.87    1.64
   6   4  -1   37.26    1.62
   6  -4   1   42.85    1.66
   6  -4   1   43.32    1.64
  -6   4  -2    1.13    0.17
  -6  -4   2    0.93    0.17
   6  -4  -2    1.00    0.14
   6  -4  -2    0.89    0.14
  -6  -4   2    1.08    0.15
   6  -4   2    1.39    0.17
   6  -4   2    0.94    0.15
   6  -4   2    1.06    0.17
   6   4  -2    1.00    0.12
  -6   4   2    0.82    0.16
   6  -4  -3   18.63    0.91
   6  -4  -3   18.89    0.90
  -6  -4   3   18.17    0.92
  -6   4  -3   24.08    0.95
  -6  -4   3   17.61    0.95
   6  -4   3   24.33    0.96
   6  -4   3   24.21    0.98
  -6   4   3   19.13    0.94
   6   4  -3   19.12    0.88
   6  -4   3   24.16    0.94
  -6   4  -4   20.24    0.97
   6  -4  -4   21.65    0.94
  -6  -4   4   22.08    1.02
  -6  -4   4   20.74    0.95
   6  -4   4   20.15    1.01
   6  -4   4   19.80    0.94
   6   4  -4   21.90    0.90
  -6   4   4   22.70    0.99
   6  -4   4   19.67    0.97
  -6  -4   5   10.99    0.66
   6  -4  -5   10.48    0.58
  -6  -4   5   10.80    0.60
  -6   4   5   10.11    0.62
   6  -4   5   12.69    0.68
   6  -4   5   12.51    0.66
   6  -4  -6   19.58    0.89
  -6  -4   6   19.66    0.99
   6  -4   6   17.90    0.99
  -6   4   6   19.20    0.94
   6  -4   6   16.85    0.94
  -6  -4   7    5.20    0.53
   6  -4   7    5.05    0.52
  -6   4   7    5.51    0.48
   6  -5   0   54.25    2.20
   6   5   0   51.77    2.16
  -6  -5   0   53.40    2.19
  -6   5   0   50.83    2.18
   6  -5   0   53.08    2.17
  -6  -5   0   53.13    2.20
  -6  -5   1   15.03    0.71
  -6   5  -1   14.28    0.69
   6  -5  -1   14.63    0.67
  -6  -5   1   14.32    0.70
   6   5   1   15.10    0.67
   6  -5  -1   14.68    0.70
   6  -5   1   14.90    0.69
   6  -5   1   15.36    0.71
  -6   5   1   14.30    0.69
   6   5  -1   15.03    0.65
   6  -5   1   15.29    0.70
   6  -5  -2   36.98    1.59
  -6  -5   2   36.97    1.62
  -6  -5   2   36.21    1.59
  -6   5  -2   36.97    1.58
   6  -5  -2   38.28    1.57
   6  -5   2   37.86    1.59
   6   5  -2   36.23    1.54
  -6   5   2   36.82    1.59
   6  -5   2   37.55    1.60
   6  -5   2   40.67    1.62
  -6  -5   3   20.54    1.00
   6  -5  -3   21.03    0.94
   6  -5  -3   21.15    0.94
  -6  -5   3   21.42    0.97
  -6   5  -3   20.57    0.96
   6  -5   3   21.53    0.97
   6  -5   3   21.42    0.97
  -6   5   3   21.59    0.97
   6   5  -3   21.32    0.90
   6  -5   3   20.72    0.99
   6  -5  -4   11.20    0.55
  -6   5  -4    9.39    0.57
  -6  -5   4   10.94    0.62
  -6  -5   4   10.81    0.57
   6  -5   4   10.50    0.56
   6  -5   4   10.35    0.59
  -6   5   4   11.21    0.59
   6  -5   4   10.69    0.63
  -6  -5   5    7.31    0.53
  -6   5  -5    6.63    0.49
   6  -5  -5    7.62    0.45
  -6  -5   5    7.46    0.48
   6  -5   5    7.43    0.54
   6  -5   5    7.52    0.51
  -6   5   5    7.92    0.50
   6  -5  -6    2.68    0.29
  -6  -5   6    2.85    0.37
   6  -5   6    1.71    0.30
  -6   5   6    2.36    0.31
   6  -5   6    1.52    0.32
  -6  -5   7    0.28    0.25
  -6   5   7    0.36    0.22
   6  -5   7    0.05    0.25
  -6  -6   0  203.77    8.28
   6  -6   0  209.52    8.26
  -6  -6   0  206.20    8.26
   6   6   0  205.46    8.23
   6  -6   0  207.59    8.28
  -6   6   0  204.62    8.26
  -6  -6   1    0.16    0.13
  -6  -6   1    0.15    0.12
   6  -6  -1    0.07    0.11
  -6   6  -1    0.30    0.14
   6   6   1    0.27    0.11
   6  -6  -1    0.16    0.11
   6   6  -1    0.09    0.09
  -6   6   1    0.14    0.13
   6  -6   1    0.42    0.14
   6  -6   1    0.33    0.13
   6  -6   1    0.42    0.15
  -6   6  -2   84.30    3.45
  -6  -6   2   81.83    3.47
   6   6   2   83.51    3.43
  -6  -6   2   85.02    3.49
   6  -6  -2   85.04    3.46
   6  -6   2   83.42    3.46
   6   6  -2   83.67    3.40
  -6   6   2   84.77    3.46
   6  -6   2   87.42    3.48
   6  -6   2   85.31    3.48
   6  -6  -3    0.36    0.14
  -6   6  -3    0.60    0.17
  -6  -6   3    0.19    0.15
  -6  -6   3    0.27    0.16
   6  -6   3    0.71    0.19
   6  -6   3    0.58    0.18
   6  -6   3    0.79    0.18
  -6   6   3    0.13    0.16
  -6  -6   4    3.31    0.34
  -6   6  -4    4.97    0.38
   6  -6  -4    4.00    0.32
  -6  -6   4    4.85    0.41
  -6   6   4    3.85    0.37
   6  -6   4    4.20    0.37
   6  -6   4    4.78    0.36
   6  -6   4    4.70    0.41
  -6  -6   5    0.60    0.21
  -6  -6   5   -0.02    0.18
  -6   6  -5    0.48    0.21
   6  -6  -5    0.61    0.19
   6  -6   5    0.29    0.20
  -6   6   5    0.15    0.20
   6  -6   5    0.20    0.21
  -6  -6   6    0.38    0.24
  -6   6  -6    0.20    0.22
  -6  -6   6    0.19    0.22
  -6   6   6    0.70    0.25
   6  -6   6    0.61    0.25
   6  -6   6    0.15    0.22
  -6  -7   0    2.59    0.28
   6  -7   0    2.80    0.29
   6  -7   0    2.72    0.26
  -6   7   0    2.91    0.27
   6   7   0    2.62    0.22
  -6  -7   1   49.43    2.12
  -6   7  -1   49.56    2.08
   6  -7  -1   51.42    2.12
   6   7   1   49.41    2.06
  -6  -7  -1   49.25    2.12
   6   7  -1   48.11    2.03
   6  -7   1   49.33    2.09
   6  -7   1   50.91    2.12
  -6   7   1   49.22    2.08
  -6   7  -2    0.99    0.19
   6  -7  -2    1.15    0.19
  -6  -7   2    0.90    0.19
   6   7   2    1.04    0.17
  -6  -7   2    0.89    0.19
   6  -7   2    0.70    0.18
   6  -7   2    1.03    0.21
  -6   7   2    1.08    0.20
  -6  -7   3   17.37    0.88
  -6  -7   3   17.62    0.86
  -6   7  -3   16.28    0.83
  -6   7   3   17.90    0.85
   6  -7   3   17.69    0.88
   6  -7   3   15.95    0.84
   6  -7   3   17.54    0.86
  -6   7  -4    0.00    0.16
  -6  -7   4    0.05    0.17
  -6  -7   4    0.18    0.17
   6  -7   4    0.35    0.18
   6  -7   4    0.23    0.19
   6  -7   4    0.33    0.18
  -6   7   4    0.28    0.20
  -6  -7   5    5.44    0.45
  -6  -7   5    5.37    0.49
  -6   7  -5    4.89    0.43
   6  -7   5    4.80    0.46
   6  -7   5    5.13    0.49
  -6   7   5    5.44    0.46
  -6  -7   6    0.46    0.24
  -6   7  -6    0.55    0.24
  -6  -7   6    0.15    0.23
   6  -7   6    0.23    0.24
   6  -7   6    0.14    0.24
  -6   7   6    0.60    0.31
   6   8   0   31.56    1.35
  -6  -8   0   32.15    1.45
   6  -8   0   32.81    1.41
   6  -8   0   31.00    1.43
  -6  -8   1    7.17    0.50
   6  -8  -1    6.60    0.49
   6   8   1    8.46    0.43
  -6  -8  -1    8.10    0.51
   6  -8   1    8.53    0.49
   6  -8   1    8.72    0.52
  -6  -8   2    8.90    0.58
   6  -8  -2   10.10    0.57
   6   8   2   10.03    0.52
   6  -8   2   10.22    0.59
   6  -8   2    9.43    0.56
  -6  -8   3    4.54    0.42
   6   8   3    6.34    0.38
  -6  -8   3    3.83    0.41
   6  -8   3    5.56    0.42
   6  -8   3    5.56    0.44
  -6  -8   4    1.38    0.27
  -6  -8   4    1.37    0.28
   6  -8   4    1.07    0.26
   6  -8   4    1.18    0.25
   6  -8   4    1.10    0.25
  -6  -8   5    2.53    0.38
  -6  -8   5    3.21    0.37
   6  -8   5    3.03    0.39
   6  -8   5    3.10    0.39
  -6  -9   0   24.11    1.17
   6  -9   0   24.24    1.16
  -6  -9   1   10.77    0.63
   6  -9  -1   10.08    0.61
   6   9   1    9.98    0.52
   6  -9   1   10.23    0.62
   6  -9   1    9.52    0.58
  -6  -9  -1   10.10    0.62
   6   9   2   17.48    0.98
  -6  -9   2   17.08    0.91
   6  -9  -2   16.19    0.88
   6  -9   2   17.07    0.88
  -6  -9  -2   17.98    0.92
   6  -9   2   17.55    0.90
  -6  -9   3   12.08    0.73
   6  -9   3   12.84    0.74
   6  -9   3   12.40    0.72
  -6  -9   4    5.84    0.51
   6  -9   4    5.32    0.48
   6  -9   4    5.24    0.48
  -6 -10   0   24.36    1.23
   6 -10   0   25.22    1.21
   6 -10  -1    1.32    0.28
  -6 -10   1    1.83    0.31
  -6 -10  -1    1.58    0.30
   6 -10   1    1.41    0.27
   6 -10   1    1.92    0.31
   6 -10  -2    9.52    0.60
  -6 -10   2    8.47    0.62
  -6 -10  -2    8.76    0.61
   6 -10   2    9.20    0.59
   6 -10   2    9.20    0.62
   7   0   0   -0.08    0.06
  -7   0   0   -0.04    0.08
   7   0   1   20.31    0.84
  -7   0   1   19.34    0.85
   7   0  -1   20.03    0.84
  -7   0  -1   19.34    0.84
  -7   0   2    1.52    0.17
   7   0   2    1.77    0.15
  -7   0  -2    1.52    0.15
   7   0  -2    1.82    0.15
   7   0  -3   41.09    1.69
   7   0   3   41.47    1.69
  -7   0   3   39.92    1.70
  -7   0   3   40.36    1.72
   7   0   4    0.15    0.10
  -7   0   4    0.10    0.14
  -7   0   4   -0.05    0.13
   7   0   4    0.15    0.14
   7   0  -4    0.14    0.11
   7   0   5   15.15    0.77
  -7   0   5   14.76    0.74
  -7   0   5   15.82    0.77
   7   0  -5   14.56    0.70
   7   0  -6    4.65    0.32
  -7   0   6    4.18    0.40
   7   0   6    3.61    0.39
  -7   0   6    4.41    0.38
   7   0   7    0.52    0.24
  -7   0   7    0.36    0.22
  -7   0   8    0.10    0.22
   7  -1   0    0.08    0.06
   7   1   0   -0.07    0.06
  -7  -1   0    0.01    0.07
   7  -1   0   -0.02    0.07
  -7   1   0    0.02    0.09
  -7  -1   1    6.73    0.34
   7  -1  -1    7.16    0.34
   7  -1  -1    7.34    0.36
   7   1   1    6.84    0.34
  -7   1  -1    7.19    0.36
  -7  -1  -1    6.76    0.34
  -7   1   1    6.77    0.36
   7  -1   1    7.17    0.36
   7  -1   1    7.64    0.34
  -7  -1   2    0.21    0.07
   7  -1  -2    0.36    0.10
  -7   1  -2   -0.08    0.09
   7   1   2    0.18    0.09
   7  -1  -2    0.22    0.09
  -7  -1   2    0.33    0.11
   7  -1   2    0.06    0.07
   7   1  -2    0.27    0.09
   7  -1   2    0.22    0.09
  -7  -1  -2    0.33    0.10
  -7   1   2    0.28    0.12
   7  -1  -3   19.96    0.85
   7  -1  -3   20.14    0.87
  -7  -1   3   20.01    0.88
  -7  -1   3   20.32    0.92
  -7   1   3   20.84    0.90
   7   1  -3   19.51    0.86
   7  -1   3   18.43    0.91
  -7   1   3   19.20    0.89
   7  -1   3   19.92    0.87
  -7  -1   4    1.46    0.20
  -7  -1   4    1.80    0.24
   7  -1  -4    1.60    0.18
   7   1   4    2.04    0.19
  -7   1   4    1.43    0.21
  -7   1   4    1.68    0.21
   7  -1   4    1.71    0.24
   7  -1   4    1.58    0.17
   7   1  -4    1.75    0.18
  -7  -1   5    3.66    0.35
  -7  -1   5    3.79    0.33
   7  -1  -5    3.97    0.29
   7   1   5    3.62    0.35
   7   1  -5    3.88    0.28
  -7   1   5    3.55    0.33
   7  -1   5    3.66    0.36
  -7   1   5    3.93    0.34
   7   1   6    9.80    0.60
   7  -1  -6   10.61    0.55
  -7  -1   6    9.81    0.59
  -7  -1   6   10.00    0.63
   7  -1   6    9.97    0.63
  -7   1   6   10.47    0.60
   7   1  -6   10.38    0.53
  -7  -1   7    0.85    0.26
  -7  -1   7    0.91    0.24
   7  -1   7    0.90    0.27
  -7   1   7    0.67    0.25
   7   1  -7    0.83    0.17
  -7  -1   8    5.17    0.50
  -7   1   8    5.77    0.52
   7  -1   8    5.14    0.54
   7   2   0    0.09    0.07
  -7  -2   0    0.06    0.07
   7  -2   0   -0.02    0.06
  -7   2   0    0.06    0.10
   7  -2   0    0.00    0.08
   7   2   1    1.76    0.15
   7  -2  -1    1.59    0.14
  -7  -2   1    1.30    0.13
  -7  -2   1    1.55    0.14
   7  -2  -1    1.48    0.15
  -7   2  -1    1.61    0.16
   7  -2   1    1.26    0.15
   7  -2   1    1.73    0.14
  -7   2   1    1.51    0.16
   7  -2   1    1.81    0.13
   7   2  -1    1.64    0.14
  -7  -2  -1    1.77    0.14
  -7   2  -2    0.80    0.15
  -7  -2   2    0.93    0.13
   7  -2  -2    0.76    0.12
   7   2   2    0.55    0.11
  -7  -2   2    0.61    0.15
  -7  -2   2    0.86    0.11
   7  -2  -2    1.01    0.12
   7  -2   2    0.87    0.13
  -7   2   2    0.85    0.15
   7  -2   2    0.83    0.13
  -7  -2  -2    0.86    0.12
   7   2  -2    0.92    0.12
   7  -2   2    0.90    0.10
   7  -2   2    0.85    0.16
  -7  -2   3    3.58    0.31
   7  -2  -3    3.63    0.24
  -7   2  -3    4.04    0.29
  -7  -2   3    3.62    0.23
   7  -2  -3    3.75    0.25
  -7  -2   3    3.67    0.26
  -7   2   3    3.56    0.30
  -7   2   3    3.57    0.28
   7   2  -3    3.69    0.24
   7  -2   3    3.81    0.32
   7  -2   3    3.82    0.26
  -7  -2   4   11.10    0.61
   7  -2  -4   10.84    0.55
  -7  -2   4   11.11    0.56
   7   2  -4   11.44    0.54
   7  -2   4   11.58    0.55
  -7   2   4   11.58    0.57
  -7   2   4   11.29    0.60
   7  -2   4   10.55    0.62
  -7  -2   5    5.31    0.42
   7  -2  -5    5.06    0.35
  -7  -2   5    5.37    0.37
   7   2  -5    5.40    0.33
  -7   2   5    5.61    0.40
   7  -2   5    5.21    0.43
   7  -2  -6   19.03    0.88
  -7  -2   6   18.71    0.97
  -7  -2   6   18.20    0.90
  -7   2   6   18.99    0.93
   7  -2   6   17.98    0.97
   7   2  -6   18.73    0.85
  -7  -2   7   18.55    0.99
  -7  -2   7   18.14    0.92
  -7   2   7   17.98    0.94
   7   2  -7   16.27    0.82
   7  -2   7   19.22    1.00
   7  -3   0    0.01    0.07
  -7   3   0    0.05    0.11
   7  -3   0    0.02    0.06
   7   3   0   -0.08    0.07
   7  -3   0   -0.07    0.09
  -7  -3   1    2.35    0.20
   7  -3  -1    2.47    0.19
   7   3   1    2.75    0.20
  -7   3  -1    2.61    0.23
   7  -3  -1    2.69    0.21
  -7   3   1    2.45    0.23
   7  -3   1    2.55    0.22
   7  -3   1    2.79    0.19
   7  -3   1    2.72    0.17
   7   3  -1    2.92    0.19
  -7  -3   2    0.37    0.14
   7  -3  -2    0.29    0.11
  -7  -3   2    0.21    0.10
  -7  -3   2    0.29    0.09
   7  -3  -2    0.32    0.10
  -7   3  -2    0.16    0.12
   7   3   2    0.14    0.10
  -7   3   2    0.41    0.14
   7  -3   2    0.30    0.11
  -7  -3  -2    0.31    0.09
   7   3  -2    0.42    0.10
   7  -3   2    0.22    0.11
   7  -3   2    0.36    0.14
  -7   3  -3    8.84    0.48
  -7  -3   3    8.66    0.44
  -7  -3   3    8.64    0.44
   7  -3  -3    9.15    0.44
   7  -3  -3    8.87    0.45
  -7  -3   3    9.02    0.52
   7  -3   3    8.51    0.47
   7  -3   3    9.02    0.46
   7   3  -3    8.75    0.43
  -7   3   3    8.65    0.49
   7  -3   3    8.40    0.51
  -7  -3   4   10.11    0.59
  -7  -3   4   10.13    0.52
   7  -3  -4   10.27    0.52
   7  -3   4   10.33    0.53
  -7   3   4   10.55    0.57
   7  -3   4   10.46    0.56
   7  -3   4    9.90    0.59
   7   3  -4    9.96    0.49
  -7  -3   5    0.53    0.17
  -7  -3   5    0.46    0.19
   7  -3  -5    0.37    0.14
   7  -3   5    0.66    0.21
   7   3  -5    0.46    0.13
  -7   3   5    0.40    0.18
  -7  -3   6   21.11    1.08
  -7  -3   6   21.36    1.01
   7  -3  -6   20.78    0.99
   7   3  -6   21.29    0.94
  -7   3   6   21.17    1.04
   7  -3   6   21.92    1.10
  -7  -3   7    3.58    0.43
  -7  -3   7    3.32    0.37
   7  -3   7    3.66    0.44
  -7   3   7    3.34    0.38
   7  -4   0    0.00    0.07
   7  -4   0   -0.03    0.10
  -7   4   0    0.07    0.12
   7   4   0    0.02    0.08
   7  -4  -1   11.12    0.54
  -7  -4   1   10.44    0.55
   7  -4  -1   10.82    0.50
  -7   4  -1   11.29    0.54
  -7  -4   1   10.95    0.53
   7   4   1   10.69    0.51
  -7   4   1   10.70    0.54
   7  -4   1   10.48    0.54
   7  -4   1   10.40    0.51
   7   4  -1   10.80    0.50
   7   4   2    0.54    0.12
  -7   4  -2    0.73    0.16
  -7  -4   2    0.50    0.16
   7  -4  -2    0.80    0.14
   7  -4  -2    0.48    0.12
  -7  -4   2    0.48    0.12
   7  -4   2    0.71    0.14
  -7   4   2    0.66    0.17
   7   4  -2    0.77    0.12
   7  -4   2    0.62    0.16
   7  -4   2    0.60    0.15
   7  -4  -3   24.20    1.08
  -7  -4   3   25.16    1.10
  -7  -4   3   26.17    1.16
  -7   4  -3   26.67    1.13
   7  -4  -3   25.33    1.09
   7  -4   3   23.94    1.15
   7  -4   3   25.64    1.12
   7   4  -3   25.05    1.06
  -7   4   3   24.19    1.12
   7  -4   3   24.87    1.12
  -7  -4   4    0.66    0.20
   7  -4  -4    0.57    0.14
  -7   4  -4    0.40    0.17
  -7  -4   4    0.68    0.15
   7  -4   4    0.16    0.17
   7  -4   4    0.45    0.17
   7  -4   4    0.56    0.16
   7   4  -4    0.48    0.12
  -7   4   4    0.48    0.18
  -7   4  -5    7.77    0.49
   7  -4  -5    7.33    0.45
  -7  -4   5    7.13    0.52
   7  -4   5    7.79    0.51
   7   4  -5    7.49    0.44
   7  -4   5    7.73    0.55
  -7   4   5    7.57    0.50
  -7  -4   6    4.67    0.46
   7  -4  -6    4.40    0.36
   7  -4   6    4.40    0.47
  -7   4   6    4.50    0.43
  -7  -4   7   -0.07    0.22
  -7   4   7   -0.32    0.19
   7  -4   7   -0.13    0.23
   7  -5   0   -0.07    0.08
  -7  -5   0    0.03    0.11
   7   5   0   -0.09    0.08
   7  -5   0    0.13    0.12
  -7   5   0   -0.13    0.12
  -7  -5   0   -0.05    0.11
  -7  -5   1    6.01    0.37
  -7  -5   1    5.63    0.39
   7  -5  -1    6.27    0.38
  -7   5  -1    6.37    0.38
   7   5   1    6.31    0.35
   7   5  -1    6.59    0.33
   7  -5   1    6.51    0.36
   7  -5   1    6.27    0.38
  -7   5   1    6.15    0.38
  -7  -5   2    1.21    0.20
   7  -5  -2    1.54    0.17
  -7  -5   2    1.55    0.19
   7   5   2    1.50    0.18
  -7   5  -2    1.48    0.21
   7  -5  -2    1.26    0.18
   7  -5   2    1.39    0.20
  -7   5   2    1.14    0.20
   7  -5   2    1.48    0.19
   7   5  -2    1.51    0.15
   7  -5   2    1.56    0.21
  -7   5  -3   18.63    0.87
   7  -5  -3   18.94    0.84
   7  -5  -3   18.79    0.85
  -7  -5   3   17.66    0.86
  -7  -5   3   18.89    0.91
   7  -5   3   18.73    0.87
   7   5  -3   18.03    0.80
   7  -5   3   19.47    0.88
  -7   5   3   17.82    0.88
   7  -5   3   18.33    0.91
  -7   5  -4    0.16    0.17
   7  -5  -4    0.25    0.14
  -7  -5   4    0.34    0.18
  -7  -5   4    0.14    0.15
   7  -5   4    0.18    0.15
   7  -5   4    0.31    0.19
  -7   5   4    0.01    0.17
   7  -5   4    0.03    0.14
  -7   5  -5    5.18    0.42
  -7  -5   5    5.51    0.47
   7  -5  -5    5.61    0.39
  -7   5   5    5.24    0.43
   7  -5   5    5.79    0.45
   7  -5   5    5.02    0.47
  -7   5  -6    1.52    0.29
  -7  -5   6    1.49    0.31
   7  -5   6    1.96    0.33
  -7   5   6    1.76    0.30
   7  -5   6    1.57    0.30
  -7   5  -7   -0.05    0.22
  -7  -5   7   -0.20    0.23
  -7   5   7    0.18    0.24
   7  -5   7    0.38    0.26
   7  -6   0   -0.03    0.12
  -7   6   0    0.18    0.14
   7   6   0    0.04    0.09
   7  -6   0   -0.02    0.10
  -7  -6   0   -0.14    0.10
  -7  -6   0    0.09    0.13
   7  -6  -1    1.84    0.22
   7   6   1    1.55    0.18
  -7  -6   1    1.37    0.20
  -7   6  -1    1.62    0.21
  -7  -6   1    1.63    0.21
   7  -6   1    1.76    0.20
   7   6  -1    1.93    0.17
   7  -6   1    1.82    0.23
  -7   6   1    1.88    0.23
   7  -6  -2    0.15    0.13
  -7   6  -2   -0.12    0.13
  -7  -6   2    0.19    0.13
   7   6   2    0.16    0.11
  -7  -6   2   -0.02    0.12
   7  -6   2    0.06    0.14
   7   6  -2    0.07    0.09
   7  -6   2   -0.06    0.12
  -7   6   2    0.20    0.16
   7  -6   2    0.00    0.14
   7  -6  -3    4.57    0.41
  -7   6  -3    4.28    0.36
  -7  -6   3    3.96    0.34
  -7  -6   3    4.66    0.39
   7  -6   3    4.77    0.36
   7  -6   3    4.32    0.36
  -7   6   3    4.53    0.37
   7  -6   3    4.39    0.38
  -7  -6   4    3.60    0.34
   7  -6  -4    3.43    0.30
  -7  -6   4    2.95    0.35
  -7   6  -4    3.72    0.35
  -7   6   4    3.20    0.34
   7  -6   4    3.03    0.35
   7  -6   4    3.57    0.35
   7  -6   4    3.59    0.34
  -7  -6   5    0.68    0.21
  -7  -6   5    0.56    0.23
  -7   6  -5    0.70    0.23
   7  -6  -5    0.56    0.17
  -7   6   5    0.63    0.22
   7  -6   5    0.20    0.21
   7  -6   5    0.73    0.25
  -7   6  -6    7.43    0.55
  -7  -6   6    7.98    0.63
   7  -6   6    7.67    0.59
   7  -6   6    7.90    0.63
  -7   6   6    7.35    0.58
  -7   7   0    0.06    0.15
   7   7   0    0.02    0.10
  -7  -7   0    0.22    0.14
   7  -7   0    0.00    0.15
  -7  -7   1    0.71    0.18
  -7  -7   1    0.76    0.18
   7   7   1    0.70    0.14
   7  -7  -1    0.63    0.18
  -7   7  -1    0.73    0.19
   7  -7   1    0.89    0.19
   7  -7   1    1.01    0.18
  -7   7   1    1.00    0.19
  -7  -7  -1    0.81    0.19
   7   7  -1    0.88    0.13
  -7  -7   2    0.87    0.20
   7   7   2    0.56    0.15
  -7   7  -2    0.72    0.19
  -7  -7   2    0.71    0.18
   7  -7  -2    0.54    0.18
   7  -7   2    0.52    0.18
   7  -7   2    0.60    0.16
  -7   7   2    0.50    0.18
   7   7   3    2.41    0.26
  -7  -7   3    2.95    0.31
  -7   7  -3    2.52    0.29
  -7  -7   3    2.56    0.31
   7  -7   3    2.79    0.32
  -7   7   3    2.49    0.29
   7  -7   3    2.69    0.30
   7  -7   3    2.25    0.28
  -7   7  -4    9.28    0.58
  -7  -7   4    9.79    0.59
  -7  -7   4    9.53    0.63
   7  -7   4    9.35    0.58
  -7   7   4    9.68    0.59
   7  -7   4    9.02    0.59
   7  -7   4   10.14    0.65
  -7  -7   5   -0.05    0.19
  -7  -7   5    0.08    0.21
  -7   7  -5    0.04    0.19
  -7   7   5    0.05    0.21
   7  -7   5    0.15    0.22
   7  -7   5    0.14    0.20
   7  -8   0    0.04    0.16
   7   8   0   -0.01    0.11
  -7  -8   0   -0.05    0.15
   7   8   1    2.30    0.22
  -7  -8   1    2.14    0.28
   7  -8  -1    2.30    0.28
   7  -8   1    2.30    0.29
   7  -8   1    1.85    0.24
  -7  -8  -1    2.60    0.30
   7   8   2    0.10    0.12
   7  -8  -2    0.12    0.17
  -7  -8   2   -0.02    0.16
   7  -8   2    0.03    0.17
   7  -8   2   -0.07    0.14
  -7  -8   3    5.75    0.47
  -7  -8   3    5.40    0.45
   7  -8   3    6.25    0.44
   7  -8   3    5.47    0.44
  -7  -8   4    0.90    0.26
  -7  -8   4    0.96    0.25
   7  -8   4    1.18    0.26
   7  -8   4    1.29    0.28
   7  -8   4    1.05    0.26
  -7  -8   5    0.48    0.25
  -7  -8   5    0.43    0.23
   7  -8   5    0.39    0.24
   7  -8   5    0.46    0.26
  -7  -9   0   -0.16    0.16
   7  -9   0    0.01    0.18
   7  -9  -1    1.95    0.29
  -7  -9   1    2.22    0.30
   7   9   1    2.09    0.23
   7  -9   1    2.32    0.31
  -7  -9  -1    1.84    0.30
   7  -9  -2    0.97    0.24
  -7  -9   2    1.01    0.25
   7  -9   2    0.78    0.24
  -7  -9  -2    0.91    0.24
   7  -9   2    0.68    0.21
  -7  -9   3    6.76    0.53
   7  -9   3    6.87    0.51
   7  -9   3    7.46    0.54
  -7 -10   0   -0.02    0.19
   7 -10   0   -0.08    0.18
   7 -10  -1    1.37    0.28
  -7 -10   1    1.03    0.26
   7 -10   1    0.84    0.25
  -7 -10  -1    0.83    0.26
   8   0   0   60.16    2.46
  -8   0   0   61.13    2.47
  -8   0   1   72.83    2.95
   8   0   1   72.22    2.94
   8   0  -1   73.55    2.94
  -8   0  -1   72.14    2.94
  -8   0  -2   36.96    1.58
   8   0   2   37.08    1.59
   8   0  -2   39.34    1.57
  -8   0   2   39.63    1.59
   8   0   2   36.80    1.57
   8   0   3  101.43    4.19
   8   0  -3  104.06    4.19
  -8   0   3  103.32    4.23
   8   0   3  104.62    4.18
  -8   0   3  104.55    4.20
  -8   0  -3  104.80    4.20
   8   0   4    3.58    0.26
  -8   0   4    3.70    0.31
   8   0  -4    3.45    0.26
  -8   0   4    3.47    0.33
   8   0  -5   44.23    1.89
  -8   0   5   45.79    1.93
  -8   0   5   44.20    1.94
   8   0   5   45.81    1.97
  -8   0   6    1.02    0.24
  -8   0   6    1.32    0.25
   8   0   6    1.31    0.26
   8   0  -6    1.14    0.19
  -8   0   7    1.68    0.30
   8   0   7    2.02    0.34
   8  -1   0   60.21    2.44
   8  -1   0   59.64    2.46
  -8  -1   0   59.65    2.44
  -8   1   0   60.40    2.46
   8   1   0   61.22    2.45
   8  -1  -1   29.80    1.20
  -8  -1   1   29.93    1.19
   8  -1  -1   30.50    1.19
  -8   1  -1   26.85    1.20
   8   1   1   26.15    1.19
  -8   1   1   30.46    1.21
   8  -1   1   26.98    1.20
   8   1  -1   29.58    1.19
   8  -1   1   26.35    1.18
  -8  -1  -1   27.04    1.18
   8  -1  -2   13.68    0.62
   8  -1  -2   13.83    0.61
  -8   1  -2   12.71    0.63
  -8  -1   2   13.24    0.62
   8   1   2   13.77    0.61
   8  -1   2   13.40    0.60
  -8   1   2   13.41    0.64
   8  -1   2   13.07    0.62
  -8  -1  -2   13.83    0.61
   8   1  -2   13.80    0.61
  -8  -1   3   12.12    0.61
   8  -1  -3   11.67    0.55
  -8  -1   3   11.84    0.57
   8  -1  -3   11.15    0.54
   8   1  -3   11.80    0.55
  -8   1   3   11.81    0.59
  -8   1   3   11.35    0.59
  -8  -1   4    6.69    0.46
  -8  -1   4    7.05    0.42
   8   1   4    7.26    0.38
   8  -1  -4    6.93    0.39
   8  -1   4    7.36    0.47
  -8   1   4    7.07    0.45
   8   1  -4    6.55    0.38
   8  -1   4    7.48    0.39
  -8   1   4    6.37    0.44
  -8  -1   5    3.35    0.36
   8  -1  -5    3.33    0.28
  -8  -1   5    3.80    0.33
   8  -1   5    3.09    0.34
  -8   1   5    3.56    0.34
  -8   1   5    3.19    0.33
   8   1  -5    3.53    0.27
  -8  -1   6   13.49    0.74
  -8  -1   6   14.27    0.79
   8  -1  -6   14.64    0.71
   8   1  -6   13.83    0.69
  -8   1   6   14.37    0.77
   8  -1   6   14.97    0.81
  -8  -1   7    2.75    0.36
  -8  -1   7    3.35    0.36
  -8   1   7    2.89    0.36
   8  -1   7    2.29    0.36
  -8   2   0   50.01    2.06
   8  -2   0   50.51    2.03
   8   2   0   49.97    2.04
  -8  -2   0   49.70    2.02
   8  -2   0   49.41    2.06
  -8  -2   1   71.70    2.85
  -8   2  -1   71.25    2.88
   8   2   1   70.26    2.87
   8  -2  -1   71.32    2.86
   8  -2  -1   71.40    2.88
  -8  -2   1   69.38    2.85
  -8  -2  -1   67.78    2.84
   8  -2   1   72.83    2.85
  -8   2   1   69.98    2.88
   8  -2   1   70.67    2.88
   8   2  -1   71.22    2.86
   8  -2   1   70.15    2.85
  -8  -2   2   25.12    1.05
  -8  -2   2   24.65    1.10
   8   2   2   24.44    1.05
   8  -2  -2   24.67    1.05
   8  -2  -2   25.15    1.05
  -8   2  -2   23.53    1.07
  -8  -2  -2   24.32    1.04
   8  -2   2   24.25    1.07
   8   2  -2   23.70    1.04
  -8   2   2   25.45    1.08
  -8  -2   3   21.60    0.94
  -8   2  -3   21.19    0.96
  -8  -2   3   21.23    1.00
   8  -2  -3   21.29    0.94
   8  -2  -3   20.87    0.93
  -8   2   3   21.32    0.96
   8  -2   3   21.62    0.95
   8   2  -3   21.28    0.93
   8  -2   3   22.50    1.01
  -8   2   3   21.15    0.97
  -8   2  -4   11.25    0.56
  -8  -2   4    9.06    0.58
  -8  -2   4    9.35    0.52
   8  -2  -4    9.42    0.51
   8   2  -4    9.97    0.50
  -8   2   4    9.89    0.56
   8  -2   4   11.88    0.61
  -8   2   4    9.18    0.55
   8  -2   4   11.51    0.53
   8  -2  -5    7.40    0.43
  -8  -2   5    7.60    0.45
  -8  -2   5    6.96    0.50
  -8   2   5    6.69    0.47
   8   2  -5    6.97    0.40
   8  -2   5    7.21    0.51
  -8  -2   6    1.93    0.31
   8  -2  -6    2.18    0.26
  -8  -2   6    1.88    0.27
  -8   2   6    2.26    0.30
   8  -2   6    3.55    0.38
   8   2  -6    2.53    0.24
  -8  -2   7   11.66    0.76
  -8  -2   7   11.89    0.70
   8  -2   7   12.50    0.79
  -8   2   7   12.80    0.73
   8  -3   0  165.07    6.50
  -8   3   0  161.49    6.53
   8  -3   0  163.49    6.54
   8   3   0  161.13    6.51
   8  -3  -1   22.25    0.88
  -8  -3   1   21.24    0.89
   8   3   1   19.16    0.88
   8  -3  -1   20.87    0.90
  -8   3  -1   19.01    0.90
   8   3  -1   20.63    0.88
   8  -3   1   19.42    0.87
   8  -3   1   18.95    0.90
  -8   3   1   21.90    0.92
   8  -3  -2   67.67    2.81
   8  -3  -2   70.57    2.80
   8   3   2   71.03    2.81
  -8  -3   2   66.68    2.79
  -8  -3   2   68.40    2.85
  -8   3  -2   69.07    2.82
   8  -3   2   69.22    2.81
   8  -3   2   67.77    2.82
   8   3  -2   68.74    2.79
   8  -3   2   68.00    2.85
  -8   3   2   68.47    2.83
  -8  -3   3   10.33    0.48
  -8  -3   3   11.07    0.58
   8  -3  -3   10.27    0.49
  -8   3  -3    8.37    0.52
   8  -3  -3   10.88    0.49
   8  -3   3    8.57    0.50
   8  -3   3    8.23    0.55
   8   3  -3   10.29    0.48
  -8   3   3   11.12    0.55
   8  -3   3    8.38    0.51
  -8   3  -4    1.08    0.21
  -8  -3   4    1.71    0.26
  -8  -3   4    1.95    0.21
   8  -3  -4    1.72    0.20
  -8   3   4    1.93    0.25
   8  -3   4    1.56    0.23
   8   3  -4    1.61    0.18
   8  -3   4    1.29    0.20
   8  -3   4    1.22    0.24
   8  -3  -5    2.78    0.26
  -8  -3   5    3.01    0.35
  -8  -3   5    2.38    0.26
   8  -3   5    2.65    0.33
   8   3  -5    2.94    0.24
  -8   3   5    2.50    0.30
  -8  -3   6    2.82    0.37
   8  -3  -6    2.96    0.29
  -8  -3   6    3.58    0.34
  -8   3   6    2.70    0.34
   8  -3   6    3.71    0.41
   8   3  -6    3.01    0.27
  -8  -3   7    2.05    0.31
  -8  -3   7    2.00    0.35
  -8   3   7    2.86    0.36
   8  -3   7    2.71    0.40
   8   4   0   40.67    1.68
  -8   4   0   39.96    1.70
   8  -4   0   40.47    1.71
  -8   4  -1   26.74    1.20
   8  -4  -1   28.88    1.17
   8  -4  -1   28.77    1.21
  -8  -4   1   28.63    1.23
  -8  -4   1   27.59    1.19
   8   4   1   26.50    1.18
   8   4  -1   27.67    1.17
   8  -4   1   26.73    1.21
   8  -4   1   27.56    1.18
  -8   4   1   27.98    1.21
   8   4   2   24.98    1.10
  -8   4  -2   23.44    1.12
  -8  -4   2   25.44    1.16
   8  -4  -2   26.30    1.09
   8  -4  -2   25.88    1.11
  -8  -4   2   25.87    1.11
   8  -4   2   25.30    1.11
  -8   4   2   27.29    1.14
   8   4  -2   25.79    1.08
   8  -4   2   25.20    1.15
   8  -4   2   24.04    1.12
  -8  -4   3   50.95    2.16
   8  -4  -3   52.18    2.16
   8  -4  -3   51.32    2.16
  -8  -4   3   53.20    2.23
  -8   4  -3   52.00    2.18
   8   4  -3   51.68    2.13
  -8   4   3   52.04    2.19
   8  -4   3   52.07    2.22
   8  -4   3   52.51    2.18
   8  -4   3   52.37    2.18
  -8   4  -4    3.12    0.31
  -8  -4   4    3.11    0.34
   8  -4  -4    3.17    0.28
   8  -4   4    3.35    0.32
   8   4  -4    3.01    0.24
  -8   4   4    2.80    0.30
   8  -4   4    3.24    0.31
   8  -4   4    2.83    0.33
  -8   4  -5   25.31    1.17
   8  -4  -5   24.30    1.13
  -8  -4   5   24.86    1.21
   8  -4   5   24.67    1.17
  -8   4   5   25.42    1.18
   8   4  -5   24.66    1.08
   8  -4   5   26.04    1.23
  -8   4  -6    1.28    0.28
  -8  -4   6    0.91    0.27
   8  -4   6    0.86    0.29
  -8   4   6    0.91    0.27
  -8  -4   7    0.40    0.26
   8  -4   7    0.97    0.31
  -8   4   7    0.89    0.29
  -8  -5   0    2.83    0.27
  -8   5   0    2.98    0.28
   8  -5   0    3.11    0.27
  -8  -5   0    3.15    0.27
   8   5   0    2.92    0.23
  -8  -5   1   20.25    0.87
   8   5   1   16.90    0.84
  -8   5  -1   17.06    0.86
   8  -5  -1   20.43    0.88
  -8  -5   1   20.29    0.90
  -8   5   1   19.68    0.88
   8  -5   1   17.66    0.88
   8   5  -1   19.42    0.83
   8  -5   1   18.01    0.84
  -8  -5   2    0.68    0.18
  -8   5  -2    0.75    0.18
  -8  -5   2    0.81    0.16
   8  -5  -2    0.66    0.16
   8   5   2    0.70    0.14
   8  -5   2    0.50    0.16
   8   5  -2    0.77    0.13
  -8   5   2    0.55    0.18
   8  -5   2    0.76    0.19
   8  -5   2    0.65    0.15
  -8  -5   3    7.09    0.40
   8  -5  -3    7.26    0.40
  -8   5  -3    4.58    0.41
   8   5   3    4.39    0.36
   8  -5  -3    7.01    0.38
  -8  -5   3    6.91    0.46
   8   5  -3    7.16    0.35
   8  -5   3    4.80    0.42
  -8   5   3    6.92    0.43
   8  -5   3    4.40    0.39
  -8   5  -4   25.04    1.13
   8  -5  -4   23.30    1.09
  -8  -5   4   23.46    1.17
   8   5  -4   23.77    1.04
   8  -5   4   24.35    1.13
   8  -5   4   25.28    1.12
  -8   5   4   23.91    1.13
   8  -5   4   24.59    1.18
  -8  -5   5    2.80    0.36
   8  -5  -5    2.77    0.28
  -8   5  -5    1.92    0.30
   8  -5   5    2.27    0.32
  -8   5   5    2.81    0.33
   8  -5   5    2.29    0.34
  -8  -5   6   19.71    1.10
  -8   5  -6   21.19    1.04
  -8   5   6   20.61    1.07
   8  -5   6   22.31    1.13
   8  -5   6   20.86    1.07
   8  -6   0   27.27    1.21
  -8  -6   0   26.48    1.20
  -8   6   0   26.39    1.19
  -8  -6   0   27.90    1.21
   8   6   0   26.07    1.15
  -8  -6   1   12.15    0.65
   8  -6  -1   11.99    0.64
  -8  -6   1   12.52    0.64
   8   6   1   12.45    0.60
  -8   6  -1   12.99    0.65
   8   6  -1   11.95    0.58
  -8   6   1   12.38    0.65
   8  -6   1   12.93    0.66
   8  -6   1   13.24    0.66
  -8  -6   2   15.60    0.77
   8   6   2   15.42    0.74
  -8  -6   2   16.29    0.80
   8  -6  -2   15.72    0.76
  -8   6  -2   14.99    0.76
   8  -6   2   15.22    0.78
   8  -6   2   15.82    0.79
  -8   6   2   16.37    0.79
   8  -6   2   15.03    0.76
   8   6  -2   16.10    0.71
  -8   6  -3    1.84    0.27
  -8  -6   3    2.13    0.28
  -8  -6   3    1.85    0.24
   8   6   3    1.77    0.22
   8  -6   3    1.72    0.24
   8  -6   3    2.10    0.27
   8  -6   3    1.89    0.27
  -8   6   3    1.59    0.25
  -8  -6   4    5.36    0.47
  -8  -6   4    5.20    0.42
  -8   6  -4    6.31    0.45
   8  -6   4    5.67    0.44
  -8   6   4    5.82    0.44
   8  -6   4    6.30    0.50
   8  -6   4    5.90    0.43
  -8  -6   5    0.95    0.24
   8  -6  -5    0.48    0.18
  -8   6  -5    0.36    0.23
   8  -6   5    0.23    0.22
   8  -6   5    0.37    0.25
  -8   6   5    0.56    0.24
  -8   6  -6    2.69    0.37
  -8  -6   6    1.30    0.31
  -8   6   6    1.89    0.34
   8  -6   6    2.03    0.36
   8  -6   6    1.77    0.33
   8  -7   0  121.71    4.92
  -8   7   0  120.13    4.89
  -8  -7   0  119.11    4.92
   8   7   0  120.09    4.85
  -8   7  -1    9.26    0.56
   8  -7  -1   10.39    0.57
   8   7   1   10.15    0.52
  -8  -7   1   10.02    0.57
  -8  -7   1   10.21    0.57
  -8  -7  -1    9.10    0.57
  -8   7   1   10.44    0.57
   8  -7   1    9.32    0.57
   8   7  -1   10.34    0.49
   8   7   2   61.57    2.52
  -8  -7   2   61.26    2.58
  -8  -7   2   58.52    2.56
  -8   7  -2   59.11    2.54
   8  -7  -2   61.07    2.55
  -8   7   2   61.78    2.55
   8  -7   2   59.70    2.56
   8  -7   2   60.95    2.55
  -8  -7   3    6.58    0.46
  -8   7  -3    4.70    0.40
  -8  -7   3    5.20    0.40
   8   7   3    4.39    0.36
  -8   7   3    5.52    0.43
   8  -7   3    4.43    0.41
   8  -7   3    4.56    0.39
   8  -7   3    4.49    0.41
  -8  -7   4    6.73    0.52
  -8   7  -4    6.03    0.48
  -8  -7   4    6.42    0.47
   8  -7   4    6.82    0.48
   8  -7   4    5.73    0.52
  -8   7   4    6.96    0.49
   8  -7   4    5.45    0.46
  -8  -7   5    1.46    0.31
  -8   7  -5    1.24    0.28
   8  -7   5    1.25    0.30
  -8   7   5    1.90    0.31
   8  -7   5    1.19    0.28
   8  -8   0   14.00    0.75
  -8   8   0   13.45    0.86
  -8  -8   0   13.99    0.75
   8   8   0   13.53    0.66
  -8  -8   1    0.51    0.19
   8  -8  -1    0.84    0.21
  -8   8  -1    0.65    0.23
   8   8   1    0.54    0.15
  -8  -8  -1    0.64    0.21
   8  -8   1    0.75    0.21
   8  -8  -2    8.58    0.53
  -8  -8   2    8.62    0.55
  -8   8  -2    8.62    0.60
   8   8   2    7.85    0.48
   8  -8   2    8.58    0.56
   8  -8   2    8.04    0.56
  -8  -8   3    5.41    0.46
  -8   8  -3    5.52    0.64
  -8  -8   3    4.74    0.43
   8  -8   3    4.99    0.43
   8  -8   3    4.94    0.45
  -8  -8   4    1.33    0.29
  -8  -8   4    1.32    0.28
   8  -8   4    1.42    0.28
   8  -8   4    1.82    0.30
  -8  -9   0   -0.05    0.17
   8  -9   0   -0.12    0.18
   8  -9  -1    6.30    0.48
  -8  -9   1    6.00    0.48
  -8  -9  -1    5.77    0.47
   8  -9   1    5.47    0.47
   8  -9  -2    2.45    0.32
  -8  -9   2    2.52    0.34
  -8  -9  -2    2.69    0.34
   8  -9   2    2.61    0.34
  -8  -9   3    3.04    0.36
   8  -9   3    1.65    0.30
   8  -9   3    1.35    0.29
  -8 -10   0    9.29    0.63
   8 -10   0    8.67    0.61
   9   0   0    0.06    0.08
  -9   0   0    0.07    0.11
  -9   0  -1    4.37    0.27
   9   0   1    4.23    0.25
  -9   0   1    4.03    0.28
   9   0  -1    4.30    0.26
   9   0  -2    7.30    0.38
   9   0   2    7.47    0.40
  -9   0   2    7.07    0.40
  -9   0  -2    7.29    0.40
   9   0   2    7.22    0.37
   9   0   3   32.05    1.37
  -9   0   3   33.75    1.43
   9   0   3   31.02    1.38
   9   0  -3   33.02    1.38
  -9   0   3   33.20    1.40
  -9   0  -3   31.58    1.39
   9   0  -4    1.98    0.21
  -9   0   4    2.30    0.27
   9   0   4    2.19    0.22
  -9   0   4    2.42    0.27
  -9   0   5   26.69    1.24
  -9   0   5   27.24    1.23
   9   0  -5   26.49    1.18
   9   0  -6    0.89    0.19
  -9   0   6    1.00    0.24
  -9   0   6    0.98    0.25
  -9   0   7   12.01    0.72
   9  -1   0    0.04    0.10
  -9  -1   0   -0.02    0.10
   9  -1   0    0.04    0.08
   9   1   0   -0.09    0.08
  -9   1   0   -0.05    0.12
   9  -1  -1   11.71    0.54
  -9  -1   1   11.25    0.54
  -9   1  -1   11.59    0.56
   9   1   1   11.57    0.54
   9  -1  -1   12.12    0.56
  -9  -1  -1   11.61    0.54
   9  -1   1   11.70    0.53
  -9   1   1   11.90    0.56
   9   1  -1   11.74    0.54
   9  -1   1   11.47    0.56
   9   1   2    0.33    0.11
   9  -1  -2    0.36    0.12
  -9  -1   2    0.49    0.13
   9  -1  -2    0.40    0.11
  -9   1  -2    0.36    0.13
  -9   1   2    0.37    0.15
  -9  -1  -2    0.43    0.13
   9   1  -2    0.50    0.12
   9  -1   2    0.32    0.12
   9  -1   2    0.59    0.11
  -9  -1   3   36.18    1.60
  -9   1  -3   37.69    1.57
   9  -1  -3   36.53    1.55
   9  -1  -3   37.29    1.55
  -9  -1   3   37.19    1.56
   9   1   3   36.94    1.55
  -9  -1  -3   35.84    1.55
  -9   1   3   37.07    1.58
   9  -1   3   36.34    1.56
   9   1  -3   36.79    1.55
  -9   1   3   37.53    1.59
  -9   1  -4    0.89    0.19
  -9  -1   4    1.02    0.21
   9  -1  -4    0.93    0.16
  -9  -1   4    0.50    0.17
   9   1   4    0.76    0.15
   9   1  -4    0.49    0.14
   9  -1   4    0.70    0.15
  -9   1   4    0.90    0.19
  -9   1   4    1.03    0.21
  -9  -1   5   10.39    0.58
  -9  -1   5    9.92    0.61
   9  -1  -5   10.28    0.54
  -9   1   5   10.68    0.59
  -9   1   5   10.24    0.59
   9   1  -5    9.75    0.53
   9  -1   5    9.51    0.62
  -9  -1   6    0.85    0.22
  -9  -1   6    1.18    0.25
   9  -1  -6    0.89    0.19
  -9   1   6    1.01    0.24
   9   1  -6    0.87    0.19
   9  -1   6    1.34    0.28
  -9  -1   7    0.34    0.22
  -9  -1   7    0.16    0.23
  -9   1   7    0.13    0.23
   9  -1   7    0.22    0.25
  -9   2   0    0.16    0.12
   9  -2   0    0.21    0.11
   9   2   0   -0.08    0.08
  -9  -2   0    0.04    0.09
   9  -2   0    0.07    0.08
   9  -2  -1    2.01    0.18
  -9  -2   1    1.80    0.17
   9  -2  -1    1.74    0.19
   9   2   1    2.24    0.19
  -9   2  -1    1.45    0.19
   9   2  -1    2.13    0.18
  -9   2   1    1.71    0.20
  -9  -2  -1    2.08    0.18
   9  -2   1    1.71    0.16
   9  -2   1    1.68    0.19
  -9  -2   2    0.41    0.16
   9  -2  -2    0.48    0.12
   9   2   2    0.69    0.13
  -9   2  -2    0.60    0.16
  -9  -2   2    0.64    0.14
   9  -2  -2    0.49    0.13
   9   2  -2    0.66    0.12
  -9   2   2    0.45    0.17
   9  -2   2    0.61    0.14
  -9  -2  -2    0.68    0.13
  -9  -2   3    1.17    0.17
   9  -2  -3    1.01    0.15
   9   2   3    1.14    0.17
   9  -2  -3    1.36    0.17
  -9   2  -3    1.15    0.20
  -9  -2   3    0.88    0.20
  -9   2   3    1.01    0.18
   9   2  -3    1.07    0.15
   9  -2   3    1.18    0.17
  -9   2   3    1.10    0.20
  -9  -2  -3    1.42    0.18
   9  -2  -4    6.07    0.37
  -9  -2   4    6.23    0.46
  -9   2  -4    6.20    0.41
  -9  -2   4    5.66    0.38
   9   2  -4    6.04    0.36
   9  -2   4    6.60    0.39
  -9   2   4    6.05    0.43
   9  -2   4    5.90    0.45
  -9  -2   5    0.08    0.15
   9  -2  -5    0.00    0.12
  -9   2  -5   -0.13    0.16
  -9  -2   5   -0.10    0.17
   9  -2   5    0.03    0.18
  -9   2   5   -0.09    0.16
   9   2  -5    0.20    0.13
  -9  -2   6   19.83    0.96
   9  -2  -6   20.07    0.94
  -9  -2   6   19.27    1.02
   9  -2   6   20.03    1.05
   9   2  -6   19.99    0.91
  -9   2   6   19.26    1.00
  -9  -2   7    1.30    0.28
  -9  -2   7    0.69    0.27
  -9   2   7    0.92    0.27
   9  -2   7    0.97    0.31
   9   3   0    0.00    0.09
  -9   3   0   -0.11    0.13
   9  -3   0    0.14    0.11
   9  -3   0    0.03    0.08
  -9  -3   1    7.25    0.37
  -9   3  -1    7.50    0.42
   9  -3  -1    6.68    0.39
   9  -3  -1    6.84    0.36
   9   3   1    6.72    0.38
   9  -3   1    7.33    0.41
   9   3  -1    6.90    0.37
  -9   3   1    7.39    0.42
  -9   3  -2    0.37    0.14
   9  -3  -2    0.17    0.10
  -9  -3   2    0.18    0.15
   9   3   2    0.09    0.11
   9  -3  -2    0.09    0.11
   9   3  -2    0.14    0.10
   9  -3   2    0.26    0.13
  -9   3   2    0.22    0.16
   9  -3   2    0.07    0.12
  -9  -3   3   23.37    1.09
   9   3   3   23.09    1.02
   9  -3  -3   23.17    1.01
  -9   3  -3   22.84    1.04
   9  -3  -3   23.25    1.01
   9  -3   3   22.50    1.09
  -9   3   3   23.47    1.06
   9  -3   3   22.03    1.03
   9  -3   3   23.55    1.04
   9   3  -3   22.65    1.00
   9  -3  -4    0.43    0.15
  -9  -3   4    0.66    0.20
  -9   3  -4    0.19    0.17
  -9   3   4    0.36    0.19
   9  -3   4    0.47    0.16
   9   3  -4    0.35    0.13
   9  -3   4    0.50    0.20
  -9  -3   5    2.83    0.35
  -9   3  -5    2.96    0.33
   9  -3  -5    3.37    0.30
   9  -3   5    2.70    0.35
  -9   3   5    2.86    0.33
   9   3  -5    3.11    0.27
  -9  -3   6    0.58    0.24
  -9   3  -6    0.65    0.25
   9   3  -6    0.63    0.17
   9  -3   6    0.04    0.22
  -9   3   6    0.44    0.24
  -9  -3   7    1.52    0.32
   9  -3   7    0.99    0.30
  -9   3   7    1.59    0.32
   9   4   0   -0.13    0.09
   9  -4   0    0.04    0.11
  -9   4   0    0.00    0.13
   9  -4  -1    2.36    0.25
   9  -4  -1    2.22    0.23
  -9  -4   1    2.78    0.23
   9   4   1    2.56    0.23
  -9  -4   1    2.77    0.29
  -9   4  -1    2.35    0.25
  -9   4   1    2.83    0.27
   9  -4   1    2.48    0.25
   9   4  -1    2.57    0.21
   9   4   2    4.71    0.31
  -9   4  -2    4.71    0.36
  -9  -4   2    4.20    0.30
   9  -4  -2    5.07    0.32
   9  -4  -2    4.72    0.30
  -9  -4   2    4.56    0.37
   9  -4   2    4.71    0.31
  -9   4   2    4.39    0.36
   9   4  -2    4.75    0.29
   9  -4   2    4.72    0.34
  -9   4  -3   17.85    0.87
   9   4   3   19.08    0.85
   9  -4  -3   18.68    0.85
  -9  -4   3   18.70    0.92
   9  -4  -3   17.97    0.84
   9  -4   3   18.22    0.92
  -9   4   3   17.86    0.89
   9  -4   3   18.49    0.87
   9  -4   3   18.12    0.86
   9   4  -3   18.69    0.82
   9  -4  -4    1.08    0.18
  -9   4  -4    0.75    0.21
  -9  -4   4    0.71    0.21
  -9   4   4    0.98    0.22
   9  -4   4    0.78    0.23
   9  -4   4    0.84    0.21
   9  -4   4    0.62    0.18
   9   4  -4    1.00    0.15
  -9  -4   5   14.12    0.82
   9  -4  -5   14.31    0.73
  -9   4  -5   14.11    0.77
   9   4  -5   14.55    0.68
  -9   4   5   14.59    0.79
   9  -4   5   15.26    0.84
  -9  -4   6    1.55    0.32
  -9   4  -6    1.25    0.27
  -9   4   6    1.42    0.30
   9  -4   6    1.30    0.31
  -9   5   0    0.02    0.15
   9   5   0   -0.06    0.10
   9  -5   0   -0.11    0.12
  -9  -5   0    0.04    0.12
  -9  -5   1    8.82    0.52
   9   5   1    9.38    0.47
  -9  -5   1    8.54    0.48
  -9   5  -1    9.05    0.51
   9  -5  -1    8.88    0.50
   9  -5   1    8.68    0.50
  -9   5   1    9.01    0.51
   9   5  -1    9.30    0.46
  -9   5  -2    1.30    0.21
  -9  -5   2    1.45    0.20
  -9  -5   2    1.43    0.23
   9  -5  -2    1.32    0.19
   9   5   2    1.27    0.18
   9   5  -2    1.52    0.17
   9  -5   2    1.25    0.20
   9  -5   2    1.21    0.19
  -9   5   2    1.44    0.23
  -9   5  -3   31.56    1.38
   9   5   3   30.57    1.35
   9  -5  -3   31.79    1.42
   9  -5  -3   29.76    1.34
  -9  -5   3   30.06    1.42
   9  -5   3   30.96    1.37
  -9   5   3   30.91    1.39
   9   5  -3   31.98    1.32
   9  -5   3   31.40    1.38
   9  -5   3   30.76    1.42
  -9  -5   4    3.08    0.36
  -9   5  -4    3.36    0.34
   9  -5  -4    3.58    0.31
  -9   5   4    3.55    0.36
   9   5  -4    3.53    0.27
   9  -5   4    3.64    0.40
   9  -5   4    3.56    0.35
   9  -5   4    3.66    0.35
  -9   5  -5   11.66    0.69
   9  -5  -5   12.31    0.64
  -9  -5   5   11.31    0.73
   9  -5   5   11.74    0.69
   9  -5   5   10.81    0.73
  -9   5   5   12.13    0.70
  -9   5  -6    4.84    0.48
  -9  -5   6    4.68    0.52
  -9   5   6    4.44    0.45
   9  -5   6    5.24    0.53
   9  -6   0   -0.04    0.14
   9   6   0    0.08    0.11
  -9   6   0    0.14    0.16
  -9  -6   0   -0.03    0.13
  -9  -6   0    0.06    0.13
  -9  -6   1    0.86    0.19
  -9  -6   1    0.65    0.17
   9   6   1    0.97    0.17
  -9   6  -1    1.14    0.22
   9  -6  -1    1.15    0.21
  -9   6   1    0.91    0.21
   9   6  -1    1.08    0.15
   9  -6   1    0.82    0.19
  -9   6  -2    0.67    0.20
  -9  -6   2    0.46    0.17
   9   6   2    0.49    0.15
  -9  -6   2    0.40    0.18
   9  -6  -2    0.63    0.17
  -9   6   2    0.77    0.21
   9   6  -2    0.59    0.13
   9  -6   2    0.71    0.19
   9   6   3    2.82    0.28
  -9   6  -3    2.87    0.31
  -9  -6   3    2.27    0.30
  -9  -6   3    2.21    0.30
   9   6  -3    2.75    0.24
   9  -6   3    2.20    0.31
   9  -6   3    2.38    0.29
  -9   6   3    2.18    0.29
   9  -6   3    2.21    0.27
   9   6   4    1.57    0.23
  -9   6  -4    1.32    0.26
  -9  -6   4    1.23    0.27
   9  -6   4    1.22    0.27
  -9   6   4    1.43    0.28
   9  -6   4    1.37    0.25
   9  -6   4    1.63    0.26
  -9  -6   5    0.49    0.23
   9  -6  -5    1.01    0.22
  -9   6  -5    0.71    0.24
  -9   6   5    0.81    0.27
   9  -6   5    0.60    0.24
   9  -6   5    0.88    0.27
  -9  -6   6    7.30    0.63
  -9   6  -6    8.04    0.59
   9  -6   6    7.01    0.58
  -9   6   6    6.86    0.59
   9  -6   6    8.06    0.64
   9  -7   0   -0.04    0.15
   9   7   0    0.18    0.12
  -9   7   0    0.00    0.17
  -9  -7   0   -0.19    0.13
  -9  -7   1    2.21    0.27
   9   7   1    2.35    0.24
  -9  -7   1    2.77    0.29
  -9   7  -1    2.75    0.30
   9  -7  -1    2.48    0.28
  -9  -7  -1    2.28    0.29
  -9   7   1    2.54    0.30
   9  -7   1    2.67    0.30
   9   7  -1    2.75    0.24
   9  -7  -2    0.22    0.16
  -9   7  -2    0.20    0.18
  -9  -7   2    0.38    0.17
  -9  -7   2    0.42    0.17
   9   7   2    0.29    0.15
  -9   7   2    0.43    0.21
   9  -7   2    0.45    0.18
   9   7  -2    0.10    0.17
  -9  -7   3    8.75    0.58
  -9  -7   3    7.77    0.52
  -9   7  -3    8.26    0.54
   9   7   3    8.45    0.51
   9  -7   3    8.57    0.54
  -9   7   3    7.93    0.55
   9  -7   3    8.96    0.54
   9  -7   3    8.00    0.56
  -9   7  -4    1.31    0.27
  -9  -7   4    1.39    0.28
   9  -7   4    0.79    0.26
  -9   7   4    1.21    0.26
   9  -7   4    0.96    0.23
   9  -7   4    0.71    0.24
  -9   7  -5    0.07    0.23
  -9  -7   5    0.15    0.23
   9  -7   5    0.40    0.26
  -9   7   5    0.61    0.27
   9  -7   5    0.23    0.22
  -9   8   0   -0.08    0.18
  -9  -8   0   -0.07    0.15
   9  -8   0    0.23    0.18
   9   8   0   -0.11    0.12
   9  -8  -1    0.66    0.21
  -9  -8   1    0.79    0.21
   9   8   1    0.76    0.17
  -9   8  -1    0.84    0.23
  -9   8   1    0.64    0.22
   9  -8   1    0.70    0.21
  -9  -8  -1    0.72    0.22
   9  -8  -2    0.73    0.22
  -9   8  -2    0.98    0.25
  -9  -8   2    0.75    0.21
   9  -8   2    1.25    0.25
  -9   8   2    1.02    0.26
  -9   8  -3    3.51    0.38
  -9  -8   3    3.63    0.38
  -9  -8   3    4.55    0.44
   9  -8   3    3.60    0.39
  -9   8   3    3.78    0.40
  -9   8  -4    0.06    0.22
  -9  -8   4    0.15    0.22
  -9   8   4   -0.16    0.25
   9  -8   4    0.15    0.21
   9  -8   4    0.37    0.21
  -9  -9   0    0.17    0.19
   9  -9   0    0.18    0.18
  -9  -9   1    3.44    0.37
   9  -9  -1    3.63    0.38
  -9  -9  -1    3.34    0.39
   9  -9   1    3.59    0.39
  -9  -9   2    0.43    0.23
   9  -9  -2    0.74    0.24
   9  -9   2    0.90    0.25
  -9  -9  -2    0.46    0.23
  10   0   0   24.28    1.06
 -10   0   0   25.39    1.07
 -10   0   1    0.29    0.13
  10   0  -1    0.32    0.10
  10   0   1    0.20    0.10
 -10   0  -1    0.36    0.13
 -10   0  -2   58.73    2.46
  10   0   2   59.01    2.45
  10   0   2   58.68    2.47
 -10   0   2   61.05    2.47
  10   0  -2   61.68    2.46
 -10   0   3    2.53    0.26
  10   0  -3    2.76    0.25
  10   0  -3    2.64    0.23
 -10   0   3    2.24    0.27
 -10   0  -4   84.62    3.49
  10   0  -4   83.15    3.48
  10   0   4   85.35    3.49
 -10   0   4   85.78    3.54
 -10   0   4   86.89    3.51
  10   0  -5    1.84    0.22
 -10   0   5    1.85    0.27
 -10   0   5    1.48    0.25
 -10   0   6   50.28    2.12
 -10   0   6   47.44    2.14
  10   0  -6   48.30    2.07
 -10   0   7    0.07    0.22
  10  -1   0    5.77    0.35
 -10   1   0    6.04    0.36
  10  -1   0    6.09    0.33
 -10  -1   0    5.95    0.34
  10   1   0    6.06    0.33
 -10   1  -1   30.73    1.36
  10  -1  -1   33.08    1.37
  10   1   1   30.31    1.34
  10  -1  -1   33.65    1.35
 -10  -1   1   32.94    1.35
  10   1  -1   32.59    1.35
 -10   1   1   32.89    1.37
  10  -1   1   30.95    1.37
 -10  -1  -1   30.34    1.34
  10  -1   1   31.14    1.34
 -10   1  -2    0.27    0.15
  10   1   2    0.13    0.11
  10  -1  -2    0.49    0.12
  10  -1  -2    0.36    0.13
 -10  -1   2    0.13    0.14
  10  -1   2    0.00    0.09
  10   1  -2    0.26    0.11
 -10  -1  -2    0.15    0.13
  10  -1   2    0.17    0.12
 -10   1   2    0.28    0.16
  10  -1  -3   32.78    1.33
 -10   1  -3   28.12    1.35
  10   1   3   28.61    1.32
 -10  -1   3   32.94    1.40
  10  -1  -3   31.70    1.33
 -10  -1   3   33.65    1.35
 -10   1   3   32.21    1.38
  10  -1   3   28.35    1.34
 -10  -1  -3   28.61    1.33
  10   1  -3   31.84    1.33
 -10   1   3   32.86    1.37
  10   1   4    7.62    0.48
  10   1   4    7.80    0.44
 -10  -1   4    7.14    0.51
  10  -1  -4    7.78    0.44
 -10   1  -4    7.31    0.47
 -10  -1   4    7.95    0.47
 -10   1   4    8.07    0.51
  10  -1   4    8.12    0.45
 -10  -1  -4    8.27    0.47
  10   1  -4    7.45    0.43
 -10   1   4    7.71    0.49
 -10   1  -5   13.70    0.75
 -10  -1   5   13.73    0.78
  10  -1  -5   14.02    0.70
 -10  -1   5   14.87    0.75
  10   1  -5   14.48    0.70
 -10   1   5   14.68    0.76
 -10   1   5   14.50    0.76
 -10  -1   6    8.17    0.55
 -10  -1   6    8.06    0.60
  10   1  -6    7.90    0.48
 -10   1   6    8.67    0.58
 -10  -1   7    0.38    0.23
 -10  -1   7    0.30    0.24
 -10   1   7    0.37    0.24
  10  -2   0  100.95    4.05
 -10  -2   0  100.31    4.04
  10   2   0  100.64    4.06
 -10   2   0   99.40    4.08
  10  -2   0  101.14    4.09
  10  -2  -1    9.94    0.51
 -10  -2   1    9.90    0.51
  10   2   1   11.39    0.53
  10  -2  -1    9.90    0.54
 -10   2  -1   11.72    0.56
 -10  -2  -1   11.44    0.51
  10   2  -1    9.92    0.51
 -10   2   1    9.91    0.55
  10  -2   1   11.54    0.55
  10  -2   1   11.48    0.50
  10  -2  -2   45.21    1.93
  10   2   2   48.89    1.93
 -10  -2   2   45.95    1.92
  10  -2  -2   44.03    1.92
 -10   2  -2   47.07    1.95
  10   2  -2   44.41    1.92
 -10   2   2   45.03    1.95
 -10  -2  -2   47.00    1.91
  10  -2   2   48.65    1.95
  10   2   3   32.92    1.32
 -10   2  -3   32.02    1.34
  10  -2  -3   28.52    1.31
 -10  -2   3   29.50    1.31
  10  -2  -3   29.57    1.31
 -10  -2   3   28.71    1.38
  10  -2   3   33.24    1.34
 -10   2   3   29.83    1.35
 -10  -2  -3   32.60    1.31
  10   2  -3   28.22    1.30
 -10   2  -4    0.04    0.17
  10   2   4    0.32    0.14
  10  -2  -4    0.21    0.14
 -10  -2   4    0.53    0.17
 -10  -2   4    0.35    0.19
  10   2  -4    0.31    0.13
 -10   2   4    0.05    0.18
  10  -2   4    0.39    0.15
 -10  -2  -4    0.44    0.17
 -10   2  -5   25.98    1.16
 -10  -2   5   24.08    1.19
 -10  -2   5   24.77    1.14
  10  -2  -5   24.81    1.12
 -10   2   5   24.87    1.17
  10  -2   5   24.22    1.21
  10   2  -5   23.84    1.09
 -10  -2   6    1.77    0.32
 -10  -2   6    1.91    0.29
 -10   2  -6    2.23    0.33
  10   2  -6    2.13    0.25
 -10   2   6    1.96    0.33
  10  -2   6    2.00    0.34
 -10  -2   7    1.82    0.30
 -10  -2   7    1.78    0.35
 -10   2  -7    2.39    0.36
  10  -2   7    1.54    0.35
 -10   2   7    2.08    0.35
 -10   3   0    1.19    0.19
  10  -3   0    0.69    0.15
  10  -3   0    0.91    0.15
  10   3   0    0.97    0.15
  10  -3  -1    0.63    0.12
  10   3   1    0.22    0.12
  10  -3  -1    0.33    0.14
 -10   3  -1    0.46    0.16
 -10   3   1    0.63    0.18
  10  -3   1    0.34    0.14
  10   3  -1    0.76    0.13
  10  -3  -2    2.17    0.20
  10  -3  -2    2.03    0.22
  10   3   2    2.15    0.21
 -10  -3   2    1.83    0.26
 -10   3  -2    2.25    0.26
  10   3  -2    2.02    0.20
 -10   3   2    1.65    0.23
  10  -3   2    2.13    0.23
  10  -3  -3    4.04    0.29
 -10   3  -3    2.64    0.29
  10   3   3    2.72    0.27
  10  -3  -3    3.92    0.28
 -10  -3   3    3.96    0.37
  10   3  -3    4.11    0.27
 -10   3   3    4.07    0.35
  10  -3   3    2.40    0.27
 -10  -3   4   15.12    0.81
 -10   3  -4   15.33    0.78
  10   3   4   14.28    0.73
  10  -3  -4   14.23    0.72
 -10   3   4   15.26    0.78
  10   3  -4   15.52    0.71
  10  -3   4   14.43    0.74
  10  -3   4   15.72    0.82
 -10  -3   5    1.64    0.29
  10  -3  -5    1.68    0.23
 -10   3  -5    1.64    0.28
  10   3  -5    2.01    0.21
 -10   3   5    2.19    0.29
  10  -3   5    1.11    0.28
 -10  -3   6   11.79    0.74
 -10   3  -6   10.55    0.68
  10  -3   6   10.65    0.74
 -10   3   6   12.05    0.71
  10   3  -6   11.63    0.60
 -10   3  -7    0.29    0.26
 -10  -3   7    0.15    0.24
 -10   3   7    0.32    0.27
  10  -3   7    0.23    0.27
  10   4   0    9.29    0.47
 -10   4   0    8.80    0.51
  10  -4   0    8.93    0.50
 -10  -4   1    0.49    0.20
  10  -4  -1    0.30    0.14
 -10   4  -1    0.77    0.19
  10   4   1    0.60    0.14
 -10   4   1    0.23    0.17
  10  -4   1    0.37    0.14
  10   4  -1    0.24    0.11
  10  -4  -2   29.15    1.27
 -10  -4   2   29.08    1.32
  10  -4  -2   30.02    1.25
 -10   4  -2   28.04    1.28
  10   4   2   28.90    1.25
  10  -4   2   27.41    1.28
 -10   4   2   29.38    1.29
  10   4  -2   28.15    1.23
 -10  -4   3    3.33    0.37
 -10   4  -3    5.13    0.37
  10  -4  -3    3.18    0.28
  10  -4  -3    3.41    0.30
 -10   4   3    2.89    0.32
  10   4  -3    3.73    0.28
  10   4   4   50.99    2.12
  10  -4  -4   48.49    2.11
 -10  -4   4   50.90    2.20
 -10   4  -4   49.17    2.14
  10   4  -4   50.09    2.08
 -10   4   4   50.51    2.16
  10  -4   4   50.85    2.21
  10  -4   4   49.66    2.13
  10  -4  -5    2.38    0.28
 -10   4  -5    3.48    0.37
 -10  -4   5    2.29    0.35
  10   4  -5    2.51    0.25
 -10   4   5    2.72    0.34
  10  -4   5    3.06    0.37
 -10  -4   6   31.55    1.56
 -10   4  -6   33.32    1.50
 -10   4   6   31.44    1.51
  10  -4   6   32.57    1.56
 -10  -5   0    9.64    0.53
  10   5   0   10.35    0.52
 -10   5   0   10.34    0.57
  10  -5   0   10.39    0.56
  10  -5  -1   62.15    2.58
 -10   5  -1   61.08    2.58
  10   5   1   61.45    2.55
 -10  -5   1   63.46    2.61
 -10  -5   1   61.46    2.56
  10   5  -1   60.77    2.53
 -10   5   1   62.66    2.58
  10  -5   1   59.41    2.58
  10   5   2    2.31    0.25
 -10   5  -2    2.56    0.29
 -10  -5   2    2.80    0.31
  10  -5  -2    3.00    0.29
 -10   5   2    3.32    0.33
  10  -5   2    2.52    0.28
  10   5  -2    3.05    0.25
  10   5   3   48.81    2.15
 -10   5  -3   49.53    2.18
 -10  -5   3   52.68    2.23
  10  -5   3   49.91    2.18
  10  -5   3   50.24    2.16
  10   5  -3   51.72    2.11
 -10   5   3   53.64    2.20
  10   5   4    1.99    0.26
  10  -5  -4    1.70    0.24
 -10   5  -4    1.75    0.28
 -10  -5   4    1.92    0.30
  10  -5   4    1.56    0.26
  10  -5   4    1.76    0.30
 -10   5   4    1.75    0.28
  10   5  -4    1.52    0.20
  10  -5   4    2.42    0.29
 -10  -5   5   22.89    1.16
  10  -5  -5   22.74    1.05
 -10   5  -5   21.01    1.08
  10  -5   5   20.80    1.13
 -10   5   5   22.94    1.11
 -10  -5   6    3.85    0.46
 -10   5  -6    3.32    0.41
  10  -5   6    3.23    0.44
 -10   5   6    3.70    0.43
 -10  -6   0   24.34    1.13
 -10  -6   0   24.90    1.15
 -10   6   0   25.11    1.15
  10   6   0   25.52    1.10
  10  -6   0   24.89    1.15
  10  -6  -1    2.40    0.27
  10   6   1    2.72    0.25
 -10  -6   1    2.13    0.26
 -10   6  -1    3.14    0.31
 -10  -6   1    2.14    0.27
  10   6  -1    2.24    0.22
 -10   6   1    1.89    0.28
  10  -6   1    3.20    0.31
 -10  -6   2    7.91    0.54
 -10   6  -2    9.06    0.54
  10   6   2    9.47    0.50
  10  -6  -2    7.86    0.50
  10  -6   2    9.53    0.55
  10   6  -2    8.21    0.46
 -10   6   2    8.13    0.54
  10   6   3   11.91    0.60
 -10   6  -3   11.67    0.64
 -10  -6   3   10.06    0.65
  10  -6   3   11.76    0.64
  10   6  -3    9.86    0.53
 -10   6   3    9.57    0.63
 -10  -6   4    0.79    0.25
 -10   6  -4    0.72    0.25
  10  -6   4    0.63    0.25
  10  -6   4    1.02    0.24
 -10   6   4    1.24    0.27
  10  -6   4    1.09    0.24
 -10  -6   5    9.54    0.68
 -10   6  -5   10.08    0.65
  10  -6   5    9.23    0.63
 -10   6   5    8.27    0.63
  10  -6   5    9.96    0.67
  10   7   0   -0.01    0.12
  10  -7   0    0.03    0.16
 -10   7   0    0.11    0.19
 -10  -7   0    0.12    0.15
 -10   7  -1    3.89    0.36
 -10  -7   1    3.25    0.34
 -10  -7   1    2.55    0.30
  10   7   1    3.53    0.29
  10  -7  -1    2.53    0.32
 -10  -7  -1    3.40    0.33
  10  -7   1    3.60    0.35
  10   7  -1    3.15    0.27
 -10   7   1    3.03    0.34
 -10   7  -2    2.81    0.33
 -10  -7   2    2.16    0.29
  10  -7  -2    3.09    0.33
 -10  -7   2    2.77    0.32
  10   7   2    2.59    0.27
  10  -7   2    2.88    0.33
 -10   7   2    3.06    0.35
  10   7  -2    3.24    0.27
 -10  -7   3    0.40    0.21
 -10   7  -3    0.51    0.23
 -10   7   3    0.69    0.24
  10  -7   3    0.42    0.21
 -10  -7   4   10.96    0.72
 -10   7  -4    9.93    0.65
  10  -7   4   10.41    0.67
  10  -7   4   10.60    0.70
  10  -7   4    9.69    0.63
 -10   7   4   10.37    0.67
 -10   8   0    0.00    0.20
  10   8   0    0.04    0.13
 -10  -8   0   -0.07    0.17
  10  -8   0    0.03    0.19
  10  -8  -1    1.57    0.26
 -10   8  -1    1.79    0.30
 -10  -8   1    1.61    0.26
 -10  -8  -1    2.05    0.29
 -10   8   1    1.43    0.27
  10   8  -1    1.78    0.26
  10  -8   1    1.80    0.28
 -10   8  -2    1.81    0.31
  10  -8  -2    2.08    0.29
 -10  -8   2    2.13    0.29
  10  -8   2    1.26    0.27
 -10   8   2    2.39    0.33
 -10  -8   3    4.34    0.46
 -10   8  -3    4.86    0.46
 -10   8   3    4.03    0.44
  10  -8   3    5.52    0.46
  10  -9   0    4.74    0.44
 -10  -9   0    4.43    0.43
  10  -9  -1   32.79    1.53
 -10  -9   1   34.52    1.55
  10  -9   1   32.32    1.55
 -10  -9  -1   32.60    1.55
  10  -9  -2    1.51    0.28
 -10  -9   2    1.95    0.32
 -10  -9  -2    1.03    0.27
  10  -9   2    1.59    0.30
 -11   0   0   -0.04    0.13
  11   0   0   -0.10    0.09
 -11   0   1   13.90    0.67
 -11   0  -1   14.95    0.67
  11   0  -1   13.94    0.65
  11   0   1   13.38    0.64
  11   0  -2    0.18    0.12
  11   0   2    0.16    0.11
 -11   0   2    0.35    0.15
 -11   0  -2   -0.03    0.14
  11   0   2    0.23    0.13
 -11   0   3   52.26    2.19
  11   0  -3   51.39    2.17
  11   0   3   52.05    2.19
 -11   0  -3   52.42    2.18
  11   0  -3   52.65    2.18
 -11   0   3   51.89    2.23
  11   0   4    1.31    0.20
 -11   0   4    1.13    0.24
 -11   0  -4    1.27    0.23
  11   0  -4    1.18    0.19
 -11   0   4    0.74    0.21
  11   0  -5   13.40    0.69
 -11   0   5   13.92    0.77
 -11   0  -5   14.50    0.74
 -11   0   5   13.70    0.75
 -11   0   6    3.88    0.42
 -11   0   6    3.64    0.39
 -11   0  -6    5.14    0.46
 -11   0   7    0.32    0.24
 -11  -1   0   -0.03    0.12
  11   1   0   -0.03    0.09
 -11   1   0   -0.06    0.13
  11  -1   0   -0.06    0.09
  11  -1   0    0.03    0.12
  11  -1  -1    0.33    0.11
  11   1   1    0.35    0.12
 -11   1  -1    0.44    0.15
  11  -1  -1    0.38    0.13
 -11  -1   1    0.47    0.14
 -11   1   1    0.36    0.16
  11  -1   1    0.31    0.11
  11   1  -1    0.28    0.11
 -11  -1  -1    0.47    0.14
  11  -1   1    0.29    0.13
  11   1   2    1.45    0.18
 -11   1  -2    1.54    0.22
  11  -1  -2    1.65    0.20
  11  -1  -2    1.66    0.19
 -11  -1   2    1.53    0.20
 -11  -1  -2    1.82    0.21
  11   1  -2    1.44    0.18
  11  -1   2    1.60    0.21
 -11   1   2    1.63    0.23
 -11   1  -3    0.92    0.20
  11   1   3    1.00    0.16
 -11  -1   3    0.81    0.21
 -11  -1   3    0.76    0.19
  11  -1  -3    0.83    0.16
  11  -1  -3    0.79    0.17
  11  -1   3    1.01    0.18
 -11   1   3    0.85    0.20
  11   1  -3    0.75    0.16
 -11  -1  -3    0.91    0.18
  11   1   4   -0.04    0.12
 -11  -1   4   -0.08    0.15
 -11   1  -4    0.02    0.18
  11  -1  -4    0.15    0.14
 -11  -1   4    0.18    0.19
 -11  -1  -4    0.06    0.16
  11   1  -4   -0.02    0.12
 -11   1   4   -0.01    0.17
 -11   1   4   -0.07    0.17
  11  -1   4   -0.01    0.13
 -11  -1   5    0.48    0.20
  11  -1  -5    0.26    0.16
 -11   1  -5    0.55    0.22
 -11  -1   5    0.23    0.20
 -11  -1  -5    0.33    0.20
 -11   1   5    0.23    0.19
 -11   1   5    0.28    0.20
  11   1  -5    0.12    0.14
 -11  -1   6    2.67    0.36
 -11  -1   6    3.13    0.35
 -11   1  -6    2.85    0.36
 -11   1   6    2.88    0.37
 -11   1  -7   -0.22    0.24
 -11  -1   7    0.16    0.22
 -11  -1   7    0.20    0.25
 -11   1   7    0.25    0.25
  11  -2   0    0.07    0.09
 -11   2   0    0.12    0.14
  11   2   0    0.12    0.11
  11  -2   0    0.01    0.12
 -11  -2   0    0.21    0.12
  11  -2  -1   11.42    0.57
  11  -2  -1   10.86    0.54
 -11  -2   1   10.82    0.54
 -11   2  -1   11.27    0.58
  11   2   1   10.88    0.55
 -11   2   1   11.34    0.58
  11   2  -1   11.12    0.54
 -11  -2  -1   10.94    0.54
  11  -2   1   11.13    0.57
  11   2   2    8.87    0.48
  11  -2  -2    9.25    0.49
 -11  -2   2    8.70    0.47
 -11   2  -2    9.98    0.53
  11  -2  -2    9.01    0.47
  11  -2   2    9.04    0.50
  11   2  -2    8.88    0.47
 -11  -2  -2    9.48    0.48
 -11   2   2    8.92    0.52
  11  -2  -3   26.85    1.19
  11   2   3   27.44    1.19
 -11  -2   3   28.23    1.27
 -11   2  -3   27.76    1.23
  11  -2  -3   27.26    1.19
 -11  -2   3   27.35    1.19
  11   2  -3   27.24    1.19
  11  -2   3   25.93    1.21
 -11  -2  -3   26.25    1.18
 -11   2   3   27.43    1.23
  11  -2  -4   12.73    0.62
 -11  -2   4   12.12    0.71
  11   2   4   12.21    0.63
 -11  -2   4   12.36    0.63
 -11   2  -4   11.80    0.67
  11   2  -4   11.92    0.61
 -11  -2  -4   11.82    0.62
  11  -2   4   12.66    0.65
 -11   2   4   11.98    0.68
  11  -2  -5    6.51    0.42
 -11   2  -5    6.30    0.48
 -11  -2   5    5.92    0.51
 -11  -2   5    6.84    0.46
  11   2  -5    6.10    0.40
 -11   2   5    6.07    0.49
 -11  -2  -5    6.41    0.46
 -11  -2   6    8.77    0.57
 -11   2  -6    8.19    0.60
 -11  -2   6    8.71    0.64
 -11   2   6    9.52    0.62
  11  -3   0    0.15    0.13
 -11   3   0   -0.03    0.14
  11   3   0   -0.14    0.10
  11  -3  -1    1.27    0.19
  11   3   1    1.28    0.17
  11  -3  -1    1.22    0.16
 -11   3  -1    1.10    0.21
  11  -3   1    0.94    0.18
  11   3  -1    0.96    0.16
 -11   3   1    1.34    0.22
  11   3   2    0.34    0.13
 -11   3  -2    0.67    0.18
  11  -3  -2    0.56    0.14
 -11  -3   2    0.59    0.19
  11  -3  -2    0.42    0.14
  11  -3   2    0.42    0.15
 -11   3   2    0.68    0.19
  11   3  -2    0.46    0.14
  11  -3  -3    6.24    0.39
  11  -3  -3    5.93    0.38
 -11   3  -3    6.32    0.44
  11   3   3    6.49    0.40
 -11  -3   3    5.70    0.47
  11  -3   3    6.26    0.42
  11   3  -3    6.67    0.38
 -11   3   3    5.97    0.44
  11  -3  -4    0.18    0.15
  11   3   4    0.11    0.14
 -11  -3   4    0.23    0.21
 -11   3  -4   -0.09    0.18
  11   3  -4    0.13    0.14
 -11   3   4    0.15    0.19
  11  -3   4    0.30    0.17
 -11  -3   5    4.93    0.48
  11  -3  -5    5.18    0.39
 -11   3  -5    5.20    0.46
  11   3   5    5.14    0.39
  11   3  -5    4.93    0.36
 -11   3   5    5.14    0.46
 -11  -3   6    3.24    0.41
 -11   3  -6    4.07    0.41
 -11   3   6    3.57    0.41
  11  -3   6    3.19    0.43
 -11   4   0   -0.23    0.15
  11  -4   0   -0.04    0.12
  11   4   0   -0.10    0.11
  11  -4  -1    9.60    0.54
 -11   4  -1   10.33    0.56
  11   4   1    9.31    0.50
 -11   4   1    9.97    0.56
  11   4  -1    9.38    0.50
  11  -4   1    9.68    0.54
 -11  -4   2   -0.05    0.15
  11  -4  -2   -0.06    0.11
  11   4   2    0.02    0.12
  11  -4  -2   -0.01    0.13
 -11   4  -2   -0.09    0.16
  11   4  -2    0.09    0.12
  11  -4   2   -0.27    0.12
 -11   4   2   -0.34    0.15
  11   4   3   37.56    1.58
  11  -4  -3   34.97    1.56
 -11  -4   3   35.97    1.65
 -11   4  -3   38.13    1.61
  11  -4  -3   35.35    1.60
 -11   4   3   35.55    1.61
  11   4  -3   36.31    1.55
  11  -4   3   36.87    1.60
  11   4   4    0.27    0.16
  11  -4  -4    0.21    0.15
 -11   4  -4    0.16    0.20
 -11  -4   4    0.20    0.21
 -11   4   4    0.25    0.22
  11  -4   4   -0.15    0.16
  11   4  -4    0.08    0.13
  11  -4  -5    8.47    0.55
  11   4   5    9.62    0.56
 -11   4  -5    9.24    0.61
 -11  -4   5    9.56    0.66
 -11   4   5    9.64    0.62
  11   4  -5    9.00    0.51
  11  -4   5   10.37    0.68
 -11   4  -6    1.64    0.33
 -11  -4   6    1.43    0.33
  11  -4   6    1.42    0.33
 -11   4   6    1.66    0.33
 -11   5   0   -0.11    0.16
  11  -5   0    0.10    0.14
  11   5   0    0.17    0.13
 -11  -5   0   -0.29    0.11
  11  -5  -1    0.01    0.14
  11   5   1   -0.02    0.12
 -11  -5   1    0.02    0.14
 -11   5  -1   -0.02    0.18
 -11   5   1   -0.22    0.17
  11  -5   1    0.00    0.14
  11   5  -1    0.07    0.12
  11  -5  -2    2.23    0.25
 -11  -5   2    1.71    0.26
  11   5   2    2.00    0.23
 -11   5  -2    2.18    0.29
  11   5  -2    1.54    0.20
  11  -5   2    1.91    0.26
 -11   5   2    1.57    0.27
 -11  -5   3    0.08    0.19
  11   5   3    0.19    0.15
 -11   5  -3    0.09    0.20
  11  -5   3   -0.01    0.16
  11   5  -3    0.24    0.13
 -11   5   3    0.39    0.21
  11   5   4    0.11    0.17
 -11  -5   4    0.10    0.21
 -11   5  -4    0.06    0.20
  11  -5  -4   -0.08    0.14
 -11   5   4    0.45    0.23
  11  -5   4    0.03    0.20
  11  -5   4   -0.03    0.16
  11   5  -4    0.08    0.13
 -11  -5   5    0.72    0.28
 -11   5  -5    1.06    0.27
 -11   5   5    0.77    0.27
  11  -5   5    0.58    0.27
  11   6   0   -0.10    0.12
 -11   6   0    0.10    0.18
 -11  -6   0   -0.04    0.14
  11  -6   0   -0.01    0.15
 -11  -6   0    0.15    0.15
 -11  -6   1    5.22    0.43
 -11   6  -1    6.10    0.45
  11   6   1    5.84    0.38
  11  -6  -1    5.57    0.41
  11  -6   1    5.58    0.42
  11   6  -1    5.87    0.37
 -11   6   1    5.93    0.45
  11   6   2    2.31    0.26
  11  -6  -2    2.32    0.28
 -11   6  -2    2.52    0.30
 -11  -6   2    1.80    0.28
 -11   6   2    2.24    0.32
  11   6  -2    2.59    0.24
  11  -6   2    2.18    0.28
  11   6   3   16.66    0.81
 -11  -6   3   14.90    0.87
 -11   6  -3   16.31    0.85
  11   6  -3   16.53    0.76
  11  -6   3   16.01    0.85
 -11   6   3   16.55    0.87
 -11  -6   4    3.29    0.40
 -11   6  -4    2.74    0.36
  11  -6   4    2.55    0.34
 -11   6   4    3.03    0.37
 -11   6  -5    4.04    0.43
 -11  -6   5    3.72    0.45
 -11   6   5    3.42    0.41
  11  -6   5    3.91    0.46
  11  -6   5    3.27    0.40
 -11   7   0    0.19    0.22
  11  -7   0   -0.29    0.15
  11   7   0    0.04    0.13
 -11  -7   0    0.02    0.16
  11   7   1    0.85    0.18
 -11   7  -1    0.86    0.24
  11  -7  -1    0.65    0.21
 -11  -7   1    0.78    0.21
 -11  -7   1    0.84    0.21
  11  -7   1    0.96    0.23
  11   7  -1    0.78    0.17
 -11  -7  -1    0.92    0.22
 -11   7   1    0.70    0.23
 -11  -7   2    0.26    0.18
  11  -7  -2   -0.06    0.17
 -11   7  -2    0.16    0.22
  11  -7   2    0.05    0.19
 -11   7   2    0.19    0.22
  11   7  -2    0.07    0.14
 -11  -7   3    5.64    0.50
 -11   7  -3    5.52    0.50
 -11   7   3    5.34    0.50
  11  -7   3    5.98    0.47
 -11  -7   4    0.41    0.26
 -11   7  -4    0.12    0.24
  11  -7   4    0.25    0.21
 -11   7   4    0.25    0.24
 -11   8   0    0.30    0.23
 -11  -8   0    0.09    0.18
  11  -8   0    0.03    0.19
 -11  -8   1    3.47    0.36
 -11   8  -1    3.19    0.39
  11  -8  -1    4.02    0.39
 -11  -8  -1    3.56    0.37
 -11   8   1    3.01    0.37
  11  -8   1    4.20    0.41
 -11   8  -2    0.51    0.26
  11  -8  -2    0.35    0.21
 -11   8   2    0.31    0.25
  11  -8   2    0.74    0.23
 -11  -8  -2    0.07    0.20
 -11   8  -3   13.29    0.77
 -11  -8   3   12.76    0.81
  11  -8   3   13.97    0.79
 -11   8   3   13.01    0.79
  11  -9   0    0.00    0.21
 -11  -9   0    0.13    0.20
  12   0   0  134.12    5.44
 -12   0   0  135.99    5.45
 -12   0  -1    7.59    0.46
  12   0   1    7.84    0.44
  12   0  -1    9.08    0.45
  12   0   1    7.50    0.47
 -12   0   1    9.61    0.48
  12   0   2   48.15    2.02
  12   0   2   47.17    1.98
 -12   0  -2   47.31    2.00
 -12   0   2   47.09    2.01
  12   0  -2   48.41    2.00
  12   0  -2   47.42    2.01
 -12   0   3    5.18    0.38
  12   0   3    3.41    0.34
 -12   0  -3    3.80    0.36
 -12   0   3    5.31    0.43
  12   0  -3    5.37    0.35
  12   0  -3    5.03    0.34
 -12   0   4    0.31    0.20
  12   0  -4    0.46    0.16
 -12   0   4    0.26    0.21
 -12   0  -4    0.43    0.20
  12   0   4    0.67    0.18
 -12   0   5    0.80    0.24
 -12   0  -5    0.58    0.23
 -12   0   5    0.66    0.24
  12   0  -5    0.51    0.18
 -12   0  -6    0.99    0.28
 -12   0   6    1.94    0.33
 -12   0   6    1.44    0.30
 -12  -1   0   32.21    1.36
  12  -1   0   32.27    1.40
  12  -1   0   31.50    1.35
  12   1   0   31.14    1.36
 -12   1   0   31.97    1.38
 -12  -1   1    0.01    0.13
  12   1   1    0.01    0.11
  12  -1  -1   -0.06    0.10
  12  -1  -1    0.11    0.14
 -12   1  -1    0.22    0.15
  12  -1   1   -0.03    0.09
  12   1  -1   -0.10    0.10
  12  -1   1    0.05    0.13
 -12   1   1   -0.02    0.15
 -12  -1  -1    0.11    0.14
  12  -1  -2   17.42    0.82
  12  -1  -2   17.19    0.84
  12   1   2   18.13    0.82
 -12   1  -2   18.46    0.85
 -12  -1   2   18.26    0.83
 -12   1   2   17.84    0.86
  12   1  -2   17.09    0.82
 -12  -1  -2   17.82    0.82
  12  -1   2   18.27    0.85
  12   1   3    3.70    0.29
  12   1   3    3.67    0.32
 -12   1  -3    4.17    0.36
  12  -1  -3    3.47    0.29
  12  -1  -3    3.12    0.29
 -12  -1   3    3.79    0.38
 -12  -1   3    3.23    0.33
 -12   1   3    3.75    0.34
  12  -1   3    3.96    0.32
  12   1  -3    3.30    0.29
 -12  -1  -3    4.07    0.33
 -12   1  -4    2.83    0.32
 -12  -1   4    3.10    0.35
  12  -1  -4    2.92    0.28
  12   1   4    2.54    0.27
 -12  -1   4    2.90    0.31
  12   1  -4    3.17    0.28
 -12   1   4    3.11    0.33
  12  -1   4    2.25    0.27
 -12  -1  -4    2.68    0.30
 -12   1   4    2.80    0.33
 -12  -1   5    3.18    0.38
 -12  -1   5    3.67    0.37
 -12   1  -5    3.47    0.38
  12  -1  -5    4.06    0.34
 -12   1   5    3.81    0.38
  12   1  -5    3.41    0.31
 -12  -1  -5    3.51    0.36
 -12  -1   6    0.24    0.22
 -12   1  -6   -0.20    0.22
 -12  -1   6    0.14    0.22
 -12   1   6    0.11    0.23
 -12  -1  -6    0.17    0.22
  12  -2   0   -0.09    0.09
  12   2   0    0.14    0.11
 -12   2   0    0.24    0.17
  12  -2   0   -0.02    0.12
  12   2   1   72.06    2.81
  12  -2  -1   68.55    2.83
 -12   2  -1   70.54    2.82
  12  -2  -1   65.78    2.79
 -12   2   1   65.17    2.82
  12  -2   1   70.46    2.84
  12   2  -1   63.82    2.79
 -12   2  -2    3.18    0.31
  12  -2  -2    3.81    0.28
  12   2   2    3.34    0.29
  12  -2  -2    3.85    0.31
  12   2  -2    3.88    0.29
 -12   2   2    3.86    0.34
  12  -2   2    3.95    0.32
 -12   2  -3   38.55    1.55
  12  -2  -3   32.76    1.50
  12   2   3   40.06    1.53
 -12  -2   3   33.37    1.58
  12  -2  -3   32.73    1.51
 -12   2   3   32.51    1.54
  12  -2   3   38.26    1.54
  12   2  -3   31.95    1.49
  12   2   4   25.34    1.19
 -12   2  -4   24.72    1.22
  12  -2  -4   27.65    1.20
 -12  -2   4   27.68    1.29
  12  -2   4   26.22    1.21
 -12   2   4   27.37    1.24
  12   2  -4   26.99    1.18
  12  -2  -5   17.34    0.87
 -12   2  -5   20.35    0.96
 -12  -2   5   17.48    0.98
  12   2  -5   17.74    0.86
 -12   2   5   18.02    0.95
 -12  -2   6   20.20    1.08
 -12   2  -6   18.44    1.02
 -12   2   6   20.33    1.03
 -12   3   0   68.45    2.80
  12  -3   0   66.51    2.80
  12   3   0   66.38    2.77
  12  -3  -1    9.06    0.48
  12  -3  -1    8.95    0.51
 -12   3  -1    9.89    0.55
  12   3   1    9.29    0.49
 -12   3   1    9.52    0.54
  12  -3   1    9.02    0.53
  12   3  -1    9.20    0.49
 -12   3  -2   46.77    1.97
  12  -3  -2   45.56    1.93
  12  -3  -2   45.63    1.96
  12   3   2   46.88    1.95
 -12  -3   2   45.31    2.01
 -12   3   2   46.48    1.98
  12   3  -2   43.95    1.93
  12  -3   2   46.92    1.98
 -12   3  -3   17.16    0.87
  12  -3  -3   16.89    0.83
 -12  -3   3   17.20    0.91
  12  -3  -3   16.98    0.82
  12   3   3   18.02    0.83
 -12   3   3   17.33    0.88
  12   3  -3   17.28    0.81
  12  -3   3   17.81    0.86
 -12   3  -4   11.46    0.66
 -12  -3   4   10.93    0.70
  12  -3  -4   10.80    0.60
  12   3   4   11.01    0.61
  12   3  -4   11.13    0.58
 -12   3   4   11.41    0.67
  12  -3   4   11.43    0.63
 -12   3  -5    8.50    0.60
 -12  -3   5    9.21    0.65
 -12   3   5    9.62    0.62
 -12   3  -6    1.02    0.30
 -12  -3   6    1.67    0.34
 -12   3   6    1.66    0.33
 -12   4   0   77.67    3.18
  12  -4   0   74.28    3.17
  12   4   0   77.46    3.14
  12  -4  -1    3.07    0.30
 -12   4  -1    2.07    0.28
  12   4   1    2.25    0.24
  12  -4   1    2.09    0.26
 -12   4   1    3.02    0.30
  12   4  -1    2.91    0.26
 -12  -4   2   24.57    1.22
 -12   4  -2   26.36    1.19
  12   4   2   26.69    1.16
  12  -4  -2   25.98    1.17
 -12   4   2   25.53    1.20
  12   4  -2   25.55    1.14
  12  -4   2   25.60    1.19
  12   4   3    0.83    0.19
 -12   4  -3    1.38    0.27
  12  -4  -3    2.01    0.24
 -12  -4   3    1.77    0.30
 -12   4   3    2.24    0.31
  12   4  -3    1.86    0.21
  12  -4   3    0.80    0.21
 -12   4  -4   -0.18    0.19
 -12  -4   4   -0.03    0.20
  12   4   4    0.10    0.17
  12  -4  -4   -0.32    0.13
 -12   4   4    0.21    0.22
  12   4  -4   -0.11    0.13
  12  -4   4    0.00    0.17
 -12  -4   5    0.26    0.24
 -12   4  -5    0.10    0.22
 -12   4   5    0.09    0.22
 -12  -4   6    2.22    0.38
 -12   4  -6    1.81    0.34
 -12   4   6    2.30    0.37
  12   5   0    4.75    0.33
 -12   5   0    4.00    0.40
  12  -5   0    4.48    0.36
  12   5   1    5.76    0.38
 -12   5  -1    5.17    0.44
  12  -5  -1    5.32    0.41
 -12  -5   1    5.55    0.44
 -12   5   1    6.35    0.46
  12   5  -1    6.01    0.37
  12  -5   1    5.86    0.43
 -12  -5   2    1.06    0.24
  12  -5  -2    1.51    0.24
  12   5   2    1.93    0.24
 -12   5  -2    1.50    0.27
  12  -5   2    1.62    0.25
 -12   5   2    1.71    0.28
  12   5  -2    1.14    0.19
  12   5   3    0.14    0.16
 -12   5  -3    0.10    0.21
 -12  -5   3    0.11    0.19
 -12   5   3    0.69    0.24
  12   5  -3    0.00    0.13
  12  -5   3   -0.19    0.16
 -12  -5   4    0.24    0.22
 -12   5  -4    0.07    0.22
  12  -5   4    0.02    0.19
 -12   5   4   -0.16    0.22
  12   5  -4    0.03    0.14
 -12   5  -5    0.05    0.24
 -12  -5   5    0.24    0.23
 -12   5   5    0.42    0.26
  12   6   0    3.73    0.31
 -12   6   0    3.32    0.36
  12  -6   0    3.36    0.34
 -12  -6   0    3.07    0.34
 -12  -6   1   20.74    1.08
  12   6   1   23.00    1.02
  12  -6  -1   20.27    1.04
 -12   6  -1   24.12    1.07
  12  -6   1   22.57    1.07
  12   6  -1   21.09    0.99
 -12   6   1   21.83    1.07
 -12  -6   2   -0.33    0.15
  12  -6  -2   -0.19    0.15
  12   6   2    0.11    0.15
 -12   6  -2   -0.07    0.20
  12  -6   2    0.07    0.17
  12   6  -2   -0.01    0.14
 -12   6   2   -0.20    0.21
 -12  -6   3   11.45    0.75
 -12   6  -3   14.15    0.74
  12  -6   3   13.86    0.73
 -12   6   3   12.16    0.73
  12   6  -3   10.98    0.62
 -12  -6   4    8.44    0.64
 -12   6  -4    7.05    0.58
 -12   6   4    9.32    0.63
  12  -6   4    7.48    0.56
  12  -7   0   50.79    2.21
 -12  -7   0   49.95    2.31
 -12   7   0   51.57    2.21
 -12   7  -1   12.26    0.71
  12  -7  -1   12.48    0.69
 -12  -7   1   11.52    0.70
 -12   7   1   11.86    0.70
  12  -7   1   11.42    0.68
 -12  -7  -1   11.17    0.66
  12   7  -1   11.63    0.69
 -12   7  -2   37.09    1.66
 -12  -7   2   35.69    1.68
  12  -7  -2   35.26    1.64
  12  -7   2   36.63    1.66
 -12   7   2   37.60    1.67
 -12  -7   3   16.06    0.90
 -12   7  -3   15.17    0.85
 -12   7   3   15.79    0.87
  12  -7   3   14.87    0.85
  12  -8   0   14.12    0.79
 -12  -8   0   13.22    0.76
 -12   8   0   14.22    0.80
  12  -8  -1    0.39    0.22
 -12   8  -1    0.34    0.25
  12  -8   1    0.57    0.23
 -12  -8  -1    0.25    0.20
 -12   8   1    0.21    0.24
  12  -8  -2    2.95    0.36
 -12   8  -2    3.67    0.41
 -12  -8  -2    2.96    0.37
  12  -8   2    3.20    0.38
 -12   8   2    3.37    0.40
 -13   0   0    0.13    0.16
  13   0   0    0.06    0.11
  13   0   0    0.13    0.14
  13   0   1    0.36    0.15
  13   0  -1    0.31    0.13
  13   0  -1    0.47    0.16
 -13   0   1    0.30    0.17
  13   0   1    0.32    0.13
 -13   0  -1    0.28    0.17
 -13   0  -2    0.06    0.16
  13   0   2    0.02    0.12
  13   0  -2   -0.02    0.14
  13   0   2   -0.02    0.14
 -13   0   2   -0.04    0.16
  13   0  -2    0.10    0.13
  13   0  -3    0.20    0.15
 -13   0   3    0.56    0.22
  13   0  -3    0.27    0.16
  13   0   3    0.29    0.17
 -13   0   3    0.34    0.19
 -13   0  -3    0.15    0.18
 -13   0   4    4.11    0.44
 -13   0  -4    4.87    0.39
  13   0  -4    4.20    0.34
 -13   0   4    3.96    0.38
  13   0   4    4.43    0.36
 -13   0   5    3.16    0.36
 -13   0   5    2.92    0.37
 -13   0  -5    2.99    0.36
 -13   0   6   10.05    0.65
 -13   0  -6    8.66    0.62
 -13   0   6    7.80    0.91
 -13  -1   0   -0.03    0.14
  13  -1   0   -0.06    0.10
  13  -1   0   -0.08    0.13
 -13   1   0   -0.02    0.16
  13   1   0   -0.01    0.10
 -13   1  -1    2.63    0.28
  13   1   1    2.37    0.24
 -13  -1   1    2.37    0.24
  13  -1  -1    2.30    0.22
  13  -1  -1    2.30    0.26
  13   1  -1    2.51    0.24
 -13   1   1    2.42    0.27
  13  -1   1    2.44    0.26
  13  -1   1    2.51    0.22
 -13  -1  -1    2.42    0.25
  13  -1  -2    0.56    0.17
  13   1   2    0.44    0.14
 -13  -1   2    0.64    0.18
 -13   1  -2    0.33    0.19
  13  -1  -2    0.29    0.14
 -13  -1  -2    0.71    0.18
  13   1  -2    0.32    0.14
  13  -1   2    0.39    0.16
 -13   1   2    0.61    0.20
  13  -1  -3    7.52    0.47
 -13  -1   3    8.50    0.50
 -13  -1   3    7.37    0.55
  13  -1  -3    7.96    0.46
 -13   1  -3    7.96    0.51
  13   1   3    7.52    0.45
  13   1   3    7.99    0.48
  13  -1   3    8.55    0.50
  13   1  -3    7.55    0.45
 -13   1   3    7.66    0.51
 -13  -1  -3    7.43    0.48
 -13  -1   4    0.34    0.22
 -13   1  -4    0.35    0.21
 -13  -1   4    0.24    0.19
  13  -1  -4    0.39    0.17
  13   1   4    0.17    0.15
  13   1  -4    0.30    0.15
 -13   1   4    0.47    0.22
  13  -1   4    0.19    0.17
 -13   1   4    0.41    0.22
 -13  -1  -4    0.27    0.19
 -13  -1   5    0.37    0.22
 -13  -1   5    0.32    0.23
 -13   1  -5    0.80    0.26
 -13   1   5    0.50    0.24
 -13  -1  -5    0.17    0.21
 -13  -1   6    3.03    0.38
 -13  -1   6    3.43    0.41
 -13   1  -6    3.38    0.41
 -13  -1  -6    3.09    0.38
 -13   1   6    3.28    0.41
  13  -2   0   -0.03    0.11
 -13   2   0   -0.01    0.16
  13   2   0   -0.09    0.11
  13  -2   0   -0.15    0.13
 -13   2  -1    5.90    0.43
  13  -2  -1    5.97    0.41
  13  -2  -1    6.69    0.38
  13   2   1    5.53    0.37
  13  -2   1    5.70    0.40
  13   2  -1    6.07    0.37
 -13   2   1    5.50    0.42
  13  -2  -2   -0.08    0.12
 -13   2  -2   -0.01    0.17
  13  -2  -2   -0.11    0.13
  13   2   2   -0.11    0.12
  13  -2   2   -0.09    0.14
 -13   2   2    0.11    0.19
  13   2  -2   -0.03    0.12
 -13   2  -3   19.45    0.92
  13   2   3   17.74    0.86
 -13  -2   3   17.73    0.95
  13  -2  -3   17.87    0.86
  13  -2  -3   17.91    0.87
  13   2  -3   18.60    0.86
  13  -2   3   18.05    0.89
 -13   2   3   18.20    0.92
  13   2   4    2.44    0.29
 -13   2  -4    2.87    0.34
 -13  -2   4    2.43    0.34
  13  -2  -4    2.58    0.29
 -13   2   4    2.93    0.34
  13   2  -4    2.35    0.26
  13  -2   4    2.74    0.31
 -13  -2   5    9.30    0.66
 -13   2  -5    9.21    0.62
 -13   2   5    8.92    0.63
 -13  -2   6    9.09    0.69
 -13   2  -6    9.44    0.66
 -13   2   6    9.07    0.65
 -13   3   0   -0.23    0.16
  13   3   0    0.28    0.13
  13  -3   0    0.01    0.13
  13   3   1    3.28    0.28
 -13   3  -1    2.93    0.32
  13  -3  -1    2.97    0.30
  13  -3   1    3.51    0.33
 -13   3   1    2.73    0.31
  13   3  -1    2.92    0.27
 -13   3  -2    2.46    0.30
 -13  -3   2    1.99    0.30
  13  -3  -2    2.90    0.29
  13  -3  -2    2.61    0.25
  13   3   2    2.71    0.26
 -13   3   2    2.08    0.29
  13   3  -2    2.40    0.25
  13  -3   2    2.45    0.29
  13  -3  -3    8.07    0.48
  13   3   3    8.44    0.49
 -13   3  -3    8.16    0.54
 -13  -3   3    8.22    0.59
  13  -3  -3    8.11    0.53
 -13   3   3    7.70    0.54
  13  -3   3    7.78    0.52
  13   3  -3    8.09    0.47
 -13   3  -4    0.99    0.27
 -13  -3   4    1.19    0.28
  13  -3  -4    1.28    0.21
  13   3   4    1.30    0.23
 -13   3   4    1.66    0.29
  13   3  -4    1.00    0.19
  13  -3   4    1.32    0.25
 -13   3  -5    0.60    0.27
 -13  -3   5    1.11    0.29
 -13   3   5    0.25    0.25
  13  -4   0   -0.01    0.15
 -13   4   0    0.03    0.19
  13   4   0    0.12    0.14
 -13   4  -1    0.49    0.21
  13   4   1    0.49    0.16
  13  -4  -1    0.46    0.17
  13  -4   1    0.59    0.19
  13   4  -1    0.58    0.15
 -13   4   1    0.46    0.21
  13   4   2   -0.04    0.13
 -13  -4   2   -0.12    0.17
  13  -4  -2    0.07    0.15
 -13   4  -2   -0.10    0.18
  13  -4   2    0.05    0.16
 -13   4   2    0.01    0.20
  13   4  -2    0.08    0.14
 -13  -4   3    0.67    0.24
  13   4   3    0.84    0.20
  13  -4  -3    1.23    0.23
 -13   4  -3    0.69    0.23
  13  -4   3    0.76    0.21
  13   4  -3    0.76    0.17
 -13   4   3    0.67    0.24
  13   4   4    2.78    0.31
 -13  -4   4    2.59    0.38
  13  -4  -4    2.69    0.29
 -13   4  -4    2.46    0.34
  13  -4   4    2.83    0.34
 -13   4   4    3.16    0.39
 -13   4  -5    0.50    0.27
 -13  -4   5    1.10    0.30
 -13   4   5    1.41    0.30
  13  -5   0    0.12    0.16
  13   5   0   -0.11    0.13
 -13   5   0    0.08    0.20
  13   5   1    1.24    0.20
  13  -5  -1    1.52    0.25
 -13  -5   1    0.89    0.23
 -13   5  -1    0.82    0.24
  13   5  -1    1.48    0.20
  13  -5   1    1.22    0.23
 -13   5   1    0.97    0.26
  13   5   2   -0.06    0.14
 -13   5  -2   -0.06    0.20
 -13  -5   2    0.16    0.20
  13  -5  -2    0.05    0.16
  13  -5   2    0.02    0.17
 -13   5   2    0.03    0.22
  13   5  -2    0.14    0.14
 -13   5  -3    3.93    0.42
 -13  -5   3    4.57    0.47
 -13   5   3    4.09    0.42
  13   5  -3    4.26    0.35
  13  -5   3    4.32    0.42
 -13  -5   4    2.15    0.36
 -13   5  -4    2.30    0.34
 -13   5   4    1.90    0.34
  13  -5   4    2.53    0.34
 -13   5  -5   -0.07    0.25
 -13  -5   5    0.20    0.25
 -13   5   5    0.37    0.27
 -13   6   0   -0.04    0.22
 -13  -6   0   -0.04    0.17
  13  -6   0   -0.26    0.15
  13   6   0    0.17    0.16
  13  -6  -1    1.66    0.27
 -13  -6   1    2.19    0.31
 -13   6  -1    1.75    0.30
 -13   6   1    1.87    0.31
  13  -6   1    1.89    0.28
  13   6  -1    1.76    0.23
  13  -6  -2    0.02    0.18
 -13   6  -2    0.29    0.24
 -13  -6   2    0.34    0.21
 -13   6   2   -0.01    0.23
  13  -6   2   -0.22    0.17
 -13   6  -3    6.39    0.54
 -13  -6   3    5.94    0.55
 -13   6   3    5.89    0.53
  13  -6   3    6.59    0.50
 -13  -6   4    1.84    0.35
 -13   6  -4    1.76    0.34
 -13   6   4    2.44    0.37
  13  -6   4    2.33    0.33
 -13   7   0   -0.26    0.21
  13  -7   0    0.03    0.19
 -13   7  -1    1.29    0.30
 -13  -7   1    1.04    0.26
  13  -7  -1    1.70    0.28
  13  -7   1    1.87    0.30
 -13   7   1    1.73    0.30
 -13  -7   2    1.90    0.33
 -13   7  -2    2.21    0.35
  13  -7  -2    2.30    0.32
 -13   7   2    2.24    0.35
  13  -7   2    2.23    0.32
 -13   7  -3    3.45    0.40
 -13  -7   3    3.28    0.42
 -13   7   3    3.38    0.41
  13  -7   3    3.82    0.41
  13  -8   0   -0.22    0.19
 -13   8   0    0.13    0.25
  13  -8  -1    0.67    0.24
 -13   8  -1    0.70    0.29
  13  -8   1    0.19    0.21
 -13  -8  -1    0.72    0.36
 -13   8   1    1.04    0.30
 -14   0   0   18.79    0.88
  14   0   0   18.59    0.91
  14   0   0   18.78    0.87
  14   0  -1   64.93    2.67
  14   0   1   62.77    2.66
  14   0   1   63.33    2.70
 -14   0  -1   65.37    2.68
 -14   0   1   64.14    2.68
  14   0  -1   65.32    2.70
 -14   0  -2   14.44    0.73
  14   0  -2   14.65    0.74
 -14   0   2   14.65    0.74
  14   0  -2   14.10    0.71
  14   0   2   13.94    0.74
  14   0   3   23.33    1.13
 -14   0   3   24.76    1.13
 -14   0   3   24.68    1.18
  14   0  -3   24.03    1.11
  14   0  -3   23.43    1.09
 -14   0  -3   23.66    1.12
  14   0  -4    8.67    0.54
 -14   0  -4   10.61    0.60
 -14   0   4    8.77    0.59
  14   0   4   10.12    0.58
 -14   0   4    9.20    0.65
 -14   0   5    7.70    0.60
 -14   0  -5    6.56    0.55
 -14   0   5    8.88    0.58
  14  -1   0   82.31    3.40
 -14   1   0   83.54    3.38
 -14  -1   0   80.04    3.35
  14  -1   0   81.98    3.35
  14   1   0   81.22    3.36
 -14   1  -1    5.74    0.45
  14  -1  -1    7.03    0.46
  14  -1  -1    7.33    0.42
 -14  -1   1    6.76    0.43
  14   1   1    6.54    0.41
 -14   1   1    7.32    0.46
 -14  -1  -1    6.47    0.43
  14  -1   1    6.63    0.45
  14   1  -1    7.74    0.43
  14  -1  -2   36.27    1.61
 -14  -1   2   36.56    1.59
  14   1   2   37.74    1.63
  14   1   2   36.57    1.58
  14  -1  -2   36.75    1.58
 -14   1  -2   35.99    1.61
  14  -1   2   36.36    1.62
 -14   1   2   35.81    1.61
  14   1  -2   37.45    1.59
 -14  -1  -2   37.35    1.59
  14  -1  -3    2.88    0.29
 -14  -1   3    2.85    0.35
 -14   1  -3    2.32    0.31
  14  -1  -3    3.04    0.30
  14   1   3    2.37    0.30
 -14  -1   3    3.65    0.33
  14  -1   3    2.22    0.30
 -14   1   3    2.52    0.32
  14   1  -3    2.76    0.27
 -14  -1  -3    2.49    0.29
 -14   1  -4    1.46    0.27
 -14  -1   4    1.78    0.28
  14   1   4    1.68    0.26
  14  -1  -4    1.32    0.23
 -14  -1   4    1.57    0.30
 -14   1   4    1.77    0.30
 -14  -1  -4    1.40    0.26
 -14   1   4    1.56    0.31
  14  -1   4    1.46    0.25
  14   1  -4    1.15    0.22
 -14  -1   5    0.73    0.24
 -14  -1   5    0.67    0.27
 -14   1  -5    0.39    0.25
 -14  -1  -5    0.19    0.30
 -14   1   5    0.54    0.26
  14  -2   0   -0.08    0.15
 -14   2   0    0.21    0.18
  14   2   0    0.04    0.12
  14   2   1    3.47    0.30
  14  -2  -1    3.49    0.33
 -14   2  -1    3.82    0.36
  14  -2  -1    3.58    0.29
  14  -2   1    3.51    0.34
  14   2  -1    3.51    0.30
 -14   2   1    3.96    0.38
  14   2   2    0.42    0.16
  14  -2  -2    0.20    0.16
  14  -2  -2    0.10    0.14
 -14   2  -2    0.44    0.21
 -14   2   2    0.09    0.19
  14   2  -2    0.17    0.15
  14  -2   2    0.20    0.17
  14   2   3   13.74    0.70
 -14  -2   3   13.86    0.79
 -14   2  -3   13.16    0.74
  14  -2  -3   13.22    0.69
  14  -2  -3   13.44    0.71
  14   2  -3   13.83    0.69
  14  -2   3   12.86    0.72
 -14   2   3   13.33    0.75
 -14   2  -4    0.90    0.26
  14   2   4    1.06    0.23
 -14  -2   4    0.71    0.26
  14  -2  -4    0.85    0.20
 -14   2   4    0.85    0.28
  14  -2   4    1.08    0.24
 -14  -2   5    6.94    0.60
 -14   2  -5    6.99    0.57
 -14   2   5    7.52    0.58
  14  -3   0   24.63    1.16
 -14   3   0   25.19    1.17
  14   3   0   24.84    1.12
  14   3   1    1.35    0.21
  14  -3  -1    1.93    0.25
 -14   3  -1    1.39    0.25
 -14   3   1    1.58    0.27
  14  -3   1    1.39    0.24
  14   3  -1    1.77    0.22
 -14  -3   2    7.29    0.56
  14  -3  -2    7.58    0.49
  14  -3  -2    7.52    0.45
 -14   3  -2    7.29    0.52
  14   3   2    7.88    0.47
  14   3  -2    7.53    0.46
  14  -3   2    7.72    0.51
 -14   3   2    7.27    0.53
  14   3   3    0.19    0.16
 -14   3  -3    0.29    0.22
  14  -3  -3    0.45    0.17
 -14  -3   3    0.04    0.22
  14   3  -3    0.06    0.14
  14  -3   3    0.15    0.18
 -14   3   3    0.44    0.23
  14  -3  -4    1.96    0.31
  14   3   4    1.47    0.25
 -14   3  -4    1.72    0.32
 -14  -3   4    1.54    0.33
  14  -3   4    1.67    0.28
 -14   3   4    1.34    0.31
 -14   3  -5    0.01    0.25
 -14  -3   5    0.04    0.24
 -14   3   5    0.33    0.25
 -14   4   0   12.00    0.68
  14  -4   0   12.31    0.66
  14   4   0   10.96    0.61
  14   4   1   36.09    1.55
 -14   4  -1   35.76    1.59
  14  -4  -1   35.05    1.58
  14   4  -1   35.36    1.54
 -14   4   1   35.05    1.60
  14  -4   1   35.29    1.59
 -14  -4   2    9.35    0.63
 -14   4  -2    8.96    0.59
  14   4   2    9.38    0.54
  14  -4  -2    8.98    0.56
 -14   4   2    8.74    0.60
  14   4  -2    9.18    0.53
  14  -4   2    9.18    0.58
  14   4   3   11.48    0.65
 -14  -4   3   12.40    0.76
 -14   4  -3   10.67    0.70
 -14   4   3   12.53    0.72
  14  -4   3   11.79    0.69
 -14  -4   4    5.76    0.57
 -14   4  -4    6.50    0.55
 -14   4   4    6.04    0.54
  14  -4   4    6.78    0.51
 -14   4  -5    3.74    0.43
 -14  -4   5    3.82    0.45
 -14   4   5    3.64    0.43
  14   5   0   95.87    3.94
 -14   5   0   97.34    4.00
  14  -5   0   95.35    4.00
  14  -5  -1   10.58    0.61
 -14   5  -1    9.40    0.63
  14   5   1    9.32    0.56
 -14  -5   1    9.97    0.65
  14   5  -1   10.19    0.55
 -14   5   1    9.20    0.63
  14  -5   1    9.30    0.60
 -14   5  -2   50.12    2.23
 -14  -5   2   50.22    2.28
  14  -5  -2   52.45    2.22
 -14   5   2   52.39    2.25
  14  -5   2   50.89    2.23
 -14  -5   3    5.35    0.52
 -14   5  -3    4.31    0.46
 -14   5   3    5.57    0.51
  14  -5   3    4.72    0.46
 -14   5  -4    7.45    0.58
 -14  -5   4    7.26    0.62
 -14   5   4    6.74    0.58
  14  -5   4    6.72    0.55
 -14   6   0    0.16    0.24
  14  -6   0    0.09    0.18
 -14  -6   0    0.20    0.20
 -14   6  -1   -0.24    0.22
  14  -6  -1    0.11    0.18
 -14  -6   1   -0.14    0.19
  14  -6   1    0.19    0.19
 -14   6   1    0.28    0.24
 -14  -6   2    0.07    0.21
  14  -6  -2   -0.04    0.19
 -14   6  -2   -0.36    0.22
  14  -6   2    0.07    0.19
 -14   6   2   -0.09    0.24
 -14   6  -3    1.62    0.33
 -14  -6   3    1.58    0.32
  14  -6   3    1.47    0.29
 -14   6   3    1.70    0.34
 -14   7   0    4.09    0.44
  14  -7   0    4.33    0.44
  14  -7  -1    0.33    0.21
 -14  -7   1    0.01    0.20
 -14   7  -1   -0.05    0.25
 -14   7   1    0.17    0.26
  14  -7   1   -0.10    0.19
  14  -7  -2    0.16    0.21
 -14  -7   2    0.52    0.25
 -14   7  -2    0.60    0.29
  14  -7   2    0.03    0.21
 -14   7   2    0.16    0.26
  15   0   0    0.18    0.17
  15   0   0    0.06    0.13
 -15   0   0   -0.02    0.17
 -15   0   1    0.92    0.22
  15   0  -1    1.44    0.24
  15   0   1    1.00    0.17
 -15   0  -1    1.18    0.23
  15   0  -1    1.64    0.22
  15   0   1    1.77    0.26
 -15   0   2    0.00    0.18
 -15   0  -2    0.06    0.18
  15   0  -2    0.12    0.15
  15   0   2    0.11    0.16
  15   0  -2    0.05    0.17
  15   0  -3    3.21    0.32
  15   0  -3    2.63    0.29
 -15   0   3    2.28    0.34
 -15   0   3    3.31    0.35
  15   0   3    3.09    0.34
 -15   0  -3    2.99    0.33
 -15   0  -4    7.76    0.55
 -15   0   4    7.14    0.59
 -15   0   4    7.23    0.54
  15   0   4    7.59    0.52
 -15   0   5    0.75    0.27
 -15   0  -5    0.76    0.28
 -15   0   5    1.04    0.30
  15  -1   0    0.04    0.15
 -15   1   0    0.31    0.19
  15  -1   0    0.04    0.13
  15   1   0    0.04    0.13
  15  -1  -1    1.97    0.27
  15   1   1    2.47    0.26
 -15   1  -1    2.15    0.29
  15  -1  -1    2.14    0.24
  15   1  -1    2.31    0.25
 -15   1   1    2.23    0.29
  15  -1   1    2.17    0.28
  15   1   2   -0.01    0.17
  15  -1  -2    0.24    0.17
  15  -1  -2    0.03    0.14
 -15   1  -2    0.12    0.20
  15   1   2   -0.07    0.13
 -15   1   2   -0.11    0.19
  15   1  -2   -0.01    0.14
  15  -1   2    0.15    0.17
 -15  -1   3    5.13    0.51
  15  -1  -3    5.69    0.43
  15   1   3    5.78    0.45
 -15   1  -3    5.06    0.45
  15  -1  -3    5.90    0.41
 -15   1   3    6.46    0.49
  15   1  -3    5.38    0.43
  15  -1   3    5.94    0.45
  15   1  -3    4.86    0.39
  15   1   4    0.29    0.20
 -15  -1   4    0.15    0.23
 -15   1  -4    0.01    0.22
  15  -1   4    0.29    0.20
 -15   1   4    0.05    0.23
 -15   1   4    0.16    0.24
 -15   1  -5    0.07    0.25
 -15  -1   5    0.57    0.27
 -15   1   5   -0.06    0.24
  15  -2   0    0.15    0.17
  15   2   0   -0.15    0.12
 -15   2   0    0.08    0.20
  15  -2  -1    2.27    0.24
  15   2   1    1.44    0.22
 -15   2  -1    2.12    0.30
  15  -2  -1    2.38    0.29
 -15   2   1    2.26    0.29
  15  -2   1    1.81    0.27
  15   2  -1    1.62    0.23
  15  -2  -2    2.97    0.29
  15   2   2    2.61    0.29
 -15   2  -2    3.07    0.34
  15  -2  -2    2.86    0.31
  15   2  -2    3.17    0.30
 -15   2   2    3.30    0.36
  15  -2   2    2.79    0.31
  15   2   3   10.58    0.59
 -15   2  -3   10.37    0.64
  15  -2  -3   10.68    0.59
 -15  -2   3   10.00    0.69
  15  -2  -3    9.75    0.80
 -15   2   3   10.59    0.66
  15  -2   3    9.84    0.62
 -15   2  -4    0.75    0.28
 -15  -2   4    1.02    0.29
  15   2   4    0.87    0.24
 -15   2   4    1.11    0.30
  15  -2   4    1.21    0.27
 -15  -2   5    6.39    0.60
 -15   2  -5    6.36    0.55
 -15   2   5    5.67    0.55
  15   3   0   -0.10    0.13
  15  -3   0   -0.11    0.15
 -15   3   0   -0.15    0.19
  15   3   1    2.90    0.30
  15  -3  -1    3.52    0.35
 -15   3  -1    3.08    0.34
  15  -3   1    3.01    0.33
 -15   3   1    3.41    0.36
  15   3  -1    2.84    0.29
  15   3   2   -0.05    0.15
 -15   3  -2    0.16    0.23
 -15  -3   2    0.52    0.24
  15  -3  -2    0.33    0.18
  15  -3   2    0.24    0.19
  15   3  -2    0.37    0.17
 -15   3   2    0.02    0.22
  15  -3  -3    9.55    0.57
  15   3   3    9.24    0.57
 -15   3  -3    9.58    0.64
 -15  -3   3    9.15    0.69
  15  -3   3   10.85    0.64
 -15   3   3   10.08    0.65
 -15   3  -4    0.54    0.27
 -15  -3   4    0.60    0.27
  15  -3   4    0.27    0.22
 -15   3   4    0.43    0.26
  15  -4   0    0.07    0.17
  15   4   0   -0.09    0.13
 -15   4   0   -0.06    0.21
 -15   4  -1    0.84    0.27
  15  -4  -1    0.85    0.23
  15   4   1    1.19    0.21
  15  -4   1    1.14    0.25
 -15   4   1    1.50    0.29
  15   4  -1    0.97    0.22
 -15   4  -2   -0.04    0.23
 -15  -4   2    0.17    0.20
  15  -4  -2   -0.27    0.16
 -15   4   2    0.14    0.23
  15  -4   2    0.05    0.18
 -15  -4   3    2.47    0.38
 -15   4  -3    3.05    0.39
 -15   4   3    2.64    0.37
  15  -4   3    3.27    0.38
 -15   4  -4    4.15    0.45
 -15  -4   4    3.66    0.46
  15  -4   4    3.66    0.40
 -15   4   4    3.46    0.43
  15  -5   0    0.08    0.19
 -15   5   0    0.43    0.26
 -15  -5   1    0.47    0.23
 -15   5  -1    1.03    0.28
  15  -5  -1    0.59    0.22
  15  -5   1    0.52    0.21
 -15   5   1    0.51    0.26
 -15   5  -2   -0.03    0.24
 -15  -5   2   -0.23    0.20
  15  -5  -2    0.11    0.18
 -15   5   2    0.40    0.27
  15  -5   2    0.06    0.20
 -15   5  -3    1.13    0.29
 -15  -5   3    1.27    0.31
  15  -5   3    1.48    0.29
 -15   5   3    1.45    0.33
 -15  -6   0   -0.09    0.19
  15  -6   0    0.14    0.20
 -15   6   0    0.04    0.25
  15  -6  -1    1.00    0.25
 -15  -6   1    0.62    0.24
 -15   6  -1    0.46    0.28
  15  -6   1    0.77    0.24
 -15   6   1    0.77    0.28
  15  -6  -2    1.01    0.25
 -15  -6   2    1.10    0.29
 -15   6  -2    0.74    0.29
 -15   6   2    0.64    0.28
  15  -6   2    0.96    0.27
 -16   0   0   40.65    1.75
  16   0   0   40.32    1.74
  16   0   0   39.72    1.78
  16   0  -1    6.04    0.45
 -16   0  -1    5.25    0.43
  16   0   1    4.73    0.39
 -16   0   1    6.32    0.44
  16   0  -1    6.31    0.41
  16   0   1    4.70    0.43
 -16   0  -2   18.14    0.90
  16   0   2   19.07    0.93
  16   0  -2   17.04    0.87
  16   0  -2   17.37    0.91
 -16   0   2   18.05    0.90
 -16   0   3    0.38    0.25
 -16   0   3    0.17    0.23
  16   0  -3    0.33    0.21
  16   0   3    0.26    0.20
 -16   0  -3    0.26    0.23
 -16   0  -4    0.04    0.24
  16   0   4   -0.01    0.19
 -16   0   4    0.05    0.24
 -16   0   4    0.02    0.24
  16  -1   0    8.17    0.54
 -16   1   0    7.36    0.52
  16   1   0    7.86    0.53
  16   1   0    7.95    0.48
 -16   1  -1    4.50    0.41
  16  -1  -1    4.38    0.40
  16  -1  -1    4.28    0.35
  16   1   1    3.63    0.33
  16   1   1    4.14    0.40
  16  -1   1    4.06    0.40
  16   1  -1    4.52    0.40
  16   1  -1    4.13    0.35
 -16   1   1    4.66    0.42
  16   1   2    2.27    0.29
  16   1   2    1.99    0.30
 -16   1  -2    2.45    0.33
  16  -1  -2    2.46    0.31
  16  -1  -2    2.64    0.29
  16  -1   2    2.42    0.32
 -16   1   2    3.58    0.37
  16   1  -2    2.05    0.30
  16   1  -2    2.33    0.28
 -16  -1   3    8.01    0.61
  16   1   3    6.33    0.51
 -16   1  -3    7.10    0.55
  16  -1  -3    7.30    0.57
 -16   1   3    8.46    0.58
  16  -1   3    6.63    0.52
  16   1  -3    7.64    0.52
 -16   1  -4   -0.40    0.23
 -16  -1   4    0.23    0.25
  16   1   4    0.15    0.20
  16  -1   4    0.05    0.20
 -16   1   4    0.18    0.25
 -16   1   4    0.20    0.25
 -16   2   0   10.40    0.65
  16  -2   0   11.04    0.65
  16   2   0   10.58    0.59
 -16   2  -1    0.02    0.22
  16   2   1    0.24    0.16
  16  -2  -1    0.32    0.19
  16  -2   1    0.28    0.18
 -16   2   1    0.52    0.24
  16   2  -1    0.74    0.19
  16  -2  -2   23.43    1.08
 -16   2  -2   22.31    1.12
  16  -2  -2   23.23    1.12
  16   2   2   22.11    1.08
 -16   2   2   24.26    1.14
  16  -2   2   23.28    1.13
  16   2   3    1.21    0.26
 -16  -2   3   -0.01    0.24
 -16   2  -3    0.82    0.28
  16  -2   3    1.34    0.26
 -16   2   3    0.43    0.26
 -16   2  -4   36.69    1.70
 -16  -2   4   37.82    1.78
  16   2   4   36.10    1.68
  16  -2   4   38.33    1.71
 -16   2   4   37.01    1.71
 -16   3   0    5.59    0.49
  16   3   0    5.32    0.40
  16  -3   0    5.22    0.45
 -16   3  -1   23.86    1.17
  16   3   1   23.20    1.13
  16  -3  -1   23.93    1.16
 -16   3   1   25.26    1.18
  16  -3   1   24.21    1.18
 -16  -3   2    2.42    0.37
 -16   3  -2    2.30    0.36
  16  -3  -2    2.49    0.32
  16  -3   2    2.55    0.33
 -16   3   2    2.51    0.36
 -16  -3   3   24.73    1.27
 -16   3  -3   23.71    1.19
  16  -3   3   23.09    1.19
 -16   3   3   24.83    1.21
  16   3   4    0.14    0.21
 -16   3  -4    0.21    0.26
 -16  -3   4   -0.05    0.25
  16  -3   4   -0.06    0.21
 -16   3   4   -0.17    0.25
 -16   4   0   21.06    1.07
  16  -4   0   21.17    1.06
  16  -4  -1    5.28    0.43
 -16   4  -1    4.05    0.44
  16  -4   1    4.37    0.43
 -16   4   1    4.61    0.45
 -16   4  -2    9.07    0.62
 -16  -4   2    8.28    0.64
  16  -4  -2    7.11    0.54
 -16   4   2    8.51    0.62
  16  -4   2    7.58    0.56
 -16  -4   3    0.05    0.24
 -16   4  -3   -0.15    0.25
  16  -4   3    0.32    0.22
 -16   4   3    0.36    0.27
  16  -5   0    6.08    0.50
 -16   5   0    7.60    0.58
  16  -5  -1    0.41    0.21
 -16   5  -1    0.37    0.27
 -16  -5   1    0.38    0.25
 -16   5   1    0.27    0.26
  16  -5   1    0.27    0.21
  16  -5  -2    2.03    0.31
 -16  -5   2    1.92    0.36
 -16   5  -2    1.56    0.34
 -16   5   2    1.94    0.35
  16  -5   2    2.01    0.33
  16  -6   0    1.08    0.27
 -16   6   0    1.15    0.32
 -16  -6   0    1.05    0.28
  16  -6  -1    0.05    0.20
 -16  -6   1    0.23    0.24
 -16   6  -1   -0.03    0.26
  16  -6   1    0.02    0.20
 -16   6   1    0.26    0.27
 -17   0   0    0.02    0.20
  17   0   0    0.05    0.16
  17   0   0    0.28    0.19
  17   0   1    2.51    0.33
  17   0  -1    2.46    0.33
 -17   0  -1    2.77    0.33
  17   0  -1    2.94    0.30
 -17   0   1    2.43    0.32
  17   0  -2    1.76    0.29
 -17   0  -2    1.91    0.31
  17   0   2    1.36    0.27
 -17   0   2    2.06    0.31
  17   0  -3    6.88    0.59
 -17   0   3    7.63    0.57
 -17   0  -3    7.84    0.57
  17   0   3    8.30    0.56
 -17   0   3    8.02    0.63
  17   0   4    1.80    0.31
 -17   0   4    2.66    0.36
 -17   0   4    2.31    0.38
  17   1   0    0.06    0.19
  17   1   0   -0.07    0.15
  17  -1   0   -0.07    0.17
 -17   1   0   -0.06    0.21
  17  -1  -1    0.23    0.19
 -17   1  -1    0.11    0.22
  17   1   1    0.03    0.18
  17  -1  -1    0.19    0.17
  17   1   1    0.03    0.15
 -17   1   1    0.19    0.22
  17   1  -1   -0.27    0.18
  17  -1   1   -0.38    0.17
  17  -1  -2    0.98    0.25
  17   1   2    0.94    0.24
 -17   1  -2    1.14    0.28
  17  -1   2    1.39    0.28
 -17   1   2    1.49    0.29
  17   1  -2    1.04    0.26
 -17   1  -3    0.26    0.25
  17   1   3    0.10    0.21
 -17  -1   3   -0.03    0.24
  17  -1   3    0.29    0.21
  17   1  -3    0.04    0.21
 -17   1   3    0.22    0.25
  17   1   4   -0.13    0.20
 -17  -1   4    0.06    0.25
 -17   1   4    0.10    0.26
 -17   1   4   -0.06    0.26
  17  -1   4    0.15    0.22
 -17   2   0   -0.17    0.22
  17  -2   0    0.06    0.18
 -17   2  -1    5.25    0.50
  17  -2  -1    5.45    0.46
 -17   2   1    4.82    0.49
  17  -2   1    5.91    0.47
  17  -2  -2    0.27    0.21
 -17   2  -2    0.20    0.25
  17   2   2   -0.07    0.20
  17  -2   2   -0.11    0.19
 -17   2   2    0.18    0.25
 -17   2  -3   22.77    1.12
 -17  -2   3   21.10    1.18
  17   2   3   21.23    1.10
  17  -2   3   22.69    1.12
 -17   2   3   22.78    1.13
 -17   3   0    0.02    0.24
  17  -3   0   -0.14    0.19
 -17   3  -1   -0.04    0.24
  17  -3  -1    0.07    0.19
 -17   3   1    0.10    0.25
  17  -3   1    0.31    0.22
 -17   3  -2    1.94    0.35
  17  -3  -2    1.99    0.31
 -17  -3   2    2.09    0.37
 -17   3   2    2.09    0.36
  17  -3   2    2.92    0.36
 -17  -3   3    1.12    0.34
 -17   3  -3    0.47    0.29
  17  -3   3    0.85    0.27
 -17   3   3    0.72    0.30
 -17   4   0    0.03    0.25
  17  -4   0    0.03    0.19
 -17   4  -1    2.37    0.37
  17  -4  -1    2.18    0.31
  17  -4   1    2.62    0.35
 -17   4   1    2.48    0.36
 -17  -4   2    0.77    0.29
  17  -4  -2    1.02    0.26
 -17   4  -2    0.80    0.31
  17  -4   2    1.24    0.28
 -17   4   2    1.03    0.31
  17  -5   0    0.08    0.21
 -17   5   0   -0.31    0.24
  17  -5  -1    0.51    0.24
 -17  -5   1    0.27    0.26
 -17   5  -1   -0.04    0.25
  17  -5   1   -0.14    0.19
 -17   5   1    0.06    0.26
  18   0   0    0.24    0.22
  18   0   1   27.19    1.26
  18   0  -1   23.85    1.23
  18   0  -2    2.87    0.36
  18   0   2    2.80    0.36
  18   0   3   13.00    0.74
 -18   0   3   10.13    0.77
 -18   1   0   14.07    0.79
  18   1   0   13.39    0.79
  18  -1   0   14.29    0.80
  18   1   1    3.55    0.40
 -18   1  -1    3.46    0.40
  18  -1  -1    3.17    0.39
 -18   1   1    3.72    0.40
  18  -1   1    4.41    0.43
  18   1  -1    4.00    0.42
  18   1   2    7.09    0.54
 -18   1  -2    8.05    0.58
  18  -1  -2    6.86    0.55
  18  -1   2    7.73    0.57
 -18   1   2    7.24    0.58
  18   1  -2    7.19    0.55
  18   1   3    7.93    0.58
 -18  -1   3    7.44    0.66
  18   1  -3    7.26    0.80
 -18   1   3    7.98    0.67
 -18   1   3    7.37    0.61
  18  -1   3    8.44    0.59
 -18   2   0    4.65    0.45
  18  -2   0    4.45    0.44
 -18   2  -1   10.75    0.70
  18  -2  -1   12.05    0.70
  18   2   1    9.85    0.68
 -18   2   1   11.66    0.71
  18  -2   1   10.51    0.70
 -18   2  -2    0.30    0.27
  18  -2  -2    0.59    0.24
  18   2   2    0.15    0.22
 -18   2   2    0.88    0.30
  18  -2   2    0.31    0.22
  18  -3   0    1.06    0.27
 -18   3   0    1.00    0.31
 -18   3  -1    0.42    0.28
  18  -3  -1    0.55    0.24
  18  -3   1    1.04    0.27
 -18   3   1    0.20    0.26
  18  -3  -2    0.08    0.20
 -18   3  -2    0.28    0.27
 -18  -3   2    0.06    0.27
 -18   3   2    0.14    0.28
  18  -3   2    0.09    0.23
  19   0   0    0.35    0.23
  19   0   1    1.09    0.28
  19   0  -1    1.64    0.31
  19   1   0    0.08    0.21
 -19   1   0    0.26    0.25
  19  -1   0   -0.35    0.18
  19   1   1    1.06    0.27
 -19   1  -1    0.83    0.30
  19  -1  -1    0.90    0.27
  19   1  -1    0.62    0.24
  19  -1   1    1.13    0.29
 -19   1   1    1.29    0.30
   0   0   0    0.00    0.00
;
_shelx_hkl_checksum              65971
loop_
_space_group_symop_operation_xyz
'x, y, z'
'-x+1/2, -y, z+1/2'
'-x, y+1/2, -z'
'x+1/2, -y+1/2, -z+1/2'
'-x, -y, -z'
'x-1/2, y, -z-1/2'
'x, -y-1/2, z'
'-x-1/2, y-1/2, z-1/2'
loop_
_atom_site_label
_atom_site_type_symbol
_atom_site_fract_x
_atom_site_fract_y
_atom_site_fract_z
_atom_site_U_iso_or_equiv
_atom_site_adp_type
_atom_site_occupancy
_atom_site_site_symmetry_order
_atom_site_calc_flag
_atom_site_refinement_flags_posn
_atom_site_refinement_flags_adp
_atom_site_refinement_flags_occupancy
P1 P 0.08733(6) 0.250000 0.15211(15) 0.0129(2) Uani 0.33 2 d S T P
Si1 Si 0.08733(6) 0.250000 0.15211(15) 0.0129(2) Uani 0.67 2 d S T P
S1 S 0.15533(4) 0.02628(8) 0.26971(10) 0.0172(2) Uani 1 1 d . . .
S2 S -0.05954(6) 0.250000 0.26589(13) 0.0140(2) Uani 1 2 d S T P
S3 S 0.09092(7) 0.250000 -0.19126(15) 0.0186(2) Uani 1 2 d S T P
Li1A Li 0.3263(8) 0.0210(15) 0.351(3) 0.032(5) Uani 0.44(3) 1 d . . .
Li1B Li 0.3280(9) 0.0024(15) 0.187(2) 0.029(4) Uani 0.46(3) 1 d . . .
Li2 Li 0.000000 0.000000 0.500000 0.079(7) Uani 0.85(4) 2 d S . .
Li3A Li -0.0877(9) 0.250000 -0.139(3) 0.030(5) Uani 0.64(5) 2 d S T .
Li3B Li -0.070(4) 0.250000 -0.304(11) 0.08(2) Uani 0.36(6) 2 d S T .
loop_
_atom_site_aniso_label
_atom_site_aniso_U_11
_atom_site_aniso_U_22
_atom_site_aniso_U_33
_atom_site_aniso_U_23
_atom_site_aniso_U_13
_atom_site_aniso_U_12
P1 0.0130(4) 0.0132(4) 0.0125(4) 0.000 0.0005(3) 0.000
Si1 0.0130(4) 0.0132(4) 0.0125(4) 0.000 0.0005(3) 0.000
S1 0.0144(3) 0.0149(4) 0.0221(3) 0.0028(2) -0.0010(2) 0.0030(2)
S2 0.0119(4) 0.0127(4) 0.0174(4) 0.000 0.0015(3) 0.000
S3 0.0242(5) 0.0167(4) 0.0151(4) 0.000 0.0022(3) 0.000
Li1A 0.015(5) 0.021(6) 0.059(11) 0.016(6) 0.003(5) 0.008(4)
Li1B 0.028(6) 0.027(6) 0.032(8) 0.012(5) -0.007(5) 0.001(5)
Li2 0.065(9) 0.077(10) 0.095(12) 0.060(9) 0.046(8) 0.039(7)
Li3A 0.027(7) 0.024(6) 0.040(10) 0.000 -0.010(5) 0.000
Li3B 0.10(4) 0.05(2) 0.09(4) 0.000 -0.05(3) 0.000
loop_
_atom_type_symbol
_atom_type_description
_atom_type_scat_dispersion_real
_atom_type_scat_dispersion_imag
_atom_type_scat_source
Li Li -0.0003 0.0001 'International Tables Vol C Tables 4.2.6.8 and 6.1.1.4'
P P 0.1023 0.0942 'International Tables Vol C Tables 4.2.6.8 and 6.1.1.4'
S S 0.1246 0.1234 'International Tables Vol C Tables 4.2.6.8 and 6.1.1.4'
Si Si 0.0817 0.0704 'International Tables Vol C Tables 4.2.6.8 and 6.1.1.4'
loop_
_geom_angle_atom_site_label_1
_geom_angle_atom_site_label_2
_geom_angle_atom_site_label_3
_geom_angle
_geom_angle_site_symmetry_1
_geom_angle_site_symmetry_3
S1 P1 S1 111.95(6) . 7_565
S1 P1 S3 109.44(3) . .
S1 P1 S3 109.44(3) 7_565 .
S1 P1 S2 107.74(3) . .
S1 P1 S2 107.74(3) 7_565 .
S3 P1 S2 110.51(5) . .
S1 P1 Li3A 124.02(3) . .
S1 P1 Li3A 124.02(3) 7_565 .
S3 P1 Li3A 54.6(3) . .
S2 P1 Li3A 55.9(3) . .
S1 P1 Li1A 57.5(3) . 2_554
S1 P1 Li1A 127.7(2) 7_565 2_554
S3 P1 Li1A 52.0(3) . 2_554
S2 P1 Li1A 124.5(2) . 2_554
Li3A P1 Li1A 87.0(3) . 2_554
S1 P1 Li1A 127.7(2) . 8_665
S1 P1 Li1A 57.5(3) 7_565 8_665
S3 P1 Li1A 52.0(3) . 8_665
S2 P1 Li1A 124.5(2) . 8_665
Li3A P1 Li1A 87.0(3) . 8_665
Li1A P1 Li1A 87.8(6) 2_554 8_665
P1 S1 Li1A 121.2(3) . .
P1 S1 Li1B 115.0(3) . .
Li1A S1 Li1B 24.4(5) . .
P1 S1 Li3B 123.2(10) . 5
Li1A S1 Li3B 115.5(11) . 5
Li1B S1 Li3B 114.3(13) . 5
P1 S1 Li3A 116.4(3) . 5
Li1A S1 Li3A 114.7(4) . 5
Li1B S1 Li3A 103.2(4) . 5
Li3B S1 Li3A 24.3(14) 5 5
P1 S1 Li2 83.64(3) . .
Li1A S1 Li2 134.0(4) . .
Li1B S1 Li2 156.7(3) . .
Li3B S1 Li2 59.4(15) 5 .
Li3A S1 Li2 78.4(3) 5 .
P1 S1 Li1B 116.8(3) . 2
Li1A S1 Li1B 72.9(5) . 2
Li1B S1 Li1B 96.7(4) . 2
Li3B S1 Li1B 83.2(14) 5 2
Li3A S1 Li1B 106.2(5) 5 2
Li2 S1 Li1B 61.2(3) . 2
P1 S1 Li1A 79.7(3) . 2_554
Li1A S1 Li1A 96.2(4) . 2_554
Li1B S1 Li1A 71.8(4) . 2_554
Li3B S1 Li1A 90.3(16) 5 2_554
Li3A S1 Li1A 66.0(5) 5 2_554
Li2 S1 Li1A 127.8(3) . 2_554
Li1B S1 Li1A 163.1(4) 2 2_554
P1 S2 Li1A 120.0(3) . 6_556
P1 S2 Li1A 120.0(3) . 4_455
Li1A S2 Li1A 92.2(6) 6_556 4_455
P1 S2 Li1B 128.5(3) . 6_556
Li1A S2 Li1B 23.7(5) 6_556 6_556
Li1A S2 Li1B 101.7(4) 4_455 6_556
P1 S2 Li1B 128.5(3) . 4_455
Li1A S2 Li1B 101.7(4) 6_556 4_455
Li1A S2 Li1B 23.7(5) 4_455 4_455
Li1B S2 Li1B 101.9(5) 6_556 4_455
P1 S2 Li3A 79.6(3) . .
Li1A S2 Li3A 67.5(4) 6_556 .
Li1A S2 Li3A 67.5(4) 4_455 .
Li1B S2 Li3A 91.2(4) 6_556 .
Li1B S2 Li3A 91.2(4) 4_455 .
P1 S2 Li2 83.33(3) . 3_556
Li1A S2 Li2 155.9(3) 6_556 3_556
Li1A S2 Li2 79.3(3) 4_455 3_556
Li1B S2 Li2 136.4(3) 6_556 3_556
Li1B S2 Li2 62.5(3) 4_455 3_556
Li3A S2 Li2 127.22(8) . 3_556
P1 S2 Li2 83.33(3) . .
Li1A S2 Li2 79.3(3) 6_556 .
Li1A S2 Li2 155.9(3) 4_455 .
Li1B S2 Li2 62.5(3) 6_556 .
Li1B S2 Li2 136.4(3) 4_455 .
Li3A S2 Li2 127.22(8) . .
Li2 S2 Li2 99.41(3) 3_556 .
P1 S2 Li3B 112.4(12) . 1_556
Li1A S2 Li3B 104.7(9) 6_556 1_556
Li1A S2 Li3B 104.7(9) 4_455 1_556
Li1B S2 Li3B 81.3(8) 6_556 1_556
Li1B S2 Li3B 81.3(8) 4_455 1_556
Li3A S2 Li3B 168.0(13) . 1_556
Li2 S2 Li3B 57.0(5) 3_556 1_556
Li2 S2 Li3B 57.0(5) . 1_556
P1 S3 Li3B 106.1(18) . .
P1 S3 Li1B 109.0(4) . 8_665
Li3B S3 Li1B 110.5(9) . 8_665
P1 S3 Li1B 109.0(4) . 2_554
Li3B S3 Li1B 110.5(9) . 2_554
Li1B S3 Li1B 111.5(6) 8_665 2_554
P1 S3 Li1A 84.5(4) . 8_665
Li3B S3 Li1A 118.7(3) . 8_665
Li1B S3 Li1A 24.5(5) 8_665 8_665
Li1B S3 Li1A 122.6(5) 2_554 8_665
P1 S3 Li1A 84.5(4) . 2_554
Li3B S3 Li1A 118.7(3) . 2_554
Li1B S3 Li1A 122.6(5) 8_665 2_554
Li1B S3 Li1A 24.5(5) 2_554 2_554
Li1A S3 Li1A 122.4(6) 8_665 2_554
P1 S3 Li3A 81.2(4) . .
Li3B S3 Li3A 24.9(16) . .
Li1B S3 Li3A 120.2(3) 8_665 .
Li1B S3 Li3A 120.2(3) 2_554 .
Li1A S3 Li3A 116.9(3) 8_665 .
Li1A S3 Li3A 116.9(3) 2_554 .
P1 S3 Li2 128.64(3) . 1_554
Li3B S3 Li2 54.1(10) . 1_554
Li1B S3 Li2 122.2(4) 8_665 1_554
Li1B S3 Li2 57.0(3) 2_554 1_554
Li1A S3 Li2 146.6(4) 8_665 1_554
Li1A S3 Li2 72.1(3) 2_554 1_554
Li3A S3 Li2 70.8(3) . 1_554
P1 S3 Li2 128.64(3) . 3
Li3B S3 Li2 54.1(10) . 3
Li1B S3 Li2 57.0(3) 8_665 3
Li1B S3 Li2 122.2(4) 2_554 3
Li1A S3 Li2 72.1(3) 8_665 3
Li1A S3 Li2 146.6(4) 2_554 3
Li3A S3 Li2 70.8(3) . 3
Li2 S3 Li2 81.36(3) 1_554 3
Li1B Li1A S1 79.5(10) . .
Li1B Li1A S3 76.0(9) . 2
S1 Li1A S3 116.9(6) . 2
Li1B Li1A S2 78.6(9) . 6_656
S1 Li1A S2 122.9(5) . 6_656
S3 Li1A S2 107.7(5) 2 6_656
Li1B Li1A S1 162.3(10) . 2
S1 Li1A S1 107.6(5) . 2
S3 Li1A S1 86.4(4) 2 2
S2 Li1A S1 109.0(6) 6_656 2
Li1B Li1A Li3A 135.5(11) . 6_656
S1 Li1A Li3A 122.4(6) . 6_656
S3 Li1A Li3A 115.6(5) 2 6_656
S2 Li1A Li3A 56.9(4) 6_656 6_656
S1 Li1A Li3A 54.7(4) 2 6_656
Li1B Li1A Li1B 134.3(10) . 2
S1 Li1A Li1B 56.5(4) . 2
S3 Li1A Li1B 110.8(5) 2 2
S2 Li1A Li1B 134.1(6) 6_656 2
S1 Li1A Li1B 51.1(4) 2 2
Li3A Li1A Li1B 84.1(6) 6_656 2
Li1B Li1A P1 119.5(10) . 2
S1 Li1A P1 121.2(4) . 2
S3 Li1A P1 43.6(2) 2 2
S2 Li1A P1 115.5(4) 6_656 2
S1 Li1A P1 42.8(2) 2 2
Li3A Li1A P1 83.9(5) 6_656 2
Li1B Li1A P1 79.1(4) 2 2
Li1B Li1A Li2 46.5(8) . 2_554
S1 Li1A Li2 125.8(6) . 2_554
S3 Li1A Li2 62.4(3) 2 2_554
S2 Li1A Li2 51.4(2) 6_656 2_554
S1 Li1A Li2 125.6(4) 2 2_554
Li3A Li1A Li2 98.4(4) 6_656 2_554
Li1B Li1A Li2 173.2(5) 2 2_554
P1 Li1A Li2 94.9(3) 2 2_554
Li1A Li1B S3 79.5(9) . 2
Li1A Li1B S1 76.0(9) . .
S3 Li1B S1 116.8(5) 2 .
Li1A Li1B S2 77.7(9) . 6_656
S3 Li1B S2 108.5(5) 2 6_656
S1 Li1B S2 121.3(5) . 6_656
Li1A Li1B S1 175.0(11) . 2_554
S3 Li1B S1 101.5(5) 2 2_554
S1 Li1B S1 107.6(5) . 2_554
S2 Li1B S1 97.4(4) 6_656 2_554
Li1A Li1B Li2 117.1(10) . 2_554
S3 Li1B Li2 73.3(3) 2 2_554
S1 Li1B Li2 165.6(6) . 2_554
S2 Li1B Li2 60.0(3) 6_656 2_554
S1 Li1B Li2 59.0(3) 2_554 2_554
Li1A Li1B Li1A 133.1(10) . 2_554
S3 Li1B Li1A 120.1(6) 2 2_554
S1 Li1B Li1A 57.1(4) . 2_554
S2 Li1B Li1A 124.8(5) 6_656 2_554
S1 Li1B Li1A 50.6(3) 2_554 2_554
Li2 Li1B Li1A 109.6(5) 2_554 2_554
Li1A Li1B Li3B 128.5(14) . 6_655
S3 Li1B Li3B 120.3(9) 2 6_655
S1 Li1B Li3B 120.6(11) . 6_655
S2 Li1B Li3B 51.5(11) 6_656 6_655
S1 Li1B Li3B 46.8(10) 2_554 6_655
Li2 Li1B Li3B 47.4(9) 2_554 6_655
Li1A Li1B Li3B 80.9(13) 2_554 6_655
Li3B Li2 Li3B 180(2) 5 1_556
Li3B Li2 S2 116.6(12) 5 .
Li3B Li2 S2 63.4(12) 1_556 .
Li3B Li2 S2 63.4(12) 5 5_556
Li3B Li2 S2 116.6(12) 1_556 5_556
S2 Li2 S2 180.0 . 5_556
Li3B Li2 S1 121.8(13) 5 5_556
Li3B Li2 S1 58.2(13) 1_556 5_556
S2 Li2 S1 96.17(3) . 5_556
S2 Li2 S1 83.83(3) 5_556 5_556
Li3B Li2 S1 58.2(13) 5 .
Li3B Li2 S1 121.8(13) 1_556 .
S2 Li2 S1 83.83(3) . .
S2 Li2 S1 96.17(3) 5_556 .
S1 Li2 S1 180.0 5_556 .
Li3B Li2 Li1B 98.1(11) 5 6_556
Li3B Li2 Li1B 81.9(11) 1_556 6_556
S2 Li2 Li1B 57.4(3) . 6_556
S2 Li2 Li1B 122.6(3) 5_556 6_556
S1 Li2 Li1B 59.8(3) 5_556 6_556
S1 Li2 Li1B 120.2(3) . 6_556
Li3B Li2 Li1B 81.9(11) 5 2
Li3B Li2 Li1B 98.1(11) 1_556 2
S2 Li2 Li1B 122.6(3) . 2
S2 Li2 Li1B 57.4(3) 5_556 2
S1 Li2 Li1B 120.2(3) 5_556 2
S1 Li2 Li1B 59.8(3) . 2
Li1B Li2 Li1B 180.0 6_556 2
Li3B Li2 S3 131.1(11) 5 1_556
Li3B Li2 S3 48.9(11) 1_556 1_556
S2 Li2 S3 89.56(2) . 1_556
S2 Li2 S3 90.44(2) 5_556 1_556
S1 Li2 S3 92.69(2) 5_556 1_556
S1 Li2 S3 87.31(2) . 1_556
Li1B Li2 S3 130.3(2) 6_556 1_556
Li1B Li2 S3 49.7(2) 2 1_556
Li3B Li2 S3 48.9(11) 5 5
Li3B Li2 S3 131.1(11) 1_556 5
S2 Li2 S3 90.44(2) . 5
S2 Li2 S3 89.56(2) 5_556 5
S1 Li2 S3 87.31(2) 5_556 5
S1 Li2 S3 92.69(2) . 5
Li1B Li2 S3 49.7(2) 6_556 5
Li1B Li2 S3 130.3(2) 2 5
S3 Li2 S3 180.0 1_556 5
Li3B Li2 Si1 89.5(13) 5 5_556
Li3B Li2 Si1 90.5(13) 1_556 5_556
S2 Li2 Si1 137.53(2) . 5_556
S2 Li2 Si1 42.47(2) 5_556 5_556
S1 Li2 Si1 41.944(19) 5_556 5_556
S1 Li2 Si1 138.056(19) . 5_556
Li1B Li2 Si1 87.7(3) 6_556 5_556
Li1B Li2 Si1 92.3(3) 2 5_556
S3 Li2 Si1 97.56(2) 1_556 5_556
S3 Li2 Si1 82.44(2) 5 5_556
Li3B Li3A S3 69(3) . .
Li3B Li3A S1 76.7(14) . 5
S3 Li3A S1 109.1(4) . 5
Li3B Li3A S1 76.7(14) . 3
S3 Li3A S1 109.1(4) . 3
S1 Li3A S1 120.7(6) 5 3
Li3B Li3A S2 158(3) . .
S3 Li3A S2 88.7(4) . .
S1 Li3A S2 112.2(4) 5 .
S1 Li3A S2 112.2(4) 3 .
Li3B Li3A Li1A 135.8(12) . 4_455
S3 Li3A Li1A 120.2(5) . 4_455
S1 Li3A Li1A 127.4(5) 5 4_455
S1 Li3A Li1A 59.3(3) 3 4_455
S2 Li3A Li1A 55.6(4) . 4_455
Li3B Li3A Li1A 135.8(12) . 6_556
S3 Li3A Li1A 120.2(5) . 6_556
S1 Li3A Li1A 59.3(3) 5 6_556
S1 Li3A Li1A 127.4(5) 3 6_556
S2 Li3A Li1A 55.6(4) . 6_556
Li1A Li3A Li1A 80.1(6) 4_455 6_556
Li3B Li3A P1 114(3) . .
S3 Li3A P1 44.3(2) . .
S1 Li3A P1 119.6(3) 5 .
S1 Li3A P1 119.6(3) 3 .
S2 Li3A P1 44.5(2) . .
Li1A Li3A P1 87.6(5) 4_455 .
Li1A Li3A P1 87.6(5) 6_556 .
Li3B Li3A Li2 40.2(9) . 1_554
S3 Li3A Li2 62.4(3) . 1_554
S1 Li3A Li2 51.9(2) 5 1_554
S1 Li3A Li2 116.5(6) 3 1_554
S2 Li3A Li2 129.1(3) . 1_554
Li1A Li3A Li2 175.3(6) 4_455 1_554
Li1A Li3A Li2 102.1(3) 6_556 1_554
P1 Li3A Li2 96.6(3) . 1_554
Li3B Li3A Li2 40.2(9) . 3
S3 Li3A Li2 62.4(3) . 3
S1 Li3A Li2 116.5(6) 5 3
S1 Li3A Li2 51.9(2) 3 3
S2 Li3A Li2 129.1(3) . 3
Li1A Li3A Li2 102.1(3) 4_455 3
Li1A Li3A Li2 175.3(6) 6_556 3
P1 Li3A Li2 96.6(3) . 3
Li2 Li3A Li2 75.4(4) 1_554 3
Li3A Li3B S3 86(3) . .
Li3A Li3B S1 79(2) . 5
S3 Li3B S1 115.2(10) . 5
Li3A Li3B S1 79(2) . 3
S3 Li3B S1 115.2(10) . 3
S1 Li3B S1 123(3) 5 3
Li3A Li3B Li2 124.1(14) . 1_554
S3 Li3B Li2 77.0(16) . 1_554
S1 Li3B Li2 62.4(4) 5 1_554
S1 Li3B Li2 156(3) 3 1_554
Li3A Li3B Li2 124.1(14) . 3
S3 Li3B Li2 77.0(16) . 3
S1 Li3B Li2 156(3) 5 3
S1 Li3B Li2 62.4(4) 3 3
Li2 Li3B Li2 103(3) 1_554 3
Li3A Li3B S2 170(4) . 1_554
S3 Li3B S2 104(3) . 1_554
S1 Li3B S2 96.4(14) 5 1_554
S1 Li3B S2 96.4(14) 3 1_554
Li2 Li3B S2 59.6(14) 1_554 1_554
Li2 Li3B S2 59.6(14) 3 1_554
Li3A Li3B Li1B 126(3) . 6
S3 Li3B Li1B 127(2) . 6
S1 Li3B Li1B 50.0(7) 5 6
S1 Li3B Li1B 111.7(15) 3 6
Li2 Li3B Li1B 50.8(8) 1_554 6
Li2 Li3B Li1B 106(2) 3 6
S2 Li3B Li1B 47.3(8) 1_554 6
Li3A Li3B Li1B 126(3) . 4_454
S3 Li3B Li1B 127(2) . 4_454
S1 Li3B Li1B 111.7(15) 5 4_454
S1 Li3B Li1B 50.0(7) 3 4_454
Li2 Li3B Li1B 106(2) 1_554 4_454
Li2 Li3B Li1B 50.8(8) 3 4_454
S2 Li3B Li1B 47.3(8) 1_554 4_454
Li1B Li3B Li1B 70.5(11) 6 4_454
loop_
_geom_bond_atom_site_label_1
_geom_bond_atom_site_label_2
_geom_bond_distance
_geom_bond_site_symmetry_2
P1 S1 2.1041(8) .
P1 S1 2.1041(8) 7_565
P1 S3 2.1092(13) .
P1 S2 2.1266(12) .
P1 Li3A 2.987(13) .
P1 Li1A 3.047(12) 2_554
P1 Li1A 3.047(12) 8_665
S1 Li1A 2.391(12) .
S1 Li1B 2.423(13) .
S1 Li3B 2.46(3) 5
S1 Li3A 2.478(7) 5
S1 Li2 2.5601(7) .
S1 Li1B 2.581(15) 2
S1 Li1A 2.611(17) 2_554
S2 Li1A 2.477(12) 6_556
S2 Li1A 2.477(12) 4_455
S2 Li1B 2.485(12) 6_556
S2 Li1B 2.485(12) 4_455
S2 Li3A 2.515(17) .
S2 Li2 2.5548(6) 3_556
S2 Li2 2.5548(6) .
S2 Li3B 2.65(7) 1_556
S3 Li3B 2.31(5) .
S3 Li1B 2.379(11) 8_665
S3 Li1B 2.379(11) 2_554
S3 Li1A 2.411(11) 8_665
S3 Li1A 2.411(11) 2_554
S3 Li3A 2.463(12) .
S3 Li2 2.9896(8) 1_554
S3 Li2 2.9896(8) 3
Li1A Li1B 1.02(2) .
Li1A Li3A 2.77(2) 6_656
Li1A Li1B 2.956(19) 2
Li1A Li2 3.211(14) 2_554
Li1B Li2 2.617(13) 2_554
Li1B Li3B 3.35(4) 6_655
Li2 Li3B 2.49(5) 5
Li2 Li3B 2.49(5) 1_556
Li3A Li3B 1.04(6) .
