#------------------------------------------------------------------------------
#$Date: 2016-03-21 01:21:50 +0200 (Mon, 21 Mar 2016) $
#$Revision: 178377 $
#$URL: svn://www.crystallography.net/cod/cif/4/00/21/4002104.cif $
#------------------------------------------------------------------------------
#
# This file is available in the Crystallography Open Database (COD),
# http://www.crystallography.net/
#
# All data on this site have been placed in the public domain by the
# contributors.
#
data_4002104
loop_
_publ_author_name
'Nanthamathee, Chompoonoot'
'Ling, Sanliang'
'Slater, Ben'
'Attfield, Martin P.'
_publ_section_title
;
 Contradistinct Thermoresponsive Behavior of Isostructural MIL-53 Type
 Metal--Organic Frameworks by Modifying the Framework Inorganic Anion
;
_journal_name_full               'Chemistry of Materials'
_journal_page_first              141223143002002
_journal_paper_doi               10.1021/cm503311x
_journal_year                    2014
_chemical_formula_sum            'C8 Al F O4'
_chemical_formula_weight         206.06
_chemical_name_systematic        ' ?'
_space_group_IT_number           74
_symmetry_cell_setting           orthorhombic
_symmetry_space_group_name_Hall  '-I 2b 2'
_symmetry_space_group_name_H-M   'I m m a'
_audit_creation_date             2014-08-28T13:13
_audit_creation_method           'from EXP file using GSAS2CIF'
_audit_update_record
' 2014-08-28T13:13  Initial CIF as created by GSAS2CIF'
_cell_angle_alpha                90.0
_cell_angle_beta                 90.0
_cell_angle_gamma                90.0
_cell_formula_units_Z            4
_cell_length_a                   6.56852(15)
_cell_length_b                   16.4032(5)
_cell_length_c                   13.1796(6)
_cell_volume                     1420.03(8)
_computing_structure_refinement  GSAS
_diffrn_radiation_polarisn_ratio 0.95
_diffrn_radiation_probe          x-ray
_diffrn_radiation_wavelength     0.825993
_exptl_absorpt_correction_T_max  1.00000
_exptl_absorpt_correction_T_min  1.00000
_exptl_absorpt_process_details
;   GSAS Absorption/surface roughness correction: function number 0
 No correction is applied.
;
_pd_block_id                     2014-08-28T13:13|250K|250K|
_pd_calc_method                  'Rietveld Refinement'
_pd_instr_location               ' ?'
_pd_meas_2theta_range_inc        0.003
_pd_meas_2theta_range_max        149.9955
_pd_meas_2theta_range_min        0.0015
_pd_meas_number_of_points        49999
_pd_phase_name                   300K
_pd_proc_2theta_range_inc        0.003
_pd_proc_2theta_range_max        150.00439
_pd_proc_2theta_range_min        0.010397
_pd_proc_info_datetime           2014-08-28T13:13:58
_pd_proc_info_excluded_regions   ' ?'
_pd_proc_ls_background_function
;   GSAS Background function number 1 with  2 terms.
 Shifted Chebyshev function of 1st kind
      1:    0.00000     2:    0.00000    
;
_pd_proc_ls_peak_cutoff          0.00010
_pd_proc_ls_profile_function
;
 CW Profile function number 4 with  18 terms
 Pseudovoigt profile coefficients as parameterized in
 P. Thompson, D.E. Cox & J.B. Hastings (1987). J. Appl. Cryst.,20,79-83.
 Asymmetry correction of L.W. Finger, D.E. Cox & A. P. Jephcoat (1994).
 J. Appl. Cryst.,27,892-900.
 Microstrain broadening by P.W. Stephens,  (1999). J. Appl. Cryst.,32,281-289.
 Peak tails are ignored  where the intensity is below 0.0001 times the peak
   Aniso. broadening axis   1.0   0.0   1.0
;
_pd_proc_ls_prof_R_factor        0.0339
_pd_proc_ls_prof_wR_expected     0.0252
_pd_proc_ls_prof_wR_factor       0.0433
_pd_proc_number_of_points        49999
_pd_spec_mounting                ' ?'
_refine_ls_goodness_of_fit_all   1.72
_refine_ls_matrix_type           full
_refine_ls_number_parameters     29
_refine_ls_number_restraints     0
_refine_ls_R_Fsqd_factor         0.21150
_refine_ls_shift/su_max          0.02
_refine_ls_shift/su_mean         0.00
_reflns_d_resolution_high        1.210
_reflns_d_resolution_low         8.202
_reflns_limit_h_max              5
_reflns_limit_h_min              0
_reflns_limit_k_max              13
_reflns_limit_k_min              0
_reflns_limit_l_max              11
_reflns_limit_l_min              0
_reflns_number_total             252
_cod_data_source_file            alf250K.cif
_cod_data_source_block           250K_publ
_cod_depositor_comments
;
The following automatic conversions were performed:

'_geom_bond_publ_flag' value 'N' changed to 'n' according to
/home/saulius/struct/COD-crude-data--automatic-downloads/rss-feeds/ACS/lib/dictionaries/cif_core.dic
dictionary named 'cif_core.dic' version 2.4.2 from 2011-04-26 (18
times).

'_geom_angle_publ_flag' value 'N' changed to 'n' according
to
/home/saulius/struct/COD-crude-data--automatic-downloads/rss-feeds/ACS/lib/dictionaries/cif_core.dic
dictionary named 'cif_core.dic' version 2.4.2 from 2011-04-26 (24
times).

Automatic conversion script
Id: cif_fix_values 2935 2014-11-11 08:27:57Z andrius 
;
_cod_original_cell_volume        1420.04(8)
_cod_database_code               4002104
#BEGIN Tags that were not found in dictionaries:
_gsas_exptl_extinct_corr_t_min   1.00000
_gsas_exptl_extinct_corr_t_max   1.00000
#END Tags that were not found in dictionaries
loop_
_symmetry_equiv_pos_site_id
_symmetry_equiv_pos_as_xyz
1 +x,+y,+z
2 -x,+y,+z
3 +x,-y+1/2,+z
4 -x,-y+1/2,+z
-1 -x,-y,-z
-2 +x,-y,-z
-3 -x,+y+1/2,-z
-4 +x,+y+1/2,-z
101 +x+1/2,+y+1/2,+z+1/2
102 -x+1/2,+y+1/2,+z+1/2
103 +x+1/2,-y,+z+1/2
104 -x+1/2,-y,+z+1/2
-101 -x+1/2,-y+1/2,-z+1/2
-102 +x+1/2,-y+1/2,-z+1/2
-103 -x+1/2,+y,-z+1/2
-104 +x+1/2,+y,-z+1/2
loop_
_atom_site_type_symbol
_atom_site_label
_atom_site_fract_x
_atom_site_fract_y
_atom_site_fract_z
_atom_site_occupancy
_atom_site_thermal_displace_type
_atom_site_U_iso_or_equiv
_atom_site_symmetry_multiplicity
Al Al1 0.25 0.25 0.75 1.0 Uiso 0.0273(19) 4
F F1 0.0 0.25 0.6946(6) 1.0 Uiso 0.0200(14) 4
O O1 0.1703(6) 0.16798(26) 0.8395(4) 1.0 Uiso 0.0200(14) 16
C C1 -0.1949(7) 0.0294(6) 0.9577(7) 1.0 Uiso 0.0246(23) 16
C C2 0.0 0.0632(6) 0.9439(9) 1.0 Uiso 0.0246(23) 8
C C3 0.0 0.1388(7) 0.8686(9) 1.0 Uiso 0.0246(23) 8
loop_
_atom_type_symbol
_atom_type_number_in_cell
_atom_type_scat_dispersion_real
_atom_type_scat_dispersion_imag
_atom_type_scat_Cromer_Mann_a1
_atom_type_scat_Cromer_Mann_a2
_atom_type_scat_Cromer_Mann_a3
_atom_type_scat_Cromer_Mann_a4
_atom_type_scat_Cromer_Mann_b1
_atom_type_scat_Cromer_Mann_b2
_atom_type_scat_Cromer_Mann_b3
_atom_type_scat_Cromer_Mann_b4
_atom_type_scat_Cromer_Mann_c
_atom_type_scat_source
Al 4.0 0.000 0.000 6.42020 3.03870 1.90020 0.74260 1.59360 31.5472 1.96460
85.0886 1.11510 International_Tables_Vol_C
F 4.0 0.000 0.000 3.53920 10.2825 2.64120 4.29440 1.51700 0.26150 1.02430
26.1476 0.27760 International_Tables_Vol_C
O 16.0 0.000 0.000 3.04850 13.2771 2.28680 5.70110 1.54630 0.32390 0.86700
32.9089 0.25080 International_Tables_Vol_C
C 32.0 0.000 0.000 2.31000 20.8439 1.02000 10.2075 1.58860 0.56870 0.86500
51.6512 0.21560 International_Tables_Vol_C
loop_
_geom_angle_atom_site_label_1
_geom_angle_atom_site_label_2
_geom_angle_atom_site_label_3
_geom_angle
_geom_angle_site_symmetry_1
_geom_angle_site_symmetry_3
_geom_angle_publ_flag
F1 Al1 F1 180.0 1_555 -101_546 n
F1 Al1 O1 90.03(19) 1_555 1_555 n
F1 Al1 O1 90.03(19) 1_555 3_555 n
F1 Al1 O1 89.97(19) 1_555 -101_566 n
F1 Al1 O1 89.97(19) 1_555 -103_566 n
F1 Al1 O1 89.97(19) -101_566 1_555 n
F1 Al1 O1 89.97(19) -101_566 3_555 n
F1 Al1 O1 90.03(19) -101_566 -101_566 n
F1 Al1 O1 90.03(19) -101_566 -103_566 n
O1 Al1 O1 92.39(32) 1_555 3_555 n
O1 Al1 O1 180.0 1_555 -101_566 n
O1 Al1 O1 87.61(32) 1_555 -103_566 n
O1 Al1 O1 87.61(32) 3_555 -101_566 n
O1 Al1 O1 180.0 3_555 -103_566 n
O1 Al1 O1 92.39(32) -101_566 -103_566 n
Al1 F1 Al1 132.0(5) 1_555 2_555 n
Al1 O1 C3 135.0(6) 1_555 1_555 n
C1 C1 C2 110.8(6) -2_557 1_555 n
C1 C2 C1 131.0(11) 1_555 2_555 n
C1 C2 C3 112.8(6) 1_555 1_555 n
C1 C2 C3 112.8(6) 2_555 1_555 n
O1 C3 O1 122.5(10) 1_555 2_555 n
O1 C3 C2 118.7(5) 1_555 1_555 n
O1 C3 C2 118.7(5) 2_555 1_555 n
loop_
_geom_bond_atom_site_label_1
_geom_bond_atom_site_label_2
_geom_bond_distance
_geom_bond_site_symmetry_2
_geom_bond_publ_flag
Al1 F1 1.7974(32) 1_555 n
Al1 F1 1.7974(32) -101_445 n
Al1 O1 1.8642(34) 1_555 n
Al1 O1 1.8642(34) 3_555 n
Al1 O1 1.8642(34) -101_445 n
Al1 O1 1.8642(34) -103_445 n
F1 Al1 1.7974(32) 1_555 n
F1 Al1 1.7974(32) 2_555 n
O1 Al1 1.8642(34) 1_555 n
O1 C3 1.276(5) 1_555 n
C1 C1 1.475(12) -2_557 n
C1 C2 1.407(6) 1_555 n
C2 C1 1.407(6) 1_555 n
C2 C1 1.407(6) 2_555 n
C2 C3 1.588(10) 1_555 n
C3 O1 1.276(5) 1_555 n
C3 O1 1.276(5) 2_555 n
C3 C2 1.588(10) 1_555 n
loop_
_pd_meas_intensity_total
_pd_proc_ls_weight
_pd_proc_intensity_bkg_calc
_pd_calc_intensity_total
18.8(22) 0.0 0.00 .
19.7(24) 0.0 0.00 .
23.8(28) 0.0 0.00 .
20.8(25) 0.0 0.00 .
50(4) 0.0 0.0 .
164(7) 0.0 0.0 .
132(6) 0.0 0.0 .
832(16) 0.0 0.0 .
1492(21) 0.0 0.0 .
2918(29) 0.0 0.0 .
3271(30) 0.0 0.0 .
3294(31) 0.0 0.0 .
3280(32) 0.0 0.0 .
1146(18) 0.0 0.0 .
100(5) 0.0 0.0 .
58(4) 0.0 0.0 .
47(4) 0.0 0.0 .
47(4) 0.0 0.0 .
35.6(31) 0.0 0.00 .
58(4) 0.0 0.0 .
228(8) 0.0 0.0 .
387(10) 0.0 0.0 .
751(15) 0.0 0.0 .
966(17) 0.0 0.0 .
1087(17) 0.0 0.0 .
1222(18) 0.0 0.0 .
1348(20) 0.0 0.0 .
1525(22) 0.0 0.0 .
1811(23) 0.0 0.0 .
1875(23) 0.0 0.0 .
2096(24) 0.0 0.0 .
2080(24) 0.0 0.0 .
1859(24) 0.0 0.0 .
1609(22) 0.0 0.0 .
1126(17) 0.0 0.0 .
642(14) 0.0 0.0 .
334(10) 0.0 0.0 .
225(8) 0.0 0.0 .
121(6) 0.0 0.0 .
81(5) 0.0 0.0 .
49(4) 0.0 0.0 .
39(4) 0.0 0.0 .
32.4(32) 0.0 0.00 .
23.3(25) 0.0 0.00 .
21.9(25) 0.0 0.00 .
27.0(27) 0.0 0.00 .
25.5(28) 0.0 0.00 .
24.5(28) 0.0 0.00 .
30.2(29) 0.0 0.00 .
31.3(29) 0.0 0.00 .
35.2(32) 0.0 0.00 .
29.4(30) 0.0 0.00 .
30.0(30) 0.0 0.00 .
28.7(29) 0.0 0.00 .
26.5(27) 0.0 0.00 .
26.3(28) 0.0 0.00 .
31.1(30) 0.0 0.00 .
41(4) 0.0 0.0 .
30.9(30) 0.0 0.00 .
28.2(28) 0.0 0.00 .
26.4(27) 0.0 0.00 .
33.6(32) 0.0 0.00 .
32.8(31) 0.0 0.00 .
34.0(30) 0.0 0.00 .
29.5(29) 0.0 0.00 .
32.8(31) 0.0 0.00 .
34.6(33) 0.0 0.00 .
37.2(33) 0.0 0.00 .
27.0(27) 0.0 0.00 .
33.5(31) 0.0 0.00 .
33.8(30) 0.0 0.00 .
31.9(32) 0.0 0.00 .
29.0(28) 0.0 0.00 .
36.7(31) 0.0 0.00 .
34.9(31) 0.0 0.00 .
26.8(27) 0.0 0.00 .
36(4) 0.0 0.0 .
36.0(34) 0.0 0.00 .
40.0(34) 0.0 0.00 .
37.3(32) 0.0 0.00 .
37.9(34) 0.0 0.00 .
42(4) 0.0 0.0 .
35.4(31) 0.0 0.00 .
37.0(34) 0.0 0.00 .
28.7(27) 0.0 0.00 .
32.5(31) 0.0 0.00 .
46(4) 0.0 0.0 .
41(4) 0.0 0.0 .
36.7(31) 0.0 0.00 .
41.8(33) 0.0 0.00 .
33.9(30) 0.0 0.00 .
40.7(35) 0.0 0.00 .
55(4) 0.0 0.0 .
54(4) 0.0 0.0 .
45(4) 0.0 0.0 .
69(5) 0.0 0.0 .
68(4) 0.0 0.0 .
74(5) 0.0 0.0 .
88(5) 0.0 0.0 .
80(5) 0.0 0.0 .
106(6) 0.0 0.0 .
114(6) 0.0 0.0 .
132(6) 0.0 0.0 .
144(6) 0.0 0.0 .
135(6) 0.0 0.0 .
143(6) 0.0 0.0 .
159(7) 0.0 0.0 .
177(7) 0.0 0.0 .
160(7) 0.0 0.0 .
179(7) 0.0 0.0 .
177(7) 0.0 0.0 .
181(7) 0.0 0.0 .
211(8) 0.0 0.0 .
207(7) 0.0 0.0 .
241(8) 0.0 0.0 .
225(8) 0.0 0.0 .
242(8) 0.0 0.0 .
250(8) 0.0 0.0 .
251(8) 0.0 0.0 .
294(9) 0.0 0.0 .
280(9) 0.0 0.0 .
289(9) 0.0 0.0 .
296(9) 0.0 0.0 .
318(9) 0.0 0.0 .
322(10) 0.0 0.0 .
339(10) 0.0 0.0 .
336(10) 0.0 0.0 .
334(9) 0.0 0.0 .
366(10) 0.0 0.0 .
359(10) 0.0 0.0 .
358(11) 0.0 0.0 .
374(10) 0.0 0.0 .
387(10) 0.0 0.0 .
389(10) 0.0 0.0 .
401(11) 0.0 0.0 .
431(12) 0.0 0.0 .
408(11) 0.0 0.0 .
420(11) 0.0 0.0 .
439(11) 0.0 0.0 .
431(11) 0.0 0.0 .
412(11) 0.0 0.0 .
458(12) 0.0 0.0 .
481(11) 0.0 0.0 .
473(11) 0.0 0.0 .
490(12) 0.0 0.0 .
479(12) 0.0 0.0 .
511(12) 0.0 0.0 .
517(12) 0.0 0.0 .
473(12) 0.0 0.0 .
512(12) 0.0 0.0 .
511(12) 0.0 0.0 .
545(13) 0.0 0.0 .
530(12) 0.0 0.0 .
527(12) 0.0 0.0 .
501(12) 0.0 0.0 .
530(13) 0.0 0.0 .
543(13) 0.0 0.0 .
516(12) 0.0 0.0 .
537(12) 0.0 0.0 .
575(13) 0.0 0.0 .
548(13) 0.0 0.0 .
562(12) 0.0 0.0 .
540(12) 0.0 0.0 .
561(13) 0.0 0.0 .
597(14) 0.0 0.0 .
599(13) 0.0 0.0 .
593(13) 0.0 0.0 .
612(13) 0.0 0.0 .
581(13) 0.0 0.0 .
576(13) 0.0 0.0 .
610(13) 0.0 0.0 .
592(13) 0.0 0.0 .
597(13) 0.0 0.0 .
581(13) 0.0 0.0 .
584(13) 0.0 0.0 .
617(13) 0.0 0.0 .
636(13) 0.0 0.0 .
631(13) 0.0 0.0 .
588(13) 0.0 0.0 .
615(14) 0.0 0.0 .
634(13) 0.0 0.0 .
672(13) 0.0 0.0 .
581(12) 0.0 0.0 .
598(13) 0.0 0.0 .
603(13) 0.0 0.0 .
646(14) 0.0 0.0 .
628(13) 0.0 0.0 .
665(14) 0.0 0.0 .
649(14) 0.0 0.0 .
661(14) 0.0 0.0 .
664(14) 0.0 0.0 .
647(13) 0.0 0.0 .
651(14) 0.0 0.0 .
661(14) 0.0 0.0 .
647(14) 0.0 0.0 .
685(14) 0.0 0.0 .
681(14) 0.0 0.0 .
647(13) 0.0 0.0 .
663(14) 0.0 0.0 .
685(14) 0.0 0.0 .
689(14) 0.0 0.0 .
697(14) 0.0 0.0 .
714(14) 0.0 0.0 .
712(14) 0.0 0.0 .
717(14) 0.0 0.0 .
705(14) 0.0 0.0 .
710(14) 0.0 0.0 .
674(14) 0.0 0.0 .
719(14) 0.0 0.0 .
736(15) 0.0 0.0 .
714(14) 0.0 0.0 .
712(14) 0.0 0.0 .
715(14) 0.0 0.0 .
691(14) 0.0 0.0 .
741(15) 0.0 0.0 .
718(14) 0.0 0.0 .
741(14) 0.0 0.0 .
781(15) 0.0 0.0 .
759(15) 0.0 0.0 .
753(15) 0.0 0.0 .
762(15) 0.0 0.0 .
780(14) 0.0 0.0 .
757(15) 0.0 0.0 .
779(15) 0.0 0.0 .
771(15) 0.0 0.0 .
770(14) 0.0 0.0 .
758(14) 0.0 0.0 .
747(15) 0.0 0.0 .
765(15) 0.0 0.0 .
786(15) 0.0 0.0 .
811(15) 0.0 0.0 .
783(15) 0.0 0.0 .
793(15) 0.0 0.0 .
789(16) 0.0 0.0 .
812(15) 0.0 0.0 .
789(15) 0.0 0.0 .
796(15) 0.0 0.0 .
806(15) 0.0 0.0 .
794(15) 0.0 0.0 .
805(15) 0.0 0.0 .
806(15) 0.0 0.0 .
811(15) 0.0 0.0 .
844(16) 0.0 0.0 .
819(16) 0.0 0.0 .
843(16) 0.0 0.0 .
833(15) 0.0 0.0 .
831(15) 0.0 0.0 .
838(16) 0.0 0.0 .
828(16) 0.0 0.0 .
838(16) 0.0 0.0 .
793(15) 0.0 0.0 .
812(15) 0.0 0.0 .
832(16) 0.0 0.0 .
853(16) 0.0 0.0 .
831(15) 0.0 0.0 .
837(15) 0.0 0.0 .
868(16) 0.0 0.0 .
847(16) 0.0 0.0 .
856(16) 0.0 0.0 .
864(16) 0.0 0.0 .
839(15) 0.0 0.0 .
877(16) 0.0 0.0 .
888(16) 0.0 0.0 .
856(16) 0.0 0.0 .
867(15) 0.0 0.0 .
851(15) 0.0 0.0 .
853(16) 0.0 0.0 .
871(16) 0.0 0.0 .
906(16) 0.0 0.0 .
853(15) 0.0 0.0 .
852(15) 0.0 0.0 .
900(16) 0.0 0.0 .
893(17) 0.0 0.0 .
885(16) 0.0 0.0 .
879(15) 0.0 0.0 .
879(15) 0.0 0.0 .
888(16) 0.0 0.0 .
880(17) 0.0 0.0 .
924(16) 0.0 0.0 .
900(16) 0.0 0.0 .
921(16) 0.0 0.0 .
880(16) 0.0 0.0 .
938(17) 0.0 0.0 .
930(16) 0.0 0.0 .
906(16) 0.0 0.0 .
890(16) 0.0 0.0 .
941(16) 0.0 0.0 .
908(17) 0.0 0.0 .
917(16) 0.0 0.0 .
927(16) 0.0 0.0 .
909(16) 0.0 0.0 .
921(16) 0.0 0.0 .
919(17) 0.0 0.0 .
909(16) 0.0 0.0 .
930(16) 0.0 0.0 .
923(16) 0.0 0.0 .
903(16) 0.0 0.0 .
896(16) 0.0 0.0 .
902(16) 0.0 0.0 .
949(16) 0.0 0.0 .
914(16) 0.0 0.0 .
941(17) 0.0 0.0 .
954(17) 0.0 0.0 .
936(16) 0.0 0.0 .
950(16) 0.0 0.0 .
972(17) 0.0 0.0 .
945(17) 0.0 0.0 .
980(17) 0.0 0.0 .
905(16) 0.0 0.0 .
957(16) 0.0 0.0 .
987(17) 0.0 0.0 .
931(16) 0.0 0.0 .
975(17) 0.0 0.0 .
997(16) 0.0 0.0 .
987(16) 0.0 0.0 .
931(16) 0.0 0.0 .
957(17) 0.0 0.0 .
992(17) 0.0 0.0 .
1005(17) 0.0 0.0 .
973(16) 0.0 0.0 .
990(17) 0.0 0.0 .
1024(18) 0.0 0.0 .
988(17) 0.0 0.0 .
968(16) 0.0 0.0 .
974(16) 0.0 0.0 .
925(16) 0.0 0.0 .
1020(18) 0.0 0.0 .
978(17) 0.0 0.0 .
994(16) 0.0 0.0 .
977(16) 0.0 0.0 .
980(17) 0.0 0.0 .
1030(18) 0.0 0.0 .
1018(17) 0.0 0.0 .
1017(16) 0.0 0.0 .
1011(17) 0.0 0.0 .
1029(17) 0.0 0.0 .
1053(18) 0.0 0.0 .
1010(17) 0.0 0.0 .
1074(17) 0.0 0.0 .
1034(17) 0.0 0.0 .
1022(17) 0.0 0.0 .
1029(18) 0.0 0.0 .
1046(17) 0.0 0.0 .
1061(17) 0.0 0.0 .
1097(18) 0.0 0.0 .
1042(17) 0.0 0.0 .
1084(18) 0.0 0.0 .
1129(18) 0.0 0.0 .
1076(17) 0.0 0.0 .
1115(18) 0.0 0.0 .
1075(18) 0.0 0.0 .
1082(18) 0.0 0.0 .
1109(18) 0.0 0.0 .
1118(17) 0.0 0.0 .
1174(18) 0.0 0.0 .
1094(18) 0.0 0.0 .
1134(18) 0.0 0.0 .
1154(18) 0.0 0.0 .
1117(17) 0.0 0.0 .
1134(18) 0.0 0.0 .
1136(19) 0.0 0.0 .
1108(18) 0.0 0.0 .
1127(18) 0.0 0.0 .
1118(17) 0.0 0.0 .
1201(19) 0.0 0.0 .
1183(19) 0.0 0.0 .
1136(18) 0.0 0.0 .
1132(18) 0.0 0.0 .
1152(18) 0.0 0.0 .
1193(19) 0.0 0.0 .
1135(18) 0.0 0.0 .
1143(18) 0.0 0.0 .
1171(18) 0.0 0.0 .
1145(17) 0.0 0.0 .
1139(18) 0.0 0.0 .
1192(19) 0.0 0.0 .
1160(19) 0.0 0.0 .
1199(18) 0.0 0.0 .
1166(18) 0.0 0.0 .
1146(18) 0.0 0.0 .
1180(19) 0.0 0.0 .
1159(18) 0.0 0.0 .
1227(18) 0.0 0.0 .
1187(18) 0.0 0.0 .
1216(19) 0.0 0.0 .
1230(19) 0.0 0.0 .
1199(19) 0.0 0.0 .
1252(18) 0.0 0.0 .
1211(18) 0.0 0.0 .
1201(19) 0.0 0.0 .
1224(19) 0.0 0.0 .
1256(19) 0.0 0.0 .
1216(18) 0.0 0.0 .
1256(19) 0.0 0.0 .
1266(19) 0.0 0.0 .
1252(19) 0.0 0.0 .
1235(19) 0.0 0.0 .
1247(18) 0.0 0.0 .
1250(19) 0.0 0.0 .
1235(19) 0.0 0.0 .
1235(19) 0.0 0.0 .
1210(18) 0.0 0.0 .
1229(18) 0.0 0.0 .
1244(19) 0.0 0.0 .
1242(19) 0.0 0.0 .
1269(19) 0.0 0.0 .
1287(19) 0.0 0.0 .
1290(19) 0.0 0.0 .
1232(19) 0.0 0.0 .
1218(19) 0.0 0.0 .
1241(19) 0.0 0.0 .
1242(19) 0.0 0.0 .
1256(18) 0.0 0.0 .
1277(19) 0.0 0.0 .
1284(20) 0.0 0.0 .
1270(19) 0.0 0.0 .
1264(19) 0.0 0.0 .
1319(19) 0.0 0.0 .
1304(19) 0.0 0.0 .
1257(19) 0.0 0.0 .
1276(19) 0.0 0.0 .
1329(19) 0.0 0.0 .
1374(19) 0.0 0.0 .
1306(20) 0.0 0.0 .
1293(20) 0.0 0.0 .
1268(19) 0.0 0.0 .
1303(19) 0.0 0.0 .
1296(19) 0.0 0.0 .
1307(19) 0.0 0.0 .
1319(20) 0.0 0.0 .
1274(19) 0.0 0.0 .
1275(19) 0.0 0.0 .
1278(19) 0.0 0.0 .
1264(19) 0.0 0.0 .
1282(20) 0.0 0.0 .
1312(19) 0.0 0.0 .
1290(19) 0.0 0.0 .
1362(19) 0.0 0.0 .
1321(20) 0.0 0.0 .
1296(20) 0.0 0.0 .
1277(19) 0.0 0.0 .
1363(19) 0.0 0.0 .
1302(19) 0.0 0.0 .
1325(19) 0.0 0.0 .
1270(19) 0.0 0.0 .
1313(19) 0.0 0.0 .
1322(19) 0.0 0.0 .
1386(20) 0.0 0.0 .
1350(20) 0.0 0.0 .
1344(20) 0.0 0.0 .
1345(20) 0.0 0.0 .
1309(19) 0.0 0.0 .
1239(19) 0.0 0.0 .
1305(20) 0.0 0.0 .
1335(20) 0.0 0.0 .
1304(19) 0.0 0.0 .
1308(19) 0.0 0.0 .
1339(19) 0.0 0.0 .
1320(20) 0.0 0.0 .
1327(20) 0.0 0.0 .
1315(19) 0.0 0.0 .
1311(19) 0.0 0.0 .
1298(19) 0.0 0.0 .
1360(20) 0.0 0.0 .
1317(20) 0.0 0.0 .
1319(19) 0.0 0.0 .
1305(19) 0.0 0.0 .
1302(19) 0.0 0.0 .
1305(20) 0.0 0.0 .
1331(20) 0.0 0.0 .
1314(19) 0.0 0.0 .
1337(19) 0.0 0.0 .
1373(20) 0.0 0.0 .
1332(20) 0.0 0.0 .
1309(19) 0.0 0.0 .
1311(19) 0.0 0.0 .
1334(19) 0.0 0.0 .
1322(19) 0.0 0.0 .
1269(20) 0.0 0.0 .
1305(20) 0.0 0.0 .
1321(19) 0.0 0.0 .
1349(19) 0.0 0.0 .
1357(20) 0.0 0.0 .
1303(20) 0.0 0.0 .
1327(20) 0.0 0.0 .
1306(19) 0.0 0.0 .
1338(19) 0.0 0.0 .
1339(20) 0.0 0.0 .
1289(20) 0.0 0.0 .
1240(19) 0.0 0.0 .
1274(19) 0.0 0.0 .
1334(19) 0.0 0.0 .
1398(20) 0.0 0.0 .
1381(20) 0.0 0.0 .
1337(20) 0.0 0.0 .
1367(19) 0.0 0.0 .
1362(19) 0.0 0.0 .
1392(20) 0.0 0.0 .
1316(20) 0.0 0.0 .
1267(19) 0.0 0.0 .
1364(19) 0.0 0.0 .
1330(19) 0.0 0.0 .
1347(20) 0.0 0.0 .
1320(20) 0.0 0.0 .
1291(19) 0.0 0.0 .
1353(19) 0.0 0.0 .
1307(19) 0.0 0.0 .
1309(20) 0.0 0.0 .
1306(20) 0.0 0.0 .
1315(19) 0.0 0.0 .
1302(19) 0.0 0.0 .
1283(19) 0.0 0.0 .
1309(20) 0.0 0.0 .
1328(20) 0.0 0.0 .
1293(19) 0.0 0.0 .
1272(19) 0.0 0.0 .
1325(20) 0.0 0.0 .
1337(20) 0.0 0.0 .
1299(19) 0.0 0.0 .
1310(19) 0.0 0.0 .
1304(19) 0.0 0.0 .
1256(19) 0.0 0.0 .
1320(20) 0.0 0.0 .
1293(19) 0.0 0.0 .
1326(19) 0.0 0.0 .
1337(19) 0.0 0.0 .
1322(19) 0.0 0.0 .
1329(20) 0.0 0.0 .
1298(19) 0.0 0.0 .
1316(19) 0.0 0.0 .
1305(19) 0.0 0.0 .
1366(20) 0.0 0.0 .
1309(20) 0.0 0.0 .
1305(20) 0.0 0.0 .
1272(19) 0.0 0.0 .
1303(19) 0.0 0.0 .
1355(20) 0.0 0.0 .
1318(20) 0.0 0.0 .
1277(19) 0.0 0.0 .
1312(19) 0.0 0.0 .
1296(19) 0.0 0.0 .
1300(19) 0.0 0.0 .
1297(20) 0.0 0.0 .
1286(19) 0.0 0.0 .
1294(19) 0.0 0.0 .
1300(19) 0.0 0.0 .
1285(19) 0.0 0.0 .
1306(20) 0.0 0.0 .
1292(19) 0.0 0.0 .
1237(18) 0.0 0.0 .
1305(19) 0.0 0.0 .
1276(19) 0.0 0.0 .
1277(20) 0.0 0.0 .
1287(19) 0.0 0.0 .
1308(19) 0.0 0.0 .
1292(19) 0.0 0.0 .
1317(20) 0.0 0.0 .
1320(20) 0.0 0.0 .
1275(19) 0.0 0.0 .
1321(19) 0.0 0.0 .
1254(19) 0.0 0.0 .
1266(19) 0.0 0.0 .
1286(19) 0.0 0.0 .
1258(19) 0.0 0.0 .
1235(18) 0.0 0.0 .
1290(19) 0.0 0.0 .
1273(20) 0.0 0.0 .
1309(19) 0.0 0.0 .
1329(19) 0.0 0.0 .
1284(19) 0.0 0.0 .
1269(19) 0.0 0.0 .
1244(19) 0.0 0.0 .
1214(19) 0.0 0.0 .
1232(18) 0.0 0.0 .
1277(18) 0.0 0.0 .
1231(19) 0.0 0.0 .
1278(20) 0.0 0.0 .
1255(19) 0.0 0.0 .
1194(18) 0.0 0.0 .
1274(19) 0.0 0.0 .
1295(19) 0.0 0.0 .
1280(20) 0.0 0.0 .
1300(19) 0.0 0.0 .
1257(18) 0.0 0.0 .
1274(19) 0.0 0.0 .
1312(20) 0.0 0.0 .
1320(20) 0.0 0.0 .
1258(19) 0.0 0.0 .
1245(18) 0.0 0.0 .
1240(18) 0.0 0.0 .
1236(19) 0.0 0.0 .
1217(19) 0.0 0.0 .
1203(19) 0.0 0.0 .
1264(18) 0.0 0.0 .
1248(19) 0.0 0.0 .
1259(19) 0.0 0.0 .
1263(19) 0.0 0.0 .
1251(19) 0.0 0.0 .
1243(18) 0.0 0.0 .
1239(19) 0.0 0.0 .
1172(19) 0.0 0.0 .
1231(19) 0.0 0.0 .
1239(19) 0.0 0.0 .
1241(18) 0.0 0.0 .
1229(18) 0.0 0.0 .
1265(19) 0.0 0.0 .
1309(20) 0.0 0.0 .
1281(19) 0.0 0.0 .
1244(18) 0.0 0.0 .
1273(19) 0.0 0.0 .
1268(20) 0.0 0.0 .
1254(20) 0.0 0.0 .
1173(18) 0.0 0.0 .
1233(18) 0.0 0.0 .
1238(19) 0.0 0.0 .
1231(19) 0.0 0.0 .
1276(19) 0.0 0.0 .
1211(18) 0.0 0.0 .
1257(18) 0.0 0.0 .
1206(19) 0.0 0.0 .
1208(19) 0.0 0.0 .
1242(19) 0.0 0.0 .
1211(18) 0.0 0.0 .
1195(18) 0.0 0.0 .
1248(19) 0.0 0.0 .
1237(19) 0.0 0.0 .
1227(19) 0.0 0.0 .
1197(18) 0.0 0.0 .
1214(18) 0.0 0.0 .
1262(19) 0.0 0.0 .
1155(19) 0.0 0.0 .
1163(18) 0.0 0.0 .
1227(18) 0.0 0.0 .
1207(18) 0.0 0.0 .
1239(19) 0.0 0.0 .
1285(20) 0.0 0.0 .
1242(19) 0.0 0.0 .
1187(18) 0.0 0.0 .
1216(18) 0.0 0.0 .
1187(19) 0.0 0.0 .
1208(19) 0.0 0.0 .
1180(18) 0.0 0.0 .
1172(18) 0.0 0.0 .
1262(19) 0.0 0.0 .
1175(18) 0.0 0.0 .
1212(19) 0.0 0.0 .
1193(19) 0.0 0.0 .
1183(18) 0.0 0.0 .
1198(18) 0.0 0.0 .
1208(19) 0.0 0.0 .
1168(19) 0.0 0.0 .
1184(18) 0.0 0.0 .
1191(18) 0.0 0.0 .
1244(19) 0.0 0.0 .
1190(19) 0.0 0.0 .
1161(19) 0.0 0.0 .
1171(18) 0.0 0.0 .
1225(18) 0.0 0.0 .
1157(18) 0.0 0.0 .
1148(18) 0.0 0.0 .
1142(18) 0.0 0.0 .
1179(18) 0.0 0.0 .
1177(18) 0.0 0.0 .
1208(19) 0.0 0.0 .
1182(19) 0.0 0.0 .
1148(18) 0.0 0.0 .
1173(18) 0.0 0.0 .
1149(18) 0.0 0.0 .
1107(18) 0.0 0.0 .
1120(18) 0.0 0.0 .
1168(18) 0.0 0.0 .
1136(18) 0.0 0.0 .
1186(18) 0.0 0.0 .
1148(18) 0.0 0.0 .
1211(19) 0.0 0.0 .
1176(18) 0.0 0.0 .
1182(18) 0.0 0.0 .
1160(18) 0.0 0.0 .
1149(18) 0.0 0.0 .
1198(19) 0.0 0.0 .
1147(18) 0.0 0.0 .
1163(18) 0.0 0.0 .
1135(17) 0.0 0.0 .
1130(18) 0.0 0.0 .
1135(19) 0.0 0.0 .
1151(18) 0.0 0.0 .
1122(17) 0.0 0.0 .
1095(17) 0.0 0.0 .
1124(18) 0.0 0.0 .
1150(19) 0.0 0.0 .
1120(18) 0.0 0.0 .
1117(17) 0.0 0.0 .
1117(18) 0.0 0.0 .
1126(18) 0.0 0.0 .
1173(19) 0.0 0.0 .
1140(18) 0.0 0.0 .
1156(18) 0.0 0.0 .
1129(18) 0.0 0.0 .
1097(18) 0.0 0.0 .
1144(18) 0.0 0.0 .
1179(18) 0.0 0.0 .
1129(17) 0.0 0.0 .
1120(18) 0.0 0.0 .
1147(19) 0.0 0.0 .
1070(18) 0.0 0.0 .
1162(18) 0.0 0.0 .
1132(18) 0.0 0.0 .
1125(18) 0.0 0.0 .
1123(18) 0.0 0.0 .
1105(18) 0.0 0.0 .
1175(18) 0.0 0.0 .
1090(17) 0.0 0.0 .
1163(18) 0.0 0.0 .
1110(18) 0.0 0.0 .
1146(18) 0.0 0.0 .
1146(18) 0.0 0.0 .
1106(17) 0.0 0.0 .
1150(18) 0.0 0.0 .
1105(18) 0.0 0.0 .
1116(18) 0.0 0.0 .
1122(18) 0.0 0.0 .
1079(17) 0.0 0.0 .
1081(18) 0.0 0.0 .
1083(18) 0.0 0.0 .
1081(18) 0.0 0.0 .
1180(18) 0.0 0.0 .
1115(17) 0.0 0.0 .
1118(18) 0.0 0.0 .
1087(18) 0.0 0.0 .
1115(18) 0.0 0.0 .
1106(17) 0.0 0.0 .
1097(17) 0.0 0.0 .
1084(18) 0.0 0.0 .
1089(18) 0.0 0.0 .
1061(17) 0.0 0.0 .
1150(18) 0.0 0.0 .
1100(17) 0.0 0.0 .
1097(18) 0.0 0.0 .
1068(18) 0.0 0.0 .
1054(17) 0.0 0.0 .
1104(17) 0.0 0.0 .
1069(17) 0.0 0.0 .
1107(18) 0.0 0.0 .
1084(18) 0.0 0.0 .
1054(18) 0.0 0.0 .
1070(17) 0.0 0.0 .
1080(17) 0.0 0.0 .
1083(18) 0.0 0.0 .
1044(18) 0.0 0.0 .
1067(18) 0.0 0.0 .
1051(17) 0.0 0.0 .
1070(17) 0.0 0.0 .
1089(18) 0.0 0.0 .
1103(18) 0.0 0.0 .
1096(18) 0.0 0.0 .
1054(17) 0.0 0.0 .
1027(17) 0.0 0.0 .
1052(18) 0.0 0.0 .
1059(18) 0.0 0.0 .
1020(17) 0.0 0.0 .
1026(17) 0.0 0.0 .
1074(18) 0.0 0.0 .
1097(18) 0.0 0.0 .
1084(18) 0.0 0.0 .
1077(17) 0.0 0.0 .
1056(17) 0.0 0.0 .
1050(17) 0.0 0.0 .
1083(18) 0.0 0.0 .
1092(18) 0.0 0.0 .
1039(17) 0.0 0.0 .
1044(17) 0.0 0.0 .
1050(18) 0.0 0.0 .
1019(18) 0.0 0.0 .
1052(17) 0.0 0.0 .
1056(17) 0.0 0.0 .
1074(17) 0.0 0.0 .
1082(18) 0.0 0.0 .
1078(18) 0.0 0.0 .
1053(17) 0.0 0.0 .
1067(17) 0.0 0.0 .
1068(17) 0.0 0.0 .
1035(17) 0.0 0.0 .
1050(18) 0.0 0.0 .
1010(17) 0.0 0.0 .
1045(17) 0.0 0.0 .
1030(17) 0.0 0.0 .
1064(17) 0.0 0.0 .
1060(18) 0.0 0.0 .
1049(17) 0.0 0.0 .
1021(17) 0.0 0.0 .
1045(17) 0.0 0.0 .
1035(17) 0.0 0.0 .
1020(17) 0.0 0.0 .
1044(17) 0.0 0.0 .
1004(16) 0.0 0.0 .
1056(17) 0.0 0.0 .
1021(17) 0.0 0.0 .
1000(17) 0.0 0.0 .
1037(17) 0.0 0.0 .
1015(17) 0.0 0.0 .
996(17) 0.0 0.0 .
1000(17) 0.0 0.0 .
1007(17) 0.0 0.0 .
1068(18) 0.0 0.0 .
1046(17) 0.0 0.0 .
991(17) 0.0 0.0 .
1041(18) 0.0 0.0 .
1046(18) 0.0 0.0 .
1015(17) 0.0 0.0 .
1048(17) 0.0 0.0 .
1050(17) 0.0 0.0 .
1017(17) 0.0 0.0 .
1002(17) 0.0 0.0 .
1007(17) 0.0 0.0 .
1003(17) 0.0 0.0 .
1075(18) 0.0 0.0 .
1057(18) 0.0 0.0 .
1020(17) 0.0 0.0 .
998(17) 0.0 0.0 .
961(16) 0.0 0.0 .
993(17) 0.0 0.0 .
1013(18) 0.0 0.0 .
1059(18) 0.0 0.0 .
1039(17) 0.0 0.0 .
1000(16) 0.0 0.0 .
998(17) 0.0 0.0 .
1061(18) 0.0 0.0 .
1010(17) 0.0 0.0 .
1006(16) 0.0 0.0 .
1003(16) 0.0 0.0 .
1008(17) 0.0 0.0 .
996(18) 0.0 0.0 .
1026(17) 0.0 0.0 .
957(16) 0.0 0.0 .
1001(16) 0.0 0.0 .
1017(17) 0.0 0.0 .
1033(18) 0.0 0.0 .
1004(17) 0.0 0.0 .
981(16) 0.0 0.0 .
976(16) 0.0 0.0 .
1002(17) 0.0 0.0 .
977(17) 0.0 0.0 .
974(17) 0.0 0.0 .
970(16) 0.0 0.0 .
991(17) 0.0 0.0 .
937(17) 0.0 0.0 .
960(17) 0.0 0.0 .
987(17) 0.0 0.0 .
997(16) 0.0 0.0 .
986(17) 0.0 0.0 .
992(17) 0.0 0.0 .
989(17) 0.0 0.0 .
959(17) 0.0 0.0 .
998(16) 0.0 0.0 .
1018(17) 0.0 0.0 .
976(17) 0.0 0.0 .
980(17) 0.0 0.0 .
962(17) 0.0 0.0 .
1002(16) 0.0 0.0 .
970(17) 0.0 0.0 .
978(17) 0.0 0.0 .
998(17) 0.0 0.0 .
979(16) 0.0 0.0 .
993(16) 0.0 0.0 .
936(16) 0.0 0.0 .
980(17) 0.0 0.0 .
977(17) 0.0 0.0 .
991(17) 0.0 0.0 .
938(16) 0.0 0.0 .
967(17) 0.0 0.0 .
995(17) 0.0 0.0 .
964(17) 0.0 0.0 .
941(16) 0.0 0.0 .
978(16) 0.0 0.0 .
985(17) 0.0 0.0 .
1002(17) 0.0 0.0 .
955(17) 0.0 0.0 .
960(16) 0.0 0.0 .
991(16) 0.0 0.0 .
942(17) 0.0 0.0 .
995(18) 0.0 0.0 .
933(16) 0.0 0.0 .
932(16) 0.0 0.0 .
942(16) 0.0 0.0 .
992(17) 0.0 0.0 .
961(17) 0.0 0.0 .
896(16) 0.0 0.0 .
978(16) 0.0 0.0 .
936(16) 0.0 0.0 .
975(17) 0.0 0.0 .
943(17) 0.0 0.0 .
943(17) 0.0 0.0 .
938(16) 0.0 0.0 .
970(16) 0.0 0.0 .
914(16) 0.0 0.0 .
981(17) 0.0 0.0 .
1040(18) 0.0 0.0 .
1004(16) 0.0 0.0 .
969(16) 0.0 0.0 .
945(16) 0.0 0.0 .
963(17) 0.0 0.0 .
960(17) 0.0 0.0 .
939(16) 0.0 0.0 .
925(16) 0.0 0.0 .
940(17) 0.0 0.0 .
904(16) 0.0 0.0 .
930(16) 0.0 0.0 .
950(16) 0.0 0.0 .
942(16) 0.0 0.0 .
934(17) 0.0 0.0 .
917(16) 0.0 0.0 .
927(16) 0.0 0.0 .
925(16) 0.0 0.0 .
959(17) 0.0 0.0 .
926(16) 0.0 0.0 .
907(16) 0.0 0.0 .
952(16) 0.0 0.0 .
922(16) 0.0 0.0 .
928(16) 0.0 0.0 .
925(16) 0.0 0.0 .
957(16) 0.0 0.0 .
976(16) 0.0 0.0 .
923(16) 0.0 0.0 .
921(16) 0.0 0.0 .
889(16) 0.0 0.0 .
916(16) 0.0 0.0 .
913(16) 0.0 0.0 .
901(16) 0.0 0.0 .
934(16) 0.0 0.0 .
945(17) 0.0 0.0 .
934(16) 0.0 0.0 .
925(16) 0.0 0.0 .
919(16) 0.0 0.0 .
918(16) 0.0 0.0 .
907(17) 0.0 0.0 .
917(16) 0.0 0.0 .
936(16) 0.0 0.0 .
925(16) 0.0 0.0 .
946(17) 0.0 0.0 .
935(17) 0.0 0.0 .
943(17) 0.0 0.0 .
932(16) 0.0 0.0 .
885(15) 0.0 0.0 .
933(16) 0.0 0.0 .
919(17) 0.0 0.0 .
899(16) 0.0 0.0 .
905(16) 0.0 0.0 .
944(16) 0.0 0.0 .
872(16) 0.0 0.0 .
940(17) 0.0 0.0 .
929(16) 0.0 0.0 .
895(16) 0.0 0.0 .
889(16) 0.0 0.0 .
873(16) 0.0 0.0 .
860(16) 0.0 0.0 .
886(16) 0.0 0.0 .
892(15) 0.0 0.0 .
880(16) 0.0 0.0 .
913(16) 0.0 0.0 .
944(17) 0.0 0.0 .
955(16) 0.0 0.0 .
894(16) 0.0 0.0 .
881(16) 0.0 0.0 .
896(16) 0.0 0.0 .
904(16) 0.0 0.0 .
889(16) 0.0 0.0 .
826(15) 0.0 0.0 .
853(16) 0.0 0.0 .
917(17) 0.0 0.0 .
891(16) 0.0 0.0 .
845(15) 0.0 0.0 .
912(16) 0.0 0.0 .
922(16) 0.0 0.0 .
891(16) 0.0 0.0 .
924(16) 0.0 0.0 .
851(15) 0.0 0.0 .
887(15) 0.0 0.0 .
851(15) 0.0 0.0 .
873(16) 0.0 0.0 .
840(15) 0.0 0.0 .
888(16) 0.0 0.0 .
921(16) 0.0 0.0 .
893(16) 0.0 0.0 .
907(17) 0.0 0.0 .
887(16) 0.0 0.0 .
933(16) 0.0 0.0 .
869(15) 0.0 0.0 .
825(15) 0.0 0.0 .
892(17) 0.0 0.0 .
856(16) 0.0 0.0 .
832(15) 0.0 0.0 .
867(15) 0.0 0.0 .
845(16) 0.0 0.0 .
858(16) 0.0 0.0 .
892(16) 0.0 0.0 .
873(15) 0.0 0.0 .
835(15) 0.0 0.0 .
904(16) 0.0 0.0 .
857(16) 0.0 0.0 .
839(15) 0.0 0.0 .
821(15) 0.0 0.0 .
864(16) 0.0 0.0 .
858(16) 0.0 0.0 .
855(16) 0.0 0.0 .
859(16) 0.0 0.0 .
845(15) 0.0 0.0 .
867(16) 0.0 0.0 .
904(16) 0.0 0.0 .
858(16) 0.0 0.0 .
839(15) 0.0 0.0 .
848(15) 0.0 0.0 .
805(15) 0.0 0.0 .
891(16) 0.0 0.0 .
883(16) 0.0 0.0 .
852(15) 0.0 0.0 .
851(15) 0.0 0.0 .
842(16) 0.0 0.0 .
881(16) 0.0 0.0 .
794(15) 0.0 0.0 .
824(15) 0.0 0.0 .
818(15) 0.0 0.0 .
832(15) 0.0 0.0 .
847(16) 0.0 0.0 .
857(16) 0.0 0.0 .
866(15) 0.0 0.0 .
875(15) 0.0 0.0 .
873(16) 0.0 0.0 .
900(17) 0.0 0.0 .
868(16) 0.0 0.0 .
841(15) 0.0 0.0 .
789(15) 0.0 0.0 .
809(15) 0.0 0.0 .
825(16) 0.0 0.0 .
815(15) 0.0 0.0 .
819(15) 0.0 0.0 .
798(15) 0.0 0.0 .
824(15) 0.0 0.0 .
858(16) 0.0 0.0 .
839(15) 0.0 0.0 .
799(15) 0.0 0.0 .
816(15) 0.0 0.0 .
847(16) 0.0 0.0 .
835(16) 0.0 0.0 .
791(15) 0.0 0.0 .
824(15) 0.0 0.0 .
793(15) 0.0 0.0 .
830(16) 0.0 0.0 .
828(16) 0.0 0.0 .
800(15) 0.0 0.0 .
821(15) 0.0 0.0 .
821(15) 0.0 0.0 .
819(15) 0.0 0.0 .
853(16) 0.0 0.0 .
820(15) 0.0 0.0 .
804(15) 0.0 0.0 .
829(15) 0.0 0.0 .
846(16) 0.0 0.0 .
826(15) 0.0 0.0 .
840(15) 0.0 0.0 .
783(14) 0.0 0.0 .
823(15) 0.0 0.0 .
811(15) 0.0 0.0 .
842(16) 0.0 0.0 .
844(16) 0.0 0.0 .
798(15) 0.0 0.0 .
780(15) 0.0 0.0 .
790(15) 0.0 0.0 .
812(15) 0.0 0.0 .
849(15) 0.0 0.0 .
780(14) 0.0 0.0 .
777(15) 0.0 0.0 .
796(16) 0.0 0.0 .
828(16) 0.0 0.0 .
845(15) 0.0 0.0 .
822(15) 0.0 0.0 .
797(15) 0.0 0.0 .
791(16) 0.0 0.0 .
758(15) 0.0 0.0 .
814(15) 0.0 0.0 .
826(15) 0.0 0.0 .
804(15) 0.0 0.0 .
827(16) 0.0 0.0 .
800(15) 0.0 0.0 .
808(15) 0.0 0.0 .
837(15) 0.0 0.0 .
797(15) 0.0 0.0 .
799(16) 0.0 0.0 .
843(16) 0.0 0.0 .
774(14) 0.0 0.0 .
779(15) 0.0 0.0 .
814(15) 0.0 0.0 .
773(15) 0.0 0.0 .
760(15) 0.0 0.0 .
790(15) 0.0 0.0 .
804(15) 0.0 0.0 .
789(15) 0.0 0.0 .
794(15) 0.0 0.0 .
798(15) 0.0 0.0 .
785(14) 0.0 0.0 .
802(15) 0.0 0.0 .
757(15) 0.0 0.0 .
759(15) 0.0 0.0 .
805(15) 0.0 0.0 .
842(15) 0.0 0.0 .
795(15) 0.0 0.0 .
787(15) 0.0 0.0 .
766(15) 0.0 0.0 .
753(15) 0.0 0.0 .
786(15) 0.0 0.0 .
790(15) 0.0 0.0 .
774(15) 0.0 0.0 .
796(15) 0.0 0.0 .
805(15) 0.0 0.0 .
772(14) 0.0 0.0 .
769(15) 0.0 0.0 .
762(15) 0.0 0.0 .
769(15) 0.0 0.0 .
777(15) 0.0 0.0 .
791(15) 0.0 0.0 .
778(15) 0.0 0.0 .
768(15) 0.0 0.0 .
759(15) 0.0 0.0 .
789(15) 0.0 0.0 .
770(14) 0.0 0.0 .
777(15) 0.0 0.0 .
789(15) 0.0 0.0 .
781(15) 0.0 0.0 .
762(14) 0.0 0.0 .
762(14) 0.0 0.0 .
753(15) 0.0 0.0 .
764(15) 0.0 0.0 .
760(15) 0.0 0.0 .
763(14) 0.0 0.0 .
765(14) 0.0 0.0 .
780(15) 0.0 0.0 .
766(15) 0.0 0.0 .
753(15) 0.0 0.0 .
787(15) 0.0 0.0 .
735(14) 0.0 0.0 .
755(15) 0.0 0.0 .
761(15) 0.0 0.0 .
787(15) 0.0 0.0 .
791(15) 0.0 0.0 .
791(15) 0.0 0.0 .
773(15) 0.0 0.0 .
793(16) 0.0 0.0 .
785(15) 0.0 0.0 .
768(14) 0.0 0.0 .
731(14) 0.0 0.0 .
764(15) 0.0 0.0 .
748(15) 0.0 0.0 .
776(15) 0.0 0.0 .
781(14) 0.0 0.0 .
757(15) 0.0 0.0 .
777(15) 0.0 0.0 .
770(15) 0.0 0.0 .
747(15) 0.0 0.0 .
776(15) 0.0 0.0 .
760(15) 0.0 0.0 .
775(15) 0.0 0.0 .
761(15) 0.0 0.0 .
766(15) 0.0 0.0 .
757(14) 0.0 0.0 .
755(15) 0.0 0.0 .
740(15) 0.0 0.0 .
781(15) 0.0 0.0 .
757(14) 0.0 0.0 .
756(14) 0.0 0.0 .
744(15) 0.0 0.0 .
769(15) 0.0 0.0 .
753(15) 0.0 0.0 .
755(14) 0.0 0.0 .
759(14) 0.0 0.0 .
734(15) 0.0 0.0 .
740(15) 0.0 0.0 .
753(15) 0.0 0.0 .
733(14) 0.0 0.0 .
754(14) 0.0 0.0 .
735(14) 0.0 0.0 .
733(15) 0.0 0.0 .
726(15) 0.0 0.0 .
752(14) 0.0 0.0 .
817(15) 0.0 0.0 .
760(15) 0.0 0.0 .
732(15) 0.0 0.0 .
786(15) 0.0 0.0 .
756(14) 0.0 0.0 .
750(14) 0.0 0.0 .
777(15) 0.0 0.0 .
753(15) 0.0 0.0 .
736(15) 0.0 0.0 .
750(14) 0.0 0.0 .
718(14) 0.0 0.0 .
758(15) 0.0 0.0 .
720(15) 0.0 0.0 .
764(15) 0.0 0.0 .
747(14) 0.0 0.0 .
717(14) 0.0 0.0 .
753(15) 0.0 0.0 .
764(15) 0.0 0.0 .
745(15) 0.0 0.0 .
756(14) 0.0 0.0 .
716(14) 0.0 0.0 .
730(14) 0.0 0.0 .
750(15) 0.0 0.0 .
763(15) 0.0 0.0 .
780(14) 0.0 0.0 .
711(14) 0.0 0.0 .
741(15) 0.0 0.0 .
761(15) 0.0 0.0 .
738(15) 0.0 0.0 .
753(14) 0.0 0.0 .
732(15) 0.0 0.0 .
711(14) 0.0 0.0 .
733(15) 0.0 0.0 .
746(14) 0.0 0.0 .
757(14) 0.0 0.0 .
743(15) 0.0 0.0 .
727(15) 0.0 0.0 .
710(14) 0.0 0.0 .
718(14) 0.0 0.0 .
731(14) 0.0 0.0 .
757(15) 0.0 0.0 .
745(15) 0.0 0.0 .
716(14) 0.0 0.0 .
713(14) 0.0 0.0 .
735(14) 0.0 0.0 .
712(14) 0.0 0.0 .
716(15) 0.0 0.0 .
750(15) 0.0 0.0 .
732(14) 0.0 0.0 .
760(14) 0.0 0.0 .
740(14) 0.0 0.0 .
743(15) 0.0 0.0 .
723(14) 0.0 0.0 .
729(14) 0.0 0.0 .
726(14) 0.0 0.0 .
728(15) 0.0 0.0 .
720(15) 0.0 0.0 .
735(15) 0.0 0.0 .
718(14) 0.0 0.0 .
707(14) 0.0 0.0 .
717(14) 0.0 0.0 .
687(14) 0.0 0.0 .
680(14) 0.0 0.0 .
713(14) 0.0 0.0 .
695(14) 0.0 0.0 .
754(15) 0.0 0.0 .
738(15) 0.0 0.0 .
678(14) 0.0 0.0 .
657(13) 0.0 0.0 .
714(14) 0.0 0.0 .
695(14) 0.0 0.0 .
694(14) 0.0 0.0 .
711(14) 0.0 0.0 .
714(14) 0.0 0.0 .
683(14) 0.0 0.0 .
735(15) 0.0 0.0 .
747(15) 0.0 0.0 .
703(14) 0.0 0.0 .
739(14) 0.0 0.0 .
730(14) 0.0 0.0 .
717(15) 0.0 0.0 .
707(14) 0.0 0.0 .
703(14) 0.0 0.0 .
712(14) 0.0 0.0 .
739(15) 0.0 0.0 .
708(15) 0.0 0.0 .
687(14) 0.0 0.0 .
663(13) 0.0 0.0 .
688(14) 0.0 0.0 .
732(15) 0.0 0.0 .
725(15) 0.0 0.0 .
685(14) 0.0 0.0 .
705(14) 0.0 0.0 .
700(14) 0.0 0.0 .
681(14) 0.0 0.0 .
678(14) 0.0 0.0 .
706(14) 0.0 0.0 .
709(14) 0.0 0.0 .
718(14) 0.0 0.0 .
691(14) 0.0 0.0 .
702(15) 0.0 0.0 .
716(14) 0.0 0.0 .
713(14) 0.0 0.0 .
698(14) 0.0 0.0 .
701(14) 0.0 0.0 .
689(14) 0.0 0.0 .
699(14) 0.0 0.0 .
691(14) 0.0 0.0 .
718(14) 0.0 0.0 .
749(15) 0.0 0.0 .
668(14) 0.0 0.0 .
692(14) 0.0 0.0 .
695(14) 0.0 0.0 .
720(14) 0.0 0.0 .
709(14) 0.0 0.0 .
752(15) 0.0 0.0 .
720(14) 0.0 0.0 .
719(14) 0.0 0.0 .
738(14) 0.0 0.0 .
695(14) 0.0 0.0 .
705(15) 0.0 0.0 .
677(14) 0.0 0.0 .
681(14) 0.0 0.0 .
730(14) 0.0 0.0 .
683(14) 0.0 0.0 .
749(15) 0.0 0.0 .
744(15) 0.0 0.0 .
738(14) 0.0 0.0 .
717(14) 0.0 0.0 .
702(14) 0.0 0.0 .
721(14) 0.0 0.0 .
691(14) 0.0 0.0 .
710(14) 0.0 0.0 .
702(14) 0.0 0.0 .
685(14) 0.0 0.0 .
702(14) 0.0 0.0 .
682(14) 0.0 0.0 .
712(14) 0.0 0.0 .
709(14) 0.0 0.0 .
727(15) 0.0 0.0 .
731(15) 0.0 0.0 .
706(14) 0.0 0.0 .
700(14) 0.0 0.0 .
684(14) 0.0 0.0 .
683(14) 0.0 0.0 .
722(15) 0.0 0.0 .
685(14) 0.0 0.0 .
677(14) 0.0 0.0 .
706(14) 0.0 0.0 .
698(15) 0.0 0.0 .
680(14) 0.0 0.0 .
668(13) 0.0 0.0 .
684(14) 0.0 0.0 .
704(14) 0.0 0.0 .
745(15) 0.0 0.0 .
721(14) 0.0 0.0 .
647(13) 0.0 0.0 .
697(14) 0.0 0.0 .
678(14) 0.0 0.0 .
687(15) 0.0 0.0 .
660(14) 0.0 0.0 .
662(13) 0.0 0.0 .
685(14) 0.0 0.0 .
683(14) 0.0 0.0 .
666(14) 0.0 0.0 .
675(14) 0.0 0.0 .
704(14) 0.0 0.0 .
709(14) 0.0 0.0 .
680(14) 0.0 0.0 .
711(15) 0.0 0.0 .
693(14) 0.0 0.0 .
699(14) 0.0 0.0 .
714(14) 0.0 0.0 .
687(14) 0.0 0.0 .
682(14) 0.0 0.0 .
677(14) 0.0 0.0 .
661(13) 0.0 0.0 .
650(14) 0.0 0.0 .
674(14) 0.0 0.0 .
675(14) 0.0 0.0 .
662(14) 0.0 0.0 .
703(14) 0.0 0.0 .
714(14) 0.0 0.0 .
685(14) 0.0 0.0 .
692(14) 0.0 0.0 .
694(14) 0.0 0.0 .
674(13) 0.0 0.0 .
704(14) 0.0 0.0 .
660(14) 0.0 0.0 .
658(14) 0.0 0.0 .
699(14) 0.0 0.0 .
677(14) 0.0 0.0 .
644(14) 0.0 0.0 .
671(14) 0.0 0.0 .
659(14) 0.0 0.0 .
696(14) 0.0 0.0 .
663(13) 0.0 0.0 .
697(14) 0.0 0.0 .
698(15) 0.0 0.0 .
692(14) 0.0 0.0 .
672(14) 0.0 0.0 .
644(13) 0.0 0.0 .
675(14) 0.0 0.0 .
701(15) 0.0 0.0 .
684(14) 0.0 0.0 .
659(13) 0.0 0.0 .
636(13) 0.0 0.0 .
645(14) 0.0 0.0 .
677(15) 0.0 0.0 .
652(14) 0.0 0.0 .
665(13) 0.0 0.0 .
704(14) 0.0 0.0 .
652(14) 0.0 0.0 .
694(15) 0.0 0.0 .
703(14) 0.0 0.0 .
679(14) 0.0 0.0 .
709(14) 0.0 0.0 .
698(14) 0.0 0.0 .
682(14) 0.0 0.0 .
686(14) 0.0 0.0 .
685(14) 0.0 0.0 .
703(14) 0.0 0.0 .
638(14) 0.0 0.0 .
690(14) 0.0 0.0 .
633(13) 0.0 0.0 .
655(13) 0.0 0.0 .
689(14) 0.0 0.0 .
681(14) 0.0 0.0 .
675(14) 0.0 0.0 .
691(14) 0.0 0.0 .
715(14) 0.0 0.0 .
669(14) 0.0 0.0 .
716(15) 0.0 0.0 .
662(14) 0.0 0.0 .
682(14) 0.0 0.0 .
712(14) 0.0 0.0 .
707(14) 0.0 0.0 .
708(15) 0.0 0.0 .
685(14) 0.0 0.0 .
661(13) 0.0 0.0 .
701(14) 0.0 0.0 .
666(14) 0.0 0.0 .
703(15) 0.0 0.0 .
711(14) 0.0 0.0 .
667(14) 0.0 0.0 .
671(13) 0.0 0.0 .
716(15) 0.0 0.0 .
689(15) 0.0 0.0 .
715(14) 0.0 0.0 .
681(14) 0.0 0.0 .
707(14) 0.0 0.0 .
689(14) 0.0 0.0 .
740(15) 0.0 0.0 .
710(14) 0.0 0.0 .
711(14) 0.0 0.0 .
701(14) 0.0 0.0 .
701(14) 0.0 0.0 .
732(15) 0.0 0.0 .
691(14) 0.0 0.0 .
691(14) 0.0 0.0 .
697(14) 0.0 0.0 .
700(14) 0.0 0.0 .
685(14) 0.0 0.0 .
684(14) 0.0 0.0 .
671(13) 0.0 0.0 .
729(14) 0.0 0.0 .
727(15) 0.0 0.0 .
711(15) 0.0 0.0 .
723(15) 0.0 0.0 .
715(14) 0.0 0.0 .
700(14) 0.0 0.0 .
707(14) 0.0 0.0 .
671(14) 0.0 0.0 .
730(15) 0.0 0.0 .
727(14) 0.0 0.0 .
702(14) 0.0 0.0 .
724(15) 0.0 0.0 .
759(15) 0.0 0.0 .
759(15) 0.0 0.0 .
696(14) 0.0 0.0 .
729(15) 0.0 0.0 .
718(14) 0.0 0.0 .
736(15) 0.0 0.0 .
718(14) 0.0 0.0 .
734(14) 0.0 0.0 .
785(15) 0.0 0.0 .
779(15) 0.0 0.0 .
775(15) 0.0 0.0 .
766(14) 0.0 0.0 .
783(15) 0.0 0.0 .
777(15) 0.0 0.0 .
766(15) 0.0 0.0 .
764(15) 0.0 0.0 .
787(15) 0.0 0.0 .
745(14) 0.0 0.0 .
807(15) 0.0 0.0 .
795(15) 0.0 0.0 .
828(15) 0.0 0.0 .
831(15) 0.0 0.0 .
856(15) 0.0 0.0 .
833(16) 0.0 0.0 .
875(16) 0.0 0.0 .
906(16) 0.0 0.0 .
934(16) 0.0 0.0 .
943(16) 0.0 0.0 .
966(17) 0.0 0.0 .
965(17) 0.0 0.0 .
1016(17) 0.0 0.0 .
1003(16) 0.0 0.0 .
1057(17) 0.0 0.0 .
1066(17) 0.0 0.0 .
1128(19) 0.0 0.0 .
1161(18) 0.0 0.0 .
1216(18) 0.0 0.0 .
1267(19) 0.0 0.0 .
1300(19) 0.0 0.0 .
1393(21) 0.0 0.0 .
1414(20) 0.0 0.0 .
1465(20) 0.0 0.0 .
1537(21) 0.0 0.0 .
1613(22) 0.0 0.0 .
1648(22) 0.0 0.0 .
1684(22) 0.0 0.0 .
1842(22) 0.0 0.0 .
1976(23) 0.0 0.0 .
2131(25) 0.0 0.0 .
2305(26) 0.0 0.0 .
2535(27) 0.0 0.0 .
2898(28) 0.0 0.0 .
3279(30) 0.0 0.0 .
3651(33) 0.0 0.0 .
4263(35) 0.0 0. .
5002(38) 0.0 0. .
5798(40) 0.0 0. .
6600(44) 0.0 0. .
7664(48) 0.0 0. .
8779(51) 0.0 0. .
9785(53) 0.0 0. .
10975(55) 0.0 0. .
12373(60) 0.0 0. .
13641(64) 0.0 0. .
15038(67) 0.0 0. .
16563(69) 0.0 0. .
18163(71) 0.0 0. .
20001(77) 0.0 0. .
22299(84) 0.0 0. .
25251(87) 0.0 0. .
28506(90) 0.0 0. .
31932(95) 0.0 0. .
35550(100) 0.0 0. .
38320(110) 0.0 0. .
38870(110) 0.0 0. .
36420(100) 0.0 0. .
31503(95) 0.0 0. .
26419(90) 0.0 0. .
21708(83) 0.0 0. .
17971(73) 0.0 0. .
14765(64) 0.0 0. .
12325(59) 0.0 0. .
10261(55) 0.0 0. .
8827(52) 0.0 0. .
7455(46) 0.0 0. .
6362(41) 0.0 0. .
5545(39) 0.0 0. .
4760(37) 0.0 0. .
4148(35) 0.0 0. .
3781(33) 0.0 0.0 .
3474(31) 0.0 0.0 .
3043(29) 0.0 0.0 .
2783(29) 0.0 0.0 .
2545(28) 0.0 0.0 .
2282(26) 0.0 0.0 .
2102(24) 0.0 0.0 .
1951(23) 0.0 0.0 .
1830(23) 0.0 0.0 .
1719(22) 0.0 0.0 .
1607(21) 0.0 0.0 .
1542(20) 0.0 0.0 .
1445(20) 0.0 0.0 .
1357(20) 0.0 0.0 .
1280(19) 0.0 0.0 .
1260(19) 0.0 0.0 .
1217(18) 0.0 0.0 .
1183(19) 0.0 0.0 .
1152(19) 0.0 0.0 .
1116(18) 0.0 0.0 .
1099(18) 0.0 0.0 .
1005(16) 0.0 0.0 .
1018(17) 0.0 0.0 .
959(17) 0.0 0.0 .
993(17) 0.0 0.0 .
965(16) 0.0 0.0 .
887(15) 0.0 0.0 .
901(16) 0.0 0.0 .
901(17) 0.0 0.0 .
858(16) 0.0 0.0 .
840(15) 0.0 0.0 .
839(15) 0.0 0.0 .
826(15) 0.0 0.0 .
806(16) 0.0 0.0 .
817(16) 0.0 0.0 .
817(15) 0.0 0.0 .
776(14) 0.0 0.0 .
789(15) 0.0 0.0 .
812(16) 0.0 0.0 .
769(15) 0.0 0.0 .
772(14) 0.0 0.0 .
762(14) 0.0 0.0 .
751(15) 0.0 0.0 .
761(15) 0.0 0.0 .
752(15) 0.0 0.0 .
734(14) 0.0 0.0 .
713(14) 0.0 0.0 .
699(14) 0.0 0.0 .
743(15) 0.0 0.0 .
705(14) 0.0 0.0 .
711(14) 0.0 0.0 .
710(14) 0.0 0.0 .
696(14) 0.0 0.0 .
678(14) 0.0 0.0 .
694(14) 0.0 0.0 .
694(14) 0.0 0.0 .
688(14) 0.0 0.0 .
685(14) 0.0 0.0 .
711(14) 0.0 0.0 .
733(14) 0.0 0.0 .
675(13) 0.0 0.0 .
657(14) 0.0 0.0 .
666(14) 0.0 0.0 .
650(14) 0.0 0.0 .
676(14) 0.0 0.0 .
677(13) 0.0 0.0 .
683(14) 0.0 0.0 .
682(14) 0.0 0.0 .
671(14) 0.0 0.0 .
635(13) 0.0 0.0 .
658(13) 0.0 0.0 .
681(14) 0.0 0.0 .
662(14) 0.0 0.0 .
671(14) 0.0 0.0 .
659(14) 0.0 0.0 .
657(13) 0.0 0.0 .
669(14) 0.0 0.0 .
640(14) 0.0 0.0 .
673(14) 0.0 0.0 .
654(13) 0.0 0.0 .
664(13) 0.0 0.0 .
639(14) 0.0 0.0 .
619(14) 0.0 0.0 .
632(13) 0.0 0.0 .
688(14) 0.0 0.0 .
652(13) 0.0 0.0 .
623(13) 0.0 0.0 .
611(14) 0.0 0.0 .
660(14) 0.0 0.0 .
628(13) 0.0 0.0 .
631(13) 0.0 0.0 .
640(13) 0.0 0.0 .
648(14) 0.0 0.0 .
634(14) 0.0 0.0 .
615(13) 0.0 0.0 .
599(13) 0.0 0.0 .
615(13) 0.0 0.0 .
631(14) 0.0 0.0 .
626(13) 0.0 0.0 .
614(13) 0.0 0.0 .
627(13) 0.0 0.0 .
612(13) 0.0 0.0 .
658(14) 0.0 0.0 .
633(14) 0.0 0.0 .
666(13) 0.0 0.0 .
627(13) 0.0 0.0 .
624(13) 0.0 0.0 .
606(13) 0.0 0.0 .
607(13) 0.0 0.0 .
621(13) 0.0 0.0 .
579(13) 0.0 0.0 .
608(13) 0.0 0.0 .
646(14) 0.0 0.0 .
622(13) 0.0 0.0 .
615(13) 0.0 0.0 .
611(13) 0.0 0.0 .
594(13) 0.0 0.0 .
633(14) 0.0 0.0 .
615(13) 0.0 0.0 .
674(13) 0.00526 595.4 41.9
624(14) 0.00522 595.1 41.3
624(14) 0.00511 594.9 40.7
610(13) 0.00534 594.6 40.1
615(13) 0.00553 594.4 39.6
631(13) 0.00557 594.1 39.0
642(14) 0.00515 593.9 38.5
632(14) 0.00506 593.6 37.9
634(14) 0.00521 593.4 37.4
637(13) 0.00546 593.1 36.9
621(13) 0.00571 592.9 36.4
611(13) 0.00533 592.7 35.9
616(14) 0.00505 592.4 35.4
634(14) 0.00512 592.2 35.0
583(13) 0.00599 591.9 34.5
578(12) 0.00613 591.7 34.0
599(13) 0.00551 591.4 33.6
597(13) 0.00531 591.2 33.2
632(14) 0.00521 590.9 32.7
606(13) 0.00584 590.7 32.3
599(13) 0.00584 590.4 31.9
615(13) 0.00528 590.2 31.5
582(14) 0.00522 589.9 31.1
609(13) 0.00530 589.7 30.7
605(13) 0.00578 589.4 30.4
631(13) 0.00554 589.2 30.0
600(13) 0.00567 588.9 29.6
617(13) 0.00525 588.7 29.3
580(13) 0.00579 588.5 28.9
626(13) 0.00564 588.2 28.6
624(13) 0.00544 588.0 28.2
585(13) 0.00556 587.7 27.9
646(14) 0.00485 587.5 27.6
609(13) 0.00552 587.2 27.3
600(13) 0.00583 587.0 26.9
585(13) 0.00594 586.7 26.6
590(13) 0.00565 586.5 26.3
590(13) 0.00534 586.2 26.0
612(13) 0.00529 586.0 25.7
584(13) 0.00604 585.7 25.4
578(13) 0.00579 585.5 25.2
589(13) 0.00563 585.2 24.9
607(13) 0.00539 585.0 24.6
599(13) 0.00553 584.7 24.3
615(13) 0.00576 584.5 24.1
580(13) 0.00574 584.2 23.8
583(13) 0.00572 584.0 23.6
584(13) 0.00564 583.8 23.3
564(13) 0.00598 583.5 23.1
569(12) 0.00621 583.3 22.8
585(13) 0.00553 583.0 22.6
572(13) 0.00576 582.8 22.4
623(14) 0.00519 582.5 22.1
592(13) 0.00579 582.3 21.9
572(12) 0.00614 582.0 21.7
578(13) 0.00565 581.8 21.5
610(14) 0.00516 581.5 21.2
567(13) 0.00555 581.3 21.0
571(13) 0.00599 581.0 20.8
576(12) 0.00611 580.8 20.6
556(13) 0.00597 580.5 20.4
575(13) 0.00551 580.3 20.2
615(13) 0.00526 580.0 20.0
601(13) 0.00576 579.8 19.8
606(13) 0.00588 579.6 19.6
578(13) 0.00565 579.3 19.5
569(13) 0.00528 579.1 19.3
571(13) 0.00567 578.8 19.1
577(13) 0.00597 578.6 18.9
589(13) 0.00598 578.3 18.7
608(13) 0.00534 578.1 18.6
566(13) 0.00557 577.8 18.4
598(13) 0.00566 577.6 18.2
595(13) 0.00592 577.3 18.1
618(13) 0.00558 577.1 17.9
602(13) 0.00558 576.8 17.7
605(14) 0.00517 576.6 17.6
590(13) 0.00558 576.3 17.4
555(12) 0.00631 576.1 17.3
580(13) 0.00595 575.8 17.1
549(12) 0.00609 575.6 17.0
575(13) 0.00557 575.3 16.8
580(13) 0.00580 575.1 16.7
568(12) 0.00615 574.9 16.6
580(13) 0.00599 574.6 16.4
590(13) 0.00579 574.4 16.3
581(13) 0.00553 574.1 16.1
580(13) 0.00568 574.0 16.0
619(13) 0.00570 573.8 15.9
574(12) 0.00608 573.7 15.7
552(13) 0.00599 573.5 15.6
578(13) 0.00548 573.4 15.5
541(12) 0.00610 573.3 15.4
541(12) 0.00646 573.1 15.3
615(13) 0.00544 573.0 15.1
608(13) 0.00538 572.8 15.0
604(13) 0.00535 572.7 14.9
578(13) 0.00581 572.6 14.8
571(12) 0.00616 572.4 14.7
598(13) 0.00565 572.3 14.6
569(13) 0.00578 572.2 14.5
576(13) 0.00579 572.0 14.3
586(13) 0.00579 571.9 14.2
562(12) 0.00619 571.7 14.1
548(13) 0.00577 571.6 14.0
561(13) 0.00576 571.5 13.9
581(13) 0.00566 571.3 13.8
569(13) 0.00598 571.2 13.7
554(12) 0.00632 571.1 13.6
564(13) 0.00570 570.9 13.6
582(13) 0.00537 570.8 13.5
557(12) 0.00615 570.6 13.4
574(13) 0.00599 570.5 13.3
574(12) 0.00618 570.4 13.2
593(13) 0.00555 570.2 13.1
603(14) 0.00509 570.1 13.0
577(13) 0.00567 569.9 12.9
571(13) 0.00604 569.8 12.8
601(13) 0.00585 569.7 12.8
583(13) 0.00558 569.5 12.7
586(14) 0.00521 569.4 12.6
576(13) 0.00578 569.3 12.5
567(12) 0.00623 569.1 12.5
564(12) 0.00617 569.0 12.4
588(13) 0.00557 568.8 12.3
544(13) 0.00557 568.7 12.2
591(13) 0.00551 568.6 12.2
583(13) 0.00602 568.4 12.3
552(12) 0.00628 568.3 12.2
567(13) 0.00597 568.2 12.1
564(13) 0.00574 568.0 12.1
595(13) 0.00545 567.9 12.0
562(12) 0.00622 567.7 11.9
550(12) 0.00634 567.6 11.9
556(13) 0.00587 567.5 11.8
573(13) 0.00551 567.3 11.8
566(13) 0.00573 567.2 11.7
547(12) 0.00644 567.0 11.6
550(12) 0.00621 566.9 11.6
574(13) 0.00578 566.8 11.5
585(13) 0.00550 566.6 11.5
537(12) 0.00620 566.5 11.4
567(12) 0.00618 566.4 11.4
590(13) 0.00571 566.2 11.3
572(13) 0.00577 566.1 11.3
572(13) 0.00573 565.9 11.2
584(13) 0.00575 565.8 11.2
547(12) 0.00636 565.7 11.2
548(12) 0.00615 565.5 11.1
596(13) 0.00537 565.4 11.1
543(12) 0.00608 565.3 11.1
554(13) 0.00604 565.1 11.0
554(12) 0.00633 565.0 11.0
558(13) 0.00583 564.8 11.0
555(13) 0.00568 564.7 10.9
539(13) 0.00600 564.6 10.9
539(12) 0.00618 564.4 10.9
532(12) 0.00654 564.3 10.8
541(12) 0.00606 564.1 10.8
526(13) 0.00598 564.0 10.8
577(13) 0.00569 563.9 10.8
538(12) 0.00630 563.7 10.8
554(12) 0.00631 563.6 10.7
536(12) 0.00638 563.5 10.7
562(13) 0.00548 563.3 10.7
552(13) 0.00595 563.2 10.7
563(12) 0.00607 563.0 10.7
579(13) 0.00602 562.9 10.7
569(13) 0.00583 562.8 10.7
560(13) 0.00550 562.6 10.7
565(13) 0.00576 562.5 10.7
579(12) 0.00607 562.4 10.7
567(12) 0.00620 562.2 10.7
581(13) 0.00574 562.1 10.7
598(14) 0.00505 561.9 10.7
560(13) 0.00589 561.8 10.7
564(12) 0.00624 561.7 10.7
545(12) 0.00644 561.5 10.8
608(13) 0.00531 561.4 10.8
595(13) 0.00529 561.2 10.8
587(13) 0.00575 561.1 10.8
543(12) 0.00646 561.0 10.9
568(12) 0.00612 560.8 10.9
575(13) 0.00561 560.7 11.0
569(13) 0.00554 560.6 11.0
576(13) 0.00568 560.4 11.1
576(12) 0.00606 560.3 11.1
590(13) 0.00581 560.1 11.2
551(13) 0.00596 560.0 11.2
586(13) 0.00542 559.9 11.3
544(13) 0.00605 559.7 11.4
556(12) 0.00631 559.6 11.5
554(12) 0.00613 559.4 11.6
558(13) 0.00593 559.3 11.7
597(13) 0.00542 559.2 11.8
571(13) 0.00588 559.0 11.9
550(12) 0.00637 558.9 12.0
599(13) 0.00553 558.8 12.1
529(12) 0.00615 558.6 12.2
560(13) 0.00583 558.5 12.4
595(13) 0.00564 558.3 12.6
577(12) 0.00612 558.2 12.7
558(13) 0.00594 558.1 12.9
575(13) 0.00546 557.9 13.1
563(13) 0.00591 557.8 13.3
572(13) 0.00594 557.7 13.5
523(12) 0.00667 557.5 13.8
582(13) 0.00553 557.4 14.0
555(13) 0.00578 557.2 14.3
569(13) 0.00560 557.1 14.6
540(12) 0.00635 557.0 14.9
564(12) 0.00619 556.8 15.2
559(13) 0.00580 556.7 15.6
563(13) 0.00567 556.5 16.0
574(13) 0.00564 556.4 16.4
563(12) 0.00608 556.3 16.9
565(12) 0.00616 556.1 17.4
594(13) 0.00551 556.0 17.9
590(13) 0.00538 555.9 18.5
585(13) 0.00576 555.7 19.2
582(13) 0.00597 555.6 19.9
562(12) 0.00625 555.4 20.6
590(13) 0.00551 555.3 21.4
581(13) 0.00527 555.2 22.4
579(13) 0.00570 555.0 23.4
582(13) 0.00604 554.9 24.5
567(12) 0.00609 554.8 25.7
575(13) 0.00571 554.6 27.0
575(13) 0.00549 554.5 28.6
596(13) 0.00554 554.3 30.3
565(12) 0.00626 554.2 32.3
555(12) 0.00610 554.1 34.6
610(13) 0.00534 553.9 37.2
623(14) 0.00522 553.8 40.2
603(13) 0.00556 553.6 43.8
610(13) 0.00577 553.5 47.9
609(13) 0.00569 553.4 52.8
646(14) 0.00507 553.2 58.6
627(14) 0.00510 553.1 65.4
630(14) 0.00520 553.0 73.3
680(14) 0.00522 552.8 82.6
653(14) 0.00512 552.7 93.3
639(14) 0.00504 552.5 105.5
665(14) 0.00478 552.4 119.5
706(14) 0.00471 552.3 135.1
727(14) 0.00484 552.1 152.4
708(14) 0.00479 552.0 171.3
672(14) 0.00505 551.9 191.4
728(15) 0.00445 551.7 212.4
739(14) 0.00467 551.6 233.3
719(14) 0.00490 551.4 253.1
731(14) 0.00468 551.3 270.5
732(15) 0.00441 551.2 284.0
726(14) 0.00458 551.0 292.0
731(14) 0.00467 550.9 293.6
708(14) 0.00501 550.7 288.6
742(15) 0.00441 550.6 277.7
682(14) 0.00480 550.5 262.0
767(15) 0.00428 550.3 243.1
696(14) 0.00500 550.2 222.5
678(13) 0.00526 550.1 201.4
667(14) 0.00483 549.9 180.8
666(14) 0.00480 549.8 161.2
655(14) 0.00510 549.6 143.0
645(13) 0.00536 549.5 126.5
636(13) 0.00559 549.4 111.6
608(13) 0.00541 549.2 98.5
596(14) 0.00519 549.1 87.0
604(13) 0.00550 549.0 77.0
571(12) 0.00616 548.8 68.4
619(13) 0.00571 548.7 61.0
562(13) 0.00589 548.5 54.7
565(13) 0.00526 548.4 49.3
547(13) 0.00602 548.3 44.8
554(12) 0.00640 548.1 40.9
552(12) 0.00635 548.0 37.5
555(13) 0.00593 547.8 34.7
558(13) 0.00553 547.7 32.2
558(13) 0.00594 547.6 30.0
543(12) 0.00645 547.4 28.1
569(12) 0.00614 547.3 26.4
574(13) 0.00557 547.2 24.9
552(13) 0.00562 547.0 23.6
531(12) 0.00610 546.9 22.4
562(12) 0.00626 546.7 21.3
603(13) 0.00567 546.6 20.3
546(13) 0.00602 546.5 19.4
550(13) 0.00579 546.3 18.5
545(13) 0.00603 546.2 17.7
569(12) 0.00618 546.0 17.0
549(12) 0.00622 545.9 16.4
542(12) 0.00620 545.8 15.7
544(13) 0.00573 545.6 15.2
534(12) 0.00626 545.5 14.6
536(12) 0.00650 545.4 14.1
538(12) 0.00624 545.2 13.7
547(13) 0.00585 545.1 13.2
509(12) 0.00652 544.9 12.8
532(12) 0.00635 544.8 12.4
559(12) 0.00626 544.7 12.1
550(13) 0.00599 544.5 11.7
559(13) 0.00566 544.4 11.4
539(12) 0.00614 544.3 11.1
559(12) 0.00609 544.1 10.8
543(12) 0.00647 544.0 10.6
569(13) 0.00563 543.8 10.3
521(12) 0.00616 543.7 10.1
524(12) 0.00634 543.6 9.8
540(12) 0.00624 543.4 9.6
562(12) 0.00624 543.3 9.4
558(13) 0.00594 543.1 9.2
541(13) 0.00588 543.0 9.0
560(13) 0.00577 542.9 8.8
550(12) 0.00633 542.7 8.7
550(12) 0.00636 542.6 8.5
581(13) 0.00572 542.5 8.3
580(13) 0.00526 542.3 8.2
550(13) 0.00592 542.2 8.0
526(12) 0.00657 542.0 7.9
525(12) 0.00671 541.9 7.8
553(12) 0.00607 541.8 7.6
557(13) 0.00535 541.6 7.5
526(12) 0.00619 541.5 7.4
547(12) 0.00642 541.4 7.3
546(12) 0.00629 541.2 7.2
546(13) 0.00595 541.1 7.1
550(13) 0.00556 540.9 7.0
540(12) 0.00617 540.8 6.9
535(12) 0.00659 540.7 6.8
547(12) 0.00637 540.5 6.7
511(12) 0.00656 540.4 6.6
553(13) 0.00556 540.2 6.5
534(12) 0.00614 540.1 6.4
517(12) 0.00676 540.0 6.3
548(12) 0.00629 539.8 6.3
554(12) 0.00607 539.7 6.2
576(13) 0.00548 539.6 6.1
525(12) 0.00624 539.4 6.0
509(12) 0.00683 539.3 6.0
521(12) 0.00649 539.1 5.9
558(13) 0.00574 539.0 5.8
526(12) 0.00615 538.9 5.8
532(12) 0.00618 538.7 5.7
551(12) 0.00639 538.6 5.7
555(12) 0.00614 538.5 5.6
548(13) 0.00593 538.3 5.5
515(12) 0.00646 538.2 5.5
529(12) 0.00623 538.0 5.4
533(12) 0.00652 537.9 5.4
529(12) 0.00631 537.8 5.3
581(13) 0.00545 537.6 5.3
542(12) 0.00614 537.5 5.2
565(13) 0.00598 537.3 5.2
518(12) 0.00678 537.2 5.1
526(12) 0.00619 537.1 5.1
546(13) 0.00580 536.9 5.0
563(13) 0.00575 536.8 5.0
524(12) 0.00660 536.7 5.0
535(12) 0.00654 536.5 4.9
545(13) 0.00589 536.4 4.9
538(13) 0.00583 536.2 4.8
521(12) 0.00624 536.1 4.8
526(12) 0.00661 536.0 4.8
552(12) 0.00634 535.8 4.7
524(12) 0.00630 535.7 4.7
543(13) 0.00570 535.6 4.7
535(12) 0.00625 535.4 4.6
571(12) 0.00607 535.3 4.6
545(12) 0.00643 535.1 4.6
557(13) 0.00589 535.0 4.5
548(13) 0.00560 534.9 4.5
583(13) 0.00564 534.7 4.5
507(12) 0.00673 534.6 4.4
521(12) 0.00667 534.4 4.4
540(13) 0.00601 534.3 4.4
533(13) 0.00584 534.2 4.3
529(12) 0.00611 534.0 4.3
511(12) 0.00680 533.9 4.3
528(12) 0.00656 533.8 4.3
530(12) 0.00625 533.6 4.2
550(13) 0.00570 533.5 4.2
555(13) 0.00590 533.3 4.2
535(12) 0.00658 533.2 4.1
547(12) 0.00624 533.1 4.1
546(13) 0.00601 532.9 4.1
536(13) 0.00579 532.8 4.1
497(12) 0.00659 532.6 4.0
557(12) 0.00626 532.5 4.0
514(12) 0.00663 532.4 4.0
528(12) 0.00613 532.2 4.0
553(13) 0.00578 532.1 3.9
544(13) 0.00603 532.0 3.9
546(12) 0.00642 531.8 3.9
538(12) 0.00625 531.7 3.9
504(12) 0.00657 531.5 3.9
510(12) 0.00635 531.4 3.8
519(12) 0.00648 531.3 3.8
524(12) 0.00664 531.1 3.8
510(12) 0.00661 531.0 3.8
509(12) 0.00654 530.9 3.8
523(12) 0.00624 530.7 3.7
534(12) 0.00626 530.6 3.7
544(12) 0.00647 530.4 3.7
498(12) 0.00643 530.3 3.7
545(13) 0.00580 530.2 3.7
522(12) 0.00630 530.0 3.6
540(12) 0.00630 529.9 3.6
543(12) 0.00640 529.7 3.6
535(12) 0.00606 529.6 3.6
524(12) 0.00614 529.5 3.6
526(12) 0.00633 529.3 3.6
550(12) 0.00629 529.2 3.5
523(12) 0.00672 529.1 3.5
518(12) 0.00627 528.9 3.5
510(12) 0.00607 528.8 3.5
560(13) 0.00570 528.6 3.5
512(12) 0.00671 528.5 3.5
556(12) 0.00630 528.4 3.4
558(13) 0.00576 528.2 3.4
535(13) 0.00559 528.1 3.4
510(12) 0.00645 528.0 3.4
520(12) 0.00663 527.8 3.4
542(12) 0.00654 527.7 3.4
547(12) 0.00614 527.5 3.4
522(13) 0.00598 527.4 3.3
565(13) 0.00582 527.3 3.3
517(12) 0.00677 527.1 3.3
521(12) 0.00652 527.0 3.3
486(12) 0.00646 526.8 3.3
504(12) 0.00612 526.7 3.3
512(12) 0.00630 526.6 3.3
530(12) 0.00658 526.4 3.2
519(12) 0.00665 526.3 3.2
518(12) 0.00632 526.2 3.2
541(13) 0.00571 526.0 3.2
528(12) 0.00629 525.9 3.2
538(12) 0.00653 525.7 3.2
542(12) 0.00628 525.6 3.2
550(13) 0.00591 525.5 3.2
552(13) 0.00579 525.3 3.1
541(13) 0.00601 525.2 3.1
538(12) 0.00650 525.1 3.1
552(12) 0.00615 524.9 3.1
516(12) 0.00635 524.8 3.1
552(13) 0.00574 524.6 3.1
494(12) 0.00674 524.5 3.1
516(12) 0.00677 524.4 3.1
528(12) 0.00632 524.2 3.0
554(13) 0.00576 524.1 3.0
527(12) 0.00613 523.9 3.0
528(12) 0.00632 523.8 3.0
539(12) 0.00646 523.7 3.0
527(12) 0.00614 523.5 3.0
502(12) 0.00629 523.4 3.0
512(12) 0.00641 523.3 3.0
547(12) 0.00610 523.1 3.0
557(12) 0.00632 523.0 2.9
518(12) 0.00617 522.8 2.9
533(13) 0.00585 522.7 2.9
519(12) 0.00629 522.6 2.9
512(12) 0.00674 522.4 2.9
556(12) 0.00630 522.3 2.9
529(12) 0.00619 522.1 2.9
517(13) 0.00604 522.0 2.9
522(12) 0.00645 521.9 3.2
529(12) 0.00648 521.7 3.2
528(12) 0.00659 521.6 3.2
531(12) 0.00627 521.5 3.1
532(13) 0.00594 521.3 3.1
535(12) 0.00626 521.2 3.1
544(12) 0.00642 521.0 3.1
529(12) 0.00655 520.9 3.1
547(13) 0.00603 520.8 3.1
572(14) 0.00513 520.6 3.1
531(12) 0.00609 520.5 3.1
524(12) 0.00656 520.4 3.1
543(12) 0.00642 520.2 3.1
540(13) 0.00599 520.1 3.1
509(13) 0.00589 519.9 3.1
515(12) 0.00650 519.8 3.1
575(13) 0.00604 519.7 3.0
542(12) 0.00642 519.5 3.0
530(12) 0.00628 519.4 3.0
553(13) 0.00571 519.2 3.0
548(13) 0.00604 519.1 3.0
522(12) 0.00663 519.0 3.0
534(12) 0.00650 518.8 3.0
523(12) 0.00627 518.7 3.0
548(13) 0.00571 518.6 3.0
540(12) 0.00626 518.4 3.0
560(12) 0.00624 518.3 3.0
506(12) 0.00672 518.1 3.0
544(13) 0.00585 518.0 3.0
528(12) 0.00613 517.9 3.0
561(13) 0.00593 517.7 3.0
571(12) 0.00611 517.6 3.0
504(12) 0.00660 517.5 3.0
527(13) 0.00604 517.4 2.9
536(13) 0.00597 517.4 2.9
543(12) 0.00606 517.4 2.9
576(12) 0.00608 517.4 2.9
557(13) 0.00595 517.4 2.9
566(13) 0.00572 517.4 2.9
539(12) 0.00611 517.4 2.9
525(12) 0.00661 517.4 2.9
581(12) 0.00607 517.4 2.9
562(13) 0.00576 517.4 2.9
523(12) 0.00609 517.4 2.9
548(13) 0.00593 517.4 2.9
521(12) 0.00660 517.4 2.9
532(12) 0.00655 517.4 2.9
538(12) 0.00612 517.4 2.9
551(13) 0.00581 517.4 2.9
571(13) 0.00570 517.4 2.9
553(12) 0.00630 517.4 2.9
549(12) 0.00640 517.4 2.9
513(12) 0.00642 517.4 2.9
521(13) 0.00589 517.4 2.9
489(12) 0.00683 517.4 2.9
521(12) 0.00672 517.4 2.8
521(12) 0.00664 517.4 2.8
524(12) 0.00620 517.4 2.8
531(13) 0.00578 517.4 2.8
502(12) 0.00672 517.4 2.8
527(12) 0.00659 517.4 2.8
526(12) 0.00654 517.4 2.8
550(12) 0.00611 517.4 2.8
527(13) 0.00594 517.4 2.8
518(12) 0.00628 517.4 2.8
534(12) 0.00654 517.4 2.8
519(12) 0.00657 517.4 2.8
519(12) 0.00615 517.4 2.8
502(12) 0.00627 517.4 2.8
527(12) 0.00628 517.4 2.8
528(12) 0.00658 517.4 2.8
501(12) 0.00682 517.4 2.8
529(12) 0.00610 517.4 2.8
517(13) 0.00595 517.4 2.8
504(12) 0.00636 517.4 2.8
541(12) 0.00646 517.4 2.8
528(12) 0.00639 517.4 2.8
516(12) 0.00616 517.4 2.8
529(12) 0.00608 517.4 2.8
509(12) 0.00653 517.4 2.8
502(12) 0.00699 517.4 2.8
497(12) 0.00676 517.4 2.8
534(13) 0.00593 517.4 2.8
533(13) 0.00602 517.4 2.8
536(12) 0.00607 517.4 2.8
530(12) 0.00659 517.4 2.8
544(12) 0.00606 517.4 2.8
533(12) 0.00624 517.4 2.8
552(13) 0.00601 517.4 2.8
547(12) 0.00626 517.4 2.8
547(12) 0.00639 517.4 2.8
573(13) 0.00575 517.4 2.8
548(13) 0.00591 517.4 2.8
527(12) 0.00627 517.4 2.8
550(12) 0.00620 517.4 2.8
530(12) 0.00665 517.4 2.8
538(13) 0.00590 517.4 2.8
497(12) 0.00635 517.4 2.8
520(12) 0.00637 517.4 2.8
563(12) 0.00606 517.4 2.8
539(12) 0.00649 517.4 2.8
545(13) 0.00592 517.4 2.8
529(13) 0.00596 517.4 2.8
522(12) 0.00639 517.4 2.8
512(12) 0.00675 517.4 2.8
530(12) 0.00660 517.4 2.8
548(13) 0.00604 517.4 2.8
535(13) 0.00585 517.4 2.8
543(12) 0.00610 517.4 2.8
505(12) 0.00689 517.4 2.8
542(12) 0.00645 517.4 2.8
523(12) 0.00630 517.4 2.8
497(12) 0.00636 517.4 2.8
541(12) 0.00610 517.4 2.8
498(12) 0.00688 517.4 2.8
521(12) 0.00661 517.4 2.8
507(12) 0.00656 517.4 2.8
522(13) 0.00592 517.4 2.8
535(12) 0.00622 517.4 2.8
522(12) 0.00677 517.4 2.8
525(12) 0.00648 517.4 2.8
534(12) 0.00626 517.4 2.8
545(13) 0.00584 517.4 2.8
554(13) 0.00586 517.4 2.8
534(12) 0.00656 517.4 2.8
510(12) 0.00663 517.4 2.8
566(13) 0.00561 517.4 2.8
520(12) 0.00630 517.4 2.8
557(13) 0.00583 517.4 2.8
555(12) 0.00628 517.4 2.8
552(13) 0.00605 517.4 2.8
521(12) 0.00614 517.4 2.8
511(12) 0.00631 517.4 2.8
513(12) 0.00651 517.4 2.8
519(12) 0.00672 517.4 2.8
518(12) 0.00649 517.4 2.8
524(12) 0.00614 517.4 2.8
510(12) 0.00645 517.4 2.8
523(12) 0.00639 517.4 2.8
520(12) 0.00667 517.4 2.8
507(12) 0.00652 517.4 2.9
517(13) 0.00601 517.4 2.9
549(13) 0.00579 517.4 2.9
523(12) 0.00649 517.4 2.9
519(12) 0.00670 517.4 2.9
540(13) 0.00599 517.4 2.9
503(12) 0.00650 517.4 2.9
505(12) 0.00653 517.4 2.9
509(12) 0.00681 517.4 2.9
536(12) 0.00659 517.4 2.9
527(12) 0.00621 517.4 2.9
514(12) 0.00618 517.4 2.9
541(12) 0.00612 517.4 2.9
533(12) 0.00655 517.4 2.9
544(12) 0.00632 517.4 3.0
529(12) 0.00610 517.4 3.0
506(12) 0.00609 517.4 3.0
532(12) 0.00621 517.4 3.0
514(12) 0.00676 517.4 3.0
541(12) 0.00638 517.4 3.0
528(12) 0.00624 517.4 1.7
516(13) 0.00585 517.4 1.7
528(12) 0.00607 517.4 1.7
534(12) 0.00652 517.4 1.7
543(12) 0.00644 517.4 1.8
518(12) 0.00658 517.4 1.8
508(12) 0.00618 517.4 1.8
521(12) 0.00639 517.4 1.8
531(12) 0.00654 517.4 1.8
560(12) 0.00623 517.4 1.8
511(12) 0.00645 517.4 1.9
483(12) 0.00659 517.4 1.9
519(12) 0.00647 517.4 1.9
559(12) 0.00628 517.4 1.9
531(12) 0.00640 517.4 1.9
522(12) 0.00621 517.4 1.9
523(12) 0.00614 517.4 2.0
557(13) 0.00572 517.4 2.0
523(12) 0.00671 517.4 2.0
550(12) 0.00619 517.4 2.0
514(12) 0.00636 517.4 2.1
523(12) 0.00617 517.4 2.1
518(12) 0.00650 517.4 2.1
517(12) 0.00670 517.4 2.1
506(12) 0.00666 517.4 2.2
516(12) 0.00625 517.4 2.2
519(12) 0.00623 517.4 2.2
527(12) 0.00632 517.4 2.3
527(12) 0.00668 517.4 2.3
510(12) 0.00655 517.4 2.3
532(12) 0.00609 517.4 2.3
554(13) 0.00588 517.4 2.4
528(12) 0.00643 517.4 2.4
532(12) 0.00657 517.4 2.5
512(12) 0.00636 517.4 2.5
505(12) 0.00632 517.4 2.5
535(13) 0.00601 517.4 2.6
510(12) 0.00684 517.4 2.6
520(12) 0.00675 517.4 2.7
516(12) 0.00639 517.4 2.7
501(12) 0.00634 517.4 2.8
525(12) 0.00618 517.4 2.8
505(12) 0.00678 517.4 2.9
509(12) 0.00687 517.4 2.9
542(13) 0.00597 517.4 3.0
555(13) 0.00563 517.4 3.0
545(13) 0.00605 517.4 3.1
534(12) 0.00655 517.4 3.2
540(12) 0.00647 517.4 3.2
537(12) 0.00608 517.4 3.3
518(13) 0.00581 517.4 3.4
538(13) 0.00603 517.4 3.5
533(12) 0.00655 517.4 3.6
517(12) 0.00678 517.4 3.6
503(12) 0.00649 517.4 3.7
518(13) 0.00592 517.4 3.8
536(12) 0.00619 517.4 3.9
538(12) 0.00654 517.4 4.1
546(12) 0.00638 517.4 4.2
519(12) 0.00645 517.4 4.3
522(13) 0.00593 517.4 4.4
491(12) 0.00668 517.4 4.6
545(12) 0.00637 517.4 4.7
553(12) 0.00613 517.4 4.9
551(13) 0.00604 517.4 5.1
529(12) 0.00610 517.4 5.3
537(12) 0.00607 517.4 5.5
482(11) 0.00715 517.4 5.7
513(12) 0.00678 517.4 5.9
539(12) 0.00607 517.4 6.2
550(13) 0.00579 517.4 6.5
552(13) 0.00591 517.4 6.8
527(12) 0.00665 517.4 7.1
513(12) 0.00652 517.4 7.5
512(12) 0.00645 517.4 7.9
551(13) 0.00585 517.4 8.3
556(13) 0.00590 517.4 8.7
541(12) 0.00649 517.4 9.3
525(12) 0.00639 517.4 9.8
549(13) 0.00602 517.4 10.4
561(13) 0.00591 517.4 11.1
587(13) 0.00579 517.4 11.8
511(12) 0.00685 517.4 12.6
563(13) 0.00571 517.4 13.4
520(12) 0.00624 517.4 14.3
519(12) 0.00662 517.4 15.3
542(12) 0.00630 517.4 16.4
530(12) 0.00657 517.4 17.5
512(12) 0.00657 517.4 18.7
546(13) 0.00576 517.4 20.0
558(13) 0.00575 517.4 21.4
511(12) 0.00680 517.4 22.8
554(12) 0.00636 517.4 24.2
526(12) 0.00615 517.4 25.7
500(12) 0.00622 517.4 27.1
511(12) 0.00645 517.4 28.5
519(12) 0.00665 517.4 29.8
539(12) 0.00651 517.4 30.9
541(12) 0.00614 517.4 31.9
583(14) 0.00518 517.4 32.6
568(13) 0.00570 517.4 33.1
521(12) 0.00677 517.4 33.3
517(12) 0.00671 517.4 33.1
545(13) 0.00579 517.4 32.6
509(13) 0.00605 517.4 31.9
536(12) 0.00607 517.4 31.0
529(12) 0.00660 517.4 29.8
522(12) 0.00666 517.4 28.5
529(12) 0.00616 517.4 27.2
535(13) 0.00590 517.4 25.7
578(13) 0.00574 517.4 24.3
542(12) 0.00646 517.4 22.9
498(12) 0.00690 517.4 21.5
528(12) 0.00618 517.4 20.2
500(12) 0.00622 517.4 18.9
475(12) 0.00659 517.4 17.7
527(12) 0.00666 517.4 16.6
534(12) 0.00647 517.4 15.6
564(13) 0.00592 517.5 14.6
567(13) 0.00562 517.6 13.7
522(12) 0.00625 517.8 12.9
545(12) 0.00642 518.0 12.1
524(12) 0.00643 518.2 11.4
517(12) 0.00625 518.3 10.8
534(13) 0.00595 518.5 10.2
528(12) 0.00620 518.7 9.7
504(12) 0.00693 518.9 9.2
538(13) 0.00602 519.0 8.8
522(12) 0.00622 519.2 8.4
503(12) 0.00644 519.4 8.0
496(12) 0.00672 519.6 7.6
542(12) 0.00643 519.7 7.3
521(12) 0.00632 519.9 7.1
525(13) 0.00593 520.1 6.8
556(13) 0.00570 520.3 6.6
528(12) 0.00643 520.4 6.3
524(12) 0.00666 520.6 6.1
489(12) 0.00674 520.8 6.0
527(13) 0.00584 521.0 5.8
543(13) 0.00597 521.1 5.6
570(13) 0.00597 521.3 5.5
525(12) 0.00672 521.5 5.4
531(12) 0.00624 521.6 5.2
521(12) 0.00605 521.8 5.1
515(12) 0.00622 522.0 5.0
521(12) 0.00674 522.2 4.9
530(12) 0.00657 522.3 4.8
531(12) 0.00610 522.5 4.7
509(13) 0.00597 522.7 4.7
520(12) 0.00631 522.9 4.6
527(12) 0.00663 523.0 4.5
537(12) 0.00646 523.2 4.4
512(12) 0.00652 523.4 4.4
524(13) 0.00566 523.6 4.3
505(12) 0.00652 523.7 4.3
522(12) 0.00671 523.9 4.2
527(12) 0.00661 524.1 4.2
535(12) 0.00628 524.3 4.1
536(13) 0.00578 524.4 4.1
518(12) 0.00631 524.6 4.1
512(12) 0.00677 524.8 4.0
527(12) 0.00658 525.0 4.0
548(12) 0.00608 525.1 4.0
540(13) 0.00590 525.3 3.9
514(12) 0.00625 525.5 3.9
545(12) 0.00643 525.7 3.9
539(12) 0.00629 525.8 3.9
516(12) 0.00647 526.0 3.9
531(12) 0.00612 526.2 3.8
551(13) 0.00587 526.4 3.8
557(12) 0.00632 526.5 3.8
511(12) 0.00665 526.7 3.8
524(12) 0.00619 526.9 3.8
522(12) 0.00640 527.1 3.8
564(13) 0.00575 527.2 3.8
567(12) 0.00616 527.4 3.8
526(12) 0.00652 527.6 3.8
559(13) 0.00578 527.8 3.8
533(12) 0.00607 527.9 3.8
501(12) 0.00670 528.1 3.8
503(12) 0.00695 528.3 3.8
539(13) 0.00604 528.5 3.8
523(12) 0.00624 528.6 3.8
549(13) 0.00605 528.8 3.8
549(12) 0.00621 529.0 3.8
555(12) 0.00636 529.2 3.8
546(13) 0.00596 529.3 3.8
534(13) 0.00604 529.5 3.8
547(12) 0.00612 529.7 3.8
548(12) 0.00631 529.9 3.8
537(12) 0.00652 530.0 3.8
535(13) 0.00600 530.2 3.8
550(13) 0.00555 530.4 3.8
535(13) 0.00602 530.6 3.8
503(12) 0.00695 530.7 3.9
517(12) 0.00668 530.9 3.9
498(12) 0.00664 531.1 3.9
524(13) 0.00585 531.3 3.9
525(12) 0.00609 531.4 3.9
514(12) 0.00669 531.6 3.9
572(12) 0.00619 531.8 3.9
527(12) 0.00628 531.9 4.0
508(13) 0.00602 532.1 4.0
545(13) 0.00589 532.3 4.0
497(12) 0.00698 532.5 4.0
507(12) 0.00687 532.6 4.0
514(12) 0.00643 532.8 4.1
510(12) 0.00608 533.0 4.1
539(12) 0.00605 533.2 4.1
526(12) 0.00668 533.3 4.1
538(12) 0.00639 533.5 4.2
538(12) 0.00612 533.7 4.2
553(13) 0.00568 533.9 4.2
548(13) 0.00603 534.0 4.2
522(12) 0.00667 534.2 4.3
513(12) 0.00670 534.4 4.3
551(13) 0.00585 534.6 4.3
520(12) 0.00612 534.7 4.3
564(13) 0.00590 534.9 4.4
541(12) 0.00646 535.1 4.4
536(12) 0.00631 535.3 4.4
552(13) 0.00588 535.4 4.5
558(13) 0.00578 535.6 4.5
567(13) 0.00593 535.8 4.5
545(12) 0.00647 536.0 4.6
546(12) 0.00615 536.1 4.6
548(13) 0.00596 536.3 4.7
531(12) 0.00614 536.5 4.7
565(13) 0.00598 536.7 4.7
545(12) 0.00643 536.8 4.8
546(12) 0.00608 537.0 4.8
528(13) 0.00590 537.2 4.9
569(13) 0.00553 537.4 4.9
506(12) 0.00669 537.5 4.9
518(12) 0.00668 537.7 5.0
557(13) 0.00576 537.9 5.0
548(13) 0.00583 538.1 5.1
551(12) 0.00607 538.2 5.1
557(12) 0.00626 538.4 5.2
534(12) 0.00652 538.6 5.2
542(13) 0.00593 538.8 5.3
524(13) 0.00595 538.9 5.3
527(12) 0.00622 539.1 5.4
524(12) 0.00651 539.3 5.4
509(12) 0.00678 539.5 5.5
538(13) 0.00595 539.6 5.5
567(13) 0.00535 539.8 5.6
562(13) 0.00581 540.0 5.7
568(12) 0.00608 540.2 5.7
546(12) 0.00644 540.3 5.8
546(12) 0.00611 540.5 5.9
530(13) 0.00575 540.7 5.9
516(12) 0.00639 540.9 6.0
554(12) 0.00626 541.0 6.1
543(12) 0.00638 541.2 6.1
521(12) 0.00630 541.4 6.2
550(13) 0.00540 541.6 6.3
535(12) 0.00606 541.7 6.3
542(12) 0.00652 541.9 6.4
540(12) 0.00640 542.1 6.5
561(13) 0.00548 542.3 6.6
528(13) 0.00575 542.4 6.7
545(12) 0.00607 542.6 6.7
573(12) 0.00611 542.8 6.8
513(12) 0.00671 542.9 6.9
531(12) 0.00612 543.1 7.0
540(13) 0.00583 543.3 7.1
533(12) 0.00624 543.5 7.2
566(12) 0.00620 543.6 7.3
523(12) 0.00646 543.8 7.4
534(12) 0.00611 544.0 7.5
509(12) 0.00652 544.2 7.6
544(12) 0.00623 544.3 7.7
546(12) 0.00645 544.5 7.8
554(13) 0.00600 544.7 7.9
560(13) 0.00577 544.9 8.0
551(13) 0.00592 545.0 8.2
552(12) 0.00619 545.2 8.3
523(12) 0.00666 545.4 8.4
536(12) 0.00628 545.6 8.5
564(13) 0.00562 545.7 8.7
518(12) 0.00624 545.9 8.8
569(13) 0.00593 546.1 8.9
567(12) 0.00618 546.3 9.1
528(12) 0.00631 546.4 9.2
551(13) 0.00573 546.6 9.4
540(13) 0.00585 546.8 9.5
541(12) 0.00636 547.0 9.7
544(12) 0.00640 547.1 9.9
558(13) 0.00576 547.3 10.0
522(13) 0.00605 547.5 10.2
587(13) 0.00552 547.7 10.4
562(13) 0.00602 547.8 10.6
534(12) 0.00658 548.0 10.8
570(13) 0.00577 548.2 11.0
533(13) 0.00588 548.4 11.2
536(12) 0.00627 548.5 11.4
547(12) 0.00642 548.7 11.6
573(12) 0.00613 548.9 11.8
565(13) 0.00569 549.1 12.0
559(13) 0.00528 549.2 12.3
582(13) 0.00568 549.4 12.5
541(12) 0.00645 549.6 12.8
528(12) 0.00663 549.8 13.0
541(12) 0.00608 549.9 13.3
550(13) 0.00557 550.1 13.6
548(12) 0.00607 550.3 13.9
559(12) 0.00625 550.5 14.2
548(12) 0.00633 550.6 14.5
554(13) 0.00598 550.8 14.8
576(13) 0.00544 551.0 15.1
563(13) 0.00576 551.2 15.5
551(12) 0.00639 551.3 15.8
559(12) 0.00624 551.5 16.2
565(13) 0.00575 551.7 16.6
588(13) 0.00529 551.9 17.0
557(13) 0.00596 552.0 17.4
555(12) 0.00638 552.2 17.8
555(13) 0.00603 552.4 18.3
536(12) 0.00624 552.6 18.8
564(13) 0.00572 552.7 19.3
580(13) 0.00564 552.9 19.8
565(12) 0.00616 553.1 20.3
541(12) 0.00608 553.2 20.9
588(13) 0.00554 553.4 21.4
564(13) 0.00573 553.6 22.0
532(12) 0.00635 553.8 22.7
555(12) 0.00634 553.9 23.3
545(12) 0.00621 554.1 24.0
545(12) 0.00611 554.3 24.8
575(13) 0.00558 554.5 25.5
571(13) 0.00587 554.6 26.3
567(12) 0.00618 554.8 27.2
586(13) 0.00560 555.0 28.0
564(13) 0.00571 555.2 29.0
595(13) 0.00548 555.3 30.0
566(13) 0.00605 555.5 31.0
542(12) 0.00642 555.7 32.1
576(13) 0.00577 555.9 33.2
630(14) 0.00490 556.0 34.4
562(13) 0.00581 556.2 35.7
585(13) 0.00584 556.4 37.1
586(13) 0.00603 556.6 38.5
579(13) 0.00569 556.7 40.0
591(13) 0.00527 556.9 41.7
589(13) 0.00553 557.1 43.4
582(13) 0.00603 557.3 45.2
556(12) 0.00628 557.4 47.2
583(13) 0.00573 557.6 49.3
584(14) 0.00517 557.8 51.5
576(13) 0.00561 558.0 53.9
579(12) 0.00609 558.1 56.5
627(13) 0.00561 558.3 59.3
609(13) 0.00559 558.5 62.3
623(14) 0.00500 558.7 65.5
631(14) 0.00521 558.8 69.0
638(13) 0.00549 559.0 72.7
630(13) 0.00561 559.2 76.8
625(14) 0.00521 559.4 81.2
625(14) 0.00500 559.5 86.1
642(14) 0.00517 559.7 91.4
595(13) 0.00593 559.9 97.2
613(13) 0.00570 560.1 103.5
608(13) 0.00556 560.2 110.5
645(14) 0.00500 560.4 118.3
648(14) 0.00514 560.6 126.8
692(14) 0.00510 560.8 136.4
710(14) 0.00484 560.9 147.1
680(14) 0.00482 561.1 159.1
679(14) 0.00466 561.3 172.7
729(14) 0.00458 561.5 188.4
761(14) 0.00466 561.6 206.5
786(15) 0.00436 561.8 227.9
840(16) 0.00388 562.0 253.5
861(16) 0.00373 562.2 284.8
878(16) 0.00391 562.3 323.7
919(16) 0.00389 562.5 372.9
1022(17) 0.003377 562.7 435.6
1104(18) 0.003017 562.9 516.1
1175(19) 0.002846 563.0 619.0
1267(19) 0.002752 563.2 749.6
1565(20) 0.002334 563.4 912.8
1729(22) 0.001994 563.6 1113.2
1937(24) 0.001716 563.7 1354.0
2208(25) 0.001526 563.9 1635.4
2476(26) 0.001420 564.1 1954.8
2700(27) 0.001354 564.2 2303.8
3079(30) 0.001102 564.4 2667.2
3445(32) 0.000969 564.6 3020.1
3817(33) 0.000898 564.8 3326.3
4229(34) 0.000843 564.9 3543.4
4434(35) 0.000827 565.1 3632.9
4369(36) 0.000777 565. 3577.
4053(35) 0.000801 565. 3386.
3647(32) 0.000942 565.6 3096.7
3229(30) 0.001120 565.8 2751.2
2774(27) 0.001317 566.0 2387.8
2492(27) 0.001353 566.2 2033.7
2146(26) 0.001494 566.3 1706.4
1939(23) 0.001789 566.5 1415.8
1799(22) 0.002005 566.7 1165.6
1593(21) 0.002268 566.9 956.0
1399(20) 0.002438 567.0 784.5
1302(20) 0.002438 567.2 646.8
1221(19) 0.002773 567.4 538.0
1139(18) 0.003157 567.6 452.8
1026(17) 0.003489 567.7 386.4
970(17) 0.003422 567.9 334.4
909(17) 0.003483 568.1 293.3
900(16) 0.00380 568.3 260.5
849(15) 0.00421 568.4 233.7
793(15) 0.00445 568.6 211.5
806(15) 0.00411 568.8 192.7
773(15) 0.00419 569.0 176.6
738(15) 0.00456 569.1 162.5
727(14) 0.00489 569.3 150.2
681(14) 0.00503 569.5 139.2
663(14) 0.00504 569.7 129.4
693(15) 0.00456 569.8 120.6
705(14) 0.00465 570.0 112.7
643(13) 0.00549 570.2 105.6
638(13) 0.00537 570.4 99.1
673(14) 0.00492 570.5 93.2
670(14) 0.00483 570.7 87.8
645(14) 0.00503 570.9 82.9
623(13) 0.00563 571.1 78.4
655(14) 0.00521 571.2 74.3
662(14) 0.00485 571.4 70.5
615(13) 0.00539 571.6 66.9
632(13) 0.00536 571.8 63.7
631(13) 0.00558 571.9 60.7
658(14) 0.00500 572.1 57.9
602(13) 0.00535 572.3 55.3
592(13) 0.00550 572.5 52.8
615(13) 0.00552 572.6 50.6
583(13) 0.00604 572.8 48.5
586(13) 0.00576 573.0 46.5
610(13) 0.00531 573.2 44.7
580(13) 0.00577 573.3 42.9
607(13) 0.00567 573.5 41.3
619(13) 0.00570 573.7 39.8
610(13) 0.00538 573.9 38.3
572(13) 0.00555 574.0 37.0
617(13) 0.00533 574.2 35.7
600(13) 0.00583 574.4 34.5
585(13) 0.00599 574.5 33.3
622(13) 0.00525 574.7 32.3
580(13) 0.00547 574.9 31.2
571(13) 0.00581 575.1 30.3
580(13) 0.00604 575.2 29.3
578(12) 0.00608 575.4 28.5
604(13) 0.00540 575.6 27.6
580(14) 0.00510 575.8 26.8
601(13) 0.00544 575.9 26.1
583(12) 0.00605 576.1 25.4
594(13) 0.00587 576.3 24.7
591(13) 0.00563 576.5 24.0
588(13) 0.00541 576.6 23.4
581(13) 0.00585 576.8 22.8
607(13) 0.00583 577.0 22.3
618(13) 0.00560 577.2 21.7
571(13) 0.00586 577.3 21.2
587(13) 0.00535 577.5 20.7
583(13) 0.00558 577.7 20.2
563(12) 0.00626 577.9 19.8
596(13) 0.00571 578.0 19.4
629(14) 0.00522 578.2 18.9
609(13) 0.00531 578.4 18.5
593(13) 0.00557 578.6 18.2
586(13) 0.00600 578.7 17.8
616(13) 0.00553 578.9 17.4
595(13) 0.00556 579.1 17.1
587(13) 0.00532 579.3 16.8
576(13) 0.00576 579.4 16.5
575(12) 0.00612 579.6 16.2
574(13) 0.00596 579.8 15.9
563(13) 0.00588 580.0 15.6
586(13) 0.00534 580.1 15.3
581(13) 0.00577 580.3 15.1
597(13) 0.00586 580.5 14.8
576(13) 0.00589 580.7 14.6
579(13) 0.00569 580.8 14.3
580(13) 0.00566 581.0 14.1
597(13) 0.00565 581.2 13.9
566(12) 0.00611 581.4 13.7
590(13) 0.00553 581.5 13.5
591(13) 0.00531 581.7 13.3
622(14) 0.00517 581.9 13.1
616(13) 0.00544 582.1 12.9
564(12) 0.00627 582.2 12.8
593(13) 0.00565 582.4 12.6
621(14) 0.00513 582.6 12.4
600(13) 0.00544 582.8 12.3
597(13) 0.00582 582.9 12.1
592(13) 0.00595 583.1 12.0
563(13) 0.00577 583.3 11.8
575(13) 0.00541 583.5 11.7
554(13) 0.00601 583.6 11.6
605(13) 0.00573 583.8 11.4
582(12) 0.00607 584.0 11.3
586(13) 0.00550 584.2 11.2
570(13) 0.00539 584.3 11.1
583(13) 0.00573 584.5 11.0
600(13) 0.00574 584.7 10.9
595(13) 0.00590 584.8 10.8
603(13) 0.00544 585.0 10.7
588(14) 0.00521 585.2 10.6
617(13) 0.00540 585.4 10.5
600(13) 0.00588 585.5 10.4
601(13) 0.00575 585.7 10.3
596(13) 0.00555 585.9 10.2
587(14) 0.00516 586.1 10.2
560(13) 0.00596 586.2 10.1
618(13) 0.00571 586.4 10.0
605(13) 0.00581 586.6 9.9
616(13) 0.00547 586.8 9.9
633(14) 0.00494 586.9 9.8
592(13) 0.00548 587.1 9.7
610(13) 0.00575 587.3 9.7
597(13) 0.00580 587.5 9.6
597(13) 0.00542 587.6 9.6
597(13) 0.00543 587.8 9.5
607(13) 0.00528 588.0 9.5
606(13) 0.00580 588.2 9.4
580(13) 0.00582 588.3 9.4
586(13) 0.00568 588.5 9.3
606(13) 0.00540 588.7 9.3
627(13) 0.00534 588.9 9.3
604(13) 0.00581 589.0 9.2
573(13) 0.00567 589.2 9.2
613(13) 0.00530 589.4 9.1
603(13) 0.00541 589.6 9.1
596(13) 0.00572 589.7 9.1
595(13) 0.00587 589.9 9.0
596(13) 0.00544 590.1 9.0
606(14) 0.00519 590.3 9.0
583(13) 0.00556 590.4 9.0
594(13) 0.00579 590.6 9.0
615(13) 0.00570 590.8 8.9
597(13) 0.00551 591.0 8.9
562(13) 0.00574 591.1 8.9
588(13) 0.00559 591.3 8.9
610(13) 0.00570 591.5 8.9
598(13) 0.00582 591.7 8.9
579(13) 0.00569 591.8 8.8
585(13) 0.00534 592.0 8.8
613(13) 0.00536 592.2 8.8
603(13) 0.00572 592.4 8.8
590(13) 0.00597 592.5 8.8
563(13) 0.00590 592.7 8.8
583(13) 0.00530 592.9 8.8
577(13) 0.00570 593.1 8.8
632(13) 0.00547 593.2 8.8
600(13) 0.00581 593.4 8.8
600(13) 0.00544 593.6 8.8
564(13) 0.00553 593.8 8.8
590(13) 0.00566 593.9 8.8
611(13) 0.00566 594.1 8.8
605(13) 0.00573 594.3 8.8
575(13) 0.00581 594.5 8.8
590(13) 0.00530 594.6 8.9
604(13) 0.00548 594.8 8.9
600(13) 0.00584 595.0 8.9
603(13) 0.00582 595.2 8.9
610(13) 0.00547 595.3 8.9
608(14) 0.00516 595.5 8.9
592(13) 0.00548 595.7 9.0
589(13) 0.00601 595.8 9.0
613(13) 0.00563 596.0 9.0
627(14) 0.00516 596.2 9.0
607(13) 0.00527 596.4 9.0
589(13) 0.00550 596.7 9.1
624(13) 0.00563 597.1 9.1
618(13) 0.00559 597.6 9.1
619(14) 0.00521 598.0 9.2
611(13) 0.00528 598.5 9.2
623(13) 0.00528 598.9 9.2
595(13) 0.00589 599.4 9.3
602(13) 0.00560 599.8 9.3
590(13) 0.00545 600.3 9.3
634(14) 0.00490 600.7 9.4
585(13) 0.00571 601.1 9.4
618(13) 0.00573 601.6 9.5
617(13) 0.00547 602.0 9.5
571(13) 0.00555 602.5 9.6
598(13) 0.00540 602.9 9.6
618(13) 0.00557 603.4 9.6
616(13) 0.00568 603.8 9.7
619(14) 0.00516 604.3 9.7
611(14) 0.00511 604.7 9.8
602(13) 0.00544 605.2 9.9
602(13) 0.00567 605.6 9.9
616(13) 0.00574 606.1 10.0
594(13) 0.00567 606.5 10.0
646(14) 0.00492 606.9 10.1
619(13) 0.00547 607.4 10.1
613(13) 0.00572 607.8 10.2
636(13) 0.00553 608.3 10.3
633(13) 0.00525 608.7 10.3
627(14) 0.00500 609.2 10.4
627(13) 0.00523 609.6 10.5
582(13) 0.00600 610.1 10.5
623(13) 0.00563 610.5 10.6
623(13) 0.00540 611.0 10.7
594(14) 0.00511 611.4 10.8
632(14) 0.00514 611.9 10.8
610(13) 0.00570 612.3 10.9
616(13) 0.00568 612.8 11.0
614(13) 0.00536 613.2 11.1
600(14) 0.00522 613.6 11.2
592(13) 0.00557 614.1 11.3
593(13) 0.00596 614.5 11.4
629(13) 0.00544 615.0 11.4
616(13) 0.00545 615.4 11.5
620(14) 0.00512 615.9 11.6
659(14) 0.00492 616.3 11.7
590(13) 0.00595 616.8 11.8
627(13) 0.00558 617.2 11.9
621(13) 0.00533 617.7 12.0
628(14) 0.00503 618.1 12.2
638(13) 0.00524 618.6 12.3
617(13) 0.00572 619.0 12.4
623(13) 0.00551 619.4 12.5
633(13) 0.00526 619.9 12.6
627(14) 0.00520 620.3 12.7
614(13) 0.00545 620.8 12.9
616(13) 0.00570 621.2 13.0
631(13) 0.00530 621.7 13.1
607(13) 0.00535 622.1 13.3
649(14) 0.00501 622.6 13.4
641(13) 0.00529 623.0 13.5
650(13) 0.00545 623.5 13.7
593(13) 0.00562 623.9 13.8
619(13) 0.00527 624.4 14.0
626(13) 0.00526 624.8 14.1
622(13) 0.00552 625.3 14.3
669(13) 0.00531 625.7 14.4
665(14) 0.00494 626.1 14.6
653(14) 0.00495 626.6 14.8
649(14) 0.00497 627.0 14.9
625(13) 0.00547 627.5 15.1
668(13) 0.00530 627.9 15.3
628(13) 0.00533 628.4 15.5
620(14) 0.00521 628.8 15.7
657(14) 0.00494 629.3 15.9
599(13) 0.00580 629.7 16.1
630(13) 0.00562 630.2 16.3
666(14) 0.00491 630.6 16.5
639(14) 0.00483 631.1 16.7
628(13) 0.00530 631.5 16.9
621(13) 0.00563 631.9 17.1
623(13) 0.00570 632.4 17.4
630(13) 0.00523 632.8 17.6
636(14) 0.00491 633.3 17.8
620(13) 0.00539 633.7 18.1
654(13) 0.00537 634.2 18.3
643(13) 0.00542 634.6 18.6
629(13) 0.00528 635.1 18.9
621(14) 0.00507 635.5 19.1
642(13) 0.00524 636.0 19.4
661(13) 0.00535 636.4 19.7
633(13) 0.00553 636.9 20.0
628(13) 0.00533 637.3 20.3
662(14) 0.00480 637.8 20.6
664(14) 0.00503 638.2 20.9
647(13) 0.00548 638.6 21.2
645(13) 0.00543 639.1 21.6
647(14) 0.00517 639.5 21.9
678(14) 0.00468 640.0 22.3
634(13) 0.00527 640.4 22.6
641(13) 0.00555 640.9 23.0
650(13) 0.00527 641.3 23.4
657(14) 0.00504 641.8 23.8
643(14) 0.00508 642.2 24.2
654(14) 0.00507 642.7 24.6
675(13) 0.00523 643.1 25.1
636(13) 0.00538 643.6 25.5
630(14) 0.00515 644.0 26.0
630(14) 0.00507 644.4 26.4
648(13) 0.00525 644.9 26.9
680(14) 0.00519 645.3 27.4
658(14) 0.00520 645.8 27.9
672(14) 0.00477 646.2 28.5
634(14) 0.00523 646.7 29.0
646(13) 0.00524 647.1 29.6
640(13) 0.00555 647.6 30.1
655(14) 0.00513 648.0 30.7
649(14) 0.00497 648.5 31.4
623(13) 0.00538 648.9 32.0
660(14) 0.00516 649.4 32.7
651(13) 0.00543 649.8 33.4
648(14) 0.00497 650.2 34.1
690(15) 0.00455 650.7 34.8
661(14) 0.00520 651.1 35.6
679(14) 0.00515 651.6 36.3
655(13) 0.00540 652.0 37.1
662(14) 0.00512 652.5 38.0
678(14) 0.00463 652.9 38.9
659(14) 0.00505 653.4 39.8
657(13) 0.00531 653.8 40.7
666(13) 0.00539 654.3 41.7
691(14) 0.00489 654.7 42.7
670(14) 0.00464 655.2 43.7
680(14) 0.00492 655.6 44.8
707(14) 0.00498 656.1 45.9
693(14) 0.00515 656.5 47.1
697(14) 0.00489 656.9 48.3
698(15) 0.00448 657.4 49.6
670(14) 0.00494 657.8 50.9
722(14) 0.00488 658.3 52.3
704(14) 0.00504 658.7 53.8
703(14) 0.00461 659.2 55.3
705(15) 0.00446 659.6 56.8
693(14) 0.00481 660.1 58.5
717(14) 0.00496 660.5 60.2
735(14) 0.00469 661.0 62.0
710(15) 0.00451 661.4 63.9
689(15) 0.00451 661.9 65.8
738(15) 0.00442 662.3 67.9
734(14) 0.00487 662.7 70.0
730(14) 0.00478 663.2 72.3
678(14) 0.00493 663.6 74.7
676(14) 0.00491 664.1 77.2
733(15) 0.00450 664.5 79.8
711(14) 0.00501 665.0 82.6
726(14) 0.00471 665.4 85.5
711(14) 0.00467 665.9 88.5
761(15) 0.00428 666.3 91.8
747(15) 0.00455 666.8 95.2
742(14) 0.00480 667.2 98.8
774(15) 0.00433 667.7 102.7
723(14) 0.00462 668.1 106.8
741(15) 0.00442 668.6 111.1
741(14) 0.00468 669.0 115.7
748(14) 0.00476 669.4 120.6
750(15) 0.00437 669.9 125.8
751(15) 0.00431 670.3 131.3
778(15) 0.00429 670.8 137.2
810(15) 0.00432 671.2 143.5
753(14) 0.00471 671.7 150.3
775(15) 0.00428 672.1 157.6
778(15) 0.00416 672.6 165.4
767(15) 0.00432 673.0 173.8
799(15) 0.00435 673.5 182.9
816(15) 0.00434 673.9 192.6
796(15) 0.00419 674.4 203.2
809(16) 0.00389 674.8 214.7
792(15) 0.00430 675.2 227.2
826(15) 0.00432 675.7 240.7
856(15) 0.00418 676.1 255.6
878(16) 0.00382 676.6 271.8
944(17) 0.003275 677.0 289.6
909(16) 0.00369 677.5 309.2
946(16) 0.00375 677.9 331.0
927(16) 0.00387 678.4 355.1
944(17) 0.00354 678.8 382.2
1034(18) 0.002959 679.3 412.7
1047(17) 0.003227 679.7 447.3
1052(17) 0.003399 680.2 487.0
1127(17) 0.003189 680.6 532.8
1200(19) 0.002827 681.0 586.3
1217(19) 0.002675 681.5 649.3
1289(19) 0.002584 681.9 724.0
1450(20) 0.002497 682.4 813.2
1550(21) 0.002317 682.8 919.8
1620(21) 0.002123 683.3 1047.5
1814(23) 0.001817 683.7 1200.2
2044(24) 0.001645 684.2 1381.8
2201(24) 0.001661 684.6 1596.5
2463(26) 0.001442 685.1 1847.8
2756(28) 0.001247 685.5 2138.7
3190(31) 0.001030 686.0 2470.7
3622(33) 0.000928 686.4 2843.7
4138(33) 0.000887 686.9 3254.0
4561(36) 0.000779 687. 3693.
5023(38) 0.000680 688. 4146.
5647(41) 0.000588 688. 4588.
6110(42) 0.000565 689. 4987.
6468(42) 0.000568 689. 5300.
6505(43) 0.000536 690. 5487.
6312(43) 0.000530 690. 5522.
5919(42) 0.000571 690. 5397.
5616(40) 0.000621 691. 5134.
5140(37) 0.000715 691. 4767.
4759(37) 0.000720 692. 4339.
4342(36) 0.000766 692. 3887.
3922(34) 0.000860 692.7 3440.3
3549(31) 0.001005 693.1 3016.7
3328(30) 0.001103 693.5 2627.5
3033(30) 0.001130 694.0 2278.2
2754(29) 0.001212 694.4 1970.2
2450(26) 0.001407 694.9 1702.8
2323(25) 0.001546 695.3 1473.4
2165(24) 0.001693 695.8 1278.6
2063(24) 0.001646 696.2 1114.6
1934(24) 0.001709 696.7 977.2
1814(23) 0.001881 697.1 862.5
1698(21) 0.002132 697.6 766.9
1648(21) 0.002199 698.0 687.0
1548(21) 0.002198 698.5 619.9
1418(21) 0.002285 698.9 563.3
1401(20) 0.002442 699.4 515.1
1292(19) 0.002775 699.8 473.8
1286(19) 0.002803 700.2 437.9
1278(19) 0.002661 700.7 406.7
1217(19) 0.002601 701.1 379.3
1183(18) 0.002910 701.6 355.1
1175(18) 0.003029 702.0 333.6
1096(17) 0.003266 702.5 314.5
1092(18) 0.003102 702.9 297.5
1057(18) 0.002992 703.4 282.3
1026(17) 0.003269 703.8 269.0
998(16) 0.00359 704.3 257.2
1007(17) 0.00355 704.7 246.9
963(17) 0.00352 705.2 238.1
994(17) 0.003255 705.6 230.8
970(17) 0.003442 706.0 224.9
980(16) 0.00368 706.5 220.5
972(16) 0.00358 706.9 217.5
940(16) 0.00357 707.4 216.2
913(16) 0.00356 707.8 216.4
917(16) 0.00361 708.3 218.4
891(15) 0.00404 708.7 222.0
931(16) 0.00369 709.2 227.4
937(16) 0.00356 709.6 234.5
953(17) 0.003381 710.1 243.3
959(17) 0.003484 710.5 253.4
930(16) 0.00386 711.0 264.5
923(16) 0.00375 711.4 275.9
975(17) 0.003423 711.8 286.8
1013(17) 0.003255 712.3 296.0
949(16) 0.00358 712.7 302.3
937(16) 0.00383 713.2 304.4
960(17) 0.003450 713.6 301.6
944(17) 0.003431 714.1 293.8
946(17) 0.00351 714.5 281.6
972(17) 0.00351 715.0 266.2
928(16) 0.00387 715.4 248.7
937(16) 0.00362 715.9 230.4
879(16) 0.00377 716.3 212.1
885(16) 0.00378 716.8 194.6
876(16) 0.00401 717.2 178.2
843(15) 0.00424 717.7 163.1
815(15) 0.00418 718.1 149.4
840(16) 0.00379 718.5 137.1
826(16) 0.00400 719.0 126.2
790(15) 0.00449 719.4 116.5
812(15) 0.00437 719.9 108.0
804(15) 0.00417 720.3 100.5
803(15) 0.00401 720.8 94.0
784(15) 0.00436 721.2 88.2
793(15) 0.00446 721.7 83.1
800(15) 0.00445 722.1 78.7
773(15) 0.00431 722.6 74.7
776(16) 0.00401 723.0 71.1
783(15) 0.00437 723.5 68.0
791(15) 0.00449 723.9 65.1
796(15) 0.00444 724.3 62.4
768(15) 0.00434 724.8 60.0
767(15) 0.00402 725.2 57.8
796(15) 0.00422 725.7 55.7
781(14) 0.00457 726.1 53.8
788(15) 0.00450 726.6 52.0
794(15) 0.00423 727.0 50.4
733(15) 0.00440 727.5 48.8
734(15) 0.00453 727.9 47.3
756(14) 0.00470 728.4 45.9
747(14) 0.00468 728.8 44.6
725(14) 0.00466 729.3 43.3
752(15) 0.00426 729.7 42.1
773(15) 0.00428 730.2 41.0
783(14) 0.00457 730.6 39.9
768(15) 0.00445 731.0 38.9
755(15) 0.00435 731.5 37.9
766(15) 0.00417 731.9 37.0
785(15) 0.00416 732.4 36.1
740(14) 0.00480 732.8 35.3
745(14) 0.00463 733.3 34.4
751(15) 0.00451 733.7 33.7
771(15) 0.00417 734.2 32.9
748(14) 0.00457 734.6 32.2
769(14) 0.00462 735.1 31.5
790(15) 0.00428 735.5 30.8
719(14) 0.00462 736.0 30.2
746(15) 0.00444 736.4 29.6
734(14) 0.00474 736.8 29.0
787(15) 0.00454 737.3 28.4
742(15) 0.00447 737.7 27.9
753(15) 0.00434 738.2 27.3
731(14) 0.00462 738.6 26.8
769(15) 0.00451 739.1 26.3
736(14) 0.00482 739.5 25.9
772(15) 0.00426 740.0 25.4
767(15) 0.00426 740.4 24.9
775(15) 0.00427 740.9 24.5
758(14) 0.00457 741.3 24.1
755(14) 0.00469 741.8 23.7
786(15) 0.00411 742.2 23.3
731(15) 0.00427 742.7 22.9
748(15) 0.00442 743.1 22.6
768(14) 0.00456 743.5 22.2
742(14) 0.00486 744.0 21.9
742(15) 0.00454 744.4 21.5
751(15) 0.00417 744.9 21.2
750(15) 0.00451 745.3 20.9
771(14) 0.00458 745.8 20.6
745(14) 0.00479 746.2 20.3
755(15) 0.00446 746.7 20.0
735(15) 0.00433 747.1 19.7
778(15) 0.00430 747.6 19.5
771(14) 0.00466 748.0 19.2
754(14) 0.00467 748.5 19.0
709(14) 0.00469 748.9 18.7
744(15) 0.00417 749.3 18.5
762(15) 0.00422 749.8 18.3
688(14) 0.00517 750.2 18.0
742(14) 0.00470 750.7 17.8
776(15) 0.00421 751.1 17.6
778(15) 0.00410 751.6 17.4
776(15) 0.00422 752.0 17.2
741(14) 0.00480 752.5 17.0
766(15) 0.00451 752.9 16.9
783(15) 0.00416 753.4 16.7
762(15) 0.00411 753.8 16.5
762(15) 0.00428 754.3 16.4
782(15) 0.00454 754.7 16.2
752(14) 0.00464 755.1 16.0
787(15) 0.00428 755.6 15.9
755(15) 0.00430 756.0 15.8
746(15) 0.00456 756.5 15.6
759(14) 0.00471 757.0 15.5
778(15) 0.00438 757.6 15.4
737(15) 0.00440 758.1 15.3
747(15) 0.00425 758.7 15.1
773(15) 0.00438 759.3 15.0
748(14) 0.00473 759.9 14.9
739(15) 0.00451 760.5 14.8
726(15) 0.00451 761.1 14.8
769(15) 0.00431 761.7 14.7
774(15) 0.00442 762.3 14.6
803(15) 0.00445 762.9 14.5
783(15) 0.00424 763.5 14.4
796(16) 0.00396 764.1 14.4
780(15) 0.00427 764.7 14.3
781(15) 0.00449 765.3 14.3
755(14) 0.00468 765.9 14.2
803(15) 0.00414 766.5 14.2
756(15) 0.00431 767.1 14.2
792(15) 0.00421 767.7 14.1
798(15) 0.00435 768.3 14.1
765(14) 0.00466 768.9 14.1
788(15) 0.00415 769.5 14.1
809(16) 0.00391 770.1 14.1
795(15) 0.00428 770.7 14.1
811(15) 0.00437 771.2 14.2
829(15) 0.00423 771.8 14.2
803(15) 0.00409 772.4 14.2
774(16) 0.00396 773.0 14.3
767(15) 0.00440 773.6 14.3
769(14) 0.00460 774.2 14.4
821(15) 0.00429 774.8 14.5
789(15) 0.00422 775.4 14.6
810(16) 0.00382 776.0 14.7
799(15) 0.00422 776.6 14.8
775(14) 0.00464 777.2 14.9
797(15) 0.00442 777.8 15.1
797(15) 0.00408 778.4 15.3
795(16) 0.00401 779.0 15.5
799(15) 0.00415 779.6 15.7
838(15) 0.00424 780.2 15.9
779(15) 0.00446 780.8 16.1
813(15) 0.00403 781.4 16.4
818(16) 0.00391 782.0 16.7
759(15) 0.00433 782.6 17.1
788(15) 0.00454 783.2 17.4
779(15) 0.00442 783.7 17.9
814(15) 0.00408 784.3 18.3
826(16) 0.00389 784.9 18.8
795(15) 0.00425 785.5 19.4
806(15) 0.00439 786.1 20.0
764(15) 0.00453 786.7 20.6
817(15) 0.00402 787.3 21.4
805(15) 0.00408 787.9 22.2
823(15) 0.00413 788.5 23.1
837(15) 0.00428 789.1 24.1
820(15) 0.00411 789.7 25.3
836(16) 0.00396 790.3 26.6
835(16) 0.00394 790.9 28.0
813(15) 0.00420 791.5 29.6
865(15) 0.00413 792.1 31.5
840(16) 0.00397 792.7 33.6
859(16) 0.00378 793.3 36.0
834(16) 0.00399 793.9 38.8
797(15) 0.00433 794.5 42.1
849(15) 0.00420 795.1 46.1
918(16) 0.00357 795.7 50.9
837(16) 0.00395 796.2 57.1
916(16) 0.00360 796.8 65.1
886(16) 0.00399 797.4 75.8
916(16) 0.00391 798.0 90.2
973(17) 0.003491 798.6 109.9
998(17) 0.003194 799.2 136.3
1068(18) 0.003123 799.8 171.5
1068(17) 0.003326 800.4 217.1
1088(17) 0.003292 801.0 274.1
1186(18) 0.002928 801.6 343.1
1313(20) 0.002343 802.2 422.8
1328(19) 0.002569 802.8 510.0
1418(20) 0.002537 803.4 599.0
1442(20) 0.002510 804.0 680.2
1571(21) 0.002163 804.6 740.9
1588(22) 0.002019 805.2 768.2
1640(22) 0.002081 805.8 755.4
1566(21) 0.002323 806.4 705.7
1485(20) 0.002389 807.0 630.5
1293(19) 0.002644 807.6 543.0
1203(19) 0.002725 808.2 454.2
1123(18) 0.003022 808.8 371.1
1068(17) 0.003388 809.3 297.9
1022(17) 0.003443 809.9 236.3
985(17) 0.003443 810.5 186.5
938(17) 0.00352 811.1 147.6
923(16) 0.00362 811.7 118.0
902(16) 0.00399 812.3 96.0
850(15) 0.00410 812.9 79.7
905(16) 0.00361 813.5 67.7
910(16) 0.00359 814.1 58.8
859(16) 0.00395 814.7 51.9
852(15) 0.00422 815.3 46.6
868(16) 0.00395 815.9 42.2
827(15) 0.00409 816.5 38.6
856(16) 0.00394 817.1 35.6
859(16) 0.00399 817.7 33.0
856(15) 0.00418 818.3 30.7
829(15) 0.00412 818.9 28.7
814(15) 0.00413 819.5 26.9
856(16) 0.00390 820.1 25.3
855(16) 0.00398 820.7 23.9
862(15) 0.00416 821.3 22.7
850(16) 0.00391 821.8 21.5
814(15) 0.00405 822.4 20.5
816(15) 0.00412 823.0 19.6
852(15) 0.00411 823.6 18.7
833(15) 0.00430 824.2 17.9
806(15) 0.00405 824.8 17.2
844(16) 0.00376 825.4 16.6
838(16) 0.00400 826.0 16.0
831(15) 0.00422 826.6 15.4
873(15) 0.00410 827.2 14.9
867(16) 0.00386 827.8 14.5
845(16) 0.00375 828.4 14.0
860(16) 0.00394 829.0 13.6
882(15) 0.00404 829.6 13.3
876(15) 0.00406 830.2 12.9
835(15) 0.00406 830.8 12.6
865(16) 0.00362 831.4 12.3
837(15) 0.00407 832.0 12.0
864(15) 0.00410 832.6 11.7
883(15) 0.00404 833.2 11.5
889(16) 0.00372 833.8 11.3
889(17) 0.003458 834.3 11.1
842(15) 0.00410 834.9 10.9
840(15) 0.00424 835.5 10.7
851(15) 0.00422 836.1 10.5
841(15) 0.00402 836.7 10.3
842(16) 0.00383 837.3 10.2
851(16) 0.00396 837.9 10.0
851(15) 0.00419 838.5 9.9
887(16) 0.00397 839.1 9.7
861(16) 0.00396 839.7 9.6
869(16) 0.00374 840.3 9.5
850(16) 0.00392 840.9 9.4
840(15) 0.00426 841.5 9.3
852(15) 0.00408 842.1 9.2
836(15) 0.00404 842.7 9.1
886(16) 0.00359 843.3 9.0
833(15) 0.00401 843.9 8.9
856(15) 0.00417 844.5 8.8
830(15) 0.00413 845.1 8.8
836(16) 0.00401 845.7 8.7
833(16) 0.00397 846.3 8.6
865(16) 0.00399 846.8 8.6
832(15) 0.00432 847.4 8.5
835(15) 0.00403 848.0 8.5
869(16) 0.00373 848.6 8.4
894(16) 0.00364 849.2 8.4
844(15) 0.00411 849.8 8.3
822(15) 0.00431 850.4 8.3
835(15) 0.00403 851.0 8.3
873(16) 0.00375 851.6 8.2
908(16) 0.00365 852.2 8.2
877(16) 0.00399 852.8 8.2
877(15) 0.00409 853.4 8.1
869(16) 0.00386 854.0 8.1
909(17) 0.00355 854.6 8.1
855(16) 0.00396 855.2 8.1
841(15) 0.00410 855.8 8.1
874(15) 0.00407 856.4 8.1
850(16) 0.00392 857.0 8.1
849(16) 0.00387 857.6 8.1
907(16) 0.00372 858.2 8.1
889(15) 0.00402 858.8 8.1
914(16) 0.00393 859.4 8.1
883(16) 0.00378 859.9 8.1
860(16) 0.00363 860.5 8.1
860(16) 0.00392 861.1 8.1
876(16) 0.00400 861.7 8.1
865(15) 0.00415 862.3 8.1
855(16) 0.00395 862.9 8.1
872(16) 0.00357 863.5 8.2
914(16) 0.00365 864.1 8.2
877(15) 0.00409 864.7 8.2
866(15) 0.00410 865.3 8.2
888(16) 0.00372 865.9 8.3
882(16) 0.00359 866.5 8.3
915(16) 0.00369 867.1 8.3
876(15) 0.00406 867.7 8.4
877(16) 0.00398 868.3 8.4
894(16) 0.00372 868.9 8.5
902(16) 0.00357 869.5 8.5
863(16) 0.00393 870.1 8.6
856(15) 0.00420 870.7 8.6
850(15) 0.00411 871.1 8.7
900(16) 0.00372 871.6 8.7
878(16) 0.00365 872.0 8.8
823(15) 0.00409 872.5 8.8
919(16) 0.00388 872.9 8.9
912(16) 0.00377 873.4 9.0
883(16) 0.00376 873.8 9.0
837(16) 0.00389 874.3 9.1
904(16) 0.00369 874.7 9.2
910(16) 0.00393 875.2 9.3
882(16) 0.00380 875.6 9.4
883(16) 0.00368 876.0 9.5
890(16) 0.00373 876.5 9.6
906(16) 0.00383 876.9 9.7
927(16) 0.00385 877.4 9.8
849(16) 0.00392 877.8 9.9
882(16) 0.00368 878.3 10.0
881(16) 0.00382 878.7 10.1
908(16) 0.00373 879.2 10.2
898(16) 0.00397 879.6 10.4
919(16) 0.00357 880.1 10.5
885(16) 0.00370 880.5 10.6
944(17) 0.00351 881.0 10.8
890(16) 0.00391 881.4 10.9
923(16) 0.00391 881.9 11.1
878(16) 0.00373 882.3 11.2
883(16) 0.00362 882.7 11.4
879(16) 0.00379 883.2 11.6
867(15) 0.00403 883.6 11.7
911(16) 0.00390 884.1 11.9
892(16) 0.00374 884.5 12.1
875(16) 0.00365 885.0 12.3
911(16) 0.00370 885.4 12.5
880(15) 0.00410 885.9 12.8
885(16) 0.00399 886.3 13.0
895(16) 0.00389 886.8 13.2
931(17) 0.003344 887.2 13.5
925(16) 0.00362 887.7 13.7
882(15) 0.00407 888.1 14.0
895(15) 0.00402 888.6 14.3
938(17) 0.00354 889.0 14.6
945(17) 0.003268 889.4 14.9
921(16) 0.00363 889.9 15.2
885(15) 0.00403 890.3 15.5
911(16) 0.00390 890.8 15.9
918(16) 0.00363 891.2 16.3
928(17) 0.003347 891.7 16.7
874(16) 0.00377 892.1 17.1
886(15) 0.00407 892.6 17.5
904(16) 0.00389 893.0 17.9
875(16) 0.00385 893.5 18.4
922(17) 0.003504 893.9 18.9
947(17) 0.00351 894.4 19.4
932(16) 0.00384 894.8 19.9
897(16) 0.00385 895.3 20.5
911(16) 0.00369 895.7 21.1
927(17) 0.003477 896.1 21.7
912(16) 0.00369 896.6 22.3
927(16) 0.00383 897.0 23.0
938(16) 0.00366 897.5 23.7
957(17) 0.003467 897.9 24.5
918(16) 0.00356 898.4 25.3
937(16) 0.00363 898.8 26.2
901(16) 0.00395 899.3 27.1
944(16) 0.00364 899.7 28.0
937(17) 0.003494 900.2 29.1
945(17) 0.003484 900.6 30.1
916(16) 0.00376 901.1 31.3
948(16) 0.00378 901.5 32.5
955(17) 0.003473 902.0 33.8
927(17) 0.003484 902.4 35.2
932(16) 0.00360 902.8 36.7
956(16) 0.00362 903.3 38.3
962(16) 0.00374 903.7 40.0
950(17) 0.003469 904.2 41.8
1009(17) 0.003177 904.6 43.7
954(17) 0.003486 905.1 45.8
943(16) 0.00378 905.5 48.1
978(16) 0.00368 906.0 50.5
967(17) 0.003416 906.4 53.2
995(18) 0.003112 906.9 56.0
994(17) 0.003368 907.3 59.1
969(16) 0.00364 907.8 62.5
1015(17) 0.00353 908.2 66.2
1011(17) 0.003352 908.7 70.3
975(17) 0.003312 909.1 74.8
1050(17) 0.003202 909.5 79.8
1007(17) 0.00356 910.0 85.3
1028(17) 0.003451 910.4 91.4
1050(17) 0.003236 910.9 98.3
1042(18) 0.003081 911.3 106.0
1050(17) 0.003231 911.8 114.8
1053(17) 0.003378 912.2 124.7
1011(17) 0.00354 912.7 135.9
1006(17) 0.003286 913.1 148.6
1099(19) 0.002843 913.6 163.1
1099(18) 0.003058 914.0 179.6
1135(17) 0.003176 914.5 198.3
1126(18) 0.003113 914.9 219.5
1162(18) 0.002918 915.4 243.5
1201(19) 0.002726 915.8 270.6
1194(19) 0.002824 916.2 300.8
1198(18) 0.003029 916.7 334.6
1262(19) 0.002768 917.1 371.8
1326(20) 0.002513 917.6 412.5
1324(20) 0.002520 918.0 456.4
1461(21) 0.002308 918.5 503.0
1536(20) 0.002371 918.9 551.2
1617(21) 0.002181 919.4 599.5
1680(22) 0.001995 919.8 645.9
1669(22) 0.002025 920.3 687.5
1716(22) 0.002012 920.7 721.5
1739(22) 0.002104 921.2 744.8
1736(22) 0.001970 921.6 755.1
1656(22) 0.002008 922.1 751.4
1632(22) 0.002057 922.5 734.1
1647(21) 0.002145 922.9 704.9
1584(21) 0.002288 923.4 666.5
1578(22) 0.002100 923.8 622.1
1491(21) 0.002200 924.3 574.3
1434(20) 0.002375 924.7 525.8
1448(20) 0.002434 925.2 478.3
1432(20) 0.002534 925.6 433.0
1262(19) 0.002768 926.1 390.7
1343(20) 0.002442 926.5 351.8
1310(19) 0.002621 927.0 316.4
1265(19) 0.002824 927.4 284.5
1212(18) 0.002970 927.9 255.9
1248(19) 0.002624 928.3 230.5
1180(19) 0.002720 928.8 207.9
1165(18) 0.002903 929.2 188.0
1115(17) 0.003227 929.6 170.5
1188(18) 0.003042 930.1 155.0
1124(18) 0.003024 930.5 141.5
1081(18) 0.002948 931.0 129.5
1169(18) 0.002864 931.4 119.0
1121(17) 0.003205 931.9 109.7
1129(17) 0.003189 932.3 101.5
1082(18) 0.003118 932.8 94.2
1082(18) 0.002923 933.2 87.7
1096(18) 0.003015 933.7 81.9
1049(17) 0.003416 934.1 76.7
1052(17) 0.003404 934.6 72.0
1035(17) 0.003267 935.0 67.7
1036(18) 0.003035 935.5 63.8
1022(17) 0.003358 935.9 60.2
1097(17) 0.003294 936.4 57.0
1058(17) 0.003380 936.8 54.0
1062(17) 0.003192 937.2 51.2
1039(18) 0.003070 937.7 48.7
1016(17) 0.003283 938.1 46.3
1037(17) 0.003475 938.6 44.1
1032(17) 0.003363 939.0 42.1
1022(17) 0.003286 939.5 40.2
1041(18) 0.003111 939.9 38.4
1031(17) 0.003235 940.4 36.8
1003(16) 0.00358 940.8 35.3
1017(17) 0.003420 941.3 33.8
1005(17) 0.003299 941.7 32.4
1015(17) 0.003263 942.2 31.2
1018(17) 0.003391 942.6 30.0
1010(17) 0.00354 943.1 28.8
1035(17) 0.003340 943.5 27.8
1017(17) 0.003271 943.9 26.8
1009(17) 0.003273 944.4 25.8
1028(17) 0.003338 944.8 24.9
1007(16) 0.00358 945.3 24.1
1034(17) 0.003283 945.7 23.3
1007(17) 0.003307 946.2 22.5
974(17) 0.00354 946.6 21.8
1019(17) 0.003412 947.1 21.1
1031(17) 0.003486 947.5 20.4
1013(17) 0.003292 948.0 19.8
1012(17) 0.003194 948.4 19.2
974(17) 0.003507 948.9 18.7
972(16) 0.00366 949.3 18.1
983(16) 0.00367 949.8 17.6
981(17) 0.003481 950.2 17.1
1027(18) 0.003113 950.6 16.6
1046(17) 0.003191 951.1 16.2
1022(17) 0.003410 951.5 15.8
982(16) 0.00368 952.0 15.4
988(17) 0.003438 952.4 15.0
1023(18) 0.003098 952.9 14.6
966(17) 0.00351 953.3 14.2
963(16) 0.00368 953.8 13.9
1011(17) 0.00355 954.2 13.5
1014(17) 0.003378 954.7 13.2
1016(18) 0.003041 955.1 12.9
985(17) 0.003438 955.6 12.6
962(16) 0.00371 956.0 12.3
1006(17) 0.00351 956.5 12.1
993(17) 0.003437 956.9 11.8
955(17) 0.003375 957.3 11.5
955(17) 0.003498 957.8 11.3
988(16) 0.00364 958.2 11.1
1029(17) 0.003464 958.7 10.8
1036(17) 0.003251 959.1 10.6
975(17) 0.003386 959.6 10.4
1004(17) 0.003332 960.0 10.2
1040(17) 0.003475 960.5 10.0
973(16) 0.00361 960.9 9.8
1011(17) 0.003262 961.4 9.6
1010(17) 0.003228 961.8 9.4
1009(17) 0.003329 962.3 9.3
973(16) 0.00368 962.7 9.1
1022(17) 0.003424 963.2 8.9
1010(17) 0.003335 963.6 8.8
981(17) 0.003365 964.0 8.6
1019(17) 0.003328 964.5 8.5
1028(17) 0.003487 964.9 8.3
1015(17) 0.003379 965.4 8.2
997(17) 0.003420 965.8 8.0
1027(17) 0.003261 966.3 7.9
954(16) 0.00361 966.7 7.8
935(16) 0.00382 967.2 7.7
977(17) 0.003474 967.6 7.5
1021(18) 0.003167 968.1 7.4
1034(17) 0.003197 968.5 7.3
1022(17) 0.003411 969.0 7.2
954(16) 0.00375 969.4 7.1
1009(17) 0.003353 969.9 7.0
1023(18) 0.003166 970.3 6.9
1011(17) 0.003293 970.7 6.8
1018(17) 0.003395 971.2 6.7
1012(17) 0.00355 971.6 6.6
1002(17) 0.003375 972.1 6.5
1041(18) 0.003080 972.5 6.4
992(17) 0.003408 973.0 6.3
1005(16) 0.00356 973.4 6.3
1041(17) 0.003440 973.9 6.2
1005(17) 0.003355 974.3 6.1
1009(17) 0.003190 974.8 6.0
1008(17) 0.003409 975.2 6.0
988(16) 0.00363 975.7 5.9
988(16) 0.00363 976.1 5.8
995(17) 0.003391 976.6 5.7
1014(18) 0.003034 977.0 5.7
1017(17) 0.003335 977.4 5.6
987(16) 0.00365 977.9 5.5
1001(17) 0.00355 978.3 5.5
1019(17) 0.003304 978.8 5.4
997(17) 0.003193 979.2 5.4
1048(17) 0.003212 979.7 5.3
969(16) 0.00371 980.1 5.3
1054(17) 0.003319 980.6 5.2
1040(17) 0.003257 981.0 5.2
993(17) 0.003258 981.5 5.1
994(17) 0.003387 981.9 5.1
1028(17) 0.00351 982.4 5.0
1045(17) 0.003389 982.8 5.0
1034(17) 0.003233 983.3 4.9
1001(17) 0.003275 983.7 4.9
1042(17) 0.003202 984.1 4.8
983(16) 0.00364 984.6 4.8
1005(17) 0.003493 985.0 4.8
1045(17) 0.003234 985.5 4.7
1019(17) 0.003214 985.9 4.7
994(17) 0.003386 986.4 4.6
1025(17) 0.00351 986.8 4.6
1053(17) 0.003293 987.3 4.6
994(17) 0.003324 987.7 4.5
974(17) 0.003389 988.2 4.5
996(17) 0.003354 988.6 4.5
1049(17) 0.003449 989.1 4.5
1022(17) 0.003386 989.5 4.4
1040(18) 0.003140 990.0 4.4
1010(17) 0.003336 990.4 4.4
1053(17) 0.003271 990.8 4.4
990(16) 0.00364 991.3 4.4
1023(17) 0.003260 991.7 4.3
1033(18) 0.003148 992.2 4.3
1031(17) 0.003248 992.6 4.3
1044(17) 0.003398 993.1 4.3
1029(17) 0.003487 993.5 4.3
1016(17) 0.003299 994.0 4.3
1005(17) 0.003188 994.4 4.3
1012(17) 0.003306 994.9 4.3
1033(17) 0.003444 995.3 4.3
987(16) 0.00365 995.8 4.3
1002(17) 0.003392 996.2 4.3
1027(18) 0.003106 996.7 4.3
1057(17) 0.003223 997.1 4.3
1076(17) 0.003312 997.5 4.3
1017(17) 0.00355 998.0 4.3
1032(17) 0.003302 998.4 4.3
1068(18) 0.002894 998.9 4.3
998(17) 0.003404 999.3 4.4
1018(17) 0.00351 999.8 4.4
1060(17) 0.003415 1000.2 4.4
1061(17) 0.003183 1000.7 4.5
1078(18) 0.002890 1001.1 4.5
1057(17) 0.003245 1001.6 4.5
1016(17) 0.00355 1002.0 4.6
1003(17) 0.00355 1002.5 4.6
1048(17) 0.003232 1002.9 4.7
1009(17) 0.003217 1003.4 4.7
1039(17) 0.003216 1003.8 4.8
1037(17) 0.003484 1004.2 4.8
1017(17) 0.003485 1004.7 4.9
1030(17) 0.003210 1005.1 4.9
1048(18) 0.002999 1005.6 4.9
986(17) 0.003433 1006.0 5.0
1036(17) 0.003440 1006.5 5.0
1066(17) 0.003284 1006.9 5.0
1023(17) 0.003236 1007.4 5.0
1010(17) 0.003256 1007.8 5.0
1042(17) 0.003220 1008.3 5.0
1049(17) 0.003438 1008.7 5.0
1033(17) 0.003414 1009.2 5.0
1050(18) 0.003153 1009.6 4.9
1012(17) 0.003276 1010.1 4.9
1021(17) 0.003312 1010.5 4.8
1033(17) 0.003489 1010.9 4.8
1056(17) 0.003240 1011.4 4.7
1061(18) 0.003155 1011.8 4.6
1078(18) 0.003115 1012.3 4.6
1079(17) 0.003181 1012.7 4.5
1033(17) 0.003502 1013.2 4.4
1014(17) 0.003332 1013.6 4.3
1023(18) 0.003166 1014.1 4.3
1013(17) 0.003278 1014.5 4.2
1023(17) 0.003432 1015.0 4.1
1029(17) 0.003489 1015.4 4.1
1042(17) 0.003174 1015.9 4.0
1019(17) 0.003202 1016.3 4.0
1055(17) 0.003234 1016.8 3.9
1069(17) 0.003280 1017.2 3.9
1003(16) 0.00361 1017.6 3.8
1029(17) 0.003199 1018.1 3.8
1015(17) 0.003211 1018.5 3.7
1061(18) 0.003153 1019.0 3.7
1065(17) 0.003333 1019.4 3.7
1093(17) 0.003294 1019.9 3.6
1088(18) 0.003082 1020.3 3.6
1071(18) 0.002949 1020.8 3.6
1045(17) 0.003250 1021.2 3.5
1063(17) 0.003354 1021.7 3.5
1085(17) 0.003308 1022.1 3.5
987(17) 0.003444 1022.6 3.5
1068(18) 0.002872 1023.0 3.5
1021(17) 0.003313 1023.5 3.5
999(16) 0.00356 1023.9 3.4
1056(17) 0.003381 1024.4 3.4
1060(17) 0.003224 1024.8 3.4
1054(18) 0.003042 1025.2 3.4
1038(17) 0.003316 1025.7 3.4
1056(17) 0.003399 1026.1 3.4
1103(17) 0.003235 1026.6 3.4
1051(17) 0.003183 1027.0 3.4
1050(18) 0.003005 1027.5 3.4
1046(18) 0.003156 1027.9 3.4
1063(17) 0.003393 1028.4 3.4
1061(17) 0.003273 1028.8 3.4
1034(17) 0.003259 1029.3 3.4
1027(17) 0.003207 1029.7 3.4
1056(17) 0.003211 1030.2 3.5
1097(17) 0.003269 1030.6 3.5
1051(17) 0.003328 1031.1 3.5
1068(18) 0.003089 1031.5 3.5
1033(17) 0.003193 1031.9 3.5
1004(17) 0.003398 1032.4 3.5
1035(17) 0.003502 1032.8 3.6
1019(17) 0.003424 1033.3 3.6
1064(18) 0.003064 1033.7 3.6
1040(17) 0.003213 1034.2 3.6
1060(17) 0.003293 1034.6 3.7
1054(17) 0.003413 1035.1 3.7
1041(17) 0.003263 1035.5 3.7
1049(17) 0.003224 1036.0 3.8
1080(18) 0.003119 1036.4 3.8
1017(17) 0.003425 1036.9 3.9
1050(17) 0.003426 1037.3 3.9
1044(17) 0.003215 1037.8 3.9
1016(17) 0.003185 1038.2 4.0
1044(17) 0.003197 1038.6 4.0
1030(17) 0.003467 1039.1 4.1
1055(17) 0.003411 1039.5 4.2
1082(18) 0.003047 1040.0 4.2
1076(18) 0.002918 1040.4 4.3
1017(17) 0.003368 1040.9 4.4
1106(17) 0.003230 1041.3 4.4
1074(17) 0.003346 1041.8 4.5
1060(17) 0.003226 1042.2 4.6
1038(18) 0.003072 1042.7 4.7
1049(17) 0.003205 1043.1 4.8
1037(17) 0.003469 1043.6 4.9
998(16) 0.00363 1044.0 5.0
1049(17) 0.003221 1044.5 5.1
1034(18) 0.003030 1044.9 5.2
990(17) 0.003434 1045.3 5.3
1062(17) 0.003396 1045.8 5.5
1066(17) 0.003348 1046.2 5.6
1066(17) 0.003249 1046.7 5.8
1093(18) 0.002898 1047.1 5.9
1098(18) 0.003071 1047.6 6.1
1087(17) 0.003308 1048.0 6.3
1080(17) 0.003295 1048.5 6.5
1047(17) 0.003214 1048.9 6.7
1056(18) 0.003022 1049.4 7.0
1093(18) 0.003049 1049.8 7.2
1049(17) 0.003420 1050.3 7.5
1052(17) 0.003313 1050.7 7.8
1061(18) 0.003132 1051.2 8.1
1045(18) 0.003148 1051.6 8.4
1077(18) 0.003146 1052.0 8.8
1091(17) 0.003299 1052.5 9.2
1064(17) 0.003288 1052.9 9.6
1058(18) 0.003076 1053.4 10.1
1057(18) 0.003127 1053.8 10.6
1079(18) 0.003151 1054.3 11.2
1058(17) 0.003403 1054.7 11.8
1044(17) 0.003269 1055.2 12.5
1036(17) 0.003270 1055.6 13.2
1094(18) 0.003051 1056.1 14.0
1087(17) 0.003186 1056.5 14.9
1106(17) 0.003273 1057.0 15.8
1108(18) 0.003104 1057.4 16.8
1092(18) 0.003032 1057.9 17.9
1053(17) 0.003214 1058.3 19.1
1123(18) 0.003119 1058.7 20.5
1104(17) 0.003239 1059.2 21.9
1098(18) 0.003034 1059.6 23.4
1106(18) 0.002932 1060.1 25.0
1065(17) 0.003196 1060.5 26.8
1087(17) 0.003208 1061.0 28.7
1023(17) 0.003503 1061.4 30.6
1132(18) 0.002929 1061.9 32.6
1118(18) 0.002914 1062.3 34.7
1099(18) 0.003078 1062.8 36.8
1093(17) 0.003251 1063.2 38.9
1103(17) 0.003292 1063.7 40.9
1090(18) 0.003033 1064.1 42.8
1096(18) 0.002864 1064.6 44.4
1034(17) 0.003255 1065.0 45.8
1070(17) 0.003297 1065.4 46.8
1113(17) 0.003232 1065.9 47.4
1060(17) 0.003265 1066.3 47.6
1077(18) 0.002935 1066.8 47.3
1096(18) 0.003090 1067.2 46.7
1107(17) 0.003249 1067.7 45.6
1079(17) 0.003297 1068.1 44.1
1086(18) 0.003065 1068.2 42.4
1097(18) 0.002901 1067.8 40.5
1085(17) 0.003193 1067.5 38.5
1129(17) 0.003188 1067.1 36.4
1081(17) 0.003305 1066.8 34.3
1133(18) 0.002926 1066.5 32.2
1081(18) 0.002923 1066.1 30.2
1066(18) 0.003122 1065.8 28.2
1101(17) 0.003258 1065.4 26.4
1092(17) 0.003257 1065.1 24.7
1081(18) 0.003115 1064.7 23.0
1018(17) 0.003279 1064.4 21.5
1106(18) 0.003025 1064.0 20.1
1118(17) 0.003232 1063.7 18.8
1104(18) 0.003151 1063.4 17.6
1039(17) 0.003214 1063.0 16.5
1097(18) 0.002970 1062.7 15.4
1048(17) 0.003289 1062.3 14.5
1073(17) 0.003364 1062.0 13.6
1070(17) 0.003179 1061.6 12.8
1074(18) 0.003065 1061.3 12.1
1098(18) 0.002992 1060.9 11.4
1060(17) 0.003259 1060.6 10.8
1058(17) 0.003397 1060.2 10.3
1064(18) 0.003137 1059.9 9.7
1033(18) 0.003163 1059.6 9.3
1031(17) 0.003232 1059.2 8.8
1079(17) 0.003234 1058.9 8.4
1055(17) 0.003396 1058.5 8.0
1081(18) 0.003122 1058.2 7.7
1052(18) 0.003163 1057.8 7.4
1072(18) 0.003088 1057.5 7.1
1078(17) 0.003190 1057.1 6.8
992(16) 0.00365 1056.8 6.5
1023(17) 0.003256 1056.5 6.3
1046(18) 0.003117 1056.1 6.1
1056(18) 0.003167 1055.8 5.8
1048(17) 0.003345 1055.4 5.6
1027(17) 0.00351 1055.1 5.5
1074(18) 0.003161 1054.7 5.3
1051(18) 0.003048 1054.4 5.1
1058(17) 0.003197 1054.0 5.0
1071(17) 0.003343 1053.7 4.8
1057(17) 0.003381 1053.4 4.7
1045(17) 0.003209 1053.0 4.5
1054(18) 0.002973 1052.7 4.4
1081(18) 0.003133 1052.3 4.3
1054(17) 0.003422 1052.0 4.2
1068(17) 0.003375 1051.6 4.1
1057(17) 0.003218 1051.3 4.0
1086(18) 0.002896 1050.9 3.9
1060(17) 0.003220 1050.6 3.8
1035(17) 0.003487 1050.3 3.7
1083(17) 0.003279 1049.9 3.6
1092(18) 0.003088 1049.6 3.5
1062(18) 0.003046 1049.2 3.5
1097(18) 0.003041 1048.9 3.4
1102(17) 0.003299 1048.5 3.3
1086(17) 0.003235 1048.2 3.3
1047(17) 0.003197 1047.8 3.2
1026(17) 0.003198 1047.5 3.1
1052(17) 0.003196 1047.2 3.1
1091(17) 0.003318 1046.8 3.0
1059(17) 0.003306 1046.5 3.0
1026(17) 0.003289 1046.1 2.9
1099(18) 0.003006 1045.8 2.9
1071(18) 0.003140 1045.4 2.8
1052(17) 0.003426 1045.1 2.8
1022(17) 0.003426 1044.7 2.7
1061(17) 0.003185 1044.4 2.7
1082(18) 0.003079 1044.0 2.6
1037(17) 0.003370 1043.7 2.6
1034(17) 0.003487 1043.4 2.6
1068(17) 0.003204 1043.0 2.5
1063(18) 0.003128 1042.7 2.5
1094(18) 0.003019 1042.3 2.4
1085(17) 0.003227 1042.0 2.4
1086(17) 0.003318 1041.6 2.4
1076(18) 0.003122 1041.3 2.4
1065(18) 0.003033 1040.9 2.3
1029(17) 0.003293 1040.6 2.3
1062(17) 0.003283 1040.3 2.3
1021(17) 0.00352 1039.9 2.2
1041(17) 0.003268 1039.6 2.2
1050(18) 0.003076 1039.2 2.2
1080(18) 0.003055 1038.9 2.2
997(17) 0.00354 1038.5 2.1
1005(16) 0.00359 1038.2 2.1
1056(18) 0.003132 1037.8 2.1
1000(17) 0.003242 1037.5 2.1
1049(17) 0.003183 1037.2 2.0
1051(17) 0.003378 1036.8 2.0
1058(17) 0.003403 1036.5 2.0
1044(17) 0.003183 1036.1 2.0
1058(18) 0.002994 1035.8 2.0
1062(17) 0.003208 1035.4 1.9
1054(17) 0.003400 1035.1 1.9
1011(17) 0.00354 1034.7 1.9
1072(18) 0.003165 1034.4 1.9
1011(18) 0.003132 1034.1 1.9
1090(18) 0.003033 1033.7 1.9
1040(17) 0.003474 1033.4 1.8
1051(17) 0.003432 1033.0 1.8
1046(17) 0.003233 1032.7 1.8
1048(18) 0.003001 1032.3 1.8
1023(17) 0.003320 1032.0 1.8
1029(17) 0.003477 1031.6 1.8
1056(17) 0.003378 1031.3 1.8
1056(18) 0.003151 1030.9 1.7
1043(18) 0.003084 1030.6 1.7
1077(18) 0.003126 1030.3 1.7
1055(17) 0.003390 1029.9 1.7
1058(17) 0.003292 1029.6 1.7
1082(18) 0.003134 1029.2 1.7
1096(18) 0.002933 1028.9 1.7
1062(18) 0.003128 1028.5 1.7
1042(17) 0.003440 1028.2 1.6
1045(17) 0.003363 1027.8 1.6
1034(17) 0.003208 1027.5 1.6
1051(18) 0.003095 1027.2 1.6
1044(17) 0.003275 1026.8 1.6
1050(17) 0.003431 1026.5 1.6
1030(17) 0.003283 1026.1 1.6
1064(18) 0.003104 1025.8 1.6
1075(18) 0.003017 1025.4 1.6
1028(17) 0.003364 1025.1 1.6
1058(17) 0.003415 1024.7 1.5
1046(17) 0.003206 1024.4 1.5
1032(17) 0.003202 1024.1 1.5
1091(18) 0.003094 1023.7 1.5
1091(17) 0.003222 1023.4 1.5
1100(17) 0.003277 1023.0 1.5
1045(17) 0.003214 1022.7 1.5
1076(18) 0.003027 1022.3 1.5
1063(17) 0.003178 1022.0 1.5
1091(17) 0.003247 1021.6 1.5
1072(17) 0.003368 1021.3 1.5
1056(18) 0.003165 1021.0 1.5
1091(18) 0.002914 1020.6 1.5
1034(17) 0.003291 1020.3 1.4
1071(17) 0.003294 1019.9 1.4
1063(17) 0.003410 1019.6 1.4
1033(17) 0.003282 1019.2 1.4
1101(18) 0.002896 1018.9 1.4
1024(17) 0.003372 1018.5 1.4
1075(17) 0.003318 1018.2 1.4
1042(17) 0.003449 1017.8 1.4
1075(18) 0.003086 1017.5 1.4
1067(18) 0.002891 1017.2 1.4
1038(17) 0.003270 1016.8 1.4
1015(17) 0.00353 1016.5 1.4
1035(17) 0.003482 1016.1 1.4
1047(17) 0.003275 1015.8 1.4
1069(18) 0.002898 1015.4 1.4
1064(18) 0.003126 1015.1 1.4
1005(17) 0.00355 1014.7 1.4
1028(17) 0.003458 1014.4 1.4
1012(17) 0.003325 1014.1 1.3
1038(18) 0.003072 1013.7 1.3
1083(18) 0.003124 1013.4 1.3
1031(17) 0.003502 1013.0 1.3
1020(17) 0.003427 1012.7 1.3
1041(17) 0.003196 1012.3 1.3
1006(17) 0.003185 1012.0 1.3
984(17) 0.003288 1011.6 1.3
1040(17) 0.003445 1011.3 1.3
1023(17) 0.003431 1011.0 1.3
1038(17) 0.003232 1010.6 1.3
1079(18) 0.003048 1010.3 1.3
1054(17) 0.003259 1009.9 1.3
1039(17) 0.003472 1009.6 1.3
1049(17) 0.003245 1009.2 1.3
997(17) 0.003360 1008.9 1.3
1029(17) 0.003189 1008.5 1.3
1027(17) 0.003306 1008.2 1.3
1051(17) 0.003418 1007.9 1.3
1017(17) 0.003356 1007.5 1.3
980(17) 0.003405 1007.2 1.3
1017(17) 0.003321 1006.8 1.3
1025(17) 0.003422 1006.5 1.3
1062(17) 0.003389 1006.1 1.3
1057(17) 0.003194 1005.8 1.3
1055(18) 0.003058 1005.4 1.3
995(17) 0.003366 1005.1 1.3
1047(17) 0.003317 1004.8 1.2
1067(17) 0.003394 1004.4 1.2
1048(17) 0.003232 1004.1 1.2
1067(18) 0.003042 1003.7 1.2
1049(17) 0.003200 1003.4 1.2
1029(17) 0.003464 1003.0 1.2
1020(17) 0.00353 1002.7 1.2
1017(17) 0.003295 1002.3 1.2
1026(18) 0.003057 1002.0 1.2
1034(17) 0.003278 1001.6 1.2
1046(17) 0.003385 1001.3 1.2
1034(17) 0.003454 1001.0 1.2
1043(17) 0.003222 1000.6 1.2
1040(18) 0.003047 1000.3 1.2
1027(17) 0.003331 999.9 1.2
1011(17) 0.00354 999.6 1.2
1088(17) 0.003265 999.2 1.2
1002(17) 0.003382 998.9 1.2
1034(18) 0.002988 998.5 1.2
983(17) 0.003477 998.2 1.2
1031(17) 0.003464 997.9 1.2
1039(17) 0.003407 997.5 1.2
1051(17) 0.003257 997.2 1.2
1003(17) 0.003312 996.8 1.2
1029(17) 0.003285 996.5 1.2
989(16) 0.00362 996.1 1.2
984(16) 0.00365 995.8 1.2
1064(18) 0.003143 995.4 1.2
1027(18) 0.003159 995.1 1.2
1002(17) 0.003333 994.8 1.2
1016(17) 0.00355 994.4 1.2
1026(17) 0.003403 994.1 1.2
1026(17) 0.003266 993.7 1.2
1005(17) 0.003259 993.4 1.2
1041(17) 0.003214 993.0 1.2
1013(17) 0.00355 992.7 1.2
1000(17) 0.003483 992.3 1.2
1012(17) 0.003343 992.0 1.2
1029(18) 0.003160 991.7 1.2
980(17) 0.003469 991.3 1.2
999(16) 0.00363 991.0 1.2
959(16) 0.00358 990.6 1.2
1005(17) 0.003294 990.3 1.2
1015(17) 0.003228 989.9 1.2
987(17) 0.00351 989.6 1.2
1013(16) 0.00357 989.2 1.2
1034(17) 0.003203 988.9 1.2
1007(17) 0.003225 988.5 1.2
983(17) 0.003467 988.2 1.2
999(17) 0.00353 987.9 1.2
1020(17) 0.003504 987.5 1.2
977(17) 0.003413 987.2 1.2
979(17) 0.003310 986.8 1.2
1030(17) 0.003203 986.5 1.2
1003(17) 0.003470 986.1 1.2
1002(16) 0.00358 985.8 1.2
1008(17) 0.003395 985.4 1.2
1003(17) 0.003215 985.1 1.2
992(17) 0.003447 984.8 1.2
991(17) 0.00353 984.4 1.2
1002(16) 0.00358 984.1 1.2
996(17) 0.003383 983.7 1.2
995(18) 0.003142 983.4 1.2
978(17) 0.003467 983.0 1.2
1002(17) 0.00353 982.7 1.2
1001(16) 0.00359 982.3 1.2
1003(17) 0.003390 982.0 1.2
1013(18) 0.003066 981.7 1.2
1001(17) 0.003343 981.3 1.2
986(16) 0.00365 981.0 1.2
1008(16) 0.00357 980.6 1.2
1010(17) 0.003324 980.3 1.2
999(18) 0.003157 979.9 1.2
961(17) 0.003414 979.6 1.2
985(16) 0.00362 979.2 1.2
1005(17) 0.003490 978.9 1.2
1012(17) 0.003211 978.6 1.2
966(17) 0.003364 978.2 1.2
984(17) 0.003340 977.9 1.2
988(16) 0.00363 977.4 1.2
1002(17) 0.003451 977.0 1.2
1016(17) 0.003246 976.5 1.2
1000(17) 0.003308 976.0 1.2
1012(17) 0.003267 975.5 1.2
981(16) 0.00365 975.0 1.2
975(17) 0.00352 974.5 1.2
980(17) 0.003389 974.0 1.2
962(17) 0.003374 973.5 1.2
959(17) 0.003483 973.0 1.2
980(16) 0.00368 972.5 1.2
989(17) 0.003369 972.0 1.2
949(17) 0.003502 971.5 1.2
951(17) 0.003432 971.1 1.2
958(16) 0.00358 970.6 1.2
959(16) 0.00371 970.1 1.2
1076(18) 0.003110 969.6 1.2
969(17) 0.003382 969.1 1.2
983(17) 0.003368 968.6 1.2
1011(17) 0.003457 968.1 1.2
960(16) 0.00367 967.6 1.2
962(17) 0.003492 967.1 1.2
948(17) 0.003392 966.6 1.2
955(17) 0.00351 966.1 1.2
940(16) 0.00379 965.6 1.2
984(16) 0.00357 965.1 1.2
968(17) 0.003440 964.7 1.2
979(17) 0.003217 964.2 1.2
981(17) 0.003499 963.7 1.2
987(16) 0.00358 963.2 1.2
967(16) 0.00366 962.7 1.2
994(17) 0.003385 962.2 1.2
1006(18) 0.003084 961.7 1.2
1010(17) 0.003319 961.2 1.2
984(16) 0.00366 960.7 1.2
980(16) 0.00365 960.2 1.2
992(17) 0.003410 959.7 1.2
999(18) 0.003118 959.2 1.2
996(17) 0.003411 958.8 1.2
988(16) 0.00360 958.3 1.2
980(16) 0.00365 957.8 1.2
961(17) 0.003448 957.3 1.2
985(17) 0.003196 956.8 1.2
933(16) 0.00371 956.3 1.2
1010(16) 0.00357 955.8 1.2
981(16) 0.00358 955.3 1.3
931(16) 0.00365 954.8 1.3
997(18) 0.003155 954.3 1.3
962(17) 0.00355 953.8 1.3
993(16) 0.00362 953.3 1.3
942(16) 0.00377 952.9 1.3
967(17) 0.003473 952.4 1.3
1003(17) 0.003209 951.9 1.3
957(17) 0.00354 951.4 1.3
975(16) 0.00369 950.9 1.3
968(16) 0.00360 950.4 1.3
947(17) 0.00355 949.9 1.3
919(16) 0.00360 949.4 1.3
922(16) 0.00357 948.9 1.3
985(16) 0.00366 948.4 1.3
932(16) 0.00369 947.9 1.3
902(16) 0.00365 947.4 1.3
926(16) 0.00363 947.0 1.3
1016(17) 0.003297 946.5 1.3
934(16) 0.00385 946.0 1.3
962(17) 0.003466 945.5 1.3
948(17) 0.003449 945.0 1.3
922(16) 0.00366 944.5 1.3
954(16) 0.00361 944.0 1.3
924(16) 0.00388 943.5 1.3
930(16) 0.00359 943.0 1.3
964(17) 0.003358 942.5 1.3
960(17) 0.003506 942.0 1.3
985(16) 0.00358 941.5 1.4
941(16) 0.00379 941.1 1.4
948(16) 0.00362 940.6 1.4
967(17) 0.003286 940.1 1.4
925(16) 0.00364 939.6 1.4
972(16) 0.00363 939.1 1.4
929(16) 0.00386 938.6 1.4
963(17) 0.003473 938.1 1.4
958(17) 0.003250 937.6 1.4
964(17) 0.003435 937.1 1.4
947(16) 0.00379 936.6 1.4
928(16) 0.00385 936.1 1.4
922(16) 0.00370 935.6 1.4
941(17) 0.003366 935.1 1.4
951(16) 0.00356 934.7 1.4
960(16) 0.00376 934.2 1.4
978(16) 0.00366 933.7 1.4
952(17) 0.00355 933.2 1.4
935(17) 0.003438 932.7 1.5
956(17) 0.00352 932.2 1.5
930(16) 0.00386 931.7 1.5
946(16) 0.00379 931.2 1.5
975(17) 0.003423 930.7 1.5
924(17) 0.003442 930.2 1.5
935(17) 0.00355 929.7 1.5
978(16) 0.00365 929.2 1.5
918(16) 0.00384 928.8 1.5
876(16) 0.00382 928.3 1.5
905(16) 0.00360 927.8 1.5
951(17) 0.003479 927.3 1.5
977(16) 0.00369 926.8 1.6
911(16) 0.00381 926.3 1.6
959(17) 0.003459 925.8 1.6
921(17) 0.003506 925.3 1.6
929(17) 0.00354 924.8 1.6
904(16) 0.00396 924.3 1.6
916(16) 0.00379 923.8 1.6
950(17) 0.00351 923.3 1.6
941(17) 0.00355 922.9 1.6
941(16) 0.00361 922.4 1.6
944(16) 0.00381 921.9 1.7
929(16) 0.00367 921.4 1.7
938(16) 0.00357 920.9 1.7
939(16) 0.00356 920.4 1.7
937(16) 0.00368 919.9 1.7
957(16) 0.00376 919.4 1.7
915(16) 0.00373 918.9 1.7
935(16) 0.00359 918.4 1.7
965(17) 0.003417 917.9 1.8
890(16) 0.00395 917.4 1.8
910(16) 0.00393 917.0 1.8
897(16) 0.00375 916.5 1.8
941(17) 0.003403 916.0 1.8
932(16) 0.00358 915.5 1.8
919(16) 0.00384 915.0 1.8
926(16) 0.00389 914.5 1.9
918(16) 0.00362 914.0 1.9
897(17) 0.003460 913.5 1.9
913(16) 0.00363 913.0 1.9
923(16) 0.00392 912.5 1.9
966(16) 0.00374 912.0 1.9
988(17) 0.003367 911.5 2.0
940(17) 0.003382 911.0 2.0
926(16) 0.00366 910.6 2.0
957(16) 0.00375 910.1 2.0
915(16) 0.00390 909.6 2.0
903(16) 0.00374 909.1 2.1
938(17) 0.003344 908.6 2.1
887(16) 0.00385 908.1 2.1
911(16) 0.00392 907.6 2.1
906(16) 0.00392 907.1 2.2
858(16) 0.00395 906.6 2.2
881(16) 0.00365 906.1 2.2
945(17) 0.00354 905.6 2.2
935(16) 0.00385 905.1 2.3
887(16) 0.00387 904.7 2.3
911(16) 0.00365 904.2 2.3
936(17) 0.003382 903.7 2.4
935(17) 0.003491 903.2 2.4
910(16) 0.00390 902.7 2.4
931(16) 0.00373 902.2 2.5
904(16) 0.00380 901.7 2.5
932(17) 0.003500 901.2 2.6
905(16) 0.00364 900.7 2.6
908(16) 0.00398 900.2 2.6
906(16) 0.00385 899.7 2.7
902(16) 0.00370 899.2 2.7
926(17) 0.00351 898.8 2.8
913(16) 0.00373 898.3 2.8
914(16) 0.00391 897.8 2.9
908(16) 0.00377 897.3 3.0
887(16) 0.00375 896.8 3.0
911(16) 0.00367 896.3 3.1
933(16) 0.00370 895.8 3.2
938(16) 0.00383 895.3 3.2
898(16) 0.00378 894.8 3.3
888(16) 0.00376 894.3 3.4
911(16) 0.00364 893.8 3.5
900(16) 0.00386 893.3 3.6
900(16) 0.00397 892.9 3.7
907(16) 0.00366 892.4 3.8
894(16) 0.00359 891.9 3.9
902(16) 0.00370 891.4 4.0
882(16) 0.00394 890.9 4.1
899(15) 0.00403 890.4 4.3
870(16) 0.00380 889.9 4.4
904(17) 0.003416 889.4 4.6
869(16) 0.00385 888.9 4.7
925(16) 0.00382 888.4 4.9
863(15) 0.00416 887.9 5.1
871(16) 0.00388 887.4 5.3
897(17) 0.003442 887.0 5.5
873(16) 0.00378 886.5 5.7
861(15) 0.00415 886.0 6.0
877(15) 0.00401 885.5 6.2
876(16) 0.00381 885.0 6.5
875(16) 0.00365 884.5 6.8
884(16) 0.00384 884.0 7.1
890(15) 0.00402 883.5 7.4
898(16) 0.00395 883.0 7.8
841(16) 0.00399 882.5 8.2
869(16) 0.00367 882.0 8.5
894(16) 0.00378 881.5 8.9
914(16) 0.00392 881.0 9.3
918(16) 0.00381 880.6 9.7
869(16) 0.00396 880.1 10.2
917(17) 0.003472 879.6 10.6
880(16) 0.00379 879.1 11.0
908(16) 0.00395 878.6 11.4
906(16) 0.00383 878.1 11.7
901(16) 0.00367 877.6 12.1
881(16) 0.00363 877.1 12.3
891(16) 0.00378 876.6 12.6
881(15) 0.00408 876.1 12.7
934(16) 0.00366 875.6 12.9
920(16) 0.00362 875.1 12.9
864(16) 0.00388 874.7 12.9
899(16) 0.00379 874.2 12.8
905(16) 0.00395 873.7 12.6
906(16) 0.00380 873.2 12.4
950(17) 0.003432 872.7 12.1
892(16) 0.00367 872.2 11.8
894(16) 0.00380 871.7 11.4
869(15) 0.00412 871.2 11.1
854(16) 0.00391 870.7 10.7
879(16) 0.00370 870.2 10.3
867(16) 0.00392 869.7 10.0
873(15) 0.00402 869.2 9.6
868(15) 0.00413 868.8 9.2
859(16) 0.00390 868.3 8.9
863(16) 0.00379 867.8 8.6
887(16) 0.00374 867.3 8.2
855(15) 0.00418 866.8 7.9
903(16) 0.00395 866.3 7.7
907(16) 0.00373 865.8 7.4
881(16) 0.00366 865.3 7.2
874(16) 0.00382 864.8 6.9
867(15) 0.00412 864.3 6.7
916(16) 0.00394 863.8 6.5
869(16) 0.00382 863.3 6.4
842(16) 0.00378 862.9 6.2
855(16) 0.00380 862.4 6.1
854(15) 0.00422 861.9 5.9
889(15) 0.00404 861.4 5.8
850(16) 0.00387 860.9 5.7
856(17) 0.00353 860.4 5.6
851(16) 0.00397 859.9 5.5
848(15) 0.00415 859.4 5.4
835(15) 0.00431 858.9 5.3
851(16) 0.00387 858.4 5.3
841(16) 0.00378 857.9 5.2
867(16) 0.00395 857.4 5.2
895(15) 0.00402 857.0 5.1
915(16) 0.00382 856.5 5.1
857(16) 0.00390 856.0 5.1
829(16) 0.00399 855.5 5.1
897(16) 0.00372 855.0 5.0
863(15) 0.00416 854.5 5.0
824(15) 0.00425 854.0 5.0
854(16) 0.00399 853.5 5.0
859(16) 0.00378 853.0 5.0
832(15) 0.00409 852.5 5.0
833(15) 0.00428 852.0 5.0
814(15) 0.00419 851.5 5.1
840(16) 0.00390 851.0 5.1
861(16) 0.00375 850.6 5.1
844(15) 0.00402 850.1 5.1
887(15) 0.00407 849.6 5.2
830(15) 0.00419 849.1 5.2
883(16) 0.00378 848.6 5.2
858(16) 0.00383 848.1 5.3
795(15) 0.00423 847.6 5.3
813(15) 0.00440 847.1 5.4
826(15) 0.00407 846.6 5.4
816(15) 0.00404 846.1 5.5
831(16) 0.00399 845.6 5.6
815(15) 0.00427 845.1 5.7
831(15) 0.00432 844.7 5.7
833(16) 0.00396 844.2 5.8
891(16) 0.00362 843.7 5.9
906(16) 0.00369 843.2 6.0
870(16) 0.00399 842.7 6.1
859(15) 0.00420 842.2 6.2
849(15) 0.00404 841.7 6.3
850(16) 0.00382 841.2 6.4
833(16) 0.00397 840.7 6.5
818(15) 0.00421 840.2 6.7
804(15) 0.00446 839.7 6.8
790(15) 0.00424 839.2 6.9
798(16) 0.00397 838.8 7.1
799(15) 0.00424 838.3 7.2
862(15) 0.00409 837.8 7.4
808(15) 0.00443 837.3 7.6
847(16) 0.00392 836.8 7.8
814(16) 0.00389 836.3 8.0
868(16) 0.00388 835.8 8.2
889(15) 0.00403 835.3 8.4
857(15) 0.00416 834.8 8.6
834(15) 0.00407 834.3 8.9
828(16) 0.00382 833.8 9.1
865(16) 0.00394 833.3 9.4
814(15) 0.00440 832.9 9.7
823(15) 0.00432 832.4 10.0
819(15) 0.00418 831.9 10.4
848(16) 0.00378 831.4 10.8
842(16) 0.00396 830.9 11.1
838(15) 0.00428 830.4 11.6
813(15) 0.00428 829.9 12.0
844(16) 0.00394 829.4 12.5
849(16) 0.00376 828.9 13.0
852(16) 0.00385 828.4 13.5
823(15) 0.00434 827.9 14.1
837(15) 0.00418 827.4 14.8
826(15) 0.00413 827.0 15.5
871(16) 0.00368 826.5 16.2
857(16) 0.00389 826.0 17.1
844(15) 0.00423 825.5 18.0
854(16) 0.00395 825.0 19.0
856(16) 0.00382 824.5 20.0
796(15) 0.00414 824.0 21.2
828(15) 0.00415 823.5 22.5
815(15) 0.00439 823.0 24.0
818(15) 0.00420 822.5 25.6
816(15) 0.00407 822.0 27.4
845(16) 0.00391 821.5 29.4
807(15) 0.00426 821.0 31.7
818(15) 0.00437 820.6 34.3
826(15) 0.00411 820.1 37.2
843(16) 0.00389 819.6 40.5
857(16) 0.00387 819.1 44.3
843(15) 0.00412 818.6 48.8
861(15) 0.00418 818.1 54.0
877(16) 0.00383 817.6 60.4
907(16) 0.00357 817.1 68.2
917(16) 0.00369 816.6 78.1
907(16) 0.00391 816.1 91.1
942(16) 0.00377 815.6 108.4
991(17) 0.003392 815.1 131.8
963(17) 0.003303 814.7 163.5
993(17) 0.003444 814.2 206.0
1102(17) 0.003259 813.7 261.7
1096(17) 0.003287 813.2 332.8
1181(19) 0.002846 812.7 420.1
1267(20) 0.002472 812.2 522.9
1354(20) 0.002524 811.7 637.4
1491(20) 0.002427 811.2 755.2
1580(21) 0.002297 810.7 862.1
1705(22) 0.002026 810.2 938.0
1772(23) 0.001815 809.7 963.6
1751(22) 0.001946 809.2 931.3
1664(21) 0.002195 808.8 850.6
1498(20) 0.002393 808.3 741.5
1389(20) 0.002436 807.8 623.4
1255(19) 0.002583 807.3 510.2
1150(18) 0.002918 806.8 409.1
1081(17) 0.003347 806.3 323.8
1021(17) 0.003397 805.8 254.8
1031(17) 0.003291 805.3 200.8
965(17) 0.003410 804.8 159.9
962(17) 0.00352 804.3 129.4
916(16) 0.00392 803.8 106.9
892(16) 0.00388 803.3 90.3
909(17) 0.00354 802.9 77.8
847(16) 0.00387 802.4 68.2
881(16) 0.00385 801.9 60.7
866(15) 0.00415 801.4 54.6
856(16) 0.00397 800.9 49.5
863(16) 0.00389 800.4 45.2
834(16) 0.00396 799.9 41.5
831(15) 0.00404 799.4 38.3
807(15) 0.00444 798.9 35.5
832(15) 0.00408 798.4 33.1
818(16) 0.00401 797.9 30.9
845(16) 0.00378 797.4 29.0
773(15) 0.00433 797.0 27.3
847(15) 0.00424 796.5 25.8
789(15) 0.00425 796.0 24.5
809(16) 0.00398 795.5 23.3
809(15) 0.00413 795.0 22.2
786(15) 0.00441 794.5 21.2
825(15) 0.00433 794.0 20.3
830(16) 0.00393 793.5 19.5
839(16) 0.00372 793.0 18.8
793(15) 0.00408 792.5 18.1
753(14) 0.00464 792.0 17.5
850(15) 0.00422 791.5 17.0
823(16) 0.00400 791.0 16.5
805(16) 0.00395 790.6 16.0
797(15) 0.00425 790.1 15.6
800(15) 0.00441 789.6 15.2
771(14) 0.00460 789.1 14.9
762(15) 0.00429 788.6 14.6
827(16) 0.00368 788.1 14.3
760(15) 0.00445 787.6 14.1
774(14) 0.00460 787.1 13.8
804(15) 0.00443 786.6 13.6
784(15) 0.00432 786.1 13.5
807(16) 0.00379 785.6 13.3
778(15) 0.00438 785.1 13.2
777(14) 0.00462 784.7 13.0
774(15) 0.00448 784.2 12.9
776(15) 0.00426 783.7 12.9
766(15) 0.00403 783.2 12.8
811(15) 0.00409 782.7 12.7
815(15) 0.00440 782.2 12.7
800(15) 0.00440 781.7 12.7
815(15) 0.00412 781.2 12.6
804(16) 0.00398 780.7 12.6
810(15) 0.00408 780.2 12.7
762(14) 0.00468 779.7 12.7
759(14) 0.00466 779.2 12.7
775(15) 0.00426 778.8 12.8
759(15) 0.00426 778.3 12.9
749(15) 0.00443 777.8 13.0
774(14) 0.00459 777.3 13.1
798(15) 0.00431 776.8 13.2
770(15) 0.00430 776.3 13.4
789(15) 0.00424 775.8 13.5
781(15) 0.00442 775.3 13.7
762(14) 0.00465 774.8 14.0
744(15) 0.00454 774.3 14.2
783(15) 0.00417 773.8 14.5
784(15) 0.00413 773.3 14.8
792(15) 0.00426 772.9 15.2
763(14) 0.00465 772.4 15.5
798(15) 0.00416 771.9 15.9
784(15) 0.00417 771.4 16.2
764(15) 0.00432 770.9 16.5
768(15) 0.00444 770.4 16.7
788(15) 0.00453 769.9 16.8
757(15) 0.00423 769.4 17.0
745(15) 0.00438 768.9 17.1
755(15) 0.00436 768.4 17.2
729(14) 0.00479 767.9 17.4
764(14) 0.00466 767.4 17.6
761(15) 0.00437 767.0 17.8
772(15) 0.00411 766.5 18.0
750(15) 0.00447 766.0 18.3
787(15) 0.00450 765.5 18.7
734(14) 0.00484 765.0 19.1
768(15) 0.00427 764.5 19.5
761(15) 0.00410 764.0 19.9
749(15) 0.00446 763.5 20.4
729(14) 0.00488 763.0 20.9
737(14) 0.00473 762.5 21.4
769(15) 0.00435 762.0 22.0
765(15) 0.00405 761.5 22.6
754(15) 0.00438 761.0 23.3
766(14) 0.00465 760.6 23.9
794(15) 0.00448 760.1 24.7
778(15) 0.00433 759.6 25.4
758(15) 0.00419 759.1 26.3
768(15) 0.00422 758.6 27.1
748(14) 0.00474 758.1 28.1
786(15) 0.00447 757.6 29.0
768(15) 0.00427 757.1 30.1
803(16) 0.00390 756.6 31.2
740(15) 0.00448 756.1 32.4
761(14) 0.00469 755.6 33.6
781(15) 0.00448 755.1 35.0
776(15) 0.00432 754.7 36.4
768(15) 0.00415 754.2 37.9
805(15) 0.00410 753.7 39.5
767(14) 0.00463 753.2 41.3
735(14) 0.00470 752.7 43.2
778(15) 0.00415 752.2 45.2
797(16) 0.00400 751.7 47.3
776(15) 0.00443 751.2 49.7
850(15) 0.00421 750.7 52.2
794(15) 0.00421 750.2 54.9
800(15) 0.00412 749.7 57.9
809(15) 0.00405 749.2 61.1
773(15) 0.00448 748.8 64.6
790(15) 0.00453 748.3 68.4
811(15) 0.00412 747.8 72.6
790(15) 0.00424 747.3 77.2
786(15) 0.00429 746.8 82.3
807(15) 0.00428 746.3 88.0
818(15) 0.00437 745.8 94.3
856(16) 0.00382 745.3 101.3
820(15) 0.00405 744.8 109.1
856(16) 0.00396 744.3 118.0
854(15) 0.00404 743.8 128.0
834(15) 0.00434 743.3 139.2
904(16) 0.00375 742.9 152.0
901(17) 0.00352 742.4 166.5
908(16) 0.00373 741.9 183.0
909(16) 0.00388 741.4 201.7
959(16) 0.00374 740.9 222.9
962(17) 0.00353 740.4 246.9
990(17) 0.003243 739.9 273.9
1048(17) 0.003277 739.4 304.2
1091(17) 0.003272 738.9 338.0
1096(17) 0.003247 738.4 375.5
1193(18) 0.002853 737.9 416.6
1274(20) 0.002407 737.4 461.0
1274(19) 0.002669 737.0 508.3
1339(19) 0.002696 736.5 557.3
1438(20) 0.002532 736.0 606.5
1502(21) 0.002266 735.5 653.5
1487(21) 0.002160 735.0 695.4
1511(21) 0.002276 734.5 729.0
1540(20) 0.002370 734.0 751.2
1490(20) 0.002404 733.5 759.7
1457(20) 0.002367 733.0 753.7
1399(20) 0.002346 732.5 733.6
1325(19) 0.002620 732.0 701.8
1327(19) 0.002722 731.5 661.1
1307(19) 0.002729 731.0 614.8
1227(19) 0.002789 730.6 565.9
1184(19) 0.002719 730.1 516.8
1146(18) 0.002979 729.6 469.2
1123(17) 0.003235 729.1 424.2
1072(17) 0.003297 728.6 382.6
1051(17) 0.003283 728.1 344.6
1030(17) 0.003258 727.6 310.3
1011(17) 0.003379 727.1 279.4
963(16) 0.00375 726.6 252.0
995(17) 0.003403 726.1 227.6
965(17) 0.003465 725.6 206.0
939(17) 0.00351 725.1 187.0
922(16) 0.00363 724.7 170.3
924(16) 0.00388 724.2 155.5
863(16) 0.00394 723.7 142.6
868(16) 0.00380 723.2 131.1
869(16) 0.00378 722.7 121.0
867(16) 0.00391 722.2 112.1
831(15) 0.00430 721.7 104.2
851(16) 0.00390 721.2 97.1
831(16) 0.00392 720.7 90.8
827(15) 0.00401 720.2 85.2
824(15) 0.00420 719.7 80.1
845(15) 0.00422 719.2 75.5
769(15) 0.00439 718.8 71.4
806(16) 0.00392 718.3 67.6
805(15) 0.00409 717.8 64.2
792(15) 0.00442 717.3 61.0
804(15) 0.00442 716.8 58.2
783(15) 0.00418 716.3 55.5
765(15) 0.00423 715.8 53.1
785(15) 0.00425 715.3 50.9
738(14) 0.00476 714.8 48.9
733(14) 0.00489 714.3 47.0
748(15) 0.00442 713.8 45.3
794(16) 0.00389 713.3 43.7
744(14) 0.00466 712.9 42.3
770(14) 0.00459 712.4 40.9
736(14) 0.00483 711.9 39.7
761(15) 0.00438 711.4 38.6
733(15) 0.00433 710.9 37.6
710(14) 0.00469 710.4 36.7
702(14) 0.00503 709.9 35.9
737(14) 0.00477 709.4 35.1
733(14) 0.00463 708.9 34.5
726(15) 0.00440 708.4 33.9
701(14) 0.00469 707.9 33.4
713(14) 0.00500 707.4 33.0
737(14) 0.00469 706.9 32.7
714(14) 0.00477 706.5 32.5
771(15) 0.00418 706.0 32.4
727(14) 0.00466 705.5 32.3
720(14) 0.00492 705.0 32.3
750(14) 0.00472 704.5 32.5
714(14) 0.00468 704.0 32.7
712(14) 0.00459 703.5 33.1
740(15) 0.00449 703.0 33.6
770(14) 0.00461 702.5 34.3
751(14) 0.00462 702.0 35.1
734(15) 0.00454 701.5 36.0
772(15) 0.00418 701.0 37.2
723(14) 0.00465 700.6 38.6
761(14) 0.00472 700.1 40.1
708(14) 0.00494 699.6 42.0
729(15) 0.00452 699.1 44.1
747(15) 0.00436 698.6 46.5
774(15) 0.00436 698.1 49.2
779(14) 0.00457 697.6 52.3
738(15) 0.00451 697.1 55.6
759(15) 0.00421 696.6 59.3
747(15) 0.00445 696.1 63.4
755(14) 0.00457 695.6 67.6
778(14) 0.00458 695.1 72.1
787(15) 0.00425 694.7 76.6
776(15) 0.00415 694.2 81.0
770(15) 0.00444 693.7 85.0
782(15) 0.00446 693.2 88.5
762(14) 0.00472 692.7 91.1
806(16) 0.00400 692.2 92.7
788(16) 0.00394 691.7 93.0
760(15) 0.00436 691.2 92.2
779(15) 0.00452 690.7 90.2
768(14) 0.00471 690.2 87.3
796(15) 0.00430 689.7 83.7
770(15) 0.00418 689.2 79.7
778(15) 0.00436 688.8 75.5
746(14) 0.00478 688.3 71.3
742(14) 0.00477 687.8 67.2
749(15) 0.00453 687.3 63.5
739(15) 0.00424 686.8 60.0
717(14) 0.00462 686.3 57.0
705(14) 0.00502 685.8 54.3
683(14) 0.00521 685.3 52.0
699(14) 0.00476 684.8 50.1
729(15) 0.00422 684.3 48.6
725(14) 0.00468 683.8 47.4
720(14) 0.00496 683.3 46.6
712(14) 0.00491 682.9 46.1
686(14) 0.00489 682.4 45.9
756(15) 0.00415 681.9 46.0
705(14) 0.00470 681.4 46.5
680(13) 0.00525 680.9 47.3
680(14) 0.00505 680.4 48.3
702(14) 0.00464 679.9 49.7
703(15) 0.00455 679.4 51.3
745(15) 0.00446 678.9 53.2
732(14) 0.00487 678.4 55.3
700(14) 0.00492 677.9 57.7
761(15) 0.00426 677.4 60.3
740(15) 0.00433 676.9 63.0
728(14) 0.00457 676.5 65.8
747(14) 0.00478 676.0 68.6
769(15) 0.00439 675.5 71.3
748(15) 0.00436 675.0 73.8
751(15) 0.00447 674.5 76.0
775(15) 0.00442 674.0 77.7
777(14) 0.00460 673.5 78.8
766(15) 0.00437 673.0 79.2
755(15) 0.00426 672.5 78.9
730(15) 0.00448 672.0 77.9
738(14) 0.00462 671.5 76.2
745(14) 0.00480 671.0 73.9
732(15) 0.00452 670.6 71.1
701(14) 0.00475 670.1 68.0
744(15) 0.00439 669.6 64.6
688(14) 0.00506 669.1 61.1
699(14) 0.00510 668.6 57.6
714(14) 0.00463 668.1 54.2
697(15) 0.00445 667.6 50.8
693(14) 0.00487 667.1 47.6
725(14) 0.00491 666.6 44.6
763(14) 0.00461 666.1 41.8
740(14) 0.00456 665.6 39.1
702(15) 0.00449 665.1 36.7
685(14) 0.00491 664.7 34.4
703(14) 0.00497 664.2 32.4
668(13) 0.00526 663.7 30.4
683(14) 0.00473 663.2 28.7
634(14) 0.00476 662.7 27.1
697(14) 0.00467 662.2 25.6
723(14) 0.00481 661.7 24.3
684(14) 0.00516 661.2 23.1
707(14) 0.00471 660.7 22.0
708(15) 0.00434 660.2 20.9
664(14) 0.00509 659.7 20.0
668(13) 0.00526 659.2 19.2
684(14) 0.00501 658.8 18.4
637(14) 0.00520 658.3 17.7
691(15) 0.00451 657.8 17.0
690(14) 0.00477 657.3 16.5
696(14) 0.00513 656.8 15.9
688(14) 0.00498 656.3 15.4
679(14) 0.00482 655.8 15.0
645(14) 0.00502 655.3 14.6
660(14) 0.00483 654.8 14.2
654(13) 0.00539 654.3 13.9
661(13) 0.00524 653.8 13.6
690(14) 0.00476 653.3 13.3
680(14) 0.00477 652.9 13.1
678(14) 0.00499 652.4 12.8
669(13) 0.00528 651.9 12.6
667(14) 0.00502 651.4 12.5
706(15) 0.00456 650.9 12.3
668(14) 0.00482 650.4 12.2
659(14) 0.00509 649.9 12.1
669(13) 0.00532 649.4 12.1
649(14) 0.00522 648.9 12.0
675(14) 0.00480 648.4 12.0
651(13) 0.00528 647.9 12.0
688(14) 0.00488 647.4 12.0
631(13) 0.00561 646.9 12.1
651(14) 0.00491 646.5 12.2
670(14) 0.00471 646.0 12.3
677(14) 0.00490 645.5 12.5
682(14) 0.00513 645.0 12.8
630(13) 0.00563 644.5 13.1
651(14) 0.00503 644.0 13.4
665(14) 0.00475 643.5 13.9
634(14) 0.00520 643.0 14.5
654(13) 0.00533 642.5 15.3
669(13) 0.00531 642.0 16.5
620(13) 0.00537 641.5 18.0
633(14) 0.00495 641.0 20.4
693(14) 0.00475 640.6 23.8
678(14) 0.00519 640.1 29.1
661(13) 0.00541 639.6 36.7
712(14) 0.00462 639.1 47.4
689(14) 0.00457 638.6 61.7
760(15) 0.00446 638.1 79.5
783(15) 0.00452 637.6 100.1
754(14) 0.00471 637.1 121.7
772(15) 0.00437 636.6 140.8
783(15) 0.00403 636.1 152.8
800(15) 0.00419 635.6 153.5
826(15) 0.00432 635.1 142.8
780(15) 0.00453 634.7 124.1
731(14) 0.00460 634.2 102.4
713(15) 0.00452 633.7 81.2
704(14) 0.00490 633.2 62.7
680(13) 0.00527 632.7 47.6
698(14) 0.00501 632.2 36.2
689(14) 0.00464 631.7 27.9
627(14) 0.00517 631.2 22.1
686(14) 0.00485 630.7 18.2
649(13) 0.00545 630.2 15.5
656(14) 0.00523 629.7 13.6
641(13) 0.00524 629.2 12.2
658(14) 0.00496 628.8 11.1
658(14) 0.00507 628.3 10.3
617(13) 0.00571 627.8 9.6
579(13) 0.00581 627.3 9.0
603(13) 0.00533 626.8 8.4
611(13) 0.00528 626.3 8.0
630(13) 0.00537 625.8 7.6
611(13) 0.00580 625.3 7.2
637(14) 0.00513 624.8 6.9
628(14) 0.00501 624.3 6.6
625(13) 0.00532 623.8 6.3
626(13) 0.00547 623.3 6.1
637(13) 0.00557 622.9 5.9
624(13) 0.00536 622.4 5.7
627(14) 0.00512 621.9 5.5
638(14) 0.00520 621.4 5.3
607(13) 0.00569 620.9 5.2
617(13) 0.00570 620.4 5.1
628(13) 0.00529 619.9 4.9
609(13) 0.00526 619.4 4.8
636(14) 0.00518 618.9 4.7
605(13) 0.00572 618.4 4.6
651(13) 0.00540 617.9 4.5
635(14) 0.00522 617.4 4.4
599(14) 0.00518 616.9 4.3
581(13) 0.00560 616.5 4.2
616(13) 0.00572 616.0 4.1
637(13) 0.00556 615.5 4.0
619(13) 0.00541 615.0 4.0
616(14) 0.00517 614.5 3.9
624(13) 0.00539 614.0 3.8
646(13) 0.00538 613.5 3.7
614(13) 0.00573 613.0 3.7
612(13) 0.00554 612.5 3.6
636(14) 0.00477 612.0 3.6
593(13) 0.00563 611.5 3.5
603(13) 0.00586 611.0 3.5
628(13) 0.00554 610.6 3.4
624(13) 0.00528 610.1 3.4
596(13) 0.00533 609.6 3.3
643(14) 0.00507 609.1 3.3
628(13) 0.00565 608.6 3.2
617(13) 0.00564 608.1 3.2
615(13) 0.00549 607.6 3.1
593(13) 0.00539 607.1 3.1
603(13) 0.00540 606.6 3.1
652(13) 0.00541 606.1 3.0
628(13) 0.00558 605.6 3.0
624(13) 0.00523 605.1 3.0
601(13) 0.00527 604.7 2.9
573(13) 0.00560 604.2 2.9
602(13) 0.00583 603.7 2.9
618(13) 0.00548 603.2 2.8
620(13) 0.00527 602.7 2.8
636(14) 0.00501 602.2 2.8
590(13) 0.00566 601.7 2.7
617(13) 0.00575 601.2 2.7
599(13) 0.00560 600.7 2.7
605(13) 0.00527 600.2 2.7
597(13) 0.00532 599.7 2.6
591(13) 0.00567 599.2 2.6
634(13) 0.00556 598.8 2.6
618(13) 0.00535 598.3 2.6
566(13) 0.00567 597.8 2.5
589(13) 0.00566 597.3 2.5
606(13) 0.00564 596.8 2.5
583(12) 0.00607 596.3 2.5
603(13) 0.00551 595.8 2.5
621(14) 0.00501 595.3 2.4
587(13) 0.00558 594.8 2.4
582(13) 0.00592 594.3 2.4
614(13) 0.00571 593.8 2.4
591(13) 0.00566 593.3 2.4
613(14) 0.00493 592.9 2.4
586(13) 0.00560 592.4 2.3
605(13) 0.00581 591.9 2.3
608(13) 0.00578 591.4 2.3
610(13) 0.00540 590.9 2.3
593(14) 0.00506 590.4 2.3
602(13) 0.00539 589.9 2.3
589(13) 0.00598 589.4 2.2
603(13) 0.00580 589.2 2.2
618(13) 0.00538 588.9 2.2
610(14) 0.00503 588.6 2.2
582(13) 0.00570 588.3 2.2
592(13) 0.00592 588.0 2.2
605(13) 0.00576 587.7 2.2
598(13) 0.00546 587.5 2.2
612(14) 0.00502 587.2 2.1
608(13) 0.00544 586.9 2.1
587(13) 0.00600 586.6 2.1
605(13) 0.00578 586.3 2.1
591(13) 0.00555 586.0 2.1
585(13) 0.00541 585.8 2.1
609(13) 0.00545 585.5 2.1
627(13) 0.00563 585.2 2.1
591(13) 0.00579 584.9 2.1
555(12) 0.00608 584.6 2.1
582(13) 0.00557 584.3 2.1
612(13) 0.00535 584.1 2.1
606(13) 0.00581 583.8 2.0
595(13) 0.00581 583.5 2.0
621(14) 0.00517 583.2 2.0
612(13) 0.00527 582.9 2.0
550(13) 0.00596 582.6 2.0
542(12) 0.00647 582.4 2.0
576(13) 0.00557 582.1 2.0
588(13) 0.00544 581.8 2.0
593(13) 0.00544 581.5 2.0
596(13) 0.00578 581.2 2.0
605(13) 0.00579 581.0 2.0
566(13) 0.00590 580.7 2.0
592(13) 0.00533 580.4 2.0
576(13) 0.00558 580.1 2.0
542(12) 0.00633 579.8 2.0
572(12) 0.00612 579.5 2.0
588(13) 0.00559 579.3 2.0
599(13) 0.00523 579.0 2.0
590(13) 0.00550 578.7 2.0
586(13) 0.00573 578.4 2.0
594(13) 0.00597 578.1 2.1
562(13) 0.00588 577.8 2.1
563(13) 0.00539 577.6 2.1
611(13) 0.00531 577.3 2.1
607(13) 0.00580 577.0 2.1
562(12) 0.00627 576.7 2.1
582(13) 0.00556 576.4 2.1
590(13) 0.00534 576.1 2.1
587(13) 0.00562 575.9 2.2
546(12) 0.00641 575.6 2.2
564(12) 0.00615 575.3 2.2
583(13) 0.00567 575.0 2.2
567(13) 0.00539 574.7 2.2
576(13) 0.00580 574.4 2.3
586(13) 0.00595 574.2 2.3
605(13) 0.00567 573.9 2.3
580(13) 0.00569 573.6 2.3
576(13) 0.00538 573.3 2.3
554(13) 0.00599 573.0 2.3
541(12) 0.00652 572.7 2.3
589(13) 0.00591 572.5 2.3
582(13) 0.00562 572.2 2.3
557(13) 0.00555 571.9 2.3
593(13) 0.00546 571.6 2.3
545(12) 0.00642 571.3 2.3
572(13) 0.00597 571.0 2.3
566(13) 0.00592 570.8 2.3
564(13) 0.00561 570.5 2.3
603(13) 0.00541 570.2 2.2
580(12) 0.00606 569.9 2.2
583(13) 0.00591 569.6 2.2
586(13) 0.00557 569.3 2.2
569(13) 0.00564 569.1 2.2
565(13) 0.00582 568.8 2.2
535(12) 0.00655 568.5 2.2
533(12) 0.00634 568.2 2.2
591(13) 0.00536 567.9 2.2
567(13) 0.00576 567.6 2.2
601(13) 0.00559 567.4 2.2
550(12) 0.00642 567.1 2.2
540(12) 0.00609 566.8 2.2
547(13) 0.00577 566.5 2.2
550(13) 0.00594 566.2 2.2
557(12) 0.00607 565.9 2.2
576(12) 0.00610 565.7 2.2
542(13) 0.00598 565.4 2.2
556(13) 0.00560 565.1 2.2
558(13) 0.00585 564.8 2.3
565(13) 0.00601 564.5 2.3
540(12) 0.00647 564.3 2.3
561(13) 0.00596 564.0 2.3
564(13) 0.00558 563.7 2.3
583(13) 0.00557 563.4 2.4
578(13) 0.00582 563.1 2.4
529(12) 0.00665 562.8 2.4
543(12) 0.00609 562.6 2.5
580(13) 0.00533 562.3 2.5
569(13) 0.00585 562.0 2.5
548(12) 0.00630 561.7 2.6
590(13) 0.00599 561.4 2.6
593(13) 0.00550 561.1 2.7
575(13) 0.00539 560.9 2.7
590(13) 0.00557 560.6 2.8
579(13) 0.00604 560.3 2.8
577(13) 0.00594 560.0 2.9
570(13) 0.00571 559.7 3.0
577(13) 0.00536 559.4 3.0
563(13) 0.00586 559.2 3.1
568(12) 0.00615 558.9 3.2
557(12) 0.00632 558.6 3.3
566(13) 0.00566 558.3 3.4
560(13) 0.00548 558.0 3.5
537(12) 0.00622 557.7 3.6
570(12) 0.00616 557.5 3.8
582(13) 0.00587 557.2 3.9
563(13) 0.00579 556.9 4.1
557(13) 0.00570 556.6 4.2
558(13) 0.00581 556.3 4.4
544(12) 0.00644 556.0 4.6
534(12) 0.00649 555.8 4.9
605(13) 0.00542 555.5 5.1
527(12) 0.00619 555.2 5.4
537(12) 0.00618 554.9 5.7
565(12) 0.00622 554.6 6.1
548(12) 0.00616 554.3 6.5
517(12) 0.00632 554.1 6.9
549(13) 0.00583 553.8 7.4
562(13) 0.00580 553.5 8.0
557(12) 0.00631 553.2 8.7
561(13) 0.00603 552.9 9.5
562(13) 0.00575 552.6 10.4
565(13) 0.00577 552.4 11.5
548(12) 0.00621 552.1 12.9
572(12) 0.00614 551.8 14.5
582(13) 0.00560 551.5 16.7
572(13) 0.00568 551.2 19.6
560(13) 0.00586 550.9 23.4
573(12) 0.00606 550.7 28.5
578(13) 0.00604 550.4 35.5
625(13) 0.00532 550.1 44.7
604(13) 0.00542 549.8 56.5
632(13) 0.00545 549.5 71.3
638(13) 0.00540 549.2 89.0
669(13) 0.00531 549.0 109.0
703(14) 0.00461 548.7 130.2
726(15) 0.00436 548.4 150.0
748(15) 0.00446 548.1 164.7
733(14) 0.00478 547.8 170.5
734(14) 0.00485 547.6 165.4
691(14) 0.00482 547.3 151.2
680(15) 0.00456 547.0 131.7
646(14) 0.00514 546.7 110.5
606(13) 0.00579 546.4 90.3
669(14) 0.00522 546.1 72.4
628(13) 0.00536 545.9 57.4
603(14) 0.00518 545.6 45.4
586(13) 0.00567 545.3 36.1
576(12) 0.00611 545.0 29.0
595(13) 0.00585 544.7 23.8
577(13) 0.00576 544.4 19.9
561(13) 0.00556 544.2 17.0
572(13) 0.00578 543.9 14.8
558(12) 0.00630 543.6 13.1
575(13) 0.00598 543.3 11.7
543(12) 0.00608 543.0 10.6
565(13) 0.00575 542.7 9.7
554(13) 0.00605 542.5 8.9
531(12) 0.00661 542.2 8.3
544(12) 0.00631 541.9 7.7
592(13) 0.00548 541.6 7.2
547(13) 0.00577 541.3 6.7
525(12) 0.00611 541.0 6.3
543(12) 0.00649 540.8 6.0
549(13) 0.00604 540.5 5.7
520(12) 0.00624 540.2 5.4
560(13) 0.00564 539.9 5.2
595(13) 0.00559 539.6 4.9
541(12) 0.00648 539.3 4.7
538(12) 0.00636 539.1 4.6
558(13) 0.00571 538.8 4.4
572(13) 0.00557 538.5 4.3
534(12) 0.00628 538.2 4.1
512(12) 0.00687 537.9 4.0
515(12) 0.00658 537.6 3.9
570(13) 0.00556 537.4 3.8
509(12) 0.00639 537.1 3.7
532(12) 0.00646 536.8 3.6
531(12) 0.00666 536.5 3.6
491(12) 0.00670 536.2 3.5
514(12) 0.00618 535.9 3.5
517(12) 0.00637 535.7 3.4
555(12) 0.00616 535.4 3.4
534(12) 0.00657 535.1 3.3
518(12) 0.00639 534.8 3.3
526(12) 0.00607 534.5 3.3
561(13) 0.00571 534.2 3.2
532(12) 0.00662 534.0 3.2
506(12) 0.00691 533.7 3.2
541(13) 0.00603 533.4 3.2
558(13) 0.00542 533.1 3.2
542(12) 0.00615 532.8 3.2
547(12) 0.00633 532.5 3.2
545(12) 0.00643 532.3 3.2
537(12) 0.00616 532.0 3.2
528(13) 0.00582 531.7 3.2
516(12) 0.00636 531.4 3.2
527(12) 0.00652 531.1 3.2
527(12) 0.00664 530.9 3.2
540(13) 0.00595 530.6 3.3
509(12) 0.00611 530.3 3.3
538(12) 0.00628 530.0 3.3
546(12) 0.00636 529.7 3.4
517(12) 0.00667 529.4 3.4
518(12) 0.00629 529.2 3.4
541(13) 0.00566 528.9 3.5
524(12) 0.00631 528.6 3.5
527(12) 0.00665 528.3 3.6
535(12) 0.00640 528.0 3.7
538(12) 0.00608 527.7 3.7
518(12) 0.00631 527.5 3.8
534(13) 0.00587 527.2 3.9
516(12) 0.00680 526.9 3.9
540(12) 0.00626 526.6 4.0
534(12) 0.00609 526.3 4.1
531(13) 0.00602 526.0 4.2
521(12) 0.00627 525.8 4.3
539(12) 0.00651 525.5 4.4
488(12) 0.00674 525.2 4.5
531(13) 0.00586 524.9 4.7
547(13) 0.00574 524.6 4.8
549(12) 0.00612 524.3 4.9
505(12) 0.00688 524.1 5.1
500(12) 0.00652 523.8 5.3
524(12) 0.00617 523.5 5.4
523(12) 0.00616 523.2 5.6
494(12) 0.00672 522.9 5.8
533(12) 0.00656 522.6 6.0
532(12) 0.00622 522.4 6.2
509(12) 0.00620 522.1 6.4
504(12) 0.00650 521.8 6.7
521(12) 0.00655 521.5 6.9
540(12) 0.00646 521.2 7.2
555(13) 0.00587 520.9 7.5
564(13) 0.00556 520.7 7.8
558(13) 0.00593 520.4 8.1
547(12) 0.00626 520.1 8.4
516(12) 0.00673 519.8 8.8
545(12) 0.00605 519.5 9.1
524(13) 0.00594 519.2 9.5
557(13) 0.00590 519.0 9.9
547(12) 0.00627 518.7 10.2
534(12) 0.00661 518.4 10.6
518(12) 0.00652 518.1 11.0
554(13) 0.00556 517.8 11.5
542(12) 0.00615 517.5 11.9
538(12) 0.00651 517.3 12.3
535(12) 0.00650 517.0 12.6
542(12) 0.00612 516.7 13.0
549(13) 0.00561 516.4 13.4
542(13) 0.00596 516.1 13.7
540(12) 0.00647 515.8 14.0
524(12) 0.00660 515.6 14.2
499(12) 0.00670 515.3 14.4
544(13) 0.00571 515.0 14.6
546(13) 0.00587 514.7 14.7
520(12) 0.00666 514.4 14.8
525(12) 0.00660 514.1 14.8
557(13) 0.00574 513.9 14.8
532(13) 0.00596 513.6 14.8
554(13) 0.00583 513.3 14.7
530(12) 0.00658 513.0 14.7
550(12) 0.00618 512.7 14.6
558(13) 0.00600 512.5 14.6
549(13) 0.00581 512.2 14.6
534(12) 0.00614 511.9 14.6
521(12) 0.00680 511.6 14.7
513(12) 0.00635 511.3 14.8
487(12) 0.00665 511.0 14.9
555(13) 0.00570 510.8 15.0
545(12) 0.00626 510.5 14.8
542(12) 0.00643 510.2 14.5
534(12) 0.00631 509.9 13.8
508(12) 0.00626 509.6 13.0
522(12) 0.00610 509.3 12.2
507(12) 0.00669 509.1 11.3
529(12) 0.00662 508.8 10.4
506(12) 0.00637 508.5 9.7
492(12) 0.00633 508.2 9.0
500(12) 0.00655 507.9 8.4
527(12) 0.00652 507.6 7.9
540(12) 0.00646 507.4 7.5
549(13) 0.00582 507.1 7.1
495(12) 0.00643 506.8 6.7
540(13) 0.00599 506.5 6.4
510(12) 0.00674 506.2 6.1
506(12) 0.00690 505.9 5.8
505(12) 0.00649 505.7 5.6
513(13) 0.00592 505.4 5.4
497(12) 0.00657 505.1 5.2
516(12) 0.00670 504.8 5.0
512(12) 0.00689 504.5 4.8
524(12) 0.00621 504.2 4.6
523(13) 0.00595 504.0 4.5
530(12) 0.00611 503.7 4.3
522(12) 0.00652 503.4 4.2
511(12) 0.00675 503.1 4.0
499(12) 0.00668 502.8 3.9
509(12) 0.00614 502.5 3.8
517(12) 0.00648 502.3 3.7
541(12) 0.00648 502.0 3.6
504(12) 0.00690 501.7 3.5
520(12) 0.00641 501.4 3.4
533(13) 0.00595 501.1 3.3
478(12) 0.00696 500.8 3.2
503(12) 0.00693 500.6 3.1
479(11) 0.00712 500.3 3.0
514(12) 0.00650 500.0 3.0
504(12) 0.00630 499.7 2.9
514(12) 0.00627 499.4 2.8
510(12) 0.00682 499.1 2.8
507(12) 0.00660 498.9 2.7
505(12) 0.00654 498.6 2.6
520(12) 0.00622 498.3 2.6
525(13) 0.00603 498.0 2.5
523(12) 0.00660 497.7 2.5
513(12) 0.00660 497.4 2.4
520(12) 0.00614 497.2 2.4
477(12) 0.00672 496.9 2.3
491(12) 0.00665 496.6 2.3
536(12) 0.00652 496.3 2.2
498(12) 0.00667 496.0 2.2
499(12) 0.00654 495.8 2.2
510(12) 0.00627 495.5 2.1
479(11) 0.00721 495.2 2.1
525(12) 0.00660 494.9 2.1
519(12) 0.00636 494.6 2.0
505(12) 0.00630 494.3 2.0
477(12) 0.00688 494.1 2.0
493(12) 0.00684 493.8 1.9
502(12) 0.00694 493.5 1.9
507(12) 0.00632 493.2 1.9
481(12) 0.00650 492.9 1.9
524(13) 0.00590 492.6 1.8
500(12) 0.00685 492.4 1.8
476(11) 0.00741 492.1 1.8
509(12) 0.00639 491.8 1.8
490(12) 0.00632 491.5 1.8
499(12) 0.00659 491.2 1.7
515(12) 0.00669 490.9 1.7
494(11) 0.00711 490.7 1.7
518(12) 0.00639 490.4 1.7
542(13) 0.00560 490.1 1.7
506(12) 0.00645 489.8 1.6
451(11) 0.00753 489.5 1.6
498(12) 0.00698 489.2 1.6
485(12) 0.00676 489.0 1.6
509(13) 0.00598 488.7 1.6
512(12) 0.00620 488.4 1.6
500(12) 0.00690 488.1 1.6
466(11) 0.00741 487.8 1.5
507(12) 0.00649 487.5 1.5
498(12) 0.00616 487.3 1.5
492(12) 0.00651 487.0 1.5
479(11) 0.00731 486.7 1.5
484(12) 0.00701 486.4 1.5
487(12) 0.00686 486.1 1.5
500(12) 0.00621 485.8 1.5
506(12) 0.00643 485.6 1.5
500(12) 0.00694 485.3 1.4
478(11) 0.00715 485.0 1.4
487(12) 0.00644 484.7 1.4
503(12) 0.00626 484.4 1.4
479(12) 0.00696 484.1 1.4
479(11) 0.00725 483.9 1.4
482(12) 0.00699 483.6 1.4
498(12) 0.00659 483.3 1.4
486(12) 0.00669 483.0 1.4
470(11) 0.00716 482.7 1.4
484(11) 0.00715 482.4 1.4
481(12) 0.00704 482.2 1.4
453(11) 0.00715 481.9 1.4
448(11) 0.00730 481.6 1.4
486(12) 0.00693 481.3 1.3
502(12) 0.00697 481.0 1.3
502(12) 0.00668 480.7 1.3
503(12) 0.00627 480.5 1.3
458(11) 0.00716 480.2 1.3
505(12) 0.00660 480.0 1.3
501(12) 0.00702 479.9 1.3
499(12) 0.00639 479.7 1.3
466(12) 0.00665 479.5 1.3
464(12) 0.00688 479.4 1.3
490(12) 0.00696 479.2 1.3
487(11) 0.00718 479.0 1.3
478(12) 0.00694 478.9 1.3
489(12) 0.00653 478.7 1.3
500(12) 0.00659 478.6 1.3
506(12) 0.00691 478.4 1.3
465(11) 0.00754 478.2 1.3
487(12) 0.00655 478.1 1.3
491(12) 0.00616 477.9 1.3
514(12) 0.00642 477.7 1.3
457(11) 0.00745 477.6 1.3
458(11) 0.00756 477.4 1.3
478(12) 0.00697 477.2 1.3
485(12) 0.00630 477.1 1.3
486(12) 0.00674 476.9 1.3
501(12) 0.00686 476.7 1.3
498(12) 0.00696 476.6 1.3
479(11) 0.00709 476.4 1.3
491(12) 0.00645 476.2 1.3
482(12) 0.00691 476.1 1.3
491(11) 0.00715 475.9 1.3
492(12) 0.00697 475.8 1.3
452(11) 0.00727 475.6 1.3
483(12) 0.00620 475.4 1.3
481(12) 0.00684 475.3 1.4
466(11) 0.00749 475.1 1.4
451(11) 0.00758 474.9 1.4
477(12) 0.00681 474.8 1.4
461(12) 0.00679 474.6 1.4
461(12) 0.00692 474.4 1.4
486(11) 0.00717 474.3 1.4
485(12) 0.00684 474.1 1.4
463(12) 0.00706 473.9 1.4
479(12) 0.00665 473.8 1.4
480(12) 0.00678 473.6 1.5
480(11) 0.00728 473.4 1.5
482(12) 0.00693 473.3 1.5
502(12) 0.00637 473.1 1.5
485(12) 0.00675 473.0 1.5
471(11) 0.00710 472.8 1.5
496(12) 0.00701 472.6 1.6
499(12) 0.00664 472.5 1.6
487(12) 0.00661 472.3 1.6
456(12) 0.00706 472.1 1.6
455(11) 0.00738 472.0 1.7
469(11) 0.00735 471.8 1.7
488(12) 0.00643 471.6 1.7
461(12) 0.00684 471.5 1.8
487(12) 0.00665 471.3 1.8
478(11) 0.00721 471.1 1.8
479(11) 0.00731 471.0 1.9
469(12) 0.00694 470.8 1.9
465(12) 0.00677 470.6 2.0
428(11) 0.00771 470.5 2.1
476(11) 0.00721 470.3 2.1
480(11) 0.00726 470.2 2.2
493(12) 0.00668 470.0 2.3
463(12) 0.00665 469.8 2.4
457(12) 0.00705 469.7 2.5
475(11) 0.00720 469.5 2.6
477(11) 0.00736 469.3 2.7
479(12) 0.00699 469.2 2.9
471(12) 0.00658 469.0 3.0
487(12) 0.00697 468.8 3.2
502(12) 0.00694 468.7 3.5
510(12) 0.00673 468.5 3.7
499(12) 0.00658 468.3 4.0
480(12) 0.00645 468.2 4.4
477(12) 0.00677 468.0 4.8
483(11) 0.00720 467.8 5.2
465(11) 0.00747 467.7 5.8
474(12) 0.00685 467.5 6.4
457(12) 0.00674 467.4 7.1
468(12) 0.00689 467.2 7.9
471(11) 0.00738 467.0 8.8
489(12) 0.00691 466.9 9.8
510(12) 0.00622 466.7 10.9
504(12) 0.00616 466.5 12.0
460(11) 0.00720 466.4 13.1
499(12) 0.00695 466.2 14.2
486(12) 0.00695 466.0 15.0
482(12) 0.00684 465.9 15.6
490(12) 0.00660 465.7 15.9
486(12) 0.00681 465.5 15.7
459(11) 0.00753 465.4 15.2
465(11) 0.00720 465.2 14.4
468(12) 0.00707 465.0 13.4
484(12) 0.00679 464.9 12.3
494(12) 0.00659 464.7 11.2
480(11) 0.00727 464.5 10.1
468(12) 0.00704 464.4 9.1
486(12) 0.00651 464.2 8.2
506(12) 0.00626 464.1 7.4
460(11) 0.00740 463.9 6.7
482(11) 0.00726 463.7 6.0
443(11) 0.00736 463.6 5.5
491(12) 0.00633 463.4 5.0
460(11) 0.00714 463.2 4.6
460(11) 0.00723 463.1 4.2
461(11) 0.00750 462.9 3.9
507(12) 0.00628 462.7 3.7
448(12) 0.00705 462.6 3.4
495(12) 0.00668 462.4 3.3
481(12) 0.00708 462.2 3.1
457(11) 0.00762 462.1 3.0
469(12) 0.00677 461.9 2.8
487(12) 0.00633 461.7 2.7
465(11) 0.00711 461.6 2.6
478(11) 0.00715 461.4 2.5
487(11) 0.00715 461.3 2.5
473(12) 0.00681 461.1 2.4
444(12) 0.00696 460.9 2.4
446(11) 0.00725 460.8 2.3
448(11) 0.00767 460.6 2.3
450(11) 0.00766 460.4 2.2
487(12) 0.00655 460.3 2.2
464(12) 0.00656 460.1 2.2
448(11) 0.00735 459.9 2.2
476(11) 0.00723 459.8 2.1
444(11) 0.00780 459.6 2.1
468(12) 0.00703 459.4 2.1
499(12) 0.00614 459.3 2.1
450(11) 0.00717 459.1 2.1
464(11) 0.00750 458.9 2.1
463(11) 0.00718 458.8 2.1
440(11) 0.00759 458.6 2.1
500(12) 0.00608 458.5 2.1
429(11) 0.00733 458.3 2.1
467(11) 0.00738 458.1 2.1
477(11) 0.00726 458.0 2.2
472(12) 0.00695 457.8 2.2
463(12) 0.00658 457.6 2.2
463(12) 0.00702 457.5 2.2
430(11) 0.00801 457.3 2.2
470(11) 0.00715 457.1 2.3
442(11) 0.00733 457.0 2.3
459(12) 0.00692 456.8 2.3
443(11) 0.00714 456.6 2.4
434(11) 0.00793 456.5 2.4
432(11) 0.00761 456.3 2.5
469(12) 0.00678 456.1 2.5
477(12) 0.00688 456.0 2.6
453(11) 0.00733 455.8 2.6
453(11) 0.00768 455.7 2.6
444(11) 0.00727 455.5 2.7
459(12) 0.00701 455.3 2.8
490(12) 0.00642 455.2 2.8
462(11) 0.00743 455.0 2.9
484(11) 0.00716 454.8 2.9
440(11) 0.00742 454.7 3.0
468(12) 0.00655 454.5 3.0
471(12) 0.00674 454.3 3.0
440(11) 0.00783 454.2 3.1
439(11) 0.00785 454.0 3.1
464(12) 0.00705 453.8 3.2
441(12) 0.00701 453.7 3.2
476(12) 0.00660 453.5 3.2
431(11) 0.00798 453.3 3.2
457(11) 0.00757 453.2 3.2
471(12) 0.00688 453.0 3.2
452(12) 0.00660 452.8 3.2
461(11) 0.00725 452.7 3.2
418(11) 0.00829 452.5 3.1
474(11) 0.00726 452.4 3.1
445(11) 0.00731 452.2 3.1
462(12) 0.00645 452.0 3.0
467(12) 0.00689 451.9 3.0
440(11) 0.00785 451.7 2.9
474(11) 0.00732 451.5 2.9
469(12) 0.00697 451.4 2.8
452(12) 0.00690 451.2 2.8
452(12) 0.00705 451.0 2.7
459(11) 0.00757 450.9 2.7
480(12) 0.00706 450.7 2.6
465(12) 0.00699 450.5 2.5
427(11) 0.00735 450.4 2.5
448(12) 0.00700 450.2 2.4
448(11) 0.00777 450.0 2.4
434(11) 0.00793 449.9 2.3
453(11) 0.00714 449.7 2.3
436(11) 0.00725 449.6 2.2
451(11) 0.00713 449.4 2.2
468(11) 0.00745 449.2 2.2
455(11) 0.00719 449.1 2.1
470(12) 0.00675 448.9 2.1
453(12) 0.00686 448.7 2.0
484(12) 0.00683 448.6 2.0
453(11) 0.00765 448.4 2.0
429(11) 0.00769 448.2 1.9
420(11) 0.00757 448.1 1.9
431(11) 0.00737 447.9 1.9
450(11) 0.00736 447.7 1.9
480(11) 0.00719 447.6 1.8
443(11) 0.00734 447.4 1.8
430(11) 0.00742 447.2 1.8
466(12) 0.00685 447.1 1.8
419(11) 0.00810 446.9 1.8
437(11) 0.00796 446.8 1.7
460(12) 0.00699 446.6 1.7
456(12) 0.00704 446.4 1.7
455(11) 0.00736 446.3 1.7
450(11) 0.00767 446.1 1.7
437(11) 0.00788 445.9 1.7
442(12) 0.00704 445.8 1.6
460(12) 0.00653 445.6 1.6
456(12) 0.00702 445.4 1.6
431(11) 0.00780 445.3 1.6
462(11) 0.00752 445.1 1.6
465(11) 0.00724 444.9 1.6
431(12) 0.00706 444.8 1.6
461(12) 0.00671 444.6 1.6
433(11) 0.00786 444.4 1.6
450(11) 0.00771 444.3 1.6
463(12) 0.00684 444.1 1.6
426(11) 0.00716 444.0 1.6
478(12) 0.00676 443.8 1.6
455(11) 0.00746 443.6 1.6
427(11) 0.00814 443.5 1.6
444(11) 0.00728 443.3 1.6
426(11) 0.00726 443.1 1.5
412(11) 0.00793 443.0 1.5
430(11) 0.00791 442.8 1.5
456(11) 0.00764 442.6 1.5
453(11) 0.00712 442.5 1.5
430(11) 0.00718 442.3 1.5
459(11) 0.00710 442.1 1.5
434(11) 0.00798 442.0 1.5
434(11) 0.00771 441.8 1.5
424(11) 0.00755 441.6 1.5
432(11) 0.00717 441.5 1.5
423(11) 0.00749 441.3 1.5
458(11) 0.00759 441.2 1.5
422(11) 0.00781 441.0 1.5
457(12) 0.00707 440.8 1.5
452(11) 0.00727 440.7 1.5
464(11) 0.00714 440.5 1.6
445(11) 0.00783 440.3 1.6
462(11) 0.00715 440.2 1.6
465(12) 0.00691 440.0 1.6
424(11) 0.00766 439.8 1.6
431(11) 0.00773 439.7 1.6
459(11) 0.00760 439.5 1.6
448(11) 0.00726 439.3 1.6
481(12) 0.00682 439.2 1.6
464(11) 0.00709 439.0 1.6
422(11) 0.00777 438.8 1.6
428(11) 0.00810 438.7 1.6
430(11) 0.00742 438.5 1.6
441(12) 0.00694 438.3 1.6
443(11) 0.00735 438.2 1.6
440(11) 0.00783 438.0 1.6
410(10) 0.00839 437.9 1.6
471(12) 0.00671 437.7 1.6
452(11) 0.00714 437.5 1.6
449(11) 0.00727 437.4 1.6
443(11) 0.00766 437.2 1.6
436(11) 0.00792 437.0 1.7
442(11) 0.00734 436.9 1.7
464(12) 0.00645 436.7 1.7
470(12) 0.00691 436.5 1.7
433(11) 0.00807 436.4 1.7
448(11) 0.00773 436.2 1.7
445(11) 0.00738 436.1 1.7
424(12) 0.00708 435.9 1.7
451(12) 0.00708 435.8 1.7
410(11) 0.00834 435.7 1.7
434(11) 0.00801 435.6 1.7
446(11) 0.00749 435.5 1.7
422(11) 0.00741 435.4 1.7
403(11) 0.00817 435.2 1.8
440(11) 0.00780 435.1 1.8
413(11) 0.00831 435.0 1.8
431(11) 0.00750 434.9 1.8
448(12) 0.00671 434.8 1.8
425(11) 0.00766 434.7 1.8
404(10) 0.00855 434.6 1.8
457(11) 0.00735 434.4 1.8
460(11) 0.00710 434.3 1.8
469(12) 0.00666 434.2 1.9
436(11) 0.00733 434.1 1.9
451(11) 0.00768 434.0 1.9
443(11) 0.00751 433.9 1.9
445(11) 0.00713 433.7 1.9
440(11) 0.00729 433.6 1.9
443(11) 0.00740 433.5 1.9
415(11) 0.00830 433.4 1.9
425(11) 0.00786 433.3 2.0
450(11) 0.00712 433.2 2.0
438(11) 0.00738 433.1 2.0
430(11) 0.00765 432.9 2.0
412(11) 0.00832 432.8 2.0
430(11) 0.00767 432.7 2.0
433(11) 0.00740 432.6 2.0
443(11) 0.00718 432.5 2.1
425(11) 0.00768 432.4 2.1
436(11) 0.00793 432.2 2.1
423(11) 0.00754 432.1 2.1
414(11) 0.00723 432.0 2.1
402(11) 0.00780 431.9 2.1
440(11) 0.00763 431.8 2.2
421(11) 0.00815 431.7 2.2
443(11) 0.00715 431.6 2.2
422(11) 0.00748 431.4 2.2
436(11) 0.00749 431.3 2.2
435(11) 0.00780 431.2 2.3
431(11) 0.00795 431.1 2.3
411(11) 0.00780 431.0 2.3
421(11) 0.00745 430.9 2.3
450(11) 0.00746 430.7 2.3
455(11) 0.00754 430.6 2.4
409(10) 0.00849 430.5 2.4
397(11) 0.00804 430.4 2.4
429(12) 0.00701 430.3 2.4
427(11) 0.00761 430.2 2.5
409(11) 0.00819 430.1 2.5
444(11) 0.00788 429.9 2.5
433(11) 0.00735 429.8 2.5
415(11) 0.00720 429.7 2.6
438(11) 0.00744 429.6 2.6
453(11) 0.00755 429.5 2.6
457(11) 0.00736 429.4 2.7
429(11) 0.00752 429.2 2.7
416(11) 0.00731 429.1 2.7
387(11) 0.00832 429.0 2.7
393(10) 0.00879 428.9 2.8
421(11) 0.00808 428.8 2.8
427(11) 0.00760 428.7 2.8
450(12) 0.00686 428.6 2.9
425(11) 0.00776 428.4 2.9
405(10) 0.00852 428.3 3.0
417(11) 0.00788 428.2 3.0
423(11) 0.00759 428.1 3.0
432(11) 0.00729 428.0 3.1
420(11) 0.00772 427.9 3.1
435(11) 0.00800 427.7 3.2
408(11) 0.00801 427.6 3.2
421(11) 0.00762 427.5 3.2
428(11) 0.00723 427.4 3.3
461(12) 0.00697 427.3 3.3
429(11) 0.00808 427.2 3.4
405(11) 0.00817 427.1 3.4
423(11) 0.00741 426.9 3.5
411(11) 0.00751 426.8 3.5
399(11) 0.00815 426.7 3.6
435(11) 0.00792 426.6 3.7
438(11) 0.00735 426.5 3.7
413(11) 0.00798 426.4 3.8
449(11) 0.00718 426.2 3.8
421(11) 0.00795 426.1 3.9
410(11) 0.00837 426.0 3.9
407(11) 0.00774 425.9 4.0
402(11) 0.00755 425.8 4.1
426(11) 0.00747 425.7 4.2
435(11) 0.00779 425.6 4.2
433(11) 0.00800 425.4 4.3
430(11) 0.00764 425.3 4.4
414(11) 0.00754 425.2 4.5
428(11) 0.00752 425.1 4.6
420(11) 0.00803 425.0 4.7
402(10) 0.00857 424.9 4.8
405(11) 0.00809 424.7 4.9
414(11) 0.00730 424.6 5.0
407(11) 0.00803 424.5 5.1
413(11) 0.00833 424.4 5.2
422(11) 0.00815 424.3 5.4
429(11) 0.00751 424.2 5.5
429(12) 0.00703 424.1 5.6
441(11) 0.00722 423.9 5.8
429(11) 0.00809 423.8 5.9
437(11) 0.00792 423.7 6.1
425(11) 0.00781 423.6 6.2
421(11) 0.00736 423.5 6.4
426(11) 0.00759 423.4 6.6
417(11) 0.00815 423.2 6.8
426(11) 0.00805 423.1 7.0
423(11) 0.00770 423.0 7.2
387(11) 0.00811 422.9 7.4
448(12) 0.00706 422.8 7.7
398(10) 0.00865 422.7 7.9
429(11) 0.00773 422.6 8.2
404(11) 0.00781 422.4 8.5
453(12) 0.00695 422.3 8.8
456(11) 0.00714 422.2 9.1
418(11) 0.00823 422.1 9.5
428(11) 0.00800 422.0 9.9
444(11) 0.00718 421.9 10.3
414(11) 0.00766 421.7 10.7
414(11) 0.00771 421.6 11.2
417(11) 0.00831 421.5 11.7
436(11) 0.00759 421.4 12.3
450(11) 0.00715 421.3 12.9
430(11) 0.00732 421.2 13.6
407(11) 0.00780 421.1 14.3
431(11) 0.00802 420.9 15.1
441(11) 0.00725 420.8 16.0
419(11) 0.00756 420.7 17.0
414(11) 0.00790 420.6 18.1
406(11) 0.00814 420.5 19.3
438(11) 0.00788 420.4 20.7
444(11) 0.00728 420.2 22.2
426(11) 0.00738 420.1 24.0
440(11) 0.00716 420.0 26.0
442(11) 0.00738 419.9 28.3
430(11) 0.00803 419.8 31.1
456(12) 0.00694 419.7 34.4
449(12) 0.00688 419.6 38.3
477(12) 0.00686 419.4 43.1
499(12) 0.00687 419.3 48.8
499(12) 0.00694 419.2 55.7
496(12) 0.00673 419.1 64.2
515(13) 0.00580 419.0 74.3
527(12) 0.00618 418.9 86.5
532(12) 0.00652 418.7 100.8
525(12) 0.00669 418.6 117.4
600(13) 0.00553 418.5 136.3
596(14) 0.00518 418.4 157.1
636(14) 0.00521 418.3 178.9
683(14) 0.00510 418.2 200.1
686(14) 0.00522 418.1 218.5
732(14) 0.00459 417.9 231.1
696(15) 0.00456 417.8 235.5
678(14) 0.00487 417.7 231.0
667(13) 0.00534 417.6 218.4
647(13) 0.00540 417.5 200.3
611(13) 0.00544 417.4 179.6
614(14) 0.00519 417.2 158.4
578(13) 0.00572 417.1 138.4
562(12) 0.00624 417.0 120.4
558(12) 0.00607 416.9 104.7
510(12) 0.00633 416.8 91.3
484(12) 0.00670 416.7 80.2
477(12) 0.00698 416.6 71.2
477(11) 0.00731 416.4 63.9
496(12) 0.00681 416.3 58.3
480(12) 0.00687 416.2 54.1
471(12) 0.00695 416.1 51.1
499(12) 0.00649 416.0 49.2
466(11) 0.00752 415.9 48.3
486(12) 0.00685 415.7 48.4
476(12) 0.00679 415.6 49.4
472(12) 0.00677 415.5 51.4
508(12) 0.00640 415.4 54.4
478(11) 0.00722 415.3 58.4
498(12) 0.00661 415.2 63.3
505(12) 0.00617 415.1 69.1
477(12) 0.00680 414.9 75.3
483(12) 0.00683 414.8 81.4
499(12) 0.00698 414.7 86.7
515(12) 0.00635 414.6 90.1
529(13) 0.00586 414.5 90.9
501(12) 0.00646 414.4 88.7
468(11) 0.00735 414.2 84.1
483(11) 0.00724 414.1 77.9
483(12) 0.00660 414.0 71.0
473(12) 0.00652 413.9 64.2
455(11) 0.00710 413.8 58.0
457(11) 0.00760 413.7 52.5
459(11) 0.00758 413.6 47.8
455(12) 0.00692 413.4 43.9
459(12) 0.00671 413.3 40.7
478(12) 0.00684 413.2 38.3
440(11) 0.00786 413.1 36.4
433(11) 0.00797 413.0 35.0
451(11) 0.00719 412.9 34.1
433(12) 0.00695 412.7 33.5
438(11) 0.00741 412.6 33.2
454(11) 0.00760 412.5 33.2
433(11) 0.00794 412.4 33.3
409(11) 0.00817 412.3 33.7
440(12) 0.00699 412.2 34.3
438(11) 0.00755 412.1 35.0
437(11) 0.00801 411.9 35.9
443(11) 0.00774 411.8 36.9
433(11) 0.00740 411.7 38.1
416(11) 0.00749 411.6 39.5
481(12) 0.00657 411.5 41.0
436(11) 0.00793 411.4 42.7
429(11) 0.00762 411.2 44.6
456(12) 0.00697 411.1 46.7
464(12) 0.00659 411.0 49.0
431(11) 0.00738 410.9 51.6
463(11) 0.00745 410.8 54.4
477(12) 0.00700 410.7 57.6
451(11) 0.00718 410.6 61.1
455(12) 0.00688 410.4 65.0
489(12) 0.00658 410.3 69.4
455(11) 0.00760 410.2 74.4
496(12) 0.00660 410.1 80.2
508(12) 0.00638 410.0 87.0
501(12) 0.00636 409.9 95.1
507(12) 0.00652 409.7 104.9
502(12) 0.00698 409.6 117.0
510(12) 0.00659 409.5 132.0
526(12) 0.00617 409.4 150.8
565(13) 0.00572 409.3 174.4
566(13) 0.00602 409.2 203.7
586(13) 0.00594 409.1 239.8
691(14) 0.00481 408.9 283.5
710(15) 0.00453 408.8 335.4
750(15) 0.00442 408.7 395.1
833(15) 0.00411 408.6 461.2
876(15) 0.00411 408.5 530.0
942(16) 0.00364 408.4 594.8
1011(17) 0.003209 408.2 645.7
1023(17) 0.003329 408.1 672.1
998(17) 0.003467 408.0 667.3
1033(17) 0.003485 407.9 632.4
889(16) 0.00372 407.8 575.7
824(16) 0.00379 407.7 507.8
783(15) 0.00420 407.6 438.1
750(14) 0.00473 407.4 372.4
679(14) 0.00518 407.3 313.6
678(14) 0.00491 407.2 262.9
615(14) 0.00504 407.1 220.3
586(13) 0.00569 407.0 185.3
568(12) 0.00618 406.9 156.8
558(12) 0.00629 406.7 133.9
556(13) 0.00575 406.6 115.6
506(13) 0.00596 406.5 100.9
520(12) 0.00613 406.4 89.1
498(12) 0.00702 406.3 79.5
466(11) 0.00735 406.2 71.6
433(11) 0.00746 406.1 65.0
457(12) 0.00669 405.9 59.4
478(12) 0.00677 405.8 54.6
473(11) 0.00735 405.7 50.5
463(11) 0.00732 405.6 46.8
480(12) 0.00688 405.5 43.7
448(12) 0.00708 405.4 40.8
457(11) 0.00712 405.2 38.3
448(11) 0.00777 405.1 36.1
455(11) 0.00734 405.0 34.1
459(12) 0.00682 404.9 32.3
453(12) 0.00705 404.8 30.7
448(11) 0.00738 404.7 29.2
448(11) 0.00775 404.6 27.9
454(11) 0.00738 404.4 26.7
436(11) 0.00738 404.3 25.6
402(11) 0.00795 404.2 24.6
419(11) 0.00782 404.1 23.7
414(11) 0.00832 404.0 22.9
440(11) 0.00751 403.9 22.1
426(11) 0.00736 403.7 21.5
431(11) 0.00743 403.6 20.9
419(11) 0.00774 403.5 20.3
411(11) 0.00833 403.4 19.8
422(11) 0.00761 403.3 19.3
440(11) 0.00710 403.2 18.9
428(11) 0.00754 403.1 18.6
409(11) 0.00812 402.9 18.3
419(11) 0.00828 402.8 18.0
407(11) 0.00780 402.7 17.7
395(11) 0.00793 402.6 17.5
443(11) 0.00728 402.5 17.3
426(11) 0.00805 402.4 17.2
391(10) 0.00883 402.2 17.1
385(10) 0.00847 402.1 17.0
425(11) 0.00720 402.0 17.0
424(11) 0.00762 401.9 16.9
407(11) 0.00825 401.8 17.0
413(11) 0.00825 401.7 17.0
411(11) 0.00808 401.6 17.1
407(11) 0.00745 401.4 17.2
405(11) 0.00811 401.3 17.4
431(11) 0.00790 401.2 17.6
418(11) 0.00826 401.1 17.8
397(11) 0.00825 401.0 18.1
412(11) 0.00734 400.9 18.4
454(11) 0.00714 400.7 18.8
449(11) 0.00765 400.6 19.2
413(11) 0.00819 400.5 19.6
417(11) 0.00781 400.4 20.1
414(11) 0.00768 400.3 20.7
422(11) 0.00770 400.2 21.4
413(11) 0.00834 400.1 22.1
423(11) 0.00800 399.9 22.9
408(11) 0.00807 399.8 23.8
432(11) 0.00723 399.7 24.9
460(11) 0.00712 399.6 26.0
425(11) 0.00808 399.5 27.3
425(11) 0.00786 399.4 28.7
448(11) 0.00721 399.2 30.3
441(12) 0.00704 399.1 32.1
470(12) 0.00685 399.0 34.1
436(11) 0.00794 398.9 36.4
461(11) 0.00725 398.8 39.1
447(11) 0.00734 398.7 42.0
454(11) 0.00713 398.6 45.4
501(12) 0.00652 398.4 49.2
487(11) 0.00710 398.3 53.5
462(11) 0.00724 398.2 58.4
468(12) 0.00689 398.1 63.9
512(12) 0.00612 398.0 70.2
484(12) 0.00673 397.9 77.2
491(12) 0.00704 397.7 85.0
504(12) 0.00658 397.6 93.7
525(13) 0.00598 397.5 103.2
514(12) 0.00639 397.4 113.6
528(12) 0.00652 397.3 124.6
543(12) 0.00644 397.2 136.0
556(13) 0.00586 397.1 147.4
574(13) 0.00553 396.9 158.3
594(13) 0.00554 396.8 168.0
586(13) 0.00584 396.7 175.7
606(13) 0.00580 396.6 180.7
608(13) 0.00544 396.5 182.5
597(13) 0.00532 396.4 180.8
613(13) 0.00537 396.2 175.9
604(13) 0.00580 396.1 168.3
576(12) 0.00608 396.0 158.6
574(13) 0.00568 395.9 147.7
535(13) 0.00579 395.8 136.2
529(12) 0.00617 395.7 124.7
516(12) 0.00665 395.6 113.6
516(12) 0.00684 395.4 103.1
488(12) 0.00673 395.3 93.5
461(12) 0.00661 395.2 84.6
465(12) 0.00690 395.1 76.7
463(11) 0.00742 395.0 69.5
441(11) 0.00776 394.9 63.2
451(11) 0.00717 394.7 57.5
441(12) 0.00688 394.6 52.5
431(11) 0.00764 394.5 48.1
421(11) 0.00825 394.4 44.1
438(11) 0.00791 394.3 40.7
439(11) 0.00751 394.2 37.6
420(11) 0.00746 394.1 34.9
417(11) 0.00767 393.9 32.5
396(10) 0.00865 393.8 30.3
414(11) 0.00825 393.7 28.4
403(11) 0.00801 393.6 26.7
404(11) 0.00748 393.5 25.1
364(10) 0.00893 393.4 23.7
419(11) 0.00823 393.2 22.4
415(11) 0.00784 393.1 21.3
399(11) 0.00820 393.0 20.3
399(11) 0.00799 392.9 19.3
371(10) 0.00879 392.8 18.4
399(10) 0.00862 392.7 17.6
414(11) 0.00795 392.6 16.9
394(11) 0.00823 392.4 16.2
395(11) 0.00809 392.3 15.6
396(11) 0.00805 392.2 15.0
409(10) 0.00840 392.1 14.5
384(11) 0.00802 392.0 14.0
407(11) 0.00766 391.9 13.5
407(11) 0.00795 391.7 13.1
390(10) 0.00853 391.6 12.7
374(10) 0.00916 391.5 12.3
364(10) 0.00892 391.4 12.0
364(10) 0.00868 391.3 11.6
412(11) 0.00775 391.2 11.3
394(10) 0.00860 391.1 11.1
393(10) 0.00864 390.9 10.8
415(11) 0.00758 390.8 10.5
415(11) 0.00728 390.7 10.3
379(10) 0.00872 390.6 10.1
405(11) 0.00833 390.5 9.9
363(10) 0.00949 390.4 9.7
405(11) 0.00791 390.2 9.5
405(11) 0.00743 390.1 9.3
357(10) 0.00886 390.0 9.2
377(10) 0.00903 389.9 9.0
386(10) 0.00875 389.8 8.9
401(11) 0.00794 389.7 8.8
386(11) 0.00776 389.6 8.6
366(10) 0.00885 389.4 8.5
389(10) 0.00877 389.3 8.4
396(10) 0.00852 389.2 8.3
419(11) 0.00781 389.1 8.2
402(11) 0.00747 389.0 8.1
383(11) 0.00822 388.9 8.0
374(10) 0.00905 388.7 8.0
391(10) 0.00866 388.6 7.9
379(10) 0.00857 388.5 7.8
386(11) 0.00797 388.4 7.8
415(11) 0.00775 388.3 7.7
379(10) 0.00901 388.2 7.7
380(10) 0.00884 388.1 7.6
392(11) 0.00818 387.9 7.6
388(11) 0.00797 387.8 7.6
388(11) 0.00817 387.7 7.6
359(10) 0.00950 387.6 7.5
380(10) 0.00872 387.5 7.5
384(10) 0.00844 387.4 7.5
399(11) 0.00781 387.2 7.5
391(11) 0.00800 387.1 7.5
365(10) 0.00933 387.0 7.5
353(10) 0.00953 386.9 7.5
417(11) 0.00735 386.8 7.5
376(11) 0.00830 386.7 7.5
392(11) 0.00826 386.6 7.5
386(10) 0.00891 386.4 7.6
377(10) 0.00865 386.3 7.6
366(10) 0.00890 386.2 7.6
384(11) 0.00802 386.1 7.7
380(10) 0.00870 386.0 7.7
380(10) 0.00901 385.9 7.8
392(11) 0.00809 385.7 7.8
383(11) 0.00813 385.6 7.9
378(11) 0.00836 385.5 8.0
382(10) 0.00861 385.4 8.1
373(10) 0.00917 385.3 8.1
393(11) 0.00809 385.2 8.3
363(10) 0.00865 385.1 8.4
377(11) 0.00815 384.9 8.5
397(11) 0.00832 384.8 8.7
390(10) 0.00875 384.7 8.8
359(10) 0.00915 384.6 9.0
396(11) 0.00770 384.5 9.3
419(11) 0.00758 384.4 9.5
394(10) 0.00840 384.2 9.9
359(10) 0.00950 384.1 10.3
389(11) 0.00831 384.0 10.8
392(11) 0.00759 383.9 11.6
389(11) 0.00799 383.8 12.6
387(10) 0.00868 383.7 13.9
400(10) 0.00851 383.6 15.8
398(11) 0.00784 383.4 18.2
389(11) 0.00764 383.3 21.2
426(11) 0.00771 383.2 24.8
392(10) 0.00871 383.1 28.7
381(10) 0.00876 383.0 32.4
405(11) 0.00791 382.9 35.2
415(11) 0.00733 382.7 36.2
404(11) 0.00807 382.6 35.0
453(11) 0.00766 382.5 32.2
428(11) 0.00788 382.4 28.6
398(11) 0.00804 382.3 25.0
372(10) 0.00849 382.2 21.8
370(10) 0.00872 382.1 19.2
385(10) 0.00888 381.9 17.2
384(10) 0.00881 381.8 15.8
394(11) 0.00798 381.7 14.8
369(10) 0.00845 381.6 14.1
357(10) 0.00920 381.5 13.8
356(10) 0.00956 381.4 13.5
398(11) 0.00813 381.2 13.4
409(11) 0.00786 381.1 13.4
393(11) 0.00802 381.0 13.5
361(10) 0.00887 380.9 13.6
389(10) 0.00879 380.8 13.7
409(11) 0.00787 380.7 13.9
400(11) 0.00788 380.6 14.1
397(11) 0.00798 380.4 14.3
401(11) 0.00803 380.3 14.5
369(10) 0.00924 380.2 14.8
396(11) 0.00810 380.1 15.1
386(11) 0.00804 380.0 15.4
380(11) 0.00836 379.9 15.7
368(10) 0.00908 379.7 16.1
380(10) 0.00887 379.6 16.5
371(10) 0.00864 379.5 16.9
419(11) 0.00723 379.4 17.3
368(10) 0.00861 379.3 17.7
363(10) 0.00914 379.2 18.2
375(10) 0.00909 379.1 18.7
381(11) 0.00815 378.9 19.2
372(11) 0.00798 378.8 19.8
367(10) 0.00876 378.7 20.3
395(10) 0.00853 378.6 20.9
373(10) 0.00910 378.5 21.6
398(11) 0.00822 378.4 22.2
407(11) 0.00753 378.2 22.9
396(11) 0.00813 378.1 23.6
387(10) 0.00876 378.0 24.4
392(10) 0.00874 377.9 25.2
403(11) 0.00815 377.8 26.0
395(11) 0.00756 377.7 26.9
392(11) 0.00819 377.6 27.8
387(10) 0.00880 377.4 28.8
386(10) 0.00889 377.3 29.8
415(11) 0.00796 377.2 30.9
426(11) 0.00730 377.1 32.0
428(11) 0.00766 377.0 33.2
400(10) 0.00868 376.9 34.5
409(11) 0.00828 376.7 35.8
411(11) 0.00786 376.6 37.2
409(11) 0.00759 376.5 38.7
416(11) 0.00769 376.4 40.4
413(11) 0.00829 376.3 42.1
408(11) 0.00810 376.2 43.9
416(11) 0.00766 376.1 45.8
413(11) 0.00766 375.9 47.9
445(11) 0.00722 375.8 50.1
444(11) 0.00772 375.7 52.4
426(11) 0.00776 375.6 54.9
444(12) 0.00704 375.5 57.5
464(12) 0.00670 375.4 60.1
454(11) 0.00708 375.2 62.9
441(11) 0.00798 375.1 65.6
463(11) 0.00710 375.0 68.3
465(12) 0.00687 374.9 70.9
461(11) 0.00709 374.8 73.2
453(11) 0.00747 374.7 75.3
494(12) 0.00703 374.6 76.8
434(11) 0.00752 374.4 77.9
427(11) 0.00728 374.3 78.3
464(12) 0.00676 374.2 78.2
474(12) 0.00706 374.1 77.4
453(11) 0.00763 374.0 76.1
428(11) 0.00741 373.9 74.4
456(12) 0.00658 373.7 72.3
462(12) 0.00706 373.6 69.9
457(11) 0.00752 373.5 67.4
422(11) 0.00812 373.4 64.8
436(11) 0.00741 373.3 62.3
460(12) 0.00661 373.2 59.8
462(11) 0.00714 373.1 57.4
420(11) 0.00805 372.9 55.2
423(11) 0.00812 372.8 53.2
442(11) 0.00737 372.7 51.3
430(12) 0.00706 372.6 49.6
453(11) 0.00711 372.5 48.1
404(10) 0.00851 372.4 46.7
415(11) 0.00803 372.2 45.5
422(11) 0.00745 372.1 44.5
431(12) 0.00677 372.0 43.6
427(11) 0.00774 371.9 42.9
410(11) 0.00827 371.8 42.4
436(11) 0.00776 371.7 42.0
403(11) 0.00806 371.6 41.7
430(11) 0.00709 371.4 41.5
373(10) 0.00887 371.3 41.5
410(11) 0.00835 371.2 41.6
418(11) 0.00812 371.1 41.9
438(11) 0.00718 371.0 42.2
411(11) 0.00737 370.9 42.8
422(11) 0.00765 370.7 43.4
400(10) 0.00871 370.6 44.2
417(11) 0.00825 370.5 45.1
429(11) 0.00738 370.4 46.2
422(11) 0.00741 370.3 47.4
414(11) 0.00791 370.2 48.8
407(10) 0.00839 370.1 50.4
426(11) 0.00794 369.9 52.2
420(11) 0.00769 369.8 54.2
404(11) 0.00786 369.7 56.4
399(11) 0.00825 369.6 58.9
405(10) 0.00843 369.5 61.6
429(11) 0.00778 369.4 64.7
403(11) 0.00784 369.2 68.1
442(12) 0.00698 369.1 71.9
436(11) 0.00760 369.0 76.1
439(11) 0.00782 368.9 80.8
444(11) 0.00724 368.8 85.9
429(11) 0.00747 368.7 91.6
454(12) 0.00698 368.6 98.0
449(11) 0.00734 368.4 105.0
457(11) 0.00757 368.3 112.7
477(12) 0.00685 368.2 121.2
466(12) 0.00700 368.1 130.6
469(12) 0.00687 368.0 140.9
507(12) 0.00667 367.9 152.2
533(12) 0.00661 367.7 164.4
533(12) 0.00608 367.6 177.6
560(13) 0.00568 367.5 191.8
560(13) 0.00594 367.4 206.7
588(13) 0.00584 367.3 222.4
613(13) 0.00576 367.2 238.4
622(13) 0.00536 367.1 254.5
611(14) 0.00513 366.9 270.1
668(14) 0.00501 366.8 284.6
669(14) 0.00522 366.7 297.4
652(13) 0.00535 366.6 307.8
639(14) 0.00517 366.5 315.3
678(15) 0.00452 366.4 319.5
630(13) 0.00536 366.2 320.3
624(13) 0.00567 366.1 317.8
629(13) 0.00557 366.0 312.4
635(14) 0.00501 365.9 304.5
571(13) 0.00535 365.8 294.9
549(13) 0.00596 365.7 284.2
571(12) 0.00617 365.6 272.8
595(13) 0.00584 365.4 261.2
544(12) 0.00622 365.3 249.4
572(13) 0.00533 365.2 237.6
556(13) 0.00598 365.1 225.8
545(12) 0.00642 365.0 213.7
526(12) 0.00666 364.9 201.5
510(12) 0.00637 364.7 189.1
534(13) 0.00582 364.6 176.7
509(12) 0.00621 364.5 164.4
498(12) 0.00703 364.4 152.4
482(11) 0.00710 364.3 141.0
476(12) 0.00680 364.2 130.2
472(12) 0.00655 364.1 120.1
441(11) 0.00738 363.9 110.9
437(11) 0.00782 363.8 102.4
485(12) 0.00697 363.7 94.6
440(11) 0.00732 363.6 87.6
478(12) 0.00652 363.5 81.3
442(11) 0.00752 363.4 75.5
419(11) 0.00820 363.2 70.4
413(11) 0.00786 363.1 65.7
410(11) 0.00747 363.0 61.4
408(11) 0.00793 362.9 57.6
438(11) 0.00754 362.8 54.1
402(10) 0.00852 362.7 50.9
374(10) 0.00862 362.6 48.1
411(11) 0.00768 362.4 45.4
397(11) 0.00826 362.3 43.0
382(10) 0.00883 362.2 40.8
397(10) 0.00866 362.1 38.8
363(10) 0.00891 362.0 36.9
404(11) 0.00774 361.9 35.2
391(11) 0.00833 361.7 33.6
384(10) 0.00881 361.6 32.1
397(10) 0.00865 361.5 30.8
382(10) 0.00850 361.4 29.5
389(11) 0.00818 361.3 28.3
393(11) 0.00828 361.2 27.2
404(10) 0.00844 361.1 26.1
382(10) 0.00903 360.9 25.2
382(11) 0.00826 360.8 24.2
390(11) 0.00755 360.7 23.4
352(10) 0.00927 360.6 22.6
398(10) 0.00865 360.5 21.8
372(10) 0.00904 360.4 21.1
369(10) 0.00871 360.2 20.4
386(11) 0.00777 360.1 19.8
372(10) 0.00874 360.0 19.2
377(10) 0.00887 359.9 18.6
349(10) 0.00981 359.8 18.1
373(10) 0.00846 359.7 17.6
379(11) 0.00791 359.6 17.1
373(10) 0.00866 359.4 16.7
341(10) 0.00994 359.3 16.2
363(10) 0.00908 359.2 15.8
360(10) 0.00891 359.1 15.4
379(11) 0.00804 359.0 15.1
380(11) 0.00829 358.9 14.7
377(10) 0.00911 358.7 14.4
351(10) 0.00950 358.6 14.1
372(11) 0.00836 358.5 13.8
373(11) 0.00808 358.4 13.6
374(11) 0.00813 358.3 13.3
367(10) 0.00926 358.2 13.1
379(10) 0.00877 358.1 12.9
379(10) 0.00842 357.9 12.7
355(10) 0.00893 357.8 12.5
352(10) 0.00938 357.7 12.3
340(10) 0.01001 357.6 12.2
340(10) 0.00948 357.5 12.0
359(10) 0.00902 357.4 11.9
369(10) 0.00866 357.2 11.8
357(10) 0.00912 357.1 11.7
344(10) 0.00987 357.0 11.6
344(10) 0.00932 356.9 11.6
330(10) 0.00960 356.8 11.5
370(11) 0.00833 356.7 11.5
370(10) 0.00907 356.6 11.5
329(9) 0.01032 356.4 11.6
341(10) 0.00917 356.3 11.6
369(11) 0.00823 356.2 11.7
379(11) 0.00837 356.1 11.8
372(10) 0.00889 356.0 11.9
343(10) 0.00990 355.9 12.1
368(10) 0.00854 355.7 12.2
349(10) 0.00894 355.6 12.4
363(10) 0.00854 355.5 12.6
349(10) 0.00949 355.4 12.9
359(10) 0.00948 355.3 13.2
352(10) 0.00925 355.2 13.5
359(10) 0.00846 355.1 13.8
362(10) 0.00908 354.9 14.1
357(10) 0.00944 354.8 14.4
361(10) 0.00947 354.7 14.7
369(10) 0.00867 354.6 15.0
338(10) 0.00869 354.5 15.2
335(10) 0.00945 354.4 15.4
353(10) 0.00970 354.2 15.5
365(10) 0.00925 354.1 15.5
344(10) 0.00902 354.0 15.5
368(11) 0.00817 353.9 15.4
385(11) 0.00816 353.8 15.2
358(10) 0.00956 353.7 14.9
372(10) 0.00908 353.6 14.5
349(10) 0.00925 353.4 14.1
370(11) 0.00827 353.3 13.7
363(10) 0.00882 353.2 13.2
370(10) 0.00921 353.1 12.7
371(10) 0.00920 353.0 12.3
370(10) 0.00855 352.9 11.8
331(10) 0.00954 352.7 11.3
345(10) 0.00906 352.6 10.9
357(10) 0.00941 352.5 10.5
363(10) 0.00896 352.4 10.1
372(10) 0.00856 352.3 9.7
339(10) 0.00932 352.2 9.4
363(10) 0.00888 352.0 9.1
369(10) 0.00930 351.9 8.8
360(10) 0.00923 351.8 8.5
347(10) 0.00897 351.7 8.2
335(10) 0.00918 351.5 8.0
341(10) 0.00952 351.4 7.8
336(9) 0.01009 351.3 7.6
341(10) 0.00922 351.2 7.4
369(11) 0.00835 351.1 7.2
343(10) 0.00936 350.9 7.1
367(10) 0.00902 350.8 6.9
356(10) 0.00956 350.7 6.8
365(10) 0.00878 350.6 6.6
352(10) 0.00889 350.5 6.5
347(10) 0.00921 350.3 6.4
351(10) 0.00959 350.2 6.3
340(10) 0.00998 350.1 6.2
357(10) 0.00896 350.0 6.1
323(10) 0.00981 349.8 6.1
354(10) 0.00880 349.7 6.0
332(10) 0.00998 349.6 5.9
360(10) 0.00939 349.5 5.9
330(10) 0.01000 349.4 5.8
336(10) 0.00897 349.2 5.8
359(10) 0.00901 349.1 5.7
339(10) 0.01000 349.0 5.7
315(9) 0.01053 348.9 5.6
345(10) 0.00939 348.7 5.6
335(10) 0.00899 348.6 5.6
355(10) 0.00910 348.5 5.6
330(9) 0.01019 348.4 5.5
365(10) 0.00947 348.3 5.5
349(10) 0.00920 348.1 5.5
376(11) 0.00787 348.0 5.5
346(10) 0.00920 347.9 5.5
373(10) 0.00923 347.8 5.5
356(10) 0.00938 347.7 5.5
363(10) 0.00853 347.5 5.5
326(10) 0.00903 347.4 5.5
342(10) 0.00908 347.3 5.5
337(9) 0.01011 347.2 5.5
344(10) 0.00951 347.0 5.6
324(10) 0.00976 346.9 5.6
344(10) 0.00877 346.8 5.6
341(10) 0.00928 346.7 5.7
348(10) 0.00966 346.6 5.7
327(9) 0.01022 346.4 5.8
336(10) 0.00937 346.3 5.8
349(10) 0.00845 346.2 5.9
329(10) 0.00935 346.1 5.9
352(10) 0.00964 345.9 6.0
338(10) 0.00955 345.8 6.1
345(10) 0.00926 345.7 6.1
367(10) 0.00845 345.6 6.2
351(10) 0.00909 345.5 6.3
331(9) 0.01031 345.3 6.4
338(10) 0.00911 345.2 6.5
332(10) 0.00909 345.1 6.6
354(10) 0.00878 345.0 6.7
376(10) 0.00856 344.9 6.9
357(10) 0.00954 344.7 7.0
358(10) 0.00901 344.6 7.2
365(11) 0.00828 344.5 7.3
333(10) 0.00935 344.4 7.5
322(9) 0.01013 344.2 7.7
345(10) 0.00978 344.1 7.9
342(10) 0.00927 344.0 8.1
353(10) 0.00873 343.9 8.4
337(10) 0.00938 343.8 8.6
328(9) 0.01038 343.6 8.9
346(10) 0.00981 343.5 9.2
353(10) 0.00928 343.4 9.5
347(10) 0.00893 343.3 9.8
362(10) 0.00879 343.1 10.2
342(10) 0.00983 343.0 10.6
354(10) 0.00965 342.9 11.0
356(10) 0.00909 342.8 11.4
356(10) 0.00869 342.7 11.9
349(10) 0.00915 342.5 12.4
320(9) 0.01051 342.4 13.0
367(10) 0.00924 342.3 13.6
372(10) 0.00873 342.2 14.2
390(11) 0.00744 342.1 14.9
345(10) 0.00943 341.9 15.6
362(10) 0.00942 341.8 16.3
340(10) 0.01004 341.7 17.1
375(10) 0.00856 341.6 17.9
375(11) 0.00791 341.4 18.8
335(10) 0.00943 341.3 19.7
383(10) 0.00904 341.2 20.6
367(10) 0.00923 341.1 21.5
377(11) 0.00835 341.0 22.5
365(11) 0.00832 340.8 23.4
351(10) 0.00889 340.7 24.4
368(10) 0.00928 340.6 25.3
371(10) 0.00899 340.5 26.1
357(10) 0.00905 340.3 26.9
374(11) 0.00829 340.2 27.5
368(10) 0.00865 340.1 28.1
369(10) 0.00927 340.0 28.5
392(10) 0.00844 339.9 28.7
364(10) 0.00873 339.7 28.8
358(10) 0.00881 339.6 28.8
392(11) 0.00827 339.5 28.5
377(10) 0.00903 339.4 28.2
369(10) 0.00891 339.3 27.6
358(10) 0.00880 339.1 27.0
378(11) 0.00833 339.0 26.3
394(11) 0.00834 338.9 25.4
366(10) 0.00930 338.8 24.6
362(10) 0.00876 338.6 23.6
378(11) 0.00813 338.5 22.7
361(10) 0.00890 338.4 21.7
342(10) 0.00958 338.3 20.8
339(10) 0.00990 338.2 19.9
361(10) 0.00906 338.0 19.0
363(10) 0.00840 337.9 18.1
363(10) 0.00868 337.8 17.3
367(10) 0.00927 337.7 16.5
343(10) 0.01002 337.5 15.8
344(10) 0.00921 337.4 15.1
324(10) 0.00941 337.3 14.4
335(10) 0.00960 337.2 13.8
325(10) 0.01000 337.1 13.2
329(9) 0.01029 336.9 12.7
345(10) 0.00935 336.8 12.2
352(10) 0.00857 336.7 11.7
349(10) 0.00934 336.6 11.3
357(10) 0.00957 336.5 10.9
317(9) 0.01072 336.3 10.5
346(10) 0.00926 336.2 10.1
328(10) 0.00914 336.1 9.8
337(10) 0.00951 336.0 9.5
327(9) 0.01032 335.8 9.2
351(10) 0.00954 335.7 9.0
333(10) 0.00949 335.6 8.8
329(10) 0.00915 335.5 8.5
340(10) 0.00944 335.4 8.3
361(10) 0.00950 335.2 8.2
355(10) 0.00935 335.1 8.0
342(10) 0.00919 335.0 7.8
350(10) 0.00876 334.9 7.7
351(10) 0.00925 334.7 7.6
368(10) 0.00924 334.6 7.5
342(10) 0.00968 334.5 7.4
349(10) 0.00913 334.4 7.3
346(10) 0.00896 334.3 7.2
358(10) 0.00903 334.1 7.2
334(9) 0.01026 334.0 7.1
321(10) 0.01007 333.9 7.1
327(10) 0.00947 333.8 7.0
328(10) 0.00953 333.7 7.0
354(10) 0.00884 333.5 7.0
348(10) 0.00978 333.4 7.0
337(10) 0.00968 333.3 7.0
340(10) 0.00933 333.2 7.0
332(10) 0.00923 333.0 7.0
318(9) 0.01043 332.9 7.0
323(9) 0.01038 332.8 7.0
327(9) 0.01009 332.7 7.1
316(10) 0.00983 332.6 7.1
314(10) 0.00988 332.4 7.1
305(9) 0.01074 332.3 7.2
359(10) 0.00951 332.2 7.3
345(10) 0.00932 332.1 7.3
334(10) 0.00896 331.9 7.4
336(10) 0.00947 331.8 7.5
354(10) 0.00960 331.7 7.5
363(10) 0.00927 331.6 7.6
311(9) 0.01046 331.5 7.7
342(10) 0.00867 331.3 7.8
324(10) 0.00974 331.2 7.9
346(10) 0.00967 331.1 8.0
327(9) 0.01041 331.0 8.1
338(10) 0.00952 330.9 8.1
358(11) 0.00822 330.7 8.2
343(10) 0.00925 330.6 8.3
328(9) 0.01019 330.5 8.4
348(10) 0.00979 330.4 8.5
312(9) 0.01055 330.2 8.5
335(10) 0.00915 330.1 8.6
338(10) 0.00945 330.0 8.6
334(10) 0.01007 329.9 8.7
320(9) 0.01054 329.8 8.7
333(10) 0.00961 329.6 8.7
339(10) 0.00874 329.5 8.7
338(10) 0.00931 329.4 8.7
338(9) 0.01011 329.3 8.7
342(10) 0.00973 329.1 8.7
334(10) 0.00932 329.0 8.6
347(10) 0.00851 328.9 8.6
332(10) 0.00932 328.8 8.5
344(10) 0.00989 328.7 8.4
353(10) 0.00928 328.5 8.4
351(10) 0.00911 328.4 8.2
331(10) 0.00945 328.3 8.1
358(10) 0.00891 328.2 8.0
347(10) 0.00973 328.1 7.9
328(9) 0.01019 327.9 7.8
347(10) 0.00904 327.8 7.6
327(10) 0.00954 327.7 7.5
342(10) 0.00909 327.6 7.3
325(9) 0.01041 327.4 7.2
331(10) 0.00976 327.3 7.0
328(10) 0.00930 327.2 6.9
334(10) 0.00952 327.1 6.7
351(10) 0.00902 327.0 6.6
303(9) 0.01101 326.8 6.4
360(10) 0.00895 326.7 6.3
332(10) 0.00946 326.6 6.1
338(10) 0.00925 326.5 6.0
346(10) 0.00931 326.3 5.9
337(10) 0.01006 326.2 5.7
317(10) 0.01005 326.1 5.6
342(10) 0.00919 326.0 5.5
355(10) 0.00879 325.9 5.3
310(9) 0.01038 325.7 5.2
342(10) 0.00988 325.6 5.1
324(10) 0.00975 325.5 5.0
313(10) 0.00998 325.4 4.9
341(10) 0.00912 325.3 4.8
330(9) 0.01014 325.1 4.7
335(10) 0.00997 325.0 4.6
344(10) 0.00910 324.9 4.5
336(10) 0.00916 324.8 4.4
338(10) 0.00969 324.6 4.3
328(9) 0.01030 324.5 4.2
328(9) 0.01014 324.4 4.1
332(10) 0.00914 324.3 4.0
330(10) 0.00871 324.2 3.9
308(9) 0.01041 324.0 3.9
337(9) 0.01008 323.9 3.8
325(9) 0.01026 323.8 3.7
331(10) 0.00964 323.7 3.7
318(10) 0.00981 323.5 3.6
320(10) 0.01005 323.4 3.5
319(9) 0.01057 323.3 3.5
340(10) 0.00982 323.2 3.4
343(10) 0.00938 323.1 3.4
332(10) 0.00936 322.9 3.3
302(9) 0.01092 322.8 3.3
325(9) 0.01019 322.7 3.2
316(9) 0.01045 322.6 3.2
336(10) 0.00937 322.5 3.1
346(10) 0.00878 322.3 3.1
321(10) 0.00979 322.2 3.0
324(9) 0.01052 322.1 3.0
325(9) 0.01016 322.0 3.0
320(10) 0.01006 321.8 2.9
326(10) 0.00955 321.7 2.9
337(10) 0.00945 321.6 2.9
342(10) 0.00992 321.5 2.8
325(10) 0.00994 321.4 2.8
336(10) 0.00929 321.2 2.8
309(9) 0.01020 321.1 2.7
319(9) 0.01042 321.0 2.7
343(10) 0.00984 320.9 2.7
313(9) 0.01044 320.7 2.7
324(10) 0.00948 320.6 2.6
316(10) 0.01004 320.5 2.6
321(9) 0.01014 320.4 2.6
317(9) 0.01055 320.3 2.6
321(10) 0.00984 320.1 2.5
334(10) 0.00902 320.0 2.5
307(9) 0.01008 319.9 2.5
319(10) 0.01005 319.8 2.5
307(9) 0.01109 319.7 2.5
341(10) 0.00918 319.5 2.5
309(9) 0.01034 319.4 2.4
325(10) 0.00970 319.3 2.4
325(9) 0.01012 319.2 2.4
330(9) 0.01025 319.0 2.4
320(10) 0.00938 318.9 2.4
308(10) 0.00964 318.8 2.4
291(9) 0.01091 318.7 2.4
304(9) 0.01097 318.6 2.4
299(9) 0.01115 318.4 2.4
297(9) 0.01035 318.3 2.3
339(10) 0.00863 318.2 2.3
327(10) 0.00969 318.1 2.3
318(9) 0.01058 318.1 2.3
317(9) 0.01050 318.0 2.3
314(10) 0.01004 318.0 2.3
349(10) 0.00842 317.9 2.3
333(10) 0.00961 317.9 2.3
312(9) 0.01082 317.8 2.3
336(10) 0.00992 317.8 2.3
335(10) 0.00960 317.7 2.3
316(10) 0.00962 317.6 2.3
317(9) 0.01026 317.6 2.3
329(9) 0.01023 317.5 2.3
320(9) 0.01045 317.5 2.3
324(10) 0.00968 317.4 2.3
344(10) 0.00890 317.4 2.3
328(10) 0.00991 317.3 2.3
313(9) 0.01077 317.2 2.4
334(10) 0.01006 317.2 2.4
310(9) 0.01041 317.1 2.4
328(10) 0.00937 317.1 2.4
326(10) 0.00977 317.0 2.4
312(9) 0.01073 317.0 2.4
337(10) 0.00961 316.9 2.4
312(9) 0.01022 316.8 2.5
320(10) 0.00956 316.8 2.5
322(10) 0.00973 316.7 2.5
324(9) 0.01040 316.7 2.5
325(10) 0.00988 316.6 2.6
324(10) 0.00954 316.6 2.6
336(10) 0.00915 316.5 2.7
316(9) 0.01044 316.5 2.7
339(9) 0.01008 316.4 2.7
309(9) 0.01031 316.3 2.8
307(10) 0.01005 316.3 2.8
336(10) 0.00912 316.2 2.9
313(9) 0.01068 316.2 3.0
325(9) 0.01032 316.1 3.0
290(9) 0.01081 316.1 3.1
314(10) 0.00961 316.0 3.2
319(10) 0.00994 315.9 3.3
305(9) 0.01086 315.9 3.4
293(9) 0.01145 315.8 3.5
314(9) 0.01016 315.8 3.7
318(10) 0.00957 315.7 3.8
322(10) 0.01000 315.7 4.0
338(10) 0.00984 315.6 4.2
313(9) 0.01086 315.6 4.4
316(10) 0.00977 315.5 4.7
319(10) 0.00935 315.4 5.0
312(9) 0.01014 315.4 5.4
317(9) 0.01060 315.3 5.9
331(9) 0.01015 315.3 6.4
320(10) 0.00990 315.2 7.0
314(10) 0.00941 315.2 7.8
314(9) 0.01021 315.1 8.8
323(9) 0.01035 315.0 9.9
319(9) 0.01047 315.0 11.3
307(9) 0.01033 314.9 13.0
313(10) 0.00925 314.9 14.9
325(10) 0.00965 314.8 17.1
336(10) 0.01007 314.8 19.5
324(9) 0.01038 314.7 22.1
353(10) 0.00892 314.7 24.7
333(10) 0.00942 314.6 26.9
338(10) 0.00962 314.5 28.4
304(9) 0.01100 314.5 28.9
310(9) 0.01077 314.4 28.3
322(10) 0.00940 314.4 26.8
331(10) 0.00931 314.3 24.6
339(10) 0.00936 314.3 22.1
315(9) 0.01065 314.2 19.5
299(9) 0.01070 314.1 17.1
352(10) 0.00888 314.1 15.0
337(10) 0.00929 314.0 13.1
326(10) 0.00976 314.0 11.6
303(9) 0.01108 313.9 10.2
342(10) 0.00951 313.9 9.1
299(9) 0.01087 313.8 8.2
331(10) 0.00900 313.8 7.5
290(9) 0.01092 313.7 6.9
324(9) 0.01032 313.6 6.4
315(9) 0.01043 313.6 6.0
321(10) 0.00991 313.5 5.7
320(10) 0.00976 313.5 5.4
302(9) 0.01097 313.4 5.2
329(9) 0.01019 313.4 5.0
325(10) 0.00995 313.3 4.9
318(10) 0.00973 313.2 4.8
311(9) 0.01009 313.2 4.7
304(9) 0.01076 313.1 4.6
320(9) 0.01059 313.1 4.6
313(9) 0.01020 313.0 4.5
323(10) 0.00923 313.0 4.5
311(9) 0.01050 312.9 4.5
304(9) 0.01102 312.9 4.5
321(9) 0.01042 312.8 4.5
316(9) 0.01022 312.7 4.5
345(10) 0.00876 312.7 4.5
327(10) 0.01007 312.6 4.5
315(9) 0.01049 312.6 4.5
310(9) 0.01082 312.5 4.6
300(9) 0.01061 312.5 4.6
335(10) 0.00873 312.4 4.7
322(10) 0.00972 312.3 4.8
308(9) 0.01085 312.3 4.8
333(10) 0.00988 312.2 4.9
331(10) 0.00940 312.2 5.0
320(10) 0.00936 312.1 5.2
300(9) 0.01050 312.1 5.3
307(9) 0.01106 312.0 5.4
292(9) 0.01119 312.0 5.6
302(9) 0.01051 311.9 5.8
306(10) 0.00976 311.8 5.9
312(10) 0.00990 311.8 6.1
282(9) 0.01176 311.7 6.3
298(9) 0.01107 311.7 6.4
307(9) 0.01034 311.6 6.5
308(9) 0.01022 311.6 6.6
343(10) 0.00905 311.5 6.6
321(9) 0.01036 311.4 6.5
333(10) 0.00981 311.4 6.4
318(10) 0.00985 311.3 6.2
320(10) 0.00950 311.3 6.0
307(9) 0.01008 311.2 5.8
321(9) 0.01056 311.2 5.6
295(9) 0.01100 311.1 5.4
312(9) 0.01016 311.1 5.2
341(10) 0.00898 311.0 5.0
315(9) 0.01039 310.9 4.9
305(9) 0.01096 310.9 4.8
304(9) 0.01050 310.8 4.6
312(10) 0.00961 310.8 4.5
289(9) 0.01074 310.7 4.5
329(10) 0.00986 310.7 4.4
321(9) 0.01054 310.6 4.3
337(10) 0.00939 310.5 4.3
308(10) 0.01004 310.5 4.3
301(9) 0.01040 310.4 4.2
333(10) 0.00986 310.4 4.2
318(9) 0.01057 310.3 4.2
308(9) 0.01032 310.3 4.2
312(10) 0.00954 310.2 4.2
317(10) 0.00983 310.2 4.2
333(9) 0.01017 310.1 4.3
317(9) 0.01066 310.0 4.3
306(9) 0.01044 310.0 4.3
294(9) 0.01046 309.9 4.4
297(9) 0.01095 309.9 4.4
304(9) 0.01087 309.8 4.5
280(9) 0.01176 309.8 4.5
304(9) 0.01070 309.7 4.6
292(9) 0.01029 309.6 4.6
320(10) 0.00991 309.6 4.7
318(9) 0.01046 309.5 4.8
301(9) 0.01124 309.5 4.9
305(9) 0.01039 309.4 4.9
303(10) 0.00940 309.4 5.0
296(9) 0.01060 309.3 5.1
308(9) 0.01084 309.3 5.2
337(10) 0.00993 309.2 5.3
319(10) 0.00994 309.1 5.5
328(10) 0.00907 309.1 5.6
305(9) 0.01034 309.0 5.7
311(9) 0.01088 309.0 5.8
301(9) 0.01066 308.9 6.0
290(9) 0.01095 308.9 6.1
308(10) 0.00991 308.8 6.3
321(10) 0.00999 308.7 6.4
311(9) 0.01074 308.7 6.6
291(9) 0.01108 308.6 6.8
311(10) 0.00977 308.6 6.9
310(10) 0.00992 308.5 7.1
322(10) 0.00963 308.5 7.3
308(9) 0.01083 308.4 7.5
298(9) 0.01056 308.4 7.7
314(9) 0.01012 308.3 7.9
303(9) 0.01041 308.2 8.1
301(9) 0.01049 308.2 8.3
323(9) 0.01034 308.1 8.5
307(9) 0.01013 308.1 8.7
312(9) 0.01034 308.0 9.0
348(10) 0.00937 308.0 9.2
320(9) 0.01034 307.9 9.4
312(9) 0.01078 307.8 9.6
319(10) 0.00952 307.8 9.8
298(9) 0.01023 307.7 10.0
318(10) 0.00984 307.7 10.2
320(9) 0.01020 307.6 10.3
330(9) 0.01017 307.6 10.5
319(10) 0.00982 307.5 10.7
313(10) 0.00972 307.5 10.8
329(10) 0.00985 307.4 10.9
319(9) 0.01043 307.3 11.0
305(9) 0.01085 307.3 11.1
323(10) 0.00968 307.2 11.2
304(9) 0.01028 307.2 11.2
333(10) 0.00966 307.1 11.3
326(10) 0.01007 307.1 11.3
323(9) 0.01039 307.0 11.3
332(10) 0.00949 306.9 11.3
305(10) 0.01000 306.9 11.3
317(10) 0.00966 306.8 11.3
302(9) 0.01084 306.8 11.3
282(9) 0.01193 306.7 11.3
340(10) 0.00916 306.7 11.2
340(10) 0.00863 306.6 11.2
299(9) 0.01040 306.6 11.2
329(10) 0.01006 306.5 11.2
302(9) 0.01119 306.4 11.2
317(10) 0.00971 306.4 11.2
309(10) 0.00962 306.3 11.2
316(10) 0.00988 306.3 11.2
308(9) 0.01094 306.2 11.2
294(9) 0.01109 306.2 11.3
303(9) 0.01055 306.1 11.4
294(9) 0.01026 306.0 11.5
315(10) 0.00992 306.0 11.6
306(9) 0.01100 305.9 11.7
308(9) 0.01053 305.9 11.8
330(10) 0.00960 305.8 12.0
309(10) 0.00987 305.8 12.2
308(9) 0.01047 305.7 12.4
317(9) 0.01059 305.7 12.7
331(10) 0.00962 305.6 13.0
312(10) 0.00999 305.5 13.3
313(10) 0.00999 305.5 13.6
307(9) 0.01069 305.4 14.0
322(9) 0.01047 305.4 14.4
325(10) 0.00977 305.3 14.8
327(10) 0.00975 305.3 15.3
339(10) 0.00914 305.2 15.8
341(10) 0.00917 305.1 16.3
319(9) 0.01057 305.1 16.8
324(10) 0.00962 305.0 17.4
344(10) 0.00915 305.0 18.0
347(10) 0.00896 304.9 18.6
340(10) 0.00974 304.9 19.1
364(10) 0.00942 304.8 19.7
346(10) 0.00942 304.7 20.3
359(10) 0.00854 304.7 20.9
341(10) 0.00960 304.6 21.4
373(10) 0.00892 304.6 21.8
337(10) 0.01000 304.5 22.2
325(10) 0.00963 304.5 22.6
331(10) 0.00926 304.4 22.8
354(10) 0.00899 304.4 23.0
343(10) 0.00978 304.3 23.1
331(9) 0.01024 304.2 23.1
329(10) 0.00975 304.2 22.9
356(11) 0.00829 304.1 22.7
331(10) 0.00943 304.1 22.4
314(9) 0.01070 304.0 22.0
358(10) 0.00952 304.0 21.6
317(9) 0.01052 303.9 21.0
344(10) 0.00850 303.8 20.5
354(10) 0.00892 303.8 19.9
327(9) 0.01041 303.7 19.2
326(9) 0.01036 303.7 18.6
331(10) 0.00978 303.6 17.9
336(10) 0.00892 303.6 17.2
340(10) 0.00959 303.5 16.6
333(9) 0.01025 303.5 15.9
316(9) 0.01067 303.4 15.3
322(9) 0.01013 303.3 14.7
334(10) 0.00891 303.3 14.1
330(10) 0.00949 303.2 13.6
316(9) 0.01066 303.2 13.1
318(9) 0.01027 303.1 12.6
315(10) 0.00992 303.1 12.1
312(10) 0.00974 303.0 11.7
338(10) 0.00938 302.9 11.3
321(9) 0.01041 302.9 10.9
297(9) 0.01100 302.8 10.5
330(10) 0.00934 302.8 10.2
300(9) 0.01062 302.7 9.9
303(9) 0.01042 302.7 9.6
334(9) 0.01013 302.6 9.3
288(9) 0.01118 302.6 9.1
271(9) 0.01137 302.5 8.9
293(9) 0.01055 302.4 8.7
285(9) 0.01134 302.4 8.5
316(9) 0.01063 302.3 8.3
324(10) 0.00971 302.3 8.2
297(9) 0.01037 302.2 8.0
325(10) 0.00965 302.2 7.9
322(10) 0.00995 302.1 7.8
318(9) 0.01056 302.0 7.7
329(10) 0.00956 302.0 7.6
331(10) 0.00936 301.9 7.6
333(10) 0.00952 301.9 7.5
323(9) 0.01009 301.8 7.5
329(9) 0.01025 301.8 7.4
285(9) 0.01116 301.7 7.4
306(10) 0.00995 301.7 7.4
319(10) 0.00977 301.6 7.3
325(9) 0.01027 301.5 7.3
303(9) 0.01088 301.5 7.3
326(10) 0.00936 301.4 7.3
291(9) 0.01062 301.4 7.2
308(9) 0.01017 301.3 7.2
308(9) 0.01078 301.3 7.2
306(9) 0.01114 301.2 7.1
325(10) 0.00976 301.1 7.0
315(10) 0.00919 301.1 7.0
311(9) 0.01011 301.0 6.9
301(9) 0.01111 301.0 6.8
317(9) 0.01053 300.9 6.7
311(10) 0.01001 300.9 6.6
293(10) 0.00991 300.8 6.5
291(9) 0.01056 300.8 6.4
304(9) 0.01087 300.7 6.3
311(9) 0.01058 300.6 6.1
310(9) 0.01038 300.6 6.0
337(10) 0.00899 300.5 5.8
310(9) 0.01034 300.5 5.7
307(9) 0.01105 300.4 5.6
311(9) 0.01038 300.4 5.4
279(9) 0.01145 300.3 5.3
294(9) 0.01020 300.2 5.2
274(9) 0.01148 300.2 5.0
291(9) 0.01143 300.1 4.9
291(9) 0.01129 300.1 4.8
276(9) 0.01185 300.0 4.6
300(9) 0.01061 300.0 4.5
316(10) 0.00987 299.9 4.4
302(9) 0.01100 299.9 4.3
304(9) 0.01049 299.8 4.2
294(9) 0.01083 299.7 4.1
280(9) 0.01132 299.7 4.0
315(9) 0.01025 299.6 3.9
307(9) 0.01089 299.6 3.8
290(9) 0.01093 299.5 3.7
276(9) 0.01146 299.5 3.7
301(9) 0.01065 299.4 3.6
312(9) 0.01012 299.3 3.5
283(9) 0.01176 299.3 3.5
319(10) 0.00976 299.2 3.4
307(9) 0.01029 299.2 3.3
303(9) 0.01040 299.1 3.3
299(9) 0.01089 299.1 3.2
291(9) 0.01159 299.0 3.2
292(9) 0.01091 299.0 3.1
298(10) 0.01004 298.9 3.1
301(9) 0.01020 298.8 3.0
308(9) 0.01077 298.8 3.0
314(9) 0.01070 298.7 3.0
287(9) 0.01107 298.7 2.9
307(10) 0.00963 298.6 2.9
297(9) 0.01076 298.6 2.9
302(9) 0.01104 298.5 2.8
311(9) 0.01071 298.4 2.8
295(9) 0.01062 298.4 2.8
283(9) 0.01072 298.3 2.8
299(9) 0.01055 298.3 2.8
302(9) 0.01081 298.2 2.8
312(9) 0.01069 298.2 2.7
298(9) 0.01080 298.1 2.7
303(10) 0.00956 298.1 2.7
286(9) 0.01061 298.0 2.7
304(9) 0.01086 297.9 2.7
291(9) 0.01138 297.9 2.8
294(9) 0.01071 297.8 2.8
299(10) 0.00978 297.8 2.8
307(9) 0.01014 297.7 2.8
295(9) 0.01128 297.7 2.8
290(9) 0.01132 297.6 2.8
285(9) 0.01126 297.5 2.8
284(9) 0.01040 297.5 2.8
284(9) 0.01088 297.4 2.8
300(9) 0.01115 297.4 2.7
313(9) 0.01047 297.3 2.7
297(9) 0.01077 297.3 2.7
299(9) 0.01029 297.2 2.6
284(9) 0.01120 297.2 2.6
295(9) 0.01129 297.1 2.6
283(9) 0.01132 297.0 2.5
307(9) 0.01014 297.0 2.5
295(9) 0.01049 296.9 2.4
252(8) 0.01255 296.9 2.4
293(9) 0.01149 296.8 2.4
272(9) 0.01109 296.8 2.3
270(9) 0.01182 296.7 2.3
295(9) 0.01068 296.6 2.3
296(9) 0.01100 296.6 2.3
271(9) 0.01229 296.5 2.2
320(10) 0.00999 296.5 2.2
295(9) 0.01084 296.4 2.2
305(9) 0.01043 296.4 2.2
271(9) 0.01195 296.3 2.1
299(9) 0.01113 296.3 2.1
323(10) 0.00986 296.2 2.1
320(10) 0.00941 296.1 2.1
262(9) 0.01205 296.1 2.1
281(9) 0.01162 296.0 2.1
276(9) 0.01206 296.0 2.1
291(9) 0.01052 295.9 2.0
291(9) 0.01027 295.9 2.0
294(9) 0.01077 295.8 2.0
275(9) 0.01181 295.7 2.0
284(9) 0.01170 295.7 2.0
298(9) 0.01039 295.6 2.0
290(9) 0.01015 295.6 2.0
262(9) 0.01220 295.5 2.0
290(9) 0.01130 295.5 2.0
288(9) 0.01150 295.4 2.0
288(9) 0.01102 295.4 2.0
308(10) 0.00972 295.3 2.0
282(9) 0.01154 295.2 2.0
284(9) 0.01171 295.2 2.0
317(9) 0.01060 295.1 2.0
298(9) 0.01042 295.1 2.0
283(9) 0.01044 295.0 2.0
274(9) 0.01157 295.0 2.0
307(9) 0.01094 294.9 2.0
300(9) 0.01076 294.8 2.0
302(9) 0.01026 294.8 2.0
312(10) 0.00960 294.7 2.0
289(9) 0.01103 294.7 2.0
310(9) 0.01091 294.6 2.0
277(9) 0.01187 294.6 2.0
320(10) 0.00994 294.5 2.0
288(9) 0.01033 294.5 2.0
285(9) 0.01062 294.4 2.0
276(9) 0.01213 294.3 2.0
319(9) 0.01032 294.3 2.0
276(9) 0.01156 294.2 2.0
271(9) 0.01105 294.2 2.0
281(9) 0.01104 294.1 2.0
291(9) 0.01149 294.1 2.0
300(9) 0.01062 294.0 2.0
281(9) 0.01150 293.9 2.0
290(9) 0.01087 293.9 2.0
280(9) 0.01127 293.8 2.0
280(9) 0.01189 293.8 2.0
305(9) 0.01027 293.7 2.0
280(9) 0.01081 293.7 2.0
286(9) 0.01061 293.6 2.0
299(9) 0.01066 293.5 2.0
281(9) 0.01176 293.5 2.0
300(9) 0.01031 293.4 2.0
296(9) 0.01019 293.4 2.0
305(9) 0.01042 293.3 2.0
290(9) 0.01139 293.3 2.0
295(9) 0.01132 293.2 2.0
291(9) 0.01061 293.2 2.0
279(9) 0.01065 293.1 2.0
331(10) 0.00956 293.0 2.0
300(9) 0.01124 293.0 2.0
312(9) 0.01089 292.9 2.0
316(10) 0.00963 292.9 2.1
298(10) 0.00973 292.8 2.1
295(9) 0.01060 292.8 2.1
290(9) 0.01121 292.7 2.1
282(9) 0.01196 292.6 2.1
298(9) 0.01054 292.7 2.1
299(10) 0.00991 292.7 2.1
267(9) 0.01202 292.7 2.1
334(10) 0.00985 292.7 2.1
276(9) 0.01206 292.7 2.1
284(9) 0.01094 292.8 2.1
279(9) 0.01068 292.8 2.1
310(9) 0.01029 292.8 2.2
300(9) 0.01107 292.8 2.2
310(9) 0.01074 292.9 2.2
300(9) 0.01062 292.9 2.2
302(10) 0.00976 292.9 2.2
303(9) 0.01059 292.9 2.2
304(9) 0.01099 293.0 2.2
291(9) 0.01110 293.0 2.2
308(9) 0.01041 293.0 2.2
295(9) 0.01089 293.0 2.3
298(9) 0.01079 293.0 2.3
283(9) 0.01182 293.1 2.3
293(9) 0.01074 293.1 2.3
280(9) 0.01109 293.1 2.3
284(9) 0.01055 293.1 2.3
273(9) 0.01139 293.2 2.3
286(9) 0.01163 293.2 2.3
307(9) 0.01040 293.2 2.4
280(9) 0.01134 293.2 2.4
279(9) 0.01090 293.2 2.4
282(9) 0.01131 293.3 2.4
314(9) 0.01059 293.3 2.4
294(9) 0.01051 293.3 2.4
294(9) 0.01043 293.3 2.5
300(9) 0.01018 293.4 2.5
292(9) 0.01074 293.4 2.5
289(9) 0.01159 293.4 2.5
309(10) 0.01005 293.4 2.5
293(9) 0.01014 293.4 2.6
298(9) 0.01053 293.5 2.6
301(9) 0.01067 293.5 2.6
270(8) 0.01236 293.5 2.6
291(9) 0.01052 293.5 2.7
285(9) 0.01090 293.6 2.7
287(9) 0.01107 293.6 2.7
299(9) 0.01087 293.6 2.7
293(9) 0.01125 293.6 2.8
292(9) 0.01068 293.6 2.8
282(9) 0.01083 293.7 2.8
311(9) 0.01023 293.7 2.9
297(9) 0.01117 293.7 2.9
295(9) 0.01133 293.7 2.9
291(9) 0.01068 293.8 3.0
293(10) 0.00995 293.8 3.0
294(9) 0.01095 293.8 3.0
298(9) 0.01115 293.8 3.1
300(9) 0.01103 293.9 3.1
292(9) 0.01101 293.9 3.1
298(10) 0.01000 293.9 3.2
289(9) 0.01112 293.9 3.2
315(9) 0.01061 293.9 3.3
307(9) 0.01099 294.0 3.3
310(9) 0.01023 294.0 3.3
292(10) 0.01006 294.0 3.4
293(9) 0.01064 294.0 3.4
291(9) 0.01148 294.1 3.5
291(9) 0.01115 294.1 3.5
286(9) 0.01092 294.1 3.5
290(9) 0.01014 294.1 3.5
274(9) 0.01118 294.1 3.6
299(9) 0.01132 294.2 3.6
297(9) 0.01082 294.2 3.6
265(9) 0.01187 294.2 3.6
272(9) 0.01110 294.2 3.6
298(9) 0.01033 294.3 3.7
299(9) 0.01113 294.3 3.7
286(9) 0.01137 294.3 3.7
308(10) 0.00979 294.3 3.7
293(9) 0.01054 294.3 3.7
316(10) 0.01002 294.4 3.7
282(9) 0.01164 294.4 3.8
302(9) 0.01043 294.4 3.8
308(9) 0.01022 294.4 3.8
289(9) 0.01108 294.5 3.8
301(9) 0.01107 294.5 3.8
313(9) 0.01059 294.5 3.9
299(9) 0.01041 294.5 3.9
298(9) 0.01047 294.5 3.9
281(9) 0.01140 294.6 3.9
291(9) 0.01113 294.6 4.0
297(9) 0.01115 294.6 4.0
295(9) 0.01052 294.6 4.0
310(10) 0.01007 294.7 4.1
295(9) 0.01086 294.7 4.1
286(9) 0.01138 294.7 4.1
290(9) 0.01149 294.7 4.2
290(9) 0.01051 294.7 4.2
322(10) 0.00921 294.8 4.3
289(9) 0.01113 294.8 4.3
288(9) 0.01161 294.8 4.4
292(9) 0.01153 294.8 4.4
315(10) 0.00981 294.9 4.5
303(10) 0.00945 294.9 4.5
293(9) 0.01067 294.9 4.6
287(9) 0.01165 294.9 4.6
320(9) 0.01033 295.0 4.7
306(9) 0.01031 295.0 4.7
286(9) 0.01056 295.0 4.8
294(9) 0.01063 295.0 4.9
300(9) 0.01105 295.0 4.9
282(9) 0.01163 295.1 5.0
281(9) 0.01090 295.1 5.1
285(9) 0.01026 295.1 5.1
306(9) 0.01015 295.1 5.2
287(9) 0.01164 295.2 5.3
309(9) 0.01072 295.2 5.4
281(9) 0.01109 295.2 5.5
287(9) 0.01104 295.2 5.5
307(9) 0.01032 295.2 5.6
289(9) 0.01153 295.3 5.7
338(10) 0.00927 295.3 5.8
298(9) 0.01013 295.3 5.9
277(9) 0.01105 295.3 6.0
296(9) 0.01055 295.4 6.1
312(9) 0.01075 295.4 6.2
302(9) 0.01087 295.4 6.3
284(9) 0.01059 295.4 6.4
276(9) 0.01101 295.4 6.5
297(9) 0.01050 295.5 6.6
295(9) 0.01127 295.5 6.8
290(9) 0.01114 295.5 6.9
304(9) 0.01044 295.5 7.0
300(9) 0.01043 295.6 7.1
299(9) 0.01088 295.6 7.3
307(9) 0.01101 295.6 7.4
297(9) 0.01070 295.6 7.6
294(9) 0.01052 295.6 7.7
283(9) 0.01129 295.7 7.9
294(9) 0.01092 295.7 8.0
290(9) 0.01153 295.7 8.2
274(9) 0.01104 295.7 8.4
279(9) 0.01083 295.8 8.5
302(10) 0.01004 295.8 8.7
303(9) 0.01083 295.8 8.9
308(9) 0.01101 295.8 9.1
298(9) 0.01098 295.9 9.3
333(10) 0.00907 295.9 9.5
296(9) 0.01095 295.9 9.8
275(9) 0.01168 295.9 10.0
294(9) 0.01129 295.9 10.2
290(9) 0.01088 296.0 10.5
303(10) 0.00948 296.0 10.7
295(9) 0.01063 296.0 11.0
286(9) 0.01141 296.0 11.3
285(9) 0.01147 296.1 11.6
303(9) 0.01065 296.1 11.9
314(10) 0.00936 296.1 12.2
314(10) 0.00997 296.1 12.5
301(9) 0.01105 296.1 12.8
327(9) 0.01020 296.2 13.2
301(9) 0.01066 296.2 13.6
314(10) 0.00939 296.2 14.0
303(9) 0.01044 296.2 14.4
319(9) 0.01047 296.3 14.8
305(9) 0.01085 296.3 15.2
313(10) 0.01003 296.3 15.7
306(10) 0.00995 296.3 16.2
318(10) 0.00989 296.3 16.7
328(9) 0.01033 296.4 17.2
300(9) 0.01101 296.4 17.8
289(9) 0.01067 296.4 18.4
297(10) 0.00994 296.4 19.0
303(9) 0.01037 296.5 19.6
304(9) 0.01094 296.5 20.3
318(9) 0.01031 296.5 21.0
308(9) 0.01029 296.5 21.8
315(10) 0.00958 296.5 22.6
299(9) 0.01072 296.6 23.5
346(10) 0.00979 296.6 24.4
297(9) 0.01099 296.6 25.3
294(9) 0.01050 296.6 26.3
298(9) 0.01048 296.7 27.4
315(10) 0.00996 296.7 28.6
317(9) 0.01076 296.7 29.8
319(10) 0.01005 296.7 31.1
298(10) 0.01006 296.8 32.5
319(10) 0.00959 296.8 34.1
326(10) 0.00974 296.8 35.7
294(9) 0.01143 296.8 37.4
334(10) 0.00919 296.8 39.3
307(9) 0.01033 296.9 41.4
345(10) 0.00930 296.9 43.6
328(9) 0.01009 296.9 46.1
360(10) 0.00940 296.9 48.8
323(10) 0.00986 297.0 51.7
359(11) 0.00826 297.0 54.9
389(11) 0.00809 297.0 58.5
377(10) 0.00883 297.0 62.5
356(10) 0.00948 297.0 67.0
342(10) 0.00928 297.1 72.1
351(10) 0.00868 297.1 77.8
386(10) 0.00848 297.1 84.4
383(10) 0.00904 297.1 91.8
402(11) 0.00829 297.2 100.5
413(11) 0.00771 297.2 110.4
415(11) 0.00730 297.2 122.0
457(12) 0.00706 297.2 135.4
428(11) 0.00807 297.2 150.9
459(11) 0.00754 297.3 169.0
480(12) 0.00673 297.3 189.8
514(13) 0.00594 297.3 213.7
519(12) 0.00620 297.3 240.9
581(13) 0.00605 297.4 271.4
620(13) 0.00560 297.4 305.2
628(14) 0.00521 297.4 341.4
702(15) 0.00451 297.4 378.8
737(14) 0.00457 297.4 415.2
715(14) 0.00498 297.5 447.9
783(15) 0.00439 297.5 474.0
767(15) 0.00425 297.5 491.1
769(15) 0.00418 297.5 498.4
769(15) 0.00429 297.6 496.9
778(14) 0.00456 297.6 489.3
777(15) 0.00452 297.6 478.4
752(15) 0.00439 297.6 466.6
724(15) 0.00448 297.6 455.4
735(15) 0.00456 297.7 444.9
682(14) 0.00522 297.7 434.2
716(14) 0.00469 297.7 421.8
709(14) 0.00461 297.7 406.2
714(15) 0.00453 297.8 386.4
708(14) 0.00471 297.8 362.5
683(14) 0.00518 297.8 335.4
638(13) 0.00523 297.8 306.6
612(13) 0.00534 297.9 277.7
582(13) 0.00557 297.9 249.7
518(12) 0.00652 297.9 223.7
496(12) 0.00707 297.9 200.0
504(12) 0.00647 297.9 178.7
471(12) 0.00676 298.0 159.9
463(11) 0.00710 298.0 143.3
451(11) 0.00739 298.0 128.8
391(10) 0.00879 298.0 116.2
391(11) 0.00779 298.1 105.1
395(11) 0.00772 298.1 95.5
389(11) 0.00822 298.1 87.2
395(10) 0.00844 298.1 79.8
380(10) 0.00904 298.1 73.4
378(10) 0.00848 298.2 67.8
344(10) 0.00871 298.2 62.8
349(10) 0.00912 298.2 58.4
360(10) 0.00907 298.2 54.5
345(10) 0.00979 298.3 50.9
357(10) 0.00883 298.3 47.8
349(10) 0.00857 298.3 44.9
352(10) 0.00897 298.3 42.3
323(9) 0.01028 298.3 40.0
340(10) 0.00998 298.4 37.9
345(10) 0.00936 298.4 35.9
343(10) 0.00845 298.4 34.1
311(10) 0.00991 298.4 32.5
326(9) 0.01042 298.5 30.9
305(9) 0.01072 298.5 29.5
304(9) 0.01032 298.5 28.2
310(10) 0.00996 298.5 27.0
314(9) 0.01021 298.5 25.9
331(9) 0.01039 298.6 24.9
320(9) 0.01032 298.6 23.9
315(10) 0.01006 298.6 23.0
315(10) 0.00976 298.6 22.2
329(10) 0.00966 298.7 21.4
328(9) 0.01016 298.7 20.6
298(9) 0.01104 298.7 20.0
326(10) 0.00977 298.7 19.3
311(9) 0.01019 298.8 18.7
307(9) 0.01039 298.8 18.1
279(9) 0.01205 298.8 17.6
295(9) 0.01075 298.8 17.1
315(10) 0.00973 298.8 16.7
320(10) 0.00920 298.9 16.2
306(9) 0.01040 298.9 15.8
307(9) 0.01092 298.9 15.4
318(9) 0.01008 298.9 15.1
328(10) 0.00971 299.0 14.7
347(10) 0.00903 299.0 14.4
304(9) 0.01046 299.0 14.1
324(9) 0.01034 299.0 13.8
328(10) 0.00958 299.0 13.6
319(10) 0.00951 299.1 13.4
306(9) 0.01051 299.1 13.2
283(9) 0.01147 299.1 13.0
301(9) 0.01112 299.1 12.8
298(9) 0.01091 299.2 12.6
298(9) 0.01033 299.2 12.5
305(9) 0.01017 299.2 12.4
309(9) 0.01058 299.2 12.3
326(9) 0.01046 299.2 12.2
310(9) 0.01008 299.3 12.2
324(10) 0.00944 299.3 12.1
309(9) 0.01047 299.3 12.2
324(9) 0.01040 299.3 12.2
312(9) 0.01085 299.4 12.2
304(9) 0.01033 299.4 12.3
299(10) 0.00980 299.4 12.5
333(10) 0.00924 299.4 12.6
307(9) 0.01095 299.4 12.9
293(9) 0.01143 299.5 13.1
288(9) 0.01109 299.5 13.5
297(10) 0.00995 299.5 13.9
329(10) 0.00914 299.5 14.4
306(9) 0.01083 299.6 15.1
324(9) 0.01024 299.6 15.9
336(10) 0.00951 299.6 16.9
329(10) 0.00954 299.6 18.1
325(9) 0.01021 299.7 19.7
344(10) 0.00983 299.7 21.9
343(10) 0.00952 299.7 24.6
348(10) 0.00925 299.7 28.3
349(10) 0.00891 299.7 33.0
343(10) 0.00930 299.8 39.2
349(10) 0.00975 299.8 47.1
377(10) 0.00889 299.8 56.7
369(10) 0.00865 299.8 68.1
375(11) 0.00832 299.9 80.8
405(11) 0.00765 299.9 93.8
403(10) 0.00846 299.9 104.9
407(11) 0.00822 299.9 111.4
410(11) 0.00777 299.9 111.2
405(11) 0.00792 300.0 104.3
399(11) 0.00811 300.0 93.0
385(10) 0.00885 300.0 79.9
367(10) 0.00910 300.0 67.0
361(10) 0.00912 300.1 55.6
364(10) 0.00887 300.1 45.9
345(10) 0.00956 300.1 38.0
340(10) 0.01004 300.1 31.8
334(10) 0.00944 300.1 26.9
311(9) 0.01012 300.2 23.1
333(10) 0.00983 300.2 20.3
337(10) 0.00991 300.2 18.0
338(10) 0.01003 300.2 16.3
327(10) 0.00958 300.3 14.9
303(9) 0.01010 300.3 13.8
316(9) 0.01025 300.3 12.8
315(9) 0.01058 300.3 12.1
320(9) 0.01043 300.3 11.4
313(9) 0.01043 300.4 10.8
316(10) 0.00941 300.4 10.3
317(10) 0.00976 300.4 9.8
325(9) 0.01027 300.4 9.5
325(9) 0.01035 300.5 9.1
317(9) 0.01023 300.5 8.8
303(10) 0.01001 300.5 8.5
323(10) 0.00969 300.5 8.3
290(9) 0.01160 300.5 8.0
307(9) 0.01086 300.6 7.8
311(10) 0.00973 300.6 7.7
297(10) 0.00970 300.6 7.5
296(9) 0.01071 300.6 7.3
294(9) 0.01135 300.7 7.2
309(9) 0.01074 300.7 7.1
286(9) 0.01113 300.7 7.0
302(10) 0.00981 300.7 6.9
288(9) 0.01108 300.8 6.8
308(9) 0.01076 300.8 6.7
273(9) 0.01201 300.8 6.6
294(9) 0.01021 300.8 6.5
279(9) 0.01063 300.8 6.4
301(9) 0.01039 300.9 6.4
302(9) 0.01118 300.9 6.3
290(9) 0.01113 300.9 6.3
321(10) 0.00988 300.9 6.2
329(10) 0.00915 301.0 6.2
301(10) 0.00998 301.0 6.1
293(9) 0.01135 301.0 6.1
295(9) 0.01102 301.0 6.1
318(10) 0.00961 301.0 6.0
299(9) 0.01051 301.1 6.0
306(9) 0.01054 301.1 6.0
314(9) 0.01070 301.1 6.0
294(9) 0.01078 301.1 6.0
302(9) 0.01034 301.2 6.0
299(9) 0.01023 301.2 5.9
291(9) 0.01088 301.2 5.9
306(9) 0.01093 301.2 5.9
319(10) 0.01002 301.2 5.9
312(10) 0.00967 301.3 5.9
312(9) 0.01029 301.3 5.9
295(9) 0.01117 301.3 5.9
322(9) 0.01028 301.3 5.9
282(9) 0.01159 301.4 5.9
316(10) 0.00983 301.4 6.0
298(9) 0.01076 301.4 6.0
278(9) 0.01162 301.4 6.0
309(9) 0.01083 301.4 6.0
307(9) 0.01014 301.5 6.0
311(10) 0.00967 301.5 6.0
328(10) 0.00932 301.5 6.1
293(9) 0.01108 301.5 6.1
288(9) 0.01165 301.6 6.1
319(10) 0.00979 301.6 6.1
321(10) 0.00917 301.6 6.2
331(10) 0.00942 301.6 6.2
307(9) 0.01090 301.7 6.2
284(9) 0.01173 301.7 6.3
318(10) 0.00987 301.7 6.3
301(10) 0.00989 301.7 6.4
308(9) 0.01017 301.7 6.4
303(9) 0.01113 301.8 6.5
299(9) 0.01097 301.8 6.5
297(9) 0.01098 301.8 6.6
296(9) 0.01030 301.8 6.6
290(9) 0.01103 301.9 6.7
331(9) 0.01033 301.9 6.7
331(10) 0.00987 301.9 6.8
293(9) 0.01063 301.9 6.9
280(9) 0.01076 301.9 6.9
321(10) 0.00977 301.9 7.0
297(9) 0.01122 301.9 7.1
314(9) 0.01070 301.9 7.1
312(10) 0.00971 301.9 7.2
280(9) 0.01082 301.9 7.3
306(9) 0.01009 301.8 7.4
314(9) 0.01067 301.8 7.5
309(9) 0.01036 301.8 7.6
323(10) 0.00931 301.8 7.7
294(9) 0.01032 301.8 7.8
292(9) 0.01083 301.8 7.9
304(9) 0.01100 301.7 8.0
287(9) 0.01147 301.7 8.1
314(9) 0.01025 301.7 8.2
315(10) 0.01006 301.7 8.3
313(9) 0.01028 301.7 8.4
270(9) 0.01216 301.7 8.5
289(9) 0.01122 301.6 8.6
297(9) 0.01034 301.6 8.8
295(9) 0.01068 301.6 8.9
320(9) 0.01030 301.6 9.0
295(9) 0.01127 301.6 9.1
311(9) 0.01015 301.6 9.3
297(9) 0.01020 301.5 9.4
314(10) 0.00964 301.5 9.5
295(9) 0.01088 301.5 9.7
309(9) 0.01091 301.5 9.8
296(9) 0.01079 301.5 10.0
282(9) 0.01079 301.5 10.1
321(10) 0.00984 301.5 10.2
319(9) 0.01055 301.4 10.4
325(9) 0.01034 301.4 10.5
307(9) 0.01022 301.4 10.7
294(9) 0.01040 301.4 10.8
316(10) 0.01002 301.4 10.9
324(9) 0.01016 301.4 11.1
304(9) 0.01120 301.3 11.2
313(9) 0.01027 301.3 11.3
314(10) 0.00958 301.3 11.5
316(9) 0.01020 301.3 11.6
305(9) 0.01062 301.3 11.7
310(9) 0.01076 301.3 11.9
307(9) 0.01015 301.2 12.0
314(10) 0.00917 301.2 12.1
299(9) 0.01060 301.2 12.2
294(9) 0.01133 301.2 12.3
297(9) 0.01096 301.2 12.4
307(9) 0.01026 301.2 12.5
288(9) 0.01054 301.1 12.7
309(9) 0.01028 301.1 12.8
323(9) 0.01046 301.1 12.9
275(9) 0.01205 301.1 13.0
316(10) 0.00957 301.1 13.1
309(10) 0.00959 301.1 13.2
301(9) 0.01016 301.0 13.3
318(9) 0.01047 301.0 13.4
312(9) 0.01050 301.0 13.6
295(9) 0.01055 301.0 13.7
325(10) 0.00927 301.0 13.8
325(10) 0.00959 301.0 14.0
327(9) 0.01023 301.0 14.1
297(9) 0.01102 300.9 14.3
311(9) 0.01020 300.9 14.5
337(10) 0.00905 300.9 14.7
306(9) 0.01021 300.9 14.9
271(9) 0.01220 300.9 15.1
328(10) 0.00979 300.9 15.3
332(10) 0.00932 300.8 15.6
307(9) 0.01010 300.8 15.9
315(9) 0.01029 300.8 16.2
290(9) 0.01152 300.8 16.5
293(9) 0.01085 300.8 16.8
313(10) 0.00997 300.8 17.2
344(10) 0.00874 300.7 17.6
330(10) 0.00988 300.7 18.0
311(9) 0.01089 300.7 18.5
308(9) 0.01017 300.7 19.0
308(10) 0.01006 300.7 19.5
347(10) 0.00902 300.7 20.1
348(10) 0.00944 300.6 20.8
308(9) 0.01096 300.6 21.5
310(10) 0.01003 300.6 22.3
310(10) 0.00974 300.6 23.1
333(10) 0.00927 300.6 24.1
335(10) 0.00992 300.6 25.1
342(10) 0.00985 300.5 26.3
356(10) 0.00877 300.5 27.5
318(10) 0.00948 300.5 29.0
315(10) 0.00991 300.5 30.5
340(10) 0.01006 300.5 32.3
340(10) 0.00988 300.5 34.4
367(10) 0.00843 300.4 36.7
340(10) 0.00887 300.4 39.4
365(10) 0.00891 300.4 42.5
362(10) 0.00949 300.4 46.2
377(10) 0.00904 300.4 50.6
361(10) 0.00915 300.4 56.2
374(11) 0.00814 300.4 63.5
364(10) 0.00859 300.3 73.3
380(10) 0.00894 300.3 86.9
430(11) 0.00789 300.3 105.9
444(11) 0.00751 300.3 132.3
479(12) 0.00661 300.3 167.7
501(12) 0.00656 300.3 213.3
556(12) 0.00632 300.2 268.4
627(13) 0.00552 300.2 328.7
707(14) 0.00467 300.2 385.0
744(15) 0.00436 300.2 421.0
785(15) 0.00430 300.2 422.6
736(14) 0.00483 300.2 389.7
714(14) 0.00470 300.1 337.0
655(14) 0.00499 300.1 279.9
582(13) 0.00553 300.1 228.3
535(12) 0.00623 300.1 185.9
514(12) 0.00680 300.1 153.5
485(12) 0.00685 300.1 130.0
480(12) 0.00671 300.0 113.5
470(12) 0.00688 300.0 102.1
426(11) 0.00793 300.0 94.3
431(11) 0.00802 300.0 88.7
408(11) 0.00757 300.0 84.5
410(11) 0.00766 300.0 81.2
424(11) 0.00758 299.9 78.5
405(11) 0.00833 299.9 76.2
393(10) 0.00866 299.9 74.3
400(11) 0.00783 299.9 72.6
426(11) 0.00714 299.9 71.2
401(11) 0.00808 299.9 70.0
365(10) 0.00913 299.9 69.0
367(10) 0.00931 299.8 68.3
397(11) 0.00806 299.8 67.9
398(11) 0.00787 299.8 67.6
380(10) 0.00849 299.8 67.6
371(10) 0.00895 299.8 67.8
380(10) 0.00903 299.8 68.2
382(10) 0.00854 299.7 68.8
402(11) 0.00732 299.7 69.6
387(11) 0.00821 299.7 70.5
370(10) 0.00916 299.7 71.5
376(10) 0.00906 299.7 72.6
382(10) 0.00873 299.7 73.8
369(11) 0.00812 299.6 74.9
376(10) 0.00850 299.6 76.0
365(10) 0.00936 299.6 77.0
387(10) 0.00884 299.6 77.8
376(10) 0.00863 299.6 78.5
381(11) 0.00785 299.6 78.9
366(10) 0.00903 299.5 79.0
408(10) 0.00843 299.5 78.8
381(10) 0.00889 299.5 78.2
366(10) 0.00875 299.5 77.4
378(11) 0.00809 299.5 76.2
384(10) 0.00840 299.5 74.8
373(10) 0.00914 299.4 73.1
375(10) 0.00874 299.4 71.3
370(10) 0.00859 299.4 69.3
367(10) 0.00852 299.4 67.3
375(10) 0.00863 299.4 65.2
350(10) 0.00972 299.4 63.1
341(10) 0.00942 299.4 61.1
369(10) 0.00855 299.3 59.1
374(11) 0.00810 299.3 57.1
370(10) 0.00881 299.3 55.2
374(10) 0.00914 299.3 53.3
351(10) 0.00944 299.3 51.4
367(10) 0.00867 299.3 49.4
350(10) 0.00867 299.2 47.4
349(10) 0.00911 299.2 45.6
340(10) 0.01002 299.2 43.8
332(10) 0.00963 299.2 42.2
336(10) 0.00918 299.2 40.7
336(10) 0.00925 299.2 39.3
333(10) 0.00993 299.1 38.1
328(9) 0.01031 299.1 37.0
336(10) 0.00934 299.1 36.0
340(10) 0.00891 299.1 35.0
310(9) 0.01032 299.1 34.2
328(10) 0.00998 299.1 33.5
304(9) 0.01104 299.0 32.8
327(10) 0.00969 299.0 32.3
310(10) 0.01000 299.0 31.7
335(10) 0.00958 299.0 31.3
372(10) 0.00916 299.0 30.9
331(9) 0.01014 299.0 30.6
307(9) 0.01046 298.9 30.3
325(10) 0.00931 298.9 30.0
328(9) 0.01009 298.9 29.9
335(10) 0.00996 298.9 29.7
328(9) 0.01027 298.9 29.6
317(9) 0.01018 298.9 29.6
307(10) 0.00918 298.8 29.6
339(10) 0.00918 298.8 29.6
323(9) 0.01041 298.8 29.7
324(9) 0.01023 298.8 29.8
335(10) 0.00943 298.8 30.0
336(10) 0.00890 298.8 30.2
341(10) 0.00934 298.8 30.5
346(10) 0.00981 298.7 30.8
346(10) 0.00964 298.7 31.1
342(10) 0.00905 298.7 31.5
317(10) 0.00966 298.7 31.9
336(10) 0.00937 298.7 32.4
332(9) 0.01028 298.7 33.0
328(10) 0.00977 298.6 33.5
351(10) 0.00867 298.6 34.2
335(10) 0.00916 298.6 34.9
343(10) 0.00901 298.6 35.6
327(9) 0.01040 298.6 36.5
319(9) 0.01038 298.6 37.3
338(10) 0.00934 298.5 38.3
329(10) 0.00966 298.5 39.4
343(10) 0.00958 298.5 40.5
350(10) 0.00972 298.5 41.7
358(10) 0.00927 298.5 43.0
351(10) 0.00931 298.5 44.5
371(10) 0.00845 298.4 46.0
357(10) 0.00907 298.4 47.7
356(10) 0.00949 298.4 49.5
380(11) 0.00833 298.4 51.5
368(11) 0.00835 298.4 53.7
343(10) 0.00877 298.4 56.0
371(10) 0.00870 298.3 58.5
391(10) 0.00873 298.3 61.3
380(10) 0.00854 298.3 64.3
384(10) 0.00843 298.3 67.6
380(10) 0.00853 298.3 71.2
372(10) 0.00898 298.3 75.1
429(11) 0.00806 298.3 79.3
388(11) 0.00830 298.2 83.9
389(11) 0.00787 298.2 88.9
369(10) 0.00874 298.2 94.2
409(11) 0.00819 298.2 100.0
420(11) 0.00826 298.2 106.0
411(11) 0.00797 298.2 112.5
438(12) 0.00705 298.1 119.1
408(11) 0.00797 298.1 125.9
445(11) 0.00771 298.1 132.8
401(10) 0.00851 298.1 139.4
436(11) 0.00755 298.1 145.7
456(12) 0.00655 298.1 151.4
456(12) 0.00707 298.0 156.2
445(11) 0.00780 298.0 159.9
442(11) 0.00772 298.0 162.5
471(12) 0.00708 298.0 163.9
465(12) 0.00661 298.0 164.1
479(12) 0.00660 298.0 163.3
476(11) 0.00723 297.9 161.8
449(11) 0.00764 297.9 159.8
440(11) 0.00732 297.9 157.7
464(12) 0.00660 297.9 155.7
424(11) 0.00765 297.9 154.1
446(11) 0.00769 297.9 153.2
421(11) 0.00812 297.8 153.1
424(11) 0.00755 297.8 154.0
443(11) 0.00730 297.8 156.2
467(12) 0.00703 297.8 159.9
459(11) 0.00758 297.8 165.1
474(12) 0.00707 297.8 172.0
479(12) 0.00687 297.7 180.7
501(12) 0.00626 297.7 191.3
510(12) 0.00618 297.7 203.6
504(12) 0.00694 297.7 217.3
511(12) 0.00661 297.7 231.6
563(13) 0.00569 297.7 245.4
575(13) 0.00564 297.7 257.1
545(12) 0.00606 297.6 265.3
563(12) 0.00623 297.6 268.8
544(12) 0.00613 297.6 267.6
569(13) 0.00551 297.6 262.6
552(13) 0.00583 297.6 255.3
554(12) 0.00624 297.6 247.5
517(12) 0.00671 297.5 240.2
516(12) 0.00639 297.5 234.4
507(12) 0.00634 297.5 230.5
554(13) 0.00588 297.5 228.6
549(12) 0.00620 297.5 228.7
527(12) 0.00666 297.5 230.8
549(12) 0.00609 297.4 234.7
546(13) 0.00587 297.4 240.2
576(13) 0.00562 297.4 247.1
568(13) 0.00604 297.4 255.3
613(13) 0.00572 297.4 264.3
614(13) 0.00533 297.4 274.1
621(14) 0.00510 297.3 284.1
638(14) 0.00515 297.3 294.0
613(13) 0.00569 297.3 303.5
601(13) 0.00585 297.3 312.1
629(14) 0.00507 297.3 319.4
661(15) 0.00454 297.3 325.0
633(14) 0.00517 297.2 328.5
627(13) 0.00557 297.2 329.7
620(13) 0.00561 297.2 328.5
600(13) 0.00556 297.2 324.9
599(14) 0.00504 297.2 319.0
571(13) 0.00576 297.2 311.1
578(12) 0.00613 297.2 301.5
582(13) 0.00596 297.1 290.4
559(13) 0.00600 297.1 278.4
536(13) 0.00587 297.1 265.7
526(12) 0.00619 297.1 252.6
539(12) 0.00648 297.1 239.3
533(12) 0.00653 297.1 226.0
520(12) 0.00634 297.0 212.8
494(12) 0.00638 297.0 200.0
495(12) 0.00659 297.0 187.8
483(11) 0.00716 297.0 176.1
482(11) 0.00714 297.0 165.2
468(12) 0.00657 297.0 154.9
419(11) 0.00723 296.9 145.4
422(11) 0.00776 296.9 136.5
440(11) 0.00778 296.9 128.3
405(11) 0.00828 296.9 120.7
428(11) 0.00746 296.9 113.7
396(11) 0.00781 296.9 107.2
394(11) 0.00783 296.8 101.3
401(10) 0.00855 296.8 95.7
404(11) 0.00816 296.8 90.6
406(11) 0.00767 296.8 85.9
368(10) 0.00839 296.8 81.5
411(11) 0.00797 296.8 77.5
371(10) 0.00921 296.7 73.8
371(10) 0.00865 296.7 70.3
396(11) 0.00757 296.7 67.1
385(11) 0.00832 296.7 64.1
361(10) 0.00940 296.7 61.3
370(10) 0.00925 296.7 58.7
369(10) 0.00871 296.6 56.3
353(10) 0.00904 296.6 54.1
368(10) 0.00850 296.6 52.0
351(10) 0.00951 296.6 50.0
397(10) 0.00876 296.6 48.2
360(10) 0.00894 296.6 46.5
374(11) 0.00803 296.6 44.9
355(10) 0.00874 296.5 43.3
343(10) 0.00968 296.5 41.9
363(10) 0.00953 296.5 40.6
369(10) 0.00864 296.5 39.3
339(10) 0.00900 296.5 38.2
372(10) 0.00868 296.5 37.0
370(10) 0.00907 296.4 36.0
360(10) 0.00957 296.4 35.0
371(10) 0.00870 296.4 34.0
333(10) 0.00901 296.4 33.1
341(10) 0.00946 296.4 32.3
350(10) 0.00962 296.4 31.4
350(10) 0.00955 296.3 30.6
343(10) 0.00915 296.3 29.9
342(10) 0.00881 296.3 29.2
353(10) 0.00880 296.3 28.5
371(10) 0.00909 296.3 27.8
347(10) 0.00962 296.3 27.2
331(10) 0.00966 296.2 26.5
326(10) 0.00924 296.2 25.9
324(10) 0.00978 296.2 25.3
337(10) 0.01000 296.2 24.8
323(9) 0.01038 296.2 24.2
339(10) 0.00951 296.2 23.7
325(10) 0.00947 296.1 23.2
341(10) 0.00883 296.1 22.7
347(10) 0.00976 296.1 22.2
332(10) 0.00970 296.1 21.8
292(9) 0.01046 296.1 21.3
327(10) 0.00957 296.1 20.9
337(10) 0.00962 296.1 20.5
347(10) 0.00981 296.0 20.1
336(10) 0.00950 296.0 19.8
347(10) 0.00911 296.0 19.4
322(10) 0.00987 296.0 19.1
317(9) 0.01025 296.0 18.7
342(10) 0.00986 296.0 18.4
322(9) 0.01009 295.9 18.2
314(9) 0.01024 295.9 17.9
336(10) 0.00928 295.9 17.6
312(10) 0.01007 295.9 17.4
326(9) 0.01033 295.9 17.2
330(10) 0.00942 295.9 17.0
321(10) 0.00967 295.8 16.8
323(10) 0.00975 295.8 16.7
302(9) 0.01078 295.8 16.5
312(9) 0.01081 295.8 16.4
318(10) 0.00981 295.8 16.3
316(10) 0.00972 295.8 16.2
323(10) 0.00993 295.7 16.2
335(10) 0.00999 295.7 16.2
333(9) 0.01010 295.7 16.1
351(10) 0.00932 295.7 16.2
323(10) 0.00930 295.7 16.2
316(10) 0.00993 295.7 16.3
318(9) 0.01048 295.6 16.5
315(9) 0.01080 295.6 16.6
306(9) 0.01061 295.6 16.8
329(10) 0.00908 295.6 17.1
323(10) 0.00974 295.6 17.4
320(9) 0.01046 295.6 17.8
316(9) 0.01066 295.6 18.2
324(10) 0.01002 295.5 18.7
318(10) 0.00991 295.5 19.3
348(10) 0.00918 295.5 19.9
307(9) 0.01104 295.5 20.7
313(9) 0.01063 295.5 21.5
340(10) 0.00930 295.5 22.4
304(9) 0.01045 295.4 23.5
326(10) 0.00967 295.4 24.6
345(10) 0.00981 295.4 25.9
347(10) 0.00955 295.4 27.2
335(10) 0.00977 295.4 28.6
340(10) 0.00939 295.4 30.1
361(10) 0.00861 295.3 31.5
345(10) 0.00980 295.3 32.9
337(10) 0.00958 295.3 34.1
357(10) 0.00901 295.3 35.1
365(10) 0.00852 295.3 35.8
349(10) 0.00929 295.3 36.2
334(9) 0.01015 295.2 36.2
331(10) 0.00983 295.2 35.8
346(10) 0.00916 295.2 35.0
337(10) 0.00935 295.2 33.9
343(10) 0.00927 295.2 32.6
340(10) 0.01002 295.2 31.1
318(10) 0.00988 295.1 29.5
336(10) 0.00896 295.1 27.8
319(10) 0.00971 295.1 26.2
326(9) 0.01010 295.1 24.7
330(9) 0.01020 295.1 23.2
366(10) 0.00847 295.1 21.8
336(10) 0.00948 295.0 20.5
334(10) 0.00961 295.0 19.3
329(9) 0.01016 295.0 18.3
327(9) 0.01038 295.0 17.3
342(10) 0.00918 295.0 16.4
333(10) 0.00926 295.0 15.6
308(9) 0.01033 295.0 14.8
316(9) 0.01048 294.9 14.1
301(9) 0.01116 294.9 13.5
292(9) 0.01062 294.9 13.0
317(10) 0.00933 294.9 12.5
338(10) 0.00919 294.9 12.0
313(9) 0.01067 294.9 11.6
323(9) 0.01054 294.8 11.2
316(10) 0.00995 294.8 10.9
324(10) 0.00910 294.8 10.6
335(10) 0.00951 294.8 10.3
315(9) 0.01039 294.8 10.0
298(9) 0.01090 294.8 9.8
295(9) 0.01097 294.7 9.6
300(10) 0.01004 294.7 9.4
314(10) 0.00977 294.7 9.2
308(9) 0.01080 294.7 9.0
293(9) 0.01119 294.7 8.8
305(9) 0.01044 294.7 8.7
290(9) 0.01066 294.6 8.6
295(9) 0.01064 294.6 8.4
290(9) 0.01151 294.6 8.3
329(9) 0.01015 294.6 8.2
312(9) 0.01014 294.6 8.1
308(10) 0.01000 294.6 8.1
298(9) 0.01070 294.5 8.0
306(9) 0.01093 294.5 7.9
322(10) 0.00991 294.5 7.9
308(9) 0.01046 294.5 7.8
316(10) 0.00980 294.5 7.8
327(10) 0.00971 294.5 7.8
319(9) 0.01057 294.5 7.7
320(9) 0.01029 294.4 7.7
324(10) 0.00950 294.4 7.7
305(10) 0.00989 294.4 7.7
296(9) 0.01066 294.4 7.8
301(9) 0.01114 294.4 7.8
288(9) 0.01106 294.4 7.8
342(10) 0.00875 294.3 7.9
281(9) 0.01122 294.3 8.0
295(9) 0.01097 294.3 8.1
307(9) 0.01081 294.3 8.2
298(9) 0.01055 294.3 8.3
324(10) 0.00964 294.3 8.4
318(10) 0.00987 294.2 8.6
320(10) 0.01007 294.2 8.8
305(9) 0.01109 294.2 9.0
281(9) 0.01101 294.2 9.2
312(10) 0.00955 294.2 9.5
317(10) 0.00969 294.2 9.8
308(9) 0.01076 294.1 10.1
297(9) 0.01128 294.1 10.5
310(10) 0.01005 294.1 10.9
344(10) 0.00846 294.1 11.4
294(9) 0.01089 294.1 11.9
307(9) 0.01078 294.1 12.4
327(9) 0.01020 294.0 13.0
344(10) 0.00921 294.0 13.7
324(10) 0.00945 294.0 14.4
312(9) 0.01028 294.0 15.1
318(9) 0.01067 294.0 15.8
284(9) 0.01160 294.0 16.5
286(9) 0.01155 293.9 17.1
303(10) 0.00949 293.9 17.7
285(9) 0.01066 293.9 18.2
305(9) 0.01094 293.9 18.6
305(9) 0.01071 293.9 18.8
321(10) 0.00998 293.9 18.8
311(10) 0.00935 293.9 18.6
345(10) 0.00909 293.8 18.3
328(9) 0.01033 293.8 17.9
303(9) 0.01091 293.8 17.3
317(9) 0.01014 293.8 16.6
332(10) 0.00906 293.8 15.9
292(9) 0.01091 293.8 15.1
300(9) 0.01122 293.7 14.4
313(9) 0.01035 293.7 13.6
313(10) 0.00990 293.7 12.9
327(10) 0.00939 293.7 12.3
305(9) 0.01047 293.7 11.6
321(9) 0.01059 293.7 11.0
323(10) 0.00992 293.6 10.5
303(9) 0.01025 293.6 10.0
298(9) 0.01039 293.6 9.5
295(9) 0.01053 293.6 9.1
292(9) 0.01151 293.6 8.7
320(10) 0.01002 293.6 8.4
286(9) 0.01114 293.5 8.1
302(9) 0.01043 293.5 7.8
293(9) 0.01082 293.5 7.5
296(9) 0.01121 293.5 7.3
282(9) 0.01125 293.5 7.1
303(9) 0.01027 293.5 6.9
335(10) 0.00934 293.4 6.7
294(9) 0.01114 293.4 6.5
307(9) 0.01074 293.4 6.4
301(9) 0.01062 293.4 6.2
288(9) 0.01045 293.4 6.1
286(9) 0.01077 293.4 6.0
282(9) 0.01141 293.4 5.9
301(9) 0.01118 293.3 5.8
296(9) 0.01056 293.3 5.7
304(10) 0.00995 293.3 5.6
323(10) 0.00971 293.3 5.5
319(9) 0.01063 293.3 5.4
307(9) 0.01088 293.3 5.4
280(9) 0.01152 293.2 5.3
283(9) 0.01025 293.2 5.2
276(9) 0.01134 293.2 5.2
291(9) 0.01133 293.2 5.1
302(9) 0.01118 293.2 5.1
299(9) 0.01057 293.2 5.1
320(10) 0.00908 293.1 5.0
307(9) 0.01039 293.1 5.0
328(9) 0.01024 293.1 4.9
291(9) 0.01135 293.1 4.9
307(9) 0.01056 293.1 4.9
291(9) 0.01043 293.1 4.9
309(10) 0.00947 293.0 4.8
277(9) 0.01207 293.0 4.8
293(9) 0.01132 293.0 4.8
306(9) 0.01031 293.0 4.8
303(10) 0.00988 293.0 4.8
295(9) 0.01057 293.0 4.7
290(9) 0.01157 292.9 4.7
296(9) 0.01125 292.9 4.7
332(10) 0.00969 292.9 4.7
303(10) 0.00981 292.9 4.7
281(9) 0.01102 292.9 4.7
294(9) 0.01140 292.9 4.7
288(9) 0.01138 292.9 4.7
328(10) 0.00984 292.8 4.7
310(9) 0.01015 292.8 4.7
283(9) 0.01120 292.8 4.7
303(9) 0.01104 292.8 4.7
307(9) 0.01041 292.8 4.7
287(9) 0.01072 292.8 4.7
305(10) 0.00992 292.7 4.7
293(9) 0.01104 292.7 4.7
304(9) 0.01096 292.7 4.7
309(9) 0.01034 292.7 4.8
295(9) 0.01062 292.7 4.8
309(9) 0.01019 292.7 4.8
296(9) 0.01100 292.6 4.8
285(9) 0.01175 292.6 4.8
306(9) 0.01027 292.6 4.8
307(9) 0.01008 292.6 4.9
294(9) 0.01041 292.6 4.9
308(9) 0.01073 292.6 4.9
309(9) 0.01095 292.5 4.9
267(9) 0.01172 292.5 4.9
276(9) 0.01116 292.5 5.0
301(9) 0.01058 292.5 5.0
335(10) 0.00987 292.5 5.0
307(9) 0.01102 292.5 5.1
304(9) 0.01030 292.4 5.1
307(10) 0.00971 292.4 5.1
295(9) 0.01043 292.4 5.2
300(9) 0.01104 292.4 5.2
298(9) 0.01129 292.4 5.2
308(9) 0.01020 292.4 5.3
313(10) 0.00978 292.3 5.3
285(9) 0.01144 292.3 5.4
312(9) 0.01066 292.3 5.4
290(9) 0.01141 292.3 5.5
300(9) 0.01034 292.3 5.5
322(10) 0.00891 292.3 5.6
319(10) 0.00962 292.3 5.6
311(9) 0.01074 292.2 5.7
305(9) 0.01081 292.2 5.8
311(10) 0.01006 292.2 5.8
303(9) 0.01036 292.2 5.9
318(9) 0.01015 292.2 6.0
304(9) 0.01103 292.2 6.0
288(9) 0.01136 292.1 6.1
306(9) 0.01019 292.1 6.2
314(10) 0.00994 292.1 6.3
299(9) 0.01073 292.1 6.4
307(9) 0.01091 292.1 6.5
304(9) 0.01063 292.1 6.6
296(9) 0.01082 292.0 6.7
310(9) 0.01008 292.0 6.8
328(10) 0.00974 292.0 6.9
325(9) 0.01033 292.0 7.0
290(9) 0.01119 292.0 7.1
320(10) 0.00962 292.0 7.2
333(10) 0.00926 291.9 7.4
310(10) 0.00997 291.9 7.5
308(9) 0.01092 291.9 7.6
332(10) 0.00952 291.9 7.8
281(9) 0.01082 291.9 7.9
339(10) 0.00901 291.9 8.1
301(9) 0.01084 291.8 8.3
298(9) 0.01117 291.8 8.5
305(9) 0.01030 291.8 8.7
303(10) 0.00994 291.8 8.9
306(9) 0.01050 291.8 9.1
328(10) 0.00981 291.8 9.3
291(9) 0.01141 291.8 9.5
302(9) 0.01049 291.7 9.8
286(9) 0.01060 291.7 10.1
302(9) 0.01024 291.7 10.3
323(9) 0.01037 291.7 10.6
323(9) 0.01035 291.7 10.9
322(10) 0.00996 291.7 11.3
305(10) 0.00978 291.6 11.6
295(9) 0.01062 291.6 12.0
318(9) 0.01043 291.6 12.4
324(9) 0.01026 291.6 12.9
301(9) 0.01018 291.6 13.3
301(10) 0.00973 291.6 13.8
296(9) 0.01083 291.5 14.4
315(9) 0.01069 291.5 14.9
335(10) 0.01000 291.5 15.6
355(10) 0.00888 291.5 16.2
304(10) 0.01000 291.5 16.9
298(9) 0.01022 291.5 17.7
319(9) 0.01055 291.4 18.6
291(9) 0.01159 291.4 19.5
311(10) 0.00993 291.4 20.5
302(10) 0.00996 291.4 21.6
310(10) 0.01004 291.4 22.8
314(9) 0.01059 291.4 24.2
337(10) 0.00973 291.3 25.6
323(10) 0.00970 291.3 27.2
333(10) 0.00905 291.3 28.9
336(10) 0.00964 291.3 30.8
331(9) 0.01023 291.3 32.9
319(9) 0.01009 291.3 35.1
335(10) 0.00939 291.2 37.6
347(10) 0.00904 291.2 40.2
343(10) 0.00926 291.2 43.0
322(9) 0.01047 291.2 45.9
378(10) 0.00869 291.2 49.0
340(10) 0.00936 291.2 52.2
368(10) 0.00874 291.2 55.3
361(10) 0.00892 291.1 58.3
351(10) 0.00971 291.1 61.0
352(10) 0.00923 291.1 63.4
363(10) 0.00883 291.1 65.2
379(11) 0.00825 291.1 66.4
364(10) 0.00893 291.1 66.9
362(10) 0.00940 291.0 66.7
345(10) 0.00950 291.0 65.8
376(11) 0.00805 291.0 64.3
378(11) 0.00828 291.0 62.5
359(10) 0.00919 291.0 60.3
376(10) 0.00910 291.0 57.9
370(10) 0.00851 290.9 55.4
358(10) 0.00887 290.9 53.0
351(10) 0.00926 290.9 50.6
377(10) 0.00888 290.9 48.3
361(10) 0.00942 290.9 46.1
341(10) 0.00930 290.9 44.0
348(10) 0.00907 290.8 42.1
346(10) 0.00901 290.8 40.3
329(9) 0.01014 290.8 38.7
339(10) 0.00991 290.8 37.2
327(10) 0.00957 290.8 35.8
333(10) 0.00869 290.8 34.5
345(10) 0.00904 290.7 33.3
362(10) 0.00941 290.7 32.2
351(10) 0.00955 290.7 31.3
355(10) 0.00910 290.7 30.4
334(10) 0.00921 290.7 29.6
301(9) 0.01090 290.7 28.9
319(9) 0.01061 290.7 28.2
321(9) 0.01045 290.6 27.7
320(9) 0.01008 290.6 27.2
314(10) 0.00988 290.6 26.7
325(10) 0.01005 290.6 26.3
338(10) 0.01000 290.6 26.0
335(10) 0.00985 290.6 25.8
346(10) 0.00921 290.5 25.5
328(10) 0.00937 290.5 25.4
319(10) 0.00983 290.5 25.2
313(9) 0.01069 290.5 25.1
325(10) 0.01003 290.5 25.1
331(10) 0.00973 290.5 25.1
322(10) 0.00981 290.4 25.1
316(10) 0.00987 290.4 25.1
320(9) 0.01049 290.4 25.2
306(9) 0.01066 290.4 25.3
318(10) 0.01006 290.4 25.5
320(10) 0.00984 290.4 25.6
337(10) 0.00962 290.3 25.8
319(9) 0.01054 290.3 26.0
309(9) 0.01058 290.3 26.2
325(10) 0.00975 290.3 26.5
326(10) 0.00960 290.3 26.7
322(10) 0.00998 290.3 27.0
335(10) 0.00999 290.2 27.3
315(9) 0.01011 290.2 27.7
305(10) 0.00995 290.2 28.0
319(10) 0.00960 290.2 28.4
337(10) 0.00973 290.2 28.8
328(9) 0.01034 290.2 29.3
328(10) 0.00936 290.1 29.9
342(10) 0.00892 290.1 30.5
342(10) 0.00926 290.1 31.2
320(9) 0.01032 290.1 32.1
337(10) 0.01000 290.1 33.2
377(11) 0.00836 290.1 34.4
351(10) 0.00888 290.1 36.0
323(9) 0.01017 290.0 37.8
345(10) 0.00978 290.0 40.1
367(10) 0.00930 290.0 42.8
367(10) 0.00881 290.0 46.0
357(11) 0.00837 290.0 49.7
386(11) 0.00811 290.0 53.9
378(10) 0.00885 289.9 58.5
396(10) 0.00871 289.9 63.0
391(11) 0.00825 289.9 67.1
417(12) 0.00701 289.9 70.1
418(11) 0.00784 289.9 71.2
412(10) 0.00843 289.9 70.4
358(10) 0.00944 289.8 67.8
401(11) 0.00788 289.8 64.1
365(11) 0.00825 289.8 60.0
368(10) 0.00851 289.8 56.0
362(10) 0.00932 289.8 52.2
351(10) 0.00967 289.8 49.0
363(10) 0.00886 289.7 46.3
343(10) 0.00893 289.7 44.2
339(10) 0.00937 289.7 42.4
363(10) 0.00935 289.7 41.1
341(10) 0.00987 289.7 40.1
340(10) 0.00949 289.7 39.4
350(10) 0.00885 289.6 38.8
342(10) 0.00912 289.6 38.5
366(10) 0.00930 289.6 38.2
348(10) 0.00947 289.6 38.0
373(10) 0.00855 289.6 37.9
339(10) 0.00923 289.6 37.9
349(10) 0.00916 289.6 37.8
346(10) 0.00986 289.5 37.8
348(10) 0.00934 289.5 37.7
328(10) 0.00923 289.5 37.6
302(9) 0.01047 289.5 37.5
333(10) 0.00971 289.5 37.3
348(10) 0.00974 289.5 37.2
339(10) 0.00926 289.4 36.9
338(10) 0.00904 289.4 36.6
339(10) 0.00928 289.4 36.3
334(10) 0.00978 289.4 35.9
340(10) 0.00993 289.4 35.4
326(10) 0.00981 289.4 35.0
330(10) 0.00976 289.3 34.4
325(10) 0.00997 289.3 33.9
320(9) 0.01053 289.3 33.3
309(9) 0.01081 289.3 32.7
335(10) 0.00936 289.3 32.1
330(10) 0.00924 289.3 31.5
323(10) 0.00999 289.2 30.8
329(10) 0.00999 289.2 30.2
316(9) 0.01068 289.2 29.6
298(9) 0.01091 289.2 29.0
339(10) 0.00882 289.2 28.4
343(10) 0.00933 289.2 27.8
324(9) 0.01050 289.1 27.2
322(9) 0.01043 289.1 26.6
319(10) 0.00983 289.1 26.1
291(9) 0.01048 289.1 25.6
315(10) 0.01004 289.1 25.2
334(9) 0.01018 289.1 24.7
311(9) 0.01069 289.1 24.3
318(10) 0.01004 289.0 23.9
326(10) 0.00934 289.0 23.6
310(9) 0.01025 289.0 23.3
317(9) 0.01055 289.0 23.0
315(9) 0.01056 289.0 22.7
299(9) 0.01062 289.0 22.5
338(10) 0.00864 288.9 22.3
330(10) 0.00977 288.9 22.2
327(9) 0.01038 288.9 22.0
329(9) 0.01015 288.9 21.9
317(10) 0.01002 288.9 21.9
311(10) 0.00958 288.9 21.8
326(10) 0.00958 288.8 21.8
316(9) 0.01071 288.8 21.8
320(9) 0.01024 288.8 21.8
338(10) 0.00940 288.8 21.8
330(10) 0.00910 288.8 21.9
310(10) 0.00986 288.8 21.9
314(9) 0.01078 288.7 22.0
323(9) 0.01011 288.7 22.0
336(10) 0.00954 288.7 22.0
318(10) 0.00987 288.7 22.1
303(9) 0.01063 288.7 22.1
327(9) 0.01030 288.7 22.0
328(10) 0.00998 288.6 22.0
338(10) 0.00929 288.6 21.9
302(9) 0.01052 288.6 21.8
314(9) 0.01021 288.6 21.7
327(9) 0.01029 288.6 21.5
314(10) 0.01003 288.6 21.3
291(9) 0.01069 288.5 21.0
321(10) 0.00953 288.5 20.8
322(10) 0.00985 288.5 20.5
321(9) 0.01053 288.5 20.2
308(9) 0.01014 288.5 19.9
316(10) 0.00967 288.5 19.5
343(10) 0.00946 288.5 19.2
338(10) 0.00972 288.4 18.9
313(9) 0.01075 288.4 18.5
336(10) 0.00947 288.4 18.2
309(10) 0.00968 288.4 17.9
308(10) 0.01007 288.4 17.6
315(9) 0.01050 288.4 17.3
293(9) 0.01143 288.3 17.1
301(9) 0.01036 288.3 16.8
295(10) 0.00977 288.3 16.6
317(10) 0.00975 288.3 16.4
299(9) 0.01107 288.3 16.3
300(9) 0.01117 288.3 16.1
326(10) 0.00967 288.2 16.0
318(10) 0.00932 288.2 15.9
312(9) 0.01022 288.2 15.9
311(9) 0.01086 288.2 15.8
332(9) 0.01015 288.2 15.8
335(10) 0.00987 288.2 15.9
322(10) 0.00914 288.1 15.9
288(9) 0.01101 288.1 16.0
309(9) 0.01079 288.1 16.2
316(9) 0.01056 288.1 16.3
289(9) 0.01119 288.1 16.5
313(10) 0.00976 288.1 16.8
306(9) 0.01032 288.0 17.1
309(9) 0.01090 288.0 17.5
306(9) 0.01070 288.0 17.9
317(10) 0.00942 288.0 18.4
302(9) 0.01047 288.0 19.0
329(10) 0.00911 288.0 19.6
305(9) 0.01098 288.0 20.4
287(9) 0.01127 287.9 21.3
331(10) 0.00904 287.9 22.3
319(10) 0.00998 287.9 23.5
332(10) 0.00944 287.9 24.8
323(9) 0.01036 287.9 26.4
324(9) 0.01017 287.9 28.2
343(10) 0.00912 287.8 30.3
332(10) 0.00935 287.8 32.7
327(10) 0.00959 287.8 35.3
350(10) 0.00979 287.8 38.3
364(10) 0.00868 287.8 41.6
339(10) 0.00905 287.8 45.2
368(10) 0.00847 287.7 48.9
363(10) 0.00907 287.7 52.5
362(10) 0.00927 287.7 55.9
360(10) 0.00896 287.7 58.7
371(11) 0.00812 287.7 60.8
349(10) 0.00891 287.7 62.0
367(10) 0.00916 287.6 62.6
383(10) 0.00897 287.6 62.7
376(10) 0.00852 287.6 62.7
362(11) 0.00834 287.6 62.9
370(10) 0.00876 287.6 63.4
383(10) 0.00878 287.6 64.5
361(10) 0.00945 287.5 66.3
391(11) 0.00795 287.5 68.8
395(11) 0.00784 287.5 72.1
411(11) 0.00801 287.5 76.3
411(10) 0.00839 287.5 81.3
384(10) 0.00899 287.5 87.1
419(11) 0.00766 287.4 93.7
418(11) 0.00750 287.4 101.0
441(11) 0.00753 287.4 108.8
468(11) 0.00747 287.4 116.8
483(11) 0.00712 287.4 124.7
497(12) 0.00655 287.4 132.0
474(12) 0.00647 287.4 138.1
478(12) 0.00683 287.3 142.5
471(11) 0.00742 287.3 144.6
464(11) 0.00728 287.3 144.3
454(11) 0.00714 287.3 141.5
447(12) 0.00707 287.3 136.4
432(11) 0.00737 287.3 129.7
423(11) 0.00810 287.2 121.7
413(11) 0.00827 287.2 113.0
432(11) 0.00746 287.2 104.2
437(11) 0.00721 287.2 95.5
400(11) 0.00824 287.2 87.2
385(10) 0.00883 287.2 79.5
396(10) 0.00849 287.1 72.4
390(11) 0.00838 287.1 65.9
387(11) 0.00821 287.1 60.1
388(11) 0.00826 287.1 54.9
360(10) 0.00949 287.1 50.2
398(11) 0.00788 287.1 46.1
359(10) 0.00861 287.0 42.4
349(10) 0.00901 287.0 39.1
346(10) 0.00942 287.0 36.2
360(10) 0.00942 287.0 33.6
313(9) 0.01016 287.0 31.2
313(10) 0.00998 287.0 29.2
342(10) 0.00896 286.9 27.3
336(10) 0.00970 286.9 25.7
320(9) 0.01045 286.9 24.2
308(9) 0.01058 286.9 22.9
324(10) 0.00932 286.9 21.7
314(10) 0.00996 286.9 20.6
322(9) 0.01020 286.9 19.6
311(9) 0.01075 286.8 18.7
321(10) 0.00997 286.8 17.9
328(10) 0.00913 286.8 17.2
307(9) 0.01018 286.8 16.5
323(9) 0.01024 286.8 15.9
320(9) 0.01040 286.8 15.4
304(9) 0.01049 286.7 14.9
305(10) 0.00952 286.7 14.4
302(9) 0.01041 286.7 14.0
314(9) 0.01058 286.7 13.6
314(9) 0.01067 286.7 13.2
298(9) 0.01051 286.7 12.9
299(10) 0.00988 286.6 12.6
315(9) 0.01026 286.6 12.3
316(9) 0.01033 286.6 12.1
288(9) 0.01169 286.6 11.9
308(9) 0.01026 286.6 11.7
306(10) 0.00977 286.6 11.5
291(9) 0.01095 286.5 11.4
279(9) 0.01192 286.5 11.3
295(9) 0.01107 286.5 11.2
271(9) 0.01156 286.5 11.1
293(9) 0.01011 286.5 11.1
318(10) 0.00982 286.5 11.0
307(9) 0.01087 286.4 11.0
283(9) 0.01173 286.4 11.0
283(9) 0.01128 286.4 11.0
301(10) 0.01001 286.4 11.1
288(9) 0.01106 286.4 11.1
288(9) 0.01153 286.4 11.2
298(9) 0.01113 286.4 11.3
292(9) 0.01071 286.3 11.4
300(9) 0.01008 286.3 11.6
320(10) 0.00914 286.3 11.8
289(9) 0.01157 286.3 11.9
310(9) 0.01030 286.3 12.1
293(9) 0.01080 286.3 12.4
279(9) 0.01134 286.2 12.6
283(9) 0.01129 286.2 12.9
286(9) 0.01162 286.2 13.1
308(9) 0.01075 286.2 13.4
311(10) 0.00989 286.2 13.7
330(10) 0.00918 286.2 14.0
295(9) 0.01087 286.1 14.3
284(9) 0.01172 286.1 14.5
301(9) 0.01076 286.1 14.8
297(9) 0.01037 286.1 15.0
296(9) 0.01069 286.1 15.2
311(9) 0.01037 286.1 15.4
315(9) 0.01074 286.0 15.5
295(9) 0.01069 286.0 15.6
299(10) 0.01000 286.0 15.6
290(9) 0.01096 286.0 15.6
286(9) 0.01125 286.0 15.5
304(9) 0.01104 286.0 15.4
301(9) 0.01043 285.9 15.2
310(10) 0.00987 285.9 15.0
303(9) 0.01054 285.9 14.7
316(9) 0.01033 285.9 14.4
279(9) 0.01198 285.9 14.1
292(9) 0.01087 285.9 13.7
280(9) 0.01079 285.8 13.3
281(9) 0.01125 285.8 12.9
266(8) 0.01236 285.8 12.6
302(9) 0.01126 285.8 12.2
319(10) 0.01002 285.8 11.8
272(9) 0.01095 285.8 11.4
301(9) 0.01039 285.8 11.1
296(9) 0.01121 285.7 10.8
280(9) 0.01183 285.7 10.4
280(9) 0.01127 285.7 10.1
287(9) 0.01042 285.7 9.8
281(9) 0.01131 285.7 9.5
281(9) 0.01194 285.7 9.3
310(9) 0.01054 285.6 9.0
305(9) 0.01024 285.6 8.8
278(9) 0.01113 285.6 8.6
317(10) 0.00995 285.6 8.4
305(9) 0.01103 285.6 8.2
309(9) 0.01070 285.6 8.0
297(9) 0.01048 285.5 7.9
260(9) 0.01174 285.5 7.7
288(9) 0.01026 285.5 7.6
262(8) 0.01245 285.5 7.4
277(9) 0.01177 285.5 7.3
308(9) 0.01027 285.5 7.2
287(9) 0.01094 285.4 7.1
298(9) 0.01032 285.4 7.0
284(9) 0.01174 285.4 6.9
288(9) 0.01126 285.4 6.8
276(9) 0.01164 285.4 6.8
307(10) 0.00979 285.4 6.7
271(9) 0.01172 285.3 6.7
287(9) 0.01162 285.3 6.6
298(9) 0.01053 285.3 6.6
277(9) 0.01145 285.3 6.5
285(9) 0.01098 285.3 6.5
257(8) 0.01258 285.3 6.4
285(9) 0.01171 285.3 6.4
287(9) 0.01111 285.2 6.4
279(9) 0.01074 285.2 6.4
290(9) 0.01045 285.2 6.4
304(9) 0.01093 285.2 6.3
293(9) 0.01142 285.2 6.3
293(9) 0.01056 285.2 6.3
270(9) 0.01079 285.1 6.3
275(9) 0.01126 285.1 6.3
314(9) 0.01060 285.1 6.3
307(9) 0.01089 285.1 6.3
293(9) 0.01053 285.1 6.3
293(9) 0.01051 285.1 6.3
295(9) 0.01041 285.0 6.3
280(9) 0.01181 285.0 6.3
280(9) 0.01188 285.0 6.4
285(9) 0.01115 285.0 6.4
291(10) 0.01004 285.0 6.4
279(9) 0.01143 285.0 6.4
318(9) 0.01057 284.9 6.4
268(8) 0.01243 284.9 6.4
281(9) 0.01122 284.9 6.4
276(9) 0.01073 284.9 6.4
264(9) 0.01207 284.9 6.4
282(9) 0.01188 284.9 6.4
286(9) 0.01171 284.8 6.4
283(9) 0.01128 284.8 6.4
284(9) 0.01043 284.8 6.4
280(9) 0.01122 284.8 6.4
301(9) 0.01116 284.8 6.4
269(9) 0.01218 284.8 6.4
308(10) 0.01002 284.7 6.4
293(9) 0.01030 284.7 6.4
269(9) 0.01167 284.7 6.3
279(9) 0.01188 284.7 6.3
300(9) 0.01063 284.7 6.3
268(9) 0.01125 284.7 6.3
264(9) 0.01149 284.7 6.2
293(9) 0.01088 284.6 6.2
308(9) 0.01097 284.6 6.2
263(9) 0.01215 284.6 6.1
294(9) 0.01021 284.6 6.1
279(9) 0.01092 284.6 6.1
282(9) 0.01107 284.6 6.0
295(9) 0.01130 284.5 6.0
287(9) 0.01106 284.5 5.9
282(9) 0.01077 284.5 5.9
282(9) 0.01110 284.5 5.8
286(9) 0.01122 284.5 5.8
309(9) 0.01087 284.5 5.7
289(9) 0.01038 284.4 5.7
260(9) 0.01159 284.4 5.6
290(9) 0.01056 284.4 5.6
275(9) 0.01198 284.4 5.5
292(9) 0.01132 284.4 5.4
295(9) 0.01090 284.4 5.4
280(9) 0.01111 284.3 5.3
301(9) 0.01030 284.3 5.3
274(9) 0.01185 284.3 5.2
278(9) 0.01208 284.3 5.2
272(9) 0.01176 284.3 5.1
289(9) 0.01038 284.3 5.0
288(9) 0.01112 284.2 5.0
281(9) 0.01190 284.2 4.9
281(9) 0.01168 284.2 4.9
261(9) 0.01202 284.2 4.8
287(9) 0.01041 284.2 4.8
287(9) 0.01105 284.2 4.7
272(9) 0.01181 284.2 4.7
288(9) 0.01163 284.1 4.6
308(10) 0.00990 284.1 4.6
285(9) 0.01039 284.1 4.5
305(10) 0.00993 284.1 4.5
276(9) 0.01210 284.1 4.4
274(9) 0.01181 284.1 4.4
252(8) 0.01268 284.0 4.3
283(9) 0.01062 284.0 4.3
262(9) 0.01215 284.0 4.3
263(8) 0.01261 284.0 4.2
280(9) 0.01174 284.0 4.2
280(9) 0.01148 284.0 4.1
292(9) 0.01021 283.9 4.1
308(10) 0.00962 283.9 4.1
295(9) 0.01128 283.9 4.0
291(9) 0.01116 283.9 4.0
289(9) 0.01074 283.9 4.0
285(9) 0.01087 283.9 3.9
290(9) 0.01079 283.8 3.9
256(8) 0.01279 283.8 3.9
267(9) 0.01171 283.8 3.8
288(9) 0.01071 283.8 3.8
297(9) 0.01020 283.8 3.8
286(9) 0.01144 283.8 3.8
266(8) 0.01247 283.7 3.7
251(8) 0.01260 283.7 3.7
259(9) 0.01176 283.7 3.7
297(9) 0.01054 283.7 3.7
304(9) 0.01085 283.7 3.7
290(9) 0.01141 283.7 3.6
278(9) 0.01101 283.6 3.6
273(9) 0.01117 283.6 3.6
272(9) 0.01138 283.6 3.6
276(9) 0.01177 283.6 3.6
294(9) 0.01127 283.6 3.5
279(9) 0.01134 283.6 3.5
309(10) 0.00965 283.6 3.5
289(9) 0.01092 283.5 3.5
272(9) 0.01194 283.5 3.5
287(9) 0.01167 283.5 3.5
295(9) 0.01099 283.5 3.5
293(10) 0.00990 283.5 3.5
273(9) 0.01123 283.5 3.4
276(9) 0.01196 283.4 3.4
277(9) 0.01204 283.4 3.4
286(9) 0.01107 283.4 3.4
279(9) 0.01080 283.4 3.4
283(9) 0.01094 283.4 3.4
260(8) 0.01262 283.4 3.4
286(9) 0.01150 283.3 3.4
296(9) 0.01064 283.3 3.4
287(9) 0.01046 283.3 3.4
293(9) 0.01077 283.3 3.4
302(9) 0.01106 283.3 3.4
265(8) 0.01234 283.3 3.4
281(9) 0.01111 283.2 3.4
287(9) 0.01071 283.2 3.4
281(9) 0.01134 283.2 3.4
281(9) 0.01173 283.2 3.4
295(9) 0.01127 283.2 3.4
310(10) 0.00993 283.1 3.4
282(9) 0.01046 283.1 3.4
287(9) 0.01109 283.1 3.4
290(9) 0.01145 283.1 3.4
263(9) 0.01217 283.1 3.4
267(9) 0.01162 283.0 3.4
300(10) 0.00988 283.0 3.4
276(9) 0.01111 283.0 3.4
270(9) 0.01219 283.0 3.5
299(9) 0.01044 283.0 3.5
287(9) 0.01094 283.0 3.5
296(9) 0.01037 282.9 3.5
282(9) 0.01108 282.9 3.5
270(9) 0.01227 282.9 3.5
287(9) 0.01129 282.9 3.5
290(9) 0.01053 282.9 3.5
272(9) 0.01115 282.8 3.6
272(9) 0.01169 282.8 3.6
295(9) 0.01120 282.8 3.6
290(9) 0.01085 282.8 3.6
271(9) 0.01141 282.8 3.6
282(9) 0.01106 282.7 3.6
285(9) 0.01147 282.7 3.7
283(9) 0.01193 282.7 3.7
276(9) 0.01142 282.7 3.7
300(9) 0.01015 282.7 3.7
286(9) 0.01122 282.7 3.8
273(9) 0.01218 282.6 3.8
270(9) 0.01214 282.6 3.8
272(9) 0.01164 282.6 3.9
289(9) 0.01038 282.6 3.9
294(9) 0.01031 282.6 3.9
311(9) 0.01063 282.5 4.0
312(9) 0.01059 282.5 4.0
282(9) 0.01122 282.5 4.0
279(9) 0.01037 282.5 4.1
266(9) 0.01169 282.5 4.1
282(9) 0.01160 282.5 4.2
286(9) 0.01161 282.4 4.2
284(9) 0.01133 282.4 4.3
278(9) 0.01034 282.4 4.3
286(9) 0.01057 282.4 4.4
288(9) 0.01140 282.4 4.4
292(9) 0.01159 282.3 4.5
285(9) 0.01079 282.3 4.6
281(9) 0.01079 282.3 4.7
287(9) 0.01110 282.3 4.7
277(9) 0.01185 282.3 4.8
284(9) 0.01141 282.2 4.9
311(10) 0.01002 282.2 5.0
301(10) 0.00998 282.2 5.1
255(9) 0.01207 282.2 5.2
306(9) 0.01092 282.2 5.4
310(9) 0.01065 282.2 5.5
279(9) 0.01134 282.1 5.7
270(9) 0.01173 282.1 5.8
276(9) 0.01152 282.1 6.0
277(9) 0.01182 282.1 6.2
284(9) 0.01132 282.1 6.4
294(9) 0.01034 282.0 6.7
281(9) 0.01093 282.0 7.0
286(9) 0.01102 282.0 7.3
265(8) 0.01243 282.0 7.7
271(9) 0.01168 282.0 8.2
280(9) 0.01103 281.9 8.7
300(9) 0.01038 281.9 9.4
292(9) 0.01106 281.9 10.2
273(9) 0.01210 281.9 11.1
285(9) 0.01109 281.9 12.2
279(9) 0.01100 281.9 13.5
279(9) 0.01146 281.8 15.0
300(9) 0.01086 281.8 16.8
281(9) 0.01173 281.8 18.8
285(9) 0.01086 281.8 21.0
280(9) 0.01094 281.8 23.3
289(9) 0.01076 281.7 25.6
298(9) 0.01093 281.7 27.6
311(9) 0.01080 281.7 29.0
301(9) 0.01065 281.7 29.5
331(10) 0.00927 281.7 29.1
316(10) 0.00959 281.7 27.8
296(9) 0.01103 281.6 25.9
271(8) 0.01232 281.6 23.7
293(9) 0.01049 281.6 21.6
301(10) 0.00988 281.6 19.5
306(9) 0.01021 281.6 17.7
287(9) 0.01145 281.5 16.2
301(9) 0.01112 281.5 14.8
275(9) 0.01157 281.5 13.7
289(9) 0.01013 281.5 12.8
279(9) 0.01135 281.5 12.1
300(9) 0.01104 281.4 11.6
273(9) 0.01209 281.4 11.1
292(9) 0.01064 281.4 10.8
278(9) 0.01091 281.4 10.5
268(9) 0.01191 281.4 10.4
248(8) 0.01313 281.4 10.3
284(9) 0.01135 281.3 10.2
304(9) 0.01030 281.3 10.2
290(9) 0.01045 281.3 10.2
284(9) 0.01106 281.3 10.3
297(9) 0.01123 281.3 10.4
309(9) 0.01080 281.2 10.5
280(9) 0.01112 281.2 10.7
289(9) 0.01049 281.2 10.9
283(9) 0.01106 281.2 11.2
300(9) 0.01119 281.2 11.4
293(9) 0.01122 281.1 11.8
305(9) 0.01008 281.1 12.1
273(9) 0.01130 281.1 12.5
281(9) 0.01126 281.1 13.0
274(9) 0.01213 281.1 13.5
297(9) 0.01031 281.1 14.1
299(10) 0.00996 281.0 14.7
268(9) 0.01182 281.0 15.4
300(9) 0.01062 281.0 16.2
286(9) 0.01162 281.0 17.1
265(9) 0.01190 281.0 18.1
297(9) 0.01037 280.9 19.2
297(9) 0.01074 280.9 20.4
304(9) 0.01066 280.9 21.7
299(9) 0.01098 280.9 23.1
297(9) 0.01051 280.9 24.6
286(9) 0.01070 280.9 26.1
287(9) 0.01052 280.8 27.7
296(9) 0.01111 280.8 29.3
301(9) 0.01116 280.8 30.8
309(9) 0.01013 280.8 32.1
305(10) 0.00974 280.8 33.2
321(10) 0.00936 280.7 33.9
313(9) 0.01047 280.7 34.3
307(9) 0.01095 280.7 34.3
297(9) 0.01069 280.7 33.9
316(10) 0.00935 280.7 33.2
326(10) 0.00959 280.6 32.4
310(9) 0.01087 280.6 31.4
315(9) 0.01075 280.6 30.3
316(9) 0.01009 280.6 29.3
290(9) 0.01049 280.6 28.4
301(9) 0.01053 280.6 27.6
326(9) 0.01036 280.5 26.8
292(9) 0.01146 280.5 26.2
297(9) 0.01013 280.5 25.8
295(10) 0.00982 280.5 25.4
307(9) 0.01009 280.5 25.2
286(9) 0.01170 280.4 25.1
310(9) 0.01066 280.4 25.1
312(9) 0.01018 280.4 25.2
329(10) 0.00881 280.4 25.5
313(9) 0.01022 280.4 25.8
309(9) 0.01097 280.3 26.2
317(9) 0.01031 280.3 26.8
338(10) 0.00938 280.3 27.4
333(10) 0.00916 280.3 28.1
316(9) 0.01021 280.3 28.9
297(9) 0.01126 280.3 29.9
321(9) 0.01018 280.2 30.9
304(9) 0.01010 280.2 32.0
318(10) 0.00949 280.2 33.3
321(10) 0.00994 280.2 34.6
316(9) 0.01057 280.2 36.1
327(10) 0.01002 280.1 37.7
317(10) 0.00982 280.1 39.4
327(10) 0.00941 280.1 41.3
308(9) 0.01045 280.1 43.3
321(9) 0.01050 280.1 45.4
329(10) 0.00971 280.1 47.7
333(10) 0.00942 280.0 50.1
322(10) 0.00964 280.0 52.7
322(10) 0.00999 280.0 55.3
333(10) 0.01007 280.0 58.1
366(10) 0.00846 280.0 61.0
351(10) 0.00873 279.9 63.9
339(10) 0.00972 279.9 66.8
351(10) 0.00952 279.9 69.6
380(10) 0.00889 279.9 72.4
384(10) 0.00840 279.9 75.0
399(11) 0.00787 279.8 77.4
370(10) 0.00896 279.8 79.5
364(10) 0.00924 279.8 81.3
378(10) 0.00898 279.8 82.6
355(10) 0.00887 279.8 83.4
372(11) 0.00778 279.8 83.8
349(10) 0.00915 279.7 83.7
345(10) 0.00976 279.7 83.1
352(10) 0.00954 279.7 82.1
378(10) 0.00848 279.7 80.6
351(10) 0.00877 279.7 78.9
332(10) 0.00967 279.6 76.9
324(9) 0.01018 279.6 74.8
364(10) 0.00933 279.6 72.5
358(10) 0.00883 279.6 70.2
365(11) 0.00831 279.6 67.9
363(10) 0.00877 279.6 65.6
342(10) 0.00987 279.5 63.3
347(10) 0.00978 279.5 61.2
345(10) 0.00931 279.5 59.2
330(10) 0.00938 279.5 57.3
338(10) 0.00941 279.5 55.5
340(10) 0.00998 279.4 53.9
333(10) 0.01007 279.4 52.3
332(10) 0.00943 279.4 50.9
325(10) 0.00919 279.4 49.6
310(10) 0.00999 279.4 48.4
316(9) 0.01070 279.3 47.3
361(10) 0.00920 279.3 46.3
348(10) 0.00903 279.3 45.4
325(10) 0.00937 279.3 44.5
331(10) 0.00946 279.3 43.7
333(9) 0.01017 279.3 42.9
334(10) 0.00972 279.2 42.2
330(10) 0.00950 279.2 41.5
324(10) 0.00953 279.2 40.9
315(10) 0.00980 279.2 40.2
317(9) 0.01061 279.2 39.6
321(10) 0.00961 279.1 39.0
319(10) 0.00964 279.1 38.3
328(10) 0.00970 279.1 37.7
319(9) 0.01028 279.1 37.0
335(10) 0.01006 279.1 36.4
332(10) 0.00941 279.0 35.7
325(10) 0.00972 279.0 35.1
324(10) 0.00968 279.0 34.4
309(9) 0.01103 279.0 33.7
319(9) 0.01047 279.0 33.0
299(9) 0.01058 279.0 32.3
305(10) 0.00981 278.9 31.6
310(9) 0.01009 278.9 30.9
306(9) 0.01099 278.9 30.2
305(9) 0.01092 278.9 29.5
320(10) 0.00993 278.9 28.8
290(9) 0.01065 278.8 28.1
281(9) 0.01101 278.8 27.4
300(9) 0.01092 278.8 26.7
314(9) 0.01081 278.8 26.0
315(9) 0.01012 278.8 25.4
327(10) 0.00905 278.8 24.7
290(9) 0.01114 278.7 24.1
317(9) 0.01062 278.7 23.5
283(9) 0.01182 278.7 22.9
297(9) 0.01030 278.7 22.3
290(9) 0.01014 278.7 21.8
303(9) 0.01066 278.6 21.2
318(9) 0.01059 278.6 20.7
279(9) 0.01166 278.6 20.2
294(9) 0.01054 278.6 19.8
302(10) 0.00991 278.6 19.3
305(9) 0.01024 278.5 18.9
293(9) 0.01142 278.5 18.4
302(9) 0.01092 278.5 18.0
282(9) 0.01152 278.5 17.7
278(9) 0.01097 278.5 17.3
298(9) 0.01057 278.5 16.9
293(9) 0.01133 278.4 16.6
300(9) 0.01085 278.4 16.3
278(9) 0.01114 278.4 16.0
277(9) 0.01138 278.4 15.7
316(10) 0.01007 278.4 15.4
282(9) 0.01183 278.3 15.2
279(9) 0.01144 278.3 14.9
265(9) 0.01218 278.3 14.7
305(10) 0.00997 278.3 14.5
310(9) 0.01055 278.3 14.3
310(9) 0.01092 278.2 14.1
290(9) 0.01087 278.2 13.9
286(9) 0.01062 278.2 13.7
279(9) 0.01123 278.2 13.6
279(9) 0.01163 278.2 13.5
266(8) 0.01244 278.2 13.3
267(9) 0.01158 278.1 13.2
274(9) 0.01078 278.1 13.1
269(9) 0.01122 278.1 13.0
298(9) 0.01096 278.1 12.9
306(9) 0.01105 278.1 12.9
293(9) 0.01049 278.0 12.8
315(10) 0.00926 278.0 12.8
276(9) 0.01154 278.0 12.7
284(9) 0.01157 278.0 12.7
280(9) 0.01192 278.0 12.7
287(9) 0.01088 278.0 12.7
286(9) 0.01031 277.9 12.7
270(9) 0.01147 277.9 12.7
268(9) 0.01228 277.9 12.7
272(9) 0.01216 277.9 12.8
292(9) 0.01087 277.9 12.9
275(9) 0.01061 277.8 12.9
270(9) 0.01144 277.8 13.0
279(9) 0.01202 277.8 13.1
279(9) 0.01179 277.8 13.2
272(9) 0.01125 277.8 13.3
275(9) 0.01039 277.7 13.5
272(9) 0.01151 277.7 13.6
295(9) 0.01133 277.7 13.8
279(9) 0.01167 277.7 14.0
286(9) 0.01075 277.7 14.2
294(10) 0.00991 277.7 14.4
282(9) 0.01119 277.6 14.6
275(9) 0.01215 277.6 14.8
296(9) 0.01091 277.6 15.0
285(9) 0.01070 277.6 15.2
294(9) 0.01023 277.6 15.4
278(9) 0.01139 277.5 15.6
290(9) 0.01145 277.5 15.8
289(9) 0.01118 277.5 16.0
299(9) 0.01055 277.5 16.1
301(10) 0.00999 277.5 16.3
294(10) 0.00999 277.4 16.4
293(9) 0.01136 277.4 16.5
287(9) 0.01142 277.4 16.6
274(9) 0.01186 277.4 16.7
305(10) 0.00985 277.4 16.8
278(9) 0.01119 277.4 16.9
316(9) 0.01055 277.3 17.0
294(9) 0.01092 277.3 17.1
286(9) 0.01092 277.3 17.1
291(9) 0.01071 277.3 17.2
289(9) 0.01113 277.3 17.3
279(9) 0.01174 277.2 17.4
300(9) 0.01072 277.2 17.5
310(9) 0.01021 277.2 17.6
298(9) 0.01044 277.2 17.7
285(9) 0.01142 277.2 17.8
296(9) 0.01126 277.2 17.9
293(9) 0.01049 277.1 18.1
304(10) 0.00973 277.1 18.2
291(9) 0.01102 277.1 18.3
295(9) 0.01110 277.1 18.4
289(9) 0.01144 277.1 18.5
312(10) 0.01002 277.0 18.6
307(9) 0.01019 277.0 18.7
327(10) 0.00983 277.0 18.8
302(9) 0.01112 277.0 18.9
300(9) 0.01116 277.0 19.0
303(9) 0.01024 276.9 19.1
294(9) 0.01041 276.9 19.1
301(9) 0.01098 276.9 19.2
314(9) 0.01057 276.9 19.2
286(9) 0.01167 276.9 19.2
290(9) 0.01082 276.9 19.2
293(10) 0.01001 276.8 19.2
340(10) 0.00927 276.8 19.2
311(9) 0.01070 276.8 19.1
303(9) 0.01093 276.8 19.1
276(9) 0.01118 276.8 19.1
297(10) 0.00965 276.7 19.0
287(9) 0.01087 276.7 19.0
315(9) 0.01080 276.7 18.9
316(9) 0.01066 276.7 18.8
306(9) 0.01020 276.7 18.8
320(10) 0.00920 276.6 18.7
293(9) 0.01086 276.6 18.6
274(9) 0.01204 276.6 18.5
294(9) 0.01102 276.6 18.5
296(9) 0.01060 276.6 18.4
297(9) 0.01028 276.6 18.4
293(9) 0.01074 276.5 18.3
289(9) 0.01162 276.5 18.3
310(9) 0.01050 276.5 18.3
313(10) 0.00954 276.5 18.2
309(10) 0.00992 276.5 18.2
285(9) 0.01114 276.4 18.2
286(9) 0.01163 276.4 18.3
280(9) 0.01149 276.4 18.3
285(9) 0.01096 276.4 18.4
290(9) 0.01054 276.4 18.5
290(9) 0.01081 276.4 18.6
301(9) 0.01115 276.3 18.8
298(9) 0.01074 276.3 19.0
302(9) 0.01042 276.3 19.2
287(9) 0.01082 276.3 19.5
294(9) 0.01093 276.3 19.9
312(9) 0.01091 276.2 20.3
304(9) 0.01035 276.2 20.8
302(9) 0.01023 276.2 21.4
299(9) 0.01047 276.2 22.2
299(9) 0.01106 276.2 23.1
315(9) 0.01074 276.1 24.2
306(9) 0.01020 276.1 25.4
307(10) 0.00977 276.1 27.0
330(10) 0.00961 276.1 28.8
332(10) 0.00982 276.1 30.9
336(9) 0.01008 276.1 33.4
330(10) 0.00968 276.0 36.2
337(10) 0.00890 276.0 39.2
342(10) 0.00937 276.0 42.3
361(10) 0.00946 276.0 45.3
357(10) 0.00953 276.0 47.8
379(11) 0.00837 275.9 49.5
343(10) 0.00890 275.9 50.1
375(10) 0.00849 275.9 49.4
338(9) 0.01010 275.9 47.8
350(10) 0.00959 275.9 45.4
361(10) 0.00875 275.9 42.8
323(10) 0.00934 275.8 40.2
337(10) 0.00923 275.8 37.8
332(9) 0.01023 275.8 35.7
344(10) 0.00976 275.8 34.0
341(10) 0.00898 275.8 32.7
295(9) 0.01059 275.7 31.7
318(9) 0.01011 275.7 31.1
328(9) 0.01030 275.7 30.7
342(10) 0.00969 275.7 30.6
320(10) 0.00940 275.7 30.6
295(9) 0.01011 275.6 30.7
298(9) 0.01055 275.6 30.7
323(9) 0.01029 275.6 30.7
299(9) 0.01106 275.6 30.4
318(10) 0.00961 275.6 30.0
292(9) 0.01056 275.6 29.3
310(9) 0.01030 275.5 28.5
312(9) 0.01080 275.5 27.6
299(9) 0.01072 275.5 26.7
313(10) 0.00939 275.5 25.8
309(10) 0.01003 275.5 25.0
292(9) 0.01107 275.4 24.3
310(9) 0.01073 275.4 23.7
276(9) 0.01165 275.4 23.1
254(8) 0.01242 275.4 22.6
312(10) 0.00988 275.4 22.2
295(9) 0.01073 275.3 21.8
281(9) 0.01182 275.3 21.5
290(9) 0.01087 275.3 21.3
285(9) 0.01084 275.3 21.0
287(9) 0.01093 275.3 20.8
279(9) 0.01168 275.3 20.7
303(9) 0.01098 275.2 20.5
302(10) 0.00998 275.2 20.4
283(9) 0.01060 275.2 20.3
277(9) 0.01117 275.2 20.3
284(9) 0.01175 275.2 20.2
289(9) 0.01151 275.1 20.2
291(9) 0.01069 275.1 20.2
289(9) 0.01034 275.1 20.2
285(9) 0.01088 275.1 20.2
290(9) 0.01114 275.1 20.3
292(9) 0.01149 275.1 20.4
281(9) 0.01133 275.0 20.5
285(9) 0.01042 275.0 20.6
293(9) 0.01064 275.0 20.7
277(9) 0.01202 275.0 20.9
268(9) 0.01214 275.0 21.0
299(9) 0.01064 274.9 21.2
310(10) 0.00934 274.9 21.4
302(9) 0.01027 274.9 21.6
298(9) 0.01110 274.9 21.8
314(9) 0.01063 274.9 22.0
305(9) 0.01073 274.8 22.3
301(10) 0.00965 274.8 22.5
291(9) 0.01081 274.8 22.7
307(9) 0.01099 274.8 22.9
282(9) 0.01142 274.8 23.2
308(10) 0.00978 274.8 23.4
300(10) 0.00975 274.7 23.6
280(9) 0.01121 274.7 23.7
281(9) 0.01171 274.7 23.9
291(9) 0.01139 274.7 24.0
296(9) 0.01063 274.7 24.2
294(9) 0.01010 274.6 24.3
276(9) 0.01155 274.6 24.5
284(9) 0.01172 274.6 24.6
275(9) 0.01178 274.6 24.7
287(9) 0.01075 274.6 24.9
306(10) 0.00982 274.5 25.1
297(9) 0.01065 274.5 25.4
284(9) 0.01177 274.5 25.7
311(9) 0.01023 274.5 26.0
308(9) 0.01026 274.5 26.4
330(10) 0.00914 274.5 26.8
302(9) 0.01065 274.4 27.3
319(9) 0.01049 274.4 27.7
308(9) 0.01036 274.4 28.1
313(10) 0.00942 274.4 28.4
305(10) 0.00984 274.4 28.6
280(9) 0.01160 274.3 28.7
287(9) 0.01165 274.3 28.6
320(10) 0.00984 274.3 28.5
313(10) 0.00989 274.3 28.2
296(9) 0.01081 274.3 28.0
313(9) 0.01068 274.3 27.9
311(9) 0.01074 274.2 27.9
336(10) 0.00933 274.2 28.0
309(10) 0.00961 274.2 28.4
318(10) 0.00985 274.2 29.0
297(9) 0.01112 274.2 29.9
303(9) 0.01102 274.1 31.2
316(10) 0.00995 274.1 32.8
336(10) 0.00874 274.1 34.8
338(10) 0.00927 274.1 37.3
317(9) 0.01061 274.1 40.4
320(9) 0.01052 274.0 43.9
347(10) 0.00903 274.0 47.7
355(10) 0.00840 274.0 51.8
366(10) 0.00873 274.0 55.6
353(10) 0.00952 274.0 58.7
351(10) 0.00955 274.0 60.6
325(10) 0.00998 273.9 61.2
351(10) 0.00849 273.9 60.8
348(10) 0.00904 273.9 59.6
339(10) 0.00996 273.9 58.3
349(10) 0.00971 273.9 56.8
313(9) 0.01039 273.8 55.4
352(10) 0.00840 273.8 54.1
328(10) 0.00955 273.8 52.7
344(10) 0.00977 273.8 51.2
307(9) 0.01072 273.8 49.6
344(10) 0.00914 273.7 48.0
340(10) 0.00911 273.7 46.2
322(9) 0.01019 273.7 44.3
343(10) 0.00988 273.7 42.4
310(9) 0.01068 273.7 40.6
313(10) 0.01003 273.7 38.9
320(10) 0.00923 273.6 37.2
303(9) 0.01019 273.6 35.7
308(9) 0.01094 273.6 34.4
290(9) 0.01099 273.6 33.3
305(9) 0.01031 273.6 32.3
288(9) 0.01123 273.5 31.4
310(9) 0.01037 273.5 30.8
300(9) 0.01109 273.5 30.3
307(9) 0.01013 273.5 30.0
305(9) 0.01013 273.5 29.8
323(10) 0.00950 273.5 29.9
300(9) 0.01085 273.4 30.0
299(9) 0.01117 273.4 30.3
310(9) 0.01013 273.4 30.8
307(9) 0.01036 273.4 31.5
322(10) 0.00981 273.4 32.3
312(9) 0.01067 273.3 33.2
301(9) 0.01103 273.3 34.3
295(9) 0.01039 273.3 35.6
327(10) 0.00909 273.3 37.1
321(10) 0.00972 273.3 38.7
314(9) 0.01050 273.2 40.5
334(9) 0.01019 273.2 42.4
314(10) 0.00993 273.2 44.4
307(10) 0.00982 273.2 46.6
340(10) 0.00944 273.2 48.8
327(9) 0.01035 273.2 51.1
322(9) 0.01041 273.1 53.4
356(10) 0.00875 273.1 55.6
321(10) 0.00941 273.1 57.7
327(10) 0.00979 273.1 59.7
336(10) 0.01005 273.1 61.3
329(9) 0.01015 273.0 62.7
351(10) 0.00915 273.0 63.7
344(10) 0.00868 273.0 64.3
333(10) 0.00945 273.0 64.4
336(10) 0.00984 273.0 64.1
344(10) 0.00968 273.0 63.3
317(10) 0.00989 272.9 61.9
326(10) 0.00924 272.9 60.2
322(10) 0.00930 272.9 58.0
319(9) 0.01054 272.9 55.4
316(9) 0.01061 272.9 52.7
314(9) 0.01036 272.8 49.8
324(10) 0.00918 272.8 46.9
314(10) 0.00981 272.8 44.0
313(9) 0.01073 272.8 41.2
294(9) 0.01106 272.8 38.5
318(10) 0.00982 272.7 36.0
346(10) 0.00857 272.7 33.7
303(9) 0.01061 272.7 31.6
305(9) 0.01094 272.7 29.6
317(9) 0.01020 272.7 27.8
299(9) 0.01053 272.7 26.2
296(9) 0.01039 272.6 24.7
281(9) 0.01160 272.6 23.3
297(9) 0.01135 272.6 22.1
312(9) 0.01027 272.6 20.9
273(9) 0.01098 272.6 19.9
277(9) 0.01103 272.5 19.0
270(9) 0.01190 272.5 18.1
289(9) 0.01154 272.5 17.4
289(9) 0.01096 272.5 16.6
284(9) 0.01107 272.5 16.0
283(9) 0.01115 272.4 15.4
276(9) 0.01165 272.4 14.9
279(9) 0.01191 272.4 14.4
249(8) 0.01262 272.4 14.0
279(9) 0.01080 272.4 13.6
298(9) 0.01021 272.4 13.2
284(9) 0.01154 272.3 12.9
266(9) 0.01228 272.3 12.7
287(9) 0.01042 272.3 12.4
264(9) 0.01089 272.3 12.2
282(9) 0.01068 272.3 12.0
287(9) 0.01166 272.2 11.8
263(8) 0.01245 272.2 11.7
268(9) 0.01168 272.2 11.6
278(9) 0.01081 272.2 11.5
295(9) 0.01077 272.2 11.5
281(9) 0.01173 272.2 11.5
275(9) 0.01211 272.1 11.5
269(9) 0.01221 272.1 11.5
282(9) 0.01067 272.1 11.6
274(9) 0.01139 272.1 11.7
278(9) 0.01180 272.1 11.8
284(9) 0.01151 272.0 12.0
271(9) 0.01144 272.0 12.2
255(9) 0.01168 272.0 12.4
272(9) 0.01168 272.0 12.6
269(8) 0.01233 272.0 12.8
296(9) 0.01095 271.9 13.0
262(8) 0.01235 271.9 13.3
275(9) 0.01052 271.9 13.5
263(9) 0.01175 271.9 13.6
299(9) 0.01128 271.9 13.8
262(9) 0.01224 271.9 13.9
271(9) 0.01110 271.8 13.9
266(9) 0.01116 271.8 13.8
256(9) 0.01187 271.8 13.7
271(9) 0.01223 271.8 13.5
270(9) 0.01211 271.8 13.3
279(9) 0.01116 271.7 13.0
253(8) 0.01253 271.7 12.7
284(9) 0.01115 271.7 12.3
274(9) 0.01213 271.8 12.0
296(9) 0.01063 271.8 11.6
289(9) 0.01057 271.8 11.3
275(9) 0.01148 271.8 10.9
280(9) 0.01137 271.8 10.6
261(8) 0.01269 271.8 10.3
289(9) 0.01075 271.9 10.0
278(9) 0.01104 271.9 9.8
284(9) 0.01063 271.9 9.6
284(9) 0.01163 271.9 9.3
307(9) 0.01086 271.9 9.2
271(9) 0.01157 271.9 9.0
281(9) 0.01101 272.0 8.8
302(9) 0.01032 272.0 8.7
282(9) 0.01135 272.0 8.6
257(8) 0.01275 272.0 8.5
257(9) 0.01218 272.0 8.4
253(9) 0.01131 272.1 8.3
256(9) 0.01181 272.1 8.3
285(9) 0.01140 272.1 8.2
282(9) 0.01181 272.1 8.2
286(9) 0.01047 272.1 8.2
279(9) 0.01021 272.1 8.2
281(9) 0.01109 272.2 8.2
273(9) 0.01212 272.2 8.2
264(9) 0.01225 272.2 8.2
281(9) 0.01122 272.2 8.3
300(10) 0.00964 272.2 8.3
269(9) 0.01134 272.2 8.4
281(9) 0.01188 272.3 8.4
283(9) 0.01168 272.3 8.5
267(9) 0.01168 272.3 8.6
281(9) 0.01013 272.3 8.7
286(9) 0.01068 272.3 8.8
265(8) 0.01254 272.4 8.9
270(9) 0.01215 272.4 9.0
292(9) 0.01089 272.4 9.1
307(10) 0.00939 272.4 9.3
277(9) 0.01143 272.4 9.4
293(9) 0.01142 272.4 9.6
244(8) 0.01323 272.5 9.8
279(9) 0.01105 272.5 10.0
272(9) 0.01109 272.5 10.2
277(9) 0.01113 272.5 10.4
294(9) 0.01137 272.5 10.6
279(9) 0.01157 272.5 10.9
287(9) 0.01105 272.6 11.2
297(9) 0.01046 272.6 11.5
278(9) 0.01132 272.6 11.8
262(8) 0.01260 272.6 12.1
293(9) 0.01091 272.6 12.5
287(9) 0.01083 272.6 12.8
265(9) 0.01188 272.7 13.2
292(9) 0.01112 272.7 13.7
302(9) 0.01107 272.7 14.1
285(9) 0.01113 272.7 14.6
286(9) 0.01069 272.7 15.2
295(9) 0.01015 272.8 15.7
284(9) 0.01134 272.8 16.4
304(9) 0.01102 272.8 17.0
289(9) 0.01095 272.8 17.7
269(9) 0.01148 272.8 18.4
277(9) 0.01134 272.8 19.2
282(9) 0.01132 272.9 20.1
266(8) 0.01255 272.9 21.0
278(9) 0.01161 272.9 22.0
284(9) 0.01059 272.9 23.0
279(9) 0.01110 272.9 24.1
300(9) 0.01106 272.9 25.3
294(9) 0.01114 273.0 26.5
294(9) 0.01082 273.0 27.9
301(10) 0.00972 273.0 29.3
280(9) 0.01153 273.0 30.8
318(9) 0.01064 273.0 32.3
336(10) 0.00986 273.1 33.9
312(9) 0.01030 273.1 35.6
315(10) 0.00952 273.1 37.4
320(10) 0.01003 273.1 39.2
319(9) 0.01070 273.1 41.0
325(9) 0.01025 273.1 42.8
330(10) 0.00943 273.2 44.6
336(10) 0.00904 273.2 46.4
332(10) 0.00957 273.2 48.1
295(9) 0.01149 273.2 49.6
316(9) 0.01045 273.2 51.0
308(9) 0.01034 273.2 52.2
317(10) 0.01000 273.3 53.2
345(10) 0.00911 273.3 53.9
320(9) 0.01052 273.3 54.4
304(9) 0.01065 273.3 54.5
311(9) 0.01020 273.3 54.3
308(10) 0.00954 273.4 53.9
301(9) 0.01037 273.4 53.1
326(9) 0.01030 273.4 52.1
324(10) 0.00992 273.4 50.9
298(9) 0.01049 273.4 49.5
318(10) 0.00949 273.4 47.9
312(10) 0.01007 273.5 46.2
275(9) 0.01204 273.5 44.5
297(9) 0.01074 273.5 42.7
289(9) 0.01090 273.5 40.9
318(10) 0.00963 273.5 39.1
295(9) 0.01090 273.5 37.3
283(9) 0.01176 273.6 35.6
319(9) 0.01009 273.6 33.9
307(9) 0.01012 273.6 32.4
290(9) 0.01071 273.6 30.8
288(9) 0.01104 273.6 29.4
269(9) 0.01195 273.7 28.0
301(9) 0.01012 273.7 26.7
286(9) 0.01020 273.7 25.5
285(9) 0.01118 273.7 24.4
305(9) 0.01106 273.7 23.3
307(9) 0.01092 273.7 22.3
324(10) 0.00964 273.8 21.4
289(9) 0.01054 273.8 20.5
280(9) 0.01147 273.8 19.7
286(9) 0.01154 273.8 18.9
269(8) 0.01236 273.8 18.2
276(9) 0.01131 273.8 17.6
283(9) 0.01038 273.9 16.9
283(9) 0.01082 273.9 16.4
263(8) 0.01256 273.9 15.8
292(9) 0.01126 273.9 15.3
271(9) 0.01162 273.9 14.9
273(9) 0.01099 274.0 14.5
291(9) 0.01103 274.0 14.1
308(9) 0.01090 274.0 13.7
305(9) 0.01097 274.0 13.4
309(9) 0.01018 274.0 13.1
293(9) 0.01024 274.0 12.8
287(9) 0.01065 274.1 12.5
280(9) 0.01188 274.1 12.3
274(9) 0.01207 274.1 12.1
280(9) 0.01113 274.1 11.9
315(10) 0.00915 274.1 11.7
295(9) 0.01059 274.1 11.6
279(9) 0.01186 274.2 11.4
281(9) 0.01172 274.2 11.3
263(9) 0.01184 274.2 11.2
264(9) 0.01158 274.2 11.1
299(9) 0.01063 274.2 11.1
289(9) 0.01142 274.3 11.0
276(9) 0.01151 274.3 11.0
265(9) 0.01189 274.3 11.0
291(9) 0.01039 274.3 11.0
259(9) 0.01215 274.3 11.0
292(9) 0.01133 274.3 11.0
295(9) 0.01107 274.4 11.1
288(9) 0.01104 274.4 11.1
267(9) 0.01164 274.4 11.2
275(9) 0.01155 274.4 11.3
269(8) 0.01237 274.4 11.5
287(9) 0.01113 274.4 11.6
281(9) 0.01093 274.5 11.8
306(10) 0.00991 274.5 12.0
304(9) 0.01079 274.5 12.2
304(9) 0.01099 274.5 12.5
291(9) 0.01058 274.5 12.8
297(10) 0.01001 274.6 13.1
280(9) 0.01134 274.6 13.5
280(9) 0.01156 274.6 13.9
278(9) 0.01176 274.6 14.3
276(9) 0.01104 274.6 14.8
266(9) 0.01126 274.6 15.4
280(9) 0.01113 274.7 16.0
277(9) 0.01180 274.7 16.7
273(9) 0.01214 274.7 17.4
273(9) 0.01119 274.7 18.2
296(10) 0.01005 274.7 19.1
301(9) 0.01044 274.7 20.1
307(9) 0.01081 274.8 21.1
304(9) 0.01120 274.8 22.3
308(10) 0.01004 274.8 23.6
309(10) 0.00956 274.8 24.9
309(10) 0.01007 274.8 26.4
290(9) 0.01127 274.9 27.9
298(9) 0.01103 274.9 29.6
319(10) 0.00966 274.9 31.3
315(10) 0.00937 274.9 33.0
310(9) 0.01023 274.9 34.8
309(9) 0.01072 274.9 36.5
319(9) 0.01040 275.0 38.2
346(10) 0.00907 275.0 39.7
313(10) 0.00959 275.0 41.0
299(9) 0.01061 275.0 42.1
305(9) 0.01077 275.0 42.8
323(10) 0.01006 275.0 43.2
321(9) 0.01010 275.1 43.1
324(10) 0.00964 275.1 42.7
322(10) 0.00968 275.1 41.9
306(9) 0.01075 275.1 40.8
302(9) 0.01077 275.1 39.5
295(9) 0.01058 275.1 38.0
325(10) 0.00924 275.2 36.4
315(10) 0.00989 275.2 34.7
321(9) 0.01036 275.2 33.0
315(9) 0.01043 275.2 31.3
297(9) 0.01064 275.2 29.7
303(9) 0.01035 275.3 28.2
306(10) 0.00996 275.3 26.8
273(9) 0.01210 275.3 25.5
278(9) 0.01136 275.3 24.3
300(10) 0.00998 275.3 23.2
293(9) 0.01068 275.3 22.2
293(9) 0.01102 275.4 21.3
295(9) 0.01127 275.4 20.5
287(9) 0.01121 275.4 19.7
270(9) 0.01121 275.4 19.1
299(10) 0.00998 275.4 18.5
288(9) 0.01126 275.4 18.1
289(9) 0.01152 275.5 17.6
294(9) 0.01031 275.5 17.3
285(9) 0.01064 275.5 17.0
299(9) 0.01028 275.5 16.7
304(9) 0.01079 275.5 16.5
284(9) 0.01172 275.6 16.4
275(9) 0.01151 275.6 16.3
296(9) 0.01019 275.6 16.3
297(9) 0.01085 275.6 16.2
286(9) 0.01137 275.6 16.3
279(9) 0.01195 275.6 16.3
289(9) 0.01040 275.7 16.5
282(9) 0.01027 275.7 16.6
277(9) 0.01132 275.7 16.8
305(9) 0.01079 275.7 17.0
305(9) 0.01108 275.7 17.2
285(9) 0.01118 275.7 17.5
303(10) 0.00978 275.8 17.8
298(9) 0.01053 275.8 18.1
310(9) 0.01075 275.8 18.5
309(9) 0.01099 275.8 18.9
308(9) 0.01030 275.8 19.3
284(9) 0.01036 275.9 19.7
310(9) 0.01011 275.9 20.1
295(9) 0.01141 275.9 20.5
290(9) 0.01152 275.9 21.0
288(9) 0.01104 275.9 21.4
302(9) 0.01020 275.9 21.8
328(10) 0.00966 276.0 22.3
301(9) 0.01094 276.0 22.7
318(9) 0.01024 276.0 23.0
298(9) 0.01030 276.0 23.4
293(9) 0.01037 276.0 23.6
290(9) 0.01072 276.0 23.9
296(9) 0.01133 276.1 24.1
291(9) 0.01093 276.1 24.2
307(9) 0.01026 276.1 24.3
325(10) 0.00950 276.1 24.3
302(9) 0.01022 276.1 24.3
296(9) 0.01135 276.2 24.1
282(9) 0.01154 276.2 24.0
297(10) 0.00992 276.2 23.7
287(9) 0.01080 276.2 23.5
304(9) 0.01052 276.2 23.1
313(9) 0.01078 276.2 22.8
300(9) 0.01059 276.3 22.4
300(9) 0.01067 276.3 21.9
296(9) 0.01111 276.3 21.5
312(9) 0.01044 276.3 21.0
306(9) 0.01091 276.3 20.5
297(9) 0.01068 276.3 20.1
303(10) 0.01007 276.4 19.6
278(9) 0.01123 276.4 19.1
282(9) 0.01115 276.4 18.6
283(9) 0.01182 276.4 18.1
280(9) 0.01107 276.4 17.6
284(9) 0.01072 276.5 17.2
297(9) 0.01069 276.5 16.7
289(9) 0.01146 276.5 16.3
294(9) 0.01142 276.5 15.8
291(9) 0.01109 276.5 15.4
306(10) 0.00975 276.5 15.0
299(9) 0.01085 276.6 14.7
286(9) 0.01141 276.6 14.3
287(9) 0.01150 276.6 14.0
275(9) 0.01151 276.6 13.7
308(10) 0.00938 276.6 13.4
286(9) 0.01093 276.6 13.1
267(8) 0.01245 276.7 12.9
275(9) 0.01190 276.7 12.7
288(9) 0.01092 276.7 12.4
283(9) 0.01019 276.7 12.2
266(9) 0.01198 276.7 12.1
264(8) 0.01232 276.8 11.9
279(9) 0.01189 276.8 11.8
299(10) 0.01006 276.8 11.6
263(9) 0.01129 276.8 11.5
295(9) 0.01055 276.8 11.4
277(9) 0.01193 276.8 11.4
277(9) 0.01181 276.9 11.3
283(9) 0.01106 276.9 11.2
285(9) 0.01034 276.9 11.2
256(8) 0.01238 276.9 11.2
291(9) 0.01149 276.9 11.2
296(9) 0.01065 276.9 11.2
250(8) 0.01274 277.0 11.2
285(9) 0.01068 277.0 11.3
267(9) 0.01137 277.0 11.3
273(9) 0.01207 277.0 11.4
283(9) 0.01155 277.0 11.5
287(9) 0.01092 277.1 11.6
281(9) 0.01105 277.1 11.7
300(9) 0.01060 277.1 11.8
286(9) 0.01157 277.1 11.9
292(9) 0.01069 277.1 12.1
299(9) 0.01011 277.1 12.3
319(10) 0.00910 277.2 12.5
279(9) 0.01155 277.2 12.7
286(9) 0.01162 277.2 12.9
289(9) 0.01117 277.2 13.2
276(9) 0.01128 277.2 13.4
273(9) 0.01171 277.2 13.7
282(9) 0.01167 277.3 14.0
289(9) 0.01141 277.3 14.3
286(9) 0.01076 277.3 14.6
282(9) 0.01067 277.3 15.0
274(9) 0.01158 277.3 15.3
291(9) 0.01130 277.3 15.7
297(9) 0.01128 277.4 16.1
273(9) 0.01148 277.4 16.6
291(10) 0.00998 277.4 17.0
294(9) 0.01093 277.4 17.5
284(9) 0.01178 277.4 17.9
309(9) 0.01079 277.5 18.4
307(9) 0.01053 277.5 18.9
321(10) 0.00886 277.5 19.4
305(9) 0.01055 277.5 19.9
302(9) 0.01117 277.5 20.4
287(9) 0.01166 277.5 20.9
273(9) 0.01184 277.6 21.4
318(10) 0.00924 277.6 21.8
321(10) 0.00955 277.6 22.3
295(9) 0.01128 277.6 22.7
273(8) 0.01233 277.6 23.1
284(9) 0.01106 277.6 23.5
268(9) 0.01151 277.7 23.8
306(9) 0.01048 277.7 24.1
314(9) 0.01071 277.7 24.3
289(9) 0.01125 277.7 24.5
303(10) 0.01004 277.7 24.6
314(10) 0.00930 277.8 24.7
336(10) 0.00915 277.8 24.7
267(8) 0.01239 277.8 24.6
285(9) 0.01153 277.8 24.5
310(9) 0.01019 277.8 24.3
299(9) 0.01016 277.8 24.1
286(9) 0.01096 277.9 23.8
307(9) 0.01093 277.9 23.4
321(9) 0.01017 277.9 23.0
318(10) 0.00966 277.9 22.6
283(9) 0.01102 277.9 22.2
301(9) 0.01065 277.9 21.7
277(9) 0.01203 278.0 21.2
305(9) 0.01044 278.0 20.7
298(9) 0.01041 278.0 20.2
280(9) 0.01105 278.0 19.7
295(9) 0.01078 278.0 19.1
308(9) 0.01097 278.1 18.6
306(9) 0.01028 278.1 18.1
292(9) 0.01032 278.1 17.6
274(9) 0.01139 278.1 17.1
303(9) 0.01050 278.1 16.6
292(9) 0.01132 278.1 16.2
282(9) 0.01093 278.2 15.7
279(9) 0.01079 278.2 15.3
295(9) 0.01019 278.2 14.9
290(9) 0.01119 278.2 14.5
269(9) 0.01231 278.2 14.1
277(9) 0.01126 278.2 13.7
280(9) 0.01079 278.3 13.4
300(9) 0.01049 278.3 13.0
288(9) 0.01152 278.3 12.7
273(9) 0.01220 278.3 12.4
276(9) 0.01159 278.3 12.1
293(10) 0.01007 278.4 11.9
289(9) 0.01112 278.4 11.6
272(9) 0.01211 278.4 11.4
267(8) 0.01232 278.4 11.2
291(9) 0.01079 278.4 10.9
290(10) 0.01001 278.4 10.8
285(9) 0.01144 278.5 10.6
310(9) 0.01073 278.5 10.4
292(9) 0.01136 278.5 10.2
268(9) 0.01160 278.5 10.1
284(9) 0.01011 278.5 9.9
282(9) 0.01115 278.5 9.8
252(8) 0.01305 278.6 9.7
261(8) 0.01251 278.6 9.6
280(9) 0.01109 278.6 9.5
289(9) 0.01037 278.6 9.4
292(9) 0.01097 278.6 9.3
281(9) 0.01189 278.7 9.2
299(9) 0.01095 278.7 9.1
279(9) 0.01148 278.7 9.1
292(9) 0.01044 278.7 9.0
293(9) 0.01073 278.7 9.0
283(9) 0.01165 278.7 8.9
266(9) 0.01200 278.8 8.9
268(9) 0.01172 278.8 8.9
258(8) 0.01249 278.8 8.8
301(9) 0.01076 278.8 8.8
277(9) 0.01199 278.8 8.8
292(9) 0.01087 278.8 8.8
285(9) 0.01090 278.9 8.8
278(9) 0.01140 278.9 8.8
284(9) 0.01121 278.9 8.8
283(9) 0.01169 278.9 8.8
265(9) 0.01214 278.9 8.8
291(9) 0.01040 279.0 8.8
288(9) 0.01084 279.0 8.9
295(9) 0.01097 279.0 8.9
289(9) 0.01145 279.0 8.9
266(9) 0.01163 279.0 8.9
275(9) 0.01099 279.0 9.0
266(9) 0.01220 279.1 9.0
266(8) 0.01234 279.1 9.1
276(9) 0.01199 279.1 9.1
262(9) 0.01171 279.1 9.2
279(9) 0.01082 279.1 9.2
278(9) 0.01137 279.1 9.3
274(9) 0.01191 279.2 9.3
285(9) 0.01173 279.2 9.4
288(9) 0.01109 279.2 9.5
278(9) 0.01033 279.2 9.6
265(9) 0.01169 279.2 9.7
277(9) 0.01184 279.3 9.8
272(9) 0.01228 279.3 9.9
261(9) 0.01209 279.3 10.0
274(9) 0.01053 279.3 10.1
297(9) 0.01075 279.3 10.3
303(9) 0.01111 279.3 10.4
278(9) 0.01186 279.4 10.5
258(9) 0.01218 279.4 10.7
290(10) 0.00979 279.4 10.8
261(9) 0.01171 279.4 11.0
265(8) 0.01233 279.4 11.2
280(9) 0.01182 279.4 11.4
268(9) 0.01152 279.5 11.5
280(9) 0.01054 279.5 11.7
270(9) 0.01135 279.5 11.9
273(9) 0.01221 279.5 12.1
300(9) 0.01086 279.5 12.3
274(9) 0.01147 279.6 12.4
289(9) 0.01067 279.6 12.6
295(9) 0.01050 279.6 12.8
282(9) 0.01184 279.6 12.9
283(9) 0.01127 279.6 13.1
287(9) 0.01073 279.6 13.2
266(9) 0.01139 279.7 13.3
280(9) 0.01124 279.7 13.4
293(9) 0.01129 279.7 13.5
284(9) 0.01138 279.7 13.6
289(9) 0.01059 279.7 13.6
283(9) 0.01078 279.7 13.7
273(9) 0.01184 279.8 13.8
285(9) 0.01166 279.8 13.8
283(9) 0.01104 279.8 13.9
271(9) 0.01114 279.8 13.9
285(9) 0.01085 279.8 14.0
299(9) 0.01065 279.8 14.0
284(9) 0.01179 279.9 14.1
290(9) 0.01045 279.9 14.1
264(9) 0.01168 279.9 14.2
276(9) 0.01133 279.9 14.3
285(9) 0.01148 279.9 14.4
295(9) 0.01137 280.0 14.6
290(9) 0.01057 280.0 14.7
276(9) 0.01078 280.0 14.9
268(9) 0.01170 280.0 15.1
275(9) 0.01197 280.0 15.3
272(9) 0.01222 280.0 15.5
275(9) 0.01157 280.1 15.8
275(9) 0.01097 280.1 16.1
301(9) 0.01056 280.1 16.4
299(9) 0.01127 280.1 16.8
297(9) 0.01114 280.1 17.2
298(9) 0.01027 280.1 17.6
303(10) 0.00930 280.2 18.1
289(9) 0.01096 280.2 18.7
279(9) 0.01170 280.2 19.3
280(9) 0.01185 280.2 20.0
291(9) 0.01073 280.2 20.9
281(9) 0.01046 280.3 21.9
267(9) 0.01172 280.3 23.1
296(9) 0.01122 280.3 24.7
320(9) 0.01060 280.3 26.6
290(9) 0.01070 280.3 28.9
290(9) 0.01016 280.3 31.9
304(9) 0.01014 280.4 35.5
321(9) 0.01036 280.4 39.8
332(10) 0.00982 280.4 44.7
326(10) 0.00968 280.4 50.1
318(10) 0.00972 280.4 55.5
324(10) 0.00970 280.4 60.1
301(9) 0.01104 280.5 62.7
328(10) 0.00994 280.5 62.7
321(9) 0.01010 280.5 60.1
328(10) 0.00939 280.5 55.7
319(10) 0.00967 280.5 50.8
313(9) 0.01063 280.6 45.8
321(9) 0.01013 280.6 41.4
291(9) 0.01099 280.6 37.6
311(10) 0.01003 280.6 34.5
297(9) 0.01099 280.6 32.1
325(9) 0.01043 280.6 30.1
327(10) 0.00975 280.7 28.5
306(9) 0.01042 280.7 27.3
302(9) 0.01057 280.7 26.3
312(9) 0.01041 280.7 25.5
311(9) 0.01075 280.7 24.8
320(10) 0.00963 280.7 24.2
307(10) 0.01006 280.8 23.7
313(10) 0.00995 280.8 23.2
300(9) 0.01080 280.8 22.7
296(9) 0.01131 280.8 22.2
294(9) 0.01092 280.8 21.7
298(9) 0.01035 280.9 21.3
305(9) 0.01045 280.9 20.8
308(9) 0.01088 280.9 20.4
300(9) 0.01113 280.9 20.0
283(9) 0.01078 280.9 19.5
292(9) 0.01024 280.9 19.1
301(9) 0.01049 281.0 18.7
282(9) 0.01191 281.0 18.3
303(9) 0.01099 281.0 17.9
291(9) 0.01048 281.0 17.4
295(10) 0.00996 281.0 17.0
280(9) 0.01161 281.0 16.6
297(9) 0.01099 281.1 16.3
252(8) 0.01327 281.1 15.9
285(9) 0.01110 281.1 15.5
289(9) 0.01009 281.1 15.2
289(9) 0.01103 281.1 14.8
290(9) 0.01149 281.2 14.5
267(8) 0.01244 281.2 14.1
294(9) 0.01062 281.2 13.8
291(9) 0.01038 281.2 13.5
279(9) 0.01155 281.2 13.2
288(9) 0.01153 281.2 12.9
271(9) 0.01196 281.3 12.6
293(9) 0.01010 281.3 12.3
300(10) 0.00973 281.3 12.1
278(9) 0.01118 281.3 11.8
282(9) 0.01172 281.3 11.6
279(9) 0.01175 281.3 11.3
254(8) 0.01235 281.4 11.1
278(9) 0.01072 281.4 10.9
275(9) 0.01125 281.4 10.7
281(9) 0.01193 281.4 10.5
290(9) 0.01099 281.4 10.3
281(9) 0.01114 281.5 10.1
272(9) 0.01091 281.5 9.9
298(9) 0.01055 281.5 9.8
291(9) 0.01141 281.5 9.6
278(9) 0.01123 281.5 9.4
295(10) 0.01007 281.5 9.3
248(8) 0.01241 281.6 9.2
258(9) 0.01197 281.6 9.0
285(9) 0.01165 281.6 8.9
309(9) 0.01011 281.6 8.8
280(9) 0.01086 281.6 8.7
282(9) 0.01114 281.6 8.6
294(9) 0.01108 281.7 8.5
302(9) 0.01112 281.7 8.4
266(9) 0.01190 281.7 8.3
276(9) 0.01086 281.7 8.2
275(9) 0.01155 281.7 8.1
289(9) 0.01143 281.8 8.1
302(9) 0.01089 281.8 8.0
267(9) 0.01172 281.8 7.9
265(9) 0.01104 281.8 7.9
284(9) 0.01056 281.8 7.8
258(9) 0.01225 281.8 7.8
262(8) 0.01264 281.9 7.7
285(9) 0.01110 281.9 7.7
286(9) 0.01065 281.9 7.7
270(9) 0.01194 281.9 7.7
271(9) 0.01209 281.9 7.6
276(9) 0.01195 281.9 7.6
261(9) 0.01189 282.0 7.6
280(10) 0.01004 282.0 7.6
276(9) 0.01141 282.0 7.6
281(9) 0.01181 282.0 7.6
266(8) 0.01246 282.0 7.7
283(9) 0.01134 282.0 7.7
281(9) 0.01067 282.1 7.7
301(9) 0.01044 282.1 7.7
297(9) 0.01124 282.1 7.8
270(9) 0.01191 282.1 7.8
284(9) 0.01081 282.1 7.9
284(9) 0.01065 282.2 8.0
288(9) 0.01088 282.2 8.1
285(9) 0.01173 282.2 8.1
273(9) 0.01212 282.2 8.3
268(9) 0.01194 282.2 8.4
276(9) 0.01088 282.2 8.5
290(9) 0.01071 282.3 8.7
269(8) 0.01236 282.3 8.9
276(9) 0.01201 282.3 9.1
276(9) 0.01130 282.3 9.3
297(9) 0.01025 282.3 9.6
290(9) 0.01083 282.3 9.9
293(9) 0.01135 282.4 10.3
283(9) 0.01122 282.4 10.7
287(9) 0.01111 282.4 11.2
285(9) 0.01096 282.4 11.9
310(9) 0.01046 282.4 12.7
294(9) 0.01138 282.5 13.6
299(9) 0.01045 282.5 14.8
284(9) 0.01112 282.5 16.3
311(10) 0.00992 282.5 18.2
288(9) 0.01114 282.5 20.6
291(9) 0.01138 282.5 23.6
297(9) 0.01047 282.6 27.2
289(9) 0.01030 282.6 31.6
308(9) 0.01021 282.6 36.8
333(10) 0.00996 282.6 42.6
349(10) 0.00971 282.6 48.8
316(9) 0.01020 282.6 54.8
336(10) 0.00905 282.7 59.7
337(10) 0.00922 282.7 62.4
329(9) 0.01022 282.7 62.2
336(10) 0.01001 282.7 59.2
311(9) 0.01021 282.7 54.1
316(10) 0.00944 282.8 48.0
309(10) 0.01003 282.8 41.8
282(9) 0.01171 282.8 36.0
289(9) 0.01148 282.8 30.9
298(10) 0.00997 282.8 26.6
321(10) 0.00910 282.8 23.1
319(10) 0.00969 282.9 20.1
288(9) 0.01152 282.9 17.8
277(9) 0.01179 282.9 15.9
272(9) 0.01143 282.9 14.5
272(9) 0.01076 282.9 13.3
289(9) 0.01082 282.9 12.3
301(9) 0.01112 283.0 11.5
275(9) 0.01175 283.0 10.9
269(9) 0.01207 283.0 10.4
283(9) 0.01036 283.0 9.9
290(9) 0.01076 283.0 9.6
276(9) 0.01188 283.1 9.2
294(9) 0.01145 283.1 8.9
303(9) 0.01072 283.1 8.7
292(9) 0.01038 283.1 8.5
272(9) 0.01162 283.1 8.3
290(9) 0.01149 283.1 8.1
285(9) 0.01132 283.2 7.9
272(9) 0.01144 283.2 7.8
264(9) 0.01189 283.2 7.7
284(9) 0.01119 283.2 7.6
271(9) 0.01229 283.2 7.5
282(9) 0.01121 283.2 7.4
278(9) 0.01119 283.3 7.3
264(9) 0.01172 283.3 7.2
274(9) 0.01158 283.3 7.1
269(8) 0.01233 283.3 7.1
284(9) 0.01105 283.3 7.0
288(9) 0.01012 283.4 6.9
249(8) 0.01236 283.4 6.9
262(8) 0.01233 283.4 6.8
278(9) 0.01206 283.4 6.8
276(9) 0.01140 283.4 6.7
279(9) 0.01043 283.4 6.7
272(9) 0.01139 283.5 6.7
277(9) 0.01165 283.5 6.6
262(8) 0.01261 283.5 6.6
249(9) 0.01195 283.5 6.6
272(9) 0.01091 283.5 6.5
265(9) 0.01167 283.5 6.5
286(9) 0.01148 283.6 6.5
288(9) 0.01163 283.6 6.5
273(9) 0.01160 283.6 6.5
272(9) 0.01102 283.6 6.5
268(9) 0.01170 283.6 6.5
283(9) 0.01174 283.7 6.5
276(9) 0.01204 283.7 6.5
283(9) 0.01089 283.7 6.5
293(10) 0.00965 283.7 6.6
279(9) 0.01075 283.7 6.6
306(9) 0.01070 283.7 6.8
295(9) 0.01141 283.8 6.9
279(9) 0.01094 283.8 7.1
253(9) 0.01133 283.8 7.4
273(9) 0.01114 283.8 7.7
285(9) 0.01150 283.8 8.1
289(9) 0.01149 283.8 8.6
312(10) 0.00984 283.9 9.2
310(10) 0.00955 283.9 9.8
290(9) 0.01100 283.9 10.4
285(9) 0.01170 283.9 10.9
299(9) 0.01119 283.9 11.2
310(10) 0.00997 284.0 11.1
290(9) 0.01077 284.0 10.8
314(10) 0.00995 284.0 10.3
269(9) 0.01228 284.0 9.6
266(9) 0.01194 284.0 8.9
279(9) 0.01090 284.0 8.3
283(9) 0.01074 284.1 7.7
282(9) 0.01126 284.1 7.2
284(9) 0.01168 284.1 6.8
267(9) 0.01193 284.1 6.5
279(9) 0.01110 284.1 6.2
287(9) 0.01062 284.1 6.0
285(9) 0.01118 284.2 5.9
271(9) 0.01226 284.2 5.7
283(9) 0.01112 284.2 5.6
293(9) 0.01056 284.2 5.5
274(9) 0.01126 284.2 5.5
278(9) 0.01166 284.2 5.4
299(9) 0.01120 284.3 5.3
281(9) 0.01109 284.3 5.3
285(9) 0.01059 284.3 5.2
270(9) 0.01134 284.3 5.2
265(9) 0.01197 284.3 5.2
284(9) 0.01168 284.4 5.2
261(9) 0.01188 284.4 5.1
270(9) 0.01068 284.4 5.1
257(9) 0.01182 284.4 5.1
292(9) 0.01134 284.4 5.1
283(9) 0.01152 284.4 5.1
282(9) 0.01094 284.5 5.1
264(9) 0.01135 284.5 5.1
273(9) 0.01111 284.5 5.1
267(8) 0.01231 284.5 5.1
283(9) 0.01172 284.5 5.1
283(9) 0.01080 284.5 5.1
271(9) 0.01095 284.6 5.1
264(9) 0.01177 284.6 5.2
269(9) 0.01223 284.6 5.2
259(8) 0.01264 284.6 5.2
269(9) 0.01163 284.6 5.2
271(9) 0.01095 284.7 5.2
254(8) 0.01276 284.7 5.3
283(9) 0.01182 284.7 5.3
306(9) 0.01076 284.7 5.3
272(9) 0.01152 284.7 5.4
277(9) 0.01064 284.7 5.4
287(9) 0.01037 284.8 5.5
269(9) 0.01224 284.8 5.5
260(8) 0.01233 284.8 5.5
281(9) 0.01086 284.8 5.6
291(9) 0.01017 284.8 5.6
245(8) 0.01266 284.8 5.7
270(9) 0.01230 284.9 5.8
299(9) 0.01068 284.9 5.8
282(9) 0.01113 284.9 5.9
285(9) 0.01112 284.9 6.0
293(9) 0.01066 284.9 6.0
282(9) 0.01181 285.0 6.1
285(9) 0.01110 285.0 6.2
267(9) 0.01153 285.0 6.3
265(9) 0.01166 285.0 6.4
274(9) 0.01191 285.0 6.4
297(9) 0.01123 285.0 6.5
249(8) 0.01261 285.1 6.6
271(9) 0.01123 285.1 6.8
292(9) 0.01055 285.1 6.9
274(9) 0.01180 285.1 7.0
294(9) 0.01130 285.1 7.1
289(9) 0.01132 285.1 7.2
283(9) 0.01110 285.2 7.4
286(9) 0.01092 285.2 7.5
295(9) 0.01055 285.2 7.7
303(9) 0.01107 285.2 7.9
267(9) 0.01184 285.2 8.0
243(8) 0.01279 285.3 8.2
286(9) 0.01077 285.3 8.4
302(9) 0.01087 285.3 8.6
302(9) 0.01107 285.3 8.8
290(9) 0.01059 285.3 9.1
283(9) 0.01026 285.3 9.3
296(9) 0.01057 285.4 9.6
272(9) 0.01182 285.4 9.9
289(9) 0.01155 285.4 10.2
320(10) 0.00949 285.4 10.6
298(10) 0.01000 285.4 11.0
272(9) 0.01154 285.4 11.4
296(9) 0.01114 285.5 11.9
274(9) 0.01203 285.5 12.4
297(9) 0.01039 285.5 12.9
297(10) 0.01004 285.5 13.5
299(9) 0.01026 285.5 14.2
304(9) 0.01098 285.6 15.0
280(9) 0.01197 285.6 15.8
295(9) 0.01071 285.6 16.8
275(9) 0.01078 285.6 17.8
264(9) 0.01225 285.6 18.9
291(9) 0.01140 285.6 20.1
295(9) 0.01067 285.7 21.4
276(9) 0.01096 285.7 22.8
294(9) 0.01059 285.7 24.2
311(9) 0.01082 285.7 25.6
306(9) 0.01072 285.7 27.0
316(9) 0.01014 285.7 28.2
323(10) 0.00969 285.8 29.2
297(9) 0.01088 285.8 30.0
315(9) 0.01059 285.8 30.6
305(9) 0.01044 285.8 30.9
306(9) 0.01027 285.8 31.0
321(10) 0.00974 285.9 30.9
305(9) 0.01062 285.9 30.5
333(10) 0.01003 285.9 29.9
311(9) 0.01051 285.9 29.2
317(10) 0.00993 285.9 28.3
328(10) 0.00945 285.9 27.2
279(9) 0.01132 286.0 26.1
297(9) 0.01119 286.0 24.9
298(9) 0.01044 286.0 23.8
287(9) 0.01045 286.0 22.7
285(9) 0.01102 286.0 21.7
304(9) 0.01036 286.0 20.8
297(9) 0.01108 286.1 20.0
322(10) 0.00991 286.1 19.2
310(10) 0.00998 286.1 18.5
277(9) 0.01134 286.1 17.9
271(9) 0.01192 286.1 17.4
280(9) 0.01183 286.2 16.9
277(9) 0.01141 286.2 16.4
305(10) 0.00955 286.2 16.0
287(9) 0.01079 286.2 15.6
291(9) 0.01097 286.2 15.3
295(9) 0.01139 286.2 14.9
316(9) 0.01020 286.3 14.6
304(10) 0.01000 286.3 14.4
288(9) 0.01113 286.3 14.1
302(9) 0.01095 286.3 13.8
301(9) 0.01105 286.3 13.6
302(9) 0.01046 286.3 13.4
282(9) 0.01070 286.4 13.1
287(9) 0.01074 286.4 12.9
277(9) 0.01194 286.4 12.7
286(9) 0.01159 286.4 12.5
285(9) 0.01088 286.4 12.3
280(9) 0.01035 286.5 12.2
305(10) 0.01000 286.5 12.0
280(9) 0.01189 286.5 11.8
283(9) 0.01178 286.5 11.7
312(10) 0.01003 286.5 11.5
283(9) 0.01035 286.5 11.4
279(9) 0.01109 286.6 11.2
272(9) 0.01221 286.6 11.1
289(9) 0.01116 286.6 11.0
305(9) 0.01027 286.6 10.8
304(10) 0.00989 286.6 10.7
271(9) 0.01174 286.6 10.6
287(9) 0.01166 286.7 10.5
294(9) 0.01061 286.7 10.4
255(9) 0.01212 286.7 10.3
278(9) 0.01048 286.7 10.2
264(9) 0.01206 286.7 10.1
284(9) 0.01177 286.7 10.0
272(9) 0.01163 286.8 10.0
272(9) 0.01093 286.8 9.9
283(9) 0.01078 286.8 9.8
271(9) 0.01200 286.8 9.8
291(9) 0.01145 286.8 9.7
272(9) 0.01172 286.9 9.7
269(9) 0.01128 286.9 9.7
274(9) 0.01125 286.9 9.6
278(9) 0.01150 286.9 9.6
272(9) 0.01221 286.9 9.6
271(9) 0.01186 286.9 9.5
285(9) 0.01109 287.0 9.5
265(9) 0.01211 287.0 9.5
287(9) 0.01118 287.0 9.5
305(9) 0.01102 287.0 9.5
314(10) 0.00982 287.0 9.5
262(9) 0.01134 287.0 9.5
267(9) 0.01199 287.1 9.5
267(9) 0.01221 287.1 9.5
276(9) 0.01214 287.1 9.5
289(9) 0.01093 287.1 9.5
267(9) 0.01111 287.1 9.5
265(9) 0.01160 287.2 9.5
280(9) 0.01192 287.2 9.5
305(9) 0.01066 287.2 9.5
305(9) 0.01044 287.2 9.5
295(9) 0.01029 287.2 9.5
280(9) 0.01150 287.2 9.5
286(9) 0.01140 287.3 9.5
255(8) 0.01307 287.3 9.5
281(9) 0.01125 287.3 9.5
285(9) 0.01018 287.3 9.5
269(9) 0.01128 287.3 9.5
265(9) 0.01228 287.3 9.5
300(9) 0.01106 287.4 9.4
293(9) 0.01058 287.4 9.4
269(9) 0.01109 287.4 9.4
271(9) 0.01115 287.4 9.4
284(9) 0.01176 287.4 9.3
262(8) 0.01261 287.5 9.3
289(9) 0.01056 287.5 9.3
273(9) 0.01119 287.5 9.2
292(9) 0.01045 287.5 9.2
272(9) 0.01215 287.5 9.2
283(9) 0.01148 287.5 9.1
299(9) 0.01045 287.6 9.1
275(9) 0.01126 287.6 9.0
287(9) 0.01055 287.6 9.0
263(8) 0.01249 287.6 9.0
285(9) 0.01089 287.6 9.0
289(9) 0.01045 287.6 8.9
277(9) 0.01110 287.7 8.9
295(9) 0.01069 287.7 8.9
262(8) 0.01256 287.7 8.9
276(9) 0.01112 287.7 8.9
272(9) 0.01177 287.7 8.9
306(9) 0.01012 287.8 8.9
299(9) 0.01077 287.8 8.9
297(9) 0.01120 287.8 8.9
308(9) 0.01061 287.8 8.9
287(9) 0.01047 287.8 8.9
302(10) 0.01005 287.8 9.0
290(9) 0.01108 287.9 9.0
288(9) 0.01143 287.9 9.1
278(9) 0.01156 287.9 9.2
275(9) 0.01104 287.9 9.2
268(9) 0.01169 287.9 9.3
285(9) 0.01159 287.9 9.5
307(9) 0.01089 288.0 9.6
295(9) 0.01046 288.0 9.7
263(9) 0.01130 288.0 9.9
284(9) 0.01070 288.0 10.1
275(9) 0.01181 288.0 10.4
280(9) 0.01172 288.1 10.6
279(9) 0.01117 288.1 11.0
282(9) 0.01056 288.1 11.4
284(9) 0.01062 288.1 11.8
279(9) 0.01148 288.1 12.4
287(9) 0.01166 288.1 13.1
297(9) 0.01052 288.2 14.0
295(9) 0.01011 288.2 15.0
286(9) 0.01117 288.2 16.3
290(9) 0.01150 288.2 17.9
285(9) 0.01159 288.2 19.7
285(9) 0.01134 288.2 21.9
277(9) 0.01087 288.3 24.3
292(9) 0.01039 288.3 26.9
285(9) 0.01161 288.3 29.5
303(9) 0.01072 288.3 31.7
309(9) 0.01045 288.3 33.2
287(9) 0.01083 288.4 33.6
304(9) 0.01029 288.4 32.9
324(9) 0.01043 288.4 31.3
311(9) 0.01068 288.4 29.1
278(9) 0.01130 288.4 26.9
314(10) 0.00954 288.4 24.7
276(9) 0.01114 288.5 22.8
276(9) 0.01195 288.5 21.2
280(9) 0.01130 288.5 19.9
305(10) 0.01002 288.5 18.9
287(9) 0.01060 288.5 18.1
286(9) 0.01091 288.5 17.6
298(9) 0.01137 288.6 17.2
305(9) 0.01035 288.6 17.0
321(10) 0.00964 288.6 16.9
306(9) 0.01035 288.6 16.9
307(9) 0.01062 288.6 17.0
288(9) 0.01157 288.7 17.1
305(9) 0.01045 288.7 17.3
269(9) 0.01144 288.7 17.6
278(9) 0.01141 288.7 17.9
285(9) 0.01101 288.7 18.3
273(9) 0.01216 288.7 18.7
314(10) 0.00958 288.8 19.2
305(10) 0.00998 288.8 19.7
296(9) 0.01066 288.8 20.2
295(9) 0.01121 288.8 20.9
337(10) 0.00995 288.8 21.6
304(9) 0.01039 288.8 22.3
309(10) 0.00982 288.9 23.2
311(9) 0.01017 288.9 24.2
326(10) 0.01002 288.9 25.3
319(9) 0.01055 288.9 26.5
291(9) 0.01101 288.9 28.0
309(10) 0.00951 288.9 29.7
284(9) 0.01130 289.0 31.6
310(9) 0.01090 289.0 33.9
323(9) 0.01034 289.0 36.7
307(9) 0.01050 289.0 39.8
317(10) 0.00916 289.0 43.5
319(10) 0.00988 289.1 47.7
337(10) 0.00981 289.1 52.5
313(9) 0.01072 289.1 57.9
361(10) 0.00854 289.1 63.7
336(10) 0.00888 289.1 69.8
339(10) 0.00932 289.1 75.6
323(9) 0.01010 289.2 80.7
368(10) 0.00913 289.2 84.3
335(10) 0.00965 289.2 85.8
344(10) 0.00898 289.2 85.1
349(10) 0.00916 289.2 82.4
346(10) 0.00983 289.2 78.2
342(10) 0.00973 289.3 73.2
318(9) 0.01036 289.3 68.1
349(10) 0.00881 289.3 63.3
344(10) 0.00908 289.3 59.2
333(9) 0.01018 289.3 55.9
352(10) 0.00907 289.4 53.5
338(10) 0.00939 289.4 51.8
331(10) 0.00931 289.4 51.0
336(10) 0.00969 289.4 51.0
355(10) 0.00949 289.4 51.4
345(10) 0.00937 289.4 52.1
339(10) 0.00933 289.5 52.7
332(10) 0.00935 289.5 52.8
322(10) 0.01004 289.5 52.1
339(10) 0.00996 289.5 50.4
340(10) 0.00926 289.5 47.9
306(10) 0.01001 289.5 44.9
316(10) 0.00997 289.6 41.7
326(10) 0.01002 289.6 38.6
318(9) 0.01047 289.6 35.8
313(10) 0.00985 289.6 33.3
303(10) 0.00987 289.6 31.2
305(9) 0.01026 289.7 29.5
306(9) 0.01078 289.7 28.0
303(9) 0.01119 289.7 26.9
285(9) 0.01084 289.7 26.0
285(9) 0.01071 289.7 25.4
303(9) 0.01074 289.7 24.9
307(9) 0.01088 289.8 24.7
311(9) 0.01073 289.8 24.6
292(9) 0.01082 289.8 24.6
298(9) 0.01010 289.8 24.8
304(9) 0.01029 289.8 25.1
294(9) 0.01126 289.8 25.5
283(9) 0.01163 289.9 26.0
285(9) 0.01083 289.9 26.6
310(10) 0.00995 289.9 27.2
325(9) 0.01012 289.9 28.0
298(9) 0.01128 289.9 28.8
291(9) 0.01154 290.0 29.7
303(9) 0.01055 290.0 30.6
301(10) 0.00948 290.0 31.5
305(9) 0.01025 290.0 32.4
325(9) 0.01018 290.0 33.2
309(9) 0.01063 290.0 34.1
308(9) 0.01011 290.1 34.8
297(9) 0.01035 290.1 35.6
297(9) 0.01075 290.1 36.3
337(9) 0.01013 290.1 36.9
311(9) 0.01028 290.1 37.5
288(9) 0.01120 290.1 38.1
318(10) 0.00960 290.2 38.7
329(10) 0.00967 290.2 39.3
325(9) 0.01031 290.2 39.9
309(9) 0.01081 290.2 40.4
315(9) 0.01018 290.2 40.9
317(10) 0.00996 290.3 41.2
327(10) 0.00977 290.3 41.5
305(9) 0.01095 290.3 41.5
295(9) 0.01098 290.3 41.4
307(10) 0.00994 290.3 41.1
301(10) 0.00993 290.3 40.5
318(9) 0.01020 290.4 39.7
341(10) 0.00984 290.4 38.8
316(10) 0.01003 290.4 37.7
306(10) 0.00996 290.4 36.4
289(9) 0.01108 290.4 35.1
304(9) 0.01052 290.4 33.7
328(9) 0.01033 290.5 32.3
313(10) 0.01001 290.5 30.9
307(10) 0.00990 290.5 29.5
323(10) 0.00955 290.5 28.2
313(9) 0.01045 290.5 27.0
320(9) 0.01051 290.6 25.8
329(10) 0.00977 290.6 24.7
319(10) 0.00955 290.6 23.7
309(9) 0.01028 290.6 22.8
308(9) 0.01075 290.6 22.0
290(9) 0.01156 290.6 21.3
295(9) 0.01088 290.7 20.6
305(10) 0.00995 290.7 20.0
315(10) 0.00990 290.7 19.5
309(9) 0.01074 290.7 19.1
297(9) 0.01125 290.7 18.7
290(9) 0.01078 290.7 18.4
295(10) 0.01001 290.8 18.1
302(9) 0.01011 290.8 17.9
299(9) 0.01099 290.8 17.7
299(9) 0.01113 290.8 17.5
317(10) 0.01005 290.8 17.4
294(9) 0.01024 290.9 17.3
292(9) 0.01068 290.9 17.1
294(9) 0.01150 290.9 17.0
305(9) 0.01085 290.9 16.9
305(9) 0.01053 290.9 16.7
311(10) 0.00961 290.9 16.6
291(9) 0.01094 291.0 16.4
267(9) 0.01226 291.0 16.3
286(9) 0.01165 291.0 16.2
299(9) 0.01033 291.0 16.1
287(9) 0.01023 291.0 16.0
276(9) 0.01139 291.0 16.0
288(9) 0.01152 291.1 16.0
309(9) 0.01054 291.1 16.1
298(9) 0.01084 291.1 16.2
315(10) 0.00976 291.1 16.5
295(9) 0.01067 291.1 16.8
301(9) 0.01101 291.1 17.2
340(10) 0.00965 291.2 17.8
316(10) 0.00956 291.2 18.5
289(9) 0.01080 291.2 19.4
310(10) 0.00995 291.2 20.4
323(9) 0.01042 291.2 21.7
329(10) 0.00961 291.3 23.2
325(10) 0.00959 291.3 24.9
339(10) 0.00922 291.3 26.9
331(10) 0.00969 291.3 29.1
316(9) 0.01054 291.3 31.6
317(9) 0.01016 291.3 34.2
338(10) 0.00897 291.4 36.9
355(10) 0.00906 291.4 39.5
352(10) 0.00934 291.4 41.7
345(10) 0.00980 291.4 43.4
377(11) 0.00790 291.4 44.2
332(10) 0.00933 291.4 44.2
324(10) 0.00974 291.5 43.1
316(9) 0.01040 291.5 41.3
325(9) 0.01041 291.5 39.0
332(10) 0.00959 291.5 36.4
305(10) 0.00966 291.5 33.7
328(10) 0.00962 291.6 31.0
326(9) 0.01026 291.6 28.6
317(9) 0.01067 291.6 26.3
319(10) 0.00989 291.6 24.4
317(10) 0.00924 291.6 22.6
298(9) 0.01061 291.6 21.1
301(9) 0.01109 291.7 19.8
302(9) 0.01090 291.7 18.8
288(9) 0.01110 291.7 17.8
306(10) 0.00950 291.7 17.1
289(9) 0.01079 291.7 16.5
314(9) 0.01081 291.7 16.0
301(9) 0.01102 291.8 15.6
293(9) 0.01111 291.8 15.3
306(10) 0.00969 291.8 15.1
304(10) 0.00984 291.8 15.0
337(10) 0.01007 291.8 15.0
312(9) 0.01050 291.9 15.0
297(9) 0.01040 291.9 15.1
296(9) 0.01023 291.9 15.3
312(9) 0.01015 291.9 15.6
309(9) 0.01072 291.9 15.9
331(9) 0.01020 291.9 16.3
329(10) 0.00981 292.0 16.9
329(10) 0.00928 292.0 17.5
310(10) 0.00987 292.0 18.2
311(9) 0.01073 292.0 19.1
297(9) 0.01109 292.0 20.0
285(9) 0.01082 292.0 21.2
314(10) 0.00971 292.1 22.4
295(9) 0.01110 292.1 23.9
312(9) 0.01077 292.1 25.4
328(10) 0.00981 292.1 27.2
304(9) 0.01040 292.1 29.2
306(9) 0.01017 292.2 31.2
322(9) 0.01015 292.2 33.5
319(9) 0.01053 292.2 35.8
325(10) 0.00972 292.2 38.2
339(10) 0.00899 292.2 40.6
337(10) 0.00910 292.2 42.8
317(9) 0.01044 292.3 44.7
335(9) 0.01009 292.3 46.2
342(10) 0.00941 292.3 47.2
352(10) 0.00886 292.3 47.5
316(10) 0.00996 292.3 47.2
332(10) 0.00979 292.3 46.2
342(10) 0.00996 292.4 44.7
345(10) 0.00933 292.4 42.8
331(10) 0.00908 292.4 40.6
324(10) 0.00992 292.4 38.1
339(10) 0.01000 292.4 35.7
336(9) 0.01013 292.5 33.2
300(9) 0.01078 292.5 30.9
313(10) 0.00929 292.5 28.6
309(9) 0.01048 292.5 26.6
320(9) 0.01043 292.5 24.7
327(9) 0.01048 292.5 23.0
303(9) 0.01016 292.6 21.4
287(9) 0.01010 292.6 20.0
307(9) 0.01029 292.6 18.7
282(9) 0.01180 292.6 17.6
302(9) 0.01088 292.6 16.6
296(9) 0.01078 292.6 15.8
307(10) 0.00969 292.7 15.0
297(9) 0.01068 292.7 14.3
297(9) 0.01129 292.7 13.7
270(9) 0.01186 292.7 13.2
319(10) 0.00992 292.7 12.8
296(9) 0.01013 292.8 12.4
272(9) 0.01140 292.8 12.1
291(9) 0.01144 292.8 11.9
287(9) 0.01154 292.8 11.7
288(9) 0.01093 292.8 11.6
266(9) 0.01148 292.8 11.5
273(9) 0.01135 292.9 11.5
288(9) 0.01156 292.9 11.5
318(9) 0.01008 292.9 11.6
276(9) 0.01126 292.9 11.8
298(10) 0.00989 292.9 12.0
304(10) 0.00986 292.9 12.3
286(9) 0.01158 293.0 12.6
295(9) 0.01094 293.0 13.0
306(9) 0.01034 293.0 13.4
321(10) 0.00972 293.0 13.8
303(9) 0.01102 293.0 14.3
311(9) 0.01079 293.1 14.7
313(9) 0.01028 293.1 15.2
283(9) 0.01126 293.1 15.5
308(10) 0.01001 293.1 15.7
294(9) 0.01070 293.1 15.8
306(9) 0.01103 293.1 15.7
274(9) 0.01142 293.2 15.5
274(9) 0.01105 293.2 15.1
294(9) 0.01034 293.2 14.7
269(8) 0.01234 293.2 14.1
316(9) 0.01059 293.2 13.6
333(10) 0.00951 293.2 13.0
309(10) 0.00970 293.3 12.4
281(9) 0.01117 293.3 11.8
299(9) 0.01114 293.3 11.3
323(9) 0.01032 293.3 10.9
302(9) 0.01053 293.3 10.4
272(9) 0.01133 293.4 10.1
318(10) 0.00991 293.4 9.7
311(9) 0.01044 293.4 9.4
307(9) 0.01098 293.4 9.2
283(9) 0.01125 293.4 9.0
301(10) 0.00966 293.4 8.8
300(9) 0.01043 293.5 8.7
286(9) 0.01175 293.5 8.6
267(8) 0.01236 293.5 8.5
289(9) 0.01076 293.5 8.5
303(10) 0.00956 293.5 8.4
284(9) 0.01127 293.5 8.5
313(9) 0.01053 293.6 8.5
309(9) 0.01087 293.6 8.6
313(10) 0.00963 293.6 8.7
306(10) 0.00976 293.6 8.8
293(9) 0.01074 293.6 9.0
293(9) 0.01141 293.6 9.2
294(9) 0.01131 293.7 9.5
317(9) 0.01010 293.7 9.8
309(10) 0.00985 293.7 10.1
318(10) 0.00993 293.7 10.6
305(9) 0.01101 293.7 11.1
320(9) 0.01020 293.8 11.7
310(9) 0.01012 293.8 12.4
321(10) 0.00961 293.8 13.3
309(10) 0.00991 293.8 14.2
296(9) 0.01131 293.8 15.3
305(9) 0.01053 293.8 16.6
318(10) 0.00998 293.9 18.0
317(9) 0.01012 293.9 19.6
319(9) 0.01021 293.9 21.3
299(9) 0.01119 293.9 23.0
301(9) 0.01013 293.9 24.7
314(10) 0.00963 293.9 26.3
331(10) 0.00933 294.0 27.6
290(9) 0.01127 294.0 28.4
299(9) 0.01111 294.0 28.7
301(9) 0.01065 294.0 28.3
316(10) 0.00973 294.0 27.5
309(9) 0.01018 294.1 26.3
292(9) 0.01118 294.1 25.0
307(9) 0.01098 294.1 23.5
300(9) 0.01011 294.1 22.1
308(10) 0.00975 294.1 20.8
301(9) 0.01087 294.1 19.7
303(9) 0.01101 294.2 18.7
297(9) 0.01111 294.2 17.9
281(9) 0.01137 294.2 17.2
296(9) 0.01012 294.2 16.7
291(9) 0.01092 294.2 16.4
290(9) 0.01147 294.2 16.2
353(10) 0.00957 294.3 16.1
301(9) 0.01075 294.3 16.1
295(9) 0.01009 294.3 16.2
293(9) 0.01090 294.3 16.4
289(9) 0.01150 294.3 16.7
323(9) 0.01031 294.4 17.0
322(10) 0.00972 294.4 17.4
294(10) 0.01000 294.4 17.9
297(9) 0.01076 294.4 18.5
330(9) 0.01022 294.4 19.2
298(9) 0.01112 294.4 19.9
275(9) 0.01130 294.5 20.6
328(10) 0.00898 294.5 21.5
301(9) 0.01076 294.5 22.3
318(9) 0.01059 294.5 23.3
319(9) 0.01048 294.5 24.2
312(9) 0.01013 294.5 25.3
284(9) 0.01059 294.6 26.3
313(9) 0.01008 294.6 27.3
314(9) 0.01065 294.6 28.4
303(9) 0.01085 294.6 29.4
310(9) 0.01024 294.6 30.4
334(10) 0.00905 294.7 31.2
324(10) 0.00983 294.7 32.1
300(9) 0.01115 294.7 32.7
318(9) 0.01015 294.7 33.3
309(9) 0.01046 294.7 33.7
316(10) 0.00998 294.7 33.9
326(10) 0.00967 294.8 33.9
333(9) 0.01011 294.8 33.7
311(9) 0.01022 294.8 33.4
309(10) 0.00980 294.8 32.9
314(10) 0.00972 294.8 32.2
304(9) 0.01064 294.8 31.4
320(9) 0.01059 294.9 30.5
317(10) 0.00980 294.9 29.5
315(10) 0.00945 294.9 28.4
313(9) 0.01019 294.9 27.4
316(9) 0.01037 294.9 26.2
302(9) 0.01114 295.0 25.1
303(9) 0.01040 295.0 24.0
334(10) 0.00908 295.0 23.0
328(10) 0.00942 295.0 21.9
324(10) 0.01001 295.0 20.9
306(9) 0.01101 295.0 20.0
278(9) 0.01142 295.1 19.1
288(9) 0.01075 295.1 18.2
311(10) 0.01004 295.1 17.4
287(9) 0.01140 295.1 16.6
307(9) 0.01101 295.1 15.9
287(9) 0.01103 295.1 15.2
305(10) 0.00957 295.2 14.6
331(10) 0.00941 295.2 14.0
304(9) 0.01085 295.2 13.5
274(9) 0.01211 295.2 13.0
304(9) 0.01039 295.2 12.5
289(9) 0.01013 295.3 12.1
314(10) 0.00974 295.3 11.7
283(9) 0.01192 295.3 11.3
292(9) 0.01138 295.3 11.0
312(9) 0.01025 295.3 10.7
314(10) 0.00970 295.3 10.4
290(9) 0.01106 295.4 10.1
315(9) 0.01075 295.4 9.9
313(9) 0.01079 295.4 9.6
302(9) 0.01043 295.4 9.4
317(10) 0.00957 295.4 9.3
296(9) 0.01075 295.4 9.1
279(9) 0.01199 295.5 8.9
294(9) 0.01125 295.5 8.8
330(10) 0.00974 295.5 8.7
307(10) 0.00996 295.5 8.6
295(9) 0.01051 295.5 8.5
286(9) 0.01175 295.6 8.4
274(9) 0.01190 295.6 8.3
309(10) 0.01007 295.6 8.3
298(9) 0.01014 295.6 8.2
304(9) 0.01056 295.6 8.2
300(9) 0.01118 295.6 8.1
284(9) 0.01127 295.7 8.1
320(10) 0.00984 295.7 8.1
323(10) 0.00976 295.7 8.1
271(9) 0.01183 295.7 8.1
294(9) 0.01137 295.7 8.0
289(9) 0.01105 295.7 8.0
304(9) 0.01015 295.8 8.0
299(9) 0.01061 295.8 8.0
291(9) 0.01112 295.8 8.0
305(9) 0.01110 295.8 8.0
318(10) 0.00981 295.8 8.0
307(10) 0.01005 295.8 8.0
288(9) 0.01074 295.9 7.9
272(9) 0.01175 295.9 7.9
295(9) 0.01110 295.9 7.9
284(9) 0.01108 295.9 7.8
286(9) 0.01081 295.9 7.8
299(9) 0.01047 296.0 7.7
301(9) 0.01088 296.0 7.6
293(9) 0.01140 296.0 7.6
301(9) 0.01030 296.0 7.5
322(10) 0.00911 296.0 7.4
291(9) 0.01080 296.0 7.3
287(9) 0.01147 296.1 7.2
312(9) 0.01080 296.1 7.1
284(9) 0.01114 296.1 7.0
316(10) 0.00874 296.1 6.9
297(9) 0.01045 296.1 6.8
287(9) 0.01144 296.1 6.7
317(9) 0.01050 296.2 6.7
274(9) 0.01161 296.2 6.6
283(9) 0.01021 296.2 6.5
299(9) 0.01076 296.2 6.4
306(9) 0.01080 296.2 6.3
286(9) 0.01138 296.3 6.2
312(10) 0.01006 296.3 6.1
289(9) 0.01038 296.3 6.1
306(9) 0.01041 296.3 6.0
291(9) 0.01137 296.3 5.9
295(9) 0.01126 296.3 5.9
299(9) 0.01109 296.4 5.8
308(9) 0.01019 296.4 5.8
307(9) 0.01052 296.4 5.7
312(9) 0.01073 296.4 5.7
288(9) 0.01126 296.4 5.7
279(9) 0.01122 296.4 5.6
307(10) 0.00985 296.5 5.6
310(10) 0.00979 296.5 5.6
299(9) 0.01127 296.5 5.6
291(9) 0.01091 296.5 5.6
294(9) 0.01019 296.5 5.6
292(9) 0.01035 296.6 5.6
276(9) 0.01162 296.6 5.6
287(9) 0.01164 296.6 5.7
291(9) 0.01101 296.6 5.7
271(9) 0.01143 296.6 5.8
297(9) 0.01029 296.6 5.8
284(9) 0.01124 296.7 5.9
317(9) 0.01065 296.7 6.0
286(9) 0.01089 296.7 6.1
286(9) 0.01071 296.7 6.2
309(10) 0.00997 296.7 6.3
295(9) 0.01109 296.7 6.4
314(9) 0.01071 296.8 6.6
298(9) 0.01033 296.8 6.8
287(9) 0.01053 296.8 7.0
286(9) 0.01131 296.8 7.2
305(9) 0.01089 296.8 7.5
308(9) 0.01084 296.9 7.8
280(9) 0.01096 296.9 8.2
280(9) 0.01085 296.9 8.6
324(10) 0.00999 296.9 9.1
312(9) 0.01067 296.9 9.7
268(8) 0.01233 296.9 10.3
301(9) 0.01018 297.0 11.1
319(10) 0.00901 297.0 12.0
309(9) 0.01028 297.0 13.0
310(9) 0.01055 297.0 14.1
321(9) 0.01059 297.0 15.5
308(9) 0.01009 297.0 16.9
292(10) 0.01003 297.1 18.6
328(10) 0.00953 297.1 20.4
305(9) 0.01096 297.1 22.4
300(9) 0.01106 297.1 24.5
316(10) 0.00985 297.1 26.5
305(10) 0.00967 297.2 28.4
324(10) 0.00958 297.2 30.0
333(9) 0.01009 297.2 31.1
336(10) 0.00982 297.2 31.6
328(10) 0.00944 297.2 31.5
311(9) 0.01019 297.2 30.7
343(10) 0.00938 297.3 29.4
337(10) 0.00996 297.3 27.7
329(10) 0.00985 297.3 25.7
305(10) 0.00978 297.3 23.7
309(10) 0.00994 297.3 21.7
335(10) 0.00903 297.3 19.8
308(9) 0.01096 297.4 18.1
311(9) 0.01047 297.4 16.5
311(10) 0.00978 297.4 15.1
301(10) 0.00985 297.4 13.9
294(9) 0.01076 297.4 12.8
304(9) 0.01110 297.5 11.9
299(9) 0.01066 297.5 11.1
298(9) 0.01047 297.5 10.4
306(10) 0.00989 297.5 9.8
309(9) 0.01050 297.5 9.3
316(9) 0.01062 297.5 8.8
289(9) 0.01117 297.6 8.5
286(9) 0.01077 297.6 8.1
290(9) 0.01045 297.6 7.8
310(9) 0.01054 297.6 7.6
304(9) 0.01086 297.6 7.4
314(10) 0.00962 297.6 7.2
305(10) 0.01004 297.7 7.1
311(9) 0.01040 297.7 6.9
286(9) 0.01132 297.7 6.8
305(9) 0.01102 297.7 6.7
301(9) 0.01042 297.7 6.6
316(10) 0.00977 297.8 6.5
336(10) 0.00960 297.8 6.5
314(9) 0.01051 297.8 6.4
293(9) 0.01115 297.8 6.4
290(9) 0.01056 297.8 6.4
282(9) 0.01042 297.8 6.4
306(9) 0.01024 297.9 6.3
325(9) 0.01037 297.9 6.3
304(9) 0.01095 297.9 6.3
300(9) 0.01036 297.9 6.3
294(10) 0.00956 297.9 6.4
282(9) 0.01124 297.9 6.4
295(9) 0.01118 298.0 6.4
296(9) 0.01112 298.0 6.4
317(10) 0.00978 298.0 6.5
301(9) 0.01031 298.0 6.5
305(9) 0.01052 298.0 6.6
323(9) 0.01045 298.0 6.6
309(9) 0.01073 298.1 6.7
313(9) 0.01017 298.1 6.7
276(9) 0.01079 298.1 6.8
284(9) 0.01124 298.1 6.9
319(9) 0.01066 298.1 7.0
308(9) 0.01077 298.2 7.0
298(9) 0.01087 298.2 7.1
339(10) 0.00923 298.2 7.2
338(10) 0.00970 298.2 7.3
315(9) 0.01068 298.2 7.4
304(9) 0.01065 298.2 7.5
298(9) 0.01061 298.3 7.7
316(10) 0.01004 298.3 7.8
307(9) 0.01070 298.3 7.9
291(9) 0.01139 298.3 8.1
294(9) 0.01106 298.3 8.2
323(10) 0.00962 298.3 8.4
312(10) 0.00996 298.4 8.5
294(9) 0.01115 298.4 8.7
328(9) 0.01029 298.4 8.9
287(9) 0.01113 298.4 9.1
295(9) 0.01061 298.4 9.3
314(10) 0.00991 298.5 9.5
319(9) 0.01020 298.5 9.8
320(9) 0.01053 298.5 10.0
317(10) 0.00984 298.5 10.3
297(9) 0.01037 298.5 10.6
318(10) 0.00974 298.5 10.9
292(9) 0.01117 298.6 11.3
309(9) 0.01089 298.6 11.7
311(9) 0.01026 298.6 12.1
296(9) 0.01041 298.6 12.5
295(9) 0.01077 298.6 13.0
316(9) 0.01046 298.6 13.5
323(9) 0.01050 298.7 14.1
316(10) 0.01001 298.7 14.8
284(9) 0.01064 298.7 15.5
340(10) 0.00912 298.7 16.4
342(10) 0.00981 298.7 17.3
331(9) 0.01040 298.8 18.4
339(10) 0.00939 298.8 19.7
308(10) 0.00969 298.8 21.1
350(10) 0.00866 298.8 22.8
344(10) 0.00975 298.8 24.7
359(10) 0.00950 298.8 26.8
357(10) 0.00895 298.9 29.2
376(11) 0.00794 298.9 31.9
341(10) 0.00925 298.9 34.9
335(10) 0.01003 298.9 38.0
369(10) 0.00914 298.9 41.1
369(10) 0.00886 298.9 44.0
374(11) 0.00819 299.0 46.5
378(11) 0.00835 299.0 48.3
370(10) 0.00932 299.0 49.2
341(10) 0.00949 299.0 49.0
383(11) 0.00823 299.0 48.0
362(10) 0.00848 299.1 46.2
361(10) 0.00884 299.1 44.1
340(10) 0.00993 299.1 41.9
347(10) 0.00968 299.1 39.8
350(10) 0.00914 299.1 37.8
316(10) 0.00979 299.1 36.2
330(10) 0.00955 299.2 34.8
335(9) 0.01010 299.2 33.7
322(9) 0.01038 299.2 33.0
334(10) 0.00956 299.2 32.5
370(11) 0.00821 299.2 32.3
335(10) 0.00941 299.2 32.3
341(10) 0.00996 299.3 32.6
361(10) 0.00863 299.3 33.1
323(10) 0.00960 299.3 33.9
350(10) 0.00873 299.3 34.9
346(10) 0.00969 299.3 36.1
344(10) 0.00982 299.4 37.6
378(10) 0.00841 299.4 39.3
346(10) 0.00886 299.4 41.4
360(10) 0.00879 299.4 43.7
352(10) 0.00953 299.4 46.3
372(10) 0.00912 299.4 49.3
377(11) 0.00837 299.5 52.5
379(10) 0.00840 299.5 55.9
392(11) 0.00827 299.5 59.5
381(10) 0.00891 299.5 63.0
388(10) 0.00878 299.5 66.4
380(10) 0.00839 299.5 69.2
386(11) 0.00784 299.6 71.4
368(10) 0.00864 299.6 72.5
376(10) 0.00904 299.6 72.4
385(10) 0.00891 299.6 71.2
378(10) 0.00854 299.6 69.0
378(11) 0.00785 299.7 65.9
356(10) 0.00901 299.7 62.3
344(10) 0.00979 299.7 58.4
366(10) 0.00919 299.7 54.4
323(10) 0.00989 299.7 50.6
373(11) 0.00792 299.7 47.0
344(10) 0.00931 299.8 43.6
335(9) 0.01016 299.8 40.6
342(10) 0.00971 299.8 37.8
347(10) 0.00896 299.8 35.3
331(10) 0.00917 299.8 33.1
351(10) 0.00874 299.8 31.1
317(9) 0.01062 299.9 29.4
339(10) 0.00982 299.9 27.8
338(10) 0.00941 299.9 26.4
329(10) 0.00918 299.9 25.2
350(10) 0.00886 299.9 24.1
330(9) 0.01018 300.0 23.1
341(10) 0.00973 300.0 22.2
327(10) 0.00964 300.0 21.5
315(10) 0.00943 300.0 20.7
305(9) 0.01048 300.0 20.1
320(9) 0.01053 300.0 19.5
314(9) 0.01054 300.1 19.0
306(9) 0.01031 300.1 18.5
326(10) 0.00975 300.1 18.1
325(10) 0.00972 300.1 17.7
309(9) 0.01081 300.1 17.3
312(9) 0.01031 300.1 17.0
307(10) 0.00969 300.2 16.7
311(10) 0.01002 300.2 16.5
313(9) 0.01035 300.2 16.2
314(9) 0.01072 300.2 16.0
325(10) 0.00971 300.2 15.8
310(9) 0.01023 300.3 15.6
310(9) 0.01023 300.3 15.5
299(9) 0.01099 300.3 15.4
313(9) 0.01084 300.3 15.2
305(9) 0.01013 300.3 15.2
318(10) 0.00963 300.3 15.1
318(10) 0.00987 300.4 15.0
291(9) 0.01128 300.4 15.0
300(9) 0.01091 300.4 15.0
309(9) 0.01015 300.4 15.0
293(9) 0.01012 300.4 15.0
313(9) 0.01041 300.4 15.0
303(9) 0.01107 300.5 15.1
301(9) 0.01113 300.5 15.2
327(10) 0.00945 300.5 15.2
302(10) 0.00966 300.5 15.4
309(9) 0.01041 300.5 15.5
300(9) 0.01105 300.5 15.6
296(9) 0.01124 300.6 15.8
327(10) 0.00952 300.6 16.0
309(10) 0.00981 300.6 16.2
318(10) 0.00995 300.6 16.4
308(9) 0.01095 300.6 16.7
317(9) 0.01054 300.7 17.0
299(9) 0.01052 300.7 17.3
317(10) 0.00936 300.7 17.7
304(9) 0.01065 300.7 18.0
301(9) 0.01105 300.7 18.4
330(9) 0.01019 300.7 18.9
332(10) 0.00913 300.8 19.3
327(10) 0.00917 300.8 19.8
320(10) 0.00954 300.8 20.4
308(9) 0.01084 300.8 21.0
318(9) 0.01017 300.8 21.6
320(10) 0.00924 300.8 22.2
308(10) 0.00976 300.9 22.9
324(10) 0.00962 300.9 23.7
317(9) 0.01058 300.9 24.4
322(10) 0.00990 300.9 25.2
342(10) 0.00920 300.9 26.0
345(10) 0.00891 301.0 26.9
296(9) 0.01072 301.0 27.7
316(9) 0.01062 301.0 28.5
313(9) 0.01046 301.0 29.4
317(9) 0.01011 301.0 30.2
324(10) 0.00978 301.0 31.0
318(9) 0.01044 301.1 31.8
356(10) 0.00949 301.1 32.6
324(10) 0.00985 301.1 33.3
343(10) 0.00895 301.1 34.0
336(10) 0.00941 301.1 34.7
348(10) 0.00914 301.1 35.3
328(9) 0.01024 301.2 35.9
331(10) 0.00951 301.2 36.4
334(10) 0.00926 301.2 36.9
337(10) 0.00899 301.2 37.3
313(9) 0.01054 301.2 37.7
324(9) 0.01026 301.3 38.0
321(10) 0.00966 301.3 38.3
302(10) 0.00946 301.3 38.4
328(10) 0.00974 301.3 38.5
323(9) 0.01024 301.3 38.5
323(9) 0.01034 301.3 38.4
315(10) 0.00996 301.4 38.2
315(10) 0.00939 301.4 38.0
315(10) 0.01001 301.4 37.6
330(9) 0.01017 301.4 37.2
352(10) 0.00957 301.4 36.8
316(9) 0.01029 301.4 36.3
326(10) 0.00897 301.5 35.8
340(10) 0.00957 301.5 35.3
359(10) 0.00925 301.5 34.7
312(9) 0.01062 301.5 34.2
329(10) 0.00958 301.5 33.7
332(10) 0.00925 301.6 33.1
335(10) 0.00965 301.6 32.6
328(9) 0.01033 301.6 32.2
334(10) 0.01000 301.6 31.7
329(10) 0.00965 301.6 31.4
338(10) 0.00886 301.6 31.0
334(10) 0.00977 301.7 30.7
344(10) 0.00986 301.7 30.4
337(10) 0.00971 301.7 30.2
330(10) 0.00972 301.7 30.0
345(10) 0.00899 301.7 29.9
367(10) 0.00866 301.7 29.7
326(9) 0.01034 301.8 29.7
352(10) 0.00964 301.8 29.6
369(10) 0.00865 301.8 29.7
344(10) 0.00921 301.8 29.7
346(10) 0.00936 301.8 29.8
341(10) 0.00993 301.9 29.9
313(9) 0.01049 301.9 30.0
360(11) 0.00836 301.9 30.1
346(10) 0.00869 301.9 30.3
323(10) 0.01003 301.9 30.5
363(10) 0.00943 301.9 30.7
367(10) 0.00868 302.0 30.9
338(10) 0.00964 302.0 31.2
340(10) 0.00956 302.0 31.5
341(10) 0.00967 302.0 31.8
348(10) 0.00969 302.0 32.1
356(10) 0.00850 302.0 32.4
337(10) 0.00916 302.1 32.8
356(10) 0.00913 302.1 33.3
344(10) 0.00954 302.1 33.8
367(10) 0.00933 302.1 34.4
360(10) 0.00882 302.1 35.0
344(10) 0.00917 302.2 35.8
364(10) 0.00875 302.2 36.6
334(10) 0.01007 302.2 37.6
357(10) 0.00952 302.2 38.8
337(10) 0.00961 302.2 40.1
349(10) 0.00868 302.2 41.6
359(10) 0.00883 302.3 43.3
348(10) 0.00972 302.3 45.2
370(10) 0.00918 302.3 47.3
356(10) 0.00907 302.3 49.5
356(11) 0.00838 302.3 52.0
376(10) 0.00844 302.3 54.5
366(10) 0.00936 302.4 56.9
340(10) 0.00980 302.4 59.1
342(10) 0.00930 302.4 61.0
354(10) 0.00848 302.4 62.3
347(10) 0.00925 302.4 62.8
362(10) 0.00933 302.5 62.6
358(10) 0.00951 302.5 61.5
343(10) 0.00930 302.5 59.6
330(10) 0.00930 302.5 57.1
354(10) 0.00915 302.5 54.2
339(10) 0.00993 302.5 51.1
338(10) 0.00976 302.6 47.9
334(10) 0.00940 302.6 44.7
328(10) 0.00942 302.6 41.7
309(9) 0.01025 302.6 38.9
341(10) 0.00991 302.6 36.3
338(10) 0.00958 302.6 33.9
344(10) 0.00915 302.7 31.7
307(9) 0.01025 302.7 29.7
322(10) 0.00974 302.7 28.0
320(9) 0.01059 302.7 26.4
300(9) 0.01102 302.7 25.0
316(10) 0.01003 302.7 23.7
330(10) 0.00932 302.8 22.5
320(10) 0.00994 302.8 21.5
328(9) 0.01033 302.8 20.6
333(10) 0.00970 302.8 19.8
350(10) 0.00867 302.8 19.0
337(10) 0.00932 302.9 18.3
302(9) 0.01047 302.9 17.7
285(9) 0.01161 302.9 17.2
322(10) 0.00979 302.9 16.7
323(10) 0.00935 302.9 16.2
300(9) 0.01019 302.9 15.8
316(9) 0.01042 303.0 15.4
286(9) 0.01172 303.0 15.0
311(9) 0.01013 303.0 14.7
329(10) 0.00896 303.0 14.4
291(9) 0.01084 303.0 14.1
316(9) 0.01029 303.0 13.8
297(9) 0.01145 303.1 13.6
299(9) 0.01060 303.1 13.4
332(10) 0.00885 303.1 13.2
321(10) 0.00965 303.1 13.0
320(9) 0.01036 303.1 12.8
315(9) 0.01068 303.2 12.6
332(10) 0.00942 303.2 12.5
341(10) 0.00850 303.2 12.3
292(9) 0.01087 303.2 12.2
287(9) 0.01150 303.2 12.1
317(9) 0.01063 303.2 12.0
327(10) 0.00970 303.3 11.9
330(10) 0.00892 303.3 11.8
315(9) 0.01027 303.3 11.7
298(9) 0.01128 303.3 11.6
307(9) 0.01068 303.3 11.6
325(10) 0.00962 303.3 11.5
311(10) 0.00951 303.4 11.4
314(10) 0.00966 303.4 11.4
307(9) 0.01096 303.4 11.4
318(9) 0.01046 303.4 11.3
337(10) 0.00926 303.4 11.3
313(10) 0.00993 303.5 11.3
314(10) 0.00977 303.5 11.3
319(9) 0.01067 303.5 11.3
275(9) 0.01181 303.5 11.3
304(9) 0.01017 303.5 11.3
308(10) 0.00984 303.5 11.3
295(9) 0.01090 303.6 11.3
341(10) 0.00997 303.6 11.3
298(9) 0.01088 303.6 11.3
324(10) 0.00964 303.6 11.3
313(10) 0.00987 303.6 11.4
308(9) 0.01039 303.6 11.4
280(9) 0.01187 303.7 11.5
295(9) 0.01070 303.7 11.5
308(10) 0.01002 303.7 11.6
297(9) 0.01088 303.7 11.6
315(9) 0.01029 303.7 11.7
299(9) 0.01122 303.8 11.8
299(9) 0.01015 303.8 11.9
322(10) 0.00932 303.8 12.0
320(10) 0.00974 303.8 12.1
317(9) 0.01038 303.8 12.2
318(9) 0.01071 303.8 12.3
327(10) 0.00944 303.9 12.5
327(10) 0.00934 303.9 12.7
294(9) 0.01082 303.9 12.8
283(9) 0.01158 303.9 13.0
324(9) 0.01031 303.9 13.3
300(9) 0.01075 303.9 13.5
346(10) 0.00874 304.0 13.8
322(9) 0.01009 304.0 14.0
315(9) 0.01073 304.0 14.3
316(9) 0.01066 304.0 14.6
341(10) 0.00943 304.0 14.9
321(10) 0.00943 304.1 15.3
324(10) 0.00978 304.1 15.6
313(9) 0.01076 304.1 15.9
320(9) 0.01057 304.1 16.1
310(9) 0.01056 304.1 16.3
304(9) 0.01012 304.1 16.5
327(10) 0.00926 304.2 16.6
323(9) 0.01027 304.2 16.6
297(9) 0.01122 304.2 16.6
341(10) 0.00917 304.2 16.4
336(10) 0.00879 304.2 16.2
339(10) 0.00915 304.2 15.9
307(9) 0.01093 304.3 15.6
300(9) 0.01096 304.3 15.1
327(10) 0.00952 304.3 14.7
292(9) 0.01078 304.3 14.2
318(10) 0.00976 304.3 13.7
296(9) 0.01134 304.4 13.2
320(9) 0.01036 304.4 12.8
327(10) 0.00978 304.4 12.3
350(10) 0.00881 304.4 11.8
355(10) 0.00883 304.4 11.4
333(9) 0.01010 304.4 11.0
295(9) 0.01101 304.5 10.6
290(9) 0.01069 304.5 10.2
270(9) 0.01150 304.5 9.9
308(9) 0.01048 304.5 9.6
333(9) 0.01015 304.5 9.3
307(9) 0.01048 304.5 9.0
317(10) 0.00947 304.6 8.7
344(10) 0.00876 304.6 8.5
324(9) 0.01020 304.6 8.3
308(9) 0.01100 304.6 8.0
328(10) 0.00965 304.6 7.8
292(9) 0.01032 304.7 7.7
302(9) 0.01023 304.7 7.5
287(9) 0.01117 304.7 7.3
295(9) 0.01141 304.7 7.2
312(10) 0.00993 304.7 7.0
299(9) 0.01045 304.7 6.9
329(10) 0.00968 304.8 6.8
292(9) 0.01126 304.8 6.7
314(9) 0.01068 304.8 6.5
297(9) 0.01095 304.8 6.4
290(9) 0.01071 304.8 6.3
308(9) 0.01041 304.8 6.3
306(9) 0.01095 304.9 6.2
288(9) 0.01140 304.9 6.1
301(9) 0.01048 304.9 6.0
305(10) 0.00961 304.9 5.9
289(9) 0.01120 304.9 5.9
315(9) 0.01065 305.0 5.8
301(9) 0.01124 305.0 5.8
318(10) 0.00988 305.0 5.7
301(10) 0.00961 305.0 5.7
291(9) 0.01099 305.0 5.6
316(9) 0.01052 305.0 5.6
302(9) 0.01117 305.1 5.6
305(10) 0.00998 305.1 5.5
293(10) 0.00974 305.1 5.5
276(9) 0.01123 305.1 5.5
293(9) 0.01136 305.1 5.5
301(9) 0.01089 305.1 5.5
285(9) 0.01125 305.2 5.4
318(10) 0.00929 305.2 5.4
322(10) 0.00945 305.2 5.4
295(9) 0.01139 305.2 5.4
296(9) 0.01103 305.2 5.4
296(9) 0.01056 305.2 5.4
323(10) 0.00940 305.3 5.4
308(9) 0.01054 305.3 5.4
297(9) 0.01132 305.3 5.3
286(9) 0.01112 305.3 5.3
313(10) 0.00969 305.3 5.3
297(9) 0.01052 305.4 5.3
323(10) 0.00952 305.4 5.3
290(9) 0.01152 305.4 5.3
288(9) 0.01102 305.4 5.3
298(9) 0.01067 305.4 5.2
325(10) 0.00963 305.4 5.2
318(9) 0.01019 305.5 5.3
318(9) 0.01055 305.5 5.3
287(9) 0.01141 305.5 5.3
282(9) 0.01094 305.5 5.3
280(9) 0.01116 305.5 5.3
321(9) 0.01016 305.5 5.3
297(9) 0.01130 305.6 5.3
311(10) 0.00987 305.6 5.4
311(10) 0.00934 305.6 5.4
273(9) 0.01153 305.6 5.4
290(9) 0.01132 305.6 5.5
307(9) 0.01092 305.7 5.5
286(9) 0.01096 305.7 5.5
288(9) 0.01086 305.7 5.6
328(10) 0.00945 305.7 5.6
305(9) 0.01091 305.7 5.7
321(9) 0.01031 305.7 5.7
305(9) 0.01020 305.8 5.8
297(10) 0.00972 305.8 5.9
300(9) 0.01036 305.8 5.9
315(9) 0.01036 305.8 6.0
303(9) 0.01083 305.8 6.1
309(9) 0.01010 305.8 6.2
302(10) 0.01001 305.9 6.2
310(10) 0.00976 305.9 6.3
303(9) 0.01094 305.9 6.4
297(9) 0.01128 305.9 6.4
287(9) 0.01119 305.9 6.5
320(10) 0.00939 306.0 6.6
318(9) 0.01012 306.0 6.6
309(9) 0.01089 306.0 6.7
296(9) 0.01114 306.0 6.7
285(9) 0.01097 306.0 6.8
328(10) 0.00873 306.0 6.8
305(9) 0.01039 306.1 6.8
313(9) 0.01078 306.1 6.9
294(9) 0.01127 306.1 6.9
311(9) 0.01038 306.1 6.9
346(10) 0.00913 306.1 6.9
348(10) 0.00909 306.1 6.9
328(9) 0.01025 306.2 6.9
305(9) 0.01070 306.2 6.9
317(10) 0.00993 306.2 6.9
317(10) 0.00969 306.2 6.9
325(10) 0.00996 306.2 6.9
312(9) 0.01086 306.3 6.9
309(9) 0.01035 306.3 6.9
303(9) 0.01030 306.3 6.9
317(10) 0.00971 306.3 6.9
297(9) 0.01091 306.3 6.8
295(9) 0.01137 306.3 6.8
309(9) 0.01057 306.4 6.8
333(10) 0.00921 306.4 6.8
308(10) 0.01002 306.4 6.7
299(9) 0.01081 306.4 6.7
297(9) 0.01120 306.4 6.7
301(9) 0.01048 306.4 6.6
311(10) 0.00959 306.5 6.6
290(9) 0.01097 306.5 6.6
317(9) 0.01045 306.5 6.5
329(9) 0.01020 306.5 6.5
311(9) 0.01033 306.5 6.5
330(10) 0.00895 306.6 6.4
322(10) 0.00994 306.6 6.4
307(9) 0.01085 306.6 6.4
299(9) 0.01133 306.6 6.3
306(9) 0.01044 306.6 6.3
330(10) 0.00932 306.6 6.3
312(9) 0.01030 306.6 6.2
294(9) 0.01101 306.5 6.2
302(9) 0.01106 306.5 6.2
293(9) 0.01094 306.5 6.1
281(9) 0.01042 306.5 6.1
305(9) 0.01050 306.5 6.1
295(9) 0.01131 306.5 6.0
298(9) 0.01095 306.5 6.0
301(9) 0.01030 306.5 6.0
316(10) 0.00935 306.5 6.0
307(9) 0.01045 306.5 5.9
287(9) 0.01164 306.4 5.9
306(9) 0.01074 306.4 5.9
317(10) 0.01000 306.4 5.8
339(10) 0.00858 306.4 5.8
298(9) 0.01015 306.4 5.8
313(9) 0.01057 306.4 5.7
305(9) 0.01104 306.4 5.7
315(9) 0.01012 306.4 5.7
317(10) 0.00963 306.4 5.6
314(10) 0.00995 306.4 5.6
314(9) 0.01074 306.4 5.6
316(9) 0.01031 306.3 5.5
308(9) 0.01011 306.3 5.5
288(9) 0.01075 306.3 5.5
314(10) 0.00969 306.3 5.5
280(9) 0.01181 306.3 5.4
299(9) 0.01058 306.3 5.4
302(9) 0.01024 306.3 5.4
317(10) 0.00978 306.3 5.4
299(9) 0.01073 306.3 5.3
275(9) 0.01212 306.3 5.3
328(10) 0.00969 306.2 5.3
313(9) 0.01013 306.2 5.3
308(9) 0.01029 306.2 5.3
289(9) 0.01112 306.2 5.2
311(9) 0.01078 306.2 5.2
300(9) 0.01044 306.2 5.2
311(10) 0.00965 306.2 5.2
309(9) 0.01039 306.2 5.2
294(9) 0.01129 306.2 5.2
301(9) 0.01099 306.2 5.2
316(10) 0.00995 306.2 5.2
304(9) 0.01014 306.1 5.2
305(9) 0.01011 306.1 5.2
297(9) 0.01102 306.1 5.2
296(9) 0.01113 306.1 5.2
288(9) 0.01052 306.1 5.2
300(10) 0.00982 306.1 5.2
294(9) 0.01094 306.1 5.3
306(9) 0.01066 306.1 5.3
304(9) 0.01094 306.1 5.3
312(9) 0.01029 306.1 5.3
295(10) 0.01007 306.0 5.4
296(9) 0.01057 306.0 5.4
310(9) 0.01065 306.0 5.4
315(9) 0.01088 306.0 5.5
278(9) 0.01168 306.0 5.5
294(10) 0.00994 306.0 5.6
304(9) 0.01042 306.0 5.6
314(9) 0.01052 306.0 5.7
325(9) 0.01013 306.0 5.7
315(10) 0.00986 306.0 5.8
290(9) 0.01031 305.9 5.8
324(10) 0.00975 305.9 5.9
314(9) 0.01080 305.9 6.0
287(9) 0.01162 305.9 6.1
302(9) 0.01053 305.9 6.2
324(10) 0.00947 305.9 6.2
317(10) 0.01005 305.9 6.3
292(9) 0.01143 305.9 6.5
336(10) 0.00968 305.9 6.6
321(10) 0.00994 305.9 6.7
333(10) 0.00907 305.9 6.8
305(9) 0.01039 305.8 7.0
306(9) 0.01106 305.8 7.1
301(9) 0.01059 305.8 7.3
309(10) 0.01001 305.8 7.4
330(10) 0.00962 305.8 7.6
310(9) 0.01048 305.8 7.8
292(9) 0.01140 305.8 8.0
316(9) 0.01017 305.8 8.3
327(10) 0.00968 305.8 8.5
326(10) 0.00964 305.8 8.8
328(10) 0.01003 305.7 9.1
304(9) 0.01110 305.7 9.4
314(9) 0.01032 305.7 9.8
312(10) 0.00998 305.7 10.1
295(9) 0.01085 305.7 10.5
303(9) 0.01058 305.7 10.9
304(9) 0.01106 305.7 11.4
292(9) 0.01097 305.7 11.8
319(10) 0.00958 305.7 12.3
296(9) 0.01057 305.7 12.7
308(9) 0.01056 305.7 13.2
312(9) 0.01077 305.6 13.6
297(9) 0.01087 305.6 14.0
301(9) 0.01036 305.6 14.4
296(9) 0.01097 305.6 14.7
294(9) 0.01114 305.6 14.9
293(9) 0.01150 305.6 15.1
296(9) 0.01061 305.6 15.2
319(10) 0.00923 305.6 15.2
317(10) 0.00987 305.6 15.1
307(9) 0.01086 305.6 14.9
311(9) 0.01068 305.5 14.7
311(10) 0.00978 305.5 14.4
302(10) 0.00981 305.5 14.0
316(10) 0.00968 305.5 13.7
288(9) 0.01159 305.5 13.3
317(9) 0.01055 305.5 12.9
323(10) 0.00974 305.5 12.5
344(10) 0.00861 305.5 12.1
345(10) 0.00910 305.5 11.8
332(9) 0.01016 305.5 11.4
324(9) 0.01037 305.4 11.1
316(10) 0.00991 305.4 10.8
297(9) 0.01028 305.4 10.5
320(10) 0.00991 305.4 10.3
295(9) 0.01125 305.4 10.1
319(9) 0.01024 305.4 9.9
308(9) 0.01040 305.4 9.7
306(10) 0.00996 305.4 9.6
321(10) 0.00980 305.4 9.4
306(9) 0.01085 305.4 9.3
306(9) 0.01080 305.4 9.2
331(10) 0.00934 305.3 9.1
300(9) 0.01039 305.3 9.1
323(10) 0.00964 305.3 9.0
307(9) 0.01090 305.3 9.0
307(9) 0.01055 305.3 9.0
304(9) 0.01048 305.3 9.0
336(10) 0.00945 305.3 9.0
292(9) 0.01125 305.3 9.0
328(9) 0.01026 305.3 9.0
337(10) 0.00976 305.3 9.0
333(10) 0.00978 305.2 9.0
325(10) 0.00975 305.2 9.1
322(9) 0.01034 305.2 9.1
314(9) 0.01072 305.2 9.2
313(10) 0.00997 305.2 9.2
290(9) 0.01041 305.2 9.3
325(10) 0.00931 305.2 9.4
328(10) 0.01002 305.2 9.5
343(10) 0.00975 305.2 9.6
332(10) 0.00963 305.2 9.7
294(9) 0.01040 305.2 9.8
320(10) 0.00983 305.1 9.9
308(9) 0.01074 305.1 10.1
310(9) 0.01080 305.1 10.3
328(10) 0.00929 305.1 10.5
308(10) 0.00960 305.1 10.7
296(9) 0.01056 305.1 11.0
288(9) 0.01166 305.1 11.3
313(9) 0.01071 305.1 11.6
329(10) 0.00996 305.1 12.0
324(10) 0.00915 305.1 12.4
327(10) 0.00973 305.0 12.9
317(9) 0.01053 305.0 13.4
323(9) 0.01025 305.0 13.9
324(10) 0.00958 305.0 14.6
308(10) 0.00977 305.0 15.3
320(10) 0.00989 305.0 16.0
307(9) 0.01091 305.0 16.9
322(9) 0.01026 305.0 17.8
319(10) 0.00995 305.0 18.7
339(10) 0.00867 305.0 19.7
324(10) 0.00965 305.0 20.8
339(10) 0.01000 304.9 21.9
340(10) 0.00969 304.9 22.9
341(10) 0.00953 304.9 23.9
350(10) 0.00854 304.9 24.8
323(10) 0.00996 304.9 25.6
321(9) 0.01060 304.9 26.2
348(10) 0.00954 304.9 26.6
328(10) 0.00952 304.9 26.8
340(10) 0.00938 304.9 26.7
368(10) 0.00851 304.9 26.3
345(10) 0.00985 304.8 25.8
316(9) 0.01023 304.8 25.0
341(10) 0.00929 304.8 24.1
350(10) 0.00915 304.8 23.0
330(10) 0.00964 304.8 21.9
318(9) 0.01053 304.8 20.8
312(9) 0.01009 304.8 19.7
355(10) 0.00845 304.8 18.5
312(9) 0.01036 304.8 17.5
313(9) 0.01047 304.8 16.5
308(9) 0.01081 304.7 15.5
316(9) 0.01030 304.7 14.7
317(10) 0.00997 304.7 13.9
342(10) 0.00921 304.7 13.1
311(9) 0.01064 304.7 12.4
316(9) 0.01053 304.7 11.8
313(10) 0.00987 304.7 11.3
289(10) 0.01007 304.7 10.8
288(9) 0.01082 304.7 10.3
301(9) 0.01089 304.7 9.9
311(9) 0.01069 304.7 9.5
301(9) 0.01088 304.6 9.2
300(9) 0.01035 304.6 8.9
310(10) 0.01001 304.6 8.6
303(9) 0.01104 304.6 8.4
321(9) 0.01060 304.6 8.2
313(9) 0.01014 304.6 8.0
311(10) 0.00961 304.6 7.8
314(10) 0.00979 304.6 7.7
293(9) 0.01116 304.6 7.6
277(9) 0.01186 304.6 7.5
299(9) 0.01031 304.5 7.4
331(10) 0.00867 304.5 7.3
314(10) 0.01007 304.5 7.3
332(9) 0.01021 304.5 7.2
305(9) 0.01082 304.5 7.2
307(10) 0.01006 304.5 7.1
301(10) 0.01002 304.5 7.1
304(10) 0.00995 304.5 7.1
307(9) 0.01087 304.5 7.0
306(9) 0.01081 304.5 7.0
314(10) 0.00982 304.5 7.0
310(10) 0.00991 304.4 6.9
312(10) 0.00977 304.4 6.9
308(9) 0.01092 304.4 6.8
295(9) 0.01106 304.4 6.8
311(9) 0.01030 304.4 6.7
305(9) 0.01013 304.4 6.7
324(10) 0.00987 304.4 6.6
301(9) 0.01102 304.4 6.5
284(9) 0.01136 304.4 6.4
311(10) 0.00958 304.4 6.4
292(9) 0.01061 304.3 6.3
305(9) 0.01054 304.3 6.2
288(9) 0.01168 304.3 6.1
314(9) 0.01032 304.3 6.0
282(9) 0.01079 304.3 5.9
282(9) 0.01104 304.3 5.8
319(9) 0.01020 304.3 5.7
321(9) 0.01066 304.3 5.6
324(10) 0.00975 304.3 5.5
296(9) 0.01071 304.3 5.4
299(9) 0.01032 304.2 5.4
288(9) 0.01126 304.2 5.3
304(9) 0.01097 304.2 5.2
308(10) 0.01007 304.2 5.1
299(9) 0.01041 304.2 5.1
309(9) 0.01036 304.2 5.0
291(9) 0.01131 304.2 5.0
315(9) 0.01060 304.2 4.9
291(9) 0.01061 304.2 4.9
285(9) 0.01032 304.2 4.9
297(9) 0.01067 304.2 4.8
279(9) 0.01208 304.1 4.8
300(9) 0.01094 304.1 4.8
306(9) 0.01059 304.1 4.8
319(10) 0.00934 304.1 4.8
285(9) 0.01128 304.1 4.7
318(9) 0.01052 304.1 4.7
270(9) 0.01204 304.1 4.7
328(10) 0.00942 304.1 4.7
285(9) 0.01044 304.1 4.7
321(10) 0.00969 304.1 4.8
311(9) 0.01084 304.0 4.8
342(10) 0.00990 304.0 4.8
322(10) 0.00997 304.0 4.8
317(10) 0.00927 304.0 4.8
315(10) 0.00980 304.0 4.9
287(9) 0.01163 304.0 4.9
282(9) 0.01169 304.0 5.0
306(9) 0.01035 304.0 5.0
315(10) 0.00955 304.0 5.1
305(9) 0.01030 304.0 5.1
312(9) 0.01077 304.0 5.2
313(9) 0.01041 303.9 5.2
299(9) 0.01020 303.9 5.3
308(10) 0.00996 303.9 5.4
313(10) 0.00997 303.9 5.5
293(9) 0.01137 303.9 5.6
290(9) 0.01130 303.9 5.7
292(9) 0.01100 303.9 5.8
305(9) 0.01012 303.9 6.0
296(9) 0.01060 303.9 6.1
294(9) 0.01134 303.9 6.3
285(9) 0.01131 303.8 6.5
303(9) 0.01016 303.8 6.7
311(10) 0.01006 303.8 6.9
357(10) 0.00888 303.8 7.2
357(10) 0.00952 303.8 7.5
324(10) 0.00990 303.8 7.8
309(10) 0.01007 303.8 8.2
310(10) 0.01003 303.8 8.6
304(9) 0.01079 303.8 9.1
314(9) 0.01059 303.8 9.6
333(10) 0.00926 303.8 10.2
329(10) 0.00925 303.7 10.9
311(9) 0.01020 303.7 11.6
315(9) 0.01049 303.7 12.4
311(9) 0.01072 303.7 13.2
322(10) 0.00994 303.7 14.0
336(10) 0.00900 303.7 14.8
316(9) 0.01020 303.7 15.5
304(9) 0.01071 303.7 16.1
328(9) 0.01031 303.7 16.5
339(10) 0.00920 303.7 16.7
328(10) 0.00916 303.6 16.7
299(9) 0.01067 303.6 16.5
308(9) 0.01098 303.6 16.1
316(9) 0.01047 303.6 15.7
308(9) 0.01032 303.6 15.2
350(10) 0.00850 303.6 14.7
320(9) 0.01020 303.6 14.3
341(10) 0.00969 303.6 13.9
331(10) 0.00987 303.6 13.6
323(10) 0.00983 303.6 13.4
330(10) 0.00894 303.5 13.3
332(10) 0.00954 303.5 13.2
336(10) 0.01002 303.5 13.1
326(9) 0.01022 303.5 13.2
298(9) 0.01094 303.5 13.2
315(10) 0.00971 303.5 13.4
304(9) 0.01055 303.5 13.5
309(9) 0.01079 303.5 13.7
310(9) 0.01073 303.5 14.0
320(10) 0.00994 303.5 14.3
322(10) 0.00911 303.5 14.5
317(10) 0.00964 303.4 14.9
307(9) 0.01072 303.4 15.2
302(9) 0.01100 303.4 15.5
328(10) 0.00922 303.4 15.8
290(9) 0.01097 303.4 16.2
307(9) 0.01009 303.4 16.5
309(9) 0.01083 303.4 16.8
319(10) 0.00985 303.4 17.0
321(10) 0.00982 303.4 17.3
347(10) 0.00902 303.4 17.5
327(10) 0.00986 303.3 17.7
316(9) 0.01066 303.3 17.8
293(9) 0.01050 303.3 18.0
297(9) 0.01051 303.3 18.0
329(10) 0.00963 303.3 18.1
330(10) 0.00969 303.3 18.1
314(9) 0.01062 303.3 18.1
318(9) 0.01022 303.3 18.0
338(10) 0.00906 303.3 17.9
328(10) 0.00995 303.3 17.8
349(10) 0.00928 303.3 17.7
332(9) 0.01012 303.2 17.6
322(10) 0.00969 303.2 17.5
330(10) 0.00928 303.2 17.4
311(9) 0.01028 303.2 17.3
333(10) 0.00998 303.2 17.2
326(9) 0.01031 303.2 17.1
336(10) 0.00953 303.2 17.0
303(9) 0.01008 303.2 17.0
323(10) 0.00985 303.2 16.9
313(9) 0.01061 303.2 16.9
331(9) 0.01011 303.1 16.9
301(9) 0.01038 303.1 16.9
333(10) 0.00902 303.1 16.9
347(10) 0.00921 303.1 17.0
335(9) 0.01013 303.1 17.1
334(10) 0.01001 303.1 17.2
311(9) 0.01038 303.1 17.4
336(10) 0.00902 303.1 17.6
318(9) 0.01026 303.1 17.8
331(9) 0.01017 303.1 18.1
312(9) 0.01088 303.0 18.4
299(9) 0.01054 303.0 18.8
331(10) 0.00871 303.0 19.3
315(10) 0.00975 303.0 19.8
330(9) 0.01032 303.0 20.3
307(9) 0.01059 303.0 20.9
317(10) 0.00986 303.0 21.6
330(10) 0.00932 303.0 22.3
312(9) 0.01030 303.0 23.0
307(9) 0.01087 303.0 23.7
359(10) 0.00916 303.0 24.4
308(9) 0.01041 302.9 25.1
317(10) 0.00962 302.9 25.6
340(10) 0.00930 302.9 26.0
332(9) 0.01014 302.9 26.2
327(10) 0.01007 302.9 26.2
351(10) 0.00880 302.9 26.0
325(10) 0.00967 302.9 25.5
304(9) 0.01071 302.9 24.9
330(9) 0.01026 302.9 24.1
317(10) 0.00996 302.9 23.2
332(10) 0.00937 302.8 22.2
333(10) 0.00913 302.8 21.2
344(10) 0.00925 302.8 20.2
342(10) 0.00985 302.8 19.2
326(10) 0.00998 302.8 18.3
328(10) 0.00931 302.8 17.4
296(9) 0.01052 302.8 16.6
308(9) 0.01050 302.8 15.8
289(9) 0.01151 302.8 15.1
319(10) 0.00976 302.8 14.4
295(9) 0.01016 302.8 13.8
302(9) 0.01044 302.7 13.3
316(9) 0.01067 302.7 12.8
321(9) 0.01051 302.7 12.4
349(10) 0.00915 302.7 12.0
303(9) 0.01038 302.7 11.6
333(10) 0.00961 302.7 11.3
294(9) 0.01138 302.7 11.0
291(9) 0.01151 302.7 10.8
312(10) 0.00998 302.7 10.5
322(10) 0.00933 302.7 10.4
317(10) 0.01000 302.6 10.2
322(9) 0.01045 302.6 10.1
308(9) 0.01106 302.6 10.0
329(10) 0.00931 302.6 9.9
322(10) 0.00927 302.6 9.8
313(9) 0.01020 302.6 9.8
316(9) 0.01062 302.6 9.8
321(9) 0.01039 302.6 9.8
314(10) 0.00989 302.6 9.9
309(10) 0.00969 302.6 10.0
325(10) 0.00967 302.6 10.1
323(9) 0.01038 302.5 10.2
345(10) 0.00971 302.5 10.4
317(10) 0.01001 302.5 10.7
322(10) 0.00943 302.5 10.9
338(10) 0.00919 302.5 11.3
322(9) 0.01044 302.5 11.6
324(10) 0.01004 302.5 12.1
308(9) 0.01036 302.5 12.6
308(9) 0.01009 302.5 13.1
328(10) 0.00937 302.5 13.7
329(9) 0.01017 302.4 14.4
349(10) 0.00945 302.4 15.2
315(10) 0.00978 302.4 16.1
295(9) 0.01073 302.4 17.0
314(9) 0.01026 302.4 17.9
314(9) 0.01077 302.4 18.9
330(10) 0.00995 302.4 20.0
341(10) 0.00901 302.4 21.0
308(9) 0.01062 302.4 21.9
312(9) 0.01042 302.4 22.7
317(9) 0.01052 302.3 23.3
318(10) 0.00964 302.3 23.7
318(10) 0.00978 302.3 23.8
313(9) 0.01028 302.3 23.7
317(9) 0.01027 302.3 23.2
317(9) 0.01056 302.3 22.6
318(10) 0.01000 302.3 21.8
326(10) 0.00938 302.3 20.8
293(9) 0.01081 302.3 19.8
316(9) 0.01025 302.3 18.8
311(9) 0.01088 302.3 17.7
317(10) 0.00986 302.2 16.7
322(10) 0.00932 302.2 15.8
309(9) 0.01014 302.2 14.9
316(9) 0.01053 302.2 14.1
321(9) 0.01054 302.2 13.4
327(10) 0.00971 302.2 12.7
300(10) 0.01000 302.2 12.1
326(10) 0.00970 302.2 11.6
292(9) 0.01143 302.2 11.1
291(9) 0.01142 302.2 10.7
307(9) 0.01030 302.1 10.4
305(10) 0.00945 302.1 10.1
310(9) 0.01021 302.1 9.8
291(9) 0.01158 302.1 9.6
318(9) 0.01043 302.1 9.4
316(10) 0.00993 302.1 9.3
304(10) 0.00978 302.1 9.2
294(9) 0.01090 302.1 9.2
317(9) 0.01065 302.1 9.2
304(9) 0.01088 302.1 9.3
302(9) 0.01027 302.1 9.4
311(10) 0.00959 302.0 9.5
299(9) 0.01041 302.0 9.8
299(9) 0.01114 302.0 10.1
309(9) 0.01074 302.0 10.5
312(9) 0.01029 302.0 11.1
327(10) 0.00911 302.0 11.7
312(10) 0.00994 302.0 12.4
314(9) 0.01078 302.0 13.3
321(9) 0.01012 302.0 14.3
321(10) 0.00987 302.0 15.4
319(10) 0.00975 301.9 16.4
311(9) 0.01020 301.9 17.4
327(9) 0.01031 301.9 18.1
306(9) 0.01066 301.9 18.5
332(10) 0.00918 301.9 18.5
313(9) 0.01010 301.9 18.0
325(9) 0.01011 301.9 17.3
320(9) 0.01053 301.9 16.3
295(9) 0.01088 301.9 15.4
307(10) 0.01004 301.9 14.4
321(10) 0.00963 301.8 13.6
333(10) 0.00980 301.8 12.8
332(9) 0.01012 301.8 12.2
302(9) 0.01030 301.8 11.7
301(10) 0.01007 301.8 11.3
305(9) 0.01036 301.8 11.0
281(9) 0.01147 301.8 10.8
311(9) 0.01071 301.8 10.6
301(9) 0.01021 301.8 10.5
305(10) 0.01001 301.8 10.4
322(10) 0.00953 301.8 10.4
333(9) 0.01016 301.7 10.4
307(9) 0.01098 301.7 10.5
318(10) 0.00979 301.7 10.5
295(9) 0.01084 301.7 10.6
340(10) 0.00926 301.7 10.7
331(9) 0.01025 301.7 10.9
320(9) 0.01052 301.7 11.0
285(9) 0.01126 301.7 11.2
291(9) 0.01020 301.7 11.4
302(9) 0.01056 301.7 11.5
297(9) 0.01123 301.6 11.8
298(9) 0.01115 301.6 12.0
301(9) 0.01049 301.6 12.2
327(10) 0.00899 301.6 12.5
315(9) 0.01016 301.6 12.8
318(9) 0.01055 301.6 13.1
307(9) 0.01109 301.6 13.4
321(10) 0.00988 301.6 13.8
344(10) 0.00862 301.6 14.2
318(9) 0.01024 301.6 14.6
298(9) 0.01116 301.6 15.0
306(9) 0.01075 301.5 15.5
319(10) 0.01002 301.5 16.1
316(10) 0.01006 301.5 16.6
320(10) 0.00993 301.5 17.3
311(9) 0.01070 301.5 18.0
322(9) 0.01016 301.5 18.8
325(10) 0.00981 301.5 19.6
335(10) 0.00936 301.5 20.6
328(10) 0.00981 301.5 21.6
318(9) 0.01053 301.5 22.8
333(10) 0.00994 301.4 24.1
338(10) 0.00957 301.4 25.6
364(11) 0.00827 301.4 27.3
310(9) 0.01051 301.4 29.1
325(9) 0.01039 301.4 31.3
339(10) 0.00954 301.4 33.7
328(10) 0.00950 301.4 36.3
332(10) 0.00964 301.4 39.4
356(10) 0.00918 301.4 42.8
341(10) 0.00992 301.4 46.6
350(10) 0.00924 301.4 50.9
371(10) 0.00848 301.3 55.6
381(11) 0.00833 301.3 60.8
412(11) 0.00822 301.3 66.5
390(10) 0.00880 301.3 72.6
410(11) 0.00781 301.3 79.0
423(11) 0.00745 301.3 85.6
414(11) 0.00781 301.3 92.1
424(11) 0.00799 301.3 98.3
440(11) 0.00787 301.3 103.8
450(12) 0.00702 301.3 108.2
449(12) 0.00680 301.2 111.2
454(11) 0.00720 301.2 112.5
463(11) 0.00736 301.2 111.9
454(11) 0.00755 301.2 109.6
434(11) 0.00743 301.2 105.8
413(11) 0.00717 301.2 100.8
385(10) 0.00851 301.2 95.0
412(11) 0.00832 301.2 88.7
375(10) 0.00882 301.2 82.3
389(11) 0.00817 301.2 76.0
381(11) 0.00790 301.1 70.0
364(10) 0.00878 301.1 64.3
376(10) 0.00906 301.1 59.0
369(10) 0.00929 301.1 54.1
372(10) 0.00872 301.1 49.7
345(10) 0.00890 301.1 45.7
323(10) 0.01004 301.1 42.0
329(9) 0.01029 301.1 38.7
346(10) 0.00936 301.1 35.7
337(10) 0.00932 301.1 33.1
318(10) 0.00991 301.1 30.7
310(9) 0.01012 301.0 28.5
317(9) 0.01065 301.0 26.6
328(9) 0.01008 301.0 24.9
322(10) 0.00991 301.0 23.3
322(10) 0.00963 301.0 21.9
307(9) 0.01020 301.0 20.7
322(9) 0.01048 301.0 19.6
309(9) 0.01062 301.0 18.6
327(10) 0.00977 301.0 17.6
319(10) 0.00985 301.0 16.8
313(9) 0.01021 300.9 16.1
325(9) 0.01036 300.9 15.4
296(9) 0.01106 300.9 14.8
334(10) 0.00931 300.9 14.3
313(9) 0.01029 300.9 13.8
326(10) 0.00990 300.9 13.3
317(9) 0.01065 300.9 12.9
291(9) 0.01097 300.9 12.5
300(9) 0.01020 300.9 12.2
316(10) 0.00982 300.9 11.9
318(9) 0.01026 300.9 11.7
299(9) 0.01110 300.8 11.4
318(10) 0.00973 300.8 11.2
294(9) 0.01010 300.8 11.1
305(9) 0.01027 300.8 10.9
314(9) 0.01050 300.8 10.8
302(9) 0.01100 300.8 10.7
307(10) 0.01006 300.8 10.6
324(10) 0.00916 300.8 10.5
318(9) 0.01008 300.8 10.5
283(9) 0.01172 300.8 10.5
307(9) 0.01105 300.7 10.4
326(10) 0.00967 300.7 10.4
322(10) 0.00891 300.7 10.4
304(9) 0.01059 300.7 10.4
324(9) 0.01050 300.7 10.4
343(10) 0.00995 300.7 10.4
317(10) 0.00995 300.7 10.4
315(10) 0.00926 300.7 10.4
307(9) 0.01042 300.7 10.4
307(9) 0.01083 300.7 10.3
310(9) 0.01078 300.7 10.3
309(9) 0.01064 300.6 10.2
284(9) 0.01087 300.6 10.1
327(10) 0.00934 300.6 9.9
308(9) 0.01097 300.6 9.8
338(10) 0.00968 300.6 9.6
338(10) 0.00954 300.6 9.5
322(10) 0.00959 300.6 9.3
324(10) 0.00963 300.6 9.1
306(9) 0.01092 300.6 8.9
298(9) 0.01106 300.6 8.7
287(9) 0.01109 300.5 8.6
279(9) 0.01111 300.5 8.4
288(9) 0.01081 300.5 8.2
292(9) 0.01127 300.5 8.1
300(9) 0.01093 300.5 7.9
332(10) 0.00959 300.5 7.8
310(9) 0.01032 300.5 7.7
288(9) 0.01120 300.5 7.6
307(9) 0.01088 300.5 7.5
312(9) 0.01012 300.5 7.4
319(10) 0.01003 300.4 7.3
297(9) 0.01078 300.4 7.2
307(9) 0.01061 300.4 7.2
311(9) 0.01072 300.4 7.1
310(9) 0.01030 300.4 7.1
281(9) 0.01109 300.4 7.0
311(10) 0.00969 300.4 7.0
303(9) 0.01075 300.4 7.0
305(9) 0.01098 300.4 7.0
321(10) 0.00974 300.4 7.0
309(9) 0.01018 300.4 7.0
303(9) 0.01025 300.3 7.0
298(9) 0.01084 300.3 7.0
295(9) 0.01136 300.3 7.0
313(10) 0.00944 300.3 7.0
298(10) 0.00987 300.3 7.0
302(9) 0.01013 300.3 7.1
323(9) 0.01027 300.3 7.1
317(9) 0.01070 300.3 7.2
315(9) 0.01036 300.3 7.2
334(10) 0.00886 300.3 7.3
298(9) 0.01031 300.2 7.3
316(9) 0.01056 300.2 7.4
296(9) 0.01127 300.2 7.5
310(10) 0.00975 300.2 7.6
275(9) 0.01039 300.2 7.6
306(10) 0.00983 300.2 7.7
311(9) 0.01066 300.2 7.8
291(9) 0.01150 300.2 7.9
293(9) 0.01083 300.2 8.0
303(10) 0.00961 300.2 8.0
307(9) 0.01044 300.2 8.1
312(9) 0.01077 300.1 8.2
325(9) 0.01024 300.1 8.3
288(9) 0.01128 300.1 8.3
314(10) 0.00946 300.1 8.4
308(9) 0.01020 300.1 8.5
317(9) 0.01078 300.1 8.5
299(9) 0.01075 300.1 8.6
328(10) 0.00960 300.1 8.6
321(10) 0.00944 300.1 8.7
308(10) 0.00999 300.1 8.7
309(9) 0.01093 300.0 8.7
282(9) 0.01161 300.0 8.8
305(9) 0.01041 300.0 8.8
312(9) 0.01025 300.0 8.8
305(9) 0.01077 300.0 8.9
303(9) 0.01101 300.0 8.9
299(9) 0.01070 300.0 8.9
317(10) 0.01005 300.0 8.9
310(9) 0.01011 300.0 9.0
332(10) 0.00950 300.0 9.0
303(9) 0.01102 299.9 9.0
303(9) 0.01025 299.9 9.1
291(9) 0.01051 299.9 9.1
297(9) 0.01073 299.9 9.2
325(10) 0.01004 299.9 9.2
302(9) 0.01117 299.9 9.2
308(10) 0.01004 299.9 9.3
316(10) 0.00954 299.9 9.3
311(9) 0.01020 299.9 9.4
305(9) 0.01097 299.9 9.4
303(9) 0.01096 299.9 9.5
320(10) 0.00983 299.8 9.5
314(10) 0.00951 299.8 9.6
312(9) 0.01008 299.8 9.6
319(9) 0.01026 299.8 9.7
302(9) 0.01100 299.8 9.8
304(9) 0.01042 299.8 9.9
289(9) 0.01046 299.8 9.9
321(10) 0.00980 299.8 10.0
294(9) 0.01094 299.8 10.1
313(9) 0.01073 299.8 10.2
310(9) 0.01029 299.7 10.3
324(10) 0.00901 299.7 10.4
301(9) 0.01070 299.7 10.5
325(9) 0.01038 299.7 10.7
317(9) 0.01077 299.7 10.8
313(10) 0.00984 299.7 10.9
317(10) 0.00940 299.7 11.1
312(10) 0.01005 299.7 11.3
330(9) 0.01008 299.7 11.4
303(9) 0.01103 299.7 11.6
313(9) 0.01009 299.7 11.8
311(10) 0.00961 299.6 12.1
330(10) 0.00970 299.6 12.3
340(10) 0.00990 299.6 12.5
323(9) 0.01019 299.6 12.8
323(10) 0.00986 299.6 13.1
335(10) 0.00947 299.6 13.3
330(10) 0.00978 299.6 13.6
321(9) 0.01044 299.6 14.0
313(9) 0.01054 299.6 14.3
328(10) 0.00968 299.6 14.7
305(9) 0.01020 299.5 15.1
320(10) 0.00981 299.5 15.5
334(9) 0.01016 299.5 15.9
315(9) 0.01034 299.5 16.4
327(10) 0.00972 299.5 16.9
328(10) 0.00981 299.5 17.4
319(10) 0.00985 299.5 17.9
332(9) 0.01015 299.5 18.5
340(10) 0.00941 299.5 19.1
326(10) 0.00944 299.5 19.7
309(9) 0.01040 299.5 20.4
325(9) 0.01023 299.4 21.1
340(10) 0.00992 299.4 21.9
339(10) 0.00960 299.4 22.7
347(10) 0.00921 299.4 23.6
336(10) 0.00962 299.4 24.4
321(9) 0.01021 299.4 25.4
330(9) 0.01011 299.4 26.3
334(10) 0.00965 299.4 27.4
330(10) 0.00937 299.4 28.4
293(9) 0.01068 299.4 29.6
326(10) 0.00992 299.3 30.7
360(10) 0.00942 299.3 31.9
331(10) 0.00977 299.3 33.2
345(10) 0.00858 299.3 34.5
334(10) 0.00919 299.3 35.8
344(10) 0.00972 299.3 37.1
348(10) 0.00979 299.3 38.5
368(10) 0.00919 299.3 39.8
354(11) 0.00834 299.3 41.2
367(10) 0.00877 299.3 42.5
372(10) 0.00913 299.2 43.8
364(10) 0.00940 299.2 45.0
362(10) 0.00879 299.2 46.2
365(11) 0.00802 299.2 47.3
361(10) 0.00875 299.2 48.3
363(10) 0.00936 299.2 49.3
355(10) 0.00955 299.2 50.1
380(11) 0.00817 299.2 50.8
377(11) 0.00783 299.2 51.5
387(11) 0.00820 299.2 52.0
381(10) 0.00898 299.2 52.4
364(10) 0.00921 299.1 52.7
400(11) 0.00812 299.1 53.0
352(10) 0.00892 299.1 53.2
362(10) 0.00887 299.1 53.3
348(10) 0.00962 299.1 53.4
358(10) 0.00933 299.1 53.5
368(10) 0.00842 299.1 53.6
359(10) 0.00842 299.1 53.6
352(10) 0.00909 299.1 53.6
387(10) 0.00885 299.1 53.6
365(10) 0.00900 299.0 53.6
367(10) 0.00858 299.0 53.5
357(10) 0.00849 299.0 53.4
387(10) 0.00848 299.0 53.1
355(10) 0.00954 299.0 52.8
348(10) 0.00937 299.0 52.3
357(10) 0.00872 299.0 51.7
333(10) 0.00933 299.0 50.9
346(10) 0.00935 299.0 50.0
353(10) 0.00967 299.0 49.0
344(10) 0.00909 299.0 47.8
356(10) 0.00883 298.9 46.5
364(10) 0.00860 298.9 45.1
371(10) 0.00899 298.9 43.6
319(9) 0.01051 298.9 42.1
357(10) 0.00865 298.9 40.6
344(10) 0.00893 298.9 39.1
358(10) 0.00862 298.9 37.6
351(10) 0.00933 298.9 36.2
351(10) 0.00959 298.9 34.8
350(10) 0.00950 298.9 33.4
348(10) 0.00885 298.8 32.1
323(10) 0.00961 298.8 30.9
327(10) 0.01005 298.8 29.7
325(9) 0.01033 298.8 28.6
322(9) 0.01011 298.8 27.6
332(10) 0.00918 298.8 26.6
341(10) 0.00944 298.8 25.7
330(9) 0.01019 298.8 24.8
353(10) 0.00959 298.8 24.0
326(9) 0.01012 298.8 23.2
321(10) 0.00942 298.7 22.5
330(10) 0.00971 298.7 21.8
321(9) 0.01040 298.7 21.2
279(9) 0.01182 298.7 20.6
304(9) 0.01034 298.7 20.1
312(10) 0.00976 298.7 19.5
327(10) 0.00979 298.7 19.0
346(10) 0.00984 298.7 18.6
329(9) 0.01023 298.7 18.1
321(10) 0.00991 298.7 17.7
321(10) 0.00965 298.7 17.3
332(10) 0.00970 298.6 16.9
322(9) 0.01037 298.6 16.5
289(9) 0.01137 298.6 16.2
306(10) 0.01000 298.6 15.9
304(10) 0.00996 298.6 15.6
323(10) 0.00980 298.6 15.3
305(9) 0.01085 298.6 15.0
283(9) 0.01156 298.6 14.7
298(9) 0.01036 298.6 14.5
294(9) 0.01101 298.6 14.2
313(9) 0.01038 298.5 14.0
309(9) 0.01095 298.5 13.7
310(9) 0.01029 298.5 13.5
309(10) 0.00983 298.5 13.3
298(9) 0.01039 298.5 13.1
294(9) 0.01106 298.5 12.9
320(9) 0.01038 298.5 12.7
277(9) 0.01147 298.5 12.5
314(10) 0.00999 298.5 12.3
287(9) 0.01125 298.5 12.2
314(9) 0.01052 298.5 12.0
318(9) 0.01053 298.4 11.8
282(9) 0.01120 298.4 11.6
308(9) 0.01023 298.4 11.5
318(10) 0.00981 298.4 11.3
316(9) 0.01032 298.4 11.2
297(9) 0.01133 298.4 11.0
311(10) 0.00979 298.4 10.9
287(9) 0.01021 298.4 10.8
295(9) 0.01061 298.4 10.6
299(9) 0.01116 298.4 10.5
313(9) 0.01061 298.3 10.4
324(10) 0.00973 298.3 10.2
307(10) 0.00973 298.3 10.1
338(10) 0.00927 298.3 10.0
314(9) 0.01079 298.3 9.9
310(9) 0.01057 298.3 9.7
295(9) 0.01079 298.3 9.6
295(9) 0.01019 298.3 9.5
297(9) 0.01071 298.3 9.4
295(9) 0.01143 298.3 9.3
301(9) 0.01088 298.3 9.2
304(9) 0.01024 298.2 9.1
296(9) 0.01025 298.2 9.0
301(9) 0.01034 298.2 8.9
323(9) 0.01035 298.2 8.8
313(9) 0.01079 298.2 8.7
289(9) 0.01088 298.2 8.6
311(10) 0.00970 298.2 8.5
307(9) 0.01024 298.2 8.5
305(9) 0.01100 298.2 8.4
259(8) 0.01256 298.2 8.3
296(9) 0.01036 298.1 8.2
276(9) 0.01106 298.1 8.1
311(10) 0.01007 298.1 8.1
286(9) 0.01155 298.1 8.0
321(10) 0.00987 298.1 8.0
305(9) 0.01014 298.1 7.9
314(10) 0.00969 298.1 7.8
315(10) 0.00996 298.1 7.8
298(9) 0.01114 298.1 7.7
326(10) 0.00961 298.1 7.7
308(10) 0.01002 298.0 7.6
302(9) 0.01010 298.0 7.6
307(9) 0.01061 298.0 7.5
293(9) 0.01141 298.0 7.5
276(9) 0.01125 298.0 7.5
291(9) 0.01025 298.0 7.4
300(9) 0.01053 298.0 7.4
308(9) 0.01055 298.0 7.4
295(9) 0.01139 298.0 7.3
301(9) 0.01038 298.0 7.3
296(9) 0.01039 298.0 7.3
303(9) 0.01015 297.9 7.3
292(9) 0.01127 297.9 7.3
296(9) 0.01105 297.9 7.3
292(9) 0.01056 297.9 7.2
316(10) 0.00971 297.9 7.2
315(10) 0.01004 297.9 7.2
302(9) 0.01112 297.9 7.2
301(9) 0.01107 297.9 7.2
294(9) 0.01113 297.9 7.2
280(9) 0.01113 297.9 7.2
282(9) 0.01075 297.8 7.2
295(9) 0.01109 297.8 7.3
293(9) 0.01119 297.8 7.3
278(9) 0.01122 297.8 7.3
305(10) 0.00922 297.8 7.3
305(9) 0.01014 297.8 7.3
308(9) 0.01106 297.8 7.3
297(9) 0.01104 297.8 7.4
288(9) 0.01096 297.8 7.4
327(10) 0.00866 297.8 7.4
315(9) 0.01030 297.8 7.5
330(9) 0.01012 297.7 7.5
296(9) 0.01130 297.7 7.5
309(10) 0.00992 297.7 7.6
316(10) 0.00957 297.7 7.6
299(9) 0.01052 297.7 7.7
287(9) 0.01145 297.7 7.7
308(9) 0.01083 297.7 7.8
328(10) 0.00934 297.7 7.8
316(10) 0.00966 297.7 7.9
287(9) 0.01080 297.7 8.0
274(9) 0.01199 297.6 8.0
305(9) 0.01074 297.6 8.1
301(9) 0.01061 297.6 8.2
291(9) 0.01072 297.6 8.2
316(10) 0.00992 297.6 8.3
324(9) 0.01047 297.6 8.4
313(9) 0.01061 297.6 8.5
292(9) 0.01056 297.6 8.6
300(10) 0.01007 297.6 8.6
292(9) 0.01106 297.6 8.7
285(9) 0.01159 297.5 8.8
300(9) 0.01066 297.5 8.9
298(9) 0.01066 297.5 9.0
309(9) 0.01039 297.5 9.1
302(9) 0.01073 297.5 9.2
317(9) 0.01071 297.5 9.3
308(9) 0.01010 297.5 9.4
304(10) 0.00957 297.5 9.4
311(9) 0.01013 297.5 9.5
325(9) 0.01030 297.5 9.6
318(9) 0.01062 297.5 9.7
280(9) 0.01114 297.4 9.8
296(9) 0.01015 297.4 9.9
286(9) 0.01109 297.4 9.9
305(9) 0.01085 297.4 10.0
316(9) 0.01062 297.4 10.1
308(9) 0.01025 297.4 10.1
326(10) 0.00914 297.4 10.2
317(10) 0.01003 297.4 10.3
300(9) 0.01106 297.4 10.3
278(9) 0.01197 297.4 10.4
289(9) 0.01092 297.3 10.4
297(10) 0.01003 297.3 10.4
298(9) 0.01076 297.3 10.5
292(9) 0.01151 297.3 10.5
318(9) 0.01038 297.3 10.6
294(9) 0.01065 297.3 10.6
287(10) 0.00998 297.3 10.6
293(9) 0.01045 297.3 10.7
290(9) 0.01145 297.3 10.7
279(9) 0.01186 297.3 10.7
283(9) 0.01119 297.3 10.7
305(10) 0.00980 297.2 10.8
304(9) 0.01015 297.2 10.8
300(9) 0.01104 297.2 10.8
309(9) 0.01085 297.2 10.9
288(9) 0.01109 297.2 10.9
299(10) 0.01004 297.2 11.0
294(9) 0.01095 297.2 11.0
319(9) 0.01059 297.2 11.0
311(9) 0.01066 297.2 11.1
303(9) 0.01024 297.2 11.1
287(9) 0.01084 297.1 11.2
314(9) 0.01015 297.1 11.2
313(9) 0.01074 297.1 11.3
290(9) 0.01095 297.1 11.4
295(9) 0.01069 297.1 11.4
312(10) 0.00994 297.1 11.5
310(9) 0.01020 297.1 11.6
322(9) 0.01047 297.1 11.6
322(10) 0.00999 297.1 11.7
300(9) 0.01087 297.1 11.8
322(10) 0.00990 297.1 11.8
303(9) 0.01062 297.0 11.9
323(9) 0.01042 297.0 12.0
309(9) 0.01023 297.0 12.0
322(10) 0.00921 297.0 12.1
298(9) 0.01022 297.0 12.1
308(9) 0.01067 297.0 12.2
287(9) 0.01153 297.0 12.2
287(9) 0.01101 297.0 12.3
322(10) 0.00920 297.0 12.3
299(9) 0.01046 297.0 12.3
297(9) 0.01127 296.9 12.3
309(9) 0.01072 296.9 12.3
298(9) 0.01084 296.9 12.3
295(10) 0.00991 296.9 12.3
294(9) 0.01068 296.9 12.3
305(9) 0.01077 296.9 12.3
291(9) 0.01126 296.9 12.2
331(10) 0.00937 296.9 12.2
315(10) 0.00943 296.9 12.2
321(10) 0.01003 296.9 12.1
299(9) 0.01117 296.8 12.0
294(9) 0.01107 296.8 12.0
312(9) 0.01042 296.8 11.9
333(10) 0.00909 296.8 11.8
322(10) 0.00982 296.8 11.8
300(9) 0.01114 296.8 11.7
312(9) 0.01068 296.8 11.6
301(9) 0.01050 296.8 11.5
304(10) 0.01003 296.8 11.5
277(9) 0.01118 296.8 11.4
272(9) 0.01215 296.8 11.3
292(9) 0.01130 296.7 11.2
303(9) 0.01010 296.7 11.1
294(9) 0.01048 296.7 11.1
322(10) 0.00985 296.7 11.0
310(9) 0.01081 296.7 10.9
285(9) 0.01136 296.7 10.8
289(9) 0.01102 296.7 10.8
335(10) 0.00899 296.7 10.7
305(9) 0.01013 296.7 10.6
298(9) 0.01107 296.7 10.6
303(9) 0.01073 296.6 10.5
286(9) 0.01117 296.6 10.4
311(10) 0.00977 296.6 10.4
308(9) 0.01023 296.6 10.3
298(9) 0.01112 296.6 10.3
299(9) 0.01046 296.6 10.2
298(9) 0.01038 296.6 10.2
299(9) 0.01017 296.6 10.1
299(9) 0.01085 296.6 10.1
299(9) 0.01097 296.6 10.0
288(9) 0.01119 296.6 10.0
274(9) 0.01120 296.5 9.9
311(9) 0.01016 296.5 9.9
307(9) 0.01090 296.5 9.9
327(9) 0.01024 296.5 9.9
292(9) 0.01083 296.5 9.9
304(10) 0.00945 296.5 9.8
317(10) 0.00937 296.5 9.8
311(9) 0.01036 296.5 9.9
314(9) 0.01079 296.5 9.9
313(10) 0.00993 296.5 9.9
301(9) 0.01031 296.4 9.9
298(9) 0.01061 296.4 10.0
284(9) 0.01146 296.4 10.1
291(9) 0.01158 296.4 10.2
309(10) 0.01007 296.4 10.3
325(10) 0.00935 296.4 10.4
299(9) 0.01087 296.4 10.6
297(9) 0.01110 296.4 10.8
319(9) 0.01049 296.4 11.1
299(9) 0.01041 296.4 11.4
315(10) 0.00948 296.3 11.8
316(9) 0.01008 296.3 12.2
313(9) 0.01069 296.3 12.8
303(9) 0.01088 296.3 13.6
312(9) 0.01035 296.3 14.4
328(10) 0.00921 296.3 15.5
314(9) 0.01019 296.3 16.8
321(9) 0.01051 296.3 18.3
296(9) 0.01131 296.3 20.1
320(9) 0.01035 296.3 22.2
315(10) 0.00994 296.3 24.6
303(9) 0.01044 296.2 27.2
310(9) 0.01080 296.2 29.9
349(10) 0.00948 296.2 32.7
320(9) 0.01027 296.2 35.2
300(9) 0.01040 296.2 37.2
300(9) 0.01028 296.2 38.4
340(10) 0.01001 296.2 38.5
351(10) 0.00922 296.2 37.6
323(10) 0.00975 296.2 35.8
302(9) 0.01034 296.2 33.4
315(10) 0.00993 296.1 30.7
303(9) 0.01096 296.1 27.9
316(9) 0.01023 296.1 25.3
340(10) 0.00880 296.1 22.8
340(10) 0.00894 296.1 20.7
312(9) 0.01016 296.1 18.8
291(9) 0.01150 296.1 17.2
311(9) 0.01043 296.1 15.8
319(9) 0.01024 296.1 14.7
323(9) 0.01023 296.1 13.7
338(10) 0.00973 296.1 13.0
276(9) 0.01210 296.0 12.3
295(9) 0.01027 296.0 11.8
305(9) 0.01008 296.0 11.4
295(9) 0.01069 296.0 11.1
305(9) 0.01057 296.0 10.8
296(9) 0.01112 296.0 10.6
321(10) 0.00974 296.0 10.4
291(9) 0.01069 296.0 10.3
297(9) 0.01060 296.0 10.2
300(9) 0.01087 296.0 10.1
302(9) 0.01122 295.9 10.0
291(9) 0.01079 295.9 10.0
284(9) 0.01069 295.9 9.9
301(9) 0.01075 295.9 9.9
301(9) 0.01114 295.9 9.9
294(9) 0.01143 295.9 9.9
315(10) 0.00978 295.9 10.0
310(10) 0.00933 295.9 10.0
286(9) 0.01089 295.9 10.1
276(9) 0.01197 295.9 10.1
320(9) 0.01051 295.9 10.2
320(10) 0.00974 295.8 10.3
312(10) 0.00948 295.8 10.4
311(9) 0.01009 295.8 10.5
309(9) 0.01089 295.8 10.6
288(9) 0.01135 295.8 10.8
316(10) 0.01007 295.8 10.9
311(10) 0.00954 295.8 11.1
313(10) 0.00996 295.8 11.3
323(9) 0.01044 295.8 11.5
317(9) 0.01035 295.8 11.7
332(10) 0.00935 295.7 11.9
303(10) 0.00988 295.7 12.1
300(9) 0.01056 295.7 12.4
318(9) 0.01070 295.7 12.6
315(9) 0.01064 295.7 12.9
333(10) 0.00958 295.7 13.2
298(9) 0.01039 295.7 13.5
320(10) 0.00943 295.7 13.8
312(9) 0.01078 295.7 14.1
301(9) 0.01098 295.7 14.4
309(10) 0.00998 295.6 14.6
324(10) 0.00902 295.6 14.9
293(9) 0.01054 295.6 15.1
310(9) 0.01084 295.6 15.4
314(10) 0.00999 295.6 15.6
321(10) 0.00945 295.6 15.9
311(10) 0.01002 295.6 16.1
316(9) 0.01018 295.6 16.4
303(9) 0.01097 295.6 16.7
295(9) 0.01066 295.6 17.0
307(9) 0.01041 295.6 17.3
312(9) 0.01012 295.5 17.6
312(9) 0.01061 295.5 18.0
315(9) 0.01075 295.5 18.4
303(9) 0.01068 295.5 18.7
299(9) 0.01018 295.5 19.2
312(10) 0.00998 295.5 19.6
331(10) 0.00983 295.5 20.0
316(9) 0.01076 295.5 20.5
327(10) 0.00954 295.5 20.9
332(10) 0.00888 295.5 21.4
315(9) 0.01023 295.4 21.9
306(9) 0.01085 295.4 22.4
313(9) 0.01075 295.4 22.9
334(10) 0.00943 295.4 23.4
331(10) 0.00895 295.4 23.9
294(9) 0.01066 295.4 24.4
324(9) 0.01019 295.4 24.9
325(9) 0.01033 295.4 25.4
321(10) 0.01002 295.4 25.9
321(10) 0.00966 295.4 26.4
327(10) 0.00985 295.4 26.8
329(9) 0.01025 295.3 27.3
329(10) 0.01003 295.3 27.6
351(10) 0.00899 295.3 28.0
311(10) 0.00997 295.3 28.3
311(9) 0.01010 295.3 28.6
335(10) 0.01002 295.3 28.9
337(10) 0.00955 295.3 29.1
326(10) 0.00940 295.3 29.3
320(10) 0.00936 295.3 29.4
325(10) 0.00968 295.3 29.5
345(10) 0.00989 295.2 29.6
332(10) 0.00945 295.2 29.6
319(10) 0.00999 295.2 29.6
341(10) 0.00886 295.2 29.5
325(10) 0.00980 295.2 29.4
315(9) 0.01069 295.2 29.3
328(10) 0.00957 295.2 29.2
303(9) 0.01016 295.2 29.0
352(10) 0.00848 295.2 28.9
304(9) 0.01049 295.2 28.7
310(9) 0.01082 295.2 28.5
328(10) 0.00980 295.1 28.3
318(9) 0.01010 295.1 28.1
337(10) 0.00939 295.1 27.8
326(10) 0.00999 295.1 27.6
337(10) 0.01005 295.1 27.4
279(9) 0.01142 295.1 27.2
311(10) 0.01002 295.1 27.1
333(10) 0.00920 295.1 26.9
313(9) 0.01021 295.1 26.7
311(9) 0.01083 295.1 26.6
317(10) 0.00998 295.0 26.5
341(10) 0.00899 295.0 26.3
315(9) 0.01008 295.0 26.2
330(10) 0.00991 295.0 26.0
344(10) 0.00986 295.0 25.7
316(10) 0.00986 295.0 25.4
319(10) 0.00930 295.0 25.0
306(9) 0.01021 295.0 24.5
302(9) 0.01103 295.0 23.9
305(9) 0.01103 295.0 23.3
346(10) 0.00900 294.9 22.6
332(10) 0.00914 294.9 21.9
338(10) 0.00951 294.9 21.2
329(10) 0.01003 294.9 20.5
310(9) 0.01091 294.9 19.9
320(10) 0.00976 294.9 19.3
333(10) 0.00863 294.9 18.7
311(10) 0.00997 294.9 18.2
297(9) 0.01117 294.9 17.7
325(9) 0.01020 294.9 17.3
324(10) 0.00952 294.9 16.9
321(10) 0.00931 294.8 16.6
325(10) 0.00966 294.8 16.3
326(9) 0.01041 294.8 16.0
303(9) 0.01048 294.8 15.8
281(9) 0.01096 294.8 15.7
294(9) 0.01029 294.8 15.6
309(10) 0.00989 294.8 15.7
314(9) 0.01076 294.8 15.8
318(9) 0.01022 294.8 16.0
317(10) 0.00971 294.8 16.3
292(9) 0.01040 294.7 16.7
294(9) 0.01096 294.7 17.3
336(10) 0.01000 294.7 18.0
315(10) 0.01004 294.7 18.8
301(9) 0.01024 294.7 19.8
299(9) 0.01033 294.7 20.9
310(9) 0.01011 294.7 22.0
312(9) 0.01085 294.7 23.1
310(9) 0.01040 294.7 24.1
297(9) 0.01065 294.7 24.7
317(10) 0.01004 294.7 25.0
309(9) 0.01032 294.6 24.9
309(9) 0.01082 294.6 24.3
299(9) 0.01075 294.6 23.3
294(9) 0.01066 294.6 22.1
335(10) 0.00961 294.6 20.9
327(10) 0.00999 294.6 19.6
329(9) 0.01036 294.6 18.5
308(9) 0.01008 294.6 17.4
313(10) 0.00981 294.6 16.4
300(9) 0.01022 294.6 15.6
296(9) 0.01099 294.5 14.9
309(9) 0.01079 294.5 14.4
321(10) 0.00934 294.5 13.9
313(10) 0.00945 294.5 13.5
321(10) 0.00953 294.5 13.2
302(9) 0.01106 294.5 13.0
325(9) 0.01025 294.5 12.8
298(9) 0.01084 294.5 12.6
336(10) 0.00885 294.5 12.4
314(9) 0.01015 294.5 12.3
306(9) 0.01080 294.4 12.2
285(9) 0.01187 294.4 12.1
310(9) 0.01013 294.4 12.0
300(10) 0.01000 294.4 12.0
305(9) 0.01068 294.4 11.9
319(9) 0.01038 294.4 11.9
308(9) 0.01084 294.4 11.9
294(9) 0.01102 294.4 12.0
305(10) 0.00976 294.4 12.0
318(10) 0.00993 294.4 12.1
309(9) 0.01092 294.4 12.3
293(9) 0.01130 294.3 12.4
322(10) 0.00958 294.3 12.6
282(9) 0.01056 294.3 12.9
287(9) 0.01107 294.3 13.2
298(9) 0.01125 294.3 13.6
299(9) 0.01066 294.3 14.0
287(9) 0.01115 294.3 14.5
323(10) 0.00909 294.3 15.0
308(10) 0.00980 294.3 15.6
316(9) 0.01071 294.3 16.2
322(9) 0.01026 294.2 16.9
319(10) 0.00999 294.2 17.6
322(10) 0.00968 294.2 18.4
334(10) 0.00949 294.2 19.2
308(9) 0.01094 294.2 20.0
329(9) 0.01016 294.2 20.7
313(9) 0.01036 294.2 21.4
318(10) 0.00986 294.2 22.1
316(9) 0.01046 294.2 22.6
318(9) 0.01061 294.2 23.1
310(9) 0.01047 294.2 23.5
318(10) 0.00974 294.1 23.8
320(10) 0.00983 294.1 24.0
282(9) 0.01151 294.1 24.2
294(9) 0.01131 294.1 24.5
327(10) 0.00975 294.1 24.7
345(10) 0.00894 294.1 25.1
314(10) 0.01007 294.1 25.5
327(9) 0.01011 294.1 26.0
319(9) 0.01054 294.1 26.6
305(9) 0.01031 294.1 27.1
342(10) 0.00859 294.0 27.7
326(10) 0.00960 294.0 28.1
319(9) 0.01026 294.0 28.4
321(9) 0.01048 294.0 28.5
292(9) 0.01092 294.0 28.3
343(10) 0.00857 294.0 27.9
335(10) 0.00919 294.0 27.4
322(9) 0.01034 294.0 26.8
328(9) 0.01024 294.0 26.1
308(9) 0.01053 294.0 25.4
316(10) 0.00924 294.0 24.9
323(10) 0.01001 293.9 24.3
307(9) 0.01097 293.9 23.9
305(9) 0.01098 293.9 23.5
301(9) 0.01066 293.9 23.2
322(10) 0.00930 293.9 23.0
308(9) 0.01057 293.9 22.7
305(9) 0.01096 293.9 22.5
331(10) 0.00999 293.9 22.3
305(9) 0.01054 293.9 22.1
313(10) 0.00939 293.9 21.8
287(9) 0.01105 293.8 21.5
324(9) 0.01021 293.8 21.2
317(9) 0.01057 293.8 20.8
297(9) 0.01067 293.8 20.4
307(10) 0.00971 293.8 20.0
309(10) 0.00997 293.8 19.5
306(9) 0.01106 293.8 19.0
319(10) 0.00996 293.8 18.5
329(10) 0.00953 293.8 18.0
296(9) 0.01043 293.8 17.5
305(9) 0.01057 293.7 16.9
326(9) 0.01031 293.7 16.4
292(9) 0.01075 293.7 15.9
290(9) 0.01051 293.7 15.3
307(9) 0.01042 293.7 14.8
302(9) 0.01065 293.7 14.3
306(9) 0.01097 293.7 13.7
334(10) 0.00971 293.7 13.2
306(9) 0.01056 293.7 12.7
310(10) 0.01006 293.7 12.3
304(9) 0.01070 293.7 11.8
314(9) 0.01064 293.6 11.3
256(9) 0.01214 293.6 10.9
297(10) 0.01005 293.6 10.5
303(9) 0.01032 293.6 10.1
304(9) 0.01081 293.6 9.7
300(9) 0.01118 293.6 9.4
317(9) 0.01020 293.6 9.0
324(10) 0.00977 293.6 8.7
302(9) 0.01048 293.6 8.4
309(9) 0.01066 293.6 8.1
311(9) 0.01070 293.5 7.8
333(10) 0.00969 293.5 7.6
322(10) 0.00945 293.5 7.3
307(9) 0.01012 293.5 7.1
293(9) 0.01135 293.5 6.9
297(9) 0.01128 293.5 6.7
285(9) 0.01104 293.5 6.5
301(10) 0.00985 293.5 6.3
294(9) 0.01073 293.5 6.2
293(9) 0.01112 293.5 6.0
304(9) 0.01111 293.5 5.8
297(9) 0.01016 293.4 5.7
285(10) 0.01000 293.4 5.5
302(9) 0.01044 293.4 5.4
301(9) 0.01084 293.4 5.3
305(9) 0.01101 293.4 5.2
304(9) 0.01023 293.4 5.1
273(9) 0.01117 293.4 4.9
301(9) 0.01036 293.4 4.8
287(9) 0.01170 293.4 4.7
295(9) 0.01099 293.4 4.7
285(9) 0.01071 293.3 4.6
308(10) 0.01002 293.3 4.5
293(9) 0.01083 293.3 4.4
293(9) 0.01137 293.3 4.3
283(9) 0.01146 293.3 4.2
304(9) 0.01078 293.3 4.2
300(9) 0.01046 293.3 4.1
289(9) 0.01097 293.3 4.0
293(9) 0.01139 293.3 4.0
291(9) 0.01098 293.3 3.9
266(9) 0.01161 293.2 3.9
324(10) 0.00903 293.2 3.8
278(9) 0.01159 293.2 3.8
288(9) 0.01161 293.2 3.7
292(9) 0.01109 293.2 3.7
304(9) 0.01013 293.2 3.6
309(10) 0.00988 293.2 3.6
303(9) 0.01091 293.2 3.5
275(9) 0.01203 293.2 3.5
286(9) 0.01092 293.2 3.5
298(9) 0.01025 293.2 3.4
313(10) 0.00997 293.1 3.4
313(9) 0.01018 293.1 3.4
272(9) 0.01206 293.1 3.3
277(9) 0.01113 293.1 3.3
308(10) 0.00971 293.1 3.3
295(9) 0.01081 293.1 3.3
308(9) 0.01058 293.1 3.2
297(9) 0.01128 293.1 3.2
298(9) 0.01059 293.1 3.2
297(9) 0.01023 293.1 3.2
298(9) 0.01054 293.0 3.1
315(9) 0.01031 293.0 3.1
322(9) 0.01055 293.0 3.1
288(9) 0.01089 293.0 3.1
310(10) 0.00933 293.0 3.1
292(9) 0.01069 293.0 3.1
330(9) 0.01008 293.0 3.0
299(9) 0.01126 293.0 3.0
289(9) 0.01130 293.0 3.0
309(10) 0.00952 293.0 3.0
309(10) 0.01002 293.0 3.0
256(8) 0.01303 292.9 3.0
280(9) 0.01175 292.9 3.0
271(9) 0.01099 292.9 3.0
290(10) 0.00992 292.9 3.0
281(9) 0.01131 292.9 3.0
306(9) 0.01069 292.9 3.0
290(9) 0.01133 292.9 2.9
308(10) 0.01001 292.9 2.9
285(9) 0.01033 292.9 2.9
282(9) 0.01141 292.9 2.9
278(9) 0.01192 292.8 2.9
296(9) 0.01079 292.8 2.9
293(9) 0.01080 292.8 2.9
300(10) 0.00974 292.8 2.9
292(9) 0.01042 292.8 2.9
301(9) 0.01121 292.8 3.0
330(10) 0.00944 292.8 3.0
294(9) 0.01070 292.8 3.0
266(9) 0.01151 292.8 3.0
281(9) 0.01082 292.8 3.0
310(9) 0.01081 292.8 3.0
297(9) 0.01060 292.7 3.0
301(9) 0.01051 292.7 3.0
275(9) 0.01173 292.7 3.0
294(9) 0.01087 292.7 3.0
309(9) 0.01085 292.7 3.0
315(10) 0.00996 292.7 3.1
312(10) 0.00992 292.7 3.1
296(9) 0.01060 292.7 3.1
297(9) 0.01104 292.7 3.1
318(9) 0.01051 292.7 3.1
298(9) 0.01042 292.6 3.2
305(10) 0.00986 292.6 3.2
287(9) 0.01076 292.6 3.2
309(9) 0.01063 292.6 3.2
294(9) 0.01126 292.6 3.2
306(10) 0.00980 292.6 3.3
306(10) 0.00995 292.6 3.3
287(9) 0.01111 292.6 3.3
295(9) 0.01126 292.6 3.4
283(9) 0.01170 292.5 3.4
300(9) 0.01078 292.5 3.4
288(9) 0.01066 292.5 3.5
286(9) 0.01078 292.5 3.5
286(9) 0.01151 292.5 3.6
302(9) 0.01106 292.5 3.6
313(10) 0.00998 292.5 3.6
298(10) 0.00945 292.5 3.7
316(10) 0.00966 292.5 3.7
292(9) 0.01117 292.5 3.8
260(8) 0.01267 292.4 3.8
262(9) 0.01200 292.4 3.9
295(10) 0.00968 292.4 4.0
296(9) 0.01069 292.4 4.0
319(9) 0.01069 292.4 4.1
295(9) 0.01088 292.4 4.2
279(9) 0.01126 292.4 4.2
305(10) 0.00996 292.4 4.3
288(9) 0.01101 292.4 4.4
299(9) 0.01116 292.3 4.5
289(9) 0.01156 292.3 4.5
303(9) 0.01042 292.3 4.6
299(9) 0.01014 292.3 4.7
305(9) 0.01030 292.3 4.8
292(9) 0.01139 292.3 4.9
332(10) 0.00972 292.3 5.0
305(9) 0.01014 292.3 5.1
314(10) 0.00944 292.3 5.2
305(9) 0.01037 292.3 5.3
294(9) 0.01126 292.2 5.4
325(10) 0.00986 292.2 5.5
325(10) 0.00985 292.2 5.6
286(9) 0.01120 292.2 5.7
284(9) 0.01157 292.2 5.7
299(9) 0.01110 292.2 5.8
302(9) 0.01046 292.2 5.9
292(9) 0.01036 292.2 6.0
300(9) 0.01024 292.2 6.1
335(10) 0.00945 292.1 6.2
296(9) 0.01129 292.1 6.2
281(9) 0.01132 292.1 6.3
275(9) 0.01070 292.1 6.4
276(9) 0.01110 292.1 6.4
301(9) 0.01094 292.1 6.5
292(9) 0.01135 292.1 6.5
317(10) 0.00987 292.1 6.5
307(10) 0.00978 292.1 6.5
285(9) 0.01115 292.1 6.6
318(9) 0.01023 292.0 6.6
306(9) 0.01084 292.0 6.6
298(9) 0.01074 292.0 6.6
288(9) 0.01068 292.0 6.6
274(9) 0.01195 292.0 6.6
301(9) 0.01109 292.0 6.6
306(9) 0.01081 292.0 6.6
293(9) 0.01092 292.0 6.6
285(9) 0.01037 292.0 6.6
313(10) 0.00965 291.9 6.6
292(9) 0.01128 291.9 6.6
259(8) 0.01276 291.9 6.6
304(9) 0.01056 291.9 6.6
322(10) 0.00939 291.9 6.6
301(9) 0.01055 291.9 6.6
319(9) 0.01034 291.9 6.6
277(9) 0.01206 291.9 6.6
316(10) 0.00991 291.9 6.7
294(10) 0.01004 291.9 6.7
283(9) 0.01155 291.8 6.7
289(9) 0.01152 291.8 6.8
289(9) 0.01141 291.8 6.8
314(10) 0.01004 291.8 6.9
304(10) 0.00983 291.8 6.9
297(9) 0.01041 291.8 7.0
292(9) 0.01146 291.8 7.1
309(9) 0.01024 291.8 7.2
298(9) 0.01014 291.8 7.2
291(9) 0.01037 291.7 7.3
296(9) 0.01023 291.7 7.4
297(9) 0.01121 291.7 7.5
323(10) 0.00995 291.7 7.7
310(9) 0.01020 291.7 7.8
306(9) 0.01026 291.7 7.9
284(9) 0.01136 291.7 8.1
324(9) 0.01047 291.7 8.2
294(9) 0.01103 291.7 8.4
302(9) 0.01016 291.6 8.5
288(9) 0.01076 291.6 8.7
303(9) 0.01058 291.6 8.9
323(9) 0.01040 291.6 9.2
322(10) 0.00990 291.6 9.4
306(10) 0.00977 291.6 9.6
302(9) 0.01045 291.6 9.9
309(9) 0.01058 291.6 10.2
272(9) 0.01218 291.6 10.5
299(9) 0.01030 291.6 10.8
297(9) 0.01015 291.5 11.2
315(9) 0.01024 291.5 11.5
334(10) 0.01000 291.5 11.9
328(9) 0.01041 291.5 12.4
305(9) 0.01021 291.5 12.8
301(10) 0.00976 291.5 13.3
288(9) 0.01132 291.5 13.8
332(9) 0.01015 291.5 14.3
332(10) 0.01005 291.5 14.9
279(9) 0.01114 291.4 15.5
320(10) 0.00919 291.4 16.1
323(10) 0.00988 291.4 16.7
299(9) 0.01101 291.4 17.4
335(9) 0.01013 291.4 18.1
333(10) 0.00943 291.4 18.7
325(10) 0.00892 291.4 19.4
349(10) 0.00921 291.4 20.1
313(9) 0.01071 291.4 20.7
321(9) 0.01050 291.4 21.3
301(9) 0.01069 291.3 21.9
330(10) 0.00923 291.3 22.3
332(10) 0.00981 291.3 22.8
326(9) 0.01054 291.3 23.1
306(9) 0.01085 291.3 23.3
319(9) 0.01014 291.3 23.4
319(10) 0.00930 291.3 23.4
311(10) 0.00964 291.3 23.4
303(9) 0.01103 291.3 23.2
303(9) 0.01064 291.2 22.9
314(10) 0.00978 291.2 22.6
294(9) 0.01038 291.2 22.2
326(10) 0.00968 291.2 21.7
308(9) 0.01081 291.2 21.2
308(9) 0.01042 291.2 20.7
328(10) 0.00936 291.2 20.2
323(10) 0.00970 291.2 19.7
334(10) 0.00967 291.2 19.1
319(9) 0.01050 291.2 18.6
307(9) 0.01064 291.1 18.1
319(10) 0.00965 291.1 17.6
304(9) 0.01013 291.1 17.1
322(10) 0.00998 291.1 16.7
275(9) 0.01201 291.1 16.3
292(9) 0.01087 291.1 15.9
316(10) 0.00974 291.1 15.6
288(9) 0.01126 291.1 15.2
309(9) 0.01046 291.1 14.9
318(9) 0.01051 291.0 14.7
307(10) 0.00990 291.0 14.5
310(10) 0.00945 291.0 14.3
312(10) 0.00964 291.0 14.2
294(9) 0.01111 291.0 14.1
307(9) 0.01078 291.0 14.1
293(9) 0.01082 291.0 14.1
306(10) 0.00993 291.0 14.2
298(9) 0.01095 291.0 14.4
313(9) 0.01064 290.9 14.7
319(9) 0.01060 290.9 15.0
340(10) 0.00940 290.9 15.4
301(10) 0.00985 290.9 15.9
306(9) 0.01027 290.9 16.5
300(9) 0.01114 290.9 17.1
307(9) 0.01095 290.9 17.8
321(9) 0.01008 290.9 18.5
312(10) 0.00929 290.9 19.2
298(9) 0.01076 290.9 19.8
296(9) 0.01123 290.8 20.3
315(9) 0.01075 290.8 20.4
316(10) 0.00992 290.8 20.4
327(10) 0.00913 290.8 20.0
311(9) 0.01014 290.8 19.3
334(10) 0.01006 290.8 18.5
315(9) 0.01058 290.8 17.5
300(9) 0.01086 290.8 16.5
295(9) 0.01037 290.8 15.5
297(9) 0.01062 290.7 14.5
307(9) 0.01072 290.7 13.6
321(9) 0.01031 290.7 12.7
312(10) 0.01007 290.7 12.0
298(9) 0.01043 290.7 11.3
322(10) 0.01006 290.7 10.7
321(9) 0.01052 290.7 10.1
314(9) 0.01037 290.7 9.6
292(9) 0.01075 290.7 9.2
282(9) 0.01119 290.7 8.8
319(10) 0.00982 290.6 8.5
310(9) 0.01074 290.6 8.2
308(9) 0.01043 290.6 7.9
299(9) 0.01048 290.6 7.7
334(10) 0.00893 290.6 7.5
317(9) 0.01017 290.6 7.3
290(9) 0.01157 290.6 7.1
309(10) 0.00995 290.6 6.9
289(9) 0.01060 290.6 6.7
308(9) 0.01008 290.5 6.6
313(9) 0.01024 290.5 6.4
300(9) 0.01115 290.5 6.3
283(9) 0.01108 290.5 6.2
295(9) 0.01037 290.5 6.1
296(9) 0.01064 290.5 6.0
318(9) 0.01012 290.5 5.9
291(9) 0.01147 290.5 5.8
301(10) 0.01004 290.5 5.7
275(9) 0.01091 290.5 5.6
294(9) 0.01063 290.4 5.5
315(9) 0.01027 290.4 5.4
307(9) 0.01091 290.4 5.3
301(9) 0.01045 290.4 5.3
298(10) 0.00977 290.4 5.2
304(9) 0.01038 290.4 5.1
296(9) 0.01141 290.4 5.1
294(9) 0.01112 290.4 5.0
311(9) 0.01010 290.4 5.0
306(10) 0.00985 290.3 4.9
304(9) 0.01061 290.3 4.9
305(9) 0.01090 290.3 4.8
294(9) 0.01147 290.3 4.8
303(9) 0.01055 290.3 4.8
293(9) 0.01028 290.3 4.7
297(9) 0.01066 290.3 4.7
311(9) 0.01066 290.3 4.7
286(9) 0.01161 290.3 4.7
303(9) 0.01050 290.3 4.6
295(10) 0.00960 290.2 4.6
259(9) 0.01190 290.2 4.6
290(9) 0.01147 290.2 4.6
290(9) 0.01117 290.2 4.6
292(9) 0.01083 290.2 4.6
318(10) 0.00938 290.2 4.6
274(9) 0.01168 290.2 4.6
270(8) 0.01237 290.2 4.6
280(9) 0.01161 290.2 4.6
283(9) 0.01133 290.1 4.6
282(9) 0.01075 290.1 4.6
300(9) 0.01062 290.1 4.6
279(9) 0.01201 290.1 4.6
287(9) 0.01117 290.1 4.7
285(9) 0.01096 290.1 4.7
297(9) 0.01013 290.1 4.7
309(9) 0.01009 290.1 4.7
311(9) 0.01085 290.1 4.8
279(9) 0.01142 290.0 4.8
291(9) 0.01041 290.0 4.8
276(9) 0.01131 290.0 4.9
288(9) 0.01120 290.0 4.9
313(9) 0.01084 290.0 5.0
317(10) 0.00970 290.0 5.1
315(10) 0.00917 290.0 5.1
290(9) 0.01089 290.0 5.2
297(9) 0.01075 290.0 5.3
287(9) 0.01141 290.0 5.4
277(9) 0.01113 289.9 5.5
282(9) 0.01049 289.9 5.6
300(10) 0.01001 289.9 5.7
291(9) 0.01141 289.9 5.9
327(10) 0.00997 289.9 6.0
304(9) 0.01012 289.9 6.2
283(9) 0.01050 289.9 6.4
272(9) 0.01185 289.9 6.6
318(9) 0.01043 289.9 6.8
296(9) 0.01118 289.8 7.1
304(9) 0.01038 289.8 7.4
289(9) 0.01038 289.8 7.7
304(9) 0.01028 289.8 8.0
327(9) 0.01036 289.8 8.4
303(9) 0.01110 289.8 8.8
284(9) 0.01123 289.8 9.2
303(10) 0.00953 289.8 9.6
317(10) 0.00988 289.8 10.1
295(9) 0.01126 289.8 10.5
306(9) 0.01083 289.7 10.9
281(9) 0.01149 289.7 11.3
336(10) 0.00860 289.7 11.6
285(9) 0.01131 289.7 11.9
307(9) 0.01104 289.7 12.0
328(9) 0.01025 289.7 12.1
337(10) 0.00976 289.7 12.0
309(10) 0.00990 289.7 11.9
318(10) 0.00980 289.7 11.7
336(9) 0.01018 289.6 11.4
344(10) 0.00948 289.6 11.1
311(9) 0.01076 289.6 10.8
309(9) 0.01038 289.6 10.6
305(9) 0.01036 289.6 10.3
336(9) 0.01009 289.6 10.1
338(10) 0.00960 289.6 9.8
310(9) 0.01011 289.6 9.7
314(10) 0.01002 289.6 9.5
311(9) 0.01045 289.6 9.4
325(9) 0.01023 289.5 9.3
313(9) 0.01030 289.5 9.2
295(9) 0.01051 289.5 9.1
296(9) 0.01074 289.5 9.1
302(9) 0.01080 289.5 9.1
316(9) 0.01061 289.5 9.1
337(10) 0.00931 289.5 9.1
291(9) 0.01065 289.5 9.1
312(10) 0.00975 289.5 9.2
303(9) 0.01051 289.4 9.2
311(9) 0.01081 289.4 9.3
317(10) 0.00973 289.4 9.4
307(10) 0.00983 289.4 9.5
291(9) 0.01091 289.4 9.6
286(9) 0.01148 289.4 9.6
301(9) 0.01092 289.4 9.7
328(10) 0.00968 289.4 9.9
326(10) 0.00977 289.4 10.0
324(9) 0.01012 289.3 10.1
303(9) 0.01096 289.3 10.2
315(9) 0.01074 289.3 10.3
323(10) 0.00966 289.3 10.4
299(10) 0.00998 289.3 10.5
300(9) 0.01070 289.3 10.6
307(9) 0.01102 289.3 10.7
295(9) 0.01127 289.3 10.9
317(9) 0.01020 289.3 11.0
328(10) 0.00888 289.3 11.1
289(9) 0.01092 289.2 11.2
313(9) 0.01079 289.2 11.3
302(9) 0.01124 289.2 11.3
301(9) 0.01057 289.2 11.4
309(10) 0.00927 289.2 11.5
321(10) 0.00979 289.2 11.6
332(9) 0.01023 289.2 11.6
316(9) 0.01037 289.2 11.7
304(9) 0.01041 289.2 11.7
298(10) 0.00994 289.1 11.8
319(10) 0.00977 289.1 11.8
317(9) 0.01060 289.1 11.8
325(9) 0.01016 289.1 11.8
305(9) 0.01043 289.1 11.8
339(10) 0.00911 289.1 11.8
318(10) 0.00990 289.1 11.8
303(9) 0.01106 289.1 11.8
338(10) 0.00988 289.1 11.8
315(10) 0.00985 289.1 11.7
301(9) 0.01034 289.0 11.7
330(10) 0.00969 289.0 11.6
307(9) 0.01100 289.0 11.6
292(9) 0.01070 289.0 11.5
318(10) 0.00964 289.0 11.4
315(10) 0.00996 289.0 11.3
316(9) 0.01018 289.0 11.3
334(9) 0.01021 289.0 11.2
324(10) 0.00970 289.0 11.1
316(10) 0.00950 288.9 11.0
303(9) 0.01057 288.9 10.9
312(9) 0.01041 288.9 10.8
315(9) 0.01085 288.9 10.7
327(10) 0.00958 288.9 10.6
291(9) 0.01036 288.9 10.4
329(10) 0.00963 288.9 10.3
314(9) 0.01066 288.9 10.2
310(9) 0.01087 288.9 10.1
316(10) 0.00995 288.9 10.0
315(10) 0.00921 288.8 9.9
304(9) 0.01013 288.8 9.8
314(9) 0.01061 288.8 9.7
307(9) 0.01092 288.8 9.6
320(10) 0.00998 288.8 9.5
323(10) 0.00910 288.8 9.4
320(10) 0.01002 288.8 9.3
290(9) 0.01133 288.8 9.2
295(9) 0.01122 288.8 9.1
273(9) 0.01151 288.7 9.0
332(10) 0.00868 288.7 8.9
315(10) 0.01007 288.7 8.8
304(9) 0.01101 288.7 8.7
295(9) 0.01145 288.7 8.6
281(9) 0.01092 288.7 8.5
324(10) 0.00889 288.7 8.4
331(10) 0.00939 288.7 8.4
312(9) 0.01068 288.7 8.3
312(9) 0.01066 288.7 8.2
320(10) 0.00982 288.6 8.1
303(9) 0.01008 288.6 8.0
304(9) 0.01043 288.6 8.0
293(9) 0.01134 288.6 7.9
309(9) 0.01067 288.6 7.8
301(9) 0.01035 288.6 7.7
280(9) 0.01068 288.6 7.7
302(9) 0.01030 288.6 7.6
309(9) 0.01075 288.6 7.5
295(9) 0.01086 288.5 7.4
305(10) 0.00964 288.5 7.3
296(9) 0.01035 288.5 7.3
320(10) 0.00977 288.5 7.2
321(9) 0.01058 288.5 7.1
287(9) 0.01086 288.5 7.0
279(9) 0.01139 288.5 6.9
306(9) 0.01011 288.5 6.8
296(9) 0.01117 288.5 6.8
318(9) 0.01057 288.4 6.7
291(9) 0.01109 288.4 6.6
298(9) 0.01048 288.4 6.5
296(9) 0.01073 288.4 6.4
308(9) 0.01064 288.4 6.3
294(9) 0.01128 288.4 6.3
290(9) 0.01087 288.4 6.2
322(10) 0.00940 288.4 6.1
311(10) 0.00999 288.4 6.0
294(9) 0.01098 288.4 5.9
291(9) 0.01152 288.3 5.9
285(9) 0.01105 288.3 5.8
288(9) 0.01058 288.3 5.7
300(9) 0.01068 288.3 5.7
298(9) 0.01103 288.3 5.6
298(9) 0.01112 288.3 5.5
303(9) 0.01066 288.3 5.5
341(10) 0.00864 288.3 5.4
325(10) 0.01001 288.3 5.3
303(9) 0.01108 288.2 5.3
306(9) 0.01095 288.2 5.2
314(9) 0.01009 288.2 5.2
319(10) 0.00927 288.2 5.1
329(10) 0.00955 288.2 5.1
312(9) 0.01078 288.2 5.0
322(9) 0.01038 288.2 5.0
293(9) 0.01072 288.2 4.9
292(9) 0.01029 288.2 4.9
292(9) 0.01109 288.2 4.9
298(9) 0.01104 288.1 4.8
291(9) 0.01160 288.1 4.8
293(9) 0.01085 288.1 4.8
299(9) 0.01028 288.1 4.7
292(9) 0.01082 288.1 4.7
296(9) 0.01131 288.1 4.7
285(9) 0.01149 288.1 4.6
286(9) 0.01117 288.1 4.6
291(9) 0.01038 288.1 4.6
284(9) 0.01108 288.0 4.6
268(9) 0.01228 288.0 4.6
319(10) 0.00974 288.0 4.6
293(9) 0.01060 288.0 4.5
296(9) 0.01041 288.0 4.5
311(9) 0.01019 288.0 4.5
277(9) 0.01195 288.0 4.5
299(9) 0.01064 288.0 4.5
283(9) 0.01066 288.0 4.5
291(9) 0.01058 288.0 4.5
298(9) 0.01074 287.9 4.5
306(9) 0.01093 287.9 4.5
309(9) 0.01040 287.9 4.5
308(10) 0.00989 287.9 4.5
276(9) 0.01145 287.9 4.5
282(9) 0.01141 287.9 4.5
297(9) 0.01131 287.9 4.5
292(9) 0.01080 287.9 4.5
286(9) 0.01079 287.9 4.5
283(9) 0.01103 287.8 4.5
276(9) 0.01135 287.8 4.5
295(9) 0.01132 287.8 4.6
311(10) 0.01003 287.8 4.6
313(10) 0.00959 287.8 4.6
306(10) 0.01001 287.8 4.6
312(9) 0.01064 287.8 4.6
305(9) 0.01091 287.8 4.7
311(9) 0.01039 287.8 4.7
286(9) 0.01050 287.7 4.7
296(9) 0.01069 287.7 4.7
317(9) 0.01063 287.7 4.7
289(9) 0.01149 287.7 4.8
317(10) 0.01007 287.7 4.8
300(9) 0.01025 287.7 4.8
309(9) 0.01044 287.7 4.9
288(9) 0.01167 287.7 4.9
298(9) 0.01105 287.7 4.9
295(9) 0.01084 287.7 5.0
315(10) 0.00914 287.6 5.0
299(9) 0.01081 287.6 5.0
300(9) 0.01123 287.6 5.1
287(9) 0.01140 287.6 5.1
304(9) 0.01040 287.6 5.2
292(9) 0.01051 287.6 5.2
306(10) 0.01003 287.6 5.2
315(9) 0.01061 287.6 5.3
297(9) 0.01110 287.6 5.3
299(9) 0.01078 287.5 5.4
310(10) 0.00990 287.5 5.4
300(9) 0.01020 287.5 5.5
297(9) 0.01134 287.5 5.5
300(9) 0.01062 287.5 5.6
289(9) 0.01096 287.5 5.6
293(9) 0.01040 287.5 5.7
292(9) 0.01055 287.5 5.7
291(9) 0.01139 287.5 5.8
284(9) 0.01127 287.5 5.8
279(9) 0.01130 287.4 5.9
307(10) 0.00999 287.4 6.0
294(9) 0.01075 287.4 6.0
308(9) 0.01088 287.4 6.1
275(9) 0.01160 287.4 6.1
302(9) 0.01009 287.4 6.2
299(9) 0.01032 287.4 6.3
296(9) 0.01081 287.4 6.3
279(9) 0.01188 287.4 6.4
303(9) 0.01043 287.3 6.4
292(9) 0.01048 287.3 6.5
304(9) 0.01022 287.3 6.6
311(9) 0.01050 287.3 6.6
304(9) 0.01103 287.3 6.7
308(9) 0.01037 287.3 6.8
308(9) 0.01016 287.3 6.8
296(9) 0.01082 287.3 6.9
305(9) 0.01094 287.3 7.0
300(9) 0.01117 287.3 7.0
290(9) 0.01034 287.2 7.1
299(9) 0.01008 287.2 7.2
310(9) 0.01048 287.2 7.2
317(9) 0.01045 287.2 7.3
297(9) 0.01136 287.2 7.4
304(9) 0.01010 287.2 7.4
304(10) 0.00971 287.2 7.5
285(9) 0.01110 287.2 7.6
279(9) 0.01185 287.2 7.7
274(9) 0.01196 287.1 7.7
283(9) 0.01135 287.1 7.8
290(9) 0.01016 287.1 7.9
272(9) 0.01189 287.1 8.0
293(9) 0.01146 287.1 8.1
306(9) 0.01095 287.1 8.2
288(9) 0.01092 287.1 8.3
300(10) 0.00927 287.1 8.4
284(9) 0.01108 287.1 8.5
319(9) 0.01061 287.1 8.6
294(9) 0.01125 287.0 8.8
301(9) 0.01045 287.0 8.9
306(10) 0.00971 287.0 9.1
314(10) 0.00971 287.0 9.3
282(9) 0.01173 287.0 9.5
299(9) 0.01092 287.0 9.7
291(9) 0.01079 287.0 9.9
267(9) 0.01188 287.0 10.1
312(10) 0.00975 287.0 10.3
275(9) 0.01199 286.9 10.5
300(9) 0.01082 286.9 10.7
317(10) 0.00990 286.9 10.8
283(9) 0.01083 286.9 10.9
290(9) 0.01105 286.9 10.9
316(9) 0.01068 286.9 10.8
278(9) 0.01152 286.9 10.7
297(9) 0.01082 286.9 10.6
305(10) 0.00992 286.9 10.4
301(9) 0.01052 286.8 10.2
293(9) 0.01131 286.8 10.1
295(9) 0.01061 286.8 9.9
296(9) 0.01036 286.8 9.8
324(10) 0.00973 286.8 9.6
331(10) 0.00972 286.8 9.5
319(9) 0.01057 286.8 9.4
302(9) 0.01053 286.8 9.3
296(9) 0.01025 286.8 9.3
290(9) 0.01038 286.8 9.2
300(9) 0.01092 286.7 9.2
277(9) 0.01212 286.7 9.2
315(9) 0.01025 286.7 9.2
291(9) 0.01065 286.7 9.2
280(9) 0.01162 286.7 9.2
288(9) 0.01122 286.7 9.2
329(9) 0.01025 286.7 9.3
303(9) 0.01034 286.7 9.4
309(10) 0.00937 286.7 9.4
270(9) 0.01156 286.6 9.5
280(9) 0.01137 286.6 9.6
277(9) 0.01198 286.6 9.7
275(9) 0.01177 286.6 9.8
300(10) 0.00959 286.6 9.9
295(9) 0.01043 286.6 10.1
300(9) 0.01119 286.6 10.2
308(9) 0.01083 286.6 10.4
302(9) 0.01081 286.6 10.5
311(10) 0.00972 286.6 10.7
302(9) 0.01040 286.5 10.9
289(9) 0.01132 286.5 11.1
300(9) 0.01120 286.5 11.3
301(9) 0.01031 286.5 11.6
307(10) 0.00931 286.5 11.8
278(9) 0.01145 286.5 12.1
329(9) 0.01022 286.5 12.4
317(9) 0.01075 286.5 12.7
306(9) 0.01039 286.5 13.1
297(9) 0.01045 286.4 13.4
310(10) 0.00987 286.4 13.8
318(9) 0.01047 286.4 14.2
308(9) 0.01059 286.4 14.7
289(9) 0.01071 286.4 15.1
304(10) 0.01001 286.4 15.6
320(10) 0.00981 286.4 16.0
297(9) 0.01121 286.4 16.5
284(9) 0.01071 286.4 16.9
299(9) 0.01030 286.4 17.2
307(9) 0.01013 286.3 17.5
300(9) 0.01072 286.3 17.7
298(9) 0.01119 286.3 17.8
310(9) 0.01057 286.3 17.9
325(10) 0.00960 286.3 17.8
328(10) 0.00948 286.3 17.7
324(9) 0.01015 286.3 17.6
312(9) 0.01074 286.3 17.4
314(10) 0.00993 286.3 17.2
307(9) 0.01016 286.2 17.0
320(10) 0.00997 286.2 16.8
299(9) 0.01104 286.2 16.6
292(9) 0.01141 286.2 16.4
303(10) 0.01001 286.2 16.2
297(9) 0.01023 286.2 15.9
317(9) 0.01011 286.2 15.7
327(10) 0.00988 286.2 15.5
301(9) 0.01117 286.2 15.2
277(9) 0.01157 286.1 15.0
294(10) 0.00994 286.1 14.8
306(9) 0.01052 286.1 14.6
345(10) 0.00969 286.1 14.4
286(9) 0.01172 286.1 14.2
276(9) 0.01160 286.1 14.1
294(10) 0.00980 286.1 13.9
311(9) 0.01019 286.1 13.8
305(9) 0.01092 286.1 13.6
294(9) 0.01148 286.1 13.5
306(10) 0.00999 286.0 13.4
288(9) 0.01026 286.0 13.3
307(9) 0.01023 286.0 13.2
320(9) 0.01053 286.0 13.0
302(9) 0.01092 286.0 12.9
283(9) 0.01099 286.0 12.7
286(9) 0.01060 286.0 12.6
281(9) 0.01142 286.0 12.4
278(9) 0.01192 286.0 12.2
292(9) 0.01129 285.9 12.0
306(9) 0.01030 285.9 11.8
299(10) 0.01007 285.9 11.6
286(9) 0.01052 285.9 11.3
304(9) 0.01100 285.9 11.1
313(9) 0.01040 285.9 10.9
296(9) 0.01082 285.9 10.7
293(9) 0.01034 285.9 10.5
301(10) 0.01006 285.9 10.3
317(9) 0.01058 285.9 10.2
301(9) 0.01045 285.8 10.0
302(9) 0.01026 285.8 9.8
311(10) 0.01005 285.8 9.7
282(9) 0.01140 285.8 9.6
289(9) 0.01164 285.8 9.4
290(9) 0.01067 285.8 9.3
293(9) 0.01043 285.8 9.2
281(9) 0.01129 285.8 9.1
312(9) 0.01040 285.8 9.0
292(9) 0.01149 285.7 8.9
299(9) 0.01046 285.7 8.8
295(9) 0.01024 285.7 8.7
278(9) 0.01124 285.7 8.6
267(9) 0.01231 285.7 8.5
278(9) 0.01192 285.7 8.5
309(9) 0.01027 285.7 8.4
314(10) 0.00948 285.7 8.3
296(9) 0.01060 285.7 8.3
305(9) 0.01059 285.7 8.2
329(10) 0.01006 285.6 8.2
311(10) 0.01007 285.6 8.1
296(10) 0.00996 285.6 8.1
300(10) 0.00999 285.6 8.1
273(9) 0.01220 285.6 8.1
288(9) 0.01152 285.6 8.1
292(9) 0.01057 285.6 8.1
319(10) 0.00930 285.6 8.0
296(9) 0.01082 285.6 8.1
291(9) 0.01147 285.5 8.1
306(9) 0.01063 285.5 8.1
288(9) 0.01107 285.5 8.1
307(10) 0.00938 285.5 8.1
284(9) 0.01062 285.5 8.2
292(9) 0.01155 285.5 8.2
314(9) 0.01054 285.5 8.2
287(9) 0.01093 285.5 8.3
282(9) 0.01040 285.5 8.4
302(9) 0.01045 285.5 8.4
282(9) 0.01163 285.4 8.5
311(9) 0.01059 285.4 8.5
289(9) 0.01100 285.4 8.6
299(10) 0.00989 285.4 8.7
271(9) 0.01130 285.4 8.7
303(9) 0.01106 285.4 8.8
314(9) 0.01042 285.4 8.8
291(9) 0.01119 285.4 8.9
284(9) 0.01082 285.4 8.9
282(9) . . .
290(9) . . .
293(9) . . .
333(10) . . .
305(9) . . .
307(9) . . .
324(9) . . .
311(9) . . .
312(10) . . .
319(10) . . .
297(9) . . .
285(9) . . .
300(9) . . .
294(9) . . .
292(9) . . .
287(9) . . .
306(9) . . .
300(9) . . .
307(10) . . .
313(10) . . .
290(9) . . .
318(9) . . .
296(9) . . .
277(9) . . .
296(9) . . .
289(9) . . .
293(9) . . .
308(9) . . .
312(10) . . .
323(10) . . .
305(9) . . .
301(9) . . .
304(9) . . .
304(10) . . .
329(10) . . .
324(9) . . .
328(9) . . .
321(10) . . .
308(10) . . .
313(10) . . .
295(9) . . .
283(9) . . .
324(10) . . .
306(10) . . .
301(9) . . .
300(9) . . .
333(10) . . .
324(10) . . .
300(9) . . .
292(9) . . .
281(9) . . .
314(9) . . .
291(9) . . .
296(9) . . .
315(9) . . .
332(9) . . .
299(9) . . .
306(10) . . .
301(9) . . .
282(9) . . .
298(9) . . .
316(9) . . .
291(9) . . .
310(10) . . .
303(9) . . .
267(9) . . .
295(9) . . .
310(10) . . .
300(9) . . .
295(9) . . .
297(9) . . .
291(9) . . .
277(9) . . .
295(9) . . .
291(9) . . .
301(9) . . .
279(9) . . .
290(9) . . .
283(9) . . .
275(9) . . .
288(9) . . .
292(9) . . .
309(10) . . .
290(9) . . .
255(8) . . .
304(9) . . .
306(9) . . .
321(10) . . .
315(10) . . .
287(9) . . .
300(9) . . .
320(10) . . .
299(10) . . .
303(9) . . .
307(9) . . .
293(9) . . .
290(9) . . .
278(9) . . .
264(9) . . .
276(9) . . .
282(9) . . .
259(9) . . .
292(10) . . .
292(9) . . .
280(9) . . .
314(9) . . .
299(9) . . .
292(9) . . .
289(9) . . .
280(9) . . .
282(9) . . .
288(9) . . .
291(9) . . .
269(9) . . .
259(8) . . .
290(9) . . .
284(9) . . .
300(9) . . .
287(9) . . .
300(9) . . .
293(9) . . .
286(10) . . .
265(9) . . .
292(9) . . .
298(9) . . .
273(9) . . .
297(10) . . .
273(9) . . .
287(9) . . .
286(9) . . .
288(9) . . .
284(10) . . .
269(9) . . .
281(9) . . .
279(9) . . .
302(10) . . .
291(9) . . .
287(9) . . .
270(9) . . .
295(9) . . .
305(9) . . .
281(9) . . .
288(9) . . .
303(9) . . .
286(9) . . .
282(9) . . .
273(9) . . .
295(9) . . .
299(9) . . .
292(9) . . .
272(9) . . .
266(9) . . .
245(8) . . .
258(8) . . .
288(9) . . .
277(9) . . .
283(9) . . .
263(9) . . .
267(9) . . .
300(9) . . .
298(9) . . .
275(9) . . .
291(9) . . .
290(9) . . .
274(9) . . .
265(9) . . .
267(9) . . .
290(9) . . .
281(9) . . .
283(9) . . .
290(9) . . .
264(9) . . .
284(9) . . .
281(9) . . .
263(9) . . .
281(9) . . .
271(9) . . .
256(8) . . .
266(9) . . .
292(9) . . .
274(9) . . .
281(9) . . .
301(9) . . .
302(9) . . .
274(9) . . .
273(9) . . .
308(9) . . .
275(9) . . .
268(9) . . .
281(9) . . .
270(9) . . .
275(9) . . .
304(9) . . .
274(9) . . .
252(9) . . .
282(9) . . .
280(9) . . .
254(8) . . .
292(9) . . .
277(9) . . .
276(9) . . .
274(9) . . .
268(8) . . .
274(9) . . .
277(9) . . .
288(9) . . .
286(9) . . .
273(9) . . .
269(9) . . .
292(9) . . .
271(9) . . .
276(9) . . .
287(9) . . .
293(9) . . .
251(9) . . .
293(9) . . .
311(9) . . .
268(9) . . .
304(10) . . .
276(9) . . .
293(9) . . .
289(9) . . .
287(9) . . .
276(9) . . .
264(9) . . .
270(9) . . .
292(9) . . .
280(9) . . .
276(9) . . .
274(9) . . .
269(9) . . .
268(9) . . .
289(9) . . .
303(9) . . .
300(10) . . .
285(9) . . .
282(9) . . .
272(9) . . .
298(9) . . .
282(9) . . .
260(9) . . .
275(9) . . .
268(9) . . .
270(9) . . .
275(9) . . .
280(9) . . .
288(9) . . .
293(9) . . .
295(9) . . .
283(9) . . .
281(9) . . .
299(9) . . .
276(9) . . .
297(9) . . .
282(9) . . .
267(9) . . .
279(9) . . .
281(9) . . .
257(9) . . .
256(9) . . .
301(9) . . .
288(9) . . .
273(9) . . .
293(9) . . .
286(9) . . .
284(9) . . .
308(9) . . .
297(9) . . .
285(9) . . .
260(9) . . .
272(9) . . .
296(9) . . .
274(9) . . .
293(9) . . .
252(9) . . .
292(9) . . .
283(9) . . .
285(9) . . .
279(9) . . .
292(9) . . .
267(9) . . .
284(9) . . .
291(9) . . .
282(9) . . .
318(10) . . .
285(9) . . .
287(9) . . .
304(10) . . .
255(9) . . .
299(9) . . .
304(9) . . .
288(9) . . .
277(9) . . .
286(9) . . .
310(9) . . .
322(9) . . .
294(9) . . .
298(9) . . .
283(9) . . .
277(9) . . .
281(9) . . .
308(9) . . .
293(9) . . .
323(10) . . .
301(9) . . .
300(9) . . .
321(9) . . .
316(10) . . .
284(9) . . .
318(9) . . .
321(9) . . .
308(9) . . .
331(10) . . .
293(9) . . .
296(9) . . .
303(9) . . .
303(10) . . .
283(9) . . .
281(9) . . .
283(9) . . .
288(9) . . .
277(9) . . .
284(9) . . .
298(9) . . .
301(9) . . .
298(9) . . .
281(9) . . .
274(9) . . .
287(9) . . .
267(9) . . .
287(9) . . .
275(9) . . .
269(9) . . .
280(9) . . .
289(9) . . .
294(9) . . .
266(9) . . .
270(9) . . .
269(9) . . .
271(9) . . .
276(9) . . .
295(9) . . .
309(10) . . .
301(9) . . .
280(9) . . .
257(8) . . .
267(9) . . .
279(9) . . .
304(9) . . .
300(9) . . .
269(9) . . .
279(9) . . .
273(9) . . .
291(9) . . .
287(9) . . .
266(9) . . .
300(9) . . .
291(9) . . .
280(9) . . .
284(9) . . .
269(9) . . .
290(9) . . .
295(9) . . .
280(9) . . .
277(9) . . .
272(9) . . .
295(9) . . .
291(9) . . .
285(9) . . .
298(9) . . .
278(9) . . .
289(9) . . .
284(9) . . .
307(9) . . .
267(8) . . .
268(9) . . .
287(9) . . .
324(10) . . .
281(9) . . .
289(9) . . .
301(10) . . .
289(9) . . .
310(9) . . .
295(9) . . .
300(9) . . .
301(9) . . .
295(10) . . .
295(9) . . .
294(9) . . .
299(9) . . .
288(9) . . .
276(9) . . .
291(9) . . .
287(9) . . .
272(9) . . .
293(9) . . .
297(10) . . .
281(9) . . .
282(9) . . .
254(8) . . .
274(9) . . .
273(9) . . .
276(9) . . .
288(9) . . .
304(9) . . .
274(9) . . .
281(9) . . .
295(9) . . .
282(9) . . .
279(9) . . .
289(9) . . .
281(9) . . .
280(9) . . .
285(9) . . .
285(9) . . .
278(9) . . .
301(9) . . .
293(9) . . .
288(9) . . .
299(9) . . .
299(10) . . .
292(9) . . .
278(9) . . .
306(9) . . .
267(9) . . .
296(9) . . .
302(9) . . .
258(8) . . .
257(8) . . .
281(9) . . .
283(9) . . .
272(9) . . .
283(9) . . .
287(9) . . .
304(10) . . .
276(9) . . .
297(9) . . .
293(9) . . .
264(9) . . .
275(9) . . .
270(9) . . .
279(9) . . .
284(9) . . .
282(9) . . .
261(9) . . .
265(9) . . .
280(9) . . .
292(9) . . .
283(9) . . .
272(9) . . .
256(9) . . .
266(9) . . .
270(8) . . .
272(9) . . .
248(8) . . .
258(9) . . .
264(9) . . .
270(8) . . .
255(8) . . .
280(9) . . .
264(9) . . .
273(9) . . .
272(9) . . .
254(8) . . .
275(9) . . .
260(9) . . .
253(8) . . .
254(8) . . .
263(9) . . .
279(9) . . .
256(9) . . .
254(8) . . .
255(8) . . .
267(9) . . .
263(9) . . .
270(9) . . .
268(9) . . .
259(8) . . .
303(9) . . .
289(9) . . .
254(9) . . .
266(8) . . .
269(9) . . .
264(9) . . .
265(9) . . .
254(9) . . .
243(8) . . .
280(9) . . .
275(9) . . .
269(9) . . .
290(9) . . .
280(9) . . .
281(9) . . .
241(8) . . .
238(8) . . .
252(8) . . .
263(8) . . .
270(9) . . .
284(9) . . .
250(9) . . .
241(8) . . .
269(9) . . .
249(8) . . .
250(9) . . .
255(9) . . .
253(8) . . .
250(8) . . .
266(9) . . .
260(9) . . .
257(9) . . .
236(8) . . .
232(8) . . .
246(8) . . .
228(8) . . .
270(9) . . .
282(9) . . .
252(8) . . .
279(9) . . .
256(9) . . .
268(9) . . .
261(9) . . .
275(9) . . .
253(8) . . .
267(9) . . .
252(8) . . .
240(8) . . .
264(8) . . .
254(9) . . .
239(8) . . .
261(9) . . .
272(9) . . .
246(8) . . .
261(9) . . .
274(9) . . .
270(9) . . .
245(8) . . .
256(8) . . .
262(9) . . .
258(9) . . .
262(9) . . .
265(8) . . .
270(9) . . .
256(9) . . .
261(9) . . .
251(8) . . .
266(8) . . .
247(8) . . .
279(9) . . .
274(9) . . .
274(9) . . .
250(8) . . .
257(9) . . .
244(8) . . .
262(9) . . .
265(9) . . .
275(9) . . .
247(8) . . .
276(9) . . .
266(9) . . .
270(9) . . .
281(9) . . .
259(9) . . .
260(9) . . .
265(9) . . .
262(9) . . .
264(8) . . .
264(9) . . .
272(9) . . .
248(9) . . .
249(8) . . .
250(8) . . .
274(9) . . .
263(9) . . .
245(8) . . .
277(9) . . .
276(9) . . .
269(9) . . .
270(9) . . .
269(9) . . .
278(9) . . .
263(8) . . .
261(9) . . .
263(9) . . .
246(8) . . .
244(8) . . .
239(8) . . .
234(8) . . .
241(9) . . .
252(9) . . .
252(8) . . .
245(8) . . .
264(9) . . .
248(9) . . .
240(8) . . .
257(8) . . .
268(8) . . .
252(8) . . .
261(9) . . .
250(8) . . .
262(8) . . .
248(8) . . .
257(9) . . .
254(9) . . .
269(9) . . .
259(8) . . .
262(9) . . .
255(9) . . .
280(9) . . .
261(9) . . .
249(8) . . .
272(9) . . .
246(8) . . .
259(9) . . .
240(8) . . .
255(8) . . .
252(8) . . .
253(9) . . .
246(8) . . .
262(9) . . .
266(8) . . .
245(9) . . .
261(9) . . .
244(8) . . .
262(8) . . .
251(8) . . .
270(9) . . .
269(9) . . .
272(9) . . .
261(8) . . .
268(9) . . .
260(9) . . .
260(9) . . .
279(9) . . .
268(9) . . .
263(8) . . .
261(9) . . .
267(9) . . .
265(9) . . .
250(8) . . .
253(8) . . .
266(9) . . .
250(9) . . .
257(9) . . .
260(8) . . .
253(8) . . .
258(9) . . .
269(9) . . .
262(9) . . .
278(9) . . .
254(8) . . .
278(9) . . .
244(8) . . .
258(9) . . .
273(9) . . .
265(9) . . .
255(8) . . .
252(9) . . .
248(9) . . .
248(8) . . .
263(9) . . .
259(9) . . .
250(9) . . .
269(9) . . .
250(8) . . .
244(8) . . .
246(8) . . .
251(8) . . .
245(8) . . .
233(8) . . .
260(9) . . .
247(9) . . .
246(8) . . .
253(8) . . .
240(8) . . .
253(9) . . .
225(8) . . .
265(9) . . .
256(8) . . .
267(8) . . .
241(8) . . .
256(9) . . .
247(8) . . .
232(8) . . .
258(8) . . .
259(9) . . .
244(9) . . .
235(8) . . .
253(8) . . .
232(8) . . .
241(8) . . .
222(8) . . .
264(9) . . .
245(8) . . .
267(9) . . .
236(8) . . .
236(8) . . .
249(8) . . .
266(8) . . .
257(8) . . .
241(8) . . .
234(8) . . .
261(9) . . .
247(8) . . .
246(8) . . .
241(8) . . .
230(8) . . .
236(8) . . .
245(8) . . .
236(8) . . .
250(8) . . .
247(8) . . .
253(8) . . .
269(8) . . .
238(8) . . .
252(9) . . .
238(8) . . .
232(8) . . .
249(8) . . .
253(9) . . .
248(9) . . .
253(9) . . .
258(8) . . .
255(8) . . .
257(9) . . .
283(10) . . .
250(9) . . .
243(8) . . .
247(8) . . .
236(8) . . .
240(9) . . .
245(8) . . .
246(8) . . .
249(8) . . .
255(8) . . .
241(8) . . .
251(8) . . .
257(8) . . .
265(8) . . .
233(8) . . .
244(9) . . .
243(8) . . .
244(8) . . .
245(8) . . .
224(8) . . .
241(9) . . .
235(8) . . .
243(8) . . .
254(8) . . .
231(8) . . .
210(8) . . .
230(8) . . .
253(8) . . .
240(8) . . .
242(8) . . .
259(9) . . .
244(8) . . .
265(9) . . .
250(8) . . .
229(8) . . .
246(9) . . .
253(8) . . .
273(9) . . .
262(8) . . .
256(9) . . .
256(9) . . .
260(9) . . .
274(9) . . .
261(9) . . .
278(9) . . .
270(9) . . .
262(9) . . .
293(9) . . .
264(9) . . .
281(9) . . .
267(9) . . .
280(9) . . .
298(9) . . .
304(9) . . .
275(9) . . .
255(8) . . .
260(8) . . .
284(9) . . .
273(9) . . .
269(9) . . .
255(8) . . .
270(9) . . .
265(8) . . .
270(9) . . .
266(9) . . .
271(9) . . .
242(8) . . .
251(8) . . .
256(9) . . .
231(8) . . .
244(8) . . .
260(8) . . .
248(8) . . .
250(8) . . .
249(9) . . .
235(8) . . .
232(8) . . .
256(8) . . .
237(8) . . .
227(8) . . .
241(8) . . .
256(8) . . .
264(9) . . .
252(8) . . .
239(8) . . .
212(8) . . .
246(8) . . .
242(8) . . .
235(8) . . .
250(9) . . .
239(8) . . .
236(8) . . .
233(8) . . .
211(8) . . .
239(8) . . .
244(8) . . .
256(8) . . .
231(8) . . .
252(9) . . .
228(8) . . .
233(8) . . .
244(8) . . .
247(8) . . .
231(8) . . .
220(8) . . .
221(8) . . .
236(8) . . .
239(8) . . .
220(8) . . .
230(8) . . .
223(8) . . .
210(7) . . .
224(8) . . .
235(9) . . .
234(8) . . .
227(8) . . .
220(8) . . .
228(8) . . .
220(8) . . .
219(8) . . .
214(8) . . .
238(8) . . .
242(8) . . .
223(8) . . .
223(8) . . .
215(8) . . .
223(8) . . .
218(8) . . .
220(8) . . .
235(8) . . .
221(8) . . .
232(8) . . .
235(8) . . .
224(8) . . .
241(8) . . .
227(8) . . .
218(8) . . .
224(8) . . .
239(8) . . .
215(8) . . .
211(7) . . .
232(8) . . .
231(8) . . .
240(9) . . .
227(8) . . .
234(8) . . .
238(8) . . .
214(8) . . .
234(8) . . .
228(8) . . .
225(8) . . .
209(8) . . .
234(9) . . .
223(8) . . .
231(8) . . .
213(8) . . .
216(8) . . .
226(8) . . .
235(8) . . .
223(8) . . .
239(8) . . .
239(8) . . .
233(9) . . .
220(8) . . .
249(8) . . .
237(8) . . .
230(8) . . .
214(8) . . .
215(8) . . .
238(8) . . .
224(8) . . .
233(8) . . .
216(8) . . .
222(8) . . .
230(8) . . .
206(7) . . .
234(8) . . .
229(8) . . .
231(8) . . .
235(8) . . .
234(8) . . .
231(8) . . .
220(8) . . .
219(8) . . .
217(8) . . .
219(8) . . .
223(8) . . .
217(8) . . .
238(8) . . .
246(8) . . .
233(8) . . .
242(8) . . .
224(8) . . .
218(8) . . .
207(7) . . .
225(8) . . .
210(8) . . .
216(8) . . .
223(8) . . .
212(8) . . .
243(8) . . .
239(8) . . .
213(8) . . .
208(8) . . .
198(7) . . .
197(7) . . .
217(8) . . .
235(8) . . .
207(7) . . .
231(8) . . .
232(8) . . .
216(8) . . .
220(8) . . .
218(8) . . .
243(8) . . .
236(8) . . .
221(8) . . .
256(9) . . .
244(8) . . .
213(8) . . .
226(8) . . .
242(9) . . .
240(8) . . .
238(8) . . .
211(8) . . .
214(8) . . .
229(8) . . .
250(9) . . .
225(8) . . .
203(7) . . .
219(8) . . .
224(8) . . .
245(8) . . .
233(8) . . .
211(8) . . .
215(8) . . .
247(9) . . .
230(8) . . .
219(8) . . .
234(8) . . .
198(8) . . .
220(8) . . .
207(8) . . .
245(8) . . .
212(8) . . .
217(8) . . .
198(7) . . .
211(8) . . .
221(8) . . .
217(8) . . .
224(8) . . .
222(8) . . .
218(8) . . .
200(7) . . .
222(8) . . .
225(8) . . .
217(8) . . .
225(8) . . .
235(8) . . .
240(8) . . .
245(9) . . .
230(8) . . .
216(8) . . .
219(8) . . .
208(8) . . .
206(8) . . .
210(8) . . .
198(7) . . .
218(8) . . .
215(8) . . .
224(8) . . .
223(8) . . .
218(8) . . .
202(7) . . .
227(8) . . .
235(9) . . .
231(8) . . .
224(8) . . .
238(8) . . .
237(8) . . .
233(8) . . .
216(8) . . .
196(7) . . .
202(8) . . .
222(8) . . .
228(8) . . .
199(7) . . .
219(8) . . .
226(8) . . .
241(9) . . .
227(8) . . .
235(8) . . .
223(8) . . .
220(8) . . .
228(8) . . .
223(8) . . .
230(8) . . .
219(8) . . .
234(8) . . .
231(8) . . .
223(8) . . .
231(8) . . .
226(8) . . .
215(8) . . .
209(8) . . .
221(8) . . .
212(8) . . .
219(8) . . .
216(8) . . .
224(8) . . .
211(8) . . .
217(8) . . .
220(8) . . .
216(8) . . .
215(8) . . .
226(8) . . .
212(8) . . .
210(8) . . .
242(8) . . .
235(9) . . .
198(8) . . .
223(8) . . .
244(8) . . .
218(8) . . .
214(8) . . .
223(8) . . .
234(8) . . .
218(8) . . .
212(8) . . .
205(8) . . .
235(9) . . .
222(8) . . .
235(8) . . .
213(8) . . .
233(8) . . .
204(8) . . .
235(8) . . .
232(8) . . .
226(8) . . .
222(8) . . .
232(8) . . .
255(8) . . .
223(8) . . .
236(8) . . .
224(8) . . .
226(8) . . .
225(8) . . .
211(8) . . .
224(8) . . .
228(8) . . .
236(8) . . .
237(8) . . .
241(8) . . .
227(8) . . .
243(9) . . .
224(8) . . .
214(8) . . .
230(8) . . .
247(9) . . .
207(7) . . .
224(8) . . .
219(8) . . .
232(8) . . .
181(7) . . .
231(8) . . .
221(8) . . .
227(8) . . .
211(8) . . .
210(8) . . .
230(8) . . .
214(8) . . .
213(8) . . .
207(8) . . .
213(8) . . .
198(8) . . .
208(8) . . .
219(8) . . .
240(8) . . .
231(8) . . .
204(8) . . .
194(7) . . .
218(8) . . .
235(8) . . .
235(8) . . .
235(8) . . .
226(8) . . .
229(8) . . .
218(8) . . .
217(8) . . .
223(8) . . .
213(8) . . .
230(8) . . .
238(8) . . .
211(8) . . .
214(8) . . .
216(8) . . .
209(8) . . .
200(8) . . .
203(8) . . .
220(8) . . .
201(7) . . .
207(8) . . .
211(8) . . .
187(7) . . .
201(8) . . .
211(8) . . .
202(8) . . .
230(8) . . .
196(7) . . .
194(7) . . .
213(8) . . .
198(7) . . .
190(8) . . .
217(8) . . .
210(8) . . .
196(7) . . .
190(7) . . .
201(8) . . .
224(8) . . .
216(8) . . .
202(7) . . .
195(7) . . .
218(8) . . .
217(8) . . .
213(8) . . .
205(8) . . .
203(8) . . .
196(8) . . .
197(8) . . .
224(8) . . .
205(7) . . .
208(8) . . .
215(8) . . .
195(8) . . .
210(8) . . .
204(7) . . .
226(8) . . .
213(8) . . .
222(8) . . .
207(7) . . .
225(8) . . .
220(8) . . .
213(8) . . .
208(8) . . .
194(7) . . .
205(8) . . .
226(8) . . .
224(8) . . .
202(7) . . .
199(7) . . .
190(7) . . .
206(8) . . .
231(8) . . .
218(8) . . .
205(7) . . .
201(8) . . .
209(8) . . .
223(8) . . .
190(7) . . .
184(7) . . .
207(8) . . .
236(9) . . .
194(7) . . .
221(8) . . .
205(7) . . .
200(8) . . .
212(8) . . .
223(8) . . .
204(7) . . .
224(8) . . .
210(8) . . .
225(8) . . .
191(7) . . .
197(7) . . .
198(8) . . .
216(8) . . .
199(8) . . .
196(7) . . .
195(7) . . .
211(8) . . .
227(8) . . .
196(7) . . .
206(8) . . .
196(7) . . .
208(8) . . .
223(8) . . .
214(8) . . .
210(8) . . .
215(8) . . .
205(8) . . .
214(8) . . .
203(8) . . .
192(7) . . .
203(7) . . .
218(8) . . .
198(8) . . .
215(8) . . .
185(7) . . .
191(7) . . .
202(8) . . .
164(7) . . .
200(8) . . .
198(7) . . .
201(7) . . .
203(8) . . .
207(8) . . .
223(8) . . .
228(8) . . .
223(8) . . .
201(8) . . .
186(8) . . .
212(8) . . .
188(7) . . .
202(7) . . .
206(8) . . .
198(8) . . .
208(8) . . .
214(8) . . .
212(8) . . .
197(8) . . .
216(8) . . .
214(8) . . .
219(8) . . .
205(8) . . .
215(8) . . .
191(7) . . .
188(7) . . .
209(7) . . .
209(8) . . .
194(7) . . .
192(7) . . .
205(8) . . .
205(7) . . .
189(7) . . .
190(7) . . .
208(8) . . .
206(8) . . .
195(7) . . .
221(8) . . .
207(8) . . .
198(8) . . .
189(7) . . .
184(7) . . .
218(8) . . .
197(8) . . .
190(7) . . .
185(7) . . .
196(7) . . .
220(8) . . .
192(8) . . .
215(8) . . .
212(8) . . .
182(7) . . .
194(8) . . .
190(7) . . .
215(8) . . .
219(8) . . .
220(8) . . .
203(8) . . .
206(8) . . .
202(8) . . .
207(8) . . .
190(7) . . .
198(8) . . .
216(8) . . .
207(8) . . .
200(7) . . .
203(7) . . .
185(7) . . .
201(8) . . .
220(8) . . .
213(8) . . .
200(7) . . .
192(7) . . .
188(8) . . .
196(8) . . .
206(7) . . .
195(7) . . .
204(8) . . .
196(8) . . .
216(8) . . .
196(7) . . .
208(8) . . .
186(7) . . .
191(7) . . .
183(7) . . .
210(8) . . .
220(8) . . .
217(8) . . .
194(7) . . .
209(8) . . .
197(7) . . .
200(8) . . .
199(8) . . .
213(8) . . .
218(8) . . .
207(7) . . .
214(8) . . .
208(8) . . .
188(7) . . .
211(8) . . .
215(8) . . .
206(8) . . .
222(8) . . .
206(8) . . .
216(8) . . .
204(7) . . .
224(8) . . .
211(8) . . .
203(7) . . .
186(7) . . .
223(8) . . .
218(8) . . .
207(8) . . .
196(7) . . .
218(8) . . .
214(8) . . .
214(8) . . .
201(8) . . .
221(8) . . .
226(8) . . .
218(8) . . .
205(8) . . .
210(8) . . .
216(8) . . .
199(7) . . .
205(7) . . .
212(8) . . .
237(9) . . .
208(8) . . .
191(7) . . .
194(7) . . .
199(8) . . .
195(8) . . .
204(8) . . .
199(7) . . .
230(8) . . .
212(8) . . .
213(8) . . .
227(8) . . .
211(8) . . .
189(7) . . .
197(8) . . .
214(8) . . .
202(8) . . .
179(7) . . .
211(8) . . .
199(8) . . .
216(8) . . .
212(8) . . .
198(7) . . .
202(8) . . .
202(8) . . .
202(7) . . .
196(7) . . .
190(7) . . .
198(8) . . .
192(8) . . .
199(8) . . .
227(8) . . .
210(8) . . .
175(7) . . .
190(8) . . .
211(8) . . .
230(8) . . .
204(7) . . .
208(8) . . .
177(7) . . .
193(7) . . .
188(7) . . .
204(7) . . .
205(8) . . .
203(8) . . .
191(7) . . .
206(7) . . .
195(7) . . .
186(7) . . .
198(8) . . .
182(7) . . .
190(7) . . .
186(7) . . .
194(7) . . .
187(7) . . .
200(8) . . .
205(7) . . .
190(7) . . .
202(8) . . .
172(7) . . .
184(7) . . .
191(7) . . .
209(8) . . .
203(8) . . .
201(8) . . .
210(8) . . .
217(8) . . .
198(7) . . .
212(8) . . .
194(7) . . .
187(7) . . .
197(7) . . .
206(8) . . .
211(8) . . .
221(8) . . .
209(7) . . .
196(7) . . .
211(8) . . .
181(7) . . .
188(7) . . .
225(8) . . .
200(7) . . .
215(8) . . .
225(8) . . .
216(8) . . .
207(7) . . .
213(8) . . .
204(8) . . .
195(8) . . .
212(8) . . .
203(8) . . .
203(7) . . .
215(8) . . .
230(9) . . .
204(8) . . .
199(7) . . .
192(7) . . .
181(7) . . .
216(8) . . .
184(7) . . .
190(7) . . .
192(7) . . .
199(8) . . .
196(8) . . .
197(8) . . .
190(7) . . .
198(8) . . .
185(7) . . .
173(7) . . .
187(7) . . .
190(7) . . .
197(7) . . .
182(7) . . .
198(8) . . .
180(7) . . .
172(7) . . .
218(8) . . .
182(7) . . .
182(7) . . .
193(8) . . .
206(7) . . .
181(7) . . .
180(7) . . .
194(8) . . .
194(7) . . .
192(7) . . .
184(7) . . .
181(7) . . .
196(8) . . .
185(7) . . .
210(7) . . .
196(7) . . .
184(7) . . .
201(8) . . .
201(7) . . .
200(7) . . .
188(7) . . .
185(8) . . .
189(7) . . .
207(8) . . .
193(7) . . .
175(7) . . .
201(8) . . .
189(7) . . .
202(7) . . .
207(8) . . .
182(7) . . .
193(8) . . .
195(7) . . .
171(7) . . .
194(7) . . .
202(8) . . .
186(7) . . .
192(8) . . .
191(7) . . .
195(7) . . .
193(8) . . .
176(7) . . .
216(8) . . .
165(7) . . .
196(7) . . .
208(8) . . .
180(7) . . .
216(8) . . .
180(7) . . .
178(7) . . .
179(7) . . .
178(7) . . .
202(7) . . .
195(7) . . .
187(7) . . .
200(8) . . .
192(7) . . .
183(7) . . .
192(7) . . .
190(7) . . .
198(8) . . .
194(7) . . .
186(7) . . .
174(7) . . .
187(8) . . .
175(7) . . .
192(7) . . .
199(7) . . .
186(7) . . .
189(7) . . .
200(8) . . .
191(7) . . .
199(7) . . .
177(7) . . .
204(8) . . .
189(8) . . .
200(8) . . .
199(7) . . .
191(7) . . .
164(7) . . .
180(7) . . .
178(7) . . .
181(7) . . .
199(7) . . .
183(7) . . .
178(7) . . .
179(7) . . .
188(7) . . .
208(8) . . .
189(7) . . .
180(7) . . .
178(7) . . .
191(7) . . .
174(7) . . .
189(7) . . .
199(8) . . .
192(7) . . .
191(7) . . .
166(7) . . .
195(8) . . .
191(7) . . .
200(8) . . .
194(7) . . .
190(7) . . .
179(7) . . .
184(7) . . .
177(7) . . .
191(7) . . .
187(7) . . .
189(7) . . .
181(7) . . .
189(7) . . .
204(7) . . .
207(8) . . .
203(8) . . .
186(7) . . .
177(7) . . .
194(7) . . .
190(7) . . .
179(7) . . .
196(8) . . .
219(8) . . .
190(7) . . .
179(7) . . .
188(8) . . .
174(7) . . .
210(8) . . .
198(7) . . .
174(7) . . .
173(7) . . .
208(8) . . .
207(7) . . .
189(7) . . .
181(7) . . .
174(7) . . .
218(8) . . .
174(7) . . .
192(7) . . .
183(7) . . .
193(8) . . .
181(7) . . .
191(7) . . .
186(7) . . .
172(7) . . .
184(7) . . .
170(7) . . .
210(8) . . .
170(7) . . .
187(7) . . .
191(7) . . .
213(8) . . .
198(7) . . .
186(7) . . .
188(7) . . .
200(8) . . .
185(7) . . .
182(7) . . .
190(8) . . .
199(8) . . .
180(7) . . .
181(7) . . .
181(7) . . .
189(7) . . .
207(8) . . .
184(7) . . .
186(7) . . .
197(7) . . .
185(7) . . .
178(7) . . .
182(7) . . .
192(7) . . .
203(7) . . .
205(8) . . .
192(8) . . .
196(7) . . .
196(7) . . .
194(7) . . .
194(7) . . .
195(8) . . .
193(8) . . .
187(7) . . .
188(7) . . .
174(7) . . .
186(8) . . .
196(8) . . .
196(7) . . .
181(7) . . .
188(7) . . .
182(7) . . .
213(8) . . .
186(7) . . .
219(8) . . .
185(7) . . .
200(8) . . .
189(8) . . .
207(7) . . .
191(7) . . .
194(8) . . .
192(8) . . .
192(8) . . .
196(7) . . .
183(7) . . .
188(8) . . .
183(7) . . .
190(7) . . .
176(7) . . .
192(7) . . .
185(8) . . .
180(7) . . .
180(7) . . .
205(7) . . .
179(7) . . .
179(7) . . .
210(8) . . .
193(7) . . .
192(7) . . .
203(8) . . .
182(7) . . .
204(8) . . .
190(7) . . .
191(7) . . .
196(7) . . .
187(8) . . .
180(7) . . .
198(7) . . .
180(7) . . .
178(7) . . .
183(8) . . .
206(8) . . .
189(7) . . .
199(7) . . .
189(7) . . .
212(8) . . .
199(7) . . .
176(7) . . .
184(7) . . .
198(8) . . .
188(8) . . .
163(7) . . .
205(7) . . .
183(7) . . .
182(7) . . .
186(8) . . .
191(7) . . .
177(7) . . .
210(8) . . .
177(7) . . .
177(8) . . .
182(7) . . .
185(7) . . .
177(7) . . .
185(8) . . .
170(7) . . .
169(7) . . .
189(7) . . .
204(8) . . .
194(8) . . .
186(7) . . .
169(7) . . .
185(7) . . .
197(7) . . .
169(7) . . .
190(7) . . .
193(7) . . .
190(7) . . .
187(7) . . .
190(8) . . .
177(7) . . .
181(7) . . .
153(6) . . .
192(8) . . .
171(7) . . .
187(7) . . .
192(7) . . .
171(7) . . .
196(7) . . .
191(8) . . .
187(7) . . .
193(7) . . .
201(7) . . .
184(7) . . .
194(8) . . .
181(7) . . .
181(7) . . .
176(7) . . .
170(7) . . .
194(8) . . .
181(7) . . .
169(7) . . .
178(7) . . .
181(7) . . .
182(7) . . .
218(8) . . .
183(7) . . .
179(7) . . .
185(7) . . .
179(7) . . .
174(7) . . .
170(7) . . .
189(7) . . .
182(7) . . .
207(8) . . .
184(7) . . .
173(7) . . .
184(7) . . .
188(7) . . .
209(8) . . .
171(7) . . .
195(7) . . .
186(8) . . .
187(8) . . .
160(7) . . .
180(7) . . .
185(7) . . .
186(7) . . .
188(8) . . .
191(7) . . .
192(7) . . .
181(7) . . .
187(7) . . .
195(8) . . .
175(7) . . .
170(7) . . .
207(7) . . .
199(8) . . .
176(7) . . .
183(7) . . .
182(7) . . .
185(7) . . .
174(7) . . .
188(8) . . .
213(8) . . .
187(7) . . .
193(7) . . .
188(7) . . .
171(7) . . .
175(7) . . .
172(7) . . .
188(7) . . .
189(8) . . .
179(7) . . .
179(7) . . .
184(7) . . .
193(7) . . .
200(8) . . .
175(7) . . .
181(7) . . .
180(7) . . .
183(7) . . .
194(8) . . .
199(8) . . .
200(8) . . .
175(7) . . .
192(7) . . .
181(7) . . .
187(7) . . .
188(7) . . .
195(7) . . .
193(8) . . .
188(7) . . .
175(7) . . .
194(7) . . .
190(7) . . .
198(8) . . .
177(7) . . .
196(7) . . .
187(7) . . .
200(7) . . .
203(8) . . .
197(8) . . .
199(8) . . .
195(7) . . .
184(7) . . .
180(7) . . .
185(7) . . .
199(8) . . .
177(7) . . .
196(7) . . .
175(7) . . .
165(7) . . .
165(7) . . .
190(7) . . .
174(7) . . .
164(7) . . .
178(7) . . .
180(7) . . .
166(7) . . .
189(7) . . .
170(7) . . .
180(7) . . .
184(7) . . .
204(7) . . .
197(7) . . .
174(7) . . .
198(8) . . .
187(7) . . .
176(7) . . .
169(7) . . .
177(7) . . .
177(7) . . .
179(7) . . .
201(7) . . .
197(7) . . .
191(7) . . .
186(7) . . .
182(7) . . .
182(7) . . .
193(8) . . .
188(7) . . .
174(7) . . .
178(7) . . .
200(7) . . .
173(7) . . .
170(7) . . .
174(7) . . .
185(7) . . .
176(7) . . .
170(7) . . .
189(8) . . .
162(7) . . .
157(6) . . .
162(7) . . .
179(7) . . .
179(7) . . .
184(7) . . .
179(7) . . .
175(7) . . .
190(7) . . .
179(7) . . .
179(7) . . .
176(7) . . .
178(7) . . .
192(7) . . .
180(8) . . .
161(7) . . .
185(7) . . .
172(7) . . .
180(7) . . .
167(7) . . .
177(7) . . .
172(7) . . .
163(7) . . .
187(7) . . .
198(8) . . .
169(7) . . .
177(7) . . .
202(7) . . .
184(7) . . .
175(7) . . .
177(7) . . .
178(7) . . .
163(7) . . .
167(7) . . .
186(7) . . .
183(7) . . .
171(7) . . .
176(7) . . .
162(7) . . .
177(7) . . .
169(7) . . .
175(7) . . .
191(8) . . .
209(8) . . .
176(7) . . .
182(7) . . .
199(7) . . .
184(7) . . .
181(7) . . .
190(7) . . .
189(7) . . .
174(7) . . .
182(7) . . .
190(8) . . .
184(7) . . .
194(7) . . .
177(7) . . .
196(8) . . .
186(8) . . .
203(8) . . .
194(7) . . .
193(7) . . .
201(8) . . .
193(8) . . .
179(7) . . .
192(7) . . .
175(7) . . .
180(7) . . .
194(8) . . .
188(7) . . .
174(7) . . .
188(7) . . .
175(7) . . .
183(7) . . .
168(7) . . .
190(7) . . .
171(7) . . .
177(7) . . .
172(7) . . .
186(7) . . .
177(7) . . .
165(7) . . .
182(7) . . .
171(7) . . .
177(7) . . .
191(7) . . .
173(7) . . .
181(7) . . .
175(7) . . .
163(7) . . .
168(7) . . .
175(7) . . .
186(7) . . .
172(7) . . .
147(6) . . .
174(7) . . .
179(7) . . .
177(7) . . .
167(7) . . .
171(7) . . .
192(7) . . .
198(8) . . .
172(7) . . .
163(7) . . .
166(7) . . .
193(7) . . .
193(7) . . .
198(8) . . .
205(8) . . .
176(7) . . .
170(7) . . .
170(7) . . .
198(8) . . .
169(7) . . .
184(7) . . .
162(7) . . .
181(7) . . .
173(7) . . .
181(7) . . .
170(7) . . .
176(7) . . .
183(7) . . .
161(7) . . .
176(7) . . .
174(7) . . .
177(7) . . .
190(7) . . .
192(8) . . .
164(7) . . .
171(7) . . .
179(7) . . .
181(7) . . .
163(7) . . .
175(7) . . .
173(7) . . .
194(7) . . .
174(7) . . .
178(7) . . .
179(7) . . .
184(7) . . .
153(7) . . .
172(7) . . .
161(7) . . .
158(7) . . .
170(7) . . .
168(7) . . .
181(7) . . .
180(7) . . .
167(7) . . .
166(7) . . .
186(7) . . .
169(7) . . .
176(7) . . .
183(7) . . .
165(7) . . .
177(7) . . .
176(7) . . .
181(7) . . .
168(7) . . .
169(7) . . .
179(7) . . .
171(7) . . .
183(7) . . .
187(7) . . .
181(7) . . .
190(7) . . .
184(8) . . .
188(8) . . .
174(7) . . .
179(7) . . .
176(7) . . .
172(7) . . .
172(7) . . .
182(7) . . .
170(7) . . .
167(7) . . .
161(7) . . .
172(7) . . .
160(7) . . .
186(7) . . .
185(7) . . .
175(7) . . .
152(6) . . .
178(7) . . .
170(7) . . .
177(8) . . .
173(7) . . .
176(7) . . .
173(7) . . .
181(7) . . .
182(7) . . .
191(8) . . .
166(7) . . .
170(7) . . .
188(7) . . .
179(7) . . .
176(7) . . .
191(7) . . .
166(7) . . .
196(8) . . .
196(8) . . .
185(7) . . .
180(7) . . .
158(7) . . .
161(7) . . .
175(7) . . .
177(7) . . .
168(7) . . .
194(7) . . .
182(7) . . .
188(8) . . .
165(7) . . .
183(7) . . .
172(7) . . .
172(7) . . .
180(7) . . .
151(7) . . .
173(7) . . .
165(7) . . .
163(7) . . .
170(7) . . .
172(7) . . .
167(7) . . .
171(7) . . .
169(7) . . .
180(7) . . .
183(7) . . .
173(7) . . .
178(7) . . .
166(7) . . .
172(7) . . .
195(8) . . .
178(7) . . .
173(7) . . .
178(7) . . .
184(8) . . .
187(7) . . .
183(7) . . .
163(7) . . .
162(7) . . .
161(7) . . .
176(7) . . .
189(7) . . .
181(7) . . .
193(8) . . .
162(7) . . .
164(7) . . .
160(7) . . .
160(7) . . .
178(7) . . .
172(7) . . .
172(7) . . .
173(7) . . .
159(7) . . .
151(7) . . .
175(7) . . .
183(7) . . .
186(7) . . .
177(7) . . .
166(7) . . .
160(7) . . .
195(7) . . .
150(6) . . .
164(7) . . .
169(7) . . .
160(7) . . .
173(7) . . .
176(7) . . .
186(8) . . .
171(7) . . .
170(7) . . .
179(7) . . .
162(7) . . .
183(7) . . .
170(7) . . .
181(7) . . .
150(6) . . .
165(7) . . .
182(7) . . .
176(7) . . .
178(7) . . .
171(7) . . .
179(7) . . .
185(7) . . .
189(7) . . .
200(8) . . .
163(7) . . .
167(7) . . .
168(7) . . .
176(7) . . .
184(7) . . .
178(7) . . .
168(7) . . .
199(8) . . .
186(7) . . .
185(7) . . .
167(7) . . .
194(7) . . .
190(8) . . .
186(7) . . .
177(7) . . .
188(7) . . .
197(7) . . .
183(7) . . .
199(8) . . .
200(7) . . .
179(7) . . .
150(6) . . .
184(8) . . .
174(7) . . .
171(7) . . .
187(7) . . .
175(7) . . .
185(8) . . .
196(7) . . .
185(7) . . .
185(7) . . .
174(7) . . .
195(8) . . .
188(8) . . .
192(7) . . .
156(7) . . .
184(7) . . .
180(7) . . .
183(7) . . .
176(7) . . .
175(7) . . .
193(8) . . .
184(7) . . .
174(7) . . .
163(7) . . .
162(7) . . .
177(7) . . .
189(8) . . .
173(7) . . .
178(7) . . .
189(7) . . .
173(7) . . .
178(7) . . .
180(7) . . .
165(7) . . .
176(7) . . .
161(7) . . .
175(7) . . .
156(7) . . .
175(7) . . .
177(7) . . .
169(7) . . .
181(7) . . .
169(7) . . .
161(7) . . .
162(7) . . .
172(7) . . .
167(7) . . .
172(7) . . .
178(7) . . .
175(7) . . .
168(7) . . .
177(7) . . .
160(7) . . .
185(7) . . .
186(7) . . .
160(7) . . .
170(7) . . .
160(7) . . .
169(7) . . .
177(7) . . .
193(8) . . .
193(8) . . .
170(7) . . .
154(7) . . .
164(7) . . .
166(7) . . .
172(7) . . .
181(7) . . .
193(7) . . .
185(7) . . .
195(8) . . .
170(7) . . .
174(7) . . .
185(7) . . .
193(8) . . .
186(7) . . .
200(8) . . .
192(7) . . .
183(7) . . .
186(7) . . .
180(7) . . .
169(7) . . .
181(7) . . .
204(8) . . .
167(7) . . .
187(8) . . .
176(7) . . .
183(7) . . .
186(7) . . .
178(7) . . .
173(7) . . .
155(7) . . .
154(6) . . .
166(7) . . .
165(7) . . .
194(8) . . .
194(7) . . .
168(7) . . .
163(7) . . .
167(7) . . .
177(7) . . .
165(7) . . .
202(7) . . .
190(7) . . .
184(8) . . .
172(7) . . .
195(7) . . .
178(7) . . .
188(8) . . .
176(8) . . .
169(7) . . .
160(7) . . .
166(7) . . .
173(7) . . .
201(8) . . .
173(7) . . .
166(7) . . .
204(7) . . .
191(7) . . .
179(7) . . .
181(7) . . .
174(7) . . .
161(7) . . .
180(7) . . .
182(7) . . .
172(7) . . .
192(7) . . .
198(7) . . .
182(7) . . .
176(7) . . .
185(7) . . .
179(7) . . .
187(7) . . .
180(7) . . .
188(7) . . .
180(7) . . .
175(7) . . .
177(7) . . .
158(7) . . .
187(7) . . .
173(7) . . .
181(7) . . .
181(7) . . .
170(7) . . .
181(7) . . .
195(7) . . .
179(7) . . .
201(8) . . .
193(8) . . .
184(7) . . .
168(7) . . .
193(7) . . .
164(7) . . .
180(7) . . .
188(7) . . .
172(7) . . .
175(7) . . .
179(7) . . .
192(8) . . .
145(6) . . .
178(7) . . .
191(7) . . .
197(7) . . .
162(7) . . .
172(7) . . .
191(7) . . .
172(7) . . .
180(7) . . .
183(7) . . .
182(8) . . .
182(7) . . .
161(7) . . .
170(7) . . .
173(7) . . .
183(7) . . .
183(7) . . .
180(7) . . .
163(7) . . .
182(7) . . .
206(8) . . .
182(7) . . .
173(7) . . .
174(7) . . .
154(7) . . .
169(7) . . .
190(7) . . .
171(7) . . .
176(7) . . .
173(7) . . .
173(7) . . .
165(7) . . .
186(7) . . .
163(7) . . .
166(7) . . .
176(7) . . .
167(7) . . .
216(8) . . .
189(8) . . .
191(7) . . .
181(7) . . .
186(7) . . .
164(7) . . .
195(8) . . .
211(8) . . .
181(7) . . .
168(7) . . .
186(7) . . .
170(7) . . .
168(7) . . .
185(7) . . .
178(7) . . .
173(7) . . .
195(8) . . .
187(7) . . .
187(7) . . .
175(7) . . .
173(7) . . .
180(7) . . .
179(7) . . .
185(7) . . .
205(7) . . .
192(8) . . .
179(7) . . .
187(7) . . .
176(7) . . .
184(7) . . .
165(7) . . .
184(7) . . .
195(7) . . .
191(7) . . .
190(7) . . .
187(7) . . .
190(7) . . .
199(8) . . .
167(7) . . .
174(7) . . .
199(8) . . .
194(8) . . .
174(7) . . .
166(7) . . .
194(8) . . .
190(8) . . .
185(7) . . .
184(7) . . .
181(7) . . .
174(7) . . .
167(7) . . .
165(7) . . .
178(7) . . .
182(7) . . .
187(7) . . .
196(8) . . .
168(7) . . .
176(7) . . .
192(7) . . .
166(7) . . .
178(8) . . .
168(7) . . .
173(7) . . .
170(7) . . .
160(7) . . .
164(7) . . .
157(7) . . .
160(7) . . .
169(7) . . .
188(7) . . .
177(7) . . .
173(7) . . .
169(7) . . .
162(7) . . .
164(7) . . .
180(7) . . .
170(7) . . .
167(7) . . .
168(7) . . .
190(7) . . .
184(8) . . .
172(7) . . .
174(7) . . .
183(7) . . .
179(7) . . .
182(7) . . .
175(7) . . .
167(7) . . .
170(7) . . .
189(7) . . .
174(7) . . .
189(7) . . .
181(7) . . .
180(7) . . .
171(7) . . .
192(7) . . .
198(7) . . .
181(7) . . .
179(7) . . .
180(7) . . .
164(7) . . .
178(7) . . .
176(7) . . .
183(7) . . .
191(8) . . .
178(7) . . .
171(7) . . .
170(7) . . .
152(7) . . .
165(7) . . .
169(7) . . .
174(7) . . .
179(7) . . .
177(7) . . .
188(8) . . .
181(7) . . .
155(6) . . .
159(7) . . .
170(7) . . .
173(7) . . .
186(7) . . .
187(7) . . .
187(7) . . .
179(7) . . .
165(7) . . .
191(8) . . .
172(7) . . .
168(7) . . .
176(7) . . .
164(7) . . .
181(7) . . .
172(7) . . .
165(7) . . .
194(8) . . .
178(7) . . .
167(7) . . .
176(7) . . .
185(7) . . .
172(7) . . .
175(7) . . .
173(7) . . .
180(7) . . .
190(8) . . .
179(7) . . .
183(7) . . .
178(7) . . .
167(7) . . .
186(8) . . .
189(7) . . .
183(7) . . .
189(7) . . .
181(7) . . .
160(7) . . .
166(7) . . .
149(6) . . .
178(7) . . .
164(7) . . .
164(7) . . .
166(7) . . .
188(7) . . .
170(7) . . .
177(7) . . .
175(7) . . .
167(7) . . .
164(7) . . .
174(7) . . .
187(7) . . .
178(7) . . .
183(8) . . .
159(7) . . .
165(7) . . .
173(7) . . .
168(7) . . .
172(7) . . .
183(7) . . .
170(7) . . .
182(7) . . .
184(7) . . .
187(7) . . .
170(7) . . .
183(7) . . .
186(7) . . .
174(7) . . .
180(7) . . .
147(6) . . .
162(7) . . .
177(7) . . .
176(7) . . .
180(7) . . .
171(7) . . .
160(7) . . .
184(7) . . .
181(8) . . .
183(7) . . .
179(7) . . .
165(7) . . .
178(7) . . .
177(7) . . .
167(7) . . .
171(7) . . .
175(7) . . .
181(7) . . .
165(7) . . .
192(7) . . .
174(7) . . .
154(7) . . .
184(7) . . .
174(7) . . .
177(7) . . .
161(7) . . .
182(7) . . .
171(7) . . .
185(8) . . .
176(7) . . .
189(7) . . .
161(6) . . .
174(7) . . .
162(7) . . .
181(7) . . .
184(7) . . .
161(7) . . .
165(7) . . .
159(7) . . .
166(7) . . .
180(7) . . .
181(7) . . .
175(7) . . .
185(7) . . .
179(7) . . .
179(7) . . .
148(6) . . .
195(8) . . .
202(8) . . .
177(7) . . .
183(7) . . .
171(7) . . .
180(7) . . .
208(8) . . .
171(7) . . .
166(7) . . .
185(7) . . .
198(8) . . .
184(7) . . .
167(7) . . .
189(7) . . .
173(7) . . .
180(7) . . .
167(7) . . .
180(7) . . .
174(7) . . .
184(7) . . .
190(8) . . .
170(7) . . .
191(7) . . .
199(7) . . .
177(7) . . .
163(7) . . .
164(7) . . .
185(7) . . .
179(7) . . .
166(7) . . .
153(7) . . .
180(7) . . .
180(7) . . .
175(7) . . .
167(7) . . .
177(7) . . .
176(7) . . .
180(7) . . .
169(7) . . .
163(7) . . .
189(8) . . .
179(7) . . .
172(7) . . .
177(7) . . .
177(7) . . .
189(7) . . .
181(7) . . .
168(7) . . .
155(7) . . .
173(7) . . .
164(7) . . .
161(7) . . .
184(7) . . .
175(7) . . .
165(7) . . .
182(7) . . .
175(7) . . .
168(7) . . .
190(7) . . .
171(7) . . .
189(7) . . .
174(7) . . .
153(6) . . .
178(7) . . .
179(7) . . .
176(7) . . .
164(7) . . .
184(7) . . .
166(7) . . .
168(7) . . .
158(7) . . .
179(7) . . .
167(7) . . .
160(7) . . .
168(7) . . .
176(7) . . .
200(7) . . .
184(7) . . .
167(7) . . .
171(7) . . .
163(7) . . .
172(7) . . .
172(7) . . .
186(7) . . .
176(7) . . .
161(7) . . .
180(7) . . .
176(7) . . .
185(7) . . .
167(7) . . .
169(7) . . .
193(7) . . .
191(7) . . .
163(7) . . .
167(7) . . .
153(7) . . .
180(7) . . .
179(7) . . .
182(7) . . .
185(7) . . .
180(7) . . .
158(6) . . .
178(7) . . .
174(7) . . .
183(7) . . .
187(7) . . .
172(7) . . .
192(7) . . .
170(7) . . .
169(7) . . .
189(7) . . .
193(7) . . .
191(7) . . .
172(7) . . .
194(8) . . .
168(7) . . .
180(7) . . .
191(8) . . .
172(7) . . .
192(8) . . .
175(7) . . .
170(7) . . .
196(8) . . .
191(7) . . .
200(7) . . .
172(7) . . .
184(7) . . .
172(7) . . .
164(7) . . .
183(7) . . .
173(7) . . .
163(7) . . .
183(7) . . .
180(7) . . .
168(7) . . .
180(7) . . .
196(7) . . .
195(8) . . .
172(7) . . .
178(7) . . .
181(7) . . .
192(7) . . .
208(8) . . .
190(8) . . .
185(8) . . .
170(7) . . .
186(7) . . .
187(7) . . .
181(7) . . .
178(7) . . .
159(7) . . .
173(7) . . .
178(7) . . .
178(7) . . .
179(7) . . .
181(7) . . .
155(7) . . .
175(7) . . .
192(8) . . .
180(7) . . .
187(7) . . .
188(7) . . .
171(7) . . .
177(7) . . .
162(7) . . .
162(7) . . .
182(7) . . .
167(7) . . .
172(7) . . .
158(7) . . .
167(7) . . .
167(7) . . .
179(8) . . .
188(7) . . .
174(7) . . .
166(7) . . .
172(7) . . .
185(8) . . .
170(7) . . .
175(7) . . .
162(7) . . .
171(7) . . .
174(8) . . .
177(7) . . .
175(7) . . .
175(7) . . .
177(7) . . .
171(7) . . .
172(7) . . .
178(7) . . .
165(7) . . .
172(7) . . .
170(7) . . .
176(7) . . .
163(7) . . .
169(7) . . .
182(7) . . .
166(7) . . .
177(7) . . .
178(7) . . .
172(7) . . .
193(8) . . .
171(7) . . .
168(7) . . .
171(7) . . .
169(7) . . .
176(7) . . .
177(7) . . .
180(7) . . .
189(7) . . .
168(7) . . .
165(7) . . .
166(7) . . .
149(6) . . .
170(7) . . .
176(7) . . .
163(7) . . .
169(7) . . .
170(7) . . .
180(7) . . .
165(7) . . .
163(7) . . .
195(8) . . .
181(7) . . .
198(7) . . .
187(7) . . .
162(7) . . .
161(7) . . .
190(7) . . .
185(7) . . .
184(7) . . .
181(7) . . .
180(7) . . .
182(7) . . .
167(7) . . .
174(7) . . .
179(7) . . .
184(7) . . .
176(7) . . .
172(7) . . .
185(7) . . .
179(7) . . .
177(7) . . .
181(7) . . .
168(7) . . .
183(7) . . .
177(7) . . .
172(7) . . .
175(7) . . .
175(7) . . .
168(7) . . .
169(7) . . .
162(7) . . .
163(7) . . .
166(7) . . .
176(7) . . .
180(7) . . .
189(7) . . .
175(7) . . .
187(7) . . .
174(7) . . .
164(7) . . .
201(8) . . .
177(7) . . .
183(7) . . .
186(8) . . .
180(7) . . .
164(7) . . .
170(7) . . .
181(7) . . .
179(7) . . .
156(7) . . .
165(7) . . .
176(7) . . .
172(7) . . .
187(8) . . .
163(7) . . .
178(7) . . .
173(7) . . .
180(7) . . .
170(7) . . .
170(7) . . .
186(7) . . .
161(7) . . .
170(7) . . .
156(7) . . .
164(7) . . .
152(6) . . .
178(7) . . .
193(7) . . .
164(7) . . .
155(7) . . .
168(7) . . .
195(7) . . .
172(7) . . .
195(8) . . .
191(7) . . .
173(7) . . .
160(7) . . .
166(7) . . .
163(7) . . .
178(7) . . .
195(7) . . .
174(7) . . .
171(7) . . .
172(7) . . .
177(7) . . .
172(7) . . .
161(7) . . .
177(7) . . .
171(7) . . .
157(7) . . .
161(7) . . .
161(7) . . .
171(7) . . .
168(7) . . .
164(7) . . .
177(7) . . .
160(7) . . .
150(7) . . .
156(7) . . .
153(6) . . .
171(7) . . .
175(7) . . .
167(7) . . .
168(7) . . .
157(6) . . .
161(7) . . .
162(7) . . .
181(8) . . .
177(7) . . .
175(7) . . .
173(7) . . .
170(7) . . .
178(7) . . .
178(7) . . .
161(7) . . .
163(7) . . .
161(7) . . .
164(7) . . .
181(7) . . .
171(7) . . .
155(7) . . .
151(7) . . .
165(7) . . .
174(7) . . .
161(7) . . .
166(7) . . .
185(7) . . .
181(7) . . .
162(7) . . .
164(7) . . .
157(7) . . .
167(7) . . .
173(7) . . .
186(7) . . .
184(7) . . .
160(7) . . .
180(7) . . .
189(8) . . .
185(7) . . .
168(7) . . .
172(7) . . .
182(7) . . .
188(7) . . .
173(7) . . .
165(7) . . .
175(7) . . .
169(7) . . .
157(7) . . .
153(7) . . .
172(7) . . .
183(7) . . .
174(7) . . .
166(7) . . .
166(7) . . .
162(7) . . .
165(7) . . .
182(7) . . .
184(7) . . .
176(7) . . .
191(7) . . .
174(7) . . .
192(8) . . .
180(7) . . .
181(7) . . .
156(6) . . .
173(7) . . .
160(7) . . .
173(7) . . .
160(7) . . .
156(7) . . .
175(7) . . .
175(7) . . .
194(8) . . .
177(7) . . .
170(7) . . .
175(7) . . .
167(7) . . .
166(7) . . .
186(7) . . .
177(7) . . .
171(7) . . .
178(7) . . .
176(7) . . .
171(7) . . .
185(7) . . .
166(7) . . .
154(7) . . .
170(7) . . .
176(7) . . .
167(7) . . .
187(7) . . .
179(7) . . .
174(7) . . .
160(7) . . .
180(7) . . .
183(7) . . .
175(7) . . .
163(7) . . .
170(7) . . .
155(7) . . .
171(7) . . .
163(7) . . .
170(7) . . .
191(7) . . .
188(7) . . .
177(7) . . .
194(7) . . .
175(7) . . .
176(7) . . .
157(7) . . .
163(7) . . .
173(7) . . .
153(6) . . .
156(7) . . .
169(7) . . .
168(7) . . .
166(7) . . .
188(7) . . .
177(7) . . .
152(6) . . .
167(7) . . .
177(7) . . .
152(6) . . .
151(6) . . .
174(7) . . .
157(7) . . .
161(7) . . .
167(7) . . .
153(6) . . .
167(7) . . .
160(7) . . .
179(7) . . .
155(6) . . .
157(7) . . .
157(7) . . .
163(7) . . .
187(7) . . .
168(7) . . .
159(7) . . .
162(7) . . .
181(7) . . .
179(7) . . .
167(7) . . .
161(7) . . .
169(7) . . .
161(7) . . .
170(7) . . .
171(7) . . .
162(7) . . .
175(7) . . .
177(7) . . .
169(7) . . .
173(7) . . .
171(7) . . .
178(8) . . .
162(7) . . .
174(7) . . .
173(7) . . .
184(7) . . .
158(7) . . .
157(7) . . .
160(7) . . .
175(7) . . .
173(7) . . .
179(8) . . .
167(7) . . .
178(7) . . .
182(7) . . .
165(7) . . .
184(8) . . .
154(7) . . .
164(7) . . .
153(7) . . .
163(7) . . .
192(8) . . .
186(7) . . .
176(7) . . .
178(7) . . .
172(7) . . .
171(7) . . .
181(7) . . .
161(7) . . .
162(7) . . .
184(7) . . .
170(7) . . .
164(7) . . .
183(7) . . .
166(7) . . .
171(7) . . .
181(7) . . .
181(7) . . .
176(7) . . .
176(7) . . .
165(7) . . .
177(7) . . .
175(7) . . .
176(7) . . .
170(7) . . .
168(7) . . .
168(7) . . .
167(7) . . .
157(6) . . .
180(7) . . .
154(7) . . .
176(7) . . .
168(7) . . .
176(7) . . .
162(7) . . .
172(7) . . .
175(7) . . .
176(7) . . .
157(6) . . .
157(7) . . .
182(8) . . .
176(7) . . .
168(7) . . .
174(7) . . .
184(7) . . .
159(7) . . .
158(7) . . .
164(7) . . .
161(7) . . .
186(8) . . .
174(7) . . .
166(7) . . .
177(7) . . .
186(7) . . .
180(7) . . .
165(7) . . .
175(7) . . .
162(7) . . .
149(6) . . .
166(7) . . .
160(7) . . .
157(7) . . .
169(7) . . .
168(7) . . .
165(7) . . .
160(7) . . .
151(6) . . .
171(7) . . .
173(7) . . .
152(7) . . .
170(7) . . .
167(7) . . .
166(7) . . .
173(7) . . .
159(7) . . .
170(7) . . .
153(6) . . .
155(6) . . .
169(7) . . .
160(7) . . .
161(7) . . .
167(7) . . .
177(7) . . .
159(7) . . .
161(7) . . .
160(7) . . .
179(7) . . .
159(6) . . .
162(7) . . .
156(7) . . .
166(7) . . .
171(7) . . .
146(6) . . .
174(7) . . .
170(7) . . .
164(7) . . .
160(7) . . .
171(7) . . .
169(7) . . .
144(6) . . .
173(7) . . .
160(7) . . .
157(6) . . .
170(7) . . .
168(7) . . .
160(7) . . .
156(6) . . .
175(7) . . .
184(8) . . .
175(7) . . .
159(7) . . .
172(7) . . .
172(7) . . .
168(7) . . .
168(7) . . .
166(7) . . .
153(6) . . .
155(7) . . .
165(7) . . .
168(7) . . .
168(7) . . .
145(6) . . .
166(7) . . .
175(7) . . .
181(7) . . .
186(7) . . .
171(7) . . .
187(7) . . .
176(7) . . .
163(7) . . .
158(7) . . .
159(7) . . .
154(7) . . .
173(7) . . .
170(7) . . .
163(7) . . .
166(7) . . .
187(7) . . .
178(7) . . .
165(7) . . .
190(7) . . .
179(7) . . .
152(7) . . .
160(7) . . .
167(7) . . .
168(7) . . .
166(7) . . .
177(7) . . .
152(7) . . .
174(7) . . .
158(6) . . .
148(6) . . .
164(7) . . .
175(7) . . .
159(7) . . .
191(7) . . .
173(7) . . .
180(7) . . .
180(7) . . .
167(7) . . .
167(7) . . .
193(7) . . .
168(7) . . .
177(7) . . .
157(7) . . .
176(7) . . .
176(7) . . .
177(7) . . .
167(7) . . .
183(7) . . .
177(7) . . .
176(7) . . .
171(7) . . .
170(7) . . .
164(7) . . .
177(7) . . .
157(7) . . .
167(7) . . .
173(7) . . .
183(7) . . .
185(7) . . .
179(7) . . .
166(7) . . .
172(7) . . .
171(7) . . .
166(7) . . .
173(7) . . .
187(8) . . .
173(7) . . .
168(7) . . .
164(7) . . .
178(7) . . .
152(7) . . .
141(6) . . .
168(7) . . .
169(7) . . .
145(6) . . .
167(7) . . .
165(7) . . .
161(7) . . .
163(7) . . .
160(7) . . .
167(7) . . .
173(7) . . .
176(7) . . .
164(7) . . .
164(7) . . .
162(7) . . .
146(7) . . .
146(6) . . .
160(7) . . .
156(7) . . .
172(7) . . .
173(7) . . .
172(7) . . .
171(7) . . .
174(7) . . .
162(7) . . .
167(7) . . .
155(6) . . .
154(7) . . .
145(6) . . .
169(7) . . .
167(7) . . .
172(7) . . .
153(7) . . .
167(7) . . .
151(7) . . .
179(7) . . .
177(7) . . .
188(7) . . .
181(7) . . .
177(7) . . .
182(7) . . .
167(7) . . .
168(7) . . .
170(7) . . .
157(7) . . .
182(7) . . .
176(7) . . .
155(7) . . .
183(8) . . .
163(7) . . .
166(7) . . .
160(7) . . .
175(7) . . .
160(7) . . .
152(6) . . .
176(7) . . .
169(7) . . .
165(7) . . .
173(7) . . .
152(7) . . .
175(7) . . .
167(7) . . .
166(7) . . .
170(7) . . .
144(6) . . .
153(6) . . .
174(7) . . .
167(7) . . .
182(7) . . .
173(7) . . .
157(6) . . .
169(7) . . .
159(7) . . .
154(6) . . .
162(7) . . .
158(6) . . .
166(7) . . .
176(7) . . .
166(7) . . .
152(6) . . .
179(7) . . .
165(7) . . .
173(7) . . .
150(6) . . .
183(7) . . .
157(6) . . .
159(7) . . .
180(8) . . .
185(7) . . .
179(7) . . .
185(7) . . .
170(7) . . .
158(7) . . .
175(7) . . .
183(7) . . .
164(7) . . .
186(7) . . .
162(7) . . .
170(7) . . .
169(7) . . .
158(7) . . .
163(7) . . .
155(7) . . .
171(7) . . .
164(7) . . .
177(7) . . .
172(7) . . .
167(7) . . .
176(7) . . .
150(6) . . .
179(7) . . .
167(7) . . .
171(7) . . .
164(7) . . .
174(7) . . .
169(7) . . .
171(7) . . .
139(6) . . .
148(7) . . .
152(6) . . .
168(7) . . .
173(7) . . .
163(7) . . .
169(7) . . .
181(7) . . .
169(7) . . .
170(7) . . .
146(6) . . .
173(7) . . .
166(7) . . .
176(7) . . .
158(7) . . .
164(7) . . .
159(7) . . .
174(7) . . .
155(7) . . .
156(7) . . .
173(7) . . .
171(7) . . .
161(7) . . .
160(7) . . .
155(7) . . .
169(7) . . .
163(7) . . .
140(6) . . .
156(7) . . .
157(7) . . .
178(7) . . .
163(7) . . .
160(7) . . .
174(7) . . .
141(6) . . .
179(7) . . .
152(6) . . .
152(6) . . .
174(7) . . .
161(7) . . .
142(7) . . .
173(7) . . .
178(7) . . .
178(7) . . .
166(7) . . .
160(7) . . .
168(7) . . .
179(7) . . .
156(7) . . .
178(7) . . .
164(7) . . .
178(7) . . .
154(7) . . .
182(7) . . .
154(7) . . .
171(7) . . .
174(7) . . .
184(7) . . .
170(7) . . .
181(7) . . .
168(7) . . .
160(7) . . .
170(7) . . .
141(6) . . .
163(7) . . .
168(7) . . .
158(6) . . .
157(7) . . .
159(7) . . .
172(7) . . .
184(7) . . .
162(7) . . .
151(7) . . .
183(8) . . .
190(7) . . .
176(7) . . .
170(7) . . .
154(7) . . .
153(7) . . .
158(7) . . .
163(7) . . .
173(7) . . .
163(7) . . .
151(7) . . .
157(7) . . .
166(7) . . .
168(7) . . .
177(7) . . .
168(7) . . .
179(7) . . .
191(7) . . .
171(7) . . .
165(7) . . .
164(7) . . .
180(7) . . .
179(7) . . .
188(7) . . .
183(7) . . .
164(7) . . .
151(7) . . .
171(7) . . .
170(7) . . .
180(7) . . .
167(7) . . .
165(7) . . .
163(7) . . .
153(7) . . .
155(7) . . .
166(7) . . .
170(7) . . .
167(7) . . .
165(7) . . .
174(7) . . .
179(7) . . .
171(7) . . .
166(7) . . .
143(6) . . .
170(7) . . .
169(7) . . .
168(7) . . .
184(7) . . .
151(7) . . .
160(7) . . .
175(7) . . .
182(7) . . .
161(7) . . .
170(7) . . .
167(7) . . .
148(6) . . .
164(7) . . .
172(7) . . .
166(7) . . .
151(7) . . .
162(7) . . .
167(7) . . .
175(7) . . .
158(7) . . .
151(7) . . .
153(7) . . .
168(7) . . .
156(7) . . .
167(7) . . .
161(7) . . .
144(6) . . .
162(7) . . .
156(7) . . .
157(7) . . .
162(7) . . .
159(7) . . .
178(7) . . .
167(7) . . .
171(7) . . .
168(7) . . .
174(7) . . .
159(7) . . .
171(7) . . .
156(7) . . .
172(7) . . .
174(7) . . .
163(7) . . .
161(7) . . .
160(7) . . .
174(7) . . .
177(7) . . .
174(7) . . .
171(7) . . .
161(7) . . .
152(6) . . .
160(7) . . .
179(7) . . .
161(7) . . .
168(7) . . .
152(6) . . .
170(7) . . .
156(6) . . .
152(6) . . .
176(7) . . .
144(6) . . .
167(7) . . .
172(7) . . .
157(7) . . .
142(7) . . .
152(7) . . .
151(6) . . .
169(7) . . .
174(7) . . .
174(7) . . .
174(7) . . .
164(7) . . .
165(7) . . .
174(7) . . .
176(7) . . .
175(7) . . .
161(7) . . .
167(7) . . .
151(7) . . .
158(7) . . .
148(7) . . .
152(6) . . .
158(7) . . .
167(7) . . .
163(7) . . .
154(7) . . .
158(6) . . .
151(7) . . .
163(7) . . .
172(7) . . .
160(7) . . .
161(7) . . .
151(6) . . .
191(8) . . .
178(7) . . .
163(7) . . .
168(7) . . .
154(7) . . .
161(7) . . .
143(6) . . .
175(7) . . .
173(7) . . .
170(7) . . .
156(7) . . .
161(7) . . .
154(7) . . .
139(6) . . .
167(7) . . .
151(7) . . .
149(7) . . .
177(7) . . .
162(7) . . .
160(7) . . .
174(7) . . .
140(6) . . .
152(7) . . .
168(7) . . .
137(6) . . .
170(7) . . .
196(8) . . .
175(7) . . .
176(7) . . .
165(7) . . .
168(7) . . .
162(7) . . .
152(6) . . .
162(7) . . .
174(7) . . .
167(7) . . .
166(7) . . .
165(7) . . .
149(6) . . .
157(7) . . .
161(7) . . .
152(7) . . .
169(7) . . .
135(6) . . .
155(7) . . .
172(7) . . .
168(7) . . .
149(6) . . .
157(7) . . .
154(7) . . .
155(7) . . .
156(7) . . .
163(7) . . .
168(7) . . .
155(7) . . .
170(7) . . .
167(7) . . .
162(7) . . .
169(7) . . .
179(7) . . .
161(7) . . .
154(6) . . .
165(7) . . .
179(7) . . .
171(7) . . .
162(7) . . .
158(7) . . .
158(6) . . .
153(7) . . .
153(7) . . .
154(7) . . .
159(6) . . .
157(6) . . .
167(7) . . .
163(7) . . .
169(7) . . .
172(7) . . .
166(7) . . .
164(7) . . .
157(7) . . .
161(7) . . .
130(6) . . .
148(6) . . .
146(6) . . .
153(7) . . .
149(7) . . .
151(6) . . .
151(6) . . .
157(7) . . .
157(7) . . .
159(7) . . .
162(7) . . .
155(7) . . .
154(7) . . .
164(7) . . .
178(7) . . .
167(7) . . .
164(7) . . .
168(7) . . .
145(6) . . .
162(7) . . .
161(7) . . .
171(7) . . .
150(6) . . .
167(7) . . .
175(7) . . .
154(6) . . .
154(7) . . .
153(7) . . .
170(7) . . .
176(7) . . .
162(7) . . .
151(7) . . .
157(7) . . .
176(7) . . .
158(7) . . .
166(7) . . .
170(7) . . .
152(7) . . .
159(7) . . .
155(6) . . .
150(6) . . .
156(7) . . .
148(7) . . .
164(7) . . .
159(7) . . .
164(7) . . .
144(6) . . .
174(7) . . .
154(7) . . .
144(6) . . .
144(6) . . .
154(7) . . .
153(7) . . .
164(7) . . .
163(7) . . .
178(7) . . .
156(7) . . .
173(7) . . .
173(7) . . .
173(7) . . .
157(7) . . .
153(7) . . .
177(7) . . .
164(7) . . .
149(6) . . .
155(7) . . .
158(7) . . .
148(7) . . .
151(6) . . .
167(7) . . .
159(7) . . .
164(7) . . .
173(7) . . .
153(7) . . .
162(7) . . .
157(7) . . .
166(7) . . .
172(7) . . .
157(6) . . .
176(7) . . .
147(6) . . .
162(7) . . .
147(6) . . .
178(7) . . .
163(7) . . .
152(7) . . .
171(7) . . .
153(7) . . .
161(7) . . .
161(7) . . .
172(7) . . .
163(7) . . .
152(6) . . .
164(7) . . .
150(6) . . .
162(7) . . .
160(7) . . .
151(7) . . .
169(7) . . .
160(7) . . .
161(7) . . .
157(7) . . .
151(7) . . .
159(7) . . .
169(7) . . .
164(7) . . .
136(6) . . .
151(7) . . .
156(6) . . .
166(7) . . .
160(7) . . .
157(7) . . .
172(7) . . .
151(6) . . .
159(7) . . .
168(7) . . .
157(7) . . .
140(6) . . .
170(7) . . .
168(7) . . .
163(7) . . .
146(6) . . .
155(7) . . .
157(6) . . .
148(6) . . .
159(7) . . .
161(7) . . .
173(7) . . .
156(6) . . .
153(7) . . .
156(7) . . .
156(7) . . .
160(7) . . .
162(7) . . .
168(7) . . .
155(7) . . .
143(6) . . .
153(6) . . .
158(6) . . .
157(7) . . .
161(7) . . .
158(7) . . .
166(7) . . .
150(6) . . .
146(6) . . .
147(7) . . .
156(7) . . .
153(6) . . .
173(7) . . .
167(7) . . .
157(7) . . .
155(7) . . .
167(7) . . .
165(7) . . .
154(6) . . .
173(7) . . .
178(7) . . .
153(6) . . .
161(7) . . .
156(7) . . .
161(7) . . .
163(7) . . .
146(6) . . .
159(7) . . .
156(7) . . .
149(7) . . .
153(7) . . .
164(7) . . .
158(7) . . .
166(7) . . .
158(7) . . .
155(7) . . .
168(7) . . .
159(7) . . .
149(6) . . .
172(7) . . .
153(7) . . .
140(6) . . .
190(7) . . .
188(7) . . .
157(6) . . .
160(7) . . .
162(7) . . .
152(7) . . .
172(7) . . .
161(7) . . .
164(7) . . .
166(7) . . .
160(7) . . .
147(7) . . .
146(7) . . .
165(7) . . .
176(7) . . .
157(7) . . .
169(7) . . .
158(7) . . .
157(7) . . .
171(7) . . .
147(6) . . .
158(7) . . .
151(6) . . .
149(6) . . .
159(7) . . .
177(7) . . .
169(7) . . .
181(8) . . .
158(7) . . .
166(7) . . .
154(7) . . .
169(7) . . .
177(7) . . .
160(7) . . .
165(7) . . .
168(7) . . .
156(7) . . .
171(7) . . .
159(7) . . .
168(7) . . .
165(7) . . .
154(7) . . .
162(7) . . .
148(6) . . .
153(7) . . .
175(7) . . .
160(7) . . .
159(7) . . .
172(7) . . .
149(7) . . .
160(7) . . .
163(7) . . .
153(6) . . .
149(6) . . .
184(7) . . .
166(7) . . .
148(7) . . .
166(7) . . .
158(6) . . .
169(7) . . .
165(7) . . .
170(7) . . .
170(7) . . .
148(6) . . .
164(7) . . .
163(7) . . .
165(7) . . .
162(7) . . .
158(7) . . .
157(7) . . .
147(7) . . .
151(7) . . .
153(6) . . .
159(7) . . .
154(7) . . .
159(7) . . .
160(7) . . .
152(6) . . .
157(7) . . .
162(7) . . .
164(7) . . .
143(6) . . .
149(6) . . .
166(7) . . .
162(7) . . .
159(7) . . .
173(7) . . .
162(7) . . .
170(7) . . .
154(7) . . .
150(7) . . .
171(7) . . .
180(7) . . .
149(7) . . .
146(7) . . .
157(7) . . .
168(7) . . .
142(6) . . .
166(7) . . .
160(7) . . .
153(7) . . .
152(6) . . .
159(7) . . .
158(7) . . .
158(7) . . .
168(7) . . .
154(6) . . .
158(7) . . .
164(7) . . .
166(7) . . .
165(7) . . .
163(7) . . .
157(7) . . .
175(7) . . .
178(7) . . .
158(7) . . .
144(6) . . .
167(7) . . .
172(7) . . .
175(7) . . .
149(6) . . .
162(7) . . .
167(7) . . .
177(7) . . .
159(7) . . .
166(7) . . .
163(7) . . .
147(6) . . .
150(7) . . .
168(7) . . .
147(6) . . .
157(7) . . .
141(6) . . .
150(7) . . .
154(7) . . .
153(7) . . .
151(6) . . .
167(7) . . .
165(7) . . .
158(7) . . .
153(7) . . .
148(6) . . .
152(6) . . .
147(6) . . .
165(7) . . .
169(7) . . .
168(7) . . .
162(7) . . .
157(7) . . .
162(7) . . .
151(6) . . .
159(7) . . .
167(7) . . .
133(6) . . .
162(7) . . .
174(7) . . .
155(6) . . .
134(6) . . .
155(7) . . .
148(6) . . .
141(6) . . .
141(6) . . .
143(6) . . .
144(7) . . .
163(7) . . .
167(7) . . .
145(6) . . .
149(6) . . .
154(7) . . .
139(6) . . .
135(6) . . .
158(7) . . .
150(7) . . .
157(7) . . .
154(7) . . .
157(7) . . .
144(6) . . .
157(7) . . .
159(7) . . .
151(7) . . .
153(6) . . .
159(7) . . .
147(6) . . .
165(7) . . .
156(7) . . .
155(6) . . .
151(7) . . .
157(7) . . .
148(7) . . .
159(7) . . .
165(7) . . .
153(7) . . .
167(7) . . .
163(7) . . .
125(6) . . .
162(7) . . .
154(7) . . .
156(7) . . .
153(7) . . .
155(6) . . .
154(6) . . .
153(7) . . .
168(7) . . .
165(7) . . .
174(7) . . .
141(6) . . .
141(6) . . .
164(7) . . .
163(7) . . .
153(7) . . .
170(7) . . .
152(7) . . .
161(7) . . .
158(7) . . .
171(7) . . .
175(7) . . .
169(7) . . .
156(7) . . .
159(7) . . .
168(7) . . .
159(7) . . .
171(7) . . .
177(7) . . .
160(7) . . .
166(7) . . .
172(7) . . .
161(7) . . .
162(7) . . .
177(7) . . .
151(6) . . .
162(7) . . .
161(7) . . .
160(7) . . .
165(7) . . .
154(6) . . .
149(6) . . .
145(6) . . .
165(7) . . .
177(7) . . .
153(6) . . .
154(7) . . .
144(6) . . .
127(6) . . .
167(7) . . .
156(6) . . .
168(7) . . .
168(7) . . .
146(6) . . .
168(7) . . .
158(7) . . .
151(7) . . .
166(7) . . .
144(6) . . .
150(6) . . .
154(6) . . .
181(7) . . .
170(7) . . .
146(6) . . .
148(6) . . .
150(6) . . .
168(7) . . .
163(7) . . .
158(7) . . .
174(7) . . .
169(7) . . .
148(7) . . .
138(6) . . .
161(7) . . .
152(6) . . .
162(7) . . .
176(7) . . .
156(7) . . .
153(7) . . .
165(7) . . .
158(7) . . .
140(6) . . .
156(7) . . .
154(7) . . .
144(6) . . .
140(6) . . .
166(7) . . .
160(7) . . .
153(7) . . .
154(7) . . .
148(7) . . .
177(7) . . .
149(7) . . .
138(6) . . .
152(6) . . .
145(6) . . .
143(6) . . .
163(7) . . .
148(6) . . .
163(7) . . .
157(7) . . .
162(7) . . .
151(7) . . .
128(6) . . .
158(7) . . .
148(7) . . .
135(6) . . .
145(7) . . .
154(7) . . .
145(6) . . .
150(6) . . .
137(6) . . .
163(7) . . .
152(6) . . .
160(7) . . .
165(7) . . .
132(6) . . .
156(7) . . .
134(6) . . .
162(7) . . .
153(6) . . .
149(7) . . .
140(6) . . .
152(6) . . .
168(7) . . .
152(7) . . .
153(7) . . .
160(7) . . .
144(6) . . .
157(7) . . .
169(7) . . .
146(7) . . .
149(7) . . .
164(7) . . .
154(6) . . .
142(6) . . .
156(7) . . .
160(7) . . .
153(6) . . .
143(6) . . .
151(7) . . .
162(7) . . .
152(6) . . .
153(6) . . .
167(7) . . .
159(7) . . .
150(7) . . .
165(7) . . .
159(7) . . .
151(6) . . .
151(7) . . .
161(7) . . .
146(6) . . .
159(7) . . .
147(7) . . .
142(7) . . .
148(7) . . .
138(6) . . .
181(7) . . .
168(7) . . .
151(7) . . .
155(7) . . .
172(7) . . .
160(7) . . .
153(7) . . .
140(6) . . .
166(7) . . .
156(7) . . .
158(7) . . .
154(7) . . .
157(7) . . .
163(7) . . .
143(6) . . .
149(6) . . .
147(6) . . .
146(7) . . .
157(7) . . .
147(6) . . .
159(7) . . .
135(6) . . .
145(7) . . .
165(7) . . .
179(7) . . .
136(6) . . .
150(7) . . .
141(6) . . .
145(6) . . .
170(7) . . .
150(6) . . .
160(7) . . .
159(7) . . .
167(7) . . .
149(6) . . .
162(7) . . .
154(7) . . .
162(7) . . .
153(6) . . .
158(7) . . .
136(6) . . .
143(6) . . .
152(7) . . .
158(7) . . .
149(6) . . .
153(7) . . .
162(7) . . .
150(7) . . .
149(6) . . .
156(7) . . .
147(7) . . .
145(6) . . .
141(6) . . .
160(7) . . .
159(6) . . .
153(7) . . .
153(7) . . .
160(7) . . .
151(7) . . .
162(7) . . .
158(7) . . .
157(7) . . .
139(6) . . .
152(7) . . .
148(6) . . .
152(7) . . .
159(7) . . .
160(7) . . .
149(6) . . .
148(6) . . .
154(7) . . .
140(7) . . .
139(6) . . .
149(6) . . .
152(6) . . .
144(6) . . .
168(7) . . .
163(7) . . .
161(7) . . .
157(7) . . .
146(6) . . .
140(6) . . .
149(6) . . .
174(7) . . .
153(6) . . .
154(7) . . .
150(7) . . .
146(6) . . .
155(6) . . .
160(7) . . .
152(7) . . .
147(7) . . .
145(6) . . .
139(6) . . .
150(6) . . .
170(7) . . .
138(6) . . .
152(7) . . .
141(6) . . .
152(7) . . .
142(6) . . .
146(7) . . .
152(7) . . .
145(6) . . .
154(7) . . .
156(7) . . .
152(7) . . .
169(7) . . .
162(7) . . .
147(6) . . .
139(6) . . .
145(6) . . .
142(6) . . .
158(7) . . .
150(6) . . .
145(7) . . .
163(7) . . .
137(6) . . .
146(6) . . .
139(6) . . .
135(6) . . .
170(7) . . .
163(7) . . .
149(7) . . .
157(7) . . .
152(7) . . .
151(7) . . .
148(6) . . .
151(7) . . .
151(7) . . .
149(7) . . .
153(7) . . .
150(6) . . .
163(7) . . .
146(6) . . .
149(7) . . .
142(6) . . .
142(6) . . .
148(6) . . .
159(7) . . .
145(6) . . .
149(6) . . .
130(6) . . .
163(7) . . .
134(6) . . .
146(7) . . .
160(7) . . .
140(6) . . .
129(6) . . .
154(7) . . .
158(7) . . .
129(6) . . .
150(6) . . .
129(6) . . .
135(6) . . .
158(7) . . .
158(7) . . .
152(6) . . .
146(6) . . .
153(7) . . .
155(7) . . .
156(6) . . .
152(6) . . .
143(6) . . .
153(7) . . .
151(7) . . .
147(6) . . .
150(6) . . .
140(6) . . .
143(7) . . .
141(6) . . .
156(7) . . .
170(7) . . .
136(6) . . .
162(7) . . .
146(7) . . .
144(6) . . .
149(6) . . .
147(6) . . .
152(7) . . .
146(7) . . .
162(7) . . .
164(7) . . .
147(7) . . .
154(7) . . .
150(7) . . .
151(6) . . .
146(6) . . .
146(7) . . .
145(6) . . .
154(7) . . .
156(6) . . .
167(7) . . .
147(6) . . .
146(7) . . .
156(7) . . .
153(6) . . .
152(7) . . .
142(6) . . .
152(7) . . .
143(6) . . .
132(6) . . .
144(7) . . .
148(7) . . .
146(7) . . .
157(7) . . .
145(6) . . .
141(7) . . .
147(7) . . .
164(7) . . .
151(6) . . .
126(6) . . .
159(7) . . .
147(7) . . .
149(6) . . .
154(6) . . .
151(7) . . .
169(7) . . .
155(7) . . .
152(6) . . .
148(6) . . .
156(7) . . .
162(7) . . .
149(7) . . .
151(7) . . .
153(6) . . .
156(7) . . .
154(7) . . .
155(7) . . .
158(7) . . .
158(6) . . .
157(7) . . .
151(7) . . .
170(7) . . .
146(7) . . .
152(6) . . .
176(7) . . .
157(7) . . .
154(7) . . .
165(7) . . .
147(6) . . .
163(7) . . .
155(7) . . .
153(7) . . .
181(7) . . .
170(7) . . .
163(7) . . .
148(7) . . .
136(6) . . .
162(7) . . .
154(6) . . .
145(6) . . .
156(7) . . .
162(7) . . .
160(7) . . .
165(7) . . .
179(7) . . .
167(7) . . .
179(7) . . .
162(7) . . .
163(7) . . .
159(7) . . .
158(7) . . .
153(7) . . .
147(6) . . .
157(6) . . .
155(7) . . .
173(7) . . .
178(7) . . .
182(7) . . .
160(7) . . .
161(7) . . .
159(7) . . .
149(6) . . .
139(6) . . .
156(7) . . .
167(7) . . .
152(7) . . .
140(6) . . .
159(7) . . .
167(7) . . .
145(6) . . .
144(7) . . .
157(7) . . .
145(6) . . .
160(7) . . .
133(6) . . .
151(7) . . .
140(6) . . .
132(6) . . .
158(7) . . .
140(6) . . .
152(6) . . .
165(7) . . .
134(6) . . .
164(7) . . .
169(7) . . .
175(7) . . .
135(6) . . .
146(6) . . .
144(7) . . .
137(7) . . .
123(6) . . .
140(6) . . .
145(6) . . .
141(6) . . .
161(7) . . .
152(7) . . .
159(7) . . .
147(6) . . .
147(7) . . .
145(7) . . .
139(6) . . .
154(6) . . .
145(6) . . .
156(7) . . .
147(7) . . .
155(7) . . .
153(6) . . .
166(7) . . .
144(6) . . .
139(6) . . .
143(6) . . .
159(7) . . .
149(6) . . .
137(6) . . .
133(6) . . .
140(6) . . .
143(6) . . .
133(6) . . .
146(7) . . .
146(7) . . .
163(7) . . .
149(6) . . .
138(6) . . .
149(6) . . .
155(7) . . .
146(6) . . .
154(6) . . .
147(6) . . .
136(6) . . .
140(6) . . .
151(7) . . .
139(6) . . .
164(7) . . .
155(7) . . .
154(7) . . .
138(6) . . .
145(6) . . .
141(6) . . .
156(7) . . .
160(7) . . .
134(6) . . .
152(6) . . .
158(7) . . .
149(7) . . .
147(6) . . .
152(6) . . .
140(6) . . .
162(7) . . .
158(7) . . .
149(7) . . .
163(7) . . .
148(6) . . .
150(7) . . .
156(7) . . .
155(7) . . .
139(6) . . .
154(6) . . .
148(7) . . .
152(7) . . .
149(6) . . .
158(7) . . .
170(7) . . .
144(7) . . .
130(6) . . .
150(7) . . .
145(6) . . .
144(6) . . .
143(6) . . .
156(7) . . .
159(7) . . .
156(6) . . .
155(7) . . .
158(7) . . .
154(7) . . .
149(6) . . .
158(6) . . .
153(7) . . .
153(7) . . .
148(7) . . .
161(7) . . .
146(6) . . .
176(7) . . .
155(7) . . .
156(7) . . .
160(7) . . .
156(7) . . .
150(7) . . .
160(7) . . .
152(7) . . .
150(6) . . .
150(6) . . .
167(7) . . .
157(7) . . .
153(7) . . .
172(7) . . .
153(6) . . .
163(7) . . .
164(7) . . .
151(7) . . .
156(6) . . .
150(6) . . .
148(6) . . .
161(7) . . .
165(7) . . .
135(6) . . .
155(6) . . .
154(7) . . .
155(7) . . .
144(6) . . .
157(6) . . .
156(7) . . .
154(7) . . .
166(7) . . .
168(7) . . .
160(7) . . .
157(7) . . .
148(7) . . .
154(7) . . .
142(6) . . .
159(7) . . .
138(6) . . .
171(7) . . .
154(7) . . .
149(6) . . .
143(6) . . .
144(6) . . .
162(7) . . .
152(7) . . .
157(7) . . .
141(6) . . .
142(6) . . .
129(6) . . .
146(7) . . .
154(7) . . .
142(6) . . .
139(6) . . .
141(6) . . .
149(7) . . .
146(6) . . .
165(7) . . .
154(7) . . .
148(7) . . .
149(6) . . .
159(7) . . .
143(6) . . .
147(6) . . .
141(6) . . .
161(7) . . .
146(6) . . .
143(6) . . .
142(7) . . .
146(7) . . .
152(7) . . .
138(6) . . .
163(7) . . .
148(7) . . .
133(6) . . .
151(7) . . .
158(7) . . .
139(6) . . .
153(7) . . .
155(7) . . .
143(7) . . .
164(7) . . .
152(6) . . .
144(7) . . .
155(7) . . .
154(7) . . .
143(6) . . .
150(6) . . .
147(6) . . .
162(7) . . .
152(7) . . .
157(6) . . .
147(6) . . .
139(6) . . .
148(7) . . .
146(6) . . .
152(6) . . .
144(6) . . .
157(7) . . .
165(7) . . .
132(6) . . .
152(6) . . .
147(6) . . .
167(7) . . .
128(6) . . .
140(6) . . .
144(6) . . .
143(6) . . .
150(7) . . .
163(7) . . .
145(6) . . .
157(7) . . .
144(6) . . .
142(7) . . .
151(7) . . .
146(6) . . .
151(6) . . .
161(7) . . .
169(7) . . .
167(7) . . .
153(7) . . .
144(6) . . .
159(7) . . .
153(7) . . .
155(7) . . .
136(6) . . .
141(6) . . .
147(6) . . .
142(6) . . .
154(7) . . .
153(6) . . .
137(6) . . .
131(6) . . .
123(6) . . .
149(7) . . .
145(6) . . .
151(6) . . .
150(7) . . .
154(7) . . .
133(6) . . .
147(6) . . .
160(7) . . .
156(7) . . .
157(7) . . .
150(7) . . .
141(6) . . .
146(6) . . .
141(6) . . .
140(6) . . .
143(6) . . .
141(6) . . .
138(6) . . .
133(6) . . .
134(6) . . .
132(6) . . .
134(6) . . .
138(6) . . .
133(6) . . .
143(7) . . .
136(6) . . .
143(6) . . .
150(7) . . .
138(6) . . .
153(7) . . .
133(6) . . .
138(6) . . .
137(6) . . .
139(6) . . .
130(6) . . .
147(6) . . .
134(6) . . .
137(6) . . .
145(7) . . .
139(6) . . .
148(6) . . .
137(6) . . .
138(6) . . .
134(7) . . .
130(6) . . .
156(6) . . .
146(6) . . .
142(6) . . .
131(6) . . .
139(6) . . .
135(6) . . .
125(6) . . .
141(7) . . .
145(7) . . .
133(6) . . .
149(6) . . .
140(6) . . .
127(6) . . .
149(7) . . .
137(6) . . .
150(6) . . .
157(7) . . .
156(7) . . .
147(6) . . .
147(7) . . .
151(6) . . .
139(6) . . .
153(7) . . .
132(6) . . .
157(7) . . .
154(6) . . .
148(6) . . .
141(7) . . .
146(7) . . .
146(7) . . .
158(6) . . .
141(6) . . .
153(7) . . .
144(7) . . .
146(6) . . .
139(6) . . .
153(7) . . .
139(6) . . .
142(6) . . .
137(6) . . .
151(6) . . .
129(6) . . .
145(7) . . .
149(6) . . .
149(6) . . .
149(6) . . .
142(6) . . .
137(6) . . .
149(7) . . .
141(6) . . .
153(7) . . .
137(6) . . .
145(6) . . .
145(7) . . .
144(6) . . .
144(6) . . .
151(7) . . .
149(7) . . .
134(6) . . .
161(7) . . .
149(6) . . .
149(7) . . .
153(7) . . .
146(6) . . .
141(6) . . .
138(6) . . .
147(6) . . .
160(7) . . .
145(6) . . .
148(6) . . .
145(6) . . .
156(7) . . .
138(6) . . .
145(6) . . .
129(6) . . .
134(6) . . .
145(7) . . .
131(6) . . .
123(6) . . .
141(6) . . .
143(6) . . .
145(6) . . .
148(7) . . .
160(7) . . .
139(6) . . .
155(7) . . .
141(6) . . .
174(7) . . .
136(6) . . .
142(6) . . .
119(6) . . .
142(7) . . .
144(6) . . .
152(6) . . .
140(6) . . .
137(6) . . .
139(6) . . .
154(7) . . .
145(6) . . .
133(6) . . .
124(6) . . .
147(7) . . .
150(7) . . .
137(6) . . .
131(6) . . .
136(6) . . .
131(6) . . .
144(6) . . .
163(7) . . .
148(6) . . .
146(7) . . .
138(6) . . .
145(7) . . .
135(6) . . .
158(7) . . .
135(6) . . .
143(7) . . .
138(6) . . .
138(6) . . .
130(6) . . .
121(6) . . .
141(6) . . .
136(6) . . .
139(6) . . .
148(7) . . .
129(6) . . .
129(6) . . .
139(6) . . .
143(6) . . .
155(7) . . .
149(7) . . .
129(6) . . .
142(6) . . .
156(6) . . .
168(7) . . .
149(7) . . .
150(7) . . .
144(6) . . .
142(6) . . .
147(6) . . .
147(7) . . .
134(6) . . .
145(6) . . .
137(6) . . .
148(6) . . .
144(7) . . .
155(7) . . .
157(6) . . .
139(6) . . .
141(6) . . .
130(6) . . .
140(6) . . .
137(6) . . .
138(6) . . .
138(6) . . .
153(7) . . .
148(7) . . .
140(6) . . .
140(6) . . .
130(6) . . .
140(6) . . .
139(6) . . .
145(6) . . .
141(6) . . .
131(6) . . .
135(6) . . .
118(6) . . .
164(7) . . .
157(7) . . .
131(6) . . .
140(6) . . .
140(6) . . .
134(6) . . .
137(6) . . .
137(6) . . .
148(7) . . .
143(6) . . .
136(6) . . .
147(6) . . .
158(7) . . .
138(6) . . .
148(6) . . .
137(6) . . .
146(6) . . .
130(6) . . .
137(6) . . .
154(6) . . .
148(6) . . .
154(7) . . .
139(7) . . .
151(7) . . .
142(6) . . .
132(6) . . .
144(6) . . .
138(6) . . .
136(6) . . .
139(6) . . .
135(6) . . .
151(7) . . .
141(7) . . .
143(7) . . .
140(6) . . .
142(6) . . .
125(6) . . .
139(7) . . .
140(6) . . .
137(6) . . .
146(6) . . .
146(7) . . .
157(7) . . .
142(6) . . .
141(6) . . .
135(6) . . .
137(6) . . .
150(7) . . .
132(6) . . .
145(6) . . .
132(6) . . .
145(7) . . .
134(6) . . .
128(6) . . .
142(6) . . .
134(6) . . .
136(6) . . .
142(7) . . .
142(6) . . .
147(6) . . .
155(7) . . .
140(6) . . .
138(6) . . .
135(6) . . .
148(6) . . .
147(6) . . .
144(6) . . .
132(6) . . .
140(6) . . .
144(6) . . .
148(7) . . .
130(6) . . .
149(7) . . .
136(6) . . .
146(6) . . .
140(7) . . .
128(6) . . .
147(7) . . .
145(6) . . .
124(6) . . .
144(6) . . .
148(7) . . .
139(6) . . .
137(6) . . .
128(6) . . .
134(6) . . .
133(6) . . .
133(6) . . .
133(6) . . .
123(6) . . .
138(6) . . .
144(7) . . .
134(6) . . .
151(6) . . .
136(6) . . .
150(7) . . .
154(7) . . .
121(6) . . .
128(6) . . .
144(6) . . .
142(6) . . .
152(7) . . .
153(7) . . .
151(6) . . .
142(7) . . .
144(7) . . .
147(7) . . .
141(6) . . .
138(6) . . .
151(7) . . .
146(7) . . .
133(6) . . .
140(6) . . .
143(6) . . .
144(6) . . .
145(6) . . .
145(7) . . .
131(6) . . .
138(6) . . .
133(6) . . .
143(7) . . .
131(6) . . .
135(6) . . .
126(6) . . .
131(6) . . .
140(7) . . .
142(7) . . .
137(6) . . .
135(6) . . .
143(6) . . .
149(7) . . .
139(6) . . .
134(6) . . .
145(6) . . .
138(6) . . .
131(6) . . .
142(6) . . .
142(6) . . .
143(6) . . .
125(6) . . .
138(6) . . .
139(6) . . .
135(6) . . .
143(6) . . .
137(6) . . .
134(6) . . .
141(6) . . .
138(6) . . .
151(7) . . .
149(7) . . .
149(7) . . .
141(6) . . .
146(6) . . .
149(6) . . .
148(7) . . .
133(6) . . .
139(6) . . .
122(6) . . .
128(6) . . .
139(6) . . .
141(6) . . .
145(6) . . .
135(6) . . .
139(6) . . .
135(7) . . .
129(6) . . .
141(6) . . .
147(6) . . .
133(6) . . .
141(7) . . .
137(6) . . .
121(6) . . .
135(6) . . .
137(6) . . .
146(7) . . .
132(6) . . .
130(6) . . .
129(6) . . .
120(6) . . .
130(6) . . .
137(6) . . .
130(6) . . .
127(6) . . .
147(7) . . .
141(6) . . .
129(6) . . .
139(6) . . .
133(6) . . .
151(7) . . .
151(7) . . .
132(6) . . .
133(6) . . .
131(6) . . .
135(6) . . .
150(7) . . .
150(7) . . .
137(6) . . .
142(6) . . .
135(6) . . .
129(6) . . .
140(6) . . .
129(6) . . .
131(6) . . .
143(7) . . .
141(6) . . .
145(7) . . .
130(6) . . .
130(6) . . .
149(7) . . .
128(6) . . .
128(6) . . .
143(6) . . .
121(6) . . .
129(6) . . .
128(6) . . .
140(6) . . .
134(6) . . .
134(6) . . .
134(6) . . .
136(6) . . .
121(6) . . .
118(6) . . .
130(6) . . .
131(6) . . .
114(6) . . .
131(6) . . .
135(6) . . .
149(7) . . .
133(6) . . .
118(6) . . .
121(6) . . .
130(6) . . .
142(6) . . .
148(7) . . .
125(6) . . .
130(6) . . .
154(6) . . .
137(6) . . .
134(6) . . .
128(6) . . .
143(6) . . .
139(6) . . .
148(7) . . .
144(7) . . .
134(7) . . .
149(6) . . .
141(6) . . .
141(6) . . .
145(6) . . .
148(6) . . .
159(7) . . .
147(6) . . .
139(6) . . .
130(6) . . .
130(6) . . .
136(6) . . .
146(6) . . .
139(6) . . .
149(6) . . .
133(6) . . .
149(6) . . .
123(6) . . .
129(6) . . .
139(6) . . .
135(6) . . .
121(6) . . .
142(6) . . .
144(7) . . .
132(6) . . .
126(6) . . .
137(6) . . .
131(6) . . .
146(7) . . .
127(6) . . .
134(6) . . .
121(6) . . .
126(6) . . .
139(7) . . .
136(6) . . .
155(7) . . .
123(6) . . .
131(6) . . .
124(6) . . .
134(6) . . .
134(6) . . .
135(6) . . .
132(6) . . .
138(7) . . .
157(7) . . .
141(6) . . .
127(6) . . .
138(6) . . .
132(6) . . .
113(6) . . .
135(6) . . .
133(6) . . .
146(6) . . .
139(6) . . .
147(6) . . .
138(6) . . .
141(6) . . .
135(6) . . .
126(6) . . .
131(6) . . .
142(6) . . .
147(6) . . .
147(6) . . .
140(6) . . .
137(6) . . .
132(6) . . .
130(6) . . .
124(6) . . .
122(6) . . .
141(6) . . .
118(6) . . .
128(6) . . .
122(6) . . .
128(6) . . .
160(7) . . .
141(6) . . .
134(6) . . .
134(6) . . .
125(6) . . .
137(6) . . .
131(6) . . .
136(6) . . .
140(7) . . .
128(6) . . .
140(6) . . .
124(6) . . .
129(6) . . .
136(7) . . .
132(6) . . .
133(6) . . .
148(6) . . .
141(6) . . .
136(6) . . .
126(6) . . .
138(6) . . .
134(6) . . .
120(6) . . .
126(6) . . .
153(7) . . .
146(6) . . .
139(6) . . .
110(6) . . .
118(6) . . .
112(6) . . .
144(6) . . .
127(6) . . .
136(6) . . .
132(6) . . .
133(6) . . .
123(6) . . .
129(6) . . .
122(6) . . .
126(6) . . .
124(6) . . .
139(6) . . .
133(6) . . .
147(7) . . .
162(7) . . .
130(6) . . .
121(6) . . .
142(7) . . .
130(6) . . .
141(7) . . .
140(6) . . .
147(6) . . .
139(6) . . .
149(7) . . .
142(6) . . .
148(6) . . .
129(6) . . .
128(6) . . .
145(7) . . .
132(6) . . .
134(6) . . .
126(6) . . .
144(6) . . .
128(6) . . .
144(7) . . .
137(6) . . .
117(6) . . .
122(6) . . .
129(6) . . .
144(6) . . .
151(6) . . .
146(6) . . .
122(6) . . .
134(6) . . .
141(6) . . .
144(6) . . .
150(6) . . .
126(6) . . .
124(6) . . .
139(6) . . .
132(6) . . .
148(7) . . .
140(6) . . .
131(6) . . .
135(6) . . .
129(6) . . .
147(6) . . .
137(6) . . .
124(6) . . .
131(6) . . .
133(6) . . .
123(6) . . .
132(6) . . .
122(6) . . .
146(6) . . .
112(6) . . .
121(6) . . .
114(6) . . .
125(6) . . .
137(6) . . .
135(6) . . .
135(6) . . .
149(7) . . .
141(6) . . .
138(6) . . .
128(6) . . .
122(6) . . .
139(7) . . .
135(6) . . .
144(6) . . .
130(6) . . .
143(7) . . .
130(7) . . .
118(6) . . .
123(6) . . .
136(6) . . .
139(6) . . .
121(6) . . .
132(6) . . .
131(6) . . .
126(6) . . .
140(6) . . .
146(7) . . .
147(6) . . .
126(6) . . .
159(7) . . .
149(7) . . .
145(7) . . .
120(6) . . .
131(6) . . .
120(6) . . .
126(6) . . .
128(6) . . .
133(6) . . .
135(6) . . .
123(6) . . .
126(6) . . .
130(6) . . .
130(6) . . .
141(6) . . .
156(7) . . .
140(6) . . .
133(6) . . .
138(6) . . .
138(6) . . .
127(6) . . .
131(6) . . .
143(6) . . .
138(6) . . .
137(6) . . .
125(6) . . .
127(6) . . .
122(6) . . .
135(6) . . .
136(6) . . .
135(6) . . .
127(6) . . .
131(6) . . .
129(6) . . .
126(6) . . .
146(7) . . .
147(7) . . .
129(6) . . .
127(6) . . .
147(6) . . .
154(7) . . .
147(7) . . .
124(6) . . .
139(6) . . .
124(6) . . .
131(6) . . .
142(7) . . .
125(6) . . .
133(6) . . .
132(6) . . .
128(6) . . .
131(6) . . .
121(6) . . .
135(6) . . .
133(6) . . .
144(6) . . .
136(6) . . .
144(6) . . .
136(6) . . .
135(6) . . .
147(7) . . .
131(6) . . .
141(6) . . .
149(6) . . .
144(7) . . .
138(6) . . .
126(6) . . .
129(6) . . .
119(6) . . .
134(6) . . .
143(6) . . .
149(7) . . .
131(6) . . .
134(6) . . .
128(6) . . .
143(7) . . .
110(5) . . .
126(6) . . .
127(6) . . .
134(6) . . .
124(6) . . .
138(6) . . .
138(6) . . .
135(6) . . .
133(7) . . .
125(6) . . .
134(6) . . .
136(6) . . .
132(6) . . .
136(6) . . .
117(6) . . .
120(6) . . .
118(6) . . .
121(6) . . .
144(6) . . .
143(7) . . .
138(6) . . .
129(6) . . .
132(6) . . .
133(6) . . .
140(6) . . .
138(6) . . .
116(6) . . .
126(6) . . .
144(7) . . .
145(7) . . .
139(6) . . .
142(6) . . .
141(6) . . .
126(6) . . .
144(7) . . .
135(6) . . .
123(6) . . .
132(6) . . .
125(6) . . .
140(7) . . .
141(6) . . .
142(6) . . .
115(6) . . .
137(7) . . .
122(6) . . .
145(6) . . .
143(6) . . .
142(6) . . .
121(6) . . .
118(6) . . .
131(6) . . .
124(6) . . .
128(6) . . .
127(6) . . .
138(6) . . .
128(6) . . .
137(6) . . .
124(6) . . .
139(7) . . .
134(6) . . .
124(6) . . .
128(6) . . .
145(6) . . .
134(6) . . .
137(6) . . .
138(6) . . .
145(6) . . .
137(6) . . .
136(6) . . .
121(6) . . .
139(6) . . .
140(6) . . .
144(6) . . .
151(7) . . .
136(6) . . .
121(6) . . .
124(6) . . .
136(6) . . .
130(6) . . .
129(6) . . .
133(6) . . .
123(6) . . .
131(6) . . .
126(6) . . .
135(6) . . .
133(6) . . .
131(6) . . .
129(6) . . .
131(6) . . .
144(6) . . .
142(6) . . .
133(6) . . .
127(6) . . .
137(6) . . .
123(6) . . .
126(6) . . .
138(7) . . .
129(6) . . .
143(6) . . .
120(6) . . .
123(6) . . .
147(7) . . .
142(6) . . .
128(6) . . .
122(6) . . .
122(6) . . .
134(6) . . .
129(6) . . .
147(7) . . .
142(6) . . .
144(6) . . .
135(6) . . .
139(7) . . .
119(6) . . .
107(5) . . .
143(6) . . .
129(6) . . .
127(6) . . .
131(6) . . .
132(6) . . .
139(6) . . .
142(6) . . .
122(6) . . .
112(6) . . .
136(6) . . .
134(6) . . .
134(6) . . .
145(7) . . .
133(6) . . .
146(6) . . .
136(6) . . .
142(7) . . .
138(7) . . .
133(6) . . .
131(6) . . .
127(6) . . .
148(7) . . .
115(6) . . .
155(7) . . .
121(6) . . .
129(6) . . .
141(6) . . .
141(6) . . .
136(6) . . .
129(6) . . .
136(6) . . .
148(7) . . .
152(7) . . .
133(6) . . .
125(6) . . .
133(6) . . .
143(7) . . .
137(6) . . .
142(6) . . .
151(6) . . .
125(6) . . .
144(7) . . .
141(6) . . .
137(6) . . .
126(6) . . .
120(6) . . .
135(6) . . .
130(6) . . .
141(6) . . .
136(6) . . .
144(7) . . .
147(7) . . .
140(7) . . .
136(6) . . .
123(6) . . .
120(6) . . .
133(6) . . .
146(6) . . .
146(6) . . .
140(6) . . .
151(7) . . .
129(6) . . .
117(6) . . .
140(6) . . .
149(6) . . .
138(6) . . .
139(6) . . .
133(6) . . .
116(6) . . .
122(6) . . .
126(6) . . .
137(6) . . .
136(6) . . .
140(6) . . .
141(6) . . .
127(6) . . .
131(6) . . .
133(6) . . .
125(6) . . .
138(6) . . .
117(6) . . .
122(6) . . .
143(6) . . .
126(6) . . .
128(6) . . .
134(6) . . .
134(6) . . .
136(6) . . .
142(6) . . .
134(6) . . .
131(6) . . .
141(6) . . .
129(6) . . .
113(6) . . .
146(6) . . .
135(6) . . .
117(6) . . .
122(6) . . .
133(6) . . .
137(6) . . .
151(7) . . .
130(6) . . .
133(6) . . .
140(6) . . .
126(6) . . .
132(6) . . .
131(6) . . .
121(6) . . .
141(6) . . .
135(6) . . .
138(7) . . .
130(6) . . .
124(6) . . .
117(6) . . .
114(6) . . .
113(6) . . .
111(6) . . .
116(6) . . .
122(6) . . .
134(6) . . .
120(6) . . .
119(6) . . .
125(6) . . .
123(6) . . .
127(6) . . .
113(6) . . .
121(6) . . .
124(6) . . .
137(6) . . .
135(6) . . .
130(6) . . .
121(6) . . .
134(6) . . .
135(6) . . .
124(6) . . .
126(6) . . .
127(6) . . .
117(6) . . .
114(6) . . .
136(6) . . .
142(6) . . .
133(6) . . .
140(6) . . .
140(6) . . .
130(6) . . .
128(6) . . .
140(6) . . .
118(6) . . .
133(6) . . .
122(6) . . .
128(6) . . .
141(6) . . .
136(6) . . .
128(6) . . .
125(6) . . .
128(6) . . .
123(6) . . .
123(6) . . .
133(6) . . .
118(6) . . .
132(6) . . .
130(6) . . .
140(6) . . .
134(6) . . .
127(6) . . .
143(6) . . .
132(6) . . .
142(6) . . .
148(6) . . .
132(6) . . .
124(6) . . .
110(5) . . .
116(6) . . .
150(7) . . .
125(6) . . .
125(6) . . .
138(6) . . .
120(6) . . .
128(6) . . .
133(6) . . .
140(6) . . .
126(6) . . .
132(6) . . .
141(7) . . .
130(6) . . .
127(6) . . .
128(6) . . .
138(6) . . .
126(6) . . .
140(6) . . .
125(6) . . .
127(6) . . .
135(6) . . .
140(6) . . .
137(6) . . .
136(6) . . .
121(6) . . .
127(6) . . .
131(7) . . .
138(6) . . .
132(6) . . .
137(6) . . .
130(6) . . .
140(7) . . .
138(6) . . .
129(6) . . .
134(6) . . .
142(6) . . .
127(6) . . .
130(6) . . .
148(6) . . .
136(6) . . .
124(6) . . .
130(6) . . .
125(6) . . .
124(6) . . .
117(6) . . .
129(6) . . .
141(7) . . .
116(6) . . .
130(6) . . .
134(6) . . .
126(6) . . .
145(7) . . .
113(6) . . .
123(6) . . .
133(6) . . .
135(6) . . .
131(6) . . .
130(6) . . .
123(6) . . .
127(6) . . .
135(6) . . .
143(6) . . .
133(6) . . .
110(5) . . .
134(6) . . .
126(6) . . .
127(6) . . .
123(6) . . .
116(6) . . .
136(7) . . .
128(6) . . .
115(6) . . .
129(6) . . .
140(6) . . .
129(6) . . .
137(7) . . .
131(6) . . .
136(6) . . .
139(6) . . .
133(6) . . .
122(6) . . .
117(6) . . .
133(6) . . .
132(6) . . .
127(6) . . .
121(6) . . .
139(6) . . .
123(6) . . .
132(6) . . .
124(6) . . .
123(6) . . .
119(6) . . .
123(6) . . .
112(6) . . .
119(6) . . .
127(6) . . .
126(6) . . .
139(6) . . .
142(6) . . .
138(6) . . .
122(6) . . .
139(7) . . .
114(6) . . .
139(6) . . .
118(6) . . .
144(7) . . .
135(6) . . .
117(6) . . .
121(6) . . .
121(6) . . .
127(6) . . .
118(6) . . .
135(6) . . .
137(6) . . .
129(6) . . .
119(6) . . .
127(6) . . .
119(6) . . .
136(6) . . .
122(6) . . .
138(6) . . .
130(6) . . .
117(6) . . .
138(6) . . .
133(7) . . .
126(6) . . .
129(6) . . .
114(6) . . .
125(6) . . .
111(6) . . .
137(6) . . .
136(6) . . .
150(6) . . .
130(6) . . .
138(7) . . .
145(7) . . .
132(6) . . .
118(6) . . .
122(6) . . .
141(7) . . .
128(6) . . .
128(6) . . .
130(6) . . .
121(6) . . .
126(6) . . .
121(6) . . .
114(6) . . .
131(6) . . .
130(6) . . .
135(7) . . .
117(6) . . .
140(6) . . .
136(6) . . .
148(7) . . .
133(6) . . .
135(6) . . .
124(6) . . .
125(6) . . .
120(6) . . .
113(6) . . .
128(6) . . .
128(6) . . .
120(6) . . .
116(6) . . .
113(6) . . .
132(6) . . .
137(6) . . .
109(6) . . .
114(6) . . .
138(6) . . .
114(6) . . .
111(5) . . .
137(7) . . .
115(6) . . .
125(6) . . .
116(6) . . .
107(5) . . .
116(6) . . .
129(6) . . .
132(6) . . .
137(6) . . .
115(6) . . .
137(7) . . .
123(6) . . .
126(6) . . .
131(6) . . .
129(6) . . .
120(6) . . .
125(6) . . .
154(7) . . .
125(6) . . .
121(6) . . .
125(6) . . .
117(6) . . .
135(6) . . .
154(6) . . .
124(6) . . .
131(6) . . .
134(6) . . .
138(6) . . .
131(6) . . .
123(6) . . .
123(6) . . .
125(6) . . .
114(6) . . .
111(5) . . .
136(6) . . .
139(6) . . .
124(6) . . .
145(6) . . .
141(6) . . .
110(6) . . .
132(6) . . .
128(6) . . .
146(6) . . .
122(6) . . .
135(6) . . .
121(6) . . .
126(6) . . .
124(6) . . .
136(6) . . .
119(6) . . .
149(7) . . .
127(6) . . .
113(6) . . .
112(5) . . .
141(7) . . .
128(6) . . .
125(6) . . .
124(6) . . .
115(6) . . .
139(6) . . .
118(6) . . .
138(7) . . .
125(6) . . .
143(6) . . .
132(6) . . .
136(6) . . .
127(6) . . .
138(6) . . .
140(6) . . .
136(6) . . .
130(6) . . .
133(6) . . .
131(6) . . .
144(6) . . .
126(6) . . .
138(7) . . .
144(7) . . .
112(6) . . .
125(6) . . .
124(6) . . .
125(6) . . .
117(6) . . .
134(6) . . .
123(6) . . .
118(6) . . .
124(6) . . .
141(6) . . .
125(6) . . .
124(6) . . .
130(6) . . .
133(6) . . .
120(6) . . .
134(6) . . .
146(7) . . .
128(6) . . .
131(6) . . .
130(6) . . .
117(6) . . .
126(6) . . .
127(6) . . .
129(6) . . .
128(6) . . .
119(6) . . .
120(6) . . .
135(6) . . .
132(6) . . .
129(6) . . .
129(6) . . .
127(6) . . .
130(6) . . .
153(7) . . .
133(6) . . .
113(6) . . .
122(6) . . .
121(6) . . .
123(6) . . .
135(6) . . .
116(6) . . .
113(6) . . .
150(7) . . .
137(6) . . .
136(6) . . .
124(6) . . .
125(6) . . .
115(6) . . .
130(6) . . .
145(6) . . .
130(6) . . .
132(6) . . .
132(6) . . .
140(6) . . .
130(6) . . .
133(6) . . .
132(6) . . .
136(6) . . .
139(6) . . .
131(6) . . .
148(6) . . .
132(6) . . .
135(6) . . .
145(6) . . .
135(6) . . .
154(7) . . .
130(6) . . .
137(6) . . .
126(6) . . .
140(6) . . .
131(6) . . .
133(6) . . .
133(6) . . .
133(6) . . .
134(6) . . .
136(6) . . .
119(6) . . .
133(6) . . .
135(6) . . .
152(6) . . .
139(6) . . .
139(6) . . .
141(6) . . .
134(6) . . .
143(6) . . .
127(6) . . .
147(7) . . .
141(6) . . .
123(6) . . .
123(6) . . .
141(7) . . .
158(7) . . .
143(6) . . .
141(6) . . .
156(7) . . .
151(7) . . .
152(7) . . .
130(6) . . .
120(6) . . .
141(6) . . .
125(6) . . .
137(6) . . .
117(6) . . .
113(6) . . .
120(6) . . .
143(7) . . .
129(6) . . .
149(6) . . .
134(6) . . .
128(6) . . .
133(6) . . .
126(6) . . .
126(6) . . .
129(6) . . .
127(6) . . .
125(6) . . .
128(6) . . .
127(6) . . .
115(6) . . .
139(6) . . .
131(6) . . .
125(6) . . .
130(6) . . .
132(6) . . .
138(6) . . .
145(6) . . .
148(6) . . .
152(6) . . .
128(6) . . .
135(6) . . .
145(7) . . .
127(6) . . .
137(6) . . .
123(6) . . .
118(6) . . .
132(6) . . .
135(6) . . .
132(6) . . .
128(6) . . .
129(6) . . .
115(6) . . .
131(6) . . .
133(6) . . .
136(6) . . .
126(6) . . .
136(6) . . .
126(6) . . .
137(6) . . .
137(6) . . .
135(6) . . .
131(6) . . .
152(7) . . .
135(6) . . .
124(6) . . .
111(6) . . .
144(7) . . .
122(6) . . .
140(6) . . .
114(6) . . .
130(6) . . .
121(6) . . .
131(6) . . .
134(6) . . .
135(6) . . .
135(6) . . .
119(6) . . .
121(6) . . .
137(6) . . .
128(6) . . .
124(6) . . .
112(6) . . .
144(6) . . .
133(6) . . .
137(6) . . .
117(6) . . .
117(6) . . .
138(6) . . .
120(6) . . .
122(6) . . .
134(6) . . .
132(6) . . .
121(6) . . .
132(6) . . .
137(6) . . .
135(6) . . .
145(7) . . .
131(6) . . .
123(6) . . .
135(6) . . .
129(6) . . .
128(6) . . .
126(6) . . .
122(6) . . .
133(6) . . .
119(6) . . .
132(6) . . .
133(6) . . .
114(6) . . .
137(6) . . .
130(6) . . .
139(6) . . .
129(6) . . .
125(6) . . .
121(6) . . .
140(6) . . .
136(6) . . .
139(6) . . .
134(6) . . .
138(7) . . .
138(7) . . .
129(6) . . .
130(6) . . .
139(6) . . .
130(6) . . .
144(7) . . .
149(6) . . .
142(6) . . .
133(6) . . .
139(6) . . .
135(6) . . .
146(6) . . .
145(6) . . .
141(6) . . .
138(6) . . .
156(7) . . .
136(6) . . .
144(6) . . .
136(6) . . .
146(7) . . .
148(6) . . .
154(6) . . .
150(6) . . .
133(6) . . .
145(7) . . .
137(6) . . .
132(6) . . .
116(6) . . .
118(6) . . .
145(7) . . .
145(6) . . .
131(6) . . .
142(6) . . .
143(6) . . .
134(6) . . .
141(7) . . .
145(6) . . .
146(6) . . .
133(6) . . .
123(6) . . .
134(6) . . .
133(6) . . .
136(6) . . .
125(6) . . .
130(6) . . .
137(6) . . .
120(6) . . .
129(6) . . .
141(6) . . .
139(6) . . .
133(6) . . .
125(6) . . .
146(6) . . .
142(6) . . .
153(7) . . .
149(6) . . .
132(6) . . .
140(6) . . .
136(6) . . .
132(6) . . .
137(6) . . .
137(6) . . .
129(6) . . .
122(6) . . .
139(6) . . .
128(6) . . .
138(6) . . .
131(6) . . .
126(6) . . .
114(6) . . .
140(6) . . .
135(6) . . .
129(6) . . .
121(6) . . .
142(6) . . .
126(6) . . .
117(6) . . .
130(6) . . .
121(6) . . .
123(6) . . .
132(6) . . .
141(6) . . .
126(6) . . .
127(6) . . .
136(6) . . .
132(6) . . .
117(6) . . .
137(6) . . .
127(6) . . .
132(6) . . .
133(6) . . .
125(6) . . .
142(6) . . .
141(6) . . .
129(6) . . .
123(6) . . .
121(6) . . .
145(6) . . .
132(6) . . .
137(6) . . .
129(6) . . .
112(6) . . .
134(6) . . .
145(6) . . .
148(7) . . .
131(6) . . .
137(6) . . .
145(7) . . .
144(6) . . .
148(6) . . .
151(6) . . .
138(6) . . .
129(6) . . .
123(6) . . .
118(6) . . .
130(6) . . .
146(7) . . .
128(6) . . .
125(6) . . .
119(6) . . .
126(6) . . .
121(6) . . .
122(6) . . .
131(6) . . .
122(6) . . .
131(6) . . .
136(6) . . .
124(6) . . .
121(6) . . .
130(6) . . .
138(6) . . .
129(6) . . .
112(6) . . .
122(6) . . .
149(6) . . .
149(6) . . .
128(6) . . .
145(7) . . .
132(6) . . .
136(6) . . .
134(6) . . .
110(6) . . .
105(6) . . .
143(6) . . .
123(6) . . .
133(6) . . .
140(6) . . .
134(6) . . .
141(6) . . .
124(6) . . .
121(6) . . .
137(6) . . .
131(6) . . .
127(6) . . .
112(5) . . .
116(6) . . .
109(6) . . .
119(6) . . .
114(6) . . .
124(6) . . .
124(6) . . .
136(6) . . .
132(6) . . .
136(6) . . .
129(6) . . .
127(6) . . .
128(6) . . .
130(6) . . .
120(6) . . .
140(6) . . .
132(6) . . .
142(7) . . .
129(6) . . .
130(6) . . .
138(6) . . .
119(6) . . .
127(6) . . .
135(6) . . .
126(6) . . .
120(6) . . .
128(6) . . .
123(6) . . .
122(6) . . .
131(6) . . .
131(6) . . .
138(6) . . .
145(7) . . .
128(6) . . .
128(6) . . .
117(6) . . .
128(6) . . .
125(6) . . .
136(6) . . .
115(6) . . .
123(6) . . .
118(6) . . .
131(6) . . .
140(6) . . .
135(6) . . .
129(6) . . .
142(6) . . .
135(6) . . .
117(6) . . .
131(6) . . .
117(6) . . .
129(6) . . .
126(6) . . .
126(6) . . .
148(6) . . .
145(7) . . .
129(6) . . .
126(6) . . .
135(6) . . .
145(6) . . .
137(6) . . .
144(7) . . .
119(6) . . .
122(6) . . .
145(6) . . .
123(6) . . .
132(6) . . .
131(6) . . .
124(6) . . .
136(6) . . .
130(6) . . .
137(7) . . .
130(6) . . .
120(6) . . .
124(6) . . .
119(6) . . .
133(6) . . .
128(6) . . .
115(6) . . .
137(6) . . .
116(6) . . .
121(6) . . .
135(6) . . .
136(6) . . .
151(6) . . .
136(6) . . .
144(7) . . .
140(6) . . .
118(6) . . .
129(6) . . .
107(5) . . .
129(6) . . .
125(6) . . .
124(6) . . .
130(6) . . .
128(6) . . .
127(6) . . .
123(6) . . .
123(6) . . .
116(6) . . .
122(6) . . .
119(6) . . .
141(6) . . .
122(6) . . .
149(7) . . .
134(6) . . .
122(6) . . .
123(6) . . .
123(6) . . .
125(6) . . .
120(6) . . .
139(6) . . .
132(6) . . .
116(6) . . .
142(7) . . .
121(6) . . .
125(6) . . .
121(6) . . .
139(6) . . .
135(6) . . .
116(6) . . .
129(6) . . .
136(6) . . .
118(6) . . .
131(6) . . .
105(5) . . .
133(6) . . .
131(6) . . .
126(6) . . .
132(6) . . .
136(6) . . .
135(6) . . .
137(6) . . .
126(6) . . .
121(6) . . .
118(6) . . .
131(6) . . .
124(6) . . .
134(6) . . .
137(7) . . .
139(7) . . .
121(6) . . .
121(6) . . .
129(6) . . .
125(6) . . .
131(6) . . .
133(6) . . .
116(6) . . .
130(6) . . .
122(6) . . .
120(6) . . .
135(6) . . .
129(6) . . .
134(6) . . .
137(6) . . .
130(6) . . .
131(6) . . .
129(6) . . .
128(6) . . .
139(7) . . .
150(7) . . .
136(6) . . .
140(6) . . .
137(6) . . .
134(6) . . .
130(6) . . .
127(6) . . .
117(6) . . .
122(6) . . .
136(7) . . .
144(6) . . .
137(6) . . .
128(6) . . .
119(6) . . .
123(6) . . .
123(6) . . .
133(6) . . .
133(6) . . .
129(6) . . .
120(6) . . .
124(6) . . .
145(6) . . .
130(6) . . .
119(6) . . .
121(6) . . .
144(6) . . .
124(6) . . .
117(6) . . .
133(6) . . .
134(6) . . .
117(6) . . .
137(6) . . .
131(6) . . .
118(6) . . .
139(6) . . .
136(6) . . .
143(6) . . .
134(6) . . .
122(6) . . .
131(6) . . .
120(6) . . .
128(6) . . .
139(6) . . .
126(6) . . .
134(7) . . .
115(6) . . .
134(6) . . .
131(6) . . .
131(6) . . .
135(6) . . .
128(6) . . .
132(6) . . .
133(6) . . .
118(6) . . .
130(6) . . .
125(6) . . .
122(6) . . .
114(6) . . .
144(7) . . .
133(6) . . .
126(6) . . .
118(6) . . .
125(6) . . .
142(7) . . .
135(6) . . .
130(6) . . .
118(6) . . .
127(6) . . .
128(6) . . .
129(6) . . .
138(6) . . .
139(6) . . .
131(6) . . .
123(6) . . .
122(6) . . .
125(6) . . .
134(6) . . .
117(6) . . .
136(6) . . .
132(6) . . .
130(6) . . .
131(6) . . .
137(6) . . .
118(6) . . .
137(6) . . .
137(6) . . .
134(6) . . .
123(6) . . .
136(7) . . .
148(7) . . .
128(6) . . .
126(6) . . .
136(6) . . .
125(6) . . .
129(6) . . .
130(6) . . .
130(6) . . .
120(6) . . .
117(6) . . .
133(6) . . .
128(6) . . .
117(6) . . .
137(6) . . .
129(6) . . .
116(6) . . .
105(6) . . .
112(6) . . .
109(5) . . .
122(6) . . .
127(6) . . .
119(6) . . .
124(6) . . .
111(5) . . .
118(6) . . .
114(6) . . .
122(6) . . .
122(6) . . .
120(6) . . .
133(6) . . .
120(6) . . .
122(6) . . .
123(6) . . .
127(6) . . .
118(6) . . .
117(6) . . .
133(6) . . .
139(6) . . .
109(5) . . .
108(5) . . .
133(7) . . .
117(6) . . .
118(6) . . .
110(6) . . .
113(6) . . .
113(6) . . .
124(6) . . .
114(6) . . .
112(6) . . .
116(6) . . .
110(6) . . .
117(6) . . .
133(6) . . .
131(6) . . .
113(6) . . .
130(6) . . .
120(6) . . .
103(5) . . .
130(6) . . .
138(7) . . .
138(6) . . .
123(6) . . .
114(6) . . .
112(6) . . .
119(6) . . .
116(6) . . .
116(6) . . .
106(5) . . .
120(6) . . .
123(6) . . .
133(6) . . .
114(6) . . .
113(5) . . .
128(6) . . .
115(6) . . .
118(6) . . .
125(6) . . .
122(6) . . .
120(6) . . .
119(6) . . .
116(6) . . .
128(6) . . .
118(6) . . .
123(6) . . .
142(7) . . .
123(6) . . .
112(5) . . .
118(6) . . .
118(6) . . .
111(6) . . .
121(6) . . .
108(5) . . .
97(5) . . .
113(6) . . .
123(6) . . .
111(6) . . .
125(6) . . .
124(6) . . .
129(6) . . .
115(6) . . .
117(6) . . .
112(6) . . .
125(6) . . .
99(5) . . .
112(6) . . .
125(6) . . .
117(6) . . .
123(6) . . .
131(6) . . .
125(6) . . .
128(6) . . .
122(6) . . .
125(6) . . .
127(6) . . .
144(7) . . .
130(6) . . .
113(6) . . .
130(6) . . .
132(6) . . .
131(6) . . .
130(6) . . .
122(6) . . .
122(6) . . .
129(6) . . .
116(6) . . .
125(6) . . .
112(5) . . .
128(6) . . .
116(6) . . .
137(6) . . .
110(5) . . .
115(6) . . .
122(6) . . .
131(6) . . .
115(6) . . .
117(6) . . .
120(6) . . .
128(6) . . .
115(6) . . .
121(6) . . .
126(6) . . .
125(6) . . .
124(6) . . .
107(6) . . .
117(6) . . .
119(6) . . .
129(6) . . .
131(6) . . .
130(6) . . .
127(6) . . .
139(6) . . .
132(6) . . .
117(6) . . .
122(6) . . .
130(6) . . .
117(6) . . .
115(6) . . .
120(6) . . .
123(6) . . .
119(6) . . .
97(5) . . .
107(6) . . .
132(7) . . .
114(6) . . .
122(6) . . .
121(6) . . .
124(6) . . .
119(6) . . .
127(6) . . .
119(6) . . .
126(6) . . .
119(6) . . .
121(6) . . .
124(6) . . .
116(6) . . .
114(6) . . .
125(6) . . .
110(6) . . .
113(6) . . .
108(5) . . .
118(6) . . .
123(6) . . .
113(6) . . .
132(6) . . .
136(6) . . .
144(6) . . .
123(6) . . .
120(6) . . .
118(6) . . .
127(6) . . .
134(6) . . .
117(6) . . .
126(6) . . .
124(6) . . .
124(6) . . .
130(6) . . .
117(6) . . .
130(6) . . .
108(6) . . .
122(6) . . .
127(6) . . .
136(7) . . .
127(6) . . .
117(6) . . .
124(6) . . .
123(6) . . .
127(6) . . .
129(6) . . .
127(6) . . .
124(6) . . .
119(6) . . .
117(6) . . .
116(6) . . .
127(6) . . .
126(6) . . .
119(6) . . .
125(6) . . .
113(6) . . .
118(6) . . .
120(6) . . .
114(6) . . .
117(6) . . .
119(6) . . .
126(6) . . .
109(6) . . .
120(6) . . .
123(6) . . .
122(6) . . .
127(6) . . .
117(6) . . .
120(6) . . .
113(6) . . .
125(6) . . .
122(6) . . .
116(6) . . .
120(6) . . .
130(6) . . .
122(6) . . .
123(6) . . .
130(6) . . .
126(6) . . .
124(6) . . .
126(6) . . .
110(5) . . .
122(6) . . .
120(6) . . .
117(6) . . .
119(6) . . .
114(6) . . .
134(6) . . .
118(6) . . .
127(6) . . .
109(5) . . .
111(5) . . .
111(6) . . .
111(6) . . .
125(6) . . .
115(6) . . .
126(6) . . .
125(6) . . .
133(6) . . .
113(6) . . .
130(6) . . .
119(6) . . .
113(6) . . .
114(6) . . .
120(6) . . .
126(6) . . .
122(6) . . .
140(6) . . .
140(7) . . .
119(6) . . .
123(6) . . .
132(6) . . .
112(6) . . .
135(7) . . .
108(6) . . .
115(6) . . .
124(6) . . .
121(6) . . .
119(6) . . .
126(6) . . .
115(6) . . .
124(6) . . .
116(6) . . .
114(6) . . .
120(6) . . .
122(6) . . .
124(6) . . .
114(6) . . .
126(6) . . .
123(6) . . .
137(6) . . .
138(6) . . .
122(6) . . .
112(6) . . .
131(6) . . .
117(6) . . .
126(6) . . .
130(6) . . .
124(6) . . .
120(6) . . .
126(6) . . .
146(6) . . .
129(6) . . .
137(6) . . .
116(6) . . .
124(6) . . .
128(6) . . .
122(6) . . .
117(6) . . .
119(6) . . .
129(6) . . .
120(6) . . .
126(6) . . .
130(6) . . .
133(6) . . .
122(6) . . .
120(6) . . .
120(6) . . .
116(6) . . .
121(6) . . .
118(6) . . .
135(6) . . .
118(6) . . .
125(6) . . .
120(6) . . .
110(6) . . .
116(6) . . .
133(7) . . .
129(6) . . .
114(6) . . .
133(6) . . .
127(6) . . .
125(6) . . .
118(6) . . .
127(6) . . .
127(6) . . .
116(6) . . .
119(6) . . .
137(6) . . .
123(6) . . .
136(6) . . .
115(6) . . .
106(5) . . .
128(6) . . .
115(6) . . .
124(6) . . .
112(6) . . .
127(6) . . .
131(6) . . .
125(6) . . .
111(6) . . .
104(5) . . .
113(6) . . .
112(6) . . .
111(5) . . .
116(6) . . .
129(6) . . .
126(6) . . .
126(6) . . .
120(6) . . .
133(6) . . .
116(6) . . .
114(6) . . .
113(6) . . .
113(5) . . .
124(6) . . .
125(6) . . .
118(6) . . .
137(6) . . .
135(6) . . .
144(6) . . .
134(6) . . .
111(6) . . .
111(6) . . .
126(6) . . .
117(6) . . .
129(6) . . .
126(6) . . .
123(6) . . .
108(5) . . .
118(6) . . .
130(6) . . .
125(6) . . .
118(6) . . .
103(5) . . .
132(6) . . .
118(6) . . .
127(6) . . .
145(6) . . .
121(6) . . .
118(6) . . .
124(6) . . .
116(6) . . .
128(6) . . .
128(6) . . .
137(6) . . .
132(6) . . .
134(6) . . .
132(6) . . .
124(6) . . .
130(6) . . .
127(6) . . .
120(6) . . .
123(6) . . .
126(6) . . .
116(6) . . .
123(6) . . .
117(6) . . .
123(6) . . .
134(6) . . .
122(6) . . .
131(6) . . .
128(6) . . .
122(6) . . .
118(6) . . .
127(6) . . .
117(6) . . .
131(6) . . .
119(6) . . .
117(6) . . .
128(6) . . .
124(6) . . .
129(6) . . .
123(6) . . .
122(6) . . .
117(6) . . .
138(6) . . .
118(6) . . .
123(6) . . .
120(6) . . .
117(6) . . .
128(6) . . .
123(6) . . .
118(6) . . .
138(6) . . .
128(6) . . .
126(6) . . .
133(6) . . .
119(6) . . .
114(6) . . .
126(6) . . .
115(6) . . .
108(5) . . .
110(6) . . .
124(6) . . .
122(6) . . .
121(6) . . .
118(6) . . .
123(6) . . .
131(6) . . .
127(6) . . .
141(6) . . .
123(6) . . .
131(6) . . .
128(6) . . .
132(6) . . .
116(6) . . .
120(6) . . .
117(6) . . .
119(6) . . .
124(6) . . .
132(6) . . .
116(6) . . .
112(6) . . .
113(6) . . .
120(6) . . .
128(6) . . .
121(6) . . .
129(6) . . .
126(6) . . .
128(6) . . .
116(6) . . .
127(6) . . .
116(6) . . .
124(6) . . .
108(6) . . .
127(6) . . .
136(6) . . .
129(6) . . .
105(6) . . .
116(6) . . .
105(5) . . .
115(6) . . .
118(6) . . .
119(6) . . .
128(6) . . .
122(6) . . .
127(6) . . .
123(6) . . .
127(6) . . .
125(6) . . .
117(6) . . .
119(6) . . .
121(6) . . .
118(6) . . .
125(6) . . .
124(6) . . .
122(6) . . .
110(6) . . .
115(6) . . .
114(6) . . .
114(5) . . .
139(6) . . .
125(6) . . .
133(6) . . .
123(6) . . .
119(6) . . .
118(6) . . .
124(6) . . .
127(6) . . .
131(6) . . .
122(6) . . .
125(6) . . .
124(6) . . .
128(6) . . .
119(6) . . .
120(6) . . .
123(6) . . .
111(6) . . .
118(6) . . .
114(6) . . .
124(6) . . .
115(6) . . .
110(6) . . .
118(6) . . .
120(6) . . .
123(6) . . .
107(6) . . .
114(6) . . .
122(6) . . .
105(5) . . .
127(6) . . .
117(6) . . .
135(7) . . .
114(6) . . .
118(6) . . .
109(6) . . .
115(6) . . .
127(6) . . .
135(6) . . .
108(5) . . .
108(5) . . .
125(6) . . .
122(6) . . .
123(6) . . .
135(6) . . .
120(6) . . .
111(6) . . .
124(6) . . .
118(6) . . .
131(6) . . .
104(5) . . .
123(6) . . .
131(6) . . .
130(6) . . .
129(6) . . .
123(6) . . .
126(6) . . .
134(6) . . .
118(6) . . .
113(6) . . .
126(6) . . .
115(6) . . .
121(6) . . .
132(6) . . .
129(6) . . .
119(6) . . .
116(6) . . .
118(6) . . .
114(6) . . .
131(6) . . .
127(6) . . .
111(6) . . .
124(6) . . .
130(6) . . .
126(6) . . .
131(6) . . .
118(6) . . .
138(6) . . .
137(6) . . .
120(6) . . .
138(6) . . .
133(6) . . .
125(6) . . .
128(6) . . .
118(6) . . .
124(6) . . .
130(6) . . .
122(6) . . .
121(6) . . .
132(6) . . .
125(6) . . .
109(6) . . .
116(6) . . .
118(6) . . .
123(6) . . .
110(6) . . .
115(6) . . .
109(6) . . .
124(6) . . .
129(6) . . .
126(6) . . .
126(6) . . .
142(6) . . .
122(6) . . .
125(6) . . .
112(6) . . .
119(6) . . .
116(6) . . .
119(6) . . .
129(6) . . .
129(6) . . .
130(6) . . .
122(6) . . .
130(6) . . .
129(6) . . .
124(6) . . .
134(6) . . .
116(6) . . .
121(6) . . .
110(6) . . .
119(6) . . .
113(5) . . .
113(6) . . .
126(6) . . .
120(6) . . .
109(6) . . .
118(6) . . .
123(6) . . .
121(6) . . .
111(6) . . .
128(7) . . .
116(6) . . .
110(5) . . .
122(6) . . .
139(6) . . .
122(6) . . .
112(6) . . .
126(6) . . .
123(6) . . .
118(6) . . .
126(6) . . .
128(6) . . .
137(6) . . .
128(6) . . .
108(6) . . .
120(6) . . .
118(6) . . .
114(6) . . .
118(6) . . .
125(6) . . .
129(6) . . .
116(6) . . .
118(6) . . .
114(6) . . .
106(5) . . .
116(6) . . .
125(6) . . .
119(6) . . .
102(5) . . .
121(6) . . .
131(6) . . .
122(6) . . .
124(6) . . .
119(6) . . .
114(6) . . .
115(6) . . .
118(6) . . .
129(6) . . .
119(6) . . .
115(6) . . .
123(6) . . .
122(6) . . .
114(5) . . .
119(6) . . .
125(6) . . .
119(6) . . .
123(6) . . .
121(6) . . .
111(5) . . .
116(6) . . .
131(6) . . .
128(6) . . .
117(6) . . .
121(6) . . .
121(6) . . .
118(6) . . .
121(6) . . .
140(6) . . .
116(6) . . .
124(6) . . .
119(6) . . .
99(5) . . .
129(6) . . .
122(6) . . .
125(6) . . .
103(5) . . .
133(6) . . .
122(6) . . .
124(6) . . .
118(6) . . .
117(6) . . .
135(6) . . .
129(6) . . .
120(6) . . .
124(6) . . .
113(6) . . .
132(6) . . .
142(7) . . .
126(6) . . .
134(6) . . .
129(6) . . .
124(6) . . .
118(6) . . .
115(6) . . .
128(6) . . .
134(6) . . .
146(6) . . .
125(6) . . .
123(6) . . .
119(6) . . .
122(6) . . .
124(6) . . .
136(6) . . .
127(6) . . .
119(6) . . .
128(6) . . .
115(6) . . .
133(6) . . .
132(7) . . .
130(6) . . .
133(6) . . .
126(6) . . .
109(6) . . .
123(6) . . .
125(6) . . .
126(6) . . .
119(6) . . .
135(6) . . .
124(6) . . .
135(6) . . .
141(6) . . .
139(6) . . .
126(6) . . .
139(7) . . .
149(7) . . .
125(6) . . .
136(6) . . .
105(5) . . .
127(6) . . .
126(6) . . .
131(6) . . .
115(6) . . .
128(6) . . .
124(6) . . .
140(6) . . .
138(6) . . .
131(6) . . .
140(6) . . .
132(6) . . .
126(6) . . .
129(6) . . .
129(6) . . .
133(6) . . .
140(6) . . .
131(6) . . .
136(6) . . .
139(6) . . .
133(6) . . .
124(6) . . .
136(6) . . .
116(6) . . .
117(6) . . .
125(6) . . .
136(6) . . .
127(6) . . .
133(6) . . .
128(6) . . .
119(6) . . .
126(6) . . .
123(6) . . .
123(6) . . .
132(6) . . .
129(6) . . .
121(6) . . .
111(5) . . .
130(6) . . .
117(6) . . .
129(6) . . .
123(6) . . .
141(6) . . .
124(6) . . .
121(6) . . .
111(6) . . .
147(7) . . .
146(6) . . .
139(6) . . .
133(6) . . .
122(6) . . .
124(6) . . .
123(6) . . .
125(6) . . .
133(6) . . .
116(6) . . .
121(6) . . .
125(6) . . .
122(6) . . .
127(6) . . .
122(6) . . .
117(6) . . .
141(6) . . .
140(6) . . .
129(6) . . .
138(6) . . .
122(6) . . .
126(6) . . .
129(6) . . .
131(6) . . .
129(6) . . .
110(5) . . .
127(6) . . .
126(6) . . .
123(6) . . .
132(6) . . .
127(6) . . .
142(6) . . .
146(7) . . .
137(7) . . .
120(6) . . .
130(6) . . .
117(6) . . .
121(6) . . .
133(6) . . .
115(6) . . .
134(6) . . .
129(6) . . .
130(6) . . .
128(6) . . .
114(6) . . .
135(6) . . .
130(6) . . .
123(6) . . .
109(6) . . .
116(6) . . .
135(6) . . .
123(6) . . .
130(6) . . .
115(6) . . .
122(6) . . .
138(6) . . .
137(6) . . .
119(6) . . .
120(6) . . .
157(7) . . .
111(5) . . .
121(6) . . .
129(6) . . .
122(6) . . .
124(6) . . .
144(6) . . .
126(6) . . .
133(6) . . .
137(6) . . .
114(6) . . .
134(6) . . .
127(6) . . .
132(6) . . .
124(6) . . .
130(6) . . .
124(6) . . .
132(6) . . .
128(6) . . .
127(6) . . .
126(6) . . .
115(6) . . .
139(6) . . .
127(6) . . .
122(6) . . .
133(6) . . .
121(6) . . .
109(6) . . .
128(6) . . .
117(6) . . .
116(6) . . .
125(6) . . .
125(6) . . .
127(6) . . .
138(6) . . .
123(6) . . .
135(6) . . .
135(6) . . .
120(6) . . .
134(6) . . .
134(6) . . .
127(6) . . .
123(6) . . .
117(6) . . .
116(6) . . .
136(6) . . .
127(6) . . .
133(6) . . .
116(6) . . .
120(6) . . .
119(6) . . .
136(6) . . .
130(6) . . .
115(6) . . .
122(6) . . .
136(6) . . .
124(6) . . .
130(6) . . .
129(6) . . .
136(6) . . .
140(6) . . .
130(6) . . .
128(6) . . .
123(6) . . .
135(6) . . .
125(6) . . .
129(6) . . .
140(7) . . .
132(6) . . .
115(6) . . .
121(6) . . .
136(7) . . .
147(7) . . .
130(6) . . .
134(6) . . .
131(6) . . .
133(6) . . .
126(6) . . .
113(6) . . .
127(6) . . .
121(6) . . .
127(6) . . .
132(6) . . .
129(6) . . .
113(6) . . .
120(6) . . .
112(5) . . .
124(6) . . .
126(6) . . .
119(6) . . .
120(6) . . .
124(6) . . .
128(6) . . .
132(6) . . .
128(6) . . .
125(6) . . .
135(6) . . .
106(6) . . .
103(5) . . .
127(6) . . .
124(6) . . .
120(6) . . .
121(6) . . .
126(6) . . .
127(6) . . .
97(5) . . .
135(7) . . .
121(6) . . .
123(6) . . .
110(5) . . .
130(6) . . .
119(6) . . .
140(7) . . .
134(6) . . .
108(5) . . .
116(6) . . .
121(6) . . .
113(6) . . .
139(6) . . .
121(6) . . .
118(6) . . .
130(6) . . .
134(6) . . .
125(6) . . .
141(6) . . .
132(6) . . .
122(6) . . .
116(6) . . .
117(6) . . .
129(6) . . .
129(6) . . .
123(6) . . .
133(6) . . .
121(6) . . .
114(6) . . .
116(6) . . .
118(6) . . .
124(6) . . .
131(6) . . .
132(6) . . .
122(6) . . .
123(6) . . .
124(6) . . .
142(6) . . .
128(6) . . .
124(6) . . .
115(6) . . .
123(6) . . .
126(6) . . .
124(6) . . .
123(6) . . .
129(6) . . .
124(6) . . .
126(6) . . .
134(6) . . .
135(6) . . .
119(6) . . .
109(6) . . .
105(5) . . .
130(6) . . .
135(6) . . .
127(6) . . .
118(6) . . .
118(6) . . .
130(6) . . .
121(6) . . .
116(6) . . .
120(6) . . .
120(6) . . .
140(6) . . .
138(7) . . .
129(6) . . .
137(6) . . .
122(6) . . .
123(6) . . .
132(7) . . .
132(6) . . .
128(6) . . .
129(6) . . .
127(6) . . .
121(6) . . .
132(6) . . .
125(6) . . .
121(6) . . .
128(6) . . .
136(6) . . .
120(6) . . .
125(6) . . .
122(6) . . .
128(6) . . .
119(6) . . .
131(6) . . .
132(6) . . .
124(6) . . .
126(6) . . .
123(6) . . .
138(7) . . .
134(6) . . .
127(6) . . .
124(6) . . .
118(6) . . .
109(6) . . .
129(6) . . .
127(6) . . .
129(6) . . .
122(6) . . .
122(6) . . .
123(6) . . .
118(6) . . .
120(6) . . .
123(6) . . .
113(6) . . .
124(6) . . .
119(6) . . .
126(6) . . .
127(6) . . .
138(6) . . .
138(6) . . .
132(6) . . .
110(6) . . .
128(6) . . .
120(6) . . .
116(6) . . .
120(6) . . .
131(6) . . .
131(6) . . .
132(6) . . .
120(6) . . .
129(6) . . .
123(6) . . .
123(6) . . .
124(6) . . .
126(6) . . .
126(6) . . .
130(6) . . .
128(6) . . .
130(6) . . .
119(6) . . .
111(6) . . .
101(5) . . .
122(6) . . .
117(6) . . .
127(6) . . .
132(6) . . .
123(6) . . .
119(6) . . .
127(6) . . .
128(6) . . .
129(6) . . .
121(6) . . .
131(6) . . .
138(6) . . .
120(6) . . .
116(6) . . .
126(6) . . .
123(6) . . .
131(6) . . .
116(6) . . .
123(6) . . .
128(6) . . .
134(6) . . .
126(6) . . .
134(6) . . .
153(7) . . .
119(6) . . .
124(6) . . .
129(6) . . .
146(7) . . .
115(6) . . .
109(6) . . .
124(6) . . .
130(6) . . .
127(6) . . .
117(6) . . .
119(6) . . .
114(6) . . .
128(6) . . .
137(6) . . .
125(6) . . .
124(6) . . .
115(5) . . .
112(5) . . .
119(6) . . .
118(6) . . .
124(6) . . .
134(6) . . .
136(6) . . .
138(6) . . .
124(6) . . .
124(6) . . .
118(6) . . .
132(6) . . .
123(6) . . .
113(6) . . .
121(6) . . .
128(6) . . .
127(6) . . .
109(6) . . .
113(6) . . .
123(6) . . .
134(6) . . .
128(6) . . .
120(6) . . .
124(6) . . .
128(6) . . .
126(6) . . .
107(6) . . .
132(6) . . .
132(6) . . .
132(6) . . .
111(5) . . .
120(6) . . .
137(7) . . .
128(6) . . .
123(6) . . .
112(5) . . .
136(6) . . .
123(6) . . .
129(6) . . .
123(6) . . .
108(5) . . .
135(6) . . .
124(6) . . .
116(6) . . .
121(6) . . .
138(6) . . .
129(6) . . .
130(6) . . .
125(6) . . .
123(6) . . .
126(6) . . .
120(6) . . .
118(6) . . .
119(6) . . .
119(6) . . .
129(6) . . .
124(6) . . .
124(6) . . .
144(7) . . .
132(6) . . .
121(6) . . .
124(6) . . .
122(6) . . .
128(6) . . .
122(6) . . .
130(6) . . .
130(6) . . .
126(6) . . .
117(6) . . .
128(6) . . .
136(6) . . .
132(6) . . .
138(6) . . .
113(6) . . .
127(6) . . .
126(6) . . .
133(6) . . .
132(6) . . .
121(6) . . .
130(6) . . .
139(7) . . .
127(6) . . .
147(7) . . .
117(6) . . .
141(6) . . .
125(6) . . .
122(6) . . .
134(6) . . .
121(6) . . .
136(6) . . .
121(6) . . .
122(6) . . .
129(6) . . .
133(6) . . .
128(6) . . .
107(6) . . .
112(6) . . .
110(6) . . .
111(6) . . .
115(6) . . .
118(6) . . .
128(6) . . .
136(6) . . .
119(6) . . .
135(6) . . .
118(6) . . .
107(6) . . .
131(6) . . .
122(6) . . .
132(6) . . .
145(6) . . .
124(6) . . .
129(6) . . .
122(6) . . .
121(6) . . .
127(6) . . .
141(7) . . .
120(6) . . .
126(6) . . .
127(6) . . .
124(6) . . .
124(6) . . .
124(6) . . .
125(6) . . .
122(6) . . .
128(6) . . .
128(6) . . .
119(6) . . .
132(6) . . .
130(6) . . .
121(6) . . .
130(6) . . .
142(6) . . .
127(6) . . .
132(6) . . .
120(6) . . .
131(6) . . .
138(6) . . .
122(6) . . .
148(6) . . .
135(6) . . .
110(6) . . .
138(6) . . .
134(6) . . .
142(6) . . .
131(6) . . .
134(6) . . .
119(6) . . .
131(6) . . .
123(6) . . .
131(6) . . .
135(6) . . .
140(6) . . .
129(6) . . .
125(6) . . .
122(6) . . .
121(6) . . .
125(6) . . .
125(6) . . .
127(6) . . .
121(6) . . .
121(6) . . .
123(6) . . .
112(6) . . .
131(6) . . .
112(6) . . .
117(6) . . .
126(6) . . .
124(6) . . .
116(6) . . .
111(6) . . .
130(6) . . .
120(6) . . .
124(6) . . .
140(7) . . .
148(7) . . .
110(6) . . .
132(6) . . .
136(6) . . .
124(6) . . .
101(5) . . .
128(6) . . .
119(6) . . .
119(6) . . .
122(6) . . .
101(5) . . .
116(6) . . .
116(6) . . .
132(6) . . .
131(6) . . .
127(6) . . .
107(5) . . .
102(5) . . .
118(6) . . .
140(7) . . .
117(6) . . .
124(6) . . .
120(6) . . .
123(6) . . .
133(6) . . .
122(6) . . .
127(6) . . .
121(6) . . .
124(6) . . .
115(6) . . .
134(6) . . .
123(6) . . .
130(6) . . .
127(6) . . .
126(6) . . .
128(6) . . .
120(6) . . .
102(5) . . .
135(6) . . .
138(6) . . .
128(6) . . .
139(6) . . .
131(6) . . .
148(7) . . .
125(6) . . .
135(6) . . .
130(6) . . .
114(6) . . .
107(5) . . .
110(6) . . .
121(6) . . .
151(6) . . .
124(6) . . .
123(6) . . .
140(7) . . .
123(6) . . .
144(6) . . .
116(6) . . .
127(6) . . .
123(6) . . .
123(6) . . .
135(6) . . .
132(6) . . .
122(6) . . .
121(6) . . .
135(6) . . .
128(6) . . .
128(6) . . .
117(6) . . .
114(6) . . .
127(6) . . .
114(6) . . .
120(6) . . .
140(7) . . .
126(6) . . .
127(6) . . .
135(6) . . .
116(6) . . .
129(6) . . .
126(6) . . .
134(6) . . .
123(6) . . .
115(6) . . .
126(6) . . .
118(6) . . .
139(6) . . .
125(6) . . .
126(6) . . .
119(6) . . .
117(6) . . .
116(6) . . .
114(6) . . .
122(6) . . .
131(6) . . .
126(6) . . .
120(6) . . .
107(6) . . .
120(6) . . .
126(6) . . .
119(6) . . .
127(6) . . .
123(6) . . .
124(6) . . .
133(6) . . .
128(6) . . .
122(6) . . .
126(6) . . .
123(6) . . .
131(6) . . .
123(6) . . .
140(6) . . .
134(6) . . .
133(7) . . .
125(6) . . .
114(6) . . .
120(6) . . .
135(6) . . .
117(6) . . .
134(6) . . .
130(6) . . .
132(6) . . .
128(6) . . .
120(6) . . .
123(6) . . .
124(6) . . .
129(6) . . .
130(6) . . .
131(6) . . .
116(6) . . .
118(6) . . .
113(6) . . .
122(6) . . .
120(6) . . .
122(6) . . .
125(6) . . .
129(6) . . .
128(6) . . .
120(6) . . .
118(6) . . .
138(6) . . .
126(6) . . .
124(6) . . .
129(6) . . .
122(6) . . .
131(6) . . .
109(6) . . .
105(6) . . .
123(6) . . .
120(6) . . .
129(6) . . .
127(6) . . .
117(6) . . .
116(6) . . .
126(6) . . .
111(6) . . .
142(6) . . .
129(6) . . .
129(6) . . .
112(6) . . .
119(6) . . .
120(6) . . .
112(6) . . .
116(6) . . .
120(6) . . .
135(6) . . .
114(6) . . .
132(6) . . .
120(6) . . .
119(6) . . .
115(6) . . .
115(6) . . .
136(7) . . .
119(6) . . .
119(6) . . .
154(6) . . .
139(6) . . .
126(6) . . .
117(6) . . .
124(6) . . .
112(5) . . .
123(6) . . .
122(6) . . .
115(6) . . .
121(6) . . .
116(6) . . .
125(6) . . .
142(6) . . .
130(6) . . .
116(6) . . .
122(6) . . .
131(6) . . .
134(6) . . .
117(6) . . .
123(6) . . .
132(6) . . .
132(6) . . .
133(6) . . .
113(6) . . .
119(6) . . .
126(6) . . .
131(6) . . .
135(6) . . .
114(6) . . .
118(6) . . .
116(6) . . .
133(6) . . .
118(6) . . .
140(6) . . .
113(6) . . .
141(6) . . .
126(6) . . .
130(6) . . .
139(6) . . .
124(6) . . .
120(6) . . .
121(6) . . .
124(6) . . .
131(6) . . .
114(6) . . .
128(6) . . .
120(6) . . .
124(6) . . .
129(6) . . .
119(6) . . .
120(6) . . .
129(6) . . .
130(6) . . .
126(6) . . .
128(6) . . .
123(6) . . .
127(6) . . .
133(6) . . .
125(6) . . .
128(6) . . .
110(6) . . .
115(6) . . .
124(6) . . .
128(6) . . .
133(6) . . .
129(6) . . .
119(6) . . .
123(6) . . .
109(5) . . .
103(5) . . .
119(6) . . .
126(6) . . .
109(5) . . .
117(6) . . .
124(6) . . .
132(6) . . .
124(6) . . .
103(5) . . .
109(5) . . .
131(6) . . .
112(6) . . .
122(6) . . .
108(5) . . .
109(5) . . .
124(6) . . .
125(6) . . .
125(6) . . .
128(6) . . .
125(6) . . .
116(6) . . .
112(6) . . .
123(6) . . .
124(6) . . .
138(6) . . .
119(6) . . .
129(7) . . .
103(5) . . .
126(6) . . .
137(6) . . .
123(6) . . .
125(7) . . .
111(6) . . .
127(6) . . .
116(6) . . .
114(6) . . .
118(6) . . .
121(6) . . .
131(6) . . .
133(6) . . .
139(6) . . .
120(6) . . .
142(6) . . .
129(6) . . .
133(6) . . .
136(6) . . .
125(6) . . .
113(6) . . .
121(6) . . .
117(6) . . .
121(6) . . .
113(6) . . .
128(6) . . .
113(6) . . .
115(6) . . .
119(6) . . .
124(6) . . .
126(6) . . .
117(6) . . .
122(6) . . .
122(6) . . .
116(6) . . .
115(6) . . .
118(6) . . .
121(6) . . .
113(6) . . .
119(6) . . .
139(6) . . .
139(6) . . .
131(6) . . .
116(6) . . .
136(6) . . .
115(6) . . .
123(6) . . .
128(6) . . .
124(6) . . .
120(6) . . .
138(6) . . .
127(6) . . .
128(6) . . .
138(6) . . .
119(6) . . .
111(5) . . .
104(5) . . .
118(6) . . .
123(6) . . .
130(6) . . .
120(6) . . .
125(6) . . .
135(6) . . .
129(6) . . .
121(6) . . .
124(6) . . .
104(5) . . .
138(6) . . .
139(6) . . .
149(6) . . .
135(6) . . .
123(6) . . .
144(6) . . .
118(6) . . .
119(6) . . .
131(6) . . .
120(6) . . .
106(6) . . .
135(6) . . .
130(6) . . .
122(6) . . .
131(6) . . .
124(6) . . .
126(6) . . .
113(6) . . .
118(6) . . .
126(6) . . .
121(6) . . .
111(6) . . .
128(6) . . .
112(6) . . .
117(6) . . .
118(6) . . .
117(6) . . .
111(6) . . .
123(6) . . .
113(6) . . .
125(6) . . .
135(6) . . .
128(6) . . .
128(6) . . .
129(6) . . .
131(6) . . .
120(6) . . .
107(5) . . .
108(5) . . .
110(6) . . .
128(6) . . .
116(6) . . .
123(6) . . .
112(6) . . .
121(6) . . .
125(6) . . .
115(6) . . .
129(6) . . .
124(6) . . .
118(6) . . .
120(6) . . .
117(6) . . .
117(6) . . .
119(6) . . .
116(5) . . .
126(6) . . .
119(6) . . .
124(6) . . .
125(6) . . .
126(6) . . .
112(6) . . .
120(6) . . .
130(6) . . .
126(6) . . .
115(6) . . .
118(6) . . .
118(6) . . .
117(6) . . .
121(6) . . .
117(6) . . .
117(6) . . .
128(6) . . .
123(6) . . .
149(6) . . .
130(6) . . .
125(6) . . .
130(6) . . .
117(6) . . .
124(6) . . .
126(6) . . .
130(6) . . .
127(6) . . .
126(6) . . .
122(6) . . .
110(6) . . .
135(6) . . .
126(6) . . .
126(6) . . .
109(5) . . .
127(6) . . .
120(6) . . .
110(5) . . .
110(5) . . .
128(6) . . .
133(6) . . .
122(6) . . .
130(6) . . .
131(6) . . .
108(5) . . .
126(6) . . .
126(6) . . .
121(6) . . .
124(6) . . .
120(6) . . .
118(6) . . .
116(6) . . .
110(5) . . .
125(6) . . .
136(6) . . .
120(6) . . .
130(6) . . .
116(6) . . .
110(6) . . .
133(6) . . .
133(6) . . .
128(6) . . .
106(5) . . .
117(6) . . .
116(6) . . .
121(6) . . .
119(6) . . .
125(6) . . .
128(6) . . .
116(6) . . .
132(6) . . .
133(6) . . .
119(6) . . .
100(5) . . .
121(6) . . .
128(6) . . .
124(6) . . .
125(6) . . .
115(6) . . .
122(6) . . .
117(6) . . .
130(6) . . .
122(6) . . .
117(6) . . .
131(7) . . .
121(6) . . .
120(6) . . .
132(6) . . .
105(5) . . .
120(6) . . .
133(6) . . .
123(6) . . .
121(6) . . .
127(6) . . .
120(6) . . .
134(6) . . .
114(6) . . .
119(6) . . .
127(6) . . .
115(6) . . .
135(6) . . .
139(6) . . .
131(6) . . .
124(6) . . .
117(6) . . .
129(6) . . .
128(6) . . .
123(6) . . .
120(6) . . .
116(6) . . .
110(6) . . .
119(6) . . .
119(6) . . .
124(6) . . .
114(6) . . .
137(6) . . .
121(6) . . .
122(6) . . .
101(5) . . .
117(6) . . .
115(6) . . .
128(6) . . .
121(6) . . .
129(6) . . .
121(6) . . .
110(6) . . .
127(6) . . .
111(6) . . .
116(6) . . .
114(6) . . .
133(6) . . .
117(6) . . .
107(6) . . .
133(7) . . .
131(6) . . .
112(5) . . .
112(6) . . .
120(6) . . .
114(6) . . .
129(6) . . .
121(6) . . .
117(6) . . .
124(6) . . .
128(6) . . .
118(6) . . .
122(6) . . .
126(6) . . .
103(5) . . .
101(6) . . .
118(6) . . .
110(6) . . .
128(6) . . .
125(6) . . .
128(6) . . .
134(6) . . .
96(5) . . .
104(5) . . .
111(6) . . .
125(6) . . .
116(6) . . .
116(6) . . .
118(6) . . .
115(6) . . .
127(6) . . .
112(5) . . .
118(6) . . .
122(6) . . .
118(6) . . .
121(6) . . .
111(6) . . .
126(6) . . .
122(6) . . .
123(6) . . .
120(6) . . .
118(6) . . .
114(6) . . .
126(6) . . .
121(6) . . .
123(6) . . .
117(6) . . .
126(6) . . .
121(6) . . .
124(6) . . .
109(5) . . .
132(6) . . .
127(6) . . .
110(6) . . .
124(6) . . .
133(6) . . .
135(6) . . .
112(5) . . .
103(5) . . .
133(7) . . .
110(6) . . .
128(6) . . .
114(6) . . .
107(6) . . .
129(6) . . .
117(6) . . .
114(6) . . .
117(6) . . .
133(6) . . .
120(6) . . .
124(6) . . .
124(6) . . .
110(6) . . .
118(6) . . .
114(6) . . .
136(6) . . .
116(6) . . .
124(6) . . .
126(6) . . .
136(6) . . .
132(6) . . .
120(6) . . .
131(6) . . .
117(6) . . .
120(6) . . .
140(6) . . .
136(6) . . .
99(5) . . .
108(6) . . .
114(6) . . .
119(6) . . .
117(6) . . .
116(6) . . .
117(6) . . .
123(6) . . .
114(5) . . .
124(6) . . .
118(6) . . .
127(6) . . .
120(6) . . .
116(6) . . .
105(5) . . .
117(6) . . .
131(6) . . .
122(6) . . .
126(6) . . .
137(6) . . .
120(6) . . .
124(6) . . .
105(6) . . .
114(6) . . .
126(6) . . .
121(6) . . .
124(6) . . .
115(6) . . .
118(6) . . .
128(6) . . .
122(6) . . .
108(6) . . .
123(6) . . .
125(6) . . .
124(6) . . .
120(6) . . .
124(6) . . .
124(6) . . .
121(6) . . .
118(6) . . .
134(6) . . .
119(6) . . .
115(6) . . .
122(6) . . .
115(6) . . .
120(6) . . .
133(6) . . .
121(6) . . .
125(6) . . .
127(6) . . .
130(6) . . .
136(6) . . .
115(6) . . .
123(6) . . .
112(6) . . .
120(6) . . .
122(6) . . .
114(6) . . .
111(5) . . .
124(6) . . .
113(6) . . .
115(6) . . .
121(6) . . .
111(5) . . .
119(6) . . .
127(7) . . .
119(6) . . .
105(5) . . .
115(6) . . .
127(6) . . .
121(6) . . .
136(6) . . .
131(6) . . .
120(6) . . .
141(6) . . .
133(6) . . .
123(6) . . .
134(6) . . .
132(6) . . .
136(6) . . .
122(6) . . .
114(6) . . .
142(6) . . .
144(6) . . .
120(6) . . .
125(6) . . .
125(6) . . .
135(6) . . .
127(6) . . .
109(6) . . .
128(6) . . .
124(6) . . .
133(6) . . .
123(6) . . .
107(6) . . .
128(6) . . .
138(6) . . .
125(6) . . .
132(6) . . .
124(6) . . .
123(6) . . .
125(6) . . .
135(6) . . .
125(6) . . .
129(6) . . .
116(6) . . .
144(6) . . .
116(6) . . .
112(6) . . .
116(6) . . .
126(6) . . .
114(6) . . .
118(6) . . .
126(6) . . .
138(7) . . .
117(6) . . .
115(6) . . .
118(6) . . .
116(6) . . .
125(6) . . .
124(6) . . .
113(6) . . .
129(6) . . .
113(6) . . .
123(6) . . .
134(6) . . .
136(6) . . .
127(6) . . .
129(6) . . .
113(6) . . .
114(6) . . .
110(5) . . .
129(6) . . .
118(6) . . .
125(6) . . .
110(6) . . .
138(6) . . .
119(6) . . .
129(6) . . .
108(6) . . .
120(6) . . .
129(6) . . .
127(6) . . .
122(6) . . .
115(6) . . .
107(5) . . .
126(6) . . .
127(6) . . .
119(6) . . .
119(6) . . .
123(6) . . .
141(6) . . .
124(6) . . .
121(6) . . .
130(6) . . .
137(6) . . .
131(6) . . .
115(6) . . .
121(6) . . .
111(6) . . .
110(5) . . .
110(6) . . .
131(6) . . .
128(6) . . .
114(6) . . .
131(6) . . .
122(6) . . .
114(6) . . .
99(6) . . .
133(6) . . .
122(6) . . .
129(6) . . .
116(6) . . .
103(6) . . .
122(6) . . .
122(6) . . .
128(6) . . .
134(6) . . .
111(6) . . .
133(6) . . .
110(5) . . .
118(6) . . .
127(6) . . .
112(6) . . .
133(6) . . .
129(6) . . .
131(6) . . .
112(5) . . .
132(6) . . .
118(6) . . .
121(6) . . .
119(6) . . .
106(6) . . .
103(6) . . .
115(6) . . .
120(6) . . .
117(6) . . .
116(6) . . .
116(6) . . .
122(6) . . .
131(6) . . .
140(7) . . .
104(6) . . .
107(5) . . .
109(5) . . .
110(5) . . .
113(6) . . .
117(6) . . .
124(6) . . .
120(6) . . .
109(5) . . .
116(6) . . .
119(6) . . .
109(6) . . .
124(6) . . .
122(6) . . .
110(6) . . .
125(6) . . .
129(6) . . .
123(6) . . .
114(6) . . .
113(6) . . .
122(6) . . .
120(6) . . .
120(6) . . .
117(6) . . .
105(5) . . .
111(6) . . .
128(6) . . .
124(6) . . .
118(6) . . .
123(6) . . .
127(6) . . .
117(6) . . .
124(6) . . .
130(6) . . .
112(6) . . .
123(6) . . .
122(6) . . .
126(6) . . .
115(6) . . .
127(6) . . .
115(6) . . .
110(6) . . .
100(5) . . .
116(6) . . .
104(6) . . .
129(6) . . .
120(6) . . .
120(6) . . .
117(6) . . .
108(6) . . .
118(6) . . .
118(6) . . .
113(5) . . .
113(6) . . .
136(7) . . .
114(6) . . .
113(6) . . .
112(6) . . .
132(6) . . .
113(6) . . .
126(6) . . .
115(6) . . .
115(6) . . .
136(6) . . .
116(6) . . .
122(6) . . .
123(6) . . .
113(6) . . .
114(6) . . .
124(6) . . .
118(6) . . .
128(6) . . .
118(6) . . .
103(5) . . .
116(6) . . .
115(6) . . .
119(6) . . .
126(6) . . .
121(6) . . .
110(6) . . .
123(6) . . .
120(6) . . .
116(6) . . .
126(6) . . .
140(7) . . .
104(5) . . .
133(6) . . .
118(6) . . .
101(5) . . .
126(6) . . .
115(6) . . .
125(6) . . .
119(6) . . .
115(6) . . .
123(6) . . .
104(5) . . .
118(6) . . .
115(6) . . .
144(7) . . .
134(6) . . .
118(6) . . .
132(6) . . .
140(6) . . .
125(6) . . .
126(6) . . .
107(5) . . .
120(6) . . .
109(6) . . .
124(6) . . .
123(6) . . .
122(6) . . .
116(6) . . .
113(6) . . .
120(6) . . .
123(6) . . .
112(6) . . .
116(6) . . .
121(6) . . .
134(6) . . .
121(6) . . .
126(6) . . .
125(6) . . .
110(5) . . .
121(6) . . .
127(6) . . .
124(6) . . .
108(6) . . .
121(6) . . .
126(6) . . .
113(6) . . .
111(5) . . .
113(6) . . .
113(6) . . .
136(7) . . .
122(6) . . .
115(6) . . .
124(6) . . .
126(6) . . .
119(6) . . .
124(6) . . .
109(5) . . .
106(5) . . .
111(6) . . .
119(6) . . .
130(6) . . .
113(6) . . .
113(6) . . .
117(6) . . .
110(6) . . .
116(6) . . .
110(5) . . .
112(6) . . .
118(6) . . .
117(6) . . .
107(5) . . .
101(5) . . .
114(6) . . .
135(6) . . .
102(5) . . .
112(6) . . .
103(5) . . .
103(5) . . .
110(6) . . .
123(6) . . .
123(6) . . .
122(6) . . .
119(6) . . .
108(6) . . .
113(6) . . .
130(6) . . .
113(5) . . .
122(6) . . .
114(6) . . .
119(6) . . .
111(5) . . .
119(6) . . .
102(5) . . .
132(6) . . .
108(6) . . .
119(6) . . .
131(6) . . .
120(6) . . .
117(6) . . .
120(6) . . .
124(6) . . .
129(6) . . .
120(6) . . .
123(6) . . .
108(6) . . .
109(5) . . .
112(6) . . .
124(6) . . .
110(6) . . .
122(6) . . .
121(6) . . .
120(6) . . .
110(6) . . .
114(6) . . .
121(6) . . .
111(5) . . .
107(6) . . .
121(6) . . .
129(6) . . .
118(6) . . .
119(6) . . .
105(5) . . .
115(6) . . .
124(6) . . .
102(5) . . .
128(6) . . .
128(6) . . .
119(6) . . .
105(5) . . .
118(6) . . .
109(5) . . .
126(6) . . .
122(6) . . .
117(6) . . .
114(6) . . .
111(6) . . .
116(6) . . .
113(6) . . .
120(6) . . .
113(6) . . .
108(5) . . .
110(6) . . .
116(6) . . .
120(6) . . .
114(6) . . .
113(6) . . .
134(6) . . .
120(6) . . .
119(6) . . .
105(5) . . .
107(5) . . .
116(6) . . .
111(6) . . .
120(6) . . .
121(6) . . .
131(6) . . .
109(5) . . .
123(6) . . .
139(6) . . .
128(6) . . .
101(5) . . .
118(6) . . .
130(6) . . .
114(6) . . .
128(6) . . .
116(6) . . .
127(6) . . .
116(6) . . .
106(5) . . .
111(5) . . .
108(5) . . .
123(6) . . .
119(6) . . .
106(5) . . .
114(6) . . .
109(6) . . .
114(6) . . .
124(6) . . .
114(6) . . .
121(6) . . .
116(6) . . .
117(6) . . .
121(6) . . .
110(6) . . .
98(5) . . .
103(5) . . .
116(6) . . .
112(6) . . .
103(5) . . .
111(5) . . .
120(6) . . .
127(6) . . .
133(6) . . .
119(6) . . .
112(6) . . .
128(6) . . .
109(6) . . .
112(6) . . .
109(5) . . .
122(6) . . .
107(5) . . .
104(6) . . .
112(6) . . .
119(6) . . .
104(5) . . .
131(6) . . .
123(6) . . .
127(6) . . .
131(6) . . .
101(5) . . .
108(6) . . .
108(6) . . .
107(5) . . .
121(6) . . .
119(6) . . .
116(6) . . .
106(5) . . .
117(6) . . .
130(6) . . .
123(6) . . .
117(6) . . .
108(6) . . .
129(6) . . .
119(6) . . .
128(6) . . .
126(6) . . .
110(6) . . .
114(6) . . .
99(5) . . .
117(6) . . .
114(6) . . .
115(6) . . .
108(5) . . .
126(6) . . .
112(6) . . .
119(6) . . .
124(6) . . .
123(6) . . .
110(6) . . .
113(6) . . .
112(6) . . .
118(6) . . .
126(6) . . .
118(6) . . .
126(6) . . .
108(6) . . .
131(6) . . .
108(5) . . .
111(6) . . .
111(6) . . .
113(6) . . .
101(5) . . .
94(5) . . .
107(5) . . .
107(6) . . .
122(6) . . .
122(6) . . .
117(6) . . .
109(6) . . .
115(6) . . .
104(5) . . .
124(6) . . .
113(6) . . .
120(6) . . .
103(5) . . .
111(6) . . .
107(6) . . .
117(6) . . .
110(6) . . .
107(6) . . .
102(5) . . .
116(6) . . .
104(5) . . .
134(6) . . .
123(6) . . .
121(6) . . .
104(5) . . .
110(5) . . .
114(6) . . .
95(5) . . .
113(6) . . .
120(6) . . .
112(6) . . .
105(6) . . .
120(6) . . .
125(6) . . .
110(5) . . .
139(6) . . .
126(6) . . .
125(6) . . .
113(6) . . .
134(6) . . .
118(6) . . .
120(6) . . .
124(6) . . .
109(5) . . .
103(5) . . .
108(5) . . .
135(6) . . .
124(6) . . .
106(6) . . .
100(5) . . .
109(5) . . .
125(6) . . .
109(6) . . .
116(6) . . .
116(6) . . .
124(6) . . .
118(6) . . .
141(7) . . .
126(6) . . .
113(6) . . .
122(6) . . .
114(6) . . .
111(6) . . .
108(5) . . .
129(6) . . .
104(5) . . .
137(6) . . .
140(7) . . .
115(6) . . .
104(5) . . .
126(6) . . .
113(6) . . .
112(6) . . .
106(5) . . .
109(5) . . .
112(6) . . .
107(6) . . .
113(6) . . .
114(6) . . .
118(6) . . .
115(6) . . .
118(6) . . .
92(5) . . .
108(6) . . .
107(5) . . .
123(6) . . .
118(6) . . .
97(5) . . .
111(5) . . .
113(6) . . .
122(6) . . .
117(6) . . .
115(6) . . .
108(6) . . .
111(5) . . .
106(5) . . .
98(5) . . .
109(6) . . .
101(5) . . .
114(6) . . .
121(6) . . .
126(6) . . .
124(6) . . .
128(6) . . .
119(6) . . .
115(6) . . .
123(6) . . .
112(6) . . .
108(5) . . .
107(6) . . .
118(6) . . .
113(6) . . .
125(6) . . .
117(6) . . .
114(6) . . .
115(6) . . .
102(5) . . .
103(5) . . .
118(6) . . .
117(6) . . .
113(6) . . .
118(6) . . .
129(6) . . .
102(5) . . .
100(5) . . .
108(6) . . .
129(6) . . .
128(6) . . .
114(6) . . .
119(6) . . .
127(6) . . .
110(5) . . .
107(5) . . .
104(5) . . .
115(6) . . .
96(5) . . .
109(6) . . .
109(5) . . .
117(6) . . .
125(6) . . .
103(6) . . .
120(6) . . .
118(6) . . .
130(6) . . .
124(6) . . .
111(6) . . .
113(6) . . .
107(5) . . .
98(5) . . .
90(5) . . .
102(5) . . .
127(6) . . .
111(6) . . .
117(6) . . .
110(6) . . .
105(6) . . .
99(5) . . .
110(5) . . .
124(6) . . .
107(5) . . .
103(5) . . .
105(5) . . .
101(5) . . .
111(6) . . .
120(6) . . .
117(6) . . .
116(6) . . .
108(5) . . .
125(6) . . .
110(6) . . .
122(6) . . .
99(5) . . .
110(5) . . .
129(6) . . .
115(6) . . .
110(6) . . .
115(6) . . .
104(5) . . .
107(6) . . .
111(6) . . .
100(6) . . .
98(5) . . .
119(6) . . .
121(6) . . .
126(6) . . .
102(6) . . .
127(6) . . .
108(5) . . .
98(5) . . .
105(6) . . .
113(6) . . .
101(5) . . .
125(6) . . .
111(6) . . .
108(6) . . .
100(6) . . .
123(6) . . .
117(6) . . .
126(6) . . .
119(6) . . .
120(6) . . .
118(6) . . .
98(5) . . .
117(6) . . .
114(6) . . .
105(5) . . .
115(6) . . .
113(5) . . .
112(6) . . .
107(6) . . .
110(6) . . .
120(6) . . .
105(6) . . .
126(6) . . .
125(6) . . .
114(6) . . .
105(5) . . .
113(6) . . .
122(6) . . .
128(6) . . .
120(6) . . .
111(5) . . .
101(5) . . .
106(6) . . .
107(6) . . .
139(6) . . .
144(6) . . .
110(6) . . .
121(6) . . .
127(6) . . .
131(6) . . .
114(5) . . .
129(6) . . .
124(6) . . .
116(6) . . .
134(6) . . .
114(6) . . .
109(5) . . .
115(6) . . .
111(6) . . .
103(5) . . .
97(5) . . .
102(5) . . .
118(6) . . .
124(6) . . .
102(5) . . .
113(6) . . .
108(6) . . .
124(6) . . .
115(6) . . .
112(6) . . .
115(6) . . .
109(6) . . .
116(6) . . .
108(5) . . .
111(5) . . .
108(6) . . .
122(6) . . .
112(6) . . .
112(6) . . .
108(5) . . .
116(6) . . .
118(6) . . .
108(6) . . .
115(6) . . .
133(6) . . .
109(6) . . .
120(6) . . .
118(6) . . .
118(6) . . .
100(5) . . .
108(6) . . .
105(6) . . .
105(5) . . .
107(5) . . .
120(6) . . .
109(6) . . .
108(6) . . .
105(5) . . .
110(5) . . .
126(6) . . .
111(6) . . .
120(6) . . .
100(5) . . .
107(5) . . .
114(6) . . .
122(6) . . .
110(6) . . .
121(6) . . .
104(5) . . .
115(6) . . .
102(5) . . .
111(6) . . .
113(6) . . .
95(5) . . .
112(6) . . .
119(6) . . .
128(6) . . .
104(6) . . .
119(6) . . .
100(5) . . .
112(6) . . .
101(5) . . .
114(6) . . .
104(5) . . .
99(5) . . .
114(6) . . .
118(6) . . .
105(5) . . .
113(6) . . .
122(6) . . .
120(6) . . .
100(6) . . .
119(6) . . .
115(6) . . .
120(6) . . .
120(6) . . .
107(6) . . .
109(5) . . .
106(5) . . .
128(6) . . .
107(6) . . .
101(6) . . .
97(5) . . .
116(6) . . .
116(6) . . .
106(6) . . .
119(6) . . .
105(5) . . .
119(6) . . .
112(5) . . .
115(6) . . .
107(5) . . .
117(6) . . .
99(5) . . .
125(6) . . .
111(6) . . .
109(6) . . .
104(5) . . .
113(6) . . .
107(6) . . .
103(6) . . .
116(6) . . .
106(5) . . .
104(5) . . .
124(6) . . .
120(6) . . .
113(6) . . .
97(5) . . .
93(5) . . .
88(5) . . .
106(6) . . .
125(6) . . .
116(6) . . .
111(6) . . .
114(6) . . .
113(6) . . .
118(6) . . .
106(5) . . .
116(6) . . .
110(6) . . .
101(5) . . .
119(6) . . .
109(5) . . .
105(6) . . .
125(6) . . .
121(6) . . .
119(6) . . .
106(5) . . .
119(6) . . .
102(5) . . .
106(5) . . .
110(5) . . .
116(6) . . .
118(6) . . .
107(6) . . .
111(6) . . .
93(5) . . .
116(6) . . .
122(6) . . .
117(6) . . .
107(5) . . .
114(5) . . .
122(6) . . .
109(5) . . .
120(6) . . .
118(6) . . .
100(5) . . .
119(6) . . .
119(6) . . .
110(6) . . .
105(6) . . .
107(5) . . .
107(5) . . .
105(6) . . .
103(6) . . .
106(6) . . .
104(5) . . .
115(6) . . .
105(5) . . .
109(6) . . .
98(5) . . .
120(6) . . .
119(6) . . .
98(5) . . .
120(6) . . .
103(6) . . .
106(5) . . .
116(6) . . .
104(6) . . .
107(6) . . .
112(6) . . .
116(6) . . .
104(5) . . .
106(6) . . .
108(6) . . .
110(6) . . .
119(6) . . .
102(5) . . .
105(6) . . .
102(5) . . .
120(6) . . .
114(6) . . .
115(6) . . .
113(6) . . .
121(6) . . .
106(5) . . .
97(5) . . .
113(6) . . .
119(6) . . .
106(6) . . .
104(5) . . .
101(5) . . .
93(5) . . .
95(5) . . .
111(6) . . .
116(6) . . .
107(5) . . .
121(6) . . .
107(6) . . .
101(5) . . .
99(5) . . .
109(6) . . .
114(6) . . .
117(6) . . .
130(6) . . .
112(6) . . .
108(5) . . .
115(6) . . .
103(6) . . .
112(6) . . .
102(5) . . .
106(5) . . .
105(5) . . .
120(6) . . .
103(5) . . .
104(5) . . .
92(5) . . .
108(6) . . .
110(5) . . .
111(6) . . .
99(5) . . .
118(6) . . .
117(6) . . .
106(6) . . .
117(6) . . .
112(6) . . .
122(6) . . .
128(6) . . .
121(6) . . .
109(5) . . .
111(5) . . .
108(5) . . .
122(6) . . .
108(5) . . .
114(6) . . .
105(5) . . .
101(5) . . .
105(5) . . .
114(6) . . .
129(6) . . .
115(6) . . .
108(6) . . .
115(6) . . .
110(6) . . .
105(5) . . .
113(6) . . .
111(6) . . .
114(6) . . .
115(6) . . .
97(5) . . .
100(5) . . .
103(5) . . .
105(6) . . .
110(6) . . .
107(5) . . .
109(5) . . .
113(6) . . .
113(6) . . .
119(6) . . .
111(5) . . .
114(6) . . .
107(5) . . .
111(6) . . .
112(6) . . .
104(5) . . .
117(6) . . .
130(6) . . .
124(6) . . .
115(6) . . .
117(6) . . .
115(6) . . .
113(6) . . .
106(6) . . .
104(5) . . .
109(5) . . .
113(6) . . .
110(6) . . .
109(6) . . .
106(6) . . .
117(6) . . .
122(6) . . .
98(5) . . .
102(5) . . .
105(5) . . .
94(5) . . .
117(6) . . .
115(6) . . .
111(6) . . .
111(5) . . .
115(6) . . .
96(5) . . .
105(6) . . .
101(5) . . .
112(5) . . .
118(6) . . .
122(6) . . .
89(5) . . .
100(5) . . .
108(5) . . .
117(6) . . .
118(6) . . .
116(6) . . .
116(6) . . .
115(6) . . .
114(6) . . .
114(6) . . .
109(6) . . .
115(6) . . .
100(5) . . .
89(5) . . .
94(5) . . .
121(6) . . .
104(5) . . .
110(5) . . .
97(5) . . .
115(6) . . .
106(5) . . .
110(6) . . .
108(5) . . .
119(6) . . .
110(6) . . .
107(6) . . .
118(6) . . .
117(6) . . .
102(5) . . .
109(6) . . .
108(6) . . .
111(5) . . .
105(5) . . .
104(6) . . .
99(5) . . .
111(6) . . .
116(6) . . .
102(5) . . .
114(6) . . .
103(6) . . .
91(5) . . .
116(6) . . .
95(5) . . .
96(5) . . .
113(6) . . .
97(5) . . .
109(6) . . .
102(5) . . .
103(6) . . .
116(6) . . .
122(6) . . .
124(6) . . .
116(6) . . .
96(5) . . .
115(6) . . .
102(5) . . .
128(6) . . .
110(5) . . .
108(6) . . .
109(6) . . .
121(6) . . .
117(6) . . .
102(5) . . .
100(6) . . .
104(6) . . .
121(6) . . .
121(6) . . .
113(6) . . .
104(5) . . .
111(6) . . .
110(6) . . .
101(5) . . .
101(5) . . .
107(6) . . .
124(6) . . .
107(6) . . .
102(5) . . .
111(6) . . .
106(6) . . .
115(6) . . .
125(6) . . .
110(5) . . .
115(6) . . .
112(6) . . .
117(6) . . .
107(5) . . .
104(5) . . .
107(6) . . .
101(6) . . .
116(6) . . .
120(6) . . .
116(6) . . .
102(5) . . .
89(5) . . .
111(6) . . .
108(5) . . .
117(6) . . .
108(5) . . .
98(5) . . .
103(6) . . .
107(5) . . .
112(5) . . .
111(6) . . .
104(6) . . .
99(5) . . .
112(5) . . .
116(6) . . .
117(6) . . .
114(6) . . .
100(5) . . .
101(5) . . .
109(6) . . .
110(6) . . .
108(6) . . .
104(5) . . .
95(5) . . .
108(5) . . .
115(6) . . .
104(6) . . .
106(6) . . .
116(6) . . .
108(6) . . .
116(6) . . .
108(6) . . .
99(5) . . .
105(5) . . .
101(5) . . .
105(6) . . .
100(5) . . .
115(6) . . .
112(6) . . .
112(6) . . .
98(5) . . .
105(6) . . .
108(6) . . .
107(5) . . .
125(6) . . .
110(6) . . .
105(5) . . .
99(5) . . .
113(6) . . .
130(6) . . .
116(6) . . .
103(5) . . .
109(5) . . .
116(6) . . .
103(5) . . .
105(6) . . .
105(5) . . .
90(5) . . .
110(5) . . .
107(6) . . .
113(6) . . .
120(6) . . .
117(6) . . .
110(5) . . .
101(5) . . .
104(6) . . .
113(6) . . .
102(5) . . .
123(6) . . .
120(6) . . .
128(6) . . .
107(5) . . .
101(5) . . .
111(6) . . .
118(6) . . .
103(6) . . .
127(6) . . .
129(6) . . .
128(6) . . .
114(6) . . .
115(6) . . .
110(6) . . .
119(6) . . .
114(6) . . .
111(6) . . .
108(6) . . .
109(6) . . .
113(6) . . .
103(6) . . .
122(6) . . .
118(6) . . .
114(6) . . .
114(6) . . .
114(6) . . .
96(5) . . .
110(6) . . .
109(5) . . .
115(6) . . .
113(6) . . .
110(6) . . .
108(6) . . .
103(5) . . .
110(5) . . .
103(5) . . .
121(6) . . .
103(6) . . .
116(6) . . .
104(5) . . .
110(6) . . .
99(5) . . .
104(5) . . .
108(5) . . .
103(5) . . .
104(5) . . .
106(6) . . .
102(5) . . .
101(5) . . .
104(5) . . .
109(6) . . .
106(6) . . .
101(5) . . .
105(5) . . .
112(6) . . .
107(6) . . .
103(6) . . .
113(6) . . .
104(5) . . .
95(5) . . .
96(5) . . .
106(6) . . .
102(6) . . .
114(6) . . .
113(6) . . .
107(6) . . .
117(6) . . .
115(6) . . .
112(5) . . .
99(5) . . .
113(6) . . .
108(6) . . .
107(6) . . .
109(5) . . .
97(5) . . .
111(6) . . .
111(6) . . .
116(6) . . .
108(5) . . .
115(6) . . .
98(5) . . .
105(5) . . .
111(6) . . .
113(6) . . .
101(5) . . .
100(5) . . .
116(6) . . .
119(6) . . .
96(5) . . .
100(5) . . .
106(6) . . .
95(5) . . .
112(6) . . .
94(5) . . .
106(5) . . .
110(6) . . .
96(5) . . .
100(5) . . .
110(6) . . .
128(6) . . .
111(6) . . .
95(5) . . .
96(5) . . .
103(5) . . .
105(6) . . .
108(6) . . .
106(6) . . .
115(6) . . .
106(5) . . .
97(5) . . .
101(6) . . .
91(5) . . .
109(5) . . .
96(5) . . .
119(6) . . .
97(5) . . .
106(6) . . .
104(5) . . .
99(5) . . .
108(6) . . .
106(6) . . .
96(5) . . .
93(5) . . .
115(6) . . .
115(6) . . .
99(5) . . .
88(5) . . .
105(5) . . .
102(5) . . .
103(5) . . .
110(6) . . .
117(6) . . .
122(6) . . .
113(6) . . .
98(5) . . .
99(5) . . .
88(5) . . .
91(5) . . .
102(5) . . .
122(6) . . .
113(6) . . .
105(5) . . .
118(6) . . .
101(5) . . .
105(6) . . .
122(6) . . .
109(5) . . .
102(5) . . .
107(6) . . .
103(6) . . .
108(6) . . .
98(5) . . .
112(5) . . .
106(5) . . .
123(6) . . .
109(6) . . .
109(5) . . .
115(6) . . .
99(5) . . .
103(5) . . .
103(5) . . .
102(5) . . .
124(6) . . .
110(6) . . .
102(5) . . .
97(5) . . .
105(5) . . .
101(5) . . .
101(5) . . .
132(6) . . .
117(6) . . .
108(5) . . .
111(6) . . .
87(5) . . .
100(5) . . .
103(5) . . .
112(6) . . .
105(5) . . .
87(5) . . .
114(6) . . .
110(5) . . .
116(6) . . .
111(6) . . .
115(6) . . .
109(6) . . .
94(5) . . .
105(5) . . .
103(5) . . .
105(5) . . .
123(6) . . .
114(6) . . .
111(6) . . .
97(5) . . .
109(6) . . .
105(6) . . .
95(5) . . .
88(5) . . .
102(6) . . .
114(6) . . .
123(6) . . .
114(6) . . .
114(6) . . .
103(5) . . .
94(5) . . .
101(5) . . .
106(5) . . .
87(5) . . .
102(5) . . .
108(6) . . .
120(6) . . .
117(6) . . .
100(5) . . .
99(5) . . .
109(6) . . .
114(6) . . .
106(5) . . .
102(5) . . .
107(5) . . .
118(6) . . .
115(6) . . .
95(5) . . .
103(5) . . .
100(6) . . .
101(6) . . .
107(5) . . .
114(6) . . .
112(6) . . .
98(5) . . .
109(6) . . .
123(6) . . .
104(5) . . .
96(5) . . .
101(5) . . .
114(6) . . .
100(5) . . .
101(5) . . .
109(6) . . .
116(6) . . .
106(6) . . .
101(5) . . .
97(5) . . .
115(6) . . .
106(6) . . .
109(6) . . .
117(6) . . .
119(6) . . .
99(5) . . .
96(5) . . .
111(6) . . .
123(6) . . .
122(6) . . .
99(5) . . .
97(5) . . .
122(6) . . .
98(5) . . .
99(5) . . .
101(5) . . .
107(6) . . .
107(6) . . .
98(5) . . .
106(5) . . .
108(6) . . .
105(6) . . .
101(5) . . .
100(5) . . .
107(6) . . .
106(6) . . .
103(6) . . .
108(6) . . .
106(5) . . .
103(5) . . .
116(6) . . .
112(6) . . .
111(6) . . .
110(5) . . .
100(5) . . .
111(6) . . .
99(5) . . .
110(5) . . .
97(5) . . .
107(5) . . .
113(6) . . .
105(5) . . .
103(5) . . .
111(5) . . .
111(6) . . .
107(6) . . .
107(6) . . .
106(5) . . .
111(5) . . .
118(6) . . .
114(6) . . .
109(6) . . .
118(6) . . .
119(6) . . .
102(5) . . .
107(6) . . .
118(6) . . .
125(6) . . .
111(5) . . .
122(6) . . .
114(6) . . .
86(5) . . .
113(6) . . .
112(6) . . .
121(6) . . .
99(5) . . .
99(5) . . .
97(5) . . .
119(6) . . .
103(5) . . .
110(6) . . .
115(6) . . .
99(5) . . .
100(5) . . .
110(6) . . .
116(6) . . .
106(5) . . .
109(5) . . .
97(5) . . .
124(6) . . .
101(5) . . .
111(6) . . .
97(5) . . .
115(6) . . .
99(5) . . .
110(5) . . .
111(6) . . .
106(5) . . .
106(6) . . .
103(5) . . .
109(6) . . .
105(5) . . .
95(5) . . .
97(5) . . .
102(6) . . .
100(5) . . .
102(5) . . .
113(6) . . .
91(5) . . .
103(6) . . .
105(6) . . .
103(5) . . .
108(6) . . .
105(6) . . .
96(5) . . .
103(5) . . .
109(5) . . .
106(5) . . .
119(6) . . .
97(6) . . .
110(6) . . .
98(5) . . .
97(5) . . .
120(6) . . .
98(5) . . .
85(5) . . .
98(5) . . .
102(5) . . .
107(6) . . .
108(6) . . .
112(6) . . .
110(5) . . .
103(5) . . .
97(5) . . .
94(5) . . .
98(5) . . .
105(5) . . .
121(6) . . .
98(5) . . .
123(6) . . .
85(5) . . .
108(5) . . .
101(5) . . .
100(5) . . .
108(6) . . .
96(5) . . .
99(5) . . .
97(5) . . .
98(5) . . .
110(6) . . .
102(5) . . .
104(5) . . .
106(6) . . .
92(5) . . .
106(5) . . .
99(5) . . .
100(5) . . .
100(5) . . .
113(6) . . .
100(5) . . .
109(5) . . .
98(5) . . .
100(5) . . .
90(5) . . .
95(5) . . .
114(6) . . .
106(5) . . .
101(5) . . .
91(5) . . .
112(6) . . .
120(6) . . .
110(6) . . .
100(5) . . .
100(6) . . .
107(6) . . .
103(5) . . .
108(6) . . .
109(6) . . .
119(6) . . .
114(6) . . .
111(5) . . .
104(5) . . .
110(6) . . .
90(5) . . .
106(6) . . .
104(5) . . .
114(6) . . .
110(6) . . .
111(6) . . .
99(5) . . .
110(5) . . .
113(6) . . .
99(6) . . .
100(5) . . .
91(5) . . .
81(5) . . .
104(6) . . .
102(5) . . .
97(5) . . .
99(5) . . .
106(5) . . .
104(5) . . .
99(5) . . .
105(6) . . .
112(6) . . .
107(5) . . .
97(5) . . .
108(6) . . .
88(5) . . .
97(5) . . .
95(5) . . .
109(6) . . .
103(5) . . .
99(5) . . .
92(5) . . .
103(5) . . .
100(5) . . .
93(5) . . .
105(6) . . .
90(5) . . .
97(5) . . .
89(5) . . .
88(5) . . .
86(5) . . .
97(5) . . .
99(5) . . .
108(6) . . .
99(5) . . .
108(6) . . .
107(5) . . .
111(6) . . .
101(6) . . .
104(6) . . .
109(6) . . .
107(5) . . .
101(5) . . .
104(5) . . .
100(5) . . .
86(5) . . .
107(5) . . .
101(5) . . .
97(6) . . .
94(5) . . .
96(5) . . .
108(5) . . .
108(6) . . .
97(5) . . .
108(6) . . .
107(5) . . .
109(5) . . .
100(5) . . .
104(6) . . .
93(5) . . .
112(6) . . .
107(5) . . .
104(5) . . .
100(6) . . .
105(5) . . .
99(5) . . .
99(5) . . .
99(5) . . .
102(6) . . .
111(5) . . .
108(5) . . .
110(5) . . .
113(6) . . .
95(5) . . .
98(5) . . .
95(5) . . .
98(5) . . .
102(5) . . .
120(6) . . .
101(5) . . .
109(5) . . .
106(5) . . .
94(5) . . .
104(6) . . .
106(5) . . .
99(5) . . .
84(5) . . .
83(5) . . .
96(5) . . .
101(6) . . .
101(5) . . .
106(5) . . .
107(6) . . .
107(6) . . .
106(5) . . .
102(5) . . .
113(6) . . .
103(5) . . .
109(6) . . .
94(5) . . .
106(5) . . .
101(5) . . .
94(5) . . .
104(5) . . .
105(5) . . .
102(5) . . .
103(6) . . .
103(6) . . .
110(6) . . .
102(5) . . .
108(5) . . .
95(5) . . .
99(5) . . .
106(6) . . .
95(5) . . .
87(5) . . .
110(6) . . .
96(5) . . .
99(5) . . .
98(5) . . .
95(5) . . .
99(5) . . .
116(6) . . .
108(6) . . .
100(5) . . .
109(5) . . .
91(5) . . .
105(6) . . .
97(5) . . .
105(5) . . .
90(5) . . .
104(5) . . .
99(5) . . .
99(5) . . .
98(5) . . .
107(6) . . .
116(6) . . .
95(5) . . .
106(5) . . .
104(5) . . .
94(5) . . .
109(6) . . .
101(5) . . .
108(6) . . .
115(6) . . .
104(5) . . .
118(6) . . .
95(5) . . .
118(6) . . .
120(6) . . .
99(5) . . .
95(5) . . .
107(5) . . .
108(6) . . .
115(6) . . .
89(5) . . .
98(5) . . .
88(5) . . .
114(6) . . .
103(5) . . .
103(5) . . .
105(6) . . .
111(6) . . .
90(5) . . .
95(5) . . .
107(6) . . .
107(6) . . .
99(5) . . .
108(5) . . .
98(5) . . .
111(6) . . .
108(6) . . .
105(6) . . .
102(5) . . .
105(5) . . .
102(5) . . .
109(6) . . .
104(6) . . .
91(5) . . .
116(6) . . .
116(6) . . .
120(6) . . .
109(5) . . .
100(5) . . .
110(5) . . .
100(5) . . .
105(6) . . .
91(5) . . .
97(5) . . .
88(5) . . .
115(6) . . .
105(6) . . .
105(6) . . .
103(5) . . .
103(5) . . .
105(6) . . .
109(6) . . .
118(6) . . .
98(5) . . .
101(5) . . .
84(5) . . .
96(5) . . .
99(5) . . .
104(5) . . .
98(5) . . .
109(6) . . .
104(5) . . .
112(6) . . .
104(5) . . .
111(6) . . .
106(6) . . .
94(5) . . .
107(5) . . .
91(5) . . .
96(5) . . .
78(5) . . .
97(5) . . .
91(5) . . .
109(6) . . .
102(5) . . .
118(6) . . .
89(5) . . .
92(5) . . .
104(5) . . .
99(5) . . .
96(5) . . .
103(5) . . .
97(5) . . .
103(5) . . .
96(5) . . .
108(6) . . .
101(5) . . .
93(5) . . .
106(6) . . .
94(5) . . .
95(5) . . .
104(6) . . .
108(5) . . .
98(5) . . .
93(5) . . .
98(5) . . .
91(5) . . .
93(5) . . .
94(5) . . .
95(5) . . .
96(5) . . .
97(5) . . .
93(5) . . .
116(6) . . .
117(6) . . .
98(5) . . .
106(5) . . .
104(5) . . .
90(5) . . .
99(5) . . .
96(5) . . .
75(5) . . .
93(5) . . .
92(5) . . .
102(6) . . .
108(6) . . .
107(5) . . .
101(5) . . .
91(5) . . .
92(5) . . .
111(6) . . .
94(5) . . .
102(5) . . .
102(6) . . .
91(5) . . .
94(5) . . .
96(5) . . .
95(5) . . .
99(5) . . .
87(5) . . .
93(5) . . .
87(5) . . .
86(5) . . .
91(5) . . .
98(5) . . .
105(5) . . .
98(5) . . .
104(5) . . .
100(5) . . .
115(6) . . .
112(6) . . .
119(6) . . .
102(5) . . .
101(5) . . .
91(5) . . .
87(5) . . .
120(6) . . .
119(6) . . .
87(5) . . .
102(5) . . .
96(5) . . .
102(5) . . .
91(5) . . .
109(6) . . .
108(5) . . .
97(5) . . .
110(5) . . .
108(6) . . .
99(5) . . .
108(6) . . .
107(5) . . .
100(5) . . .
100(6) . . .
106(6) . . .
91(5) . . .
91(5) . . .
93(5) . . .
103(6) . . .
104(6) . . .
90(5) . . .
80(5) . . .
99(5) . . .
86(5) . . .
93(5) . . .
94(5) . . .
104(5) . . .
96(5) . . .
96(5) . . .
106(6) . . .
86(5) . . .
94(5) . . .
89(5) . . .
96(5) . . .
87(5) . . .
98(6) . . .
99(5) . . .
94(5) . . .
97(5) . . .
104(6) . . .
98(5) . . .
102(5) . . .
91(5) . . .
94(5) . . .
104(5) . . .
104(6) . . .
105(5) . . .
92(5) . . .
82(5) . . .
104(6) . . .
94(5) . . .
94(5) . . .
93(5) . . .
94(5) . . .
108(6) . . .
101(6) . . .
98(5) . . .
106(6) . . .
98(5) . . .
90(5) . . .
84(5) . . .
100(5) . . .
120(6) . . .
107(6) . . .
99(5) . . .
108(5) . . .
102(5) . . .
104(6) . . .
93(5) . . .
97(5) . . .
115(6) . . .
105(5) . . .
123(6) . . .
101(6) . . .
82(5) . . .
89(5) . . .
95(5) . . .
97(5) . . .
105(6) . . .
104(6) . . .
105(5) . . .
110(6) . . .
101(5) . . .
122(6) . . .
104(5) . . .
100(5) . . .
95(5) . . .
88(5) . . .
92(5) . . .
102(6) . . .
96(5) . . .
100(5) . . .
102(5) . . .
98(5) . . .
109(6) . . .
112(6) . . .
94(5) . . .
104(6) . . .
96(5) . . .
87(5) . . .
107(5) . . .
96(5) . . .
97(5) . . .
105(5) . . .
94(5) . . .
100(5) . . .
101(5) . . .
97(5) . . .
95(5) . . .
92(5) . . .
90(5) . . .
105(6) . . .
89(5) . . .
92(5) . . .
108(5) . . .
94(5) . . .
92(5) . . .
99(6) . . .
125(6) . . .
100(5) . . .
91(5) . . .
99(5) . . .
90(5) . . .
83(5) . . .
109(5) . . .
116(6) . . .
105(6) . . .
102(6) . . .
93(5) . . .
103(5) . . .
90(5) . . .
101(5) . . .
103(5) . . .
99(5) . . .
98(5) . . .
100(5) . . .
91(5) . . .
102(5) . . .
105(5) . . .
109(5) . . .
98(5) . . .
108(6) . . .
104(6) . . .
95(5) . . .
98(5) . . .
112(6) . . .
101(5) . . .
91(5) . . .
101(6) . . .
97(5) . . .
93(5) . . .
100(6) . . .
99(6) . . .
107(5) . . .
97(5) . . .
95(5) . . .
110(6) . . .
107(6) . . .
92(5) . . .
106(5) . . .
97(5) . . .
96(5) . . .
94(5) . . .
106(6) . . .
109(5) . . .
97(5) . . .
101(6) . . .
96(5) . . .
107(5) . . .
100(5) . . .
94(5) . . .
90(5) . . .
81(5) . . .
94(5) . . .
94(5) . . .
83(5) . . .
94(6) . . .
88(5) . . .
88(5) . . .
85(5) . . .
88(5) . . .
94(6) . . .
98(5) . . .
103(5) . . .
99(5) . . .
91(5) . . .
92(5) . . .
99(5) . . .
101(5) . . .
90(5) . . .
80(5) . . .
106(6) . . .
101(5) . . .
99(5) . . .
101(5) . . .
91(5) . . .
100(6) . . .
101(5) . . .
93(5) . . .
87(5) . . .
97(5) . . .
96(5) . . .
89(5) . . .
112(5) . . .
104(6) . . .
101(5) . . .
107(6) . . .
100(5) . . .
96(5) . . .
100(5) . . .
98(5) . . .
105(5) . . .
107(5) . . .
100(5) . . .
98(5) . . .
93(5) . . .
89(5) . . .
102(5) . . .
98(5) . . .
111(6) . . .
110(6) . . .
100(5) . . .
80(5) . . .
103(5) . . .
92(5) . . .
100(6) . . .
102(6) . . .
94(5) . . .
97(5) . . .
88(5) . . .
100(6) . . .
91(5) . . .
92(5) . . .
99(5) . . .
92(5) . . .
96(5) . . .
91(5) . . .
100(5) . . .
103(5) . . .
93(5) . . .
96(6) . . .
96(5) . . .
100(5) . . .
91(5) . . .
99(5) . . .
90(5) . . .
86(5) . . .
89(5) . . .
111(6) . . .
106(6) . . .
102(6) . . .
101(5) . . .
93(5) . . .
92(5) . . .
105(6) . . .
101(6) . . .
92(5) . . .
80(5) . . .
98(5) . . .
98(5) . . .
101(5) . . .
102(5) . . .
100(5) . . .
102(6) . . .
102(6) . . .
94(5) . . .
97(5) . . .
83(5) . . .
99(5) . . .
82(5) . . .
106(6) . . .
102(5) . . .
89(5) . . .
104(6) . . .
101(6) . . .
91(5) . . .
91(5) . . .
91(5) . . .
93(5) . . .
88(5) . . .
98(5) . . .
94(5) . . .
90(5) . . .
112(6) . . .
117(6) . . .
101(5) . . .
99(5) . . .
111(6) . . .
95(5) . . .
96(5) . . .
84(5) . . .
105(5) . . .
107(5) . . .
110(6) . . .
89(5) . . .
87(5) . . .
103(5) . . .
97(5) . . .
81(5) . . .
90(5) . . .
92(5) . . .
102(5) . . .
102(5) . . .
99(5) . . .
96(5) . . .
109(6) . . .
97(5) . . .
102(5) . . .
92(5) . . .
93(5) . . .
83(5) . . .
104(5) . . .
104(6) . . .
94(5) . . .
86(5) . . .
99(5) . . .
96(5) . . .
92(5) . . .
106(6) . . .
110(6) . . .
91(5) . . .
102(5) . . .
105(5) . . .
94(5) . . .
85(5) . . .
88(5) . . .
99(5) . . .
111(6) . . .
105(6) . . .
100(5) . . .
98(5) . . .
89(5) . . .
100(5) . . .
91(5) . . .
99(5) . . .
118(6) . . .
95(5) . . .
91(5) . . .
96(5) . . .
101(5) . . .
97(5) . . .
99(5) . . .
109(6) . . .
101(6) . . .
93(5) . . .
92(5) . . .
90(5) . . .
93(5) . . .
92(5) . . .
98(5) . . .
112(5) . . .
94(5) . . .
93(6) . . .
102(6) . . .
102(5) . . .
89(5) . . .
88(5) . . .
115(6) . . .
101(5) . . .
92(5) . . .
92(5) . . .
103(5) . . .
89(5) . . .
95(5) . . .
101(5) . . .
92(5) . . .
106(5) . . .
103(6) . . .
85(5) . . .
97(5) . . .
90(5) . . .
111(6) . . .
98(5) . . .
95(5) . . .
98(5) . . .
107(5) . . .
98(5) . . .
104(6) . . .
106(6) . . .
91(5) . . .
97(5) . . .
92(5) . . .
96(5) . . .
92(5) . . .
89(5) . . .
108(5) . . .
94(5) . . .
85(5) . . .
98(5) . . .
102(5) . . .
90(5) . . .
99(6) . . .
94(5) . . .
99(5) . . .
92(5) . . .
99(5) . . .
104(6) . . .
97(5) . . .
104(5) . . .
101(5) . . .
82(5) . . .
102(6) . . .
84(5) . . .
79(5) . . .
94(5) . . .
99(5) . . .
98(5) . . .
103(6) . . .
93(5) . . .
100(5) . . .
91(5) . . .
83(5) . . .
103(5) . . .
87(5) . . .
95(5) . . .
95(5) . . .
110(6) . . .
94(5) . . .
94(5) . . .
92(5) . . .
102(5) . . .
108(6) . . .
111(6) . . .
102(5) . . .
97(5) . . .
111(6) . . .
103(6) . . .
106(6) . . .
95(5) . . .
84(5) . . .
102(5) . . .
97(6) . . .
85(5) . . .
81(5) . . .
107(5) . . .
91(5) . . .
94(5) . . .
85(5) . . .
106(5) . . .
106(5) . . .
96(6) . . .
76(5) . . .
100(5) . . .
84(5) . . .
105(5) . . .
95(5) . . .
103(6) . . .
99(5) . . .
87(5) . . .
97(5) . . .
105(6) . . .
89(5) . . .
97(5) . . .
100(5) . . .
91(5) . . .
93(5) . . .
103(5) . . .
107(6) . . .
87(5) . . .
93(5) . . .
106(6) . . .
93(5) . . .
90(5) . . .
88(5) . . .
88(5) . . .
87(5) . . .
102(6) . . .
91(5) . . .
85(5) . . .
99(6) . . .
99(5) . . .
96(5) . . .
104(5) . . .
99(5) . . .
107(6) . . .
95(5) . . .
92(5) . . .
108(5) . . .
98(5) . . .
99(5) . . .
108(6) . . .
101(5) . . .
113(6) . . .
105(5) . . .
103(5) . . .
94(5) . . .
101(5) . . .
93(5) . . .
101(5) . . .
89(5) . . .
97(6) . . .
89(5) . . .
104(5) . . .
90(5) . . .
88(5) . . .
104(6) . . .
102(6) . . .
103(5) . . .
102(5) . . .
87(5) . . .
84(5) . . .
88(5) . . .
111(5) . . .
104(5) . . .
93(5) . . .
111(6) . . .
94(5) . . .
94(5) . . .
99(5) . . .
85(5) . . .
108(6) . . .
89(5) . . .
102(5) . . .
112(6) . . .
112(6) . . .
101(5) . . .
85(5) . . .
88(5) . . .
94(5) . . .
109(6) . . .
96(5) . . .
102(5) . . .
81(5) . . .
96(5) . . .
94(5) . . .
109(6) . . .
103(5) . . .
92(5) . . .
88(5) . . .
86(5) . . .
88(5) . . .
97(5) . . .
101(5) . . .
90(5) . . .
99(6) . . .
109(6) . . .
93(5) . . .
90(5) . . .
80(5) . . .
93(5) . . .
98(5) . . .
98(5) . . .
92(5) . . .
95(5) . . .
102(6) . . .
113(6) . . .
104(5) . . .
106(6) . . .
83(5) . . .
89(5) . . .
99(5) . . .
92(5) . . .
95(5) . . .
90(5) . . .
97(5) . . .
79(5) . . .
95(5) . . .
93(5) . . .
90(5) . . .
101(6) . . .
93(5) . . .
88(5) . . .
106(6) . . .
89(5) . . .
94(5) . . .
92(5) . . .
86(5) . . .
96(5) . . .
97(5) . . .
86(5) . . .
91(5) . . .
80(5) . . .
105(6) . . .
85(5) . . .
101(6) . . .
91(5) . . .
82(5) . . .
100(5) . . .
110(6) . . .
100(5) . . .
93(5) . . .
91(5) . . .
87(5) . . .
83(5) . . .
104(5) . . .
99(5) . . .
91(5) . . .
98(5) . . .
96(5) . . .
89(5) . . .
96(5) . . .
103(5) . . .
92(5) . . .
93(5) . . .
102(5) . . .
86(5) . . .
78(5) . . .
86(5) . . .
88(5) . . .
102(6) . . .
93(5) . . .
103(6) . . .
91(5) . . .
91(5) . . .
91(5) . . .
88(5) . . .
89(5) . . .
106(6) . . .
110(6) . . .
103(5) . . .
95(5) . . .
115(6) . . .
90(5) . . .
102(5) . . .
92(5) . . .
83(5) . . .
93(5) . . .
71(4) . . .
87(5) . . .
88(5) . . .
86(5) . . .
96(5) . . .
88(5) . . .
95(5) . . .
98(5) . . .
88(5) . . .
89(5) . . .
92(6) . . .
88(5) . . .
84(5) . . .
87(5) . . .
99(5) . . .
92(5) . . .
82(5) . . .
104(5) . . .
95(5) . . .
89(5) . . .
93(5) . . .
86(5) . . .
97(5) . . .
108(6) . . .
94(5) . . .
92(5) . . .
88(5) . . .
86(5) . . .
90(5) . . .
101(6) . . .
103(6) . . .
101(6) . . .
92(5) . . .
87(5) . . .
94(5) . . .
85(5) . . .
90(5) . . .
94(5) . . .
98(5) . . .
91(5) . . .
88(5) . . .
89(5) . . .
96(5) . . .
92(5) . . .
98(5) . . .
96(5) . . .
86(5) . . .
103(5) . . .
86(5) . . .
93(5) . . .
85(5) . . .
98(5) . . .
89(5) . . .
77(5) . . .
93(6) . . .
90(5) . . .
99(5) . . .
85(5) . . .
97(6) . . .
81(5) . . .
101(5) . . .
85(5) . . .
90(5) . . .
107(6) . . .
94(5) . . .
77(5) . . .
87(5) . . .
98(5) . . .
98(5) . . .
104(6) . . .
93(5) . . .
94(5) . . .
103(5) . . .
91(5) . . .
104(6) . . .
91(5) . . .
98(5) . . .
84(5) . . .
82(5) . . .
95(5) . . .
102(6) . . .
88(5) . . .
79(5) . . .
89(5) . . .
81(5) . . .
90(5) . . .
95(5) . . .
99(5) . . .
93(5) . . .
81(5) . . .
99(5) . . .
108(5) . . .
105(6) . . .
87(5) . . .
93(5) . . .
83(5) . . .
88(5) . . .
92(5) . . .
99(6) . . .
94(5) . . .
81(5) . . .
104(5) . . .
94(5) . . .
92(5) . . .
93(5) . . .
83(5) . . .
87(5) . . .
83(5) . . .
100(6) . . .
92(5) . . .
107(5) . . .
103(5) . . .
93(5) . . .
93(5) . . .
102(5) . . .
98(5) . . .
98(5) . . .
108(6) . . .
81(5) . . .
84(5) . . .
89(5) . . .
99(5) . . .
90(5) . . .
99(5) . . .
94(5) . . .
102(5) . . .
84(5) . . .
85(5) . . .
96(6) . . .
91(5) . . .
92(5) . . .
91(5) . . .
83(5) . . .
100(5) . . .
92(5) . . .
91(5) . . .
88(5) . . .
82(5) . . .
94(5) . . .
90(5) . . .
93(5) . . .
97(5) . . .
89(5) . . .
94(5) . . .
84(5) . . .
96(5) . . .
112(6) . . .
99(5) . . .
92(5) . . .
82(5) . . .
89(5) . . .
91(5) . . .
89(5) . . .
86(5) . . .
84(5) . . .
96(5) . . .
93(5) . . .
95(5) . . .
90(5) . . .
91(5) . . .
88(5) . . .
96(5) . . .
91(5) . . .
87(5) . . .
88(5) . . .
89(5) . . .
84(5) . . .
85(5) . . .
91(5) . . .
84(5) . . .
88(5) . . .
87(5) . . .
101(6) . . .
80(5) . . .
91(5) . . .
90(5) . . .
99(5) . . .
102(6) . . .
101(5) . . .
103(5) . . .
91(5) . . .
83(5) . . .
85(5) . . .
101(5) . . .
93(5) . . .
101(5) . . .
108(6) . . .
91(5) . . .
92(5) . . .
108(5) . . .
99(5) . . .
90(5) . . .
81(5) . . .
72(5) . . .
92(5) . . .
89(5) . . .
102(6) . . .
114(6) . . .
92(5) . . .
96(5) . . .
90(5) . . .
96(6) . . .
94(5) . . .
98(5) . . .
82(5) . . .
88(5) . . .
90(5) . . .
96(6) . . .
90(5) . . .
100(5) . . .
74(4) . . .
91(6) . . .
81(5) . . .
95(5) . . .
98(5) . . .
89(5) . . .
104(6) . . .
85(5) . . .
99(5) . . .
82(5) . . .
84(5) . . .
83(5) . . .
87(5) . . .
73(4) . . .
100(5) . . .
104(5) . . .
101(6) . . .
100(6) . . .
89(5) . . .
98(5) . . .
91(5) . . .
92(5) . . .
109(6) . . .
98(5) . . .
83(5) . . .
93(5) . . .
88(5) . . .
87(5) . . .
89(5) . . .
89(5) . . .
92(5) . . .
97(5) . . .
94(5) . . .
101(5) . . .
84(5) . . .
89(5) . . .
103(6) . . .
98(5) . . .
89(5) . . .
83(5) . . .
93(5) . . .
95(5) . . .
95(5) . . .
81(5) . . .
85(5) . . .
93(5) . . .
98(5) . . .
96(5) . . .
97(5) . . .
88(5) . . .
83(5) . . .
83(5) . . .
90(5) . . .
92(5) . . .
92(5) . . .
93(5) . . .
70(4) . . .
85(5) . . .
93(5) . . .
101(5) . . .
90(5) . . .
88(5) . . .
84(5) . . .
86(5) . . .
92(5) . . .
89(5) . . .
83(5) . . .
90(5) . . .
101(5) . . .
75(5) . . .
84(5) . . .
100(5) . . .
98(5) . . .
81(5) . . .
89(5) . . .
105(6) . . .
86(5) . . .
100(5) . . .
90(5) . . .
97(5) . . .
90(5) . . .
90(5) . . .
81(5) . . .
93(5) . . .
96(5) . . .
77(5) . . .
92(5) . . .
89(5) . . .
96(5) . . .
91(5) . . .
96(5) . . .
94(5) . . .
90(5) . . .
99(6) . . .
98(6) . . .
92(6) . . .
80(5) . . .
87(5) . . .
88(5) . . .
87(5) . . .
97(5) . . .
95(5) . . .
84(5) . . .
101(5) . . .
81(5) . . .
90(5) . . .
87(5) . . .
88(5) . . .
81(5) . . .
87(5) . . .
90(5) . . .
100(5) . . .
90(5) . . .
86(5) . . .
94(5) . . .
92(5) . . .
103(5) . . .
98(5) . . .
105(5) . . .
85(5) . . .
97(5) . . .
96(5) . . .
99(5) . . .
94(5) . . .
94(5) . . .
95(5) . . .
93(5) . . .
91(5) . . .
88(5) . . .
95(5) . . .
89(5) . . .
88(5) . . .
95(5) . . .
94(5) . . .
97(5) . . .
92(5) . . .
88(5) . . .
93(5) . . .
97(6) . . .
83(5) . . .
102(5) . . .
97(5) . . .
84(5) . . .
95(5) . . .
95(5) . . .
88(5) . . .
111(5) . . .
86(5) . . .
88(5) . . .
78(5) . . .
93(5) . . .
89(5) . . .
99(5) . . .
88(5) . . .
88(5) . . .
77(5) . . .
93(5) . . .
86(5) . . .
90(5) . . .
91(5) . . .
93(5) . . .
104(5) . . .
94(5) . . .
97(6) . . .
88(5) . . .
81(5) . . .
93(5) . . .
104(6) . . .
101(6) . . .
85(5) . . .
85(5) . . .
87(5) . . .
87(5) . . .
91(5) . . .
104(6) . . .
85(5) . . .
90(5) . . .
99(6) . . .
81(5) . . .
88(5) . . .
86(5) . . .
83(5) . . .
96(5) . . .
92(5) . . .
88(5) . . .
96(5) . . .
94(5) . . .
86(5) . . .
87(5) . . .
97(5) . . .
84(5) . . .
85(5) . . .
100(5) . . .
85(5) . . .
84(5) . . .
83(5) . . .
83(5) . . .
87(5) . . .
90(5) . . .
91(5) . . .
87(5) . . .
92(5) . . .
95(5) . . .
100(5) . . .
88(5) . . .
96(5) . . .
86(5) . . .
92(5) . . .
85(5) . . .
82(5) . . .
85(5) . . .
93(5) . . .
93(5) . . .
93(5) . . .
92(5) . . .
92(5) . . .
95(5) . . .
83(5) . . .
92(5) . . .
92(5) . . .
92(5) . . .
85(5) . . .
97(5) . . .
96(5) . . .
95(5) . . .
83(5) . . .
103(6) . . .
74(5) . . .
100(5) . . .
91(5) . . .
94(5) . . .
90(5) . . .
81(5) . . .
79(5) . . .
95(5) . . .
89(5) . . .
97(5) . . .
87(5) . . .
69(4) . . .
84(5) . . .
87(5) . . .
96(5) . . .
88(5) . . .
90(5) . . .
86(5) . . .
94(5) . . .
102(6) . . .
94(5) . . .
86(5) . . .
99(5) . . .
94(5) . . .
87(5) . . .
94(5) . . .
91(5) . . .
86(5) . . .
77(5) . . .
80(5) . . .
98(5) . . .
96(5) . . .
100(5) . . .
93(5) . . .
105(6) . . .
88(5) . . .
82(5) . . .
87(5) . . .
97(5) . . .
91(5) . . .
96(5) . . .
82(5) . . .
84(5) . . .
89(5) . . .
81(5) . . .
92(5) . . .
96(5) . . .
94(5) . . .
96(5) . . .
88(5) . . .
85(5) . . .
88(5) . . .
100(5) . . .
93(5) . . .
96(5) . . .
98(5) . . .
95(5) . . .
91(5) . . .
85(5) . . .
95(5) . . .
81(5) . . .
84(5) . . .
85(5) . . .
98(6) . . .
76(5) . . .
96(5) . . .
86(5) . . .
83(5) . . .
84(5) . . .
89(5) . . .
88(5) . . .
82(5) . . .
65(4) . . .
87(5) . . .
81(5) . . .
87(5) . . .
80(5) . . .
93(5) . . .
85(5) . . .
82(5) . . .
98(5) . . .
88(5) . . .
83(5) . . .
78(5) . . .
86(5) . . .
91(5) . . .
84(5) . . .
95(5) . . .
98(5) . . .
96(5) . . .
90(5) . . .
84(5) . . .
78(5) . . .
95(5) . . .
81(5) . . .
92(5) . . .
85(5) . . .
82(5) . . .
88(5) . . .
89(5) . . .
94(5) . . .
92(5) . . .
88(5) . . .
101(6) . . .
87(5) . . .
93(5) . . .
88(5) . . .
87(5) . . .
85(5) . . .
84(5) . . .
78(5) . . .
81(5) . . .
88(5) . . .
93(5) . . .
84(5) . . .
93(5) . . .
78(5) . . .
91(5) . . .
86(5) . . .
105(5) . . .
96(5) . . .
76(5) . . .
86(5) . . .
81(5) . . .
92(5) . . .
93(5) . . .
91(5) . . .
84(5) . . .
78(5) . . .
79(5) . . .
73(4) . . .
82(5) . . .
90(6) . . .
95(5) . . .
83(5) . . .
89(5) . . .
93(5) . . .
96(5) . . .
85(5) . . .
79(5) . . .
87(5) . . .
97(5) . . .
87(5) . . .
80(5) . . .
77(5) . . .
83(5) . . .
99(6) . . .
98(5) . . .
87(5) . . .
96(5) . . .
86(5) . . .
88(5) . . .
92(5) . . .
86(5) . . .
80(5) . . .
91(5) . . .
84(5) . . .
95(5) . . .
101(5) . . .
85(5) . . .
90(5) . . .
87(5) . . .
89(5) . . .
81(5) . . .
82(5) . . .
83(5) . . .
85(5) . . .
90(5) . . .
89(5) . . .
88(5) . . .
75(5) . . .
84(5) . . .
81(5) . . .
83(5) . . .
88(5) . . .
96(5) . . .
94(5) . . .
96(5) . . .
88(5) . . .
95(5) . . .
90(5) . . .
84(5) . . .
85(5) . . .
83(5) . . .
88(5) . . .
99(5) . . .
98(5) . . .
87(5) . . .
92(5) . . .
80(5) . . .
87(5) . . .
97(6) . . .
79(5) . . .
81(5) . . .
93(5) . . .
88(5) . . .
80(5) . . .
94(5) . . .
80(5) . . .
70(4) . . .
80(5) . . .
79(5) . . .
79(5) . . .
76(5) . . .
102(5) . . .
96(5) . . .
94(5) . . .
84(5) . . .
83(5) . . .
78(5) . . .
86(5) . . .
92(5) . . .
87(5) . . .
84(5) . . .
81(5) . . .
88(5) . . .
76(4) . . .
85(5) . . .
75(4) . . .
86(5) . . .
98(5) . . .
89(5) . . .
86(5) . . .
104(5) . . .
93(5) . . .
85(5) . . .
92(5) . . .
86(5) . . .
88(5) . . .
88(5) . . .
95(5) . . .
92(5) . . .
86(5) . . .
81(5) . . .
90(5) . . .
87(5) . . .
97(5) . . .
78(5) . . .
95(5) . . .
88(5) . . .
84(5) . . .
86(5) . . .
82(5) . . .
84(5) . . .
92(5) . . .
84(5) . . .
90(5) . . .
83(5) . . .
85(5) . . .
80(5) . . .
81(5) . . .
93(5) . . .
91(5) . . .
86(5) . . .
80(5) . . .
78(5) . . .
99(5) . . .
84(5) . . .
76(5) . . .
82(5) . . .
94(5) . . .
81(5) . . .
89(5) . . .
85(5) . . .
94(5) . . .
95(5) . . .
88(5) . . .
84(5) . . .
84(5) . . .
87(5) . . .
97(5) . . .
94(5) . . .
84(5) . . .
82(5) . . .
83(5) . . .
88(5) . . .
93(5) . . .
91(5) . . .
81(5) . . .
90(5) . . .
97(6) . . .
85(5) . . .
87(5) . . .
81(5) . . .
81(5) . . .
97(5) . . .
88(5) . . .
76(4) . . .
90(5) . . .
89(5) . . .
93(5) . . .
88(5) . . .
89(5) . . .
79(5) . . .
78(5) . . .
79(5) . . .
93(5) . . .
74(4) . . .
87(5) . . .
94(5) . . .
91(5) . . .
89(5) . . .
82(5) . . .
79(5) . . .
90(5) . . .
93(5) . . .
77(5) . . .
89(5) . . .
86(5) . . .
92(5) . . .
80(5) . . .
97(5) . . .
98(5) . . .
94(6) . . .
88(5) . . .
81(5) . . .
85(5) . . .
78(5) . . .
110(6) . . .
90(5) . . .
77(5) . . .
80(5) . . .
92(5) . . .
91(5) . . .
83(5) . . .
84(5) . . .
82(5) . . .
89(5) . . .
74(5) . . .
85(5) . . .
95(5) . . .
84(5) . . .
88(5) . . .
86(5) . . .
87(5) . . .
77(4) . . .
107(6) . . .
86(5) . . .
76(5) . . .
88(5) . . .
87(5) . . .
81(5) . . .
86(5) . . .
78(5) . . .
85(5) . . .
86(5) . . .
75(5) . . .
88(5) . . .
87(5) . . .
80(5) . . .
90(5) . . .
91(5) . . .
77(5) . . .
88(5) . . .
78(5) . . .
78(5) . . .
83(5) . . .
85(5) . . .
86(5) . . .
82(5) . . .
93(5) . . .
92(5) . . .
68(4) . . .
87(5) . . .
91(5) . . .
87(5) . . .
86(5) . . .
77(5) . . .
82(5) . . .
74(4) . . .
98(5) . . .
98(5) . . .
87(5) . . .
81(5) . . .
90(5) . . .
97(5) . . .
79(5) . . .
92(5) . . .
81(5) . . .
82(5) . . .
76(5) . . .
90(5) . . .
85(5) . . .
71(5) . . .
81(5) . . .
96(5) . . .
80(5) . . .
91(5) . . .
80(5) . . .
84(5) . . .
85(5) . . .
74(5) . . .
90(5) . . .
94(5) . . .
85(5) . . .
84(5) . . .
85(5) . . .
92(5) . . .
84(5) . . .
83(5) . . .
81(5) . . .
98(5) . . .
80(5) . . .
92(5) . . .
89(5) . . .
84(5) . . .
78(5) . . .
82(5) . . .
79(5) . . .
87(5) . . .
81(5) . . .
99(5) . . .
86(5) . . .
81(5) . . .
84(5) . . .
80(5) . . .
89(5) . . .
85(5) . . .
95(5) . . .
87(5) . . .
85(5) . . .
91(5) . . .
81(5) . . .
85(5) . . .
78(5) . . .
71(5) . . .
80(5) . . .
86(5) . . .
95(5) . . .
85(5) . . .
74(5) . . .
79(5) . . .
86(5) . . .
99(5) . . .
85(5) . . .
83(5) . . .
71(5) . . .
78(5) . . .
84(5) . . .
88(5) . . .
90(5) . . .
77(5) . . .
89(5) . . .
83(5) . . .
79(5) . . .
87(5) . . .
87(5) . . .
79(5) . . .
77(5) . . .
85(5) . . .
90(5) . . .
81(5) . . .
98(5) . . .
87(5) . . .
91(5) . . .
84(5) . . .
90(5) . . .
88(5) . . .
81(5) . . .
80(5) . . .
86(5) . . .
86(5) . . .
92(5) . . .
93(5) . . .
83(5) . . .
93(5) . . .
87(5) . . .
76(5) . . .
72(4) . . .
89(5) . . .
78(5) . . .
82(5) . . .
83(5) . . .
75(4) . . .
71(4) . . .
94(5) . . .
93(5) . . .
76(5) . . .
92(5) . . .
85(5) . . .
82(5) . . .
85(5) . . .
92(5) . . .
91(5) . . .
94(5) . . .
94(5) . . .
86(5) . . .
84(5) . . .
80(5) . . .
87(5) . . .
94(5) . . .
81(5) . . .
80(5) . . .
71(4) . . .
88(5) . . .
87(5) . . .
84(5) . . .
92(5) . . .
90(5) . . .
82(5) . . .
90(5) . . .
87(5) . . .
92(5) . . .
87(5) . . .
86(5) . . .
77(5) . . .
83(5) . . .
87(5) . . .
94(5) . . .
95(5) . . .
98(6) . . .
84(5) . . .
101(5) . . .
93(5) . . .
88(5) . . .
71(4) . . .
77(5) . . .
80(5) . . .
80(5) . . .
76(5) . . .
89(5) . . .
80(5) . . .
80(5) . . .
89(5) . . .
87(5) . . .
95(5) . . .
97(5) . . .
85(5) . . .
81(5) . . .
88(5) . . .
81(5) . . .
94(5) . . .
95(5) . . .
89(5) . . .
64(4) . . .
81(5) . . .
82(5) . . .
84(5) . . .
82(5) . . .
85(5) . . .
88(5) . . .
98(5) . . .
78(5) . . .
63(4) . . .
73(5) . . .
96(5) . . .
83(5) . . .
91(5) . . .
85(5) . . .
81(5) . . .
86(5) . . .
91(5) . . .
98(5) . . .
83(5) . . .
85(5) . . .
76(5) . . .
90(5) . . .
80(5) . . .
89(5) . . .
81(5) . . .
79(5) . . .
84(5) . . .
89(5) . . .
97(5) . . .
86(5) . . .
84(5) . . .
88(5) . . .
71(5) . . .
88(5) . . .
77(5) . . .
82(5) . . .
86(5) . . .
86(5) . . .
91(5) . . .
73(5) . . .
86(5) . . .
85(5) . . .
80(5) . . .
76(5) . . .
88(5) . . .
85(5) . . .
89(5) . . .
76(5) . . .
89(6) . . .
87(5) . . .
89(5) . . .
90(5) . . .
85(5) . . .
89(5) . . .
80(5) . . .
81(5) . . .
72(4) . . .
82(5) . . .
86(5) . . .
89(5) . . .
80(5) . . .
83(5) . . .
84(5) . . .
85(5) . . .
77(5) . . .
99(5) . . .
84(5) . . .
76(5) . . .
82(5) . . .
82(5) . . .
90(5) . . .
71(4) . . .
85(5) . . .
88(5) . . .
94(5) . . .
91(5) . . .
88(5) . . .
80(5) . . .
89(5) . . .
84(5) . . .
67(4) . . .
81(5) . . .
77(5) . . .
88(5) . . .
76(4) . . .
86(5) . . .
86(5) . . .
92(5) . . .
82(5) . . .
87(5) . . .
75(5) . . .
76(5) . . .
80(5) . . .
84(5) . . .
91(5) . . .
74(4) . . .
76(5) . . .
83(5) . . .
89(5) . . .
81(5) . . .
84(5) . . .
74(5) . . .
81(5) . . .
84(5) . . .
90(5) . . .
79(5) . . .
78(5) . . .
86(5) . . .
81(5) . . .
88(5) . . .
76(5) . . .
86(5) . . .
80(5) . . .
73(5) . . .
79(5) . . .
71(4) . . .
80(5) . . .
71(4) . . .
77(5) . . .
84(5) . . .
69(4) . . .
65(4) . . .
81(5) . . .
92(5) . . .
91(5) . . .
74(5) . . .
78(5) . . .
74(5) . . .
75(5) . . .
76(5) . . .
70(4) . . .
89(5) . . .
92(5) . . .
86(5) . . .
84(5) . . .
88(5) . . .
96(5) . . .
87(5) . . .
90(5) . . .
84(5) . . .
86(5) . . .
75(5) . . .
77(5) . . .
81(5) . . .
84(5) . . .
89(5) . . .
78(5) . . .
92(5) . . .
77(5) . . .
86(5) . . .
85(5) . . .
91(5) . . .
88(5) . . .
80(5) . . .
85(5) . . .
76(5) . . .
87(5) . . .
78(5) . . .
75(4) . . .
75(5) . . .
84(5) . . .
94(5) . . .
87(5) . . .
79(5) . . .
99(5) . . .
85(5) . . .
83(5) . . .
85(5) . . .
84(5) . . .
84(5) . . .
81(5) . . .
93(6) . . .
77(5) . . .
82(5) . . .
76(5) . . .
79(5) . . .
86(5) . . .
85(5) . . .
78(5) . . .
94(5) . . .
78(5) . . .
77(5) . . .
86(5) . . .
69(4) . . .
90(5) . . .
86(5) . . .
89(5) . . .
85(5) . . .
95(5) . . .
82(5) . . .
80(5) . . .
66(4) . . .
83(5) . . .
81(5) . . .
81(5) . . .
75(5) . . .
91(5) . . .
77(5) . . .
76(5) . . .
76(5) . . .
70(4) . . .
77(5) . . .
82(5) . . .
82(5) . . .
101(5) . . .
83(5) . . .
77(5) . . .
88(5) . . .
77(4) . . .
83(5) . . .
82(5) . . .
90(5) . . .
82(5) . . .
83(5) . . .
84(5) . . .
86(5) . . .
97(5) . . .
82(5) . . .
86(5) . . .
84(5) . . .
89(5) . . .
86(5) . . .
79(5) . . .
87(5) . . .
74(5) . . .
73(5) . . .
84(5) . . .
78(5) . . .
92(5) . . .
76(5) . . .
83(5) . . .
68(4) . . .
78(5) . . .
87(5) . . .
90(5) . . .
91(5) . . .
88(5) . . .
76(5) . . .
68(5) . . .
71(5) . . .
82(5) . . .
72(5) . . .
90(5) . . .
74(5) . . .
78(5) . . .
75(5) . . .
86(5) . . .
73(4) . . .
81(5) . . .
76(5) . . .
74(5) . . .
89(5) . . .
72(4) . . .
73(5) . . .
72(5) . . .
85(5) . . .
83(5) . . .
76(5) . . .
87(5) . . .
77(5) . . .
80(5) . . .
95(5) . . .
91(5) . . .
78(5) . . .
83(5) . . .
87(5) . . .
83(5) . . .
68(4) . . .
73(5) . . .
69(4) . . .
85(5) . . .
91(5) . . .
97(5) . . .
90(5) . . .
82(5) . . .
72(4) . . .
77(5) . . .
79(5) . . .
88(5) . . .
72(5) . . .
89(5) . . .
83(5) . . .
89(5) . . .
76(5) . . .
81(5) . . .
85(5) . . .
94(5) . . .
84(5) . . .
87(5) . . .
80(5) . . .
88(5) . . .
95(5) . . .
83(5) . . .
75(5) . . .
84(5) . . .
77(5) . . .
84(5) . . .
72(4) . . .
86(5) . . .
85(5) . . .
87(5) . . .
95(5) . . .
86(5) . . .
77(5) . . .
75(5) . . .
86(5) . . .
82(5) . . .
79(5) . . .
87(5) . . .
84(5) . . .
80(5) . . .
86(5) . . .
89(5) . . .
80(5) . . .
72(5) . . .
67(4) . . .
81(5) . . .
87(5) . . .
80(5) . . .
79(5) . . .
73(4) . . .
79(5) . . .
83(5) . . .
95(5) . . .
70(5) . . .
78(5) . . .
88(5) . . .
71(4) . . .
69(4) . . .
77(5) . . .
85(5) . . .
87(5) . . .
92(5) . . .
76(5) . . .
79(5) . . .
82(5) . . .
85(5) . . .
68(5) . . .
71(5) . . .
81(5) . . .
83(5) . . .
75(5) . . .
74(5) . . .
80(5) . . .
78(5) . . .
77(5) . . .
91(5) . . .
85(5) . . .
73(5) . . .
81(5) . . .
71(4) . . .
79(5) . . .
78(5) . . .
73(5) . . .
76(5) . . .
81(5) . . .
89(5) . . .
87(5) . . .
84(5) . . .
92(5) . . .
89(5) . . .
80(5) . . .
81(5) . . .
96(5) . . .
94(5) . . .
89(5) . . .
87(5) . . .
78(5) . . .
82(5) . . .
79(5) . . .
82(5) . . .
85(5) . . .
85(5) . . .
82(5) . . .
78(5) . . .
86(5) . . .
78(5) . . .
61(4) . . .
81(5) . . .
80(5) . . .
69(4) . . .
76(5) . . .
70(4) . . .
73(4) . . .
71(4) . . .
84(5) . . .
69(5) . . .
78(5) . . .
88(5) . . .
86(5) . . .
93(5) . . .
71(5) . . .
86(5) . . .
88(5) . . .
81(5) . . .
75(5) . . .
84(5) . . .
77(5) . . .
94(5) . . .
94(5) . . .
83(5) . . .
88(5) . . .
81(5) . . .
83(5) . . .
83(5) . . .
82(5) . . .
76(5) . . .
83(5) . . .
90(5) . . .
74(4) . . .
86(5) . . .
80(5) . . .
79(5) . . .
84(5) . . .
77(5) . . .
83(5) . . .
75(5) . . .
77(5) . . .
83(5) . . .
83(5) . . .
84(5) . . .
82(5) . . .
91(5) . . .
67(4) . . .
81(5) . . .
77(5) . . .
79(5) . . .
88(5) . . .
73(4) . . .
91(5) . . .
94(5) . . .
83(5) . . .
77(5) . . .
78(5) . . .
79(5) . . .
80(5) . . .
74(5) . . .
88(5) . . .
84(5) . . .
69(5) . . .
89(6) . . .
79(5) . . .
83(5) . . .
72(4) . . .
78(5) . . .
87(5) . . .
78(5) . . .
79(5) . . .
78(5) . . .
82(5) . . .
83(5) . . .
83(5) . . .
93(5) . . .
80(5) . . .
94(5) . . .
76(5) . . .
69(4) . . .
79(5) . . .
72(4) . . .
78(5) . . .
86(5) . . .
80(5) . . .
77(5) . . .
89(5) . . .
84(5) . . .
83(5) . . .
86(5) . . .
73(4) . . .
90(5) . . .
76(5) . . .
77(5) . . .
69(4) . . .
77(5) . . .
79(5) . . .
78(5) . . .
84(5) . . .
72(5) . . .
79(5) . . .
74(5) . . .
79(5) . . .
86(5) . . .
79(5) . . .
81(5) . . .
77(5) . . .
78(5) . . .
81(5) . . .
77(5) . . .
86(5) . . .
74(5) . . .
80(5) . . .
92(5) . . .
74(4) . . .
80(5) . . .
91(5) . . .
83(5) . . .
82(5) . . .
80(5) . . .
77(4) . . .
81(5) . . .
72(5) . . .
71(4) . . .
82(5) . . .
64(4) . . .
70(5) . . .
79(5) . . .
81(5) . . .
83(5) . . .
82(5) . . .
82(5) . . .
86(5) . . .
94(5) . . .
78(5) . . .
91(5) . . .
80(5) . . .
78(5) . . .
79(5) . . .
88(5) . . .
81(5) . . .
78(5) . . .
68(4) . . .
81(5) . . .
87(5) . . .
80(5) . . .
65(4) . . .
72(5) . . .
75(5) . . .
91(5) . . .
77(5) . . .
75(5) . . .
82(5) . . .
79(5) . . .
75(5) . . .
81(5) . . .
85(5) . . .
75(5) . . .
72(4) . . .
79(5) . . .
82(5) . . .
85(5) . . .
76(5) . . .
79(5) . . .
75(4) . . .
82(5) . . .
75(5) . . .
80(5) . . .
83(5) . . .
84(5) . . .
85(5) . . .
70(5) . . .
79(5) . . .
74(5) . . .
74(4) . . .
73(4) . . .
70(4) . . .
77(5) . . .
74(4) . . .
86(5) . . .
72(4) . . .
79(5) . . .
68(5) . . .
75(5) . . .
81(5) . . .
70(5) . . .
81(5) . . .
91(5) . . .
85(5) . . .
77(5) . . .
71(4) . . .
83(5) . . .
84(5) . . .
77(5) . . .
75(4) . . .
81(5) . . .
82(5) . . .
75(5) . . .
88(5) . . .
85(5) . . .
84(5) . . .
77(5) . . .
80(5) . . .
76(4) . . .
79(5) . . .
73(5) . . .
72(5) . . .
80(5) . . .
87(5) . . .
82(5) . . .
66(4) . . .
77(5) . . .
78(5) . . .
74(5) . . .
84(5) . . .
103(6) . . .
83(5) . . .
85(5) . . .
80(5) . . .
72(5) . . .
69(5) . . .
80(5) . . .
86(5) . . .
89(5) . . .
75(5) . . .
78(5) . . .
72(4) . . .
76(5) . . .
74(4) . . .
92(5) . . .
73(5) . . .
75(5) . . .
86(5) . . .
81(5) . . .
66(4) . . .
77(5) . . .
79(5) . . .
76(5) . . .
77(5) . . .
73(5) . . .
68(4) . . .
75(5) . . .
66(4) . . .
72(4) . . .
79(5) . . .
77(5) . . .
82(5) . . .
76(5) . . .
73(5) . . .
89(5) . . .
77(5) . . .
76(5) . . .
79(5) . . .
82(5) . . .
84(5) . . .
81(5) . . .
73(4) . . .
83(5) . . .
74(5) . . .
77(5) . . .
71(4) . . .
66(4) . . .
70(4) . . .
80(5) . . .
69(5) . . .
76(5) . . .
80(5) . . .
75(5) . . .
80(5) . . .
75(5) . . .
73(5) . . .
78(5) . . .
78(5) . . .
80(5) . . .
82(5) . . .
78(5) . . .
76(5) . . .
82(5) . . .
81(5) . . .
85(5) . . .
84(5) . . .
84(5) . . .
78(5) . . .
81(5) . . .
62(4) . . .
82(5) . . .
84(5) . . .
89(5) . . .
87(5) . . .
78(5) . . .
64(4) . . .
67(4) . . .
74(5) . . .
81(5) . . .
77(5) . . .
92(5) . . .
84(5) . . .
86(5) . . .
89(5) . . .
78(5) . . .
86(5) . . .
70(4) . . .
77(5) . . .
87(5) . . .
91(5) . . .
70(4) . . .
81(5) . . .
74(5) . . .
90(5) . . .
81(5) . . .
81(5) . . .
64(4) . . .
69(4) . . .
73(5) . . .
84(5) . . .
79(5) . . .
85(5) . . .
71(4) . . .
88(5) . . .
70(4) . . .
70(4) . . .
73(4) . . .
71(4) . . .
69(5) . . .
77(5) . . .
72(4) . . .
67(4) . . .
85(5) . . .
79(5) . . .
78(5) . . .
78(5) . . .
74(5) . . .
77(5) . . .
67(4) . . .
74(5) . . .
67(4) . . .
80(5) . . .
74(5) . . .
86(5) . . .
71(4) . . .
81(5) . . .
80(5) . . .
76(5) . . .
73(5) . . .
83(5) . . .
76(5) . . .
71(4) . . .
70(5) . . .
65(4) . . .
76(5) . . .
80(5) . . .
74(4) . . .
81(5) . . .
75(5) . . .
72(5) . . .
68(4) . . .
82(5) . . .
72(5) . . .
87(5) . . .
86(5) . . .
73(4) . . .
72(5) . . .
75(5) . . .
75(5) . . .
64(4) . . .
70(4) . . .
75(5) . . .
70(5) . . .
71(5) . . .
78(5) . . .
70(4) . . .
74(5) . . .
71(5) . . .
75(5) . . .
67(4) . . .
68(4) . . .
78(5) . . .
66(5) . . .
72(5) . . .
73(5) . . .
77(5) . . .
78(5) . . .
81(5) . . .
78(5) . . .
83(5) . . .
75(5) . . .
82(5) . . .
86(5) . . .
68(4) . . .
86(5) . . .
83(5) . . .
71(5) . . .
74(5) . . .
76(5) . . .
74(4) . . .
86(5) . . .
74(4) . . .
89(5) . . .
82(5) . . .
72(4) . . .
71(4) . . .
78(5) . . .
76(5) . . .
76(5) . . .
78(5) . . .
77(5) . . .
80(5) . . .
78(5) . . .
69(4) . . .
68(4) . . .
74(4) . . .
75(5) . . .
71(5) . . .
79(5) . . .
82(5) . . .
85(5) . . .
77(5) . . .
75(5) . . .
76(4) . . .
74(5) . . .
69(4) . . .
85(5) . . .
72(5) . . .
76(5) . . .
81(5) . . .
79(5) . . .
63(4) . . .
81(5) . . .
73(4) . . .
76(5) . . .
88(5) . . .
84(5) . . .
81(5) . . .
94(5) . . .
86(5) . . .
81(5) . . .
80(5) . . .
79(5) . . .
73(4) . . .
69(4) . . .
81(5) . . .
71(5) . . .
66(4) . . .
80(5) . . .
69(4) . . .
78(5) . . .
78(5) . . .
80(5) . . .
84(5) . . .
77(5) . . .
86(5) . . .
81(5) . . .
66(4) . . .
84(5) . . .
87(5) . . .
82(5) . . .
69(5) . . .
70(4) . . .
69(4) . . .
68(4) . . .
79(5) . . .
79(5) . . .
70(4) . . .
66(4) . . .
70(5) . . .
70(5) . . .
74(5) . . .
79(5) . . .
86(5) . . .
79(5) . . .
76(5) . . .
76(4) . . .
70(4) . . .
81(5) . . .
81(5) . . .
86(5) . . .
81(5) . . .
85(5) . . .
76(4) . . .
77(5) . . .
79(5) . . .
70(5) . . .
81(5) . . .
63(4) . . .
66(4) . . .
72(5) . . .
80(5) . . .
76(5) . . .
88(5) . . .
84(5) . . .
68(5) . . .
75(5) . . .
70(4) . . .
80(5) . . .
78(5) . . .
82(5) . . .
81(5) . . .
77(5) . . .
80(5) . . .
67(4) . . .
71(5) . . .
72(5) . . .
72(4) . . .
82(5) . . .
83(5) . . .
81(5) . . .
83(5) . . .
80(5) . . .
82(5) . . .
72(5) . . .
75(5) . . .
81(5) . . .
84(5) . . .
69(4) . . .
71(5) . . .
80(5) . . .
74(5) . . .
77(5) . . .
90(5) . . .
78(5) . . .
75(5) . . .
76(5) . . .
79(5) . . .
73(5) . . .
69(5) . . .
76(5) . . .
74(4) . . .
80(5) . . .
69(4) . . .
75(5) . . .
80(5) . . .
65(4) . . .
65(4) . . .
82(5) . . .
86(5) . . .
89(5) . . .
78(5) . . .
70(4) . . .
71(5) . . .
75(5) . . .
68(4) . . .
80(5) . . .
88(5) . . .
77(5) . . .
69(4) . . .
83(5) . . .
59(4) . . .
79(5) . . .
80(5) . . .
77(5) . . .
89(5) . . .
71(4) . . .
68(4) . . .
81(5) . . .
73(5) . . .
74(4) . . .
77(5) . . .
82(5) . . .
81(5) . . .
76(5) . . .
70(4) . . .
76(5) . . .
78(5) . . .
74(5) . . .
78(5) . . .
80(5) . . .
84(5) . . .
75(5) . . .
79(5) . . .
85(5) . . .
68(4) . . .
79(5) . . .
70(5) . . .
65(5) . . .
63(4) . . .
71(4) . . .
74(4) . . .
87(5) . . .
82(5) . . .
78(5) . . .
72(4) . . .
84(5) . . .
84(5) . . .
88(5) . . .
80(5) . . .
86(5) . . .
65(4) . . .
88(5) . . .
93(5) . . .
79(5) . . .
72(4) . . .
86(5) . . .
82(5) . . .
77(5) . . .
77(5) . . .
76(4) . . .
79(5) . . .
78(5) . . .
78(5) . . .
80(5) . . .
73(4) . . .
80(5) . . .
67(4) . . .
76(5) . . .
78(5) . . .
66(4) . . .
78(5) . . .
83(5) . . .
69(4) . . .
66(4) . . .
63(4) . . .
68(5) . . .
70(5) . . .
76(5) . . .
74(4) . . .
74(4) . . .
78(5) . . .
80(5) . . .
77(5) . . .
73(4) . . .
65(4) . . .
70(4) . . .
75(5) . . .
78(5) . . .
88(5) . . .
80(5) . . .
79(5) . . .
75(5) . . .
84(5) . . .
70(4) . . .
87(5) . . .
77(5) . . .
81(5) . . .
81(5) . . .
92(5) . . .
69(4) . . .
90(5) . . .
63(4) . . .
75(5) . . .
82(5) . . .
77(5) . . .
80(5) . . .
73(5) . . .
70(4) . . .
80(5) . . .
71(4) . . .
82(5) . . .
84(5) . . .
87(5) . . .
82(5) . . .
75(5) . . .
75(5) . . .
68(5) . . .
80(5) . . .
78(5) . . .
75(5) . . .
75(5) . . .
65(4) . . .
74(4) . . .
78(5) . . .
75(5) . . .
73(5) . . .
72(5) . . .
62(4) . . .
82(5) . . .
82(5) . . .
89(5) . . .
77(5) . . .
74(4) . . .
73(4) . . .
78(5) . . .
85(5) . . .
75(5) . . .
73(5) . . .
74(4) . . .
75(5) . . .
62(4) . . .
69(5) . . .
60(4) . . .
80(5) . . .
79(5) . . .
74(5) . . .
89(5) . . .
82(5) . . .
72(4) . . .
73(5) . . .
60(4) . . .
78(5) . . .
72(4) . . .
85(5) . . .
90(5) . . .
81(5) . . .
76(5) . . .
74(4) . . .
85(5) . . .
76(5) . . .
76(5) . . .
81(5) . . .
83(5) . . .
74(5) . . .
72(5) . . .
71(4) . . .
78(5) . . .
84(5) . . .
73(5) . . .
74(5) . . .
77(5) . . .
80(5) . . .
73(4) . . .
77(5) . . .
55(4) . . .
69(4) . . .
84(5) . . .
85(5) . . .
87(5) . . .
72(4) . . .
70(4) . . .
73(4) . . .
71(4) . . .
70(4) . . .
76(5) . . .
65(4) . . .
71(4) . . .
77(5) . . .
69(5) . . .
79(5) . . .
73(5) . . .
71(5) . . .
86(5) . . .
73(5) . . .
79(5) . . .
83(5) . . .
81(5) . . .
72(4) . . .
77(5) . . .
68(5) . . .
73(5) . . .
73(4) . . .
84(5) . . .
78(5) . . .
76(5) . . .
75(5) . . .
75(5) . . .
88(5) . . .
83(5) . . .
69(4) . . .
73(5) . . .
86(5) . . .
72(4) . . .
71(4) . . .
80(5) . . .
85(5) . . .
84(5) . . .
80(5) . . .
81(5) . . .
71(5) . . .
77(5) . . .
80(5) . . .
78(5) . . .
69(5) . . .
65(4) . . .
76(5) . . .
73(4) . . .
72(5) . . .
74(5) . . .
61(4) . . .
77(5) . . .
74(4) . . .
70(4) . . .
67(4) . . .
67(5) . . .
75(5) . . .
70(4) . . .
80(5) . . .
68(4) . . .
71(4) . . .
88(5) . . .
75(4) . . .
67(4) . . .
79(5) . . .
84(5) . . .
79(5) . . .
69(4) . . .
70(4) . . .
73(5) . . .
68(4) . . .
65(4) . . .
82(5) . . .
81(5) . . .
71(5) . . .
78(5) . . .
72(4) . . .
79(5) . . .
70(5) . . .
85(5) . . .
73(4) . . .
72(4) . . .
77(5) . . .
76(5) . . .
74(5) . . .
72(5) . . .
75(5) . . .
82(5) . . .
74(5) . . .
63(4) . . .
85(5) . . .
63(4) . . .
77(5) . . .
85(5) . . .
83(5) . . .
83(5) . . .
76(5) . . .
79(5) . . .
82(5) . . .
72(4) . . .
70(4) . . .
82(5) . . .
84(5) . . .
83(5) . . .
63(4) . . .
70(4) . . .
77(5) . . .
64(4) . . .
71(5) . . .
65(4) . . .
77(5) . . .
83(5) . . .
76(5) . . .
73(5) . . .
67(4) . . .
80(5) . . .
72(4) . . .
82(5) . . .
83(5) . . .
79(5) . . .
68(4) . . .
70(4) . . .
70(4) . . .
71(5) . . .
69(5) . . .
71(4) . . .
83(5) . . .
75(5) . . .
71(5) . . .
71(5) . . .
80(5) . . .
73(4) . . .
71(5) . . .
73(5) . . .
85(5) . . .
79(5) . . .
66(4) . . .
70(5) . . .
80(5) . . .
70(4) . . .
68(4) . . .
82(5) . . .
72(5) . . .
73(5) . . .
61(4) . . .
68(4) . . .
73(5) . . .
74(5) . . .
87(5) . . .
76(5) . . .
71(4) . . .
79(5) . . .
72(5) . . .
80(5) . . .
85(5) . . .
80(5) . . .
68(5) . . .
57(4) . . .
67(4) . . .
65(4) . . .
71(4) . . .
91(5) . . .
78(5) . . .
73(5) . . .
70(4) . . .
72(4) . . .
70(5) . . .
71(5) . . .
91(5) . . .
75(5) . . .
70(4) . . .
72(5) . . .
60(4) . . .
72(5) . . .
71(4) . . .
75(5) . . .
66(4) . . .
68(4) . . .
71(5) . . .
85(5) . . .
72(4) . . .
75(5) . . .
88(5) . . .
78(5) . . .
85(5) . . .
71(5) . . .
80(5) . . .
83(5) . . .
89(5) . . .
82(5) . . .
63(4) . . .
77(5) . . .
80(5) . . .
67(4) . . .
77(5) . . .
66(4) . . .
62(4) . . .
73(5) . . .
75(5) . . .
83(5) . . .
79(5) . . .
75(5) . . .
71(5) . . .
65(4) . . .
76(4) . . .
74(4) . . .
87(5) . . .
76(5) . . .
79(5) . . .
81(5) . . .
74(5) . . .
73(5) . . .
84(5) . . .
78(5) . . .
68(4) . . .
83(5) . . .
68(5) . . .
61(4) . . .
72(4) . . .
59(4) . . .
62(4) . . .
69(5) . . .
80(5) . . .
65(4) . . .
69(4) . . .
72(5) . . .
80(5) . . .
61(4) . . .
74(4) . . .
64(4) . . .
71(5) . . .
75(5) . . .
72(5) . . .
84(5) . . .
70(4) . . .
79(5) . . .
91(5) . . .
75(5) . . .
67(4) . . .
67(4) . . .
59(4) . . .
71(5) . . .
61(4) . . .
75(4) . . .
74(5) . . .
72(5) . . .
72(5) . . .
66(4) . . .
75(4) . . .
64(4) . . .
72(5) . . .
76(5) . . .
70(4) . . .
75(5) . . .
75(5) . . .
73(5) . . .
73(5) . . .
69(4) . . .
89(5) . . .
73(5) . . .
60(4) . . .
69(4) . . .
75(5) . . .
73(5) . . .
82(5) . . .
77(5) . . .
67(4) . . .
76(5) . . .
72(4) . . .
72(5) . . .
70(5) . . .
66(4) . . .
77(5) . . .
70(4) . . .
64(4) . . .
81(5) . . .
61(4) . . .
62(4) . . .
72(5) . . .
72(5) . . .
71(5) . . .
69(5) . . .
69(4) . . .
57(4) . . .
78(5) . . .
70(5) . . .
74(5) . . .
75(4) . . .
71(4) . . .
70(4) . . .
82(5) . . .
76(5) . . .
68(4) . . .
74(5) . . .
64(4) . . .
67(4) . . .
77(5) . . .
70(4) . . .
78(5) . . .
73(5) . . .
68(4) . . .
74(5) . . .
72(4) . . .
72(5) . . .
70(5) . . .
67(4) . . .
73(5) . . .
63(4) . . .
70(5) . . .
79(5) . . .
73(4) . . .
71(4) . . .
65(4) . . .
79(5) . . .
75(5) . . .
76(5) . . .
65(4) . . .
69(4) . . .
60(4) . . .
75(5) . . .
68(4) . . .
69(4) . . .
78(5) . . .
85(5) . . .
78(5) . . .
67(4) . . .
78(5) . . .
71(4) . . .
63(4) . . .
73(5) . . .
77(5) . . .
78(5) . . .
75(5) . . .
76(5) . . .
74(5) . . .
71(4) . . .
71(4) . . .
71(5) . . .
75(5) . . .
68(4) . . .
70(4) . . .
82(5) . . .
78(5) . . .
72(5) . . .
75(5) . . .
72(5) . . .
73(4) . . .
67(5) . . .
61(4) . . .
62(4) . . .
69(4) . . .
68(4) . . .
56(4) . . .
62(4) . . .
64(4) . . .
77(5) . . .
62(4) . . .
68(5) . . .
65(4) . . .
71(4) . . .
73(5) . . .
75(5) . . .
81(5) . . .
66(5) . . .
64(4) . . .
76(5) . . .
69(4) . . .
74(5) . . .
77(5) . . .
69(4) . . .
69(4) . . .
75(5) . . .
69(5) . . .
61(4) . . .
75(5) . . .
73(4) . . .
77(5) . . .
76(5) . . .
75(5) . . .
73(4) . . .
65(4) . . .
63(4) . . .
77(5) . . .
64(4) . . .
63(4) . . .
63(4) . . .
65(4) . . .
77(5) . . .
68(4) . . .
75(5) . . .
69(4) . . .
84(5) . . .
70(4) . . .
80(5) . . .
83(5) . . .
70(4) . . .
70(5) . . .
72(5) . . .
78(5) . . .
81(5) . . .
66(4) . . .
59(4) . . .
76(5) . . .
71(5) . . .
80(5) . . .
75(5) . . .
77(5) . . .
76(5) . . .
73(4) . . .
74(5) . . .
58(4) . . .
79(5) . . .
63(4) . . .
61(4) . . .
70(4) . . .
81(5) . . .
72(4) . . .
67(4) . . .
83(5) . . .
79(5) . . .
69(4) . . .
71(4) . . .
81(5) . . .
75(5) . . .
67(4) . . .
68(4) . . .
70(4) . . .
83(5) . . .
71(5) . . .
68(4) . . .
75(5) . . .
83(5) . . .
81(5) . . .
70(5) . . .
73(4) . . .
71(4) . . .
69(4) . . .
72(5) . . .
68(4) . . .
73(4) . . .
68(4) . . .
70(4) . . .
75(5) . . .
74(5) . . .
61(4) . . .
74(5) . . .
71(5) . . .
65(4) . . .
73(4) . . .
75(5) . . .
61(4) . . .
68(5) . . .
68(4) . . .
75(5) . . .
76(4) . . .
71(5) . . .
66(5) . . .
63(4) . . .
79(5) . . .
81(5) . . .
69(4) . . .
74(5) . . .
76(5) . . .
75(5) . . .
81(5) . . .
72(5) . . .
72(5) . . .
75(5) . . .
76(5) . . .
81(5) . . .
73(5) . . .
56(4) . . .
78(5) . . .
80(5) . . .
63(4) . . .
64(4) . . .
61(4) . . .
66(5) . . .
62(4) . . .
70(4) . . .
68(4) . . .
71(5) . . .
70(4) . . .
80(5) . . .
76(5) . . .
65(4) . . .
78(5) . . .
76(4) . . .
66(4) . . .
68(4) . . .
74(5) . . .
72(5) . . .
77(5) . . .
71(4) . . .
62(4) . . .
63(4) . . .
65(4) . . .
72(5) . . .
69(4) . . .
70(4) . . .
71(5) . . .
68(4) . . .
68(4) . . .
69(4) . . .
61(4) . . .
57(4) . . .
72(5) . . .
63(4) . . .
73(4) . . .
74(5) . . .
73(5) . . .
70(5) . . .
71(4) . . .
67(4) . . .
67(4) . . .
65(4) . . .
75(5) . . .
72(4) . . .
83(5) . . .
78(5) . . .
87(5) . . .
76(5) . . .
85(5) . . .
64(4) . . .
70(5) . . .
70(5) . . .
72(5) . . .
66(4) . . .
72(4) . . .
78(5) . . .
71(5) . . .
67(4) . . .
58(4) . . .
68(4) . . .
79(5) . . .
71(5) . . .
74(5) . . .
59(4) . . .
69(4) . . .
82(5) . . .
81(5) . . .
67(4) . . .
74(4) . . .
79(5) . . .
78(5) . . .
68(4) . . .
60(4) . . .
82(5) . . .
71(5) . . .
63(4) . . .
69(4) . . .
74(5) . . .
70(4) . . .
62(4) . . .
83(5) . . .
68(4) . . .
80(5) . . .
69(4) . . .
71(4) . . .
70(5) . . .
70(5) . . .
63(4) . . .
78(5) . . .
71(4) . . .
67(5) . . .
70(4) . . .
72(4) . . .
80(5) . . .
78(5) . . .
66(5) . . .
72(5) . . .
69(4) . . .
77(5) . . .
85(5) . . .
70(5) . . .
77(5) . . .
85(5) . . .
64(4) . . .
75(5) . . .
77(5) . . .
69(4) . . .
75(4) . . .
57(4) . . .
70(4) . . .
78(5) . . .
65(4) . . .
65(4) . . .
69(4) . . .
76(5) . . .
73(5) . . .
65(4) . . .
86(5) . . .
63(4) . . .
69(5) . . .
76(5) . . .
63(4) . . .
81(5) . . .
74(5) . . .
64(4) . . .
71(5) . . .
81(5) . . .
69(4) . . .
71(4) . . .
78(5) . . .
82(5) . . .
68(4) . . .
67(4) . . .
63(4) . . .
66(5) . . .
73(5) . . .
64(4) . . .
71(4) . . .
63(4) . . .
63(4) . . .
64(4) . . .
67(4) . . .
64(4) . . .
81(5) . . .
67(4) . . .
70(4) . . .
72(4) . . .
66(4) . . .
65(4) . . .
80(5) . . .
78(5) . . .
75(5) . . .
67(4) . . .
74(5) . . .
68(5) . . .
70(5) . . .
68(4) . . .
60(4) . . .
66(4) . . .
65(4) . . .
71(4) . . .
77(5) . . .
68(4) . . .
65(4) . . .
68(4) . . .
76(5) . . .
73(4) . . .
71(5) . . .
69(5) . . .
65(4) . . .
73(4) . . .
65(4) . . .
69(4) . . .
77(5) . . .
74(5) . . .
68(4) . . .
75(5) . . .
74(5) . . .
69(4) . . .
78(5) . . .
70(4) . . .
69(4) . . .
79(5) . . .
72(5) . . .
62(4) . . .
55(4) . . .
67(4) . . .
83(5) . . .
66(4) . . .
83(5) . . .
66(4) . . .
83(5) . . .
63(4) . . .
85(5) . . .
77(5) . . .
65(4) . . .
63(4) . . .
73(5) . . .
62(4) . . .
70(5) . . .
58(4) . . .
68(4) . . .
82(5) . . .
68(5) . . .
68(4) . . .
60(4) . . .
60(4) . . .
58(4) . . .
73(5) . . .
76(5) . . .
68(4) . . .
65(4) . . .
64(4) . . .
59(4) . . .
55(4) . . .
72(4) . . .
72(5) . . .
79(5) . . .
59(4) . . .
64(4) . . .
76(4) . . .
65(4) . . .
68(4) . . .
81(5) . . .
73(4) . . .
64(4) . . .
71(4) . . .
59(4) . . .
59(4) . . .
68(4) . . .
74(4) . . .
71(5) . . .
64(4) . . .
71(4) . . .
73(5) . . .
67(4) . . .
61(4) . . .
57(4) . . .
75(5) . . .
61(4) . . .
74(4) . . .
79(5) . . .
73(5) . . .
69(4) . . .
71(4) . . .
59(4) . . .
64(4) . . .
58(4) . . .
63(4) . . .
77(5) . . .
72(4) . . .
65(4) . . .
71(5) . . .
61(4) . . .
63(4) . . .
69(4) . . .
66(4) . . .
71(4) . . .
76(5) . . .
66(4) . . .
72(5) . . .
70(4) . . .
68(4) . . .
75(5) . . .
59(4) . . .
59(4) . . .
68(4) . . .
63(4) . . .
67(4) . . .
60(4) . . .
73(5) . . .
82(5) . . .
61(4) . . .
70(4) . . .
72(4) . . .
68(4) . . .
73(5) . . .
70(4) . . .
67(4) . . .
72(4) . . .
60(4) . . .
76(5) . . .
62(4) . . .
72(5) . . .
66(4) . . .
71(5) . . .
70(5) . . .
64(4) . . .
72(4) . . .
70(4) . . .
67(4) . . .
66(4) . . .
67(4) . . .
78(5) . . .
69(4) . . .
79(5) . . .
59(4) . . .
60(4) . . .
63(4) . . .
67(4) . . .
59(4) . . .
71(5) . . .
71(5) . . .
78(5) . . .
76(5) . . .
70(4) . . .
68(5) . . .
64(4) . . .
60(4) . . .
56(4) . . .
73(5) . . .
68(4) . . .
75(5) . . .
70(4) . . .
67(4) . . .
71(5) . . .
62(4) . . .
75(5) . . .
75(4) . . .
61(4) . . .
56(4) . . .
64(4) . . .
66(4) . . .
64(4) . . .
79(5) . . .
64(5) . . .
62(4) . . .
76(4) . . .
63(4) . . .
73(5) . . .
62(4) . . .
63(4) . . .
70(5) . . .
74(4) . . .
68(4) . . .
75(5) . . .
69(4) . . .
75(4) . . .
72(5) . . .
69(4) . . .
69(4) . . .
66(4) . . .
63(4) . . .
67(4) . . .
74(5) . . .
76(5) . . .
73(5) . . .
74(5) . . .
62(4) . . .
56(4) . . .
73(5) . . .
63(4) . . .
66(4) . . .
69(4) . . .
64(4) . . .
67(5) . . .
68(4) . . .
71(4) . . .
71(4) . . .
81(5) . . .
79(5) . . .
65(4) . . .
78(5) . . .
71(4) . . .
68(5) . . .
69(4) . . .
62(4) . . .
65(4) . . .
64(4) . . .
62(4) . . .
81(5) . . .
76(5) . . .
76(5) . . .
78(5) . . .
72(4) . . .
83(5) . . .
65(4) . . .
66(4) . . .
66(4) . . .
63(4) . . .
83(5) . . .
72(4) . . .
60(4) . . .
65(4) . . .
70(5) . . .
63(4) . . .
59(4) . . .
60(4) . . .
78(5) . . .
58(4) . . .
68(5) . . .
77(5) . . .
71(4) . . .
74(5) . . .
71(5) . . .
64(4) . . .
55(4) . . .
68(4) . . .
68(4) . . .
68(4) . . .
72(5) . . .
73(4) . . .
64(4) . . .
60(4) . . .
62(4) . . .
80(5) . . .
66(4) . . .
64(4) . . .
68(4) . . .
70(5) . . .
69(5) . . .
72(4) . . .
80(5) . . .
67(4) . . .
72(5) . . .
59(4) . . .
67(4) . . .
64(4) . . .
59(4) . . .
63(4) . . .
72(4) . . .
68(4) . . .
67(4) . . .
66(4) . . .
66(4) . . .
68(4) . . .
64(4) . . .
77(5) . . .
74(5) . . .
72(4) . . .
78(5) . . .
71(4) . . .
68(4) . . .
67(4) . . .
70(5) . . .
61(4) . . .
68(4) . . .
52(4) . . .
80(5) . . .
82(5) . . .
62(4) . . .
66(4) . . .
75(5) . . .
64(4) . . .
64(4) . . .
68(4) . . .
65(4) . . .
74(5) . . .
76(5) . . .
77(5) . . .
67(4) . . .
73(4) . . .
79(5) . . .
70(5) . . .
65(4) . . .
68(4) . . .
74(5) . . .
68(4) . . .
68(5) . . .
68(4) . . .
73(4) . . .
67(4) . . .
73(5) . . .
78(5) . . .
79(5) . . .
70(4) . . .
75(5) . . .
69(4) . . .
66(5) . . .
74(5) . . .
72(4) . . .
63(4) . . .
74(5) . . .
67(4) . . .
68(4) . . .
69(4) . . .
69(4) . . .
66(4) . . .
60(4) . . .
58(4) . . .
67(4) . . .
69(4) . . .
65(4) . . .
61(4) . . .
67(4) . . .
66(4) . . .
73(5) . . .
63(4) . . .
61(4) . . .
69(4) . . .
74(5) . . .
57(4) . . .
59(4) . . .
64(4) . . .
69(4) . . .
59(4) . . .
64(4) . . .
57(4) . . .
62(4) . . .
80(5) . . .
71(4) . . .
66(4) . . .
62(4) . . .
56(4) . . .
61(4) . . .
70(4) . . .
75(5) . . .
70(4) . . .
76(5) . . .
75(5) . . .
68(4) . . .
65(4) . . .
73(5) . . .
80(5) . . .
72(4) . . .
76(5) . . .
66(4) . . .
79(5) . . .
73(5) . . .
67(4) . . .
73(5) . . .
58(4) . . .
56(4) . . .
69(4) . . .
64(4) . . .
68(4) . . .
69(5) . . .
61(4) . . .
70(5) . . .
65(4) . . .
62(4) . . .
63(4) . . .
77(5) . . .
56(4) . . .
69(4) . . .
66(4) . . .
67(4) . . .
73(5) . . .
72(4) . . .
57(4) . . .
64(4) . . .
70(4) . . .
66(4) . . .
74(5) . . .
74(4) . . .
66(4) . . .
62(4) . . .
63(4) . . .
82(5) . . .
62(4) . . .
71(5) . . .
67(4) . . .
70(5) . . .
61(4) . . .
65(4) . . .
60(4) . . .
65(4) . . .
79(5) . . .
69(4) . . .
63(4) . . .
76(5) . . .
71(5) . . .
79(5) . . .
63(4) . . .
70(4) . . .
61(4) . . .
63(5) . . .
69(5) . . .
78(5) . . .
68(4) . . .
74(5) . . .
62(4) . . .
60(4) . . .
68(4) . . .
66(4) . . .
62(4) . . .
72(5) . . .
76(5) . . .
59(4) . . .
57(4) . . .
77(5) . . .
73(5) . . .
68(4) . . .
63(4) . . .
66(4) . . .
67(5) . . .
69(5) . . .
70(4) . . .
72(5) . . .
70(4) . . .
75(5) . . .
74(5) . . .
64(4) . . .
75(4) . . .
70(5) . . .
73(5) . . .
80(5) . . .
66(4) . . .
65(4) . . .
74(5) . . .
67(5) . . .
66(4) . . .
64(4) . . .
75(4) . . .
60(4) . . .
71(5) . . .
65(4) . . .
63(4) . . .
69(4) . . .
61(4) . . .
65(4) . . .
74(5) . . .
67(4) . . .
69(4) . . .
53(4) . . .
63(4) . . .
68(5) . . .
64(4) . . .
65(4) . . .
65(4) . . .
69(5) . . .
75(5) . . .
64(4) . . .
68(4) . . .
61(4) . . .
74(5) . . .
65(4) . . .
66(4) . . .
60(4) . . .
53(4) . . .
82(5) . . .
69(4) . . .
59(4) . . .
62(4) . . .
53(4) . . .
65(5) . . .
68(4) . . .
64(4) . . .
73(5) . . .
63(4) . . .
65(4) . . .
64(4) . . .
53(4) . . .
78(5) . . .
70(5) . . .
60(4) . . .
68(4) . . .
65(4) . . .
57(4) . . .
65(4) . . .
63(4) . . .
62(4) . . .
65(4) . . .
64(4) . . .
69(5) . . .
58(4) . . .
67(4) . . .
65(4) . . .
57(4) . . .
61(4) . . .
70(5) . . .
63(4) . . .
68(4) . . .
68(5) . . .
60(4) . . .
55(4) . . .
63(4) . . .
72(5) . . .
69(4) . . .
71(4) . . .
68(4) . . .
63(4) . . .
67(4) . . .
65(4) . . .
74(5) . . .
70(4) . . .
75(5) . . .
71(5) . . .
67(4) . . .
55(4) . . .
52(4) . . .
76(5) . . .
50(4) . . .
64(5) . . .
57(4) . . .
60(4) . . .
70(4) . . .
67(4) . . .
53(4) . . .
68(5) . . .
69(4) . . .
79(5) . . .
67(4) . . .
74(5) . . .
65(5) . . .
65(4) . . .
69(4) . . .
69(4) . . .
67(5) . . .
68(4) . . .
63(4) . . .
61(4) . . .
56(4) . . .
68(5) . . .
74(5) . . .
67(4) . . .
65(4) . . .
64(4) . . .
78(5) . . .
74(5) . . .
64(4) . . .
61(4) . . .
63(4) . . .
53(4) . . .
62(4) . . .
63(4) . . .
76(5) . . .
70(4) . . .
63(4) . . .
58(4) . . .
60(4) . . .
67(4) . . .
73(5) . . .
57(4) . . .
66(4) . . .
67(4) . . .
66(4) . . .
59(4) . . .
65(4) . . .
75(5) . . .
63(4) . . .
61(4) . . .
62(4) . . .
60(4) . . .
68(5) . . .
64(4) . . .
58(4) . . .
72(5) . . .
62(4) . . .
61(4) . . .
71(4) . . .
59(4) . . .
60(4) . . .
67(4) . . .
68(4) . . .
61(4) . . .
67(4) . . .
63(5) . . .
63(4) . . .
60(4) . . .
52(4) . . .
63(4) . . .
79(5) . . .
61(4) . . .
60(4) . . .
67(4) . . .
64(4) . . .
74(5) . . .
59(4) . . .
58(4) . . .
61(4) . . .
64(4) . . .
60(4) . . .
53(4) . . .
56(4) . . .
62(4) . . .
73(5) . . .
65(4) . . .
61(4) . . .
69(4) . . .
69(4) . . .
68(4) . . .
66(4) . . .
59(4) . . .
60(4) . . .
57(4) . . .
78(5) . . .
60(4) . . .
66(4) . . .
61(4) . . .
70(5) . . .
66(4) . . .
72(5) . . .
63(4) . . .
63(4) . . .
68(4) . . .
73(5) . . .
70(4) . . .
67(4) . . .
68(4) . . .
63(4) . . .
57(4) . . .
71(5) . . .
53(4) . . .
59(4) . . .
72(5) . . .
72(5) . . .
77(5) . . .
67(4) . . .
61(4) . . .
56(4) . . .
71(5) . . .
57(4) . . .
64(4) . . .
74(5) . . .
71(5) . . .
71(5) . . .
72(5) . . .
68(4) . . .
76(5) . . .
60(4) . . .
66(4) . . .
70(5) . . .
52(4) . . .
56(4) . . .
65(4) . . .
57(4) . . .
60(4) . . .
58(4) . . .
63(4) . . .
66(4) . . .
65(4) . . .
67(4) . . .
56(4) . . .
69(4) . . .
62(4) . . .
63(4) . . .
67(4) . . .
66(4) . . .
61(4) . . .
73(5) . . .
68(4) . . .
74(5) . . .
52(4) . . .
71(5) . . .
67(5) . . .
67(4) . . .
63(4) . . .
83(5) . . .
69(5) . . .
51(4) . . .
64(4) . . .
68(4) . . .
59(4) . . .
71(5) . . .
79(5) . . .
70(4) . . .
70(4) . . .
74(5) . . .
69(5) . . .
48(4) . . .
71(5) . . .
64(4) . . .
56(4) . . .
58(4) . . .
61(4) . . .
65(4) . . .
60(4) . . .
68(4) . . .
58(4) . . .
70(5) . . .
57(4) . . .
59(4) . . .
70(4) . . .
71(5) . . .
65(4) . . .
75(5) . . .
72(4) . . .
79(5) . . .
68(4) . . .
70(5) . . .
64(4) . . .
60(4) . . .
68(4) . . .
66(4) . . .
60(4) . . .
61(4) . . .
59(4) . . .
70(5) . . .
64(4) . . .
69(5) . . .
73(5) . . .
65(4) . . .
64(4) . . .
65(5) . . .
64(4) . . .
59(4) . . .
61(4) . . .
67(4) . . .
57(4) . . .
67(5) . . .
58(4) . . .
61(4) . . .
65(4) . . .
66(4) . . .
76(5) . . .
59(4) . . .
63(4) . . .
62(4) . . .
53(4) . . .
58(4) . . .
67(4) . . .
67(4) . . .
66(4) . . .
54(4) . . .
61(4) . . .
69(4) . . .
76(5) . . .
71(4) . . .
71(5) . . .
60(4) . . .
69(4) . . .
62(4) . . .
52(4) . . .
74(5) . . .
67(4) . . .
55(4) . . .
61(4) . . .
68(4) . . .
66(4) . . .
74(5) . . .
55(4) . . .
52(4) . . .
75(5) . . .
66(4) . . .
65(4) . . .
65(4) . . .
64(4) . . .
67(5) . . .
56(4) . . .
71(4) . . .
71(4) . . .
55(4) . . .
67(4) . . .
45.0(34) . . .
53(4) . . .
62(4) . . .
74(5) . . .
68(5) . . .
65(4) . . .
57(4) . . .
63(4) . . .
55(4) . . .
49(4) . . .
53(4) . . .
56(4) . . .
65(4) . . .
61(4) . . .
60(4) . . .
63(4) . . .
63(4) . . .
65(4) . . .
55(4) . . .
66(4) . . .
61(4) . . .
69(4) . . .
76(5) . . .
61(4) . . .
63(5) . . .
60(4) . . .
71(4) . . .
60(4) . . .
69(5) . . .
56(4) . . .
68(4) . . .
67(4) . . .
63(4) . . .
68(5) . . .
68(4) . . .
61(4) . . .
59(4) . . .
62(4) . . .
52(4) . . .
63(4) . . .
57(4) . . .
70(4) . . .
73(5) . . .
69(5) . . .
57(4) . . .
65(4) . . .
71(4) . . .
65(5) . . .
64(4) . . .
64(4) . . .
67(4) . . .
81(5) . . .
69(4) . . .
55(4) . . .
71(4) . . .
72(4) . . .
68(4) . . .
66(4) . . .
58(4) . . .
70(5) . . .
54(4) . . .
60(4) . . .
73(5) . . .
55(4) . . .
63(4) . . .
68(4) . . .
65(4) . . .
77(5) . . .
61(4) . . .
66(4) . . .
65(4) . . .
62(4) . . .
67(4) . . .
61(4) . . .
62(4) . . .
70(4) . . .
64(4) . . .
67(4) . . .
78(5) . . .
62(4) . . .
61(4) . . .
58(4) . . .
64(4) . . .
64(5) . . .
59(4) . . .
64(4) . . .
63(4) . . .
62(4) . . .
57(4) . . .
67(5) . . .
61(4) . . .
67(4) . . .
62(4) . . .
68(4) . . .
67(4) . . .
64(4) . . .
68(5) . . .
51(4) . . .
50(4) . . .
70(4) . . .
68(4) . . .
61(4) . . .
73(5) . . .
68(5) . . .
67(4) . . .
68(4) . . .
68(4) . . .
72(5) . . .
71(5) . . .
69(4) . . .
68(4) . . .
59(4) . . .
63(4) . . .
62(4) . . .
66(4) . . .
57(4) . . .
70(5) . . .
63(4) . . .
58(4) . . .
75(5) . . .
65(4) . . .
67(4) . . .
66(5) . . .
72(5) . . .
70(4) . . .
66(4) . . .
63(4) . . .
59(4) . . .
66(4) . . .
64(4) . . .
72(5) . . .
70(5) . . .
75(5) . . .
55(4) . . .
68(4) . . .
57(4) . . .
65(4) . . .
70(5) . . .
67(4) . . .
64(4) . . .
69(4) . . .
67(5) . . .
58(4) . . .
61(4) . . .
59(4) . . .
81(5) . . .
65(4) . . .
67(4) . . .
67(4) . . .
67(4) . . .
80(5) . . .
66(4) . . .
73(5) . . .
74(5) . . .
68(4) . . .
63(4) . . .
70(5) . . .
62(4) . . .
61(4) . . .
56(4) . . .
58(4) . . .
57(4) . . .
60(4) . . .
66(4) . . .
69(4) . . .
57(4) . . .
71(5) . . .
73(5) . . .
63(4) . . .
63(4) . . .
67(5) . . .
64(5) . . .
62(4) . . .
76(5) . . .
58(4) . . .
64(4) . . .
70(5) . . .
65(4) . . .
65(4) . . .
69(4) . . .
58(4) . . .
69(5) . . .
59(4) . . .
60(4) . . .
65(4) . . .
70(5) . . .
63(4) . . .
69(5) . . .
72(4) . . .
67(4) . . .
63(4) . . .
70(4) . . .
77(5) . . .
76(5) . . .
69(5) . . .
53(4) . . .
63(4) . . .
61(4) . . .
62(4) . . .
62(4) . . .
63(4) . . .
58(4) . . .
74(5) . . .
77(5) . . .
63(4) . . .
67(4) . . .
70(4) . . .
54(4) . . .
62(4) . . .
75(5) . . .
79(5) . . .
69(5) . . .
63(4) . . .
66(4) . . .
66(5) . . .
51(4) . . .
64(4) . . .
60(4) . . .
74(5) . . .
55(4) . . .
65(4) . . .
57(4) . . .
51(4) . . .
59(4) . . .
55(4) . . .
69(5) . . .
70(5) . . .
75(4) . . .
70(4) . . .
59(4) . . .
63(4) . . .
60(4) . . .
50(4) . . .
60(4) . . .
70(5) . . .
72(5) . . .
56(4) . . .
63(4) . . .
58(4) . . .
61(4) . . .
62(4) . . .
71(4) . . .
61(4) . . .
69(4) . . .
74(5) . . .
56(4) . . .
59(4) . . .
61(4) . . .
54(4) . . .
55(4) . . .
65(4) . . .
59(4) . . .
52(4) . . .
52(4) . . .
63(5) . . .
68(5) . . .
69(4) . . .
63(4) . . .
58(4) . . .
59(4) . . .
75(5) . . .
75(5) . . .
64(4) . . .
70(4) . . .
61(4) . . .
66(4) . . .
81(5) . . .
74(4) . . .
77(5) . . .
64(4) . . .
55(4) . . .
61(4) . . .
62(4) . . .
58(4) . . .
55(4) . . .
60(4) . . .
68(4) . . .
50(4) . . .
54(4) . . .
58(4) . . .
59(4) . . .
63(4) . . .
58(4) . . .
65(4) . . .
67(4) . . .
66(4) . . .
60(4) . . .
66(4) . . .
67(4) . . .
70(4) . . .
64(4) . . .
62(4) . . .
62(4) . . .
50(4) . . .
55(4) . . .
58(4) . . .
60(4) . . .
59(4) . . .
69(5) . . .
65(5) . . .
53(4) . . .
61(4) . . .
63(4) . . .
75(5) . . .
67(4) . . .
65(4) . . .
60(4) . . .
59(4) . . .
53(4) . . .
60(4) . . .
61(4) . . .
74(4) . . .
53(4) . . .
61(5) . . .
61(4) . . .
67(4) . . .
55(4) . . .
68(4) . . .
57(4) . . .
51(4) . . .
72(5) . . .
65(4) . . .
77(5) . . .
70(5) . . .
67(4) . . .
59(4) . . .
60(4) . . .
67(4) . . .
73(5) . . .
62(4) . . .
59(4) . . .
65(4) . . .
56(4) . . .
61(4) . . .
74(5) . . .
64(4) . . .
68(4) . . .
70(5) . . .
55(4) . . .
47(4) . . .
60(4) . . .
58(4) . . .
58(4) . . .
58(4) . . .
63(4) . . .
59(4) . . .
58(4) . . .
71(5) . . .
63(4) . . .
66(4) . . .
72(4) . . .
65(4) . . .
51(4) . . .
65(5) . . .
57(4) . . .
55(4) . . .
55(4) . . .
72(5) . . .
65(4) . . .
57(4) . . .
71(4) . . .
68(5) . . .
60(4) . . .
61(4) . . .
62(4) . . .
72(4) . . .
67(4) . . .
66(5) . . .
63(4) . . .
49(4) . . .
53(4) . . .
62(4) . . .
71(5) . . .
76(5) . . .
67(4) . . .
58(4) . . .
64(4) . . .
72(5) . . .
69(4) . . .
69(4) . . .
62(4) . . .
62(4) . . .
57(4) . . .
61(4) . . .
61(4) . . .
64(4) . . .
71(5) . . .
63(4) . . .
62(4) . . .
64(4) . . .
62(5) . . .
55(4) . . .
67(5) . . .
61(4) . . .
63(4) . . .
64(4) . . .
61(4) . . .
62(4) . . .
62(4) . . .
56(4) . . .
58(4) . . .
53(4) . . .
56(4) . . .
64(4) . . .
69(4) . . .
62(4) . . .
56(4) . . .
73(5) . . .
68(4) . . .
63(4) . . .
58(4) . . .
59(4) . . .
60(4) . . .
63(4) . . .
65(4) . . .
61(4) . . .
52(4) . . .
56(4) . . .
73(4) . . .
66(4) . . .
67(4) . . .
61(4) . . .
56(4) . . .
64(4) . . .
53(4) . . .
55(4) . . .
58(4) . . .
59(4) . . .
62(4) . . .
67(4) . . .
72(5) . . .
72(5) . . .
64(4) . . .
70(4) . . .
67(4) . . .
64(4) . . .
72(5) . . .
66(4) . . .
60(4) . . .
63(4) . . .
68(4) . . .
70(5) . . .
58(4) . . .
65(4) . . .
59(4) . . .
68(4) . . .
70(4) . . .
66(4) . . .
60(4) . . .
77(5) . . .
65(4) . . .
77(5) . . .
65(4) . . .
47(4) . . .
60(4) . . .
72(5) . . .
66(4) . . .
61(4) . . .
65(4) . . .
68(4) . . .
70(5) . . .
63(4) . . .
55(4) . . .
57(4) . . .
67(4) . . .
69(4) . . .
61(4) . . .
59(4) . . .
62(4) . . .
65(4) . . .
66(4) . . .
65(4) . . .
63(4) . . .
64(4) . . .
63(4) . . .
67(4) . . .
69(4) . . .
65(4) . . .
61(4) . . .
66(4) . . .
67(5) . . .
63(4) . . .
58(4) . . .
61(4) . . .
72(5) . . .
59(4) . . .
53(4) . . .
62(4) . . .
68(4) . . .
48(4) . . .
53(4) . . .
54(4) . . .
54(4) . . .
67(4) . . .
74(5) . . .
58(4) . . .
63(4) . . .
66(4) . . .
73(5) . . .
58(4) . . .
59(4) . . .
70(5) . . .
57(4) . . .
68(5) . . .
61(4) . . .
65(4) . . .
68(4) . . .
67(4) . . .
60(4) . . .
57(4) . . .
63(4) . . .
58(4) . . .
65(4) . . .
63(4) . . .
66(4) . . .
65(4) . . .
69(4) . . .
72(4) . . .
49(4) . . .
59(4) . . .
68(5) . . .
48(4) . . .
68(4) . . .
64(4) . . .
65(5) . . .
60(4) . . .
69(4) . . .
69(4) . . .
58(4) . . .
57(4) . . .
53(4) . . .
53(4) . . .
56(4) . . .
52(4) . . .
54(4) . . .
58(4) . . .
62(4) . . .
65(4) . . .
70(5) . . .
66(4) . . .
62(4) . . .
65(4) . . .
72(5) . . .
57(4) . . .
69(5) . . .
60(4) . . .
60(4) . . .
54(4) . . .
55(4) . . .
63(4) . . .
70(4) . . .
67(4) . . .
64(4) . . .
67(5) . . .
57(4) . . .
67(4) . . .
71(4) . . .
76(5) . . .
60(4) . . .
69(5) . . .
60(4) . . .
50(4) . . .
54(4) . . .
56(4) . . .
60(4) . . .
62(4) . . .
48(4) . . .
57(4) . . .
70(5) . . .
53(4) . . .
60(4) . . .
66(4) . . .
65(4) . . .
67(4) . . .
73(5) . . .
57(4) . . .
66(4) . . .
47(4) . . .
69(5) . . .
57(4) . . .
51(4) . . .
60(4) . . .
56(4) . . .
59(4) . . .
57(4) . . .
69(4) . . .
48(4) . . .
70(5) . . .
53(4) . . .
64(4) . . .
63(4) . . .
63(4) . . .
68(4) . . .
78(5) . . .
68(4) . . .
67(4) . . .
65(4) . . .
70(5) . . .
69(5) . . .
65(4) . . .
77(5) . . .
80(5) . . .
76(5) . . .
60(4) . . .
63(4) . . .
58(4) . . .
58(4) . . .
70(5) . . .
55(4) . . .
59(4) . . .
63(4) . . .
60(4) . . .
59(4) . . .
71(5) . . .
59(4) . . .
69(4) . . .
62(4) . . .
75(5) . . .
62(4) . . .
68(4) . . .
68(4) . . .
62(4) . . .
74(5) . . .
56(4) . . .
54(4) . . .
54(4) . . .
51(4) . . .
67(5) . . .
67(4) . . .
64(4) . . .
67(4) . . .
59(4) . . .
56(4) . . .
65(4) . . .
70(4) . . .
64(4) . . .
48(4) . . .
48(4) . . .
59(4) . . .
62(4) . . .
68(4) . . .
65(4) . . .
59(4) . . .
61(4) . . .
61(4) . . .
72(5) . . .
71(5) . . .
58(4) . . .
58(4) . . .
65(4) . . .
63(4) . . .
65(4) . . .
66(5) . . .
49(4) . . .
60(4) . . .
56(4) . . .
60(4) . . .
56(4) . . .
73(4) . . .
69(4) . . .
66(4) . . .
57(4) . . .
57(4) . . .
60(4) . . .
64(4) . . .
56(4) . . .
64(5) . . .
62(4) . . .
63(4) . . .
57(4) . . .
63(4) . . .
59(4) . . .
56(4) . . .
67(4) . . .
83(5) . . .
67(4) . . .
67(5) . . .
62(4) . . .
60(4) . . .
68(4) . . .
69(5) . . .
63(4) . . .
58(4) . . .
57(4) . . .
61(4) . . .
56(4) . . .
55(4) . . .
62(4) . . .
58(4) . . .
57(4) . . .
57(4) . . .
66(5) . . .
57(4) . . .
54(4) . . .
60(4) . . .
57(4) . . .
61(4) . . .
61(4) . . .
68(4) . . .
69(4) . . .
63(4) . . .
52(4) . . .
56(4) . . .
57(4) . . .
55(4) . . .
59(4) . . .
64(4) . . .
59(4) . . .
71(4) . . .
60(4) . . .
60(4) . . .
62(4) . . .
62(4) . . .
58(4) . . .
59(4) . . .
69(5) . . .
62(4) . . .
58(4) . . .
64(4) . . .
56(4) . . .
60(4) . . .
61(4) . . .
51(4) . . .
61(4) . . .
64(4) . . .
62(4) . . .
58(4) . . .
62(4) . . .
61(4) . . .
68(5) . . .
61(4) . . .
60(4) . . .
69(4) . . .
55(4) . . .
75(5) . . .
54(4) . . .
54(4) . . .
61(4) . . .
76(5) . . .
75(5) . . .
65(4) . . .
61(4) . . .
64(4) . . .
64(4) . . .
65(4) . . .
58(4) . . .
62(4) . . .
58(4) . . .
60(4) . . .
62(4) . . .
55(4) . . .
67(4) . . .
68(4) . . .
61(4) . . .
62(4) . . .
56(4) . . .
61(4) . . .
71(4) . . .
61(4) . . .
55(4) . . .
70(5) . . .
65(4) . . .
54(4) . . .
56(4) . . .
66(4) . . .
60(4) . . .
53(4) . . .
66(4) . . .
55(4) . . .
69(4) . . .
59(4) . . .
50(4) . . .
67(4) . . .
51(4) . . .
57(4) . . .
47(4) . . .
50(4) . . .
56(4) . . .
70(5) . . .
68(5) . . .
67(4) . . .
67(4) . . .
58(4) . . .
64(4) . . .
59(4) . . .
57(4) . . .
73(4) . . .
62(4) . . .
68(4) . . .
67(4) . . .
63(4) . . .
70(4) . . .
48(4) . . .
68(4) . . .
57(4) . . .
58(4) . . .
73(4) . . .
68(4) . . .
63(4) . . .
65(5) . . .
63(4) . . .
70(4) . . .
66(4) . . .
67(4) . . .
59(4) . . .
57(4) . . .
54(4) . . .
67(4) . . .
55(4) . . .
62(4) . . .
71(5) . . .
54(4) . . .
61(4) . . .
56(4) . . .
65(4) . . .
63(4) . . .
58(4) . . .
63(4) . . .
57(4) . . .
60(4) . . .
62(4) . . .
57(4) . . .
62(4) . . .
51(4) . . .
57(4) . . .
62(4) . . .
67(4) . . .
48(4) . . .
57(4) . . .
66(4) . . .
59(4) . . .
56(4) . . .
58(4) . . .
52(4) . . .
44(4) . . .
52(4) . . .
69(5) . . .
58(4) . . .
63(4) . . .
65(4) . . .
72(4) . . .
58(4) . . .
46.1(35) . . .
64(4) . . .
69(5) . . .
58(4) . . .
52(4) . . .
57(4) . . .
61(4) . . .
49(4) . . .
64(4) . . .
57(4) . . .
61(4) . . .
60(4) . . .
63(4) . . .
53(4) . . .
58(4) . . .
74(5) . . .
65(4) . . .
60(4) . . .
52(4) . . .
58(4) . . .
64(5) . . .
50(4) . . .
63(4) . . .
62(4) . . .
63(4) . . .
62(4) . . .
54(4) . . .
68(4) . . .
61(4) . . .
57(4) . . .
59(4) . . .
42.6(33) . . .
58(4) . . .
60(4) . . .
66(4) . . .
71(5) . . .
58(4) . . .
48(4) . . .
66(4) . . .
69(4) . . .
65(4) . . .
51(4) . . .
60(4) . . .
68(4) . . .
62(4) . . .
63(4) . . .
60(4) . . .
68(4) . . .
63(4) . . .
54(4) . . .
64(4) . . .
67(4) . . .
65(4) . . .
76(5) . . .
69(4) . . .
61(4) . . .
66(4) . . .
55(4) . . .
59(4) . . .
55(4) . . .
64(4) . . .
71(5) . . .
75(5) . . .
69(5) . . .
62(5) . . .
65(4) . . .
58(4) . . .
62(4) . . .
55(4) . . .
55(4) . . .
62(4) . . .
58(4) . . .
60(4) . . .
65(4) . . .
64(4) . . .
70(4) . . .
63(4) . . .
55(4) . . .
53(4) . . .
65(5) . . .
66(4) . . .
71(4) . . .
61(4) . . .
72(5) . . .
65(5) . . .
60(4) . . .
65(4) . . .
63(4) . . .
55(4) . . .
68(5) . . .
64(5) . . .
67(4) . . .
70(4) . . .
65(4) . . .
62(4) . . .
58(4) . . .
58(4) . . .
58(4) . . .
60(4) . . .
63(4) . . .
63(4) . . .
59(4) . . .
63(4) . . .
60(4) . . .
49(4) . . .
59(4) . . .
61(4) . . .
63(4) . . .
61(4) . . .
63(4) . . .
71(4) . . .
61(4) . . .
64(4) . . .
67(4) . . .
65(4) . . .
72(5) . . .
68(4) . . .
61(4) . . .
66(4) . . .
70(5) . . .
68(4) . . .
65(4) . . .
62(4) . . .
55(4) . . .
55(4) . . .
59(4) . . .
61(4) . . .
63(4) . . .
73(5) . . .
57(4) . . .
57(4) . . .
54(4) . . .
60(4) . . .
70(5) . . .
69(4) . . .
62(4) . . .
54(4) . . .
54(4) . . .
51(4) . . .
58(4) . . .
56(4) . . .
53(4) . . .
71(5) . . .
56(4) . . .
51(4) . . .
53(4) . . .
53(4) . . .
58(4) . . .
71(5) . . .
72(5) . . .
54(4) . . .
66(5) . . .
58(4) . . .
51(4) . . .
56(4) . . .
62(4) . . .
71(5) . . .
56(4) . . .
51(4) . . .
60(4) . . .
56(4) . . .
69(5) . . .
55(4) . . .
62(4) . . .
56(4) . . .
53(4) . . .
58(4) . . .
59(4) . . .
54(4) . . .
64(4) . . .
62(4) . . .
55(4) . . .
66(5) . . .
56(4) . . .
69(4) . . .
63(4) . . .
61(4) . . .
62(4) . . .
66(5) . . .
60(4) . . .
62(4) . . .
60(4) . . .
52(4) . . .
67(5) . . .
61(4) . . .
70(4) . . .
68(4) . . .
65(5) . . .
56(4) . . .
64(4) . . .
60(4) . . .
75(5) . . .
58(4) . . .
59(4) . . .
66(4) . . .
67(4) . . .
62(4) . . .
71(5) . . .
62(4) . . .
59(4) . . .
68(4) . . .
60(4) . . .
54(4) . . .
63(4) . . .
61(4) . . .
53(4) . . .
53(4) . . .
65(4) . . .
58(4) . . .
71(4) . . .
56(4) . . .
57(4) . . .
61(4) . . .
60(4) . . .
54(4) . . .
51(4) . . .
66(5) . . .
60(4) . . .
60(4) . . .
55(4) . . .
66(4) . . .
61(4) . . .
60(4) . . .
56(4) . . .
59(4) . . .
61(4) . . .
71(5) . . .
59(4) . . .
57(4) . . .
51(4) . . .
64(4) . . .
64(4) . . .
70(4) . . .
62(4) . . .
51(4) . . .
65(4) . . .
62(4) . . .
60(4) . . .
65(4) . . .
66(4) . . .
68(4) . . .
66(5) . . .
66(4) . . .
69(4) . . .
65(4) . . .
62(4) . . .
59(4) . . .
58(4) . . .
61(4) . . .
60(4) . . .
57(4) . . .
64(4) . . .
65(4) . . .
67(4) . . .
63(4) . . .
53(4) . . .
60(4) . . .
61(4) . . .
54(4) . . .
55(4) . . .
66(4) . . .
69(4) . . .
63(4) . . .
63(4) . . .
64(4) . . .
54(4) . . .
55(4) . . .
56(4) . . .
57(4) . . .
66(4) . . .
70(5) . . .
57(4) . . .
60(4) . . .
65(4) . . .
64(4) . . .
57(4) . . .
53(4) . . .
56(4) . . .
57(4) . . .
76(5) . . .
60(4) . . .
61(4) . . .
63(4) . . .
55(4) . . .
61(4) . . .
60(4) . . .
62(4) . . .
58(4) . . .
65(4) . . .
65(4) . . .
61(4) . . .
78(5) . . .
67(4) . . .
60(4) . . .
57(4) . . .
64(5) . . .
62(4) . . .
59(4) . . .
59(4) . . .
58(4) . . .
53(4) . . .
58(4) . . .
68(4) . . .
61(4) . . .
76(5) . . .
58(4) . . .
59(4) . . .
55(4) . . .
61(4) . . .
62(4) . . .
60(4) . . .
69(4) . . .
60(4) . . .
76(5) . . .
51(4) . . .
60(4) . . .
66(4) . . .
62(4) . . .
65(4) . . .
64(4) . . .
51(4) . . .
43.6(34) . . .
55(4) . . .
76(5) . . .
65(4) . . .
63(4) . . .
62(4) . . .
53(4) . . .
55(4) . . .
69(5) . . .
57(4) . . .
62(4) . . .
63(4) . . .
73(5) . . .
63(4) . . .
59(4) . . .
67(4) . . .
69(4) . . .
59(4) . . .
56(4) . . .
66(4) . . .
63(4) . . .
71(5) . . .
68(4) . . .
55(4) . . .
50(4) . . .
52(4) . . .
66(4) . . .
58(4) . . .
61(4) . . .
62(4) . . .
54(4) . . .
70(4) . . .
59(4) . . .
57(4) . . .
55(4) . . .
55(4) . . .
66(4) . . .
52(4) . . .
56(4) . . .
66(4) . . .
65(4) . . .
48(4) . . .
54(4) . . .
54(4) . . .
53(4) . . .
62(4) . . .
65(4) . . .
55(4) . . .
60(4) . . .
55(4) . . .
58(4) . . .
57(4) . . .
56(4) . . .
59(4) . . .
56(4) . . .
56(4) . . .
61(4) . . .
56(4) . . .
62(4) . . .
60(4) . . .
53(4) . . .
61(4) . . .
58(4) . . .
60(4) . . .
50(4) . . .
66(4) . . .
63(4) . . .
70(5) . . .
66(4) . . .
62(4) . . .
55(4) . . .
58(4) . . .
55(4) . . .
58(4) . . .
60(4) . . .
58(4) . . .
69(4) . . .
63(4) . . .
59(4) . . .
55(4) . . .
49(4) . . .
51(4) . . .
58(4) . . .
63(4) . . .
68(4) . . .
66(4) . . .
67(4) . . .
67(4) . . .
64(4) . . .
62(4) . . .
63(4) . . .
59(4) . . .
56(4) . . .
52(4) . . .
71(4) . . .
59(4) . . .
59(4) . . .
63(4) . . .
51(4) . . .
56(4) . . .
50(4) . . .
68(5) . . .
59(4) . . .
61(4) . . .
61(4) . . .
63(4) . . .
58(4) . . .
56(4) . . .
59(4) . . .
58(4) . . .
66(4) . . .
66(5) . . .
60(4) . . .
58(4) . . .
60(4) . . .
57(4) . . .
60(4) . . .
61(4) . . .
67(4) . . .
58(4) . . .
61(4) . . .
64(5) . . .
64(4) . . .
70(4) . . .
70(4) . . .
72(5) . . .
66(4) . . .
67(4) . . .
52(4) . . .
71(4) . . .
51(4) . . .
58(4) . . .
58(4) . . .
60(4) . . .
62(4) . . .
62(4) . . .
67(4) . . .
54(4) . . .
55(4) . . .
59(4) . . .
65(4) . . .
51(4) . . .
63(4) . . .
53(4) . . .
54(4) . . .
52(4) . . .
60(4) . . .
53(4) . . .
62(4) . . .
58(4) . . .
48.1(35) . . .
59(4) . . .
60(4) . . .
59(4) . . .
55(4) . . .
56(4) . . .
62(4) . . .
60(4) . . .
70(4) . . .
59(4) . . .
55(4) . . .
69(4) . . .
74(4) . . .
62(4) . . .
65(4) . . .
59(4) . . .
60(4) . . .
64(4) . . .
66(4) . . .
61(4) . . .
58(4) . . .
59(4) . . .
50(4) . . .
65(4) . . .
54(4) . . .
50(4) . . .
58(4) . . .
59(4) . . .
61(4) . . .
63(5) . . .
71(5) . . .
71(5) . . .
56(4) . . .
52(4) . . .
62(4) . . .
55(4) . . .
53(4) . . .
59(4) . . .
61(4) . . .
63(4) . . .
68(4) . . .
62(4) . . .
53(4) . . .
56(4) . . .
53(4) . . .
66(5) . . .
70(4) . . .
63(4) . . .
61(4) . . .
61(4) . . .
55(4) . . .
69(4) . . .
61(4) . . .
65(5) . . .
53(4) . . .
58(4) . . .
60(4) . . .
62(4) . . .
59(4) . . .
59(4) . . .
57(4) . . .
62(4) . . .
54(4) . . .
61(4) . . .
53(4) . . .
58(4) . . .
67(4) . . .
58(4) . . .
58(4) . . .
60(4) . . .
61(4) . . .
50(4) . . .
63(4) . . .
55(4) . . .
58(4) . . .
60(4) . . .
58(4) . . .
56(4) . . .
59(4) . . .
52(4) . . .
59(4) . . .
69(4) . . .
69(5) . . .
57(4) . . .
63(4) . . .
58(4) . . .
54(4) . . .
52(4) . . .
61(4) . . .
51(4) . . .
56(4) . . .
59(4) . . .
61(4) . . .
64(4) . . .
68(5) . . .
61(4) . . .
57(4) . . .
57(4) . . .
58(4) . . .
63(4) . . .
63(4) . . .
64(4) . . .
63(4) . . .
54(4) . . .
57(4) . . .
54(4) . . .
59(4) . . .
61(4) . . .
51(4) . . .
61(4) . . .
62(4) . . .
66(4) . . .
61(4) . . .
61(5) . . .
57(4) . . .
64(4) . . .
67(4) . . .
66(5) . . .
65(5) . . .
53(4) . . .
59(4) . . .
58(4) . . .
52(4) . . .
61(4) . . .
60(4) . . .
50(4) . . .
55(4) . . .
53(4) . . .
52(4) . . .
51(4) . . .
44.2(35) . . .
51(4) . . .
60(4) . . .
64(4) . . .
59(4) . . .
53(4) . . .
61(4) . . .
72(5) . . .
54(4) . . .
55(4) . . .
55(4) . . .
64(4) . . .
71(5) . . .
62(4) . . .
66(4) . . .
61(4) . . .
60(4) . . .
58(4) . . .
58(4) . . .
57(4) . . .
60(4) . . .
54(4) . . .
47(4) . . .
61(4) . . .
64(4) . . .
71(4) . . .
56(4) . . .
51(4) . . .
51(4) . . .
52(4) . . .
62(4) . . .
50(4) . . .
60(4) . . .
47(4) . . .
61(4) . . .
65(4) . . .
56(4) . . .
72(5) . . .
71(5) . . .
47(4) . . .
65(4) . . .
53(4) . . .
59(4) . . .
70(5) . . .
61(4) . . .
54(4) . . .
60(4) . . .
57(4) . . .
62(4) . . .
70(4) . . .
48(4) . . .
56(4) . . .
50(4) . . .
68(5) . . .
56(4) . . .
66(4) . . .
53(4) . . .
56(4) . . .
56(4) . . .
59(4) . . .
50(4) . . .
62(4) . . .
59(4) . . .
65(4) . . .
66(4) . . .
66(4) . . .
69(5) . . .
58(4) . . .
60(4) . . .
58(4) . . .
58(4) . . .
56(4) . . .
48(4) . . .
59(4) . . .
54(4) . . .
64(4) . . .
60(4) . . .
54(4) . . .
64(4) . . .
53(4) . . .
66(4) . . .
65(4) . . .
54(4) . . .
57(4) . . .
54(4) . . .
72(5) . . .
58(4) . . .
54(4) . . .
55(4) . . .
60(4) . . .
58(4) . . .
57(4) . . .
57(4) . . .
57(4) . . .
50(4) . . .
58(4) . . .
55(4) . . .
54(4) . . .
56(4) . . .
54(4) . . .
68(5) . . .
55(4) . . .
53(4) . . .
55(4) . . .
62(4) . . .
61(4) . . .
68(5) . . .
55(4) . . .
68(4) . . .
56(4) . . .
64(5) . . .
64(4) . . .
60(4) . . .
51(4) . . .
62(4) . . .
75(5) . . .
64(4) . . .
60(4) . . .
57(4) . . .
58(4) . . .
62(4) . . .
66(5) . . .
61(4) . . .
62(4) . . .
58(4) . . .
57(4) . . .
64(4) . . .
70(4) . . .
71(4) . . .
69(4) . . .
56(4) . . .
52(4) . . .
53(4) . . .
64(4) . . .
54(4) . . .
66(5) . . .
57(4) . . .
51(4) . . .
49(4) . . .
60(4) . . .
50(4) . . .
70(5) . . .
53(4) . . .
57(4) . . .
58(4) . . .
56(4) . . .
47(4) . . .
58(4) . . .
59(4) . . .
60(4) . . .
60(4) . . .
54(4) . . .
56(4) . . .
52(4) . . .
61(4) . . .
53(4) . . .
56(4) . . .
52(4) . . .
55(4) . . .
59(4) . . .
53(4) . . .
59(4) . . .
65(4) . . .
60(4) . . .
63(4) . . .
65(4) . . .
45(4) . . .
58(4) . . .
65(5) . . .
53(4) . . .
64(4) . . .
59(4) . . .
67(4) . . .
56(4) . . .
59(4) . . .
57(4) . . .
62(4) . . .
55(4) . . .
62(4) . . .
66(5) . . .
59(4) . . .
53(4) . . .
59(4) . . .
65(4) . . .
72(5) . . .
54(4) . . .
61(4) . . .
66(4) . . .
59(4) . . .
64(4) . . .
63(4) . . .
63(4) . . .
62(4) . . .
66(4) . . .
63(4) . . .
63(4) . . .
65(4) . . .
61(4) . . .
59(4) . . .
58(4) . . .
67(4) . . .
57(4) . . .
47(4) . . .
62(4) . . .
56(4) . . .
55(4) . . .
59(4) . . .
60(4) . . .
60(4) . . .
52(4) . . .
56(4) . . .
45(4) . . .
57(4) . . .
66(5) . . .
61(4) . . .
57(4) . . .
64(4) . . .
60(4) . . .
59(4) . . .
52(4) . . .
56(4) . . .
66(4) . . .
61(4) . . .
59(4) . . .
61(4) . . .
49(4) . . .
65(4) . . .
59(4) . . .
60(4) . . .
61(4) . . .
61(4) . . .
59(4) . . .
65(4) . . .
68(5) . . .
51(4) . . .
56(4) . . .
56(4) . . .
71(5) . . .
72(5) . . .
59(4) . . .
68(4) . . .
53(4) . . .
59(4) . . .
60(4) . . .
52(4) . . .
52(4) . . .
46(4) . . .
62(4) . . .
64(4) . . .
64(4) . . .
59(4) . . .
67(4) . . .
57(4) . . .
54(4) . . .
61(4) . . .
57(4) . . .
58(4) . . .
59(4) . . .
51(4) . . .
69(4) . . .
58(4) . . .
63(4) . . .
49(4) . . .
57(4) . . .
59(4) . . .
67(4) . . .
51(4) . . .
56(4) . . .
50(4) . . .
53(4) . . .
59(4) . . .
58(4) . . .
47(4) . . .
49(4) . . .
62(4) . . .
60(4) . . .
59(4) . . .
53(4) . . .
63(5) . . .
62(4) . . .
64(4) . . .
65(5) . . .
58(4) . . .
61(4) . . .
39.8(34) . . .
55(4) . . .
52(4) . . .
48(4) . . .
58(4) . . .
62(4) . . .
56(4) . . .
53(4) . . .
63(4) . . .
67(5) . . .
59(4) . . .
64(4) . . .
54(4) . . .
57(4) . . .
59(4) . . .
61(4) . . .
59(4) . . .
63(4) . . .
59(4) . . .
57(4) . . .
61(4) . . .
62(4) . . .
60(4) . . .
57(4) . . .
62(4) . . .
54(4) . . .
55(4) . . .
69(5) . . .
68(4) . . .
70(4) . . .
62(4) . . .
58(4) . . .
60(4) . . .
70(5) . . .
61(4) . . .
63(4) . . .
66(4) . . .
59(4) . . .
58(4) . . .
63(4) . . .
48(4) . . .
63(4) . . .
67(5) . . .
58(4) . . .
60(4) . . .
65(4) . . .
65(5) . . .
49(4) . . .
67(4) . . .
68(4) . . .
61(4) . . .
55(4) . . .
61(4) . . .
57(4) . . .
56(4) . . .
56(4) . . .
58(4) . . .
59(4) . . .
53(4) . . .
58(4) . . .
63(4) . . .
49(4) . . .
58(4) . . .
60(4) . . .
52(4) . . .
58(4) . . .
53(4) . . .
57(4) . . .
61(4) . . .
47(4) . . .
60(4) . . .
61(4) . . .
55(4) . . .
59(4) . . .
58(4) . . .
55(4) . . .
52(4) . . .
66(4) . . .
77(5) . . .
65(4) . . .
67(4) . . .
57(4) . . .
63(5) . . .
52(4) . . .
51(4) . . .
49(4) . . .
60(4) . . .
54(4) . . .
63(4) . . .
62(4) . . .
60(4) . . .
48(4) . . .
53(4) . . .
54(4) . . .
58(4) . . .
63(4) . . .
60(4) . . .
64(4) . . .
54(4) . . .
69(4) . . .
56(4) . . .
62(5) . . .
49(4) . . .
47(4) . . .
54(4) . . .
59(4) . . .
63(4) . . .
68(5) . . .
58(4) . . .
57(4) . . .
53(4) . . .
59(4) . . .
54(4) . . .
59(4) . . .
61(4) . . .
63(5) . . .
58(4) . . .
56(4) . . .
59(4) . . .
57(4) . . .
53(4) . . .
55(4) . . .
59(4) . . .
63(4) . . .
65(4) . . .
57(4) . . .
60(4) . . .
55(4) . . .
64(4) . . .
63(4) . . .
58(4) . . .
62(4) . . .
61(4) . . .
64(4) . . .
54(4) . . .
65(4) . . .
55(4) . . .
57(4) . . .
58(4) . . .
56(4) . . .
57(4) . . .
76(5) . . .
60(4) . . .
66(4) . . .
59(4) . . .
58(4) . . .
55(4) . . .
62(4) . . .
65(4) . . .
68(5) . . .
61(4) . . .
64(4) . . .
63(4) . . .
59(4) . . .
56(4) . . .
59(4) . . .
76(5) . . .
63(4) . . .
50(4) . . .
49(4) . . .
50(4) . . .
59(4) . . .
54(4) . . .
68(4) . . .
62(5) . . .
51(4) . . .
54(4) . . .
54(4) . . .
54(4) . . .
62(4) . . .
60(4) . . .
54(4) . . .
63(4) . . .
62(4) . . .
55(4) . . .
61(4) . . .
56(4) . . .
53(4) . . .
55(4) . . .
62(4) . . .
57(4) . . .
58(4) . . .
63(4) . . .
57(4) . . .
58(4) . . .
55(4) . . .
59(4) . . .
49(4) . . .
47(4) . . .
65(4) . . .
61(4) . . .
51(4) . . .
68(4) . . .
68(4) . . .
62(5) . . .
55(4) . . .
60(4) . . .
58(4) . . .
60(4) . . .
53(4) . . .
60(4) . . .
58(4) . . .
56(4) . . .
53(4) . . .
54(4) . . .
56(4) . . .
63(4) . . .
62(4) . . .
59(4) . . .
54(4) . . .
53(4) . . .
56(4) . . .
72(5) . . .
55(4) . . .
57(4) . . .
57(4) . . .
57(4) . . .
59(4) . . .
61(4) . . .
49(4) . . .
52(4) . . .
57(4) . . .
61(4) . . .
55(4) . . .
52(4) . . .
61(4) . . .
56(4) . . .
60(4) . . .
66(4) . . .
61(4) . . .
70(5) . . .
64(4) . . .
54(4) . . .
57(4) . . .
53(4) . . .
58(4) . . .
72(5) . . .
58(4) . . .
64(4) . . .
56(4) . . .
65(4) . . .
66(4) . . .
71(5) . . .
51(4) . . .
56(4) . . .
56(4) . . .
57(4) . . .
72(5) . . .
56(4) . . .
54(4) . . .
58(4) . . .
52(4) . . .
61(4) . . .
53(4) . . .
53(4) . . .
46(4) . . .
52(4) . . .
60(4) . . .
52(4) . . .
52(4) . . .
52(4) . . .
58(4) . . .
57(4) . . .
45(4) . . .
52(4) . . .
52(4) . . .
64(4) . . .
56(4) . . .
60(4) . . .
60(4) . . .
52(4) . . .
58(4) . . .
59(4) . . .
50(4) . . .
60(4) . . .
74(4) . . .
64(4) . . .
57(4) . . .
60(4) . . .
54(4) . . .
57(4) . . .
43.5(35) . . .
62(4) . . .
46(4) . . .
59(4) . . .
62(4) . . .
69(4) . . .
52(4) . . .
52(4) . . .
50(4) . . .
56(4) . . .
57(4) . . .
54(4) . . .
56(4) . . .
54(4) . . .
54(4) . . .
57(4) . . .
67(4) . . .
60(4) . . .
56(4) . . .
49(4) . . .
60(4) . . .
62(4) . . .
46(4) . . .
61(4) . . .
63(4) . . .
55(4) . . .
45(4) . . .
57(4) . . .
56(4) . . .
48(4) . . .
55(4) . . .
49(4) . . .
52(4) . . .
59(4) . . .
60(4) . . .
51(4) . . .
51(4) . . .
51(4) . . .
58(4) . . .
59(4) . . .
51(4) . . .
57(4) . . .
61(4) . . .
60(4) . . .
57(4) . . .
56(4) . . .
62(4) . . .
53(4) . . .
45(4) . . .
62(4) . . .
59(4) . . .
51(4) . . .
57(4) . . .
60(5) . . .
58(4) . . .
57(4) . . .
53(4) . . .
56(4) . . .
65(5) . . .
59(4) . . .
47(4) . . .
65(4) . . .
55(4) . . .
59(4) . . .
62(4) . . .
65(4) . . .
63(4) . . .
61(4) . . .
64(5) . . .
65(4) . . .
64(4) . . .
62(4) . . .
49(4) . . .
52(4) . . .
57(4) . . .
53(4) . . .
61(4) . . .
53(4) . . .
50(4) . . .
55(4) . . .
50(4) . . .
49(4) . . .
59(4) . . .
58(4) . . .
65(5) . . .
54(4) . . .
59(4) . . .
66(4) . . .
56(4) . . .
51(4) . . .
44.5(35) . . .
49(4) . . .
68(5) . . .
60(4) . . .
47(4) . . .
61(4) . . .
53(4) . . .
59(4) . . .
57(4) . . .
64(4) . . .
45(4) . . .
57(4) . . .
64(4) . . .
54(4) . . .
56(4) . . .
58(4) . . .
51(4) . . .
67(5) . . .
52(4) . . .
55(4) . . .
63(4) . . .
49(4) . . .
61(5) . . .
56(4) . . .
55(4) . . .
60(4) . . .
54(4) . . .
61(4) . . .
51(4) . . .
58(4) . . .
54(4) . . .
53(4) . . .
58(4) . . .
50(4) . . .
47(4) . . .
52(4) . . .
55(4) . . .
60(4) . . .
65(4) . . .
62(4) . . .
59(4) . . .
58(4) . . .
50(4) . . .
48(4) . . .
56(4) . . .
56(4) . . .
57(4) . . .
62(4) . . .
69(5) . . .
58(4) . . .
54(4) . . .
63(4) . . .
60(4) . . .
64(4) . . .
62(4) . . .
56(4) . . .
46.2(35) . . .
53(4) . . .
54(4) . . .
52(4) . . .
55(4) . . .
59(4) . . .
65(4) . . .
61(4) . . .
54(4) . . .
56(4) . . .
55(4) . . .
47.7(35) . . .
62(4) . . .
70(4) . . .
57(4) . . .
62(4) . . .
49(4) . . .
47(4) . . .
59(4) . . .
56(4) . . .
52(4) . . .
52(4) . . .
69(4) . . .
63(4) . . .
56(4) . . .
50(4) . . .
45(4) . . .
61(4) . . .
63(4) . . .
55(4) . . .
57(4) . . .
56(4) . . .
47(4) . . .
53(4) . . .
54(4) . . .
55(4) . . .
53(4) . . .
62(4) . . .
66(4) . . .
64(4) . . .
63(4) . . .
55(4) . . .
63(4) . . .
58(4) . . .
54(4) . . .
54(4) . . .
43(4) . . .
63(4) . . .
65(4) . . .
60(4) . . .
68(5) . . .
62(4) . . .
60(4) . . .
67(5) . . .
60(5) . . .
62(4) . . .
55(4) . . .
61(4) . . .
52(4) . . .
66(5) . . .
52(4) . . .
59(4) . . .
63(4) . . .
51(4) . . .
55(4) . . .
52(4) . . .
57(4) . . .
55(4) . . .
74(5) . . .
57(4) . . .
55(4) . . .
68(4) . . .
59(4) . . .
46(4) . . .
54(4) . . .
68(5) . . .
64(4) . . .
60(4) . . .
54(4) . . .
53(4) . . .
48(4) . . .
59(4) . . .
55(4) . . .
59(4) . . .
56(4) . . .
62(4) . . .
55(4) . . .
63(4) . . .
67(5) . . .
47(4) . . .
60(4) . . .
56(4) . . .
48(4) . . .
52(4) . . .
67(4) . . .
67(4) . . .
56(4) . . .
41.6(33) . . .
52(4) . . .
57(4) . . .
49(4) . . .
59(4) . . .
59(4) . . .
55(4) . . .
52(4) . . .
57(4) . . .
58(4) . . .
55(4) . . .
61(4) . . .
61(4) . . .
62(4) . . .
62(4) . . .
74(5) . . .
61(4) . . .
66(4) . . .
62(4) . . .
49(4) . . .
57(4) . . .
58(4) . . .
55(4) . . .
54(4) . . .
50(4) . . .
61(4) . . .
54(4) . . .
48(4) . . .
55(4) . . .
67(4) . . .
63(4) . . .
55(4) . . .
69(5) . . .
70(4) . . .
66(4) . . .
44.8(35) . . .
44.0(34) . . .
50(4) . . .
51(4) . . .
58(4) . . .
64(4) . . .
72(5) . . .
62(4) . . .
67(4) . . .
59(4) . . .
51(4) . . .
48(4) . . .
59(4) . . .
60(4) . . .
52(4) . . .
53(4) . . .
62(4) . . .
60(4) . . .
75(4) . . .
65(4) . . .
56(4) . . .
51(4) . . .
49(4) . . .
56(4) . . .
55(4) . . .
57(4) . . .
52(4) . . .
53(4) . . .
65(4) . . .
60(4) . . .
54(4) . . .
53(4) . . .
62(4) . . .
67(4) . . .
64(4) . . .
57(4) . . .
52(4) . . .
54(4) . . .
57(4) . . .
51(4) . . .
56(4) . . .
62(4) . . .
53(4) . . .
56(4) . . .
62(4) . . .
50(4) . . .
63(4) . . .
61(4) . . .
64(4) . . .
53(4) . . .
54(4) . . .
52(4) . . .
64(4) . . .
57(4) . . .
55(4) . . .
60(4) . . .
61(4) . . .
44.7(35) . . .
58(4) . . .
63(4) . . .
55(4) . . .
50(4) . . .
51(4) . . .
58(4) . . .
64(4) . . .
57(4) . . .
56(4) . . .
58(4) . . .
56(4) . . .
60(4) . . .
49(4) . . .
57(4) . . .
61(4) . . .
58(4) . . .
47(4) . . .
57(4) . . .
59(4) . . .
48(4) . . .
61(4) . . .
59(4) . . .
59(4) . . .
56(4) . . .
53(4) . . .
52(4) . . .
63(4) . . .
55(4) . . .
46.3(35) . . .
52(4) . . .
62(4) . . .
59(4) . . .
56(4) . . .
54(4) . . .
63(4) . . .
60(4) . . .
61(4) . . .
60(4) . . .
63(4) . . .
63(4) . . .
45.6(35) . . .
59(4) . . .
56(4) . . .
57(4) . . .
55(4) . . .
55(4) . . .
67(4) . . .
59(4) . . .
59(4) . . .
53(4) . . .
56(4) . . .
59(4) . . .
63(5) . . .
59(4) . . .
53(4) . . .
46(4) . . .
55(4) . . .
61(4) . . .
53(4) . . .
54(4) . . .
54(4) . . .
50(4) . . .
55(4) . . .
62(4) . . .
55(4) . . .
48(4) . . .
51(4) . . .
61(4) . . .
62(4) . . .
59(4) . . .
67(4) . . .
59(4) . . .
66(4) . . .
62(4) . . .
48(4) . . .
57(4) . . .
58(4) . . .
58(4) . . .
64(4) . . .
58(4) . . .
56(4) . . .
55(4) . . .
60(4) . . .
51(4) . . .
53(4) . . .
62(4) . . .
63(4) . . .
48(4) . . .
51(4) . . .
55(4) . . .
53(4) . . .
55(4) . . .
49(4) . . .
52(4) . . .
55(4) . . .
59(4) . . .
63(4) . . .
55(4) . . .
50(4) . . .
48(4) . . .
59(4) . . .
67(4) . . .
55(4) . . .
50(4) . . .
52(4) . . .
65(4) . . .
54(4) . . .
56(4) . . .
53(4) . . .
57(4) . . .
56(4) . . .
56(4) . . .
59(4) . . .
58(4) . . .
63(5) . . .
54(4) . . .
63(4) . . .
73(4) . . .
64(4) . . .
59(4) . . .
68(5) . . .
65(4) . . .
54(4) . . .
51(4) . . .
54(4) . . .
58(4) . . .
56(4) . . .
45(4) . . .
64(4) . . .
52(4) . . .
47(4) . . .
50(4) . . .
55(4) . . .
56(4) . . .
67(5) . . .
53(4) . . .
51(4) . . .
61(4) . . .
56(4) . . .
54(4) . . .
58(4) . . .
48(4) . . .
59(4) . . .
49(4) . . .
51(4) . . .
40.2(34) . . .
57(4) . . .
59(4) . . .
59(4) . . .
64(5) . . .
52(4) . . .
49(4) . . .
55(4) . . .
61(4) . . .
56(4) . . .
58(4) . . .
52(4) . . .
55(4) . . .
65(5) . . .
59(4) . . .
48(4) . . .
55(4) . . .
50(4) . . .
53(4) . . .
51(4) . . .
55(4) . . .
58(4) . . .
56(4) . . .
51(4) . . .
66(5) . . .
63(4) . . .
63(4) . . .
55(4) . . .
56(4) . . .
55(4) . . .
72(4) . . .
53(4) . . .
64(4) . . .
57(4) . . .
53(4) . . .
62(4) . . .
53(4) . . .
49(4) . . .
58(4) . . .
59(4) . . .
58(4) . . .
52(4) . . .
54(4) . . .
60(4) . . .
58(4) . . .
58(4) . . .
59(4) . . .
54(4) . . .
57(4) . . .
64(4) . . .
58(4) . . .
44(4) . . .
47(4) . . .
57(4) . . .
50(4) . . .
54(4) . . .
47(4) . . .
61(4) . . .
65(4) . . .
51(4) . . .
56(4) . . .
57(4) . . .
61(4) . . .
53(4) . . .
62(4) . . .
48(4) . . .
60(4) . . .
60(4) . . .
53(4) . . .
53(4) . . .
52(4) . . .
62(4) . . .
51(4) . . .
52(4) . . .
52(4) . . .
51(4) . . .
59(4) . . .
60(4) . . .
60(4) . . .
52(4) . . .
52(4) . . .
56(4) . . .
59(4) . . .
62(4) . . .
62(4) . . .
57(4) . . .
53(4) . . .
53(4) . . .
55(4) . . .
60(4) . . .
52(4) . . .
48(4) . . .
49(4) . . .
59(4) . . .
65(4) . . .
62(4) . . .
50(4) . . .
43.6(35) . . .
61(4) . . .
61(4) . . .
54(4) . . .
55(4) . . .
50(4) . . .
52(4) . . .
52(4) . . .
51(4) . . .
57(4) . . .
56(4) . . .
50(4) . . .
54(4) . . .
61(4) . . .
64(4) . . .
57(4) . . .
55(4) . . .
56(4) . . .
48(4) . . .
50(4) . . .
48(4) . . .
63(4) . . .
57(4) . . .
58(4) . . .
57(4) . . .
60(4) . . .
55(4) . . .
65(4) . . .
57(4) . . .
63(4) . . .
56(4) . . .
62(4) . . .
52(4) . . .
52(4) . . .
59(4) . . .
54(4) . . .
58(4) . . .
47(4) . . .
49(4) . . .
47(4) . . .
43.2(35) . . .
50(4) . . .
52(4) . . .
49(4) . . .
50(4) . . .
46(4) . . .
53(4) . . .
56(4) . . .
57(4) . . .
58(4) . . .
59(4) . . .
58(4) . . .
55(4) . . .
55(4) . . .
51(4) . . .
51(4) . . .
46(4) . . .
57(4) . . .
45.1(35) . . .
52(4) . . .
54(4) . . .
53(4) . . .
60(4) . . .
63(4) . . .
63(4) . . .
59(4) . . .
66(4) . . .
67(4) . . .
54(4) . . .
56(4) . . .
52(4) . . .
60(4) . . .
59(4) . . .
50(4) . . .
50(4) . . .
62(4) . . .
52(4) . . .
53(4) . . .
50(4) . . .
56(4) . . .
49(4) . . .
59(4) . . .
53(4) . . .
42(4) . . .
54(4) . . .
54(4) . . .
57(4) . . .
53(4) . . .
63(4) . . .
60(4) . . .
44.8(34) . . .
54(4) . . .
49(4) . . .
49(4) . . .
58(4) . . .
54(4) . . .
56(4) . . .
63(4) . . .
56(4) . . .
63(4) . . .
54(4) . . .
62(4) . . .
50(4) . . .
54(4) . . .
56(4) . . .
61(4) . . .
57(4) . . .
61(4) . . .
47(4) . . .
60(4) . . .
67(4) . . .
68(4) . . .
58(4) . . .
64(4) . . .
68(4) . . .
51(4) . . .
61(4) . . .
52(4) . . .
49(4) . . .
59(4) . . .
51(4) . . .
54(4) . . .
58(4) . . .
48(4) . . .
56(4) . . .
57(4) . . .
52(4) . . .
46(4) . . .
50(4) . . .
52(4) . . .
62(4) . . .
57(4) . . .
55(4) . . .
61(4) . . .
51(4) . . .
43.6(35) . . .
43(4) . . .
43(4) . . .
66(5) . . .
60(4) . . .
50(4) . . .
53(4) . . .
45(4) . . .
57(4) . . .
45.0(34) . . .
56(4) . . .
53(4) . . .
50(4) . . .
49(4) . . .
56(4) . . .
66(4) . . .
60(4) . . .
62(4) . . .
66(4) . . .
60(4) . . .
54(4) . . .
46(4) . . .
53(4) . . .
56(4) . . .
51(4) . . .
54(4) . . .
46(4) . . .
55(4) . . .
54(4) . . .
46(4) . . .
60(4) . . .
53(4) . . .
50(4) . . .
42.7(34) . . .
55(4) . . .
52(4) . . .
55(4) . . .
63(4) . . .
72(5) . . .
52(4) . . .
51(4) . . .
49(4) . . .
45(4) . . .
46(4) . . .
51(4) . . .
64(4) . . .
55(4) . . .
57(4) . . .
56(4) . . .
60(4) . . .
55(4) . . .
58(4) . . .
60(4) . . .
53(4) . . .
41.5(33) . . .
63(4) . . .
60(4) . . .
57(4) . . .
56(4) . . .
58(4) . . .
62(4) . . .
49(4) . . .
50(4) . . .
63(4) . . .
65(4) . . .
46(4) . . .
43(4) . . .
57(4) . . .
56(4) . . .
63(4) . . .
59(4) . . .
57(4) . . .
57(4) . . .
54(4) . . .
58(4) . . .
59(4) . . .
58(4) . . .
63(4) . . .
52(4) . . .
58(4) . . .
53(4) . . .
53(4) . . .
48(4) . . .
60(4) . . .
59(4) . . .
66(4) . . .
63(4) . . .
63(4) . . .
58(4) . . .
63(4) . . .
49(4) . . .
55(4) . . .
49(4) . . .
57(4) . . .
58(4) . . .
51(4) . . .
63(4) . . .
62(4) . . .
48(4) . . .
63(5) . . .
47(4) . . .
58(4) . . .
56(4) . . .
63(4) . . .
51(4) . . .
51(4) . . .
43.3(34) . . .
49(4) . . .
47(4) . . .
64(4) . . .
54(4) . . .
59(4) . . .
43.1(34) . . .
67(4) . . .
61(4) . . .
54(4) . . .
58(4) . . .
47(4) . . .
60(4) . . .
55(4) . . .
61(4) . . .
56(4) . . .
59(4) . . .
54(4) . . .
40(4) . . .
45(4) . . .
55(4) . . .
52(4) . . .
52(4) . . .
52(4) . . .
45(4) . . .
64(4) . . .
63(4) . . .
53(4) . . .
46(4) . . .
53(4) . . .
59(4) . . .
57(4) . . .
49(4) . . .
44.8(34) . . .
54(4) . . .
47(4) . . .
59(4) . . .
48(4) . . .
53(4) . . .
50(4) . . .
53(4) . . .
59(4) . . .
54(4) . . .
57(4) . . .
55(4) . . .
53(4) . . .
56(4) . . .
56(4) . . .
57(4) . . .
46(4) . . .
51(4) . . .
46(4) . . .
50(4) . . .
52(4) . . .
53(4) . . .
59(4) . . .
51(4) . . .
49(4) . . .
56(4) . . .
49(4) . . .
42.4(34) . . .
54(4) . . .
60(4) . . .
64(4) . . .
60(4) . . .
62(4) . . .
49(4) . . .
57(4) . . .
55(4) . . .
58(4) . . .
57(4) . . .
59(4) . . .
47.4(35) . . .
58(4) . . .
51(4) . . .
56(4) . . .
46(4) . . .
57(4) . . .
51(4) . . .
56(4) . . .
54(4) . . .
52(4) . . .
59(4) . . .
56(4) . . .
71(5) . . .
49(4) . . .
53(4) . . .
52(4) . . .
59(4) . . .
43.3(35) . . .
49(4) . . .
52(4) . . .
60(4) . . .
61(4) . . .
51(4) . . .
54(4) . . .
55(4) . . .
62(5) . . .
52(4) . . .
64(4) . . .
51(4) . . .
57(4) . . .
48(4) . . .
50(4) . . .
49(4) . . .
55(4) . . .
61(4) . . .
57(4) . . .
52(4) . . .
62(4) . . .
57(4) . . .
60(4) . . .
53(4) . . .
50(4) . . .
61(4) . . .
59(4) . . .
48(4) . . .
54(4) . . .
58(4) . . .
54(4) . . .
47(4) . . .
50(4) . . .
50(4) . . .
53(4) . . .
43.5(34) . . .
54(4) . . .
52(4) . . .
47(4) . . .
57(4) . . .
59(4) . . .
52(4) . . .
48(4) . . .
52(4) . . .
52(4) . . .
48(4) . . .
49(4) . . .
49(4) . . .
40.1(34) . . .
56(4) . . .
48(4) . . .
46(4) . . .
53(4) . . .
59(4) . . .
51(4) . . .
57(4) . . .
60(4) . . .
50(4) . . .
53(4) . . .
57(4) . . .
57(4) . . .
36.3(32) . . .
51(4) . . .
60(4) . . .
51(4) . . .
62(4) . . .
43.1(34) . . .
46(4) . . .
60(4) . . .
57(4) . . .
57(4) . . .
55(4) . . .
54(4) . . .
53(4) . . .
49(4) . . .
56(4) . . .
56(4) . . .
58(4) . . .
49(4) . . .
51(4) . . .
56(4) . . .
55(4) . . .
47(4) . . .
53(4) . . .
54(4) . . .
43.9(34) . . .
50(4) . . .
45(4) . . .
61(4) . . .
57(4) . . .
51(4) . . .
54(4) . . .
62(4) . . .
54(4) . . .
49(4) . . .
56(4) . . .
60(4) . . .
41.5(33) . . .
62(4) . . .
56(4) . . .
56(4) . . .
56(4) . . .
63(4) . . .
54(4) . . .
45.7(35) . . .
46(4) . . .
61(4) . . .
57(4) . . .
49(4) . . .
54(4) . . .
54(4) . . .
47(4) . . .
57(4) . . .
54(4) . . .
59(4) . . .
59(4) . . .
54(4) . . .
54(4) . . .
46(4) . . .
53(4) . . .
56(4) . . .
57(4) . . .
51(4) . . .
53(4) . . .
42.4(34) . . .
56(4) . . .
57(4) . . .
59(4) . . .
58(4) . . .
59(4) . . .
59(4) . . .
44(4) . . .
55(4) . . .
57(4) . . .
50(4) . . .
63(4) . . .
58(4) . . .
46(4) . . .
45(4) . . .
49(4) . . .
57(4) . . .
57(4) . . .
45(4) . . .
51(4) . . .
42.1(35) . . .
63(4) . . .
58(4) . . .
57(4) . . .
50(4) . . .
51(4) . . .
57(4) . . .
51(4) . . .
51(4) . . .
58(4) . . .
44(4) . . .
54(4) . . .
57(4) . . .
56(4) . . .
53(4) . . .
54(4) . . .
64(4) . . .
51(4) . . .
55(4) . . .
47(4) . . .
45(4) . . .
49(4) . . .
48(4) . . .
50(4) . . .
55(4) . . .
55(4) . . .
54(4) . . .
49(4) . . .
50(4) . . .
52(4) . . .
55(4) . . .
54(4) . . .
51(4) . . .
56(4) . . .
58(4) . . .
57(4) . . .
53(4) . . .
53(4) . . .
57(4) . . .
50(4) . . .
40.8(35) . . .
46(4) . . .
55(4) . . .
51(4) . . .
56(4) . . .
54(4) . . .
64(4) . . .
48(4) . . .
52(4) . . .
48(4) . . .
53(4) . . .
57(4) . . .
59(4) . . .
58(4) . . .
59(4) . . .
57(4) . . .
53(4) . . .
55(4) . . .
56(4) . . .
47(4) . . .
49(4) . . .
59(4) . . .
51(4) . . .
55(4) . . .
47(4) . . .
53(4) . . .
42.2(35) . . .
50(4) . . .
62(4) . . .
49(4) . . .
44(4) . . .
51(4) . . .
54(4) . . .
45.3(35) . . .
40.6(34) . . .
60(4) . . .
63(4) . . .
43.5(35) . . .
48(4) . . .
63(4) . . .
60(4) . . .
53(4) . . .
54(4) . . .
52(4) . . .
56(4) . . .
44.6(34) . . .
56(4) . . .
58(4) . . .
63(4) . . .
54(4) . . .
60(4) . . .
45(4) . . .
56(4) . . .
52(4) . . .
59(4) . . .
55(4) . . .
47(4) . . .
52(4) . . .
56(4) . . .
52(4) . . .
45(4) . . .
41.1(34) . . .
48(4) . . .
66(4) . . .
60(4) . . .
55(4) . . .
50(4) . . .
58(4) . . .
64(5) . . .
56(4) . . .
47(4) . . .
59(4) . . .
50(4) . . .
48(4) . . .
44(4) . . .
50(4) . . .
46.0(35) . . .
48(4) . . .
50(4) . . .
53(4) . . .
47(4) . . .
57(4) . . .
46(4) . . .
50(4) . . .
57(4) . . .
50(4) . . .
62(4) . . .
50(4) . . .
45(4) . . .
46(4) . . .
57(4) . . .
51(4) . . .
49(4) . . .
49(4) . . .
47(4) . . .
39.2(33) . . .
52(4) . . .
51(4) . . .
44(4) . . .
49(4) . . .
57(4) . . .
45(4) . . .
53(4) . . .
50(4) . . .
47(4) . . .
52(4) . . .
49(4) . . .
56(4) . . .
51(4) . . .
54(4) . . .
49(4) . . .
50(4) . . .
54(4) . . .
55(4) . . .
53(4) . . .
62(4) . . .
50(4) . . .
53(4) . . .
54(4) . . .
52(4) . . .
47(4) . . .
51(4) . . .
52(4) . . .
47(4) . . .
50(4) . . .
40.9(34) . . .
51(4) . . .
58(4) . . .
70(5) . . .
58(4) . . .
52(4) . . .
51(4) . . .
53(4) . . .
46(4) . . .
52(4) . . .
56(4) . . .
49(4) . . .
52(4) . . .
63(4) . . .
55(4) . . .
54(4) . . .
46(4) . . .
58(4) . . .
48(4) . . .
60(4) . . .
62(4) . . .
47(4) . . .
50(4) . . .
46(4) . . .
53(4) . . .
54(4) . . .
49(4) . . .
51(4) . . .
57(4) . . .
50(4) . . .
49(4) . . .
59(4) . . .
45(4) . . .
51(4) . . .
51(4) . . .
54(4) . . .
53(4) . . .
47(4) . . .
47(4) . . .
49(4) . . .
47(4) . . .
58(4) . . .
47(4) . . .
49(4) . . .
46(4) . . .
48(4) . . .
52(4) . . .
54(4) . . .
54(4) . . .
44.4(35) . . .
55(4) . . .
46(4) . . .
53(4) . . .
50(4) . . .
54(4) . . .
58(4) . . .
50(4) . . .
49(4) . . .
49(4) . . .
47(4) . . .
54(4) . . .
45.7(35) . . .
46(4) . . .
57(4) . . .
51(4) . . .
57(4) . . .
53(4) . . .
56(4) . . .
59(4) . . .
39.6(32) . . .
54(4) . . .
59(4) . . .
47(4) . . .
61(4) . . .
53(4) . . .
54(4) . . .
52(4) . . .
48(4) . . .
53(4) . . .
45(4) . . .
51(4) . . .
52(4) . . .
52(4) . . .
51(4) . . .
61(4) . . .
57(4) . . .
48(4) . . .
42(4) . . .
46(4) . . .
53(4) . . .
62(4) . . .
62(4) . . .
63(4) . . .
50(4) . . .
38.4(32) . . .
44(4) . . .
54(4) . . .
51(4) . . .
55(4) . . .
52(4) . . .
56(4) . . .
52(4) . . .
52(4) . . .
61(4) . . .
59(4) . . .
63(4) . . .
62(4) . . .
51(4) . . .
57(4) . . .
43(4) . . .
56(4) . . .
55(4) . . .
50(4) . . .
54(4) . . .
50(4) . . .
51(4) . . .
49(4) . . .
57(4) . . .
54(4) . . .
56(4) . . .
49(4) . . .
46(4) . . .
50(4) . . .
41.7(34) . . .
52(4) . . .
48(4) . . .
46(4) . . .
60(4) . . .
53(4) . . .
51(4) . . .
48(4) . . .
54(4) . . .
62(4) . . .
47(4) . . .
44.7(35) . . .
48(4) . . .
45(4) . . .
48(4) . . .
49(4) . . .
56(4) . . .
46(4) . . .
52(4) . . .
47(4) . . .
44.1(34) . . .
62(4) . . .
48(4) . . .
63(4) . . .
64(4) . . .
48(4) . . .
56(4) . . .
57(4) . . .
45(4) . . .
42.3(34) . . .
41.8(34) . . .
55(4) . . .
56(4) . . .
54(4) . . .
52(4) . . .
37.6(32) . . .
50(4) . . .
46(4) . . .
51(4) . . .
61(4) . . .
47(4) . . .
50(4) . . .
57(4) . . .
51(4) . . .
54(4) . . .
51(4) . . .
46(4) . . .
49(4) . . .
53(4) . . .
53(4) . . .
54(4) . . .
57(4) . . .
39.3(32) . . .
49(4) . . .
48(4) . . .
46(4) . . .
50(4) . . .
47(4) . . .
54(4) . . .
52(4) . . .
48(4) . . .
49(4) . . .
58(4) . . .
56(4) . . .
56(4) . . .
57(4) . . .
50(4) . . .
50(4) . . .
45(4) . . .
43.8(34) . . .
44(4) . . .
57(4) . . .
57(4) . . .
48(4) . . .
66(4) . . .
51(4) . . .
45(4) . . .
53(4) . . .
56(4) . . .
45(4) . . .
41.5(35) . . .
56(4) . . .
50(4) . . .
53(4) . . .
45.6(34) . . .
53(4) . . .
53(4) . . .
63(4) . . .
43.7(34) . . .
56(4) . . .
55(4) . . .
52(4) . . .
52(4) . . .
52(4) . . .
55(4) . . .
47(4) . . .
55(4) . . .
63(4) . . .
53(4) . . .
45.2(35) . . .
46(4) . . .
52(4) . . .
54(4) . . .
57(4) . . .
48(4) . . .
55(4) . . .
47(4) . . .
51(4) . . .
64(4) . . .
57(4) . . .
54(4) . . .
58(4) . . .
53(4) . . .
45.8(35) . . .
57(4) . . .
48(4) . . .
58(4) . . .
42.9(34) . . .
49(4) . . .
54(4) . . .
54(4) . . .
55(4) . . .
55(4) . . .
48(4) . . .
50(4) . . .
58(4) . . .
50(4) . . .
44(4) . . .
47(4) . . .
53(4) . . .
44.2(35) . . .
58(4) . . .
57(4) . . .
54(4) . . .
54(4) . . .
49(4) . . .
46(4) . . .
50(4) . . .
42.4(34) . . .
47(4) . . .
56(4) . . .
46(4) . . .
45.2(35) . . .
51(4) . . .
57(4) . . .
46(4) . . .
51(4) . . .
40.7(33) . . .
46.5(35) . . .
48(4) . . .
41(4) . . .
50(4) . . .
50(4) . . .
62(4) . . .
57(4) . . .
53(4) . . .
53(4) . . .
57(4) . . .
56(4) . . .
48(4) . . .
56(4) . . .
50(4) . . .
53(4) . . .
51(4) . . .
45(4) . . .
58(4) . . .
53(4) . . .
51(4) . . .
43(4) . . .
50(4) . . .
50(4) . . .
40.4(34) . . .
47(4) . . .
51(4) . . .
53(4) . . .
55(4) . . .
52(4) . . .
53(4) . . .
51(4) . . .
47(4) . . .
50(4) . . .
50(4) . . .
56(4) . . .
55(4) . . .
64(4) . . .
52(4) . . .
54(4) . . .
46(4) . . .
48(4) . . .
44.1(35) . . .
52(4) . . .
53(4) . . .
58(4) . . .
48(4) . . .
52(4) . . .
42.0(35) . . .
49(4) . . .
55(4) . . .
51(4) . . .
53(4) . . .
45(4) . . .
58(4) . . .
49(4) . . .
56(4) . . .
53(4) . . .
43.6(35) . . .
45.0(34) . . .
37.7(33) . . .
50(4) . . .
54(4) . . .
55(4) . . .
44.6(35) . . .
41.9(35) . . .
45(4) . . .
56(4) . . .
62(4) . . .
53(4) . . .
58(4) . . .
59(4) . . .
55(4) . . .
60(4) . . .
48(4) . . .
52(4) . . .
46(4) . . .
48(4) . . .
59(4) . . .
58(4) . . .
58(4) . . .
50(4) . . .
43.9(34) . . .
64(4) . . .
49(4) . . .
53(4) . . .
58(4) . . .
61(4) . . .
59(4) . . .
48(4) . . .
49(4) . . .
43(4) . . .
49(4) . . .
53(4) . . .
59(4) . . .
53(4) . . .
41(4) . . .
45(4) . . .
52(4) . . .
45(4) . . .
50(4) . . .
45(4) . . .
51(4) . . .
56(4) . . .
48(4) . . .
49(4) . . .
52(4) . . .
44(4) . . .
50(4) . . .
46(4) . . .
57(4) . . .
48(4) . . .
48(4) . . .
48(4) . . .
49(4) . . .
52(4) . . .
54(4) . . .
65(5) . . .
46.6(35) . . .
59(4) . . .
55(4) . . .
50(4) . . .
54(4) . . .
43.9(34) . . .
55(4) . . .
56(4) . . .
54(4) . . .
59(4) . . .
48(4) . . .
55(4) . . .
52(4) . . .
49(4) . . .
52(4) . . .
50(4) . . .
50(4) . . .
61(4) . . .
60(4) . . .
58(4) . . .
53(4) . . .
53(4) . . .
48(4) . . .
48(4) . . .
55(4) . . .
57(4) . . .
58(4) . . .
42.6(34) . . .
47(4) . . .
56(4) . . .
56(4) . . .
49(4) . . .
48(4) . . .
48(4) . . .
51(4) . . .
56(4) . . .
56(4) . . .
60(4) . . .
53(4) . . .
48(4) . . .
52(4) . . .
67(5) . . .
45.0(34) . . .
55(4) . . .
56(4) . . .
46(4) . . .
49(4) . . .
61(4) . . .
46(4) . . .
59(4) . . .
47(4) . . .
57(4) . . .
50(4) . . .
51(4) . . .
42.9(34) . . .
53(4) . . .
44.0(35) . . .
47(4) . . .
53(4) . . .
47(4) . . .
40.6(35) . . .
45(4) . . .
52(4) . . .
52(4) . . .
47(4) . . .
50(4) . . .
52(4) . . .
58(4) . . .
42.7(35) . . .
56(4) . . .
48(4) . . .
47(4) . . .
47(4) . . .
39.5(33) . . .
53(4) . . .
49(4) . . .
59(4) . . .
50(4) . . .
39.8(33) . . .
50(4) . . .
51(4) . . .
56(4) . . .
45(4) . . .
57(4) . . .
40.6(33) . . .
47(4) . . .
48(4) . . .
57(4) . . .
41.8(34) . . .
54(4) . . .
42(4) . . .
41(4) . . .
53(4) . . .
37.4(32) . . .
47(4) . . .
49(4) . . .
42.9(34) . . .
53(4) . . .
49(4) . . .
57(4) . . .
60(4) . . .
52(4) . . .
43(4) . . .
50(4) . . .
51(4) . . .
55(4) . . .
55(4) . . .
47(4) . . .
55(4) . . .
63(4) . . .
49(4) . . .
55(4) . . .
51(4) . . .
47(4) . . .
60(4) . . .
56(4) . . .
55(4) . . .
50(4) . . .
55(4) . . .
63(4) . . .
48(4) . . .
48(4) . . .
42.9(34) . . .
49(4) . . .
46(4) . . .
49(4) . . .
41.8(35) . . .
43.2(35) . . .
48(4) . . .
58(4) . . .
56(4) . . .
56(4) . . .
43.7(34) . . .
45(4) . . .
41.6(34) . . .
45(4) . . .
64(5) . . .
48(4) . . .
58(4) . . .
49(4) . . .
61(4) . . .
45.2(35) . . .
50(4) . . .
54(4) . . .
52(4) . . .
46(4) . . .
44(4) . . .
49(4) . . .
52(4) . . .
48(4) . . .
49(4) . . .
48(4) . . .
50(4) . . .
54(4) . . .
47(4) . . .
59(4) . . .
60(4) . . .
65(4) . . .
46(4) . . .
46(4) . . .
48(4) . . .
52(4) . . .
46(4) . . .
54(4) . . .
57(4) . . .
52(4) . . .
56(4) . . .
55(4) . . .
53(4) . . .
42.7(35) . . .
54(4) . . .
55(4) . . .
57(4) . . .
56(4) . . .
53(4) . . .
47(4) . . .
54(4) . . .
58(4) . . .
47(4) . . .
47(4) . . .
46(4) . . .
51(4) . . .
52(4) . . .
49(4) . . .
37.6(34) . . .
45(4) . . .
49(4) . . .
49(4) . . .
45(4) . . .
47(4) . . .
49(4) . . .
48(4) . . .
55(4) . . .
50(4) . . .
53(4) . . .
62(4) . . .
44.3(35) . . .
47(4) . . .
48(4) . . .
44.9(35) . . .
52(4) . . .
49(4) . . .
52(4) . . .
50(4) . . .
47(4) . . .
50(4) . . .
53(4) . . .
43(4) . . .
52(4) . . .
47(4) . . .
43(4) . . .
44.9(35) . . .
45(4) . . .
51(4) . . .
46(4) . . .
57(4) . . .
54(4) . . .
47(4) . . .
37.1(33) . . .
50(4) . . .
59(4) . . .
42.6(34) . . .
39.2(34) . . .
51(4) . . .
50(4) . . .
56(4) . . .
53(4) . . .
54(4) . . .
56(4) . . .
55(4) . . .
53(4) . . .
50(4) . . .
44(4) . . .
50(4) . . .
46(4) . . .
55(4) . . .
56(4) . . .
49(4) . . .
52(4) . . .
50(4) . . .
41.1(33) . . .
45(4) . . .
61(4) . . .
59(4) . . .
50(4) . . .
49(4) . . .
55(4) . . .
47(4) . . .
51(4) . . .
44.3(35) . . .
52(4) . . .
56(4) . . .
47(4) . . .
52(4) . . .
58(4) . . .
54(4) . . .
50(4) . . .
51(4) . . .
55(4) . . .
53(4) . . .
48(4) . . .
52(4) . . .
64(4) . . .
56(4) . . .
48(4) . . .
53(4) . . .
51(4) . . .
49(4) . . .
48(4) . . .
45(4) . . .
51(4) . . .
40.4(34) . . .
48(4) . . .
47(4) . . .
44.2(34) . . .
56(4) . . .
63(4) . . .
45(4) . . .
43.7(35) . . .
47(4) . . .
40.5(34) . . .
55(4) . . .
53(4) . . .
64(5) . . .
46.2(35) . . .
49(4) . . .
51(4) . . .
46(4) . . .
52(4) . . .
53(4) . . .
49(4) . . .
50(4) . . .
43.4(35) . . .
49(4) . . .
51(4) . . .
50(4) . . .
48(4) . . .
49(4) . . .
41.8(35) . . .
52(4) . . .
42.7(35) . . .
51(4) . . .
44(4) . . .
49(4) . . .
49(4) . . .
49(4) . . .
42(4) . . .
46(4) . . .
45.1(34) . . .
50(4) . . .
52(4) . . .
63(5) . . .
54(4) . . .
42.3(34) . . .
43.3(34) . . .
51(4) . . .
47(4) . . .
35.9(32) . . .
45(4) . . .
50(4) . . .
47(4) . . .
58(4) . . .
45(4) . . .
51(4) . . .
50(4) . . .
51(4) . . .
56(4) . . .
50(4) . . .
48(4) . . .
48(4) . . .
42.8(33) . . .
53(4) . . .
48(4) . . .
39.7(33) . . .
47(4) . . .
44(4) . . .
49(4) . . .
45(4) . . .
42.0(33) . . .
51(4) . . .
50(4) . . .
50(4) . . .
49(4) . . .
52(4) . . .
48(4) . . .
52(4) . . .
50(4) . . .
47(4) . . .
48(4) . . .
57(4) . . .
53(4) . . .
49(4) . . .
55(4) . . .
57(4) . . .
49(4) . . .
57(4) . . .
58(4) . . .
51(4) . . .
49(4) . . .
53(4) . . .
50(4) . . .
54(4) . . .
46(4) . . .
53(4) . . .
57(4) . . .
51(4) . . .
47(4) . . .
51(4) . . .
44.6(35) . . .
45(4) . . .
40.6(34) . . .
50(4) . . .
47(4) . . .
50(4) . . .
46(4) . . .
59(4) . . .
46.3(35) . . .
50(4) . . .
45(4) . . .
50(4) . . .
56(4) . . .
63(4) . . .
57(4) . . .
55(4) . . .
44.6(35) . . .
46(4) . . .
49(4) . . .
50(4) . . .
51(4) . . .
48(4) . . .
57(4) . . .
52(4) . . .
42.2(34) . . .
44(4) . . .
49(4) . . .
49(4) . . .
49(4) . . .
38.5(33) . . .
45(4) . . .
47(4) . . .
56(4) . . .
54(4) . . .
42.7(35) . . .
35.8(31) . . .
49(4) . . .
41.1(35) . . .
44(4) . . .
44.5(35) . . .
46(4) . . .
47(4) . . .
49(4) . . .
50(4) . . .
50(4) . . .
44.2(34) . . .
58(4) . . .
54(4) . . .
46(4) . . .
43.3(35) . . .
50(4) . . .
49(4) . . .
52(4) . . .
49(4) . . .
58(4) . . .
51(4) . . .
39.4(34) . . .
49(4) . . .
53(4) . . .
58(4) . . .
52(4) . . .
47(4) . . .
55(4) . . .
47(4) . . .
53(4) . . .
49(4) . . .
46(4) . . .
47(4) . . .
47(4) . . .
47(4) . . .
51(4) . . .
47(4) . . .
56(4) . . .
48(4) . . .
46(4) . . .
44(4) . . .
50(4) . . .
55(4) . . .
47(4) . . .
46(4) . . .
42(4) . . .
44(4) . . .
52(4) . . .
42.7(34) . . .
47(4) . . .
45(4) . . .
47(4) . . .
39.8(33) . . .
46(4) . . .
53(4) . . .
43.6(34) . . .
59(4) . . .
48(4) . . .
52(4) . . .
48(4) . . .
56(4) . . .
40.2(34) . . .
46(4) . . .
55(4) . . .
49(4) . . .
48(4) . . .
49(4) . . .
51(4) . . .
49(4) . . .
47(4) . . .
47(4) . . .
52(4) . . .
52(4) . . .
43.8(34) . . .
43.0(35) . . .
56(4) . . .
53(4) . . .
51(4) . . .
45.0(34) . . .
57(4) . . .
49(4) . . .
50(4) . . .
51(4) . . .
53(4) . . .
50(4) . . .
46(4) . . .
45(4) . . .
42.7(34) . . .
49(4) . . .
49(4) . . .
55(4) . . .
49(4) . . .
54(4) . . .
43.9(34) . . .
53(4) . . .
56(4) . . .
38.1(33) . . .
58(4) . . .
38.8(35) . . .
50(4) . . .
49(4) . . .
46(4) . . .
47(4) . . .
41.3(34) . . .
44(4) . . .
63(4) . . .
51(4) . . .
54(4) . . .
37.8(33) . . .
34.5(31) . . .
44(4) . . .
53(4) . . .
53(4) . . .
44(4) . . .
38.7(34) . . .
54(4) . . .
57(4) . . .
47(4) . . .
50(4) . . .
55(4) . . .
53(4) . . .
52(4) . . .
40.5(33) . . .
42.7(34) . . .
60(4) . . .
62(4) . . .
47(4) . . .
54(4) . . .
45(4) . . .
53(4) . . .
46(4) . . .
55(4) . . .
52(4) . . .
44(4) . . .
49(4) . . .
52(4) . . .
52(4) . . .
56(4) . . .
50(4) . . .
55(4) . . .
56(4) . . .
55(4) . . .
47(4) . . .
49(4) . . .
42(4) . . .
50(4) . . .
42.7(34) . . .
46(4) . . .
49(4) . . .
45(4) . . .
50(4) . . .
46.3(35) . . .
42(4) . . .
47(4) . . .
45(4) . . .
49(4) . . .
39.2(33) . . .
53(4) . . .
52(4) . . .
56(4) . . .
48(4) . . .
46.8(35) . . .
48(4) . . .
47(4) . . .
56(4) . . .
59(4) . . .
51(4) . . .
50(4) . . .
52(4) . . .
52(4) . . .
55(4) . . .
42.5(34) . . .
49(4) . . .
45(4) . . .
49(4) . . .
56(4) . . .
56(4) . . .
50(4) . . .
47(4) . . .
34.6(32) . . .
50(4) . . .
54(4) . . .
51(4) . . .
50(4) . . .
56(4) . . .
49(4) . . .
51(4) . . .
48(4) . . .
45(4) . . .
40(4) . . .
34.4(31) . . .
44.2(35) . . .
46(4) . . .
45(4) . . .
52(4) . . .
55(4) . . .
45(4) . . .
58(4) . . .
53(4) . . .
51(4) . . .
42.6(34) . . .
51(4) . . .
49(4) . . .
42(4) . . .
49(4) . . .
55(4) . . .
49(4) . . .
48(4) . . .
45(4) . . .
43(4) . . .
47(4) . . .
43(4) . . .
46(4) . . .
49(4) . . .
62(4) . . .
43.5(34) . . .
58(4) . . .
60(4) . . .
43(4) . . .
50(4) . . .
53(4) . . .
51(4) . . .
39.6(34) . . .
42(4) . . .
53(4) . . .
59(4) . . .
50(4) . . .
52(4) . . .
44.6(35) . . .
48(4) . . .
45(4) . . .
44(4) . . .
57(4) . . .
50(4) . . .
47(4) . . .
44.6(34) . . .
46.4(35) . . .
48(4) . . .
47(4) . . .
48(4) . . .
46.2(35) . . .
53(4) . . .
49(4) . . .
55(4) . . .
50(4) . . .
50(4) . . .
43(4) . . .
47(4) . . .
38.7(34) . . .
33.2(30) . . .
50(4) . . .
54(4) . . .
46(4) . . .
55(4) . . .
44.9(35) . . .
40.0(33) . . .
45(4) . . .
54(4) . . .
53(4) . . .
54(4) . . .
51(4) . . .
44(4) . . .
53(4) . . .
49(4) . . .
43.3(34) . . .
55(4) . . .
53(4) . . .
53(4) . . .
43.6(35) . . .
49(4) . . .
54(4) . . .
51(4) . . .
53(4) . . .
53(4) . . .
48(4) . . .
42.1(35) . . .
49(4) . . .
50(4) . . .
47(4) . . .
41.1(34) . . .
47(4) . . .
35.4(32) . . .
51(4) . . .
42.7(34) . . .
54(4) . . .
61(4) . . .
49(4) . . .
46(4) . . .
45.2(35) . . .
64(4) . . .
52(4) . . .
46(4) . . .
51(4) . . .
47(4) . . .
42.2(35) . . .
37.7(32) . . .
51(4) . . .
39(4) . . .
52(4) . . .
46(4) . . .
47(4) . . .
41(4) . . .
48(4) . . .
51(4) . . .
47(4) . . .
43(4) . . .
42(4) . . .
43.6(35) . . .
40.3(33) . . .
56(4) . . .
52(4) . . .
51(4) . . .
53(4) . . .
52(4) . . .
50(4) . . .
51(4) . . .
58(4) . . .
49(4) . . .
37.5(32) . . .
53(4) . . .
42.9(34) . . .
54(4) . . .
49(4) . . .
51(4) . . .
41.1(33) . . .
60(4) . . .
56(4) . . .
46(4) . . .
51(4) . . .
44.8(35) . . .
50(4) . . .
57(4) . . .
40.9(33) . . .
49(4) . . .
51(4) . . .
44(4) . . .
40.9(34) . . .
40.7(33) . . .
44.2(35) . . .
37.8(33) . . .
50(4) . . .
50(4) . . .
49(4) . . .
52(4) . . .
42(4) . . .
50(4) . . .
53(4) . . .
42.3(34) . . .
57(4) . . .
54(4) . . .
49(4) . . .
46(4) . . .
39.8(33) . . .
48(4) . . .
48(4) . . .
54(4) . . .
58(4) . . .
51(4) . . .
54(4) . . .
39.8(33) . . .
44(4) . . .
52(4) . . .
53(4) . . .
46(4) . . .
40.1(35) . . .
44(4) . . .
51(4) . . .
49(4) . . .
51(4) . . .
50(4) . . .
44(4) . . .
35.1(31) . . .
40.6(34) . . .
49(4) . . .
46(4) . . .
56(4) . . .
47(4) . . .
39.7(33) . . .
47(4) . . .
64(5) . . .
53(4) . . .
41.4(34) . . .
48(4) . . .
51(4) . . .
49(4) . . .
53(4) . . .
66(4) . . .
46(4) . . .
51(4) . . .
54(4) . . .
46(4) . . .
55(4) . . .
62(4) . . .
52(4) . . .
45(4) . . .
49(4) . . .
63(4) . . .
56(4) . . .
54(4) . . .
53(4) . . .
49(4) . . .
48(4) . . .
40.6(33) . . .
49(4) . . .
51(4) . . .
57(4) . . .
52(4) . . .
61(4) . . .
54(4) . . .
53(4) . . .
53(4) . . .
52(4) . . .
48(4) . . .
49(4) . . .
48(4) . . .
53(4) . . .
55(4) . . .
48(4) . . .
39(4) . . .
43(4) . . .
52(4) . . .
47(4) . . .
45(4) . . .
44(4) . . .
55(4) . . .
50(4) . . .
40.5(35) . . .
38.0(34) . . .
48(4) . . .
45(4) . . .
49(4) . . .
51(4) . . .
46(4) . . .
49(4) . . .
53(4) . . .
38.5(33) . . .
47(4) . . .
48(4) . . .
45(4) . . .
44(4) . . .
38.7(32) . . .
43.1(35) . . .
45(4) . . .
47(4) . . .
49(4) . . .
52(4) . . .
56(4) . . .
51(4) . . .
53(4) . . .
51(4) . . .
42.7(35) . . .
49(4) . . .
42(4) . . .
47(4) . . .
47(4) . . .
49(4) . . .
47(4) . . .
46(4) . . .
43.4(34) . . .
50(4) . . .
44.5(35) . . .
46(4) . . .
55(4) . . .
42.1(34) . . .
52(4) . . .
53(4) . . .
51(4) . . .
51(4) . . .
40.1(33) . . .
44.5(34) . . .
46(4) . . .
49(4) . . .
46(4) . . .
46(4) . . .
56(4) . . .
56(4) . . .
56(4) . . .
46(4) . . .
53(4) . . .
36.8(32) . . .
47(4) . . .
38.8(32) . . .
47(4) . . .
42(4) . . .
44(4) . . .
50(4) . . .
40.1(34) . . .
49(4) . . .
42.0(35) . . .
48(4) . . .
54(4) . . .
54(4) . . .
48(4) . . .
51(4) . . .
53(4) . . .
48(4) . . .
48(4) . . .
57(4) . . .
53(4) . . .
54(4) . . .
50(4) . . .
54(4) . . .
54(4) . . .
36.9(34) . . .
38.1(32) . . .
47(4) . . .
51(4) . . .
49(4) . . .
48(4) . . .
38.5(32) . . .
55(4) . . .
48(4) . . .
50(4) . . .
62(4) . . .
57(4) . . .
49(4) . . .
43(4) . . .
60(4) . . .
46(4) . . .
50(4) . . .
49(4) . . .
47(4) . . .
46(4) . . .
54(4) . . .
45.4(35) . . .
54(4) . . .
45(4) . . .
47(4) . . .
54(4) . . .
53(4) . . .
53(4) . . .
48(4) . . .
37.4(33) . . .
40.0(35) . . .
51(4) . . .
54(4) . . .
57(4) . . .
51(4) . . .
53(4) . . .
53(4) . . .
41(4) . . .
42(4) . . .
46(4) . . .
45(4) . . .
46(4) . . .
46(4) . . .
45(4) . . .
56(4) . . .
52(4) . . .
51(4) . . .
51(4) . . .
49(4) . . .
43(4) . . .
47(4) . . .
41.2(33) . . .
51(4) . . .
41.3(35) . . .
55(4) . . .
51(4) . . .
56(4) . . .
52(4) . . .
58(4) . . .
48(4) . . .
46(4) . . .
51(4) . . .
40.0(34) . . .
47(4) . . .
41.3(35) . . .
56(4) . . .
50(4) . . .
45(4) . . .
49(4) . . .
39.2(32) . . .
47(4) . . .
43(4) . . .
47(4) . . .
57(4) . . .
43.5(34) . . .
47(4) . . .
55(4) . . .
54(4) . . .
53(4) . . .
49(4) . . .
51(4) . . .
50(4) . . .
54(4) . . .
43(4) . . .
48(4) . . .
58(4) . . .
50(4) . . .
59(4) . . .
50(4) . . .
57(4) . . .
55(4) . . .
53(4) . . .
47(4) . . .
50(4) . . .
50(4) . . .
50(4) . . .
53(4) . . .
46(4) . . .
40(4) . . .
48(4) . . .
44.3(35) . . .
47(4) . . .
48(4) . . .
42.0(34) . . .
53(4) . . .
48(4) . . .
47(4) . . .
56(4) . . .
49(4) . . .
48(4) . . .
58(4) . . .
50(4) . . .
46(4) . . .
47(4) . . .
55(4) . . .
44(4) . . .
48(4) . . .
46(4) . . .
42.0(34) . . .
48(4) . . .
43(4) . . .
42(4) . . .
46(4) . . .
48(4) . . .
48(4) . . .
53(4) . . .
52(4) . . .
57(4) . . .
52(4) . . .
53(4) . . .
46(4) . . .
52(4) . . .
50(4) . . .
55(4) . . .
55(4) . . .
48(4) . . .
53(4) . . .
47(4) . . .
53(4) . . .
56(4) . . .
48(4) . . .
47(4) . . .
47(4) . . .
62(4) . . .
50(4) . . .
47(4) . . .
46(4) . . .
43(4) . . .
54(4) . . .
46(4) . . .
50(4) . . .
61(4) . . .
50(4) . . .
54(4) . . .
46(4) . . .
58(4) . . .
48(4) . . .
46(4) . . .
37.0(33) . . .
46(4) . . .
47(4) . . .
49(4) . . .
49(4) . . .
43.4(34) . . .
44.1(34) . . .
46(4) . . .
54(4) . . .
48(4) . . .
49(4) . . .
48(4) . . .
47(4) . . .
49(4) . . .
45.8(35) . . .
45.7(35) . . .
45(4) . . .
53(4) . . .
55(4) . . .
57(4) . . .
49(4) . . .
49(4) . . .
51(4) . . .
52(4) . . .
52(4) . . .
50(4) . . .
51(4) . . .
43.5(34) . . .
49(4) . . .
48(4) . . .
50(4) . . .
37.3(32) . . .
50(4) . . .
42.2(34) . . .
40.2(34) . . .
46(4) . . .
55(4) . . .
51(4) . . .
42.3(35) . . .
51(4) . . .
53(4) . . .
49(4) . . .
50(4) . . .
42.7(34) . . .
42.3(35) . . .
37.5(32) . . .
45(4) . . .
44(4) . . .
42.0(34) . . .
60(4) . . .
48(4) . . .
58(4) . . .
49(4) . . .
53(4) . . .
52(4) . . .
48(4) . . .
48(4) . . .
48(4) . . .
45.8(35) . . .
49(4) . . .
46(4) . . .
55(4) . . .
56(4) . . .
43.4(34) . . .
42.2(34) . . .
42.6(34) . . .
48(4) . . .
46(4) . . .
43.1(35) . . .
57(4) . . .
55(4) . . .
45(4) . . .
50(4) . . .
54(4) . . .
50(4) . . .
44.3(35) . . .
56(4) . . .
48(4) . . .
48(4) . . .
51(4) . . .
46(4) . . .
39.4(33) . . .
52(4) . . .
46(4) . . .
48(4) . . .
50(4) . . .
54(4) . . .
54(4) . . .
43.7(35) . . .
46(4) . . .
38.8(32) . . .
45(4) . . .
52(4) . . .
53(4) . . .
54(4) . . .
47(4) . . .
43(4) . . .
45(4) . . .
44.2(35) . . .
49(4) . . .
46(4) . . .
56(4) . . .
47(4) . . .
50(4) . . .
45(4) . . .
32.8(29) . . .
44(4) . . .
55(4) . . .
48(4) . . .
48(4) . . .
44(4) . . .
40.2(34) . . .
47(4) . . .
43.1(35) . . .
54(4) . . .
44(4) . . .
40.1(33) . . .
52(4) . . .
43.4(34) . . .
52(4) . . .
51(4) . . .
46(4) . . .
42.6(34) . . .
51(4) . . .
33.5(30) . . .
42(4) . . .
52(4) . . .
42.7(34) . . .
47(4) . . .
46(4) . . .
46(4) . . .
41.5(34) . . .
53(4) . . .
53(4) . . .
55(4) . . .
52(4) . . .
52(4) . . .
54(4) . . .
57(4) . . .
53(4) . . .
56(4) . . .
47(4) . . .
48(4) . . .
52(4) . . .
47(4) . . .
51(4) . . .
38.8(33) . . .
50(4) . . .
49(4) . . .
46(4) . . .
44(4) . . .
39.8(33) . . .
52(4) . . .
53(4) . . .
45(4) . . .
56(4) . . .
54(4) . . .
57(4) . . .
43(4) . . .
45(4) . . .
53(4) . . .
49(4) . . .
44(4) . . .
47(4) . . .
46(4) . . .
40.5(33) . . .
43.4(34) . . .
39.7(33) . . .
49(4) . . .
46(4) . . .
52(4) . . .
54(4) . . .
40.6(34) . . .
47(4) . . .
45(4) . . .
49(4) . . .
50(4) . . .
47(4) . . .
51(4) . . .
44(4) . . .
39.2(34) . . .
42.9(34) . . .
47(4) . . .
46(4) . . .
55(4) . . .
48(4) . . .
53(4) . . .
51(4) . . .
44.6(34) . . .
48(4) . . .
49(4) . . .
50(4) . . .
47(4) . . .
48(4) . . .
46(4) . . .
46(4) . . .
57(4) . . .
45(4) . . .
50(4) . . .
51(4) . . .
52(4) . . .
56(4) . . .
57(4) . . .
38.6(32) . . .
47(4) . . .
47(4) . . .
43.1(35) . . .
51(4) . . .
55(4) . . .
39.3(34) . . .
41.9(35) . . .
43.7(34) . . .
47(4) . . .
37(4) . . .
47(4) . . .
46(4) . . .
46(4) . . .
40.7(35) . . .
47(4) . . .
40.2(33) . . .
54(4) . . .
50(4) . . .
44.0(35) . . .
45(4) . . .
46(4) . . .
41.5(33) . . .
47(4) . . .
49(4) . . .
58(4) . . .
43.5(35) . . .
39.2(32) . . .
36.8(32) . . .
45(4) . . .
49(4) . . .
41.4(34) . . .
49(4) . . .
49(4) . . .
40.1(33) . . .
38(4) . . .
44(4) . . .
53(4) . . .
45(4) . . .
51(4) . . .
50(4) . . .
43.3(35) . . .
51(4) . . .
55(4) . . .
50(4) . . .
47(4) . . .
44(4) . . .
46.0(35) . . .
47(4) . . .
43(4) . . .
51(4) . . .
49(4) . . .
52(4) . . .
53(4) . . .
49(4) . . .
50(4) . . .
48(4) . . .
46(4) . . .
54(4) . . .
46(4) . . .
49(4) . . .
46(4) . . .
54(4) . . .
39.8(33) . . .
42(4) . . .
57(4) . . .
41.0(34) . . .
41.6(34) . . .
48(4) . . .
49(4) . . .
42(4) . . .
40.8(34) . . .
40.8(33) . . .
51(4) . . .
38.1(34) . . .
48(4) . . .
53(4) . . .
56(4) . . .
46(4) . . .
55(4) . . .
40.0(34) . . .
57(4) . . .
50(4) . . .
48(4) . . .
45(4) . . .
44(4) . . .
48(4) . . .
51(4) . . .
43(4) . . .
41.1(34) . . .
51(4) . . .
57(4) . . .
58(4) . . .
58(4) . . .
54(4) . . .
61(4) . . .
55(4) . . .
45.7(35) . . .
52(4) . . .
50(4) . . .
49(4) . . .
48(4) . . .
40.1(33) . . .
43(4) . . .
39.4(33) . . .
55(4) . . .
50(4) . . .
49(4) . . .
49(4) . . .
48(4) . . .
51(4) . . .
49(4) . . .
42.7(35) . . .
46(4) . . .
52(4) . . .
51(4) . . .
58(4) . . .
43.1(34) . . .
59(4) . . .
44(4) . . .
49(4) . . .
44.0(34) . . .
54(4) . . .
45(4) . . .
50(4) . . .
48(4) . . .
35.4(31) . . .
47(4) . . .
46(4) . . .
41.7(35) . . .
39.3(33) . . .
40.0(32) . . .
54(4) . . .
50(4) . . .
61(4) . . .
55(4) . . .
44.3(35) . . .
49(4) . . .
57(4) . . .
41.4(34) . . .
49(4) . . .
62(4) . . .
55(4) . . .
47(4) . . .
46(4) . . .
47(4) . . .
43(4) . . .
47(4) . . .
47(4) . . .
51(4) . . .
41.9(34) . . .
41(4) . . .
47(4) . . .
59(4) . . .
48(4) . . .
48(4) . . .
52(4) . . .
56(4) . . .
55(4) . . .
45(4) . . .
43.4(34) . . .
43(4) . . .
45(4) . . .
48(4) . . .
49(4) . . .
35.5(31) . . .
44(4) . . .
49(4) . . .
56(4) . . .
51(4) . . .
56(4) . . .
47(4) . . .
45(4) . . .
63(4) . . .
50(4) . . .
51(4) . . .
49(4) . . .
48(4) . . .
46(4) . . .
55(4) . . .
51(4) . . .
45(4) . . .
55(4) . . .
47(4) . . .
36.9(32) . . .
38.4(33) . . .
35.8(33) . . .
47(4) . . .
51(4) . . .
51(4) . . .
45.4(35) . . .
54(4) . . .
54(4) . . .
48(4) . . .
44.4(35) . . .
52(4) . . .
53(4) . . .
47(4) . . .
49(4) . . .
50(4) . . .
44(4) . . .
38.7(34) . . .
43(4) . . .
39.9(33) . . .
47(4) . . .
43.2(35) . . .
48(4) . . .
43(4) . . .
44(4) . . .
39.0(32) . . .
44(4) . . .
47(4) . . .
53(4) . . .
48(4) . . .
48(4) . . .
50(4) . . .
45(4) . . .
56(4) . . .
50(4) . . .
42.8(34) . . .
49(4) . . .
44(4) . . .
46(4) . . .
45(4) . . .
45(4) . . .
47(4) . . .
52(4) . . .
43.8(35) . . .
43.5(35) . . .
51(4) . . .
51(4) . . .
48(4) . . .
47(4) . . .
49(4) . . .
55(4) . . .
62(4) . . .
49(4) . . .
57(4) . . .
56(4) . . .
44(4) . . .
52(4) . . .
45(4) . . .
46(4) . . .
42.5(34) . . .
54(4) . . .
45(4) . . .
44(4) . . .
46(4) . . .
40.3(33) . . .
40(4) . . .
44(4) . . .
53(4) . . .
42.2(35) . . .
39.5(33) . . .
49(4) . . .
49(4) . . .
41.4(34) . . .
41.7(33) . . .
50(4) . . .
49(4) . . .
42(4) . . .
53(4) . . .
45(4) . . .
52(4) . . .
42(4) . . .
50(4) . . .
51(4) . . .
48(4) . . .
42.8(35) . . .
57(4) . . .
54(4) . . .
46(4) . . .
38.2(32) . . .
45.2(35) . . .
43(4) . . .
40(4) . . .
45(4) . . .
35.4(30) . . .
47(4) . . .
46(4) . . .
47(4) . . .
41.2(35) . . .
57(4) . . .
54(4) . . .
45.2(35) . . .
46(4) . . .
54(4) . . .
47(4) . . .
42.3(33) . . .
48(4) . . .
62(4) . . .
55(4) . . .
46(4) . . .
43.3(35) . . .
52(4) . . .
43(4) . . .
48(4) . . .
53(4) . . .
44.3(35) . . .
44(4) . . .
51(4) . . .
46(4) . . .
49(4) . . .
50(4) . . .
50(4) . . .
46(4) . . .
53(4) . . .
59(4) . . .
50(4) . . .
52(4) . . .
43.4(35) . . .
48(4) . . .
48(4) . . .
48(4) . . .
49(4) . . .
43.4(35) . . .
37.4(32) . . .
50(4) . . .
43(4) . . .
39(4) . . .
41.5(34) . . .
49(4) . . .
43.7(34) . . .
50(4) . . .
45(4) . . .
43.4(35) . . .
44.2(35) . . .
44(4) . . .
51(4) . . .
54(4) . . .
49(4) . . .
46.3(35) . . .
49(4) . . .
46(4) . . .
51(4) . . .
41(4) . . .
48(4) . . .
42.1(35) . . .
50(4) . . .
49(4) . . .
42.7(34) . . .
46(4) . . .
38.9(32) . . .
53(4) . . .
39.3(34) . . .
39.7(33) . . .
44.9(35) . . .
44(4) . . .
45.5(35) . . .
61(4) . . .
61(4) . . .
47(4) . . .
46(4) . . .
44.3(35) . . .
43(4) . . .
44(4) . . .
41.8(34) . . .
47(4) . . .
53(4) . . .
58(4) . . .
51(4) . . .
48(4) . . .
39.5(33) . . .
40.2(35) . . .
55(4) . . .
48(4) . . .
51(4) . . .
48(4) . . .
51(4) . . .
50(4) . . .
48(4) . . .
52(4) . . .
45(4) . . .
45(4) . . .
45(4) . . .
43.7(35) . . .
50(4) . . .
42.2(35) . . .
43.0(35) . . .
45(4) . . .
34.9(31) . . .
38.6(33) . . .
44(4) . . .
47(4) . . .
47(4) . . .
42.6(34) . . .
52(4) . . .
47(4) . . .
42(4) . . .
45(4) . . .
52(4) . . .
49(4) . . .
44(4) . . .
45(4) . . .
40.6(35) . . .
40.7(34) . . .
44(4) . . .
42(4) . . .
42(4) . . .
39.3(33) . . .
44.0(34) . . .
44(4) . . .
53(4) . . .
53(4) . . .
44(4) . . .
46(4) . . .
53(4) . . .
52(4) . . .
49(4) . . .
53(4) . . .
39.6(33) . . .
57(4) . . .
51(4) . . .
51(4) . . .
37.7(32) . . .
37.4(31) . . .
42.3(34) . . .
51(4) . . .
40.3(32) . . .
48(4) . . .
44.1(35) . . .
52(4) . . .
57(4) . . .
44(4) . . .
49(4) . . .
45(4) . . .
51(4) . . .
43(4) . . .
37.3(35) . . .
54(4) . . .
50(4) . . .
60(4) . . .
43.4(34) . . .
49(4) . . .
42.8(35) . . .
42.0(33) . . .
42.6(34) . . .
47(4) . . .
49(4) . . .
51(4) . . .
49(4) . . .
48(4) . . .
45(4) . . .
55(4) . . .
47(4) . . .
42(4) . . .
52(4) . . .
48(4) . . .
42.4(34) . . .
42.9(34) . . .
49(4) . . .
40.9(33) . . .
52(4) . . .
44.4(35) . . .
52(4) . . .
44(4) . . .
41.2(35) . . .
45(4) . . .
40(4) . . .
45.4(35) . . .
51(4) . . .
48(4) . . .
43.8(35) . . .
44.5(34) . . .
50(4) . . .
41.5(34) . . .
42(4) . . .
51(4) . . .
47(4) . . .
54(4) . . .
53(4) . . .
55(4) . . .
46(4) . . .
46(4) . . .
50(4) . . .
40.6(35) . . .
48(4) . . .
49(4) . . .
52(4) . . .
51(4) . . .
44(4) . . .
45(4) . . .
46(4) . . .
54(4) . . .
56(4) . . .
53(4) . . .
48(4) . . .
48(4) . . .
48(4) . . .
51(4) . . .
43(4) . . .
50(4) . . .
55(4) . . .
54(4) . . .
49(4) . . .
50(4) . . .
47(4) . . .
54(4) . . .
51(4) . . .
40.9(35) . . .
51(4) . . .
35.0(31) . . .
39.4(32) . . .
50(4) . . .
50(4) . . .
54(4) . . .
54(4) . . .
49(4) . . .
45(4) . . .
43(4) . . .
41(4) . . .
41.1(33) . . .
44(4) . . .
36.9(33) . . .
40.6(34) . . .
51(4) . . .
45.8(35) . . .
51(4) . . .
40.7(33) . . .
55(4) . . .
54(4) . . .
46(4) . . .
43.4(34) . . .
38.7(32) . . .
49(4) . . .
33.2(31) . . .
46(4) . . .
45.1(35) . . .
49(4) . . .
47(4) . . .
43(4) . . .
54(4) . . .
46(4) . . .
51(4) . . .
36.6(32) . . .
41(4) . . .
56(4) . . .
53(4) . . .
34.8(31) . . .
33.3(30) . . .
42(4) . . .
37.8(34) . . .
44.8(35) . . .
45(4) . . .
42(4) . . .
43(4) . . .
41.7(33) . . .
46(4) . . .
47(4) . . .
50(4) . . .
42(4) . . .
47(4) . . .
51(4) . . .
47(4) . . .
52(4) . . .
45(4) . . .
50(4) . . .
59(4) . . .
44.0(34) . . .
43(4) . . .
44(4) . . .
44.6(35) . . .
49(4) . . .
49(4) . . .
43(4) . . .
48(4) . . .
49(4) . . .
49(4) . . .
52(4) . . .
54(4) . . .
40.8(35) . . .
53(4) . . .
44.5(34) . . .
42(4) . . .
44(4) . . .
48(4) . . .
42.6(34) . . .
49(4) . . .
40.5(34) . . .
37.5(33) . . .
44(4) . . .
53(4) . . .
46(4) . . .
53(4) . . .
42(4) . . .
46(4) . . .
38.3(33) . . .
40.4(34) . . .
55(4) . . .
55(4) . . .
55(4) . . .
42.9(34) . . .
50(4) . . .
44(4) . . .
42(4) . . .
39.4(33) . . .
45.0(35) . . .
48(4) . . .
48(4) . . .
44(4) . . .
46(4) . . .
45.2(35) . . .
43(4) . . .
49(4) . . .
46(4) . . .
49(4) . . .
41.4(33) . . .
43(4) . . .
50(4) . . .
48(4) . . .
47(4) . . .
47(4) . . .
62(4) . . .
61(4) . . .
41.5(33) . . .
44(4) . . .
43.8(34) . . .
45.4(35) . . .
49(4) . . .
48(4) . . .
42.8(35) . . .
43.4(34) . . .
42.7(35) . . .
40.7(34) . . .
49(4) . . .
48(4) . . .
46(4) . . .
56(4) . . .
53(4) . . .
50(4) . . .
37.4(32) . . .
48(4) . . .
53(4) . . .
57(4) . . .
54(4) . . .
44.5(35) . . .
43.6(34) . . .
49(4) . . .
49(4) . . .
39.0(33) . . .
53(4) . . .
49(4) . . .
39.5(33) . . .
44(4) . . .
48(4) . . .
42.5(34) . . .
46(4) . . .
47(4) . . .
52(4) . . .
45(4) . . .
42.5(34) . . .
56(4) . . .
45(4) . . .
41.0(34) . . .
41.9(34) . . .
47(4) . . .
51(4) . . .
46(4) . . .
44(4) . . .
43.1(35) . . .
46(4) . . .
44(4) . . .
46(4) . . .
49(4) . . .
44.2(34) . . .
46(4) . . .
54(4) . . .
56(4) . . .
47(4) . . .
48(4) . . .
42.7(34) . . .
38.4(33) . . .
54(4) . . .
38.7(31) . . .
42.8(34) . . .
49(4) . . .
41.7(35) . . .
46(4) . . .
41.8(33) . . .
48(4) . . .
37.3(32) . . .
51(4) . . .
49(4) . . .
42(4) . . .
44.9(35) . . .
40.5(34) . . .
41.2(33) . . .
42.0(34) . . .
47(4) . . .
50(4) . . .
40.8(34) . . .
40.4(33) . . .
45(4) . . .
51(4) . . .
48(4) . . .
44(4) . . .
47(4) . . .
51(4) . . .
52(4) . . .
51(4) . . .
49(4) . . .
37.0(32) . . .
38.1(33) . . .
44(4) . . .
44.2(35) . . .
48(4) . . .
51(4) . . .
49(4) . . .
52(4) . . .
49(4) . . .
48(4) . . .
38.9(32) . . .
55(4) . . .
56(4) . . .
35.2(32) . . .
57(4) . . .
48(4) . . .
39.6(35) . . .
49(4) . . .
48(4) . . .
39.2(34) . . .
33.1(31) . . .
43.4(35) . . .
48(4) . . .
39.2(32) . . .
44(4) . . .
42.3(34) . . .
55(4) . . .
53(4) . . .
54(4) . . .
49(4) . . .
46(4) . . .
47(4) . . .
46.8(35) . . .
39.2(34) . . .
48(4) . . .
49(4) . . .
46(4) . . .
52(4) . . .
45(4) . . .
55(4) . . .
48(4) . . .
51(4) . . .
43.4(34) . . .
43(4) . . .
42(4) . . .
45(4) . . .
49(4) . . .
47(4) . . .
54(4) . . .
49(4) . . .
43(4) . . .
51(4) . . .
56(4) . . .
54(4) . . .
49(4) . . .
50(4) . . .
53(4) . . .
49(4) . . .
51(4) . . .
39.4(32) . . .
49(4) . . .
54(4) . . .
39.4(33) . . .
42.0(35) . . .
50(4) . . .
40.7(33) . . .
46(4) . . .
41.3(33) . . .
44(4) . . .
45(4) . . .
49(4) . . .
48(4) . . .
35.1(31) . . .
49(4) . . .
51(4) . . .
52(4) . . .
40.3(33) . . .
50(4) . . .
44(4) . . .
54(4) . . .
48(4) . . .
36.5(31) . . .
39.7(33) . . .
46(4) . . .
50(4) . . .
53(4) . . .
50(4) . . .
53(4) . . .
51(4) . . .
44(4) . . .
48(4) . . .
43.7(35) . . .
54(4) . . .
51(4) . . .
52(4) . . .
42.0(33) . . .
49(4) . . .
42(4) . . .
49(4) . . .
46(4) . . .
42.1(34) . . .
48(4) . . .
45(4) . . .
45(4) . . .
48(4) . . .
41(4) . . .
49(4) . . .
50(4) . . .
52(4) . . .
54(4) . . .
47(4) . . .
59(4) . . .
46.9(35) . . .
48(4) . . .
43(4) . . .
51(4) . . .
42.8(34) . . .
47(4) . . .
37.0(32) . . .
40.9(34) . . .
37.8(32) . . .
58(4) . . .
53(4) . . .
47(4) . . .
49(4) . . .
48(4) . . .
42.0(34) . . .
47(4) . . .
43(4) . . .
39.6(35) . . .
51(4) . . .
41.9(34) . . .
36.5(33) . . .
44(4) . . .
39.7(34) . . .
48(4) . . .
40.3(34) . . .
51(4) . . .
52(4) . . .
60(4) . . .
44.5(35) . . .
46(4) . . .
46(4) . . .
44(4) . . .
52(4) . . .
51(4) . . .
47(4) . . .
47(4) . . .
48(4) . . .
58(4) . . .
43.3(34) . . .
51(4) . . .
46(4) . . .
46(4) . . .
46(4) . . .
48(4) . . .
48(4) . . .
44(4) . . .
37.4(33) . . .
46(4) . . .
53(4) . . .
44(4) . . .
44(4) . . .
46(4) . . .
50(4) . . .
51(4) . . .
54(4) . . .
37.6(33) . . .
47(4) . . .
50(4) . . .
34.6(31) . . .
43.4(35) . . .
48(4) . . .
51(4) . . .
51(4) . . .
51(4) . . .
52(4) . . .
39.5(33) . . .
46(4) . . .
52(4) . . .
35.1(31) . . .
49(4) . . .
59(4) . . .
48(4) . . .
48(4) . . .
42.1(34) . . .
47(4) . . .
48(4) . . .
40.4(34) . . .
48(4) . . .
39.8(33) . . .
41.3(35) . . .
44(4) . . .
38.2(33) . . .
45.8(35) . . .
44(4) . . .
48(4) . . .
48(4) . . .
44.5(34) . . .
40.8(33) . . .
37.7(35) . . .
38.3(33) . . .
43(4) . . .
50(4) . . .
54(4) . . .
52(4) . . .
43.5(34) . . .
44(4) . . .
51(4) . . .
49(4) . . .
50(4) . . .
59(4) . . .
49(4) . . .
44(4) . . .
57(4) . . .
55(4) . . .
57(4) . . .
48(4) . . .
44.0(35) . . .
41.7(34) . . .
45(4) . . .
44(4) . . .
43(4) . . .
38.8(33) . . .
53(4) . . .
47(4) . . .
49(4) . . .
38.7(34) . . .
45(4) . . .
43.3(34) . . .
36.0(32) . . .
47(4) . . .
41(4) . . .
49(4) . . .
43(4) . . .
41.6(35) . . .
46(4) . . .
41.2(35) . . .
44.9(34) . . .
44(4) . . .
48(4) . . .
46(4) . . .
47(4) . . .
42.3(34) . . .
45(4) . . .
42(4) . . .
43(4) . . .
45(4) . . .
54(4) . . .
40.0(34) . . .
43(4) . . .
46(4) . . .
41.0(35) . . .
53(4) . . .
43(4) . . .
45(4) . . .
44.6(35) . . .
46(4) . . .
53(4) . . .
50(4) . . .
45(4) . . .
39.5(35) . . .
49(4) . . .
43.0(34) . . .
49(4) . . .
50(4) . . .
49(4) . . .
37.7(33) . . .
45.0(35) . . .
48(4) . . .
49(4) . . .
48(4) . . .
44.9(35) . . .
47(4) . . .
49(4) . . .
46(4) . . .
43(4) . . .
49(4) . . .
50(4) . . .
47(4) . . .
45(4) . . .
47(4) . . .
47(4) . . .
45(4) . . .
43(4) . . .
47(4) . . .
34.1(31) . . .
40.8(34) . . .
47(4) . . .
36.7(32) . . .
39(4) . . .
51(4) . . .
55(4) . . .
52(4) . . .
51(4) . . .
47(4) . . .
40.5(35) . . .
41.5(34) . . .
51(4) . . .
50(4) . . .
48(4) . . .
52(4) . . .
47(4) . . .
45(4) . . .
53(4) . . .
47(4) . . .
53(4) . . .
49(4) . . .
44(4) . . .
52(4) . . .
50(4) . . .
53(4) . . .
55(4) . . .
50(4) . . .
46(4) . . .
49(4) . . .
42.8(34) . . .
48(4) . . .
47(4) . . .
40(4) . . .
38.9(34) . . .
36.3(32) . . .
36.9(31) . . .
38.4(32) . . .
46(4) . . .
45(4) . . .
50(4) . . .
52(4) . . .
40.7(34) . . .
41(4) . . .
42.3(35) . . .
45(4) . . .
52(4) . . .
47(4) . . .
52(4) . . .
42(4) . . .
46(4) . . .
48(4) . . .
41.6(35) . . .
52(4) . . .
51(4) . . .
46(4) . . .
43(4) . . .
45(4) . . .
46(4) . . .
50(4) . . .
47(4) . . .
45(4) . . .
39.1(33) . . .
49(4) . . .
49(4) . . .
42.0(34) . . .
34.1(31) . . .
44(4) . . .
53(4) . . .
59(4) . . .
55(4) . . .
53(4) . . .
44.1(35) . . .
51(4) . . .
45(4) . . .
48(4) . . .
46(4) . . .
50(4) . . .
44(4) . . .
41.4(34) . . .
38.4(32) . . .
55(4) . . .
46(4) . . .
49(4) . . .
51(4) . . .
41.2(33) . . .
39.4(33) . . .
44(4) . . .
49(4) . . .
49(4) . . .
40.3(33) . . .
37.4(32) . . .
43(4) . . .
51(4) . . .
46(4) . . .
58(4) . . .
47(4) . . .
43(4) . . .
47(4) . . .
42.2(34) . . .
48(4) . . .
58(4) . . .
49(4) . . .
46(4) . . .
50(4) . . .
43(4) . . .
49(4) . . .
49(4) . . .
46(4) . . .
48(4) . . .
38.0(33) . . .
52(4) . . .
54(4) . . .
44.0(35) . . .
45.2(35) . . .
55(4) . . .
51(4) . . .
45(4) . . .
48(4) . . .
50(4) . . .
45(4) . . .
44(4) . . .
44(4) . . .
51(4) . . .
45(4) . . .
47(4) . . .
49(4) . . .
54(4) . . .
46(4) . . .
45(4) . . .
38.6(34) . . .
41.8(34) . . .
42.8(34) . . .
47(4) . . .
42.5(34) . . .
41.6(34) . . .
47(4) . . .
45(4) . . .
55(4) . . .
56(4) . . .
46(4) . . .
43(4) . . .
53(4) . . .
53(4) . . .
50(4) . . .
39.8(35) . . .
43(4) . . .
35.8(32) . . .
35.8(31) . . .
37.9(32) . . .
46(4) . . .
50(4) . . .
50(4) . . .
48(4) . . .
42.1(34) . . .
42.0(35) . . .
42(4) . . .
37(4) . . .
42.0(34) . . .
41.2(33) . . .
50(4) . . .
50(4) . . .
42.8(34) . . .
35.5(31) . . .
48(4) . . .
40.5(34) . . .
42.9(35) . . .
46(4) . . .
43.0(34) . . .
50(4) . . .
44(4) . . .
45.3(34) . . .
50(4) . . .
43.3(34) . . .
40.2(34) . . .
46(4) . . .
44(4) . . .
49(4) . . .
41.0(33) . . .
47(4) . . .
46(4) . . .
40.0(34) . . .
43.5(35) . . .
46(4) . . .
41.9(35) . . .
48(4) . . .
43(4) . . .
54(4) . . .
52(4) . . .
48(4) . . .
43(4) . . .
46(4) . . .
45.4(35) . . .
39.4(32) . . .
42.2(34) . . .
38.8(35) . . .
44(4) . . .
50(4) . . .
47(4) . . .
52(4) . . .
50(4) . . .
52(4) . . .
54(4) . . .
40.7(33) . . .
46(4) . . .
57(4) . . .
49(4) . . .
56(4) . . .
44(4) . . .
42.9(34) . . .
37.6(33) . . .
56(4) . . .
39.7(32) . . .
31.4(30) . . .
31.5(32) . . .
46(4) . . .
54(4) . . .
46(4) . . .
40.8(34) . . .
35.2(31) . . .
43(4) . . .
34.3(30) . . .
46(4) . . .
45(4) . . .
46(4) . . .
52(4) . . .
61(4) . . .
50(4) . . .
44(4) . . .
46(4) . . .
46(4) . . .
38.2(33) . . .
50(4) . . .
48(4) . . .
49(4) . . .
53(4) . . .
40.6(33) . . .
34.6(31) . . .
51(4) . . .
45(4) . . .
45(4) . . .
40.0(33) . . .
42.0(33) . . .
43(4) . . .
43(4) . . .
38.2(34) . . .
47(4) . . .
50(4) . . .
56(4) . . .
49(4) . . .
49(4) . . .
50(4) . . .
56(4) . . .
54(4) . . .
48(4) . . .
46(4) . . .
39.8(33) . . .
47(4) . . .
48(4) . . .
44(4) . . .
36.4(32) . . .
41.4(33) . . .
47(4) . . .
50(4) . . .
46(4) . . .
49(4) . . .
44.8(35) . . .
45(4) . . .
43.4(34) . . .
59(4) . . .
48(4) . . .
43.3(34) . . .
44.6(35) . . .
53(4) . . .
51(4) . . .
47(4) . . .
34.9(31) . . .
44.7(35) . . .
41.8(34) . . .
49(4) . . .
44.2(34) . . .
55(4) . . .
51(4) . . .
47(4) . . .
45(4) . . .
47(4) . . .
44.3(34) . . .
51(4) . . .
49(4) . . .
38.4(33) . . .
53(4) . . .
49(4) . . .
52(4) . . .
48(4) . . .
54(4) . . .
41.7(34) . . .
60(4) . . .
54(4) . . .
51(4) . . .
44(4) . . .
47(4) . . .
43(4) . . .
49(4) . . .
50(4) . . .
57(4) . . .
58(4) . . .
49(4) . . .
33.8(30) . . .
48(4) . . .
39.0(33) . . .
44.0(35) . . .
53(4) . . .
48(4) . . .
46(4) . . .
55(4) . . .
57(4) . . .
51(4) . . .
48(4) . . .
39.8(34) . . .
57(4) . . .
41.2(34) . . .
41.2(35) . . .
41(4) . . .
49(4) . . .
46(4) . . .
46(4) . . .
31.8(29) . . .
41(4) . . .
49(4) . . .
43.0(34) . . .
41.9(34) . . .
50(4) . . .
49(4) . . .
60(4) . . .
59(4) . . .
47(4) . . .
44(4) . . .
40(4) . . .
46(4) . . .
50(4) . . .
49(4) . . .
56(4) . . .
42(4) . . .
53(4) . . .
45.0(35) . . .
43.2(34) . . .
36.0(31) . . .
39.4(34) . . .
43(4) . . .
48(4) . . .
46(4) . . .
38(4) . . .
43(4) . . .
47(4) . . .
39.1(32) . . .
50(4) . . .
50(4) . . .
49(4) . . .
47(4) . . .
51(4) . . .
53(4) . . .
43(4) . . .
45(4) . . .
50(4) . . .
44.2(35) . . .
42(4) . . .
44.1(35) . . .
58(4) . . .
46(4) . . .
50(4) . . .
50(4) . . .
51(4) . . .
40.6(33) . . .
42.0(34) . . .
56(4) . . .
50(4) . . .
49(4) . . .
48(4) . . .
42.8(34) . . .
48(4) . . .
63(4) . . .
58(4) . . .
56(4) . . .
45.6(35) . . .
54(4) . . .
43(4) . . .
44(4) . . .
52(4) . . .
45.5(35) . . .
41.9(35) . . .
48(4) . . .
43.4(35) . . .
51(4) . . .
36.6(32) . . .
46.0(35) . . .
49(4) . . .
51(4) . . .
44(4) . . .
45(4) . . .
37.9(33) . . .
41.8(34) . . .
50(4) . . .
40.7(34) . . .
44.7(35) . . .
53(4) . . .
46(4) . . .
53(4) . . .
47(4) . . .
50(4) . . .
37.9(32) . . .
49(4) . . .
43(4) . . .
39.8(34) . . .
39.1(32) . . .
37.4(35) . . .
41(4) . . .
52(4) . . .
42(4) . . .
49(4) . . .
47(4) . . .
49(4) . . .
42.2(35) . . .
52(4) . . .
54(4) . . .
48(4) . . .
47(4) . . .
41(4) . . .
41.2(34) . . .
49(4) . . .
43(4) . . .
42(4) . . .
46(4) . . .
43.7(34) . . .
42.9(34) . . .
46(4) . . .
48(4) . . .
35.8(31) . . .
51(4) . . .
44.0(35) . . .
48(4) . . .
47(4) . . .
42.3(34) . . .
48(4) . . .
50(4) . . .
43.5(34) . . .
48(4) . . .
49(4) . . .
47(4) . . .
52(4) . . .
53(4) . . .
52(4) . . .
53(4) . . .
42.7(34) . . .
46(4) . . .
49(4) . . .
44(4) . . .
53(4) . . .
44.5(35) . . .
48(4) . . .
46(4) . . .
58(4) . . .
39.3(33) . . .
49(4) . . .
47(4) . . .
43(4) . . .
48(4) . . .
51(4) . . .
50(4) . . .
49(4) . . .
40.0(34) . . .
53(4) . . .
48(4) . . .
43.3(34) . . .
36.6(33) . . .
36.2(35) . . .
38.0(35) . . .
47(4) . . .
45(4) . . .
39.9(34) . . .
37.7(32) . . .
39.0(33) . . .
39.9(33) . . .
45(4) . . .
48(4) . . .
45(4) . . .
46(4) . . .
48(4) . . .
48(4) . . .
44(4) . . .
41(4) . . .
48(4) . . .
50(4) . . .
40.5(34) . . .
43(4) . . .
45(4) . . .
37.5(33) . . .
49(4) . . .
48(4) . . .
48(4) . . .
54(4) . . .
54(4) . . .
45(4) . . .
45(4) . . .
47(4) . . .
48(4) . . .
48(4) . . .
45(4) . . .
50(4) . . .
47(4) . . .
42.3(34) . . .
49(4) . . .
43.6(34) . . .
42.7(34) . . .
47(4) . . .
47(4) . . .
60(4) . . .
43.0(34) . . .
50(4) . . .
47(4) . . .
49(4) . . .
54(4) . . .
50(4) . . .
42.7(34) . . .
41.4(35) . . .
44.0(35) . . .
50(4) . . .
45(4) . . .
38.4(32) . . .
44(4) . . .
50(4) . . .
42.7(35) . . .
43.1(35) . . .
51(4) . . .
49(4) . . .
52(4) . . .
38.9(33) . . .
49(4) . . .
36.5(33) . . .
47(4) . . .
36.4(34) . . .
40.7(34) . . .
45.5(35) . . .
54(4) . . .
44(4) . . .
51(4) . . .
52(4) . . .
60(4) . . .
50(4) . . .
44(4) . . .
46(4) . . .
51(4) . . .
48(4) . . .
48(4) . . .
40(4) . . .
45(4) . . .
44.3(35) . . .
47(4) . . .
48(4) . . .
46(4) . . .
31.6(30) . . .
57(4) . . .
49(4) . . .
42.8(34) . . .
41(4) . . .
54(4) . . .
49(4) . . .
55(4) . . .
50(4) . . .
43(4) . . .
45(4) . . .
47(4) . . .
40.3(34) . . .
50(4) . . .
45.4(35) . . .
52(4) . . .
42.2(34) . . .
42.4(34) . . .
57(4) . . .
54(4) . . .
53(4) . . .
52(4) . . .
46(4) . . .
36.0(32) . . .
37.1(31) . . .
42.4(34) . . .
38.8(32) . . .
43(4) . . .
46(4) . . .
51(4) . . .
58(4) . . .
56(4) . . .
44(4) . . .
49(4) . . .
49(4) . . .
52(4) . . .
41.9(34) . . .
45(4) . . .
43(4) . . .
49(4) . . .
54(4) . . .
46(4) . . .
51(4) . . .
46(4) . . .
57(4) . . .
44.2(35) . . .
50(4) . . .
52(4) . . .
47(4) . . .
49(4) . . .
39.6(33) . . .
43.0(35) . . .
47(4) . . .
50(4) . . .
47(4) . . .
43.8(35) . . .
53(4) . . .
47(4) . . .
42.2(33) . . .
40.7(35) . . .
38.7(32) . . .
46(4) . . .
46(4) . . .
40(4) . . .
38.9(32) . . .
53(4) . . .
48(4) . . .
41(4) . . .
44(4) . . .
44(4) . . .
50(4) . . .
52(4) . . .
49(4) . . .
49(4) . . .
42.8(34) . . .
49(4) . . .
50(4) . . .
51(4) . . .
43.1(35) . . .
49(4) . . .
47(4) . . .
45(4) . . .
50(4) . . .
43.3(35) . . .
39.2(32) . . .
48(4) . . .
54(4) . . .
47(4) . . .
38.1(34) . . .
46(4) . . .
40.4(33) . . .
48(4) . . .
43(4) . . .
47(4) . . .
43.6(34) . . .
48(4) . . .
48(4) . . .
54(4) . . .
51(4) . . .
44.1(35) . . .
48(4) . . .
44(4) . . .
53(4) . . .
42.2(35) . . .
49(4) . . .
48(4) . . .
58(4) . . .
51(4) . . .
40.3(33) . . .
44.3(35) . . .
42.8(34) . . .
49(4) . . .
53(4) . . .
48(4) . . .
43.0(34) . . .
41.5(35) . . .
51(4) . . .
41.5(35) . . .
46(4) . . .
47(4) . . .
38.5(33) . . .
50(4) . . .
47(4) . . .
47(4) . . .
40.5(33) . . .
46(4) . . .
53(4) . . .
41.5(34) . . .
44.9(34) . . .
56(4) . . .
44.3(35) . . .
49(4) . . .
47(4) . . .
46.4(35) . . .
44(4) . . .
37.2(32) . . .
44(4) . . .
44(4) . . .
50(4) . . .
48(4) . . .
52(4) . . .
50(4) . . .
39.2(33) . . .
50(4) . . .
47(4) . . .
40.9(34) . . .
48(4) . . .
52(4) . . .
40.5(33) . . .
42.2(35) . . .
50(4) . . .
42(4) . . .
40.7(35) . . .
50(4) . . .
51(4) . . .
43(4) . . .
47(4) . . .
41.1(34) . . .
38.2(32) . . .
36.6(32) . . .
44(4) . . .
41(4) . . .
46(4) . . .
51(4) . . .
39.2(32) . . .
46(4) . . .
52(4) . . .
53(4) . . .
47(4) . . .
47(4) . . .
44.1(35) . . .
45(4) . . .
40.3(33) . . .
45.0(35) . . .
43.1(34) . . .
51(4) . . .
48(4) . . .
47(4) . . .
53(4) . . .
45(4) . . .
49(4) . . .
50(4) . . .
39.2(33) . . .
37.8(31) . . .
33.9(33) . . .
38(4) . . .
45(4) . . .
41.0(34) . . .
48(4) . . .
39.2(33) . . .
45(4) . . .
49(4) . . .
40.0(33) . . .
40.7(33) . . .
47(4) . . .
35.5(32) . . .
48(4) . . .
43.4(35) . . .
46(4) . . .
39.2(33) . . .
47(4) . . .
40.4(33) . . .
53(4) . . .
47(4) . . .
47(4) . . .
52(4) . . .
41(4) . . .
46(4) . . .
51(4) . . .
45(4) . . .
47(4) . . .
40.3(33) . . .
51(4) . . .
42.8(35) . . .
45(4) . . .
42.4(34) . . .
54(4) . . .
48(4) . . .
50(4) . . .
42(4) . . .
43(4) . . .
42(4) . . .
51(4) . . .
44(4) . . .
49(4) . . .
49(4) . . .
50(4) . . .
45.8(35) . . .
51(4) . . .
51(4) . . .
48(4) . . .
43(4) . . .
39.4(32) . . .
46(4) . . .
44(4) . . .
51(4) . . .
37.6(32) . . .
58(4) . . .
49(4) . . .
47(4) . . .
44(4) . . .
50(4) . . .
50(4) . . .
41.3(34) . . .
43(4) . . .
38.5(34) . . .
43.0(34) . . .
47(4) . . .
47(4) . . .
47(4) . . .
56(4) . . .
50(4) . . .
41.6(34) . . .
53(4) . . .
49(4) . . .
53(4) . . .
42.4(35) . . .
44(4) . . .
47(4) . . .
38.8(32) . . .
49(4) . . .
50(4) . . .
50(4) . . .
48(4) . . .
45(4) . . .
44(4) . . .
43.9(35) . . .
52(4) . . .
55(4) . . .
51(4) . . .
47(4) . . .
45(4) . . .
45(4) . . .
51(4) . . .
43.0(34) . . .
49(4) . . .
33.8(31) . . .
48(4) . . .
51(4) . . .
40.3(33) . . .
51(4) . . .
52(4) . . .
43(4) . . .
48(4) . . .
49(4) . . .
50(4) . . .
41.0(34) . . .
50(4) . . .
41(4) . . .
46(4) . . .
43.4(35) . . .
45.0(35) . . .
45(4) . . .
41.6(35) . . .
43(4) . . .
35.7(31) . . .
44(4) . . .
45(4) . . .
45(4) . . .
50(4) . . .
47(4) . . .
44(4) . . .
48(4) . . .
48(4) . . .
50(4) . . .
40.6(33) . . .
45(4) . . .
47(4) . . .
39.0(34) . . .
49(4) . . .
39.2(33) . . .
40.5(34) . . .
30.6(30) . . .
44(4) . . .
39.5(33) . . .
44.6(34) . . .
51(4) . . .
42(4) . . .
42(4) . . .
47(4) . . .
43.5(35) . . .
50(4) . . .
45(4) . . .
47(4) . . .
56(4) . . .
46(4) . . .
50(4) . . .
42(4) . . .
42(4) . . .
38.8(34) . . .
47(4) . . .
41.6(34) . . .
52(4) . . .
48(4) . . .
47(4) . . .
54(4) . . .
46(4) . . .
46(4) . . .
51(4) . . .
49(4) . . .
41.4(33) . . .
45(4) . . .
47(4) . . .
47(4) . . .
40.5(33) . . .
46(4) . . .
50(4) . . .
53(4) . . .
50(4) . . .
48(4) . . .
44.3(34) . . .
51(4) . . .
49(4) . . .
45(4) . . .
45.2(35) . . .
46(4) . . .
44(4) . . .
49(4) . . .
51(4) . . .
53(4) . . .
51(4) . . .
51(4) . . .
53(4) . . .
51(4) . . .
44.1(35) . . .
43.1(34) . . .
48(4) . . .
46(4) . . .
51(4) . . .
48(4) . . .
37.8(32) . . .
40.0(34) . . .
48(4) . . .
50(4) . . .
50(4) . . .
39.7(35) . . .
44(4) . . .
45(4) . . .
48(4) . . .
49(4) . . .
46(4) . . .
46(4) . . .
42.6(35) . . .
58(4) . . .
45(4) . . .
41.2(35) . . .
43(4) . . .
46(4) . . .
51(4) . . .
46(4) . . .
54(4) . . .
52(4) . . .
52(4) . . .
51(4) . . .
46(4) . . .
48(4) . . .
46(4) . . .
62(4) . . .
50(4) . . .
43.0(35) . . .
43.8(35) . . .
44(4) . . .
51(4) . . .
46(4) . . .
46(4) . . .
47(4) . . .
50(4) . . .
48(4) . . .
41.0(33) . . .
45(4) . . .
48(4) . . .
38.3(34) . . .
54(4) . . .
44(4) . . .
47(4) . . .
47(4) . . .
49(4) . . .
49(4) . . .
36.3(31) . . .
52(4) . . .
52(4) . . .
56(4) . . .
42.0(34) . . .
45(4) . . .
45(4) . . .
51(4) . . .
57(4) . . .
48(4) . . .
43.3(34) . . .
42(4) . . .
50(4) . . .
52(4) . . .
50(4) . . .
49(4) . . .
41.6(34) . . .
46(4) . . .
44.4(35) . . .
41.9(34) . . .
43.6(34) . . .
48(4) . . .
46(4) . . .
46(4) . . .
45(4) . . .
41.8(34) . . .
40.2(34) . . .
38(4) . . .
47(4) . . .
48(4) . . .
52(4) . . .
58(4) . . .
49(4) . . .
48(4) . . .
45.5(35) . . .
45(4) . . .
42.0(33) . . .
41.5(35) . . .
52(4) . . .
52(4) . . .
47(4) . . .
43.6(34) . . .
48(4) . . .
41.5(34) . . .
44.8(35) . . .
45.5(35) . . .
53(4) . . .
50(4) . . .
41.5(34) . . .
52(4) . . .
42.1(34) . . .
51(4) . . .
44(4) . . .
44.0(35) . . .
46.6(35) . . .
50(4) . . .
42(4) . . .
51(4) . . .
50(4) . . .
43.4(34) . . .
56(4) . . .
54(4) . . .
58(4) . . .
50(4) . . .
43.4(34) . . .
49(4) . . .
48(4) . . .
44(4) . . .
59(4) . . .
56(4) . . .
49(4) . . .
47(4) . . .
49(4) . . .
48(4) . . .
52(4) . . .
57(4) . . .
44(4) . . .
37.8(34) . . .
38.2(32) . . .
51(4) . . .
43(4) . . .
42(4) . . .
52(4) . . .
50(4) . . .
51(4) . . .
51(4) . . .
52(4) . . .
47(4) . . .
46(4) . . .
38.2(32) . . .
45(4) . . .
54(4) . . .
42.7(34) . . .
53(4) . . .
51(4) . . .
49(4) . . .
50(4) . . .
40.1(34) . . .
40.5(33) . . .
49(4) . . .
51(4) . . .
55(4) . . .
50(4) . . .
46(4) . . .
44(4) . . .
48(4) . . .
39.8(32) . . .
49(4) . . .
45(4) . . .
36.0(32) . . .
46(4) . . .
43.8(35) . . .
38.9(33) . . .
47(4) . . .
44(4) . . .
39.3(34) . . .
53(4) . . .
45.7(35) . . .
53(4) . . .
49(4) . . .
40.6(35) . . .
42.7(35) . . .
51(4) . . .
50(4) . . .
44(4) . . .
49(4) . . .
48(4) . . .
55(4) . . .
45.9(35) . . .
49(4) . . .
44(4) . . .
37.7(33) . . .
53(4) . . .
46(4) . . .
52(4) . . .
53(4) . . .
54(4) . . .
53(4) . . .
48(4) . . .
46(4) . . .
40(4) . . .
53(4) . . .
42.7(34) . . .
40.5(34) . . .
46(4) . . .
53(4) . . .
47(4) . . .
52(4) . . .
44(4) . . .
42(4) . . .
51(4) . . .
58(4) . . .
54(4) . . .
52(4) . . .
42.0(34) . . .
48(4) . . .
44.8(35) . . .
43.8(34) . . .
54(4) . . .
53(4) . . .
52(4) . . .
54(4) . . .
45.3(35) . . .
42(4) . . .
49(4) . . .
49(4) . . .
46(4) . . .
42.2(34) . . .
39.2(32) . . .
56(4) . . .
47(4) . . .
42.3(34) . . .
44.8(34) . . .
52(4) . . .
52(4) . . .
55(4) . . .
54(4) . . .
51(4) . . .
54(4) . . .
43(4) . . .
45(4) . . .
46(4) . . .
46(4) . . .
41.0(34) . . .
43.7(35) . . .
52(4) . . .
41.8(34) . . .
49(4) . . .
46(4) . . .
54(4) . . .
54(4) . . .
49(4) . . .
48(4) . . .
47(4) . . .
45(4) . . .
47(4) . . .
41.0(33) . . .
46(4) . . .
36.9(31) . . .
38.0(32) . . .
33.4(30) . . .
41.7(34) . . .
47(4) . . .
48(4) . . .
47(4) . . .
45.0(35) . . .
55(4) . . .
51(4) . . .
49(4) . . .
45(4) . . .
45.1(35) . . .
55(4) . . .
48(4) . . .
36.8(33) . . .
31.1(29) . . .
37.4(32) . . .
50(4) . . .
36.5(31) . . .
45(4) . . .
50(4) . . .
45.5(35) . . .
46(4) . . .
42(4) . . .
42(4) . . .
49(4) . . .
41.8(34) . . .
45(4) . . .
42.4(34) . . .
47(4) . . .
49(4) . . .
47(4) . . .
60(4) . . .
50(4) . . .
46(4) . . .
43(4) . . .
40.3(33) . . .
38.3(32) . . .
42(4) . . .
45(4) . . .
43.0(34) . . .
46(4) . . .
40.4(34) . . .
44(4) . . .
59(4) . . .
43(4) . . .
43.8(34) . . .
42.7(35) . . .
45(4) . . .
41.7(35) . . .
45.1(35) . . .
40.8(33) . . .
50(4) . . .
46(4) . . .
55(4) . . .
47(4) . . .
37.9(32) . . .
49(4) . . .
51(4) . . .
39.3(35) . . .
42.6(34) . . .
56(4) . . .
45(4) . . .
39.2(35) . . .
43(4) . . .
34.5(31) . . .
51(4) . . .
42(4) . . .
46(4) . . .
44(4) . . .
40.0(33) . . .
48(4) . . .
43.8(35) . . .
42.1(35) . . .
50(4) . . .
49(4) . . .
50(4) . . .
44(4) . . .
45(4) . . .
39.9(33) . . .
42.4(33) . . .
45(4) . . .
51(4) . . .
46(4) . . .
36.8(31) . . .
46(4) . . .
52(4) . . .
47(4) . . .
41.9(34) . . .
36.3(32) . . .
46(4) . . .
57(4) . . .
48(4) . . .
50(4) . . .
42.9(34) . . .
61(4) . . .
42(4) . . .
53(4) . . .
49(4) . . .
48(4) . . .
55(4) . . .
42.9(35) . . .
49(4) . . .
47(4) . . .
45(4) . . .
39.6(33) . . .
44(4) . . .
52(4) . . .
52(4) . . .
46(4) . . .
42.8(34) . . .
34.8(31) . . .
41.8(35) . . .
44(4) . . .
41.9(34) . . .
49(4) . . .
48(4) . . .
42(4) . . .
40.7(34) . . .
46.6(35) . . .
47(4) . . .
44(4) . . .
42(4) . . .
49(4) . . .
51(4) . . .
43(4) . . .
39.6(33) . . .
53(4) . . .
46(4) . . .
45(4) . . .
42.7(34) . . .
50(4) . . .
40(4) . . .
46(4) . . .
43.7(35) . . .
37.0(32) . . .
50(4) . . .
44(4) . . .
46(4) . . .
48(4) . . .
50(4) . . .
46(4) . . .
49(4) . . .
55(4) . . .
56(4) . . .
51(4) . . .
40.7(34) . . .
43(4) . . .
34.3(30) . . .
49(4) . . .
54(4) . . .
45(4) . . .
58(4) . . .
45(4) . . .
42.3(34) . . .
49(4) . . .
53(4) . . .
49(4) . . .
41.8(34) . . .
39.2(33) . . .
39.1(34) . . .
44(4) . . .
46(4) . . .
50(4) . . .
47(4) . . .
55(4) . . .
49(4) . . .
42(4) . . .
39.3(34) . . .
52(4) . . .
43(4) . . .
50(4) . . .
43.1(35) . . .
47(4) . . .
41.5(34) . . .
43(4) . . .
56(4) . . .
64(4) . . .
51(4) . . .
48(4) . . .
49(4) . . .
43(4) . . .
45(4) . . .
47(4) . . .
55(4) . . .
44(4) . . .
48(4) . . .
40.1(33) . . .
52(4) . . .
39.6(33) . . .
47(4) . . .
39.1(34) . . .
54(4) . . .
50(4) . . .
48(4) . . .
52(4) . . .
46(4) . . .
37.4(32) . . .
46(4) . . .
49(4) . . .
48(4) . . .
44.6(35) . . .
50(4) . . .
49(4) . . .
47(4) . . .
44(4) . . .
36.8(33) . . .
45(4) . . .
47(4) . . .
52(4) . . .
45(4) . . .
39.5(32) . . .
52(4) . . .
55(4) . . .
51(4) . . .
43(4) . . .
39.3(32) . . .
39.0(32) . . .
49(4) . . .
45(4) . . .
49(4) . . .
45(4) . . .
42.2(34) . . .
38.9(33) . . .
40.4(35) . . .
49(4) . . .
43.3(35) . . .
47(4) . . .
41.5(33) . . .
49(4) . . .
51(4) . . .
51(4) . . .
55(4) . . .
51(4) . . .
50(4) . . .
41.8(34) . . .
55(4) . . .
51(4) . . .
43.8(35) . . .
50(4) . . .
46(4) . . .
53(4) . . .
47(4) . . .
43.3(35) . . .
47(4) . . .
43.6(35) . . .
51(4) . . .
54(4) . . .
48(4) . . .
44(4) . . .
43(4) . . .
45(4) . . .
47(4) . . .
52(4) . . .
52(4) . . .
49(4) . . .
44.3(34) . . .
45(4) . . .
47(4) . . .
47(4) . . .
45(4) . . .
55(4) . . .
42.6(34) . . .
45(4) . . .
38.7(33) . . .
41(4) . . .
46(4) . . .
45(4) . . .
38.7(34) . . .
44(4) . . .
45(4) . . .
40.8(34) . . .
58(4) . . .
51(4) . . .
45(4) . . .
53(4) . . .
45.5(35) . . .
43.1(34) . . .
46(4) . . .
43(4) . . .
43.3(35) . . .
42.3(34) . . .
49(4) . . .
50(4) . . .
44.1(34) . . .
46(4) . . .
48(4) . . .
48(4) . . .
46(4) . . .
52(4) . . .
45(4) . . .
46(4) . . .
42(4) . . .
46(4) . . .
54(4) . . .
51(4) . . .
39.9(33) . . .
40.3(34) . . .
34.0(32) . . .
43(4) . . .
44.0(35) . . .
37.7(32) . . .
47(4) . . .
42(4) . . .
35.8(31) . . .
47(4) . . .
45(4) . . .
48(4) . . .
35.5(32) . . .
54(4) . . .
37.8(32) . . .
44(4) . . .
41(4) . . .
42(4) . . .
52(4) . . .
54(4) . . .
44.2(35) . . .
44(4) . . .
40(4) . . .
52(4) . . .
48(4) . . .
56(4) . . .
53(4) . . .
48(4) . . .
43(4) . . .
43.7(35) . . .
43.2(34) . . .
50(4) . . .
43(4) . . .
35.7(33) . . .
41.3(33) . . .
49(4) . . .
40.7(32) . . .
49(4) . . .
43.3(34) . . .
56(4) . . .
45(4) . . .
48(4) . . .
46(4) . . .
50(4) . . .
49(4) . . .
48(4) . . .
48(4) . . .
48(4) . . .
43(4) . . .
40.1(33) . . .
58(4) . . .
41.7(34) . . .
47(4) . . .
41(4) . . .
47(4) . . .
48(4) . . .
47(4) . . .
43(4) . . .
38.7(33) . . .
50(4) . . .
39.2(34) . . .
50(4) . . .
46(4) . . .
46(4) . . .
47(4) . . .
42.2(35) . . .
48(4) . . .
51(4) . . .
43.0(34) . . .
61(4) . . .
43(4) . . .
42(4) . . .
40.8(34) . . .
41.5(33) . . .
48(4) . . .
41.3(34) . . .
40(4) . . .
47(4) . . .
50(4) . . .
42.4(33) . . .
40(4) . . .
46(4) . . .
49(4) . . .
40.5(33) . . .
44.4(34) . . .
39.6(32) . . .
51(4) . . .
53(4) . . .
46(4) . . .
51(4) . . .
37.8(34) . . .
43(4) . . .
45(4) . . .
43(4) . . .
45(4) . . .
49(4) . . .
38.4(32) . . .
49(4) . . .
42.8(33) . . .
58(4) . . .
49(4) . . .
52(4) . . .
45(4) . . .
43.7(35) . . .
58(4) . . .
65(5) . . .
40.0(34) . . .
44(4) . . .
43.6(35) . . .
48(4) . . .
58(4) . . .
46(4) . . .
47(4) . . .
51(4) . . .
35.3(31) . . .
49(4) . . .
46(4) . . .
47(4) . . .
46.3(35) . . .
41.2(34) . . .
48(4) . . .
45(4) . . .
40.4(33) . . .
45.0(35) . . .
44.3(35) . . .
52(4) . . .
46(4) . . .
52(4) . . .
48(4) . . .
48(4) . . .
45(4) . . .
47(4) . . .
43.6(35) . . .
53(4) . . .
44(4) . . .
31.6(29) . . .
46(4) . . .
41.7(34) . . .
53(4) . . .
52(4) . . .
50(4) . . .
51(4) . . .
41.8(34) . . .
41.6(33) . . .
37.1(32) . . .
41.1(34) . . .
47(4) . . .
47(4) . . .
45(4) . . .
49(4) . . .
44(4) . . .
48(4) . . .
59(4) . . .
52(4) . . .
42(4) . . .
56(4) . . .
42.3(34) . . .
46(4) . . .
49(4) . . .
42.8(34) . . .
46(4) . . .
43.8(35) . . .
45(4) . . .
45(4) . . .
46(4) . . .
58(4) . . .
52(4) . . .
43.5(34) . . .
62(4) . . .
53(4) . . .
44(4) . . .
47(4) . . .
50(4) . . .
49(4) . . .
45(4) . . .
46(4) . . .
48(4) . . .
44.5(34) . . .
48(4) . . .
35.9(32) . . .
41.2(33) . . .
53(4) . . .
39.4(34) . . .
39.2(34) . . .
50(4) . . .
42(4) . . .
49(4) . . .
53(4) . . .
34.5(30) . . .
53(4) . . .
48(4) . . .
44.4(34) . . .
52(4) . . .
52(4) . . .
49(4) . . .
50(4) . . .
46(4) . . .
40.1(33) . . .
39.0(33) . . .
47(4) . . .
45(4) . . .
43.6(34) . . .
41.0(33) . . .
50(4) . . .
43(4) . . .
49(4) . . .
46(4) . . .
47(4) . . .
44(4) . . .
56(4) . . .
42(4) . . .
50(4) . . .
41.0(33) . . .
44(4) . . .
47(4) . . .
52(4) . . .
43.2(34) . . .
44(4) . . .
47(4) . . .
45(4) . . .
44.4(34) . . .
48(4) . . .
47(4) . . .
52(4) . . .
45(4) . . .
46.9(35) . . .
46(4) . . .
45(4) . . .
53(4) . . .
49(4) . . .
46(4) . . .
48(4) . . .
54(4) . . .
52(4) . . .
43(4) . . .
54(4) . . .
50(4) . . .
48(4) . . .
49(4) . . .
49(4) . . .
47(4) . . .
40.8(33) . . .
40.1(33) . . .
45(4) . . .
40.5(34) . . .
42.7(34) . . .
43.7(35) . . .
49(4) . . .
52(4) . . .
51(4) . . .
41.8(33) . . .
53(4) . . .
50(4) . . .
50(4) . . .
42.5(34) . . .
47(4) . . .
45.2(35) . . .
41.2(35) . . .
49(4) . . .
41.4(33) . . .
42.6(34) . . .
46(4) . . .
50(4) . . .
47(4) . . .
43.7(35) . . .
40.8(34) . . .
50(4) . . .
44(4) . . .
43(4) . . .
40.8(34) . . .
51(4) . . .
48(4) . . .
41.6(33) . . .
57(4) . . .
51(4) . . .
44(4) . . .
47(4) . . .
52(4) . . .
45(4) . . .
48(4) . . .
53(4) . . .
59(4) . . .
52(4) . . .
42.3(34) . . .
56(4) . . .
53(4) . . .
48(4) . . .
54(4) . . .
47(4) . . .
48(4) . . .
51(4) . . .
55(4) . . .
54(4) . . .
46(4) . . .
54(4) . . .
45(4) . . .
48(4) . . .
52(4) . . .
53(4) . . .
48(4) . . .
44.4(35) . . .
50(4) . . .
50(4) . . .
43.0(34) . . .
46(4) . . .
42.3(34) . . .
32.6(31) . . .
38.9(32) . . .
42.2(34) . . .
57(4) . . .
44.8(35) . . .
41.4(34) . . .
50(4) . . .
49(4) . . .
48(4) . . .
48(4) . . .
55(4) . . .
50(4) . . .
43.1(34) . . .
47(4) . . .
54(4) . . .
52(4) . . .
50(4) . . .
50(4) . . .
51(4) . . .
57(4) . . .
38.5(34) . . .
44(4) . . .
45.5(35) . . .
53(4) . . .
43(4) . . .
48(4) . . .
51(4) . . .
44.2(35) . . .
43.8(34) . . .
42.4(34) . . .
41.4(34) . . .
52(4) . . .
55(4) . . .
41.2(34) . . .
40(4) . . .
33.8(33) . . .
43(4) . . .
43.5(35) . . .
52(4) . . .
56(4) . . .
54(4) . . .
47(4) . . .
39.0(33) . . .
41.9(34) . . .
48(4) . . .
52(4) . . .
48(4) . . .
44.8(35) . . .
47(4) . . .
35.7(30) . . .
43.4(34) . . .
48(4) . . .
46(4) . . .
48(4) . . .
53(4) . . .
46(4) . . .
53(4) . . .
38.2(32) . . .
37.2(32) . . .
46(4) . . .
52(4) . . .
59(4) . . .
52(4) . . .
49(4) . . .
53(4) . . .
52(4) . . .
41.9(34) . . .
47(4) . . .
50(4) . . .
39.8(35) . . .
58(4) . . .
44.9(35) . . .
50(4) . . .
48(4) . . .
50(4) . . .
51(4) . . .
52(4) . . .
39.7(32) . . .
46(4) . . .
41.2(34) . . .
41.1(34) . . .
46(4) . . .
53(4) . . .
55(4) . . .
46(4) . . .
52(4) . . .
40.3(34) . . .
48(4) . . .
46(4) . . .
53(4) . . .
43(4) . . .
48(4) . . .
55(4) . . .
52(4) . . .
50(4) . . .
53(4) . . .
39.5(33) . . .
51(4) . . .
47(4) . . .
49(4) . . .
55(4) . . .
51(4) . . .
40.8(35) . . .
47(4) . . .
46(4) . . .
49(4) . . .
40.7(32) . . .
33.7(31) . . .
43(4) . . .
53(4) . . .
49(4) . . .
48(4) . . .
48(4) . . .
42(4) . . .
41(4) . . .
40.4(33) . . .
53(4) . . .
44(4) . . .
44(4) . . .
45(4) . . .
43.5(34) . . .
53(4) . . .
45.9(35) . . .
50(4) . . .
49(4) . . .
45(4) . . .
53(4) . . .
44(4) . . .
40(4) . . .
52(4) . . .
55(4) . . .
45(4) . . .
55(4) . . .
50(4) . . .
53(4) . . .
41.1(33) . . .
41(4) . . .
39.0(34) . . .
40.8(34) . . .
50(4) . . .
52(4) . . .
39.7(35) . . .
39(4) . . .
55(4) . . .
47(4) . . .
56(4) . . .
45.5(35) . . .
50(4) . . .
47(4) . . .
56(4) . . .
62(4) . . .
53(4) . . .
42(4) . . .
48(4) . . .
50(4) . . .
44.0(35) . . .
56(4) . . .
49(4) . . .
43(4) . . .
41.0(34) . . .
39.5(33) . . .
45(4) . . .
49(4) . . .
48(4) . . .
44.4(34) . . .
44.9(35) . . .
48(4) . . .
45(4) . . .
40(4) . . .
36.7(31) . . .
41.7(34) . . .
50(4) . . .
44(4) . . .
37.5(32) . . .
49(4) . . .
54(4) . . .
40.5(34) . . .
42(4) . . .
56(4) . . .
51(4) . . .
41(4) . . .
44(4) . . .
43(4) . . .
49(4) . . .
47(4) . . .
51(4) . . .
61(4) . . .
48(4) . . .
41.6(34) . . .
39.7(33) . . .
50(4) . . .
48(4) . . .
42(4) . . .
50(4) . . .
53(4) . . .
52(4) . . .
48(4) . . .
44(4) . . .
39.7(34) . . .
39.9(33) . . .
42(4) . . .
42(4) . . .
48(4) . . .
45(4) . . .
41.5(33) . . .
38.9(32) . . .
48(4) . . .
50(4) . . .
43.0(34) . . .
46(4) . . .
41.1(34) . . .
48(4) . . .
57(4) . . .
48(4) . . .
55(4) . . .
51(4) . . .
43(4) . . .
50(4) . . .
46(4) . . .
42.3(34) . . .
50(4) . . .
45(4) . . .
50(4) . . .
47(4) . . .
45.2(34) . . .
42.2(34) . . .
45(4) . . .
38.2(35) . . .
44(4) . . .
43.9(35) . . .
55(4) . . .
42.0(34) . . .
57(4) . . .
48(4) . . .
44.3(35) . . .
45(4) . . .
46(4) . . .
43(4) . . .
47(4) . . .
44.5(35) . . .
36.3(31) . . .
51(4) . . .
52(4) . . .
47(4) . . .
41.3(33) . . .
41(4) . . .
34.7(31) . . .
43.7(35) . . .
43.3(34) . . .
48(4) . . .
42.0(34) . . .
44(4) . . .
53(4) . . .
49(4) . . .
46(4) . . .
44(4) . . .
58(4) . . .
52(4) . . .
53(4) . . .
42(4) . . .
41(4) . . .
40(4) . . .
54(4) . . .
42.3(34) . . .
42.6(34) . . .
44(4) . . .
41.6(33) . . .
47(4) . . .
35.1(31) . . .
43(4) . . .
38.0(34) . . .
35.4(30) . . .
59(4) . . .
48(4) . . .
52(4) . . .
55(4) . . .
47(4) . . .
45.5(35) . . .
49(4) . . .
46(4) . . .
55(4) . . .
44(4) . . .
38.5(32) . . .
45.8(35) . . .
41.8(33) . . .
48(4) . . .
45(4) . . .
38.3(32) . . .
38.6(33) . . .
35.2(33) . . .
51(4) . . .
53(4) . . .
43.9(35) . . .
44(4) . . .
47(4) . . .
50(4) . . .
53(4) . . .
44.1(35) . . .
52(4) . . .
44(4) . . .
47(4) . . .
49(4) . . .
45.0(35) . . .
42(4) . . .
45(4) . . .
59(4) . . .
49(4) . . .
41.8(34) . . .
46(4) . . .
48(4) . . .
46(4) . . .
50(4) . . .
48(4) . . .
49(4) . . .
38.3(34) . . .
41.2(34) . . .
46(4) . . .
46(4) . . .
39.7(34) . . .
50(4) . . .
44(4) . . .
43.7(34) . . .
53(4) . . .
47(4) . . .
43(4) . . .
40.9(34) . . .
43.5(34) . . .
51(4) . . .
51(4) . . .
47(4) . . .
45(4) . . .
45.0(35) . . .
47(4) . . .
40.2(34) . . .
40(4) . . .
47(4) . . .
51(4) . . .
36.1(31) . . .
40.2(34) . . .
41.4(34) . . .
49(4) . . .
43.3(35) . . .
51(4) . . .
50(4) . . .
46(4) . . .
47(4) . . .
52(4) . . .
46(4) . . .
47(4) . . .
38.8(33) . . .
46(4) . . .
49(4) . . .
42.9(35) . . .
42(4) . . .
45(4) . . .
45(4) . . .
46(4) . . .
43(4) . . .
40.5(34) . . .
46(4) . . .
39.9(33) . . .
45.4(35) . . .
59(4) . . .
56(4) . . .
54(4) . . .
52(4) . . .
47(4) . . .
50(4) . . .
43(4) . . .
48(4) . . .
47(4) . . .
43.7(35) . . .
47(4) . . .
41(4) . . .
49(4) . . .
46(4) . . .
48(4) . . .
53(4) . . .
54(4) . . .
45(4) . . .
41.2(33) . . .
48(4) . . .
43(4) . . .
45(4) . . .
42.6(34) . . .
58(4) . . .
49(4) . . .
43(4) . . .
51(4) . . .
52(4) . . .
43.5(34) . . .
52(4) . . .
37.0(32) . . .
46(4) . . .
46(4) . . .
53(4) . . .
39.9(33) . . .
59(4) . . .
43.9(34) . . .
45.3(35) . . .
56(4) . . .
49(4) . . .
42.2(33) . . .
48(4) . . .
55(4) . . .
49(4) . . .
40.2(33) . . .
41.1(35) . . .
42.0(34) . . .
42.2(34) . . .
48(4) . . .
42.5(35) . . .
41(4) . . .
45(4) . . .
46(4) . . .
44.3(34) . . .
54(4) . . .
47(4) . . .
44(4) . . .
40.0(32) . . .
47(4) . . .
45(4) . . .
49(4) . . .
51(4) . . .
47(4) . . .
46(4) . . .
40.5(35) . . .
46(4) . . .
43.1(35) . . .
44.8(35) . . .
46(4) . . .
50(4) . . .
49(4) . . .
44(4) . . .
38.8(32) . . .
53(4) . . .
50(4) . . .
49(4) . . .
43(4) . . .
48(4) . . .
41.4(34) . . .
54(4) . . .
46(4) . . .
50(4) . . .
49(4) . . .
36.7(32) . . .
48(4) . . .
52(4) . . .
51(4) . . .
52(4) . . .
48(4) . . .
45(4) . . .
46(4) . . .
63(4) . . .
44.6(34) . . .
45(4) . . .
48(4) . . .
46(4) . . .
48(4) . . .
47(4) . . .
43(4) . . .
46(4) . . .
54(4) . . .
49(4) . . .
50(4) . . .
39.3(33) . . .
42(4) . . .
45(4) . . .
42.8(35) . . .
43.9(35) . . .
41(4) . . .
37.3(33) . . .
43(4) . . .
43.9(34) . . .
44.6(35) . . .
44(4) . . .
54(4) . . .
49(4) . . .
51(4) . . .
49(4) . . .
34.9(31) . . .
43(4) . . .
47(4) . . .
54(4) . . .
40.2(33) . . .
43(4) . . .
46(4) . . .
48(4) . . .
39.9(33) . . .
48(4) . . .
44(4) . . .
48(4) . . .
41.5(34) . . .
51(4) . . .
52(4) . . .
43.5(33) . . .
55(4) . . .
53(4) . . .
53(4) . . .
51(4) . . .
44(4) . . .
45(4) . . .
43.1(34) . . .
50(4) . . .
41.8(35) . . .
46(4) . . .
45(4) . . .
57(4) . . .
45.0(34) . . .
40(4) . . .
45(4) . . .
58(4) . . .
48(4) . . .
43.8(35) . . .
41.1(35) . . .
47(4) . . .
57(4) . . .
56(4) . . .
49(4) . . .
40.5(35) . . .
39.4(34) . . .
40.0(34) . . .
52(4) . . .
51(4) . . .
52(4) . . .
43(4) . . .
46(4) . . .
51(4) . . .
41.1(33) . . .
50(4) . . .
43.1(34) . . .
51(4) . . .
47(4) . . .
47(4) . . .
48(4) . . .
50(4) . . .
53(4) . . .
46(4) . . .
42.8(34) . . .
40.5(34) . . .
45(4) . . .
46(4) . . .
36.1(32) . . .
42(4) . . .
45(4) . . .
43(4) . . .
48(4) . . .
53(4) . . .
53(4) . . .
44.6(35) . . .
38.1(32) . . .
45(4) . . .
48(4) . . .
53(4) . . .
44(4) . . .
35.1(32) . . .
37.1(33) . . .
43.5(35) . . .
47(4) . . .
40.6(34) . . .
53(4) . . .
51(4) . . .
47(4) . . .
44(4) . . .
43(4) . . .
46(4) . . .
47(4) . . .
48(4) . . .
46(4) . . .
40.9(34) . . .
44(4) . . .
59(4) . . .
49(4) . . .
36.3(32) . . .
40.5(34) . . .
42.2(35) . . .
45(4) . . .
43.1(35) . . .
48(4) . . .
40.0(33) . . .
45.4(35) . . .
40.0(33) . . .
43(4) . . .
41.9(34) . . .
52(4) . . .
44.0(35) . . .
39.7(33) . . .
37.9(33) . . .
45(4) . . .
45(4) . . .
39.5(33) . . .
53(4) . . .
49(4) . . .
42.4(35) . . .
46(4) . . .
57(4) . . .
50(4) . . .
46(4) . . .
48(4) . . .
44(4) . . .
41.3(33) . . .
50(4) . . .
51(4) . . .
52(4) . . .
61(4) . . .
43.8(34) . . .
43.3(34) . . .
45(4) . . .
45(4) . . .
40(4) . . .
37.8(33) . . .
54(4) . . .
48(4) . . .
39.0(34) . . .
45(4) . . .
41.7(33) . . .
43.2(35) . . .
48(4) . . .
53(4) . . .
46(4) . . .
37.5(31) . . .
39.5(34) . . .
38.4(34) . . .
36.7(34) . . .
44(4) . . .
45(4) . . .
50(4) . . .
43.7(35) . . .
39.6(35) . . .
43(4) . . .
46(4) . . .
42.5(35) . . .
43.9(35) . . .
45(4) . . .
49(4) . . .
42.9(35) . . .
46(4) . . .
58(4) . . .
46(4) . . .
45(4) . . .
41.3(34) . . .
45.5(35) . . .
45(4) . . .
51(4) . . .
49(4) . . .
46(4) . . .
37.7(32) . . .
45(4) . . .
46(4) . . .
42.8(35) . . .
34.8(31) . . .
48(4) . . .
40.0(33) . . .
39.7(33) . . .
53(4) . . .
54(4) . . .
42(4) . . .
39.9(35) . . .
35.4(33) . . .
33.8(31) . . .
44.2(34) . . .
49(4) . . .
49(4) . . .
50(4) . . .
49(4) . . .
51(4) . . .
51(4) . . .
51(4) . . .
44(4) . . .
34.6(31) . . .
47(4) . . .
46(4) . . .
44(4) . . .
49(4) . . .
39.5(32) . . .
42.1(35) . . .
40.6(34) . . .
40.5(35) . . .
45(4) . . .
45(4) . . .
44.3(35) . . .
36.4(33) . . .
41(4) . . .
55(4) . . .
47(4) . . .
51(4) . . .
48(4) . . .
48(4) . . .
44(4) . . .
56(4) . . .
52(4) . . .
44(4) . . .
49(4) . . .
41(4) . . .
42.4(34) . . .
46(4) . . .
54(4) . . .
46(4) . . .
45(4) . . .
43.6(35) . . .
30.0(28) . . .
38.4(33) . . .
48(4) . . .
42.7(34) . . .
37.0(32) . . .
42(4) . . .
49(4) . . .
47(4) . . .
45(4) . . .
49(4) . . .
35.9(32) . . .
37.7(34) . . .
41.3(34) . . .
48(4) . . .
49(4) . . .
46(4) . . .
41(4) . . .
36.6(33) . . .
38.7(32) . . .
41.9(34) . . .
50(4) . . .
54(4) . . .
43.3(35) . . .
46(4) . . .
39.9(34) . . .
50(4) . . .
50(4) . . .
43(4) . . .
45(4) . . .
55(4) . . .
53(4) . . .
54(4) . . .
41.3(34) . . .
38.2(32) . . .
43.2(35) . . .
46(4) . . .
40.0(33) . . .
50(4) . . .
46(4) . . .
40.3(33) . . .
57(4) . . .
47(4) . . .
50(4) . . .
39.5(34) . . .
45(4) . . .
39.3(33) . . .
51(4) . . .
43(4) . . .
45(4) . . .
36.9(32) . . .
38.7(34) . . .
42(4) . . .
39.6(33) . . .
40.6(33) . . .
45(4) . . .
47(4) . . .
59(4) . . .
42.4(35) . . .
45.0(34) . . .
38.1(33) . . .
53(4) . . .
46(4) . . .
40.4(33) . . .
47(4) . . .
44(4) . . .
33.8(30) . . .
48(4) . . .
42.5(33) . . .
49(4) . . .
51(4) . . .
51(4) . . .
56(4) . . .
45.1(35) . . .
50(4) . . .
47(4) . . .
40.7(35) . . .
52(4) . . .
48(4) . . .
51(4) . . .
47(4) . . .
47(4) . . .
42.6(34) . . .
46.0(35) . . .
52(4) . . .
46(4) . . .
41.5(35) . . .
50(4) . . .
47(4) . . .
41.8(34) . . .
54(4) . . .
42(4) . . .
40.7(34) . . .
50(4) . . .
45(4) . . .
50(4) . . .
46(4) . . .
53(4) . . .
55(4) . . .
40.7(34) . . .
44(4) . . .
53(4) . . .
50(4) . . .
50(4) . . .
48(4) . . .
54(4) . . .
50(4) . . .
41(4) . . .
46(4) . . .
42(4) . . .
37.0(33) . . .
49(4) . . .
54(4) . . .
42.7(34) . . .
43(4) . . .
45(4) . . .
43(4) . . .
35.1(30) . . .
54(4) . . .
48(4) . . .
48(4) . . .
40.6(34) . . .
47(4) . . .
42.3(34) . . .
45(4) . . .
41(4) . . .
32.5(30) . . .
53(4) . . .
38.2(32) . . .
45(4) . . .
46(4) . . .
41.6(34) . . .
36.5(31) . . .
43.7(35) . . .
42.7(35) . . .
49(4) . . .
42(4) . . .
50(4) . . .
51(4) . . .
46(4) . . .
49(4) . . .
43(4) . . .
39.5(33) . . .
50(4) . . .
48(4) . . .
41.8(34) . . .
44.6(35) . . .
42.9(34) . . .
47(4) . . .
41.7(34) . . .
45(4) . . .
40.0(35) . . .
48(4) . . .
43(4) . . .
47(4) . . .
42(4) . . .
38.8(32) . . .
50(4) . . .
50(4) . . .
40.4(34) . . .
48(4) . . .
55(4) . . .
43.8(35) . . .
60(4) . . .
37.3(31) . . .
46(4) . . .
45(4) . . .
50(4) . . .
49(4) . . .
48(4) . . .
47(4) . . .
48(4) . . .
39.2(32) . . .
51(4) . . .
58(4) . . .
52(4) . . .
43.0(35) . . .
37.0(32) . . .
44(4) . . .
46(4) . . .
50(4) . . .
47(4) . . .
36.8(31) . . .
50(4) . . .
44(4) . . .
40(4) . . .
50(4) . . .
52(4) . . .
44(4) . . .
53(4) . . .
50(4) . . .
43.0(34) . . .
42(4) . . .
47(4) . . .
48(4) . . .
43(4) . . .
39.8(34) . . .
40.7(33) . . .
39.0(33) . . .
36.8(33) . . .
40.8(35) . . .
52(4) . . .
42.8(34) . . .
49(4) . . .
49(4) . . .
45(4) . . .
42.6(34) . . .
47(4) . . .
55(4) . . .
42(4) . . .
37.2(33) . . .
42.9(34) . . .
42.3(35) . . .
49(4) . . .
55(4) . . .
44.6(35) . . .
44.3(34) . . .
39.3(32) . . .
47(4) . . .
54(4) . . .
50(4) . . .
42.3(34) . . .
46(4) . . .
47(4) . . .
39.5(33) . . .
43.3(35) . . .
45.0(34) . . .
51(4) . . .
42(4) . . .
39.2(34) . . .
46(4) . . .
39.8(32) . . .
42(4) . . .
55(4) . . .
42.0(34) . . .
45.0(35) . . .
51(4) . . .
50(4) . . .
51(4) . . .
41.6(34) . . .
48(4) . . .
52(4) . . .
59(4) . . .
44(4) . . .
50(4) . . .
42.6(34) . . .
43(4) . . .
47(4) . . .
40.3(35) . . .
47(4) . . .
31.4(30) . . .
53(4) . . .
44.9(35) . . .
46(4) . . .
47(4) . . .
40.8(34) . . .
46(4) . . .
43(4) . . .
51(4) . . .
44(4) . . .
48(4) . . .
38.7(34) . . .
51(4) . . .
46(4) . . .
35.5(31) . . .
44.0(35) . . .
38.7(34) . . .
46(4) . . .
43.0(35) . . .
37.0(31) . . .
44.2(35) . . .
39.0(33) . . .
47(4) . . .
41.5(34) . . .
55(4) . . .
45.3(35) . . .
43(4) . . .
49(4) . . .
45(4) . . .
50(4) . . .
48(4) . . .
48(4) . . .
42(4) . . .
41(4) . . .
40.9(33) . . .
51(4) . . .
41.1(33) . . .
46(4) . . .
53(4) . . .
51(4) . . .
44.2(34) . . .
47(4) . . .
41.1(34) . . .
48(4) . . .
51(4) . . .
45(4) . . .
47(4) . . .
30.1(29) . . .
37.5(33) . . .
54(4) . . .
50(4) . . .
50(4) . . .
39.4(32) . . .
46(4) . . .
41.6(33) . . .
41(4) . . .
40.9(35) . . .
41.3(34) . . .
37.7(32) . . .
54(4) . . .
42(4) . . .
44(4) . . .
34.2(32) . . .
44.0(35) . . .
53(4) . . .
42.0(34) . . .
49(4) . . .
45.9(35) . . .
51(4) . . .
53(4) . . .
53(4) . . .
45(4) . . .
40.3(33) . . .
49(4) . . .
54(4) . . .
52(4) . . .
51(4) . . .
51(4) . . .
47(4) . . .
44.1(35) . . .
46(4) . . .
47(4) . . .
49(4) . . .
50(4) . . .
53(4) . . .
37.6(31) . . .
36.8(31) . . .
52(4) . . .
44.0(35) . . .
49(4) . . .
48(4) . . .
56(4) . . .
50(4) . . .
46(4) . . .
41.0(33) . . .
46(4) . . .
45(4) . . .
44.2(35) . . .
49(4) . . .
42.7(34) . . .
46(4) . . .
43(4) . . .
43.2(35) . . .
43.7(34) . . .
50(4) . . .
45(4) . . .
42.2(34) . . .
46(4) . . .
43.3(34) . . .
44(4) . . .
45(4) . . .
44(4) . . .
46(4) . . .
50(4) . . .
37.5(34) . . .
48(4) . . .
41.5(34) . . .
44.0(34) . . .
44.2(35) . . .
45(4) . . .
43.3(35) . . .
40(4) . . .
42(4) . . .
44.3(34) . . .
43(4) . . .
42(4) . . .
43(4) . . .
51(4) . . .
49(4) . . .
43(4) . . .
47(4) . . .
54(4) . . .
51(4) . . .
52(4) . . .
36.8(32) . . .
37.5(34) . . .
40.4(33) . . .
36.8(31) . . .
50(4) . . .
45(4) . . .
47(4) . . .
44.1(34) . . .
44.1(35) . . .
50(4) . . .
44(4) . . .
43(4) . . .
38.4(34) . . .
48(4) . . .
44(4) . . .
48(4) . . .
50(4) . . .
44(4) . . .
48(4) . . .
47(4) . . .
41.2(35) . . .
40.8(34) . . .
46(4) . . .
53(4) . . .
40.7(33) . . .
51(4) . . .
38.8(32) . . .
47(4) . . .
43.1(34) . . .
46(4) . . .
40(4) . . .
46(4) . . .
41.1(34) . . .
46(4) . . .
46(4) . . .
45(4) . . .
54(4) . . .
51(4) . . .
41.3(34) . . .
47(4) . . .
38.5(34) . . .
40.9(35) . . .
48(4) . . .
37.6(32) . . .
39.9(33) . . .
47(4) . . .
47(4) . . .
46.0(35) . . .
46(4) . . .
45.1(34) . . .
53(4) . . .
52(4) . . .
48(4) . . .
52(4) . . .
53(4) . . .
52(4) . . .
52(4) . . .
48(4) . . .
54(4) . . .
50(4) . . .
47(4) . . .
41.4(34) . . .
46(4) . . .
35.7(32) . . .
53(4) . . .
54(4) . . .
46(4) . . .
48(4) . . .
45(4) . . .
41.0(35) . . .
47(4) . . .
43(4) . . .
54(4) . . .
49(4) . . .
49(4) . . .
38.5(33) . . .
46(4) . . .
51(4) . . .
43(4) . . .
45(4) . . .
46(4) . . .
45(4) . . .
49(4) . . .
43.2(34) . . .
51(4) . . .
45(4) . . .
50(4) . . .
45.3(34) . . .
40.3(34) . . .
41(4) . . .
46(4) . . .
41.0(33) . . .
48(4) . . .
38.8(34) . . .
56(5) . . .
42(4) . . .
47(4) . . .
42.7(33) . . .
54(4) . . .
43.9(35) . . .
45.1(35) . . .
45.3(35) . . .
52(4) . . .
50(4) . . .
46(4) . . .
45(4) . . .
43.0(34) . . .
40.5(33) . . .
50(4) . . .
47(4) . . .
54(4) . . .
49(4) . . .
34.8(32) . . .
50(4) . . .
34.3(31) . . .
41.1(33) . . .
46.3(35) . . .
47(4) . . .
48(4) . . .
52(4) . . .
37.3(32) . . .
47(4) . . .
43.2(35) . . .
39.2(35) . . .
46(4) . . .
52(4) . . .
52(4) . . .
43(4) . . .
51(4) . . .
48(4) . . .
44(4) . . .
44.1(35) . . .
54(4) . . .
49(4) . . .
49(4) . . .
41.4(35) . . .
48(4) . . .
39.4(35) . . .
39.2(33) . . .
47(4) . . .
46(4) . . .
43(4) . . .
42(4) . . .
53(4) . . .
50(4) . . .
32.8(29) . . .
41.9(33) . . .
43(4) . . .
44(4) . . .
47(4) . . .
38.2(34) . . .
49(4) . . .
47(4) . . .
41(4) . . .
46(4) . . .
39.3(33) . . .
43(4) . . .
52(4) . . .
46(4) . . .
40.8(34) . . .
44.5(34) . . .
49(4) . . .
45(4) . . .
42(4) . . .
48(4) . . .
42.7(35) . . .
41.0(33) . . .
42.1(34) . . .
47(4) . . .
45(4) . . .
52(4) . . .
42.6(35) . . .
41(4) . . .
44(4) . . .
38.2(32) . . .
49(4) . . .
40.0(34) . . .
47(4) . . .
47(4) . . .
53(4) . . .
51(4) . . .
42.8(34) . . .
43(4) . . .
34.4(34) . . .
44(4) . . .
43.7(34) . . .
48(4) . . .
44.4(35) . . .
43.8(34) . . .
47(4) . . .
41.6(33) . . .
40.7(34) . . .
39.0(34) . . .
34.4(30) . . .
43.7(35) . . .
50(4) . . .
42(4) . . .
46(4) . . .
41.3(35) . . .
52(4) . . .
35.9(32) . . .
39.2(34) . . .
50(4) . . .
37.3(33) . . .
46(4) . . .
46.5(35) . . .
48(4) . . .
48(4) . . .
47(4) . . .
41.1(33) . . .
43.7(34) . . .
51(4) . . .
38.9(33) . . .
38.4(33) . . .
45(4) . . .
41.7(34) . . .
46(4) . . .
56(4) . . .
43(4) . . .
42.4(34) . . .
43(4) . . .
43.1(35) . . .
52(4) . . .
47(4) . . .
50(4) . . .
47(4) . . .
43.1(35) . . .
44(4) . . .
48(4) . . .
52(4) . . .
50(4) . . .
36.7(33) . . .
45(4) . . .
43.9(34) . . .
52(4) . . .
42.7(35) . . .
51(4) . . .
51(4) . . .
44.6(35) . . .
43.2(34) . . .
34.2(31) . . .
42(4) . . .
49(4) . . .
48(4) . . .
43.7(35) . . .
46(4) . . .
58(4) . . .
47(4) . . .
45(4) . . .
54(4) . . .
43(4) . . .
39.7(35) . . .
46(4) . . .
37.7(32) . . .
48(4) . . .
40.4(33) . . .
51(4) . . .
48(4) . . .
45(4) . . .
47(4) . . .
44(4) . . .
44(4) . . .
39.7(34) . . .
51(4) . . .
53(4) . . .
54(4) . . .
44(4) . . .
41.7(35) . . .
50(4) . . .
47(4) . . .
45.5(35) . . .
54(4) . . .
57(4) . . .
47(4) . . .
43(4) . . .
40.1(34) . . .
46(4) . . .
46(4) . . .
42.6(34) . . .
51(4) . . .
47(4) . . .
33.2(29) . . .
34.4(30) . . .
57(4) . . .
42(4) . . .
41(4) . . .
43(4) . . .
34.7(31) . . .
38.3(33) . . .
47(4) . . .
42(4) . . .
37.1(33) . . .
43.3(35) . . .
42.1(34) . . .
48(4) . . .
38.5(35) . . .
43(4) . . .
44.4(34) . . .
47(4) . . .
48(4) . . .
46(4) . . .
47(4) . . .
39.5(33) . . .
41.8(33) . . .
47(4) . . .
39.0(33) . . .
56(4) . . .
46(4) . . .
49(4) . . .
39.2(33) . . .
43(4) . . .
41.5(34) . . .
48(4) . . .
59(4) . . .
49(4) . . .
51(4) . . .
44.0(35) . . .
43.1(34) . . .
42.0(34) . . .
44(4) . . .
43(4) . . .
39.8(33) . . .
42.8(34) . . .
46(4) . . .
51(4) . . .
46(4) . . .
45(4) . . .
49(4) . . .
46(4) . . .
55(4) . . .
57(4) . . .
42.5(35) . . .
47(4) . . .
38.2(32) . . .
42.7(34) . . .
45(4) . . .
37.4(31) . . .
38.7(33) . . .
45(4) . . .
45(4) . . .
49(4) . . .
40.3(33) . . .
44.1(35) . . .
41.5(34) . . .
45(4) . . .
41(4) . . .
39.0(32) . . .
43.1(34) . . .
37.7(33) . . .
50(4) . . .
46(4) . . .
50(4) . . .
48(4) . . .
47(4) . . .
44(4) . . .
43.1(35) . . .
42.0(33) . . .
47(4) . . .
42.2(35) . . .
44(4) . . .
44(4) . . .
43.8(34) . . .
48(4) . . .
45(4) . . .
51(4) . . .
39.7(34) . . .
42.0(34) . . .
43.0(34) . . .
47(4) . . .
50(4) . . .
40.2(33) . . .
45(4) . . .
37.1(32) . . .
34.5(33) . . .
35.8(32) . . .
32.2(30) . . .
48(4) . . .
53(4) . . .
49(4) . . .
51(4) . . .
43(4) . . .
46(4) . . .
52(4) . . .
43(4) . . .
37.4(31) . . .
45.3(35) . . .
47(4) . . .
46(4) . . .
54(4) . . .
50(4) . . .
39.1(32) . . .
50(4) . . .
56(4) . . .
43.8(35) . . .
39.0(32) . . .
37.5(32) . . .
40.9(33) . . .
54(4) . . .
51(4) . . .
37.9(34) . . .
53(4) . . .
41.4(34) . . .
45(4) . . .
45(4) . . .
44(4) . . .
47(4) . . .
42.5(34) . . .
37.9(32) . . .
42.0(34) . . .
46(4) . . .
47(4) . . .
45(4) . . .
48(4) . . .
46(4) . . .
47(4) . . .
43.8(35) . . .
46(4) . . .
47(4) . . .
52(4) . . .
51(4) . . .
41.7(34) . . .
48(4) . . .
39.2(32) . . .
55(4) . . .
45(4) . . .
48(4) . . .
40.2(33) . . .
52(4) . . .
44.3(34) . . .
50(4) . . .
55(4) . . .
39.5(34) . . .
49(4) . . .
46(4) . . .
44.6(35) . . .
49(4) . . .
44(4) . . .
45(4) . . .
46(4) . . .
45(4) . . .
43.2(34) . . .
53(4) . . .
47(4) . . .
37.3(32) . . .
46(4) . . .
50(4) . . .
43.5(35) . . .
35.3(32) . . .
41.4(34) . . .
41.7(34) . . .
46.2(35) . . .
42(4) . . .
45(4) . . .
42.8(34) . . .
40.2(33) . . .
52(4) . . .
49(4) . . .
49(4) . . .
45(4) . . .
49(4) . . .
54(4) . . .
49(4) . . .
46(4) . . .
49(4) . . .
34.4(30) . . .
39.9(34) . . .
57(4) . . .
49(4) . . .
50(4) . . .
47(4) . . .
40.8(34) . . .
41.1(33) . . .
40.3(33) . . .
47(4) . . .
41.1(33) . . .
50(4) . . .
42(4) . . .
42(4) . . .
42.9(35) . . .
44.1(34) . . .
43(4) . . .
34.3(30) . . .
46(4) . . .
47(4) . . .
45.6(35) . . .
41(4) . . .
44(4) . . .
54(4) . . .
45.5(35) . . .
46(4) . . .
40.7(35) . . .
42(4) . . .
31.1(30) . . .
43.4(34) . . .
38.7(32) . . .
37.2(34) . . .
44(4) . . .
48(4) . . .
48(4) . . .
44.2(35) . . .
35.8(32) . . .
46(4) . . .
40.1(33) . . .
43.4(34) . . .
36.4(31) . . .
44.3(34) . . .
55(4) . . .
38.7(33) . . .
31.1(29) . . .
40.0(35) . . .
37.6(33) . . .
44(4) . . .
44(4) . . .
33.6(30) . . .
38.9(33) . . .
51(4) . . .
42.5(34) . . .
41.9(35) . . .
38.0(32) . . .
44.2(34) . . .
47(4) . . .
45(4) . . .
37.2(34) . . .
43.2(35) . . .
47(4) . . .
44(4) . . .
45(4) . . .
51(4) . . .
45.0(35) . . .
46(4) . . .
46(4) . . .
51(4) . . .
47(4) . . .
44.2(35) . . .
41.5(35) . . .
34.8(32) . . .
52(4) . . .
52(4) . . .
47(4) . . .
45(4) . . .
43(4) . . .
46(4) . . .
41.3(33) . . .
51(4) . . .
47(4) . . .
44(4) . . .
46(4) . . .
54(4) . . .
41.6(33) . . .
49(4) . . .
44(4) . . .
47(4) . . .
44.1(34) . . .
42.4(34) . . .
48(4) . . .
46(4) . . .
40.7(34) . . .
32.8(30) . . .
45(4) . . .
43(4) . . .
34.7(34) . . .
42.3(34) . . .
52(4) . . .
39.9(32) . . .
44(4) . . .
41(4) . . .
40.7(35) . . .
46(4) . . .
38.5(33) . . .
49(4) . . .
48(4) . . .
43(4) . . .
48(4) . . .
53(4) . . .
47(4) . . .
50(4) . . .
44.9(35) . . .
41.2(33) . . .
46(4) . . .
38.9(33) . . .
37.7(35) . . .
41.3(34) . . .
48(4) . . .
49(4) . . .
50(4) . . .
48(4) . . .
44(4) . . .
49(4) . . .
48(4) . . .
43(4) . . .
40.7(34) . . .
53(4) . . .
38.6(32) . . .
38.4(34) . . .
43(4) . . .
46(4) . . .
49(4) . . .
46.3(35) . . .
42.0(34) . . .
45(4) . . .
51(4) . . .
47(4) . . .
39.7(33) . . .
46(4) . . .
46(4) . . .
44(4) . . .
48(4) . . .
42.7(34) . . .
43.4(35) . . .
49(4) . . .
52(4) . . .
44.7(35) . . .
53(4) . . .
42(4) . . .
38(4) . . .
42.7(35) . . .
47(4) . . .
36.5(31) . . .
36.7(32) . . .
41(4) . . .
48(4) . . .
44.1(34) . . .
45.7(35) . . .
43.3(34) . . .
46(4) . . .
46(4) . . .
53(4) . . .
48(4) . . .
47(4) . . .
39.8(35) . . .
40.9(33) . . .
42.8(34) . . .
46(4) . . .
57(4) . . .
41.5(34) . . .
48(4) . . .
40.7(33) . . .
44(4) . . .
45(4) . . .
41.0(34) . . .
44.4(34) . . .
43.8(35) . . .
47(4) . . .
56(4) . . .
43.2(35) . . .
46(4) . . .
41.6(34) . . .
45(4) . . .
39.4(34) . . .
49(4) . . .
40.8(33) . . .
40.7(33) . . .
42.8(35) . . .
44(4) . . .
42(4) . . .
36.1(31) . . .
35.8(31) . . .
47(4) . . .
43.7(35) . . .
46(4) . . .
48(4) . . .
58(4) . . .
38.5(33) . . .
48(4) . . .
42(4) . . .
39.8(32) . . .
38.8(32) . . .
55(4) . . .
38.7(34) . . .
43(4) . . .
51(4) . . .
41(4) . . .
50(4) . . .
49(4) . . .
41.2(34) . . .
37.4(32) . . .
49(4) . . .
49(4) . . .
50(4) . . .
48(4) . . .
46(4) . . .
45(4) . . .
42.7(35) . . .
47(4) . . .
48(4) . . .
44.1(35) . . .
46(4) . . .
48(4) . . .
50(4) . . .
51(4) . . .
48(4) . . .
38.7(34) . . .
45(4) . . .
55(4) . . .
49(4) . . .
38.3(33) . . .
32.4(30) . . .
43(4) . . .
44.3(35) . . .
43.3(34) . . .
38.5(32) . . .
47(4) . . .
55(4) . . .
52(4) . . .
51(4) . . .
53(4) . . .
43(4) . . .
38(4) . . .
35.5(32) . . .
48(4) . . .
51(4) . . .
54(4) . . .
43(4) . . .
46(4) . . .
45(4) . . .
48(4) . . .
44.4(35) . . .
52(4) . . .
42.5(34) . . .
41.9(34) . . .
49(4) . . .
36.1(32) . . .
36.0(33) . . .
41.0(35) . . .
49(4) . . .
45(4) . . .
51(4) . . .
54(4) . . .
43.0(34) . . .
47(4) . . .
51(4) . . .
48(4) . . .
44(4) . . .
44(4) . . .
44.9(34) . . .
43(4) . . .
48(4) . . .
40.2(33) . . .
41.1(34) . . .
47(4) . . .
41(4) . . .
31.5(30) . . .
41.8(34) . . .
46(4) . . .
53(4) . . .
50(4) . . .
50(4) . . .
44(4) . . .
48(4) . . .
48(4) . . .
39.3(34) . . .
48(4) . . .
42(4) . . .
40.0(33) . . .
42.1(34) . . .
45(4) . . .
45(4) . . .
44.2(35) . . .
38.9(33) . . .
46(4) . . .
44(4) . . .
46(4) . . .
44(4) . . .
48(4) . . .
41.8(35) . . .
51(4) . . .
49(4) . . .
57(4) . . .
47(4) . . .
48(4) . . .
55(4) . . .
50(4) . . .
44(4) . . .
42.8(34) . . .
45(4) . . .
50(4) . . .
47(4) . . .
49(4) . . .
51(4) . . .
46(4) . . .
53(4) . . .
45(4) . . .
38.8(32) . . .
56(4) . . .
52(4) . . .
40.7(34) . . .
41.4(33) . . .
54(4) . . .
41.7(34) . . .
50(4) . . .
49(4) . . .
47(4) . . .
36.9(32) . . .
37.5(33) . . .
50(4) . . .
45(4) . . .
46(4) . . .
48(4) . . .
37.6(32) . . .
36.2(31) . . .
45(4) . . .
45(4) . . .
45.8(35) . . .
44(4) . . .
44(4) . . .
41(4) . . .
51(4) . . .
44(4) . . .
55(4) . . .
44.3(35) . . .
52(4) . . .
43(4) . . .
38.9(32) . . .
47(4) . . .
43(4) . . .
42(4) . . .
46(4) . . .
35.1(31) . . .
38.1(33) . . .
39.7(34) . . .
41.6(34) . . .
40.2(34) . . .
47(4) . . .
54(4) . . .
35.2(31) . . .
43(4) . . .
41.0(34) . . .
50(4) . . .
45(4) . . .
43.0(35) . . .
42(4) . . .
46(4) . . .
44.6(35) . . .
44(4) . . .
46(4) . . .
50(4) . . .
45(4) . . .
36.8(31) . . .
54(4) . . .
45(4) . . .
44(4) . . .
48(4) . . .
46(4) . . .
40(4) . . .
45(4) . . .
42.0(34) . . .
37.8(32) . . .
47(4) . . .
52(4) . . .
38.7(33) . . .
39.7(34) . . .
46(4) . . .
49(4) . . .
45(4) . . .
40(4) . . .
47(4) . . .
42.4(34) . . .
44.4(35) . . .
37.4(34) . . .
50(4) . . .
43.6(35) . . .
38.9(32) . . .
41.8(35) . . .
50(4) . . .
36.9(32) . . .
51(4) . . .
40.5(33) . . .
50(4) . . .
51(4) . . .
50(4) . . .
50(4) . . .
41.5(33) . . .
41.5(34) . . .
47(4) . . .
42.7(34) . . .
48(4) . . .
35.4(31) . . .
37.4(32) . . .
46(4) . . .
39.0(33) . . .
44.2(34) . . .
47(4) . . .
41(4) . . .
44(4) . . .
40.3(33) . . .
44.8(35) . . .
46(4) . . .
47(4) . . .
44(4) . . .
38.8(32) . . .
40.4(33) . . .
35.0(31) . . .
41(4) . . .
40(4) . . .
39.9(33) . . .
45(4) . . .
57(4) . . .
42(4) . . .
40(4) . . .
44(4) . . .
46(4) . . .
38.5(32) . . .
43.8(35) . . .
47(4) . . .
40.7(33) . . .
47(4) . . .
40.4(34) . . .
33.9(31) . . .
33.7(31) . . .
46(4) . . .
40.7(33) . . .
36.3(31) . . .
38.4(34) . . .
47(4) . . .
43(4) . . .
60(4) . . .
44(4) . . .
44(4) . . .
39.8(33) . . .
37.0(32) . . .
47(4) . . .
47(4) . . .
38.6(33) . . .
39.3(33) . . .
37.5(33) . . .
44.0(35) . . .
56(4) . . .
43(4) . . .
48(4) . . .
48(4) . . .
42.5(34) . . .
47(4) . . .
55(4) . . .
51(4) . . .
43.3(35) . . .
36.4(31) . . .
39.4(33) . . .
40.3(34) . . .
48(4) . . .
48(4) . . .
50(4) . . .
42.8(34) . . .
49(4) . . .
50(4) . . .
42.7(33) . . .
44(4) . . .
42.6(35) . . .
37.8(33) . . .
43(4) . . .
40.4(33) . . .
42.0(35) . . .
41.5(34) . . .
51(4) . . .
51(4) . . .
53(4) . . .
47(4) . . .
43.8(35) . . .
43(4) . . .
44(4) . . .
43.6(34) . . .
39.0(32) . . .
50(4) . . .
48(4) . . .
36.1(32) . . .
39.9(32) . . .
53(4) . . .
54(4) . . .
46(4) . . .
41(4) . . .
40.7(33) . . .
43(4) . . .
36.4(31) . . .
42(4) . . .
46(4) . . .
42.0(34) . . .
47(4) . . .
53(4) . . .
38.0(34) . . .
38.4(33) . . .
50(4) . . .
40.1(34) . . .
41.0(34) . . .
39.5(33) . . .
51(4) . . .
44.3(35) . . .
41.0(33) . . .
40.3(34) . . .
45(4) . . .
39.4(34) . . .
44.9(35) . . .
42.0(34) . . .
39.8(33) . . .
48(4) . . .
34.3(31) . . .
44.4(35) . . .
38.5(35) . . .
45(4) . . .
48(4) . . .
45.2(35) . . .
37.8(32) . . .
40.0(34) . . .
44(4) . . .
47(4) . . .
42.8(34) . . .
40.8(34) . . .
37.8(33) . . .
42(4) . . .
42(4) . . .
38.1(32) . . .
40.8(33) . . .
39.3(33) . . .
51(4) . . .
35.7(32) . . .
40.4(33) . . .
32.7(30) . . .
40.6(35) . . .
45(4) . . .
38.2(33) . . .
45.4(35) . . .
41.0(34) . . .
40.7(34) . . .
45(4) . . .
43(4) . . .
43(4) . . .
40.5(33) . . .
48(4) . . .
52(4) . . .
48(4) . . .
40.2(33) . . .
46(4) . . .
41(4) . . .
41(4) . . .
37.2(32) . . .
37.4(32) . . .
47(4) . . .
48(4) . . .
49(4) . . .
46(4) . . .
41.3(33) . . .
46(4) . . .
47(4) . . .
41.8(34) . . .
49(4) . . .
45.8(35) . . .
42.9(34) . . .
49(4) . . .
36.6(32) . . .
35.3(31) . . .
44.6(35) . . .
50(4) . . .
42.3(35) . . .
38.9(33) . . .
45(4) . . .
37.5(33) . . .
41(4) . . .
39(4) . . .
46(4) . . .
46(4) . . .
33.2(30) . . .
36.5(32) . . .
51(4) . . .
51(4) . . .
43.3(34) . . .
45(4) . . .
50(4) . . .
39.2(33) . . .
43(4) . . .
39.8(33) . . .
37.3(31) . . .
34.3(30) . . .
36(4) . . .
33.2(32) . . .
39.1(33) . . .
32.9(30) . . .
40.4(34) . . .
43(4) . . .
43.9(35) . . .
44.0(35) . . .
46(4) . . .
34.7(31) . . .
39.2(33) . . .
42.0(33) . . .
40.9(34) . . .
40.9(33) . . .
53(4) . . .
46(4) . . .
48(4) . . .
41.9(34) . . .
39.5(33) . . .
45(4) . . .
50(4) . . .
44.9(35) . . .
39.2(33) . . .
44.1(35) . . .
46(4) . . .
41.1(35) . . .
48(4) . . .
48(4) . . .
48(4) . . .
42.5(34) . . .
39.3(33) . . .
44.5(35) . . .
53(4) . . .
43.4(35) . . .
44(4) . . .
47(4) . . .
44.4(34) . . .
47(4) . . .
46(4) . . .
44(4) . . .
36.8(31) . . .
44.6(35) . . .
52(4) . . .
46(4) . . .
39.7(33) . . .
45(4) . . .
39.2(33) . . .
51(4) . . .
47(4) . . .
51(4) . . .
45(4) . . .
47(4) . . .
38.9(33) . . .
40.2(34) . . .
41.8(35) . . .
53(4) . . .
40.0(33) . . .
49(4) . . .
46(4) . . .
35.9(31) . . .
36.3(33) . . .
35.4(31) . . .
41.1(34) . . .
45(4) . . .
38.1(33) . . .
51(4) . . .
51(4) . . .
53(4) . . .
44(4) . . .
41.7(35) . . .
47(4) . . .
45.2(35) . . .
44.4(35) . . .
43(4) . . .
43(4) . . .
43.1(35) . . .
39.3(33) . . .
42(4) . . .
39.7(35) . . .
41.5(35) . . .
39.1(32) . . .
40.8(33) . . .
51(4) . . .
45(4) . . .
41.3(34) . . .
44.9(35) . . .
43.9(35) . . .
45(4) . . .
58(4) . . .
59(4) . . .
51(4) . . .
45(4) . . .
45(4) . . .
43(4) . . .
36.3(32) . . .
34.9(31) . . .
51(4) . . .
47(4) . . .
43(4) . . .
42(4) . . .
39.9(33) . . .
44.0(35) . . .
46(4) . . .
41.5(34) . . .
55(4) . . .
43.5(35) . . .
52(4) . . .
48(4) . . .
40.5(33) . . .
54(4) . . .
43.6(34) . . .
45(4) . . .
49(4) . . .
46(4) . . .
40.2(34) . . .
42.5(34) . . .
48(4) . . .
36.7(33) . . .
36.1(32) . . .
47(4) . . .
50(4) . . .
41(4) . . .
40.2(34) . . .
45(4) . . .
44.4(35) . . .
39.9(33) . . .
51(4) . . .
50(4) . . .
46(4) . . .
43.8(35) . . .
49(4) . . .
51(4) . . .
36.1(31) . . .
39.2(34) . . .
43.5(34) . . .
34.0(31) . . .
44(4) . . .
44(4) . . .
36.5(32) . . .
35.5(31) . . .
44(4) . . .
44.6(35) . . .
42.5(35) . . .
41.3(33) . . .
44.7(35) . . .
45.7(35) . . .
50(4) . . .
37.4(32) . . .
51(4) . . .
44.1(35) . . .
38.6(33) . . .
41(4) . . .
45(4) . . .
40.1(34) . . .
45(4) . . .
42.1(35) . . .
33.6(30) . . .
46(4) . . .
46(4) . . .
38.4(33) . . .
43.4(35) . . .
52(4) . . .
46(4) . . .
41.1(33) . . .
49(4) . . .
39.0(35) . . .
42(4) . . .
45(4) . . .
43.7(35) . . .
44.7(35) . . .
45(4) . . .
39.2(33) . . .
38.6(34) . . .
46(4) . . .
42.1(33) . . .
44(4) . . .
45(4) . . .
37.9(33) . . .
42(4) . . .
36.9(32) . . .
40.2(33) . . .
44(4) . . .
46(4) . . .
43.1(34) . . .
47(4) . . .
43.6(35) . . .
50(4) . . .
39.0(32) . . .
48(4) . . .
40.8(34) . . .
42.0(35) . . .
39(4) . . .
34.1(33) . . .
42.8(34) . . .
35.0(30) . . .
44(4) . . .
51(4) . . .
44(4) . . .
45.3(35) . . .
49(4) . . .
48(4) . . .
46(4) . . .
48(4) . . .
47(4) . . .
37.1(31) . . .
46(4) . . .
36.5(34) . . .
37.2(33) . . .
41.7(34) . . .
40.7(33) . . .
45(4) . . .
45(4) . . .
42.8(34) . . .
38.2(32) . . .
38.1(33) . . .
45(4) . . .
48(4) . . .
43.3(35) . . .
46(4) . . .
38.9(33) . . .
37.0(34) . . .
41.0(34) . . .
34.7(30) . . .
42.6(34) . . .
38.0(32) . . .
44(4) . . .
45(4) . . .
42.4(34) . . .
46(4) . . .
42.1(34) . . .
41(4) . . .
43.0(35) . . .
50(4) . . .
50(4) . . .
48(4) . . .
47(4) . . .
47(4) . . .
44.1(35) . . .
45.0(35) . . .
46(4) . . .
47(4) . . .
49(4) . . .
40.6(33) . . .
40.4(33) . . .
42.2(34) . . .
49(4) . . .
48(4) . . .
45.0(35) . . .
39.7(33) . . .
37.8(33) . . .
47(4) . . .
44(4) . . .
47(4) . . .
41.5(34) . . .
42(4) . . .
54(4) . . .
44(4) . . .
46(4) . . .
43(4) . . .
49(4) . . .
46(4) . . .
39.5(32) . . .
46(4) . . .
50(4) . . .
42(4) . . .
47(4) . . .
35.4(31) . . .
38.4(32) . . .
45(4) . . .
36.8(34) . . .
40(4) . . .
35.0(32) . . .
44.1(34) . . .
36.5(32) . . .
40(4) . . .
42.8(34) . . .
37.2(31) . . .
49(4) . . .
43.3(34) . . .
42(4) . . .
46(4) . . .
41.2(34) . . .
56(4) . . .
52(4) . . .
49(4) . . .
48(4) . . .
43.6(34) . . .
42.6(34) . . .
39.0(32) . . .
38.7(34) . . .
42(4) . . .
36.4(32) . . .
40.7(34) . . .
41.0(34) . . .
44(4) . . .
38.6(33) . . .
40.8(34) . . .
38.7(32) . . .
39.1(32) . . .
41.1(34) . . .
39.2(33) . . .
49(4) . . .
44.0(34) . . .
45(4) . . .
40.8(34) . . .
53(4) . . .
40.9(34) . . .
51(4) . . .
46(4) . . .
46(4) . . .
46(4) . . .
41.5(34) . . .
38.3(34) . . .
45(4) . . .
49(4) . . .
39.1(34) . . .
46(4) . . .
47(4) . . .
45(4) . . .
48(4) . . .
38.5(33) . . .
47(4) . . .
42.1(35) . . .
46(4) . . .
57(4) . . .
33.1(30) . . .
41.6(33) . . .
46(4) . . .
47(4) . . .
38.9(32) . . .
50(4) . . .
50(4) . . .
50(4) . . .
49(4) . . .
50(4) . . .
39.2(33) . . .
47(4) . . .
42.5(34) . . .
43(4) . . .
41.3(35) . . .
39.5(34) . . .
36.2(33) . . .
43(4) . . .
45(4) . . .
42.3(34) . . .
43.0(34) . . .
45(4) . . .
42.9(34) . . .
43.4(35) . . .
36.0(31) . . .
39.4(32) . . .
43(4) . . .
40.0(34) . . .
40.8(34) . . .
46(4) . . .
48(4) . . .
54(4) . . .
52(4) . . .
36.9(34) . . .
35.8(31) . . .
45.3(35) . . .
50(4) . . .
49(4) . . .
42.3(35) . . .
45(4) . . .
43.4(35) . . .
46(4) . . .
50(4) . . .
40.1(33) . . .
46(4) . . .
43.4(34) . . .
43(4) . . .
41.5(35) . . .
36.4(33) . . .
47(4) . . .
45(4) . . .
36.9(32) . . .
47(4) . . .
35.3(31) . . .
42.5(35) . . .
45.4(35) . . .
40(4) . . .
40(4) . . .
48(4) . . .
43.2(34) . . .
39.5(33) . . .
33.5(35) . . .
29.3(30) . . .
40.3(34) . . .
37.3(32) . . .
45(4) . . .
39.7(35) . . .
42(4) . . .
35.7(32) . . .
40.7(34) . . .
39.3(33) . . .
44(4) . . .
35.3(31) . . .
46(4) . . .
37.4(32) . . .
34.2(31) . . .
45(4) . . .
47(4) . . .
35.1(31) . . .
45.2(35) . . .
36.8(32) . . .
36.0(33) . . .
34.1(30) . . .
50(4) . . .
53(4) . . .
39.1(34) . . .
51(4) . . .
48(4) . . .
47(4) . . .
35.8(31) . . .
48(4) . . .
42.3(35) . . .
50(4) . . .
49(4) . . .
40.6(34) . . .
39.9(35) . . .
46(4) . . .
46(4) . . .
52(4) . . .
44.2(34) . . .
40(4) . . .
43(4) . . .
46(4) . . .
45(4) . . .
43.8(34) . . .
39.6(35) . . .
36.3(32) . . .
44(4) . . .
42.4(34) . . .
45(4) . . .
38.0(33) . . .
44(4) . . .
37.8(32) . . .
39.2(32) . . .
34.2(30) . . .
37.2(32) . . .
46(4) . . .
35.1(31) . . .
34.2(31) . . .
47(4) . . .
47(4) . . .
45(4) . . .
52(4) . . .
53(4) . . .
40.5(33) . . .
38.8(34) . . .
48(4) . . .
48(4) . . .
35.6(31) . . .
34.7(31) . . .
42(4) . . .
47(4) . . .
45(4) . . .
42.8(34) . . .
38.0(33) . . .
47(4) . . .
38.6(35) . . .
34.9(31) . . .
33.6(30) . . .
37.0(32) . . .
53(4) . . .
37.0(32) . . .
36.0(32) . . .
43.6(35) . . .
44.5(35) . . .
39.9(34) . . .
38.5(33) . . .
45(4) . . .
47(4) . . .
44(4) . . .
45(4) . . .
40.9(34) . . .
42.1(34) . . .
49(4) . . .
46(4) . . .
34.8(32) . . .
51(4) . . .
45.1(35) . . .
33.6(31) . . .
43(4) . . .
35.9(33) . . .
38.9(34) . . .
48(4) . . .
49(4) . . .
45(4) . . .
44(4) . . .
43.5(35) . . .
51(4) . . .
39.2(32) . . .
42(4) . . .
43(4) . . .
47(4) . . .
44.3(34) . . .
47(4) . . .
37.5(34) . . .
38.1(35) . . .
40(4) . . .
37.4(32) . . .
41.7(35) . . .
46(4) . . .
44(4) . . .
51(4) . . .
44.1(35) . . .
48(4) . . .
40.0(34) . . .
38.0(34) . . .
46(4) . . .
45.8(35) . . .
46(4) . . .
47(4) . . .
38.9(34) . . .
31.9(30) . . .
40.4(33) . . .
40.6(34) . . .
37.6(34) . . .
56(4) . . .
43.7(35) . . .
42.9(34) . . .
42(4) . . .
43(4) . . .
52(4) . . .
39.8(33) . . .
45.5(35) . . .
47(4) . . .
43(4) . . .
44(4) . . .
44.1(35) . . .
47(4) . . .
45(4) . . .
42(4) . . .
36.6(32) . . .
44(4) . . .
44.0(34) . . .
50(4) . . .
46(4) . . .
47(4) . . .
52(4) . . .
50(4) . . .
41.0(34) . . .
43(4) . . .
41.3(35) . . .
32.5(29) . . .
45(4) . . .
46(4) . . .
42(4) . . .
50(4) . . .
42.5(35) . . .
33.1(30) . . .
40.0(35) . . .
47(4) . . .
47(4) . . .
52(4) . . .
41.2(34) . . .
38.5(32) . . .
31.9(30) . . .
41.7(34) . . .
48(4) . . .
43(4) . . .
38.3(34) . . .
56(4) . . .
50(4) . . .
40.2(33) . . .
37.3(31) . . .
39.6(33) . . .
53(4) . . .
40.7(33) . . .
40.6(33) . . .
46(4) . . .
45(4) . . .
45(4) . . .
41(4) . . .
41.7(34) . . .
45(4) . . .
41(4) . . .
48(4) . . .
47(4) . . .
37.4(32) . . .
49(4) . . .
45(4) . . .
45(4) . . .
39.9(34) . . .
39.5(32) . . .
45(4) . . .
33.4(31) . . .
41.4(35) . . .
49(4) . . .
40.8(35) . . .
46(4) . . .
45(4) . . .
41.4(33) . . .
39.8(33) . . .
36.6(32) . . .
37.2(33) . . .
55(4) . . .
45(4) . . .
47(4) . . .
37.0(32) . . .
35.8(32) . . .
41.9(34) . . .
40.5(33) . . .
37.3(33) . . .
48(4) . . .
44(4) . . .
40.3(34) . . .
31.3(30) . . .
42.2(34) . . .
45(4) . . .
44(4) . . .
38.4(34) . . .
35.1(32) . . .
40.4(34) . . .
37.3(31) . . .
40.9(34) . . .
32.7(30) . . .
37.6(33) . . .
41.2(33) . . .
38.7(33) . . .
52(4) . . .
45(4) . . .
49(4) . . .
48(4) . . .
42(4) . . .
37.6(33) . . .
41.8(34) . . .
51(4) . . .
46(4) . . .
43(4) . . .
46(4) . . .
52(4) . . .
44.6(35) . . .
40.1(33) . . .
38.7(35) . . .
39(4) . . .
45(4) . . .
46.7(35) . . .
45.0(35) . . .
44(4) . . .
38(4) . . .
33.9(30) . . .
41.5(34) . . .
41.8(34) . . .
37.8(33) . . .
46(4) . . .
43(4) . . .
31.7(29) . . .
40.0(33) . . .
41(4) . . .
37.2(34) . . .
42(4) . . .
34.7(31) . . .
39.3(33) . . .
34.7(32) . . .
41.4(35) . . .
45(4) . . .
41.1(34) . . .
32.2(30) . . .
42.2(34) . . .
41.4(34) . . .
46(4) . . .
49(4) . . .
32.7(30) . . .
44(4) . . .
47(4) . . .
44.5(34) . . .
42.4(34) . . .
54(4) . . .
44.3(34) . . .
38.1(31) . . .
45.8(35) . . .
49(4) . . .
47(4) . . .
35.7(32) . . .
40.6(34) . . .
39.7(33) . . .
41.2(34) . . .
46(4) . . .
34.6(33) . . .
48(4) . . .
45(4) . . .
40.6(34) . . .
36.5(31) . . .
37.1(34) . . .
37.9(34) . . .
37.8(33) . . .
42.0(34) . . .
43.3(35) . . .
50(4) . . .
39.6(34) . . .
32.2(30) . . .
38.2(32) . . .
45(4) . . .
40.1(34) . . .
39.5(35) . . .
42.7(34) . . .
47(4) . . .
37.8(34) . . .
40(4) . . .
35.4(33) . . .
37.8(32) . . .
35.2(31) . . .
47(4) . . .
46(4) . . .
38.2(32) . . .
31.8(29) . . .
35.6(31) . . .
49(4) . . .
46(4) . . .
49(4) . . .
42.2(34) . . .
46(4) . . .
48(4) . . .
49(4) . . .
45(4) . . .
41.9(34) . . .
48(4) . . .
49(4) . . .
37.8(31) . . .
42.3(34) . . .
43.6(34) . . .
43.4(35) . . .
38(4) . . .
35.6(32) . . .
35.8(31) . . .
43.2(35) . . .
45(4) . . .
37.4(34) . . .
36.8(32) . . .
40.5(33) . . .
41.6(34) . . .
38.0(32) . . .
41.4(35) . . .
38.3(33) . . .
45.0(35) . . .
44.5(35) . . .
38.3(32) . . .
46(4) . . .
43(4) . . .
39.4(33) . . .
38.1(32) . . .
37.6(33) . . .
44(4) . . .
42.3(34) . . .
35.2(31) . . .
48(4) . . .
47(4) . . .
49(4) . . .
48(4) . . .
37.9(33) . . .
36.5(31) . . .
54(4) . . .
40.8(33) . . .
37.7(31) . . .
38.0(32) . . .
38.6(34) . . .
39(4) . . .
35.2(33) . . .
37.8(32) . . .
44.0(35) . . .
33.8(32) . . .
35.6(33) . . .
32.3(31) . . .
40.8(34) . . .
40.5(33) . . .
45(4) . . .
46(4) . . .
37.4(32) . . .
39.7(33) . . .
46(4) . . .
41.5(34) . . .
42(4) . . .
39(4) . . .
38.1(33) . . .
40.0(33) . . .
43.2(34) . . .
38.5(34) . . .
38.7(34) . . .
38.7(32) . . .
35.6(31) . . .
41.0(33) . . .
44(4) . . .
36.7(32) . . .
38.1(32) . . .
37.0(32) . . .
40(4) . . .
39.5(33) . . .
41.1(34) . . .
35.7(31) . . .
46(4) . . .
39.2(34) . . .
40.3(34) . . .
38.6(33) . . .
39.8(33) . . .
38.2(32) . . .
41.8(34) . . .
30.0(30) . . .
36.8(33) . . .
39.7(33) . . .
36.3(34) . . .
51(4) . . .
49(4) . . .
42.2(34) . . .
36.2(31) . . .
45(4) . . .
46(4) . . .
37.2(32) . . .
38.8(32) . . .
44.9(35) . . .
48(4) . . .
36.2(32) . . .
39.1(33) . . .
46(4) . . .
40.3(33) . . .
41(4) . . .
47(4) . . .
36.5(32) . . .
36.7(31) . . .
46(4) . . .
34.0(34) . . .
42(4) . . .
43(4) . . .
33.2(30) . . .
43.2(34) . . .
39.5(34) . . .
39.3(35) . . .
43(4) . . .
44(4) . . .
33.5(30) . . .
28.2(29) . . .
44(4) . . .
49(4) . . .
31.4(30) . . .
39.0(33) . . .
34.1(32) . . .
33.6(34) . . .
29.5(29) . . .
39.4(34) . . .
41.5(34) . . .
37.2(32) . . .
41(4) . . .
44(4) . . .
36.0(31) . . .
40.6(34) . . .
36.6(33) . . .
44(4) . . .
38.2(32) . . .
42.2(34) . . .
35.5(32) . . .
39.6(34) . . .
36.4(32) . . .
35.4(32) . . .
46(4) . . .
40.4(34) . . .
39.0(33) . . .
44(4) . . .
44(4) . . .
40.6(33) . . .
43.2(34) . . .
41(4) . . .
41(4) . . .
37.6(33) . . .
41.8(34) . . .
33.1(30) . . .
42(4) . . .
43.0(34) . . .
37.8(32) . . .
44.2(35) . . .
36.9(33) . . .
35.4(32) . . .
33.3(29) . . .
42.4(34) . . .
40.8(34) . . .
40.1(34) . . .
41(4) . . .
41.5(34) . . .
36.0(31) . . .
40.4(33) . . .
37.9(32) . . .
47(4) . . .
44(4) . . .
39.2(33) . . .
39.9(32) . . .
34.7(30) . . .
34.9(33) . . .
36.8(35) . . .
50(4) . . .
46.1(35) . . .
39.2(34) . . .
42(4) . . .
39.5(34) . . .
41.6(33) . . .
39.2(32) . . .
37.1(32) . . .
46(4) . . .
42.8(35) . . .
44.3(34) . . .
39.0(33) . . .
45(4) . . .
39.1(35) . . .
39.6(33) . . .
48(4) . . .
37.0(32) . . .
39.5(33) . . .
43(4) . . .
35.8(31) . . .
38.1(32) . . .
37.2(32) . . .
35.4(31) . . .
39.8(33) . . .
43(4) . . .
46(4) . . .
44(4) . . .
40(4) . . .
34.2(30) . . .
44.4(35) . . .
50(4) . . .
39.2(34) . . .
45(4) . . .
38.2(34) . . .
46(4) . . .
40.3(33) . . .
46(4) . . .
34.6(33) . . .
38(4) . . .
44.3(35) . . .
49(4) . . .
44.6(34) . . .
38.9(35) . . .
47(4) . . .
43.7(34) . . .
43.7(35) . . .
48(4) . . .
41(4) . . .
44(4) . . .
39.6(33) . . .
24.9(26) . . .
40(4) . . .
31.7(33) . . .
46(4) . . .
35.6(32) . . .
50(4) . . .
48(4) . . .
45(4) . . .
41.0(34) . . .
48(4) . . .
50(4) . . .
34.9(31) . . .
33.7(31) . . .
48(4) . . .
41.1(33) . . .
46(4) . . .
47(4) . . .
49(4) . . .
47(4) . . .
34.3(30) . . .
45(4) . . .
43(4) . . .
57(4) . . .
45(4) . . .
35.5(31) . . .
33.3(30) . . .
46(4) . . .
43(4) . . .
38.8(33) . . .
42.7(34) . . .
35.5(32) . . .
38.7(34) . . .
40.8(33) . . .
39.3(33) . . .
46.1(35) . . .
41.8(35) . . .
43(4) . . .
43(4) . . .
42(4) . . .
43.7(34) . . .
50(4) . . .
38.8(34) . . .
43(4) . . .
43.6(35) . . .
34.6(31) . . .
35.5(31) . . .
46(4) . . .
48(4) . . .
39.1(35) . . .
36.3(31) . . .
44(4) . . .
37.9(33) . . .
41(4) . . .
38.0(32) . . .
44.8(35) . . .
37.8(32) . . .
32.3(30) . . .
55(4) . . .
41.6(34) . . .
36.7(32) . . .
37.9(33) . . .
40.5(35) . . .
39.4(34) . . .
29.5(28) . . .
38.3(32) . . .
42.3(35) . . .
38.7(32) . . .
46(4) . . .
51(4) . . .
43.7(35) . . .
44(4) . . .
48(4) . . .
45(4) . . .
34.3(31) . . .
48(4) . . .
43(4) . . .
44(4) . . .
45(4) . . .
42.8(34) . . .
43(4) . . .
46(4) . . .
39(4) . . .
43(4) . . .
37.5(32) . . .
34.5(30) . . .
47(4) . . .
40.3(34) . . .
40.5(33) . . .
42.9(34) . . .
46(4) . . .
43(4) . . .
49(4) . . .
34.2(31) . . .
42.4(35) . . .
43(4) . . .
36.5(33) . . .
43(4) . . .
31.8(31) . . .
45(4) . . .
37.1(33) . . .
40(4) . . .
42.3(34) . . .
47(4) . . .
52(4) . . .
31.9(30) . . .
39(4) . . .
38.3(33) . . .
35.2(32) . . .
43.4(34) . . .
40.9(33) . . .
43(4) . . .
46(4) . . .
35.7(31) . . .
41.6(34) . . .
36.8(32) . . .
42.7(35) . . .
46(4) . . .
41.0(34) . . .
41.9(35) . . .
45(4) . . .
44(4) . . .
43(4) . . .
39.2(33) . . .
38.5(33) . . .
50(4) . . .
48(4) . . .
36.7(32) . . .
40.8(33) . . .
34.7(31) . . .
38.8(32) . . .
49(4) . . .
43(4) . . .
37.7(32) . . .
36.0(32) . . .
50(4) . . .
37.8(33) . . .
47(4) . . .
41.8(34) . . .
32.1(32) . . .
29.3(33) . . .
32.0(30) . . .
44.0(34) . . .
54(4) . . .
46(4) . . .
44(4) . . .
46(4) . . .
41.0(34) . . .
42.6(34) . . .
53(4) . . .
43(4) . . .
39.9(33) . . .
39.8(33) . . .
34.8(30) . . .
40.4(35) . . .
45(4) . . .
41.0(34) . . .
44.1(35) . . .
43(4) . . .
41(4) . . .
44(4) . . .
42(4) . . .
41.3(34) . . .
46(4) . . .
41.9(35) . . .
44(4) . . .
40(4) . . .
40.4(33) . . .
48(4) . . .
41.7(33) . . .
35.9(31) . . .
34.1(31) . . .
42.9(34) . . .
43(4) . . .
36.7(32) . . .
38.6(32) . . .
37.9(33) . . .
37.7(32) . . .
36.3(32) . . .
44(4) . . .
45(4) . . .
42.8(34) . . .
43.2(34) . . .
39.6(33) . . .
45(4) . . .
32.3(30) . . .
35.7(31) . . .
44.3(35) . . .
46(4) . . .
39(4) . . .
40.4(35) . . .
37.7(32) . . .
41.1(33) . . .
42(4) . . .
46(4) . . .
34.3(30) . . .
45(4) . . .
37.0(31) . . .
41.4(35) . . .
38(4) . . .
42(4) . . .
40.1(33) . . .
35.1(31) . . .
39.6(33) . . .
52(4) . . .
41.5(34) . . .
33.5(30) . . .
35.1(31) . . .
32.3(31) . . .
38.1(35) . . .
48(4) . . .
45.1(35) . . .
40.0(33) . . .
43(4) . . .
37.7(33) . . .
35.3(33) . . .
43.7(34) . . .
45(4) . . .
49(4) . . .
39.3(35) . . .
34.0(31) . . .
39.0(33) . . .
39.0(34) . . .
40.6(34) . . .
47(4) . . .
39.5(34) . . .
44.9(35) . . .
41.6(34) . . .
44.4(35) . . .
37.8(32) . . .
34.6(31) . . .
44.4(34) . . .
41.9(35) . . .
49(4) . . .
38.6(33) . . .
47(4) . . .
44.9(35) . . .
47(4) . . .
37.5(34) . . .
38.5(32) . . .
39.4(33) . . .
34.4(31) . . .
44(4) . . .
31.8(29) . . .
46(4) . . .
33.9(30) . . .
38.2(32) . . .
32.8(31) . . .
37.4(35) . . .
40.2(35) . . .
43.5(34) . . .
48(4) . . .
34.9(30) . . .
46(4) . . .
39.4(33) . . .
38.2(32) . . .
45(4) . . .
38.8(34) . . .
37.3(33) . . .
38.5(33) . . .
42.1(34) . . .
36.3(31) . . .
38.8(33) . . .
37.8(33) . . .
46(4) . . .
40.5(33) . . .
41.2(33) . . .
38.3(35) . . .
34.1(33) . . .
35.3(35) . . .
42.1(34) . . .
46(4) . . .
43.1(35) . . .
40(4) . . .
48(4) . . .
49(4) . . .
32.8(30) . . .
39.2(35) . . .
43(4) . . .
43(4) . . .
39.5(32) . . .
41(4) . . .
41.7(34) . . .
45(4) . . .
40.9(34) . . .
38.7(32) . . .
35.2(34) . . .
38.4(35) . . .
35.5(32) . . .
45(4) . . .
46(4) . . .
34.9(31) . . .
38.4(34) . . .
39.1(34) . . .
35.8(31) . . .
38.2(32) . . .
37.7(33) . . .
47(4) . . .
42.5(34) . . .
45.8(35) . . .
39.7(33) . . .
47(4) . . .
32.0(30) . . .
40(4) . . .
35.8(31) . . .
41(4) . . .
35.5(32) . . .
34.6(34) . . .
33.8(31) . . .
44.7(34) . . .
39.8(33) . . .
36.9(32) . . .
36.6(32) . . .
50(4) . . .
36.6(32) . . .
44(4) . . .
45(4) . . .
41(4) . . .
37.3(35) . . .
39.6(34) . . .
34.1(31) . . .
41(4) . . .
43(4) . . .
40(4) . . .
40.6(33) . . .
40.1(34) . . .
43(4) . . .
32.5(31) . . .
51(4) . . .
50(4) . . .
45(4) . . .
33.4(32) . . .
31.3(30) . . .
41(4) . . .
47(4) . . .
41(4) . . .
36.1(34) . . .
39.0(33) . . .
46(4) . . .
36.7(32) . . .
42.6(34) . . .
41.9(35) . . .
40.2(35) . . .
38.3(33) . . .
49(4) . . .
42.7(35) . . .
40.6(34) . . .
40.3(34) . . .
42.9(34) . . .
43.2(34) . . .
47(4) . . .
41(4) . . .
36.9(34) . . .
32.0(29) . . .
48(4) . . .
44(4) . . .
45(4) . . .
39.0(33) . . .
36.6(32) . . .
40.3(33) . . .
39.5(33) . . .
35.5(33) . . .
42.5(35) . . .
41.3(33) . . .
37.2(31) . . .
40.2(35) . . .
41(4) . . .
40.4(34) . . .
38.3(32) . . .
43.0(34) . . .
43(4) . . .
39.3(33) . . .
33.7(30) . . .
35.0(30) . . .
35.9(31) . . .
45(4) . . .
45(4) . . .
33.5(31) . . .
38.5(32) . . .
36.7(33) . . .
36.1(33) . . .
40.8(35) . . .
36.5(32) . . .
36.6(32) . . .
52(4) . . .
35.2(32) . . .
31.9(30) . . .
45(4) . . .
39.4(33) . . .
38.7(33) . . .
52(4) . . .
42.0(34) . . .
42(4) . . .
41.1(33) . . .
36.8(32) . . .
36.2(35) . . .
36.7(32) . . .
36.5(31) . . .
35.5(34) . . .
33.7(32) . . .
35.5(34) . . .
31.5(29) . . .
32.9(29) . . .
44.3(34) . . .
39.5(34) . . .
36.1(34) . . .
40.6(34) . . .
39.9(33) . . .
39.5(32) . . .
41.0(35) . . .
36.4(34) . . .
36.0(33) . . .
40.3(34) . . .
31.2(29) . . .
43(4) . . .
38.0(35) . . .
34.3(31) . . .
45(4) . . .
38.3(32) . . .
38.2(33) . . .
42(4) . . .
38.2(35) . . .
33.9(30) . . .
37.8(32) . . .
39.3(33) . . .
42(4) . . .
36.8(31) . . .
43.5(35) . . .
38.1(34) . . .
37.3(33) . . .
45(4) . . .
35.5(32) . . .
39.9(33) . . .
48(4) . . .
43(4) . . .
32.2(30) . . .
36.8(34) . . .
36.9(32) . . .
34.4(33) . . .
43(4) . . .
40.0(35) . . .
38.7(32) . . .
38.5(32) . . .
44(4) . . .
43(4) . . .
36.4(32) . . .
39.0(33) . . .
44.7(34) . . .
38.7(33) . . .
38(4) . . .
30.6(29) . . .
43.3(35) . . .
42.6(34) . . .
30.1(28) . . .
46(4) . . .
38.1(33) . . .
35.9(31) . . .
36.7(31) . . .
39.0(33) . . .
37.7(33) . . .
43(4) . . .
37.6(33) . . .
44(4) . . .
36.8(34) . . .
26.2(28) . . .
35.5(32) . . .
53(4) . . .
40.2(34) . . .
31.8(29) . . .
35.9(33) . . .
46(4) . . .
40.6(33) . . .
33.6(32) . . .
31.4(29) . . .
39.7(35) . . .
38(4) . . .
31.6(29) . . .
37.1(33) . . .
43.2(35) . . .
47(4) . . .
44.9(35) . . .
38.3(32) . . .
45(4) . . .
36.9(32) . . .
33.6(30) . . .
37.9(33) . . .
40.2(33) . . .
48(4) . . .
30.5(29) . . .
49(4) . . .
37.3(31) . . .
37.6(32) . . .
43(4) . . .
32.9(32) . . .
32.6(30) . . .
39.5(33) . . .
33.8(31) . . .
35.3(32) . . .
37(4) . . .
40.2(33) . . .
41.2(33) . . .
45(4) . . .
36.1(32) . . .
36.1(32) . . .
37.8(33) . . .
39.6(33) . . .
44.8(34) . . .
48(4) . . .
36.4(34) . . .
39(4) . . .
29.8(28) . . .
41.3(35) . . .
45(4) . . .
46(4) . . .
39.4(34) . . .
47(4) . . .
40.1(33) . . .
38.0(32) . . .
39.9(35) . . .
41.6(34) . . .
40.6(33) . . .
36.5(33) . . .
39(4) . . .
45(4) . . .
37.0(33) . . .
36.2(31) . . .
47(4) . . .
45(4) . . .
43(4) . . .
41(4) . . .
51(4) . . .
41(4) . . .
38.7(34) . . .
34.1(31) . . .
37.7(33) . . .
45(4) . . .
45(4) . . .
43(4) . . .
41.1(34) . . .
47(4) . . .
46.2(35) . . .
53(4) . . .
40.5(34) . . .
46(4) . . .
39.2(32) . . .
38.0(32) . . .
40(4) . . .
37.4(33) . . .
42.9(34) . . .
43.4(34) . . .
37.2(32) . . .
45(4) . . .
37.1(34) . . .
38.2(32) . . .
35.5(31) . . .
38.6(32) . . .
40.0(34) . . .
43(4) . . .
43(4) . . .
39.0(33) . . .
39.3(32) . . .
43(4) . . .
44(4) . . .
36.3(32) . . .
37.4(32) . . .
41.3(34) . . .
31.9(29) . . .
38.7(33) . . .
38.2(33) . . .
34.5(30) . . .
39.0(32) . . .
45(4) . . .
44(4) . . .
44(4) . . .
41.1(34) . . .
36.1(32) . . .
43(4) . . .
42(4) . . .
38.9(33) . . .
39.7(33) . . .
40.1(33) . . .
36.1(32) . . .
34.2(33) . . .
30.3(30) . . .
39.5(33) . . .
39.8(34) . . .
44(4) . . .
39.7(34) . . .
39.3(33) . . .
35.5(32) . . .
37.0(34) . . .
35.0(31) . . .
38.4(33) . . .
41.3(34) . . .
46(4) . . .
39.0(34) . . .
46(4) . . .
39.4(32) . . .
47(4) . . .
45.0(35) . . .
37.2(33) . . .
49(4) . . .
43(4) . . .
29.1(28) . . .
30.7(28) . . .
42.0(35) . . .
38.5(35) . . .
40.4(34) . . .
38.3(33) . . .
38.0(33) . . .
41.5(34) . . .
34.0(33) . . .
30.5(30) . . .
38.9(33) . . .
31.3(29) . . .
38.5(33) . . .
51(4) . . .
43.4(35) . . .
34.4(31) . . .
41.5(34) . . .
41.9(35) . . .
40.1(34) . . .
39.6(34) . . .
37.3(32) . . .
49(4) . . .
36.9(33) . . .
28.6(29) . . .
37.1(33) . . .
41.5(34) . . .
35.3(33) . . .
35.0(31) . . .
38.8(34) . . .
34.7(31) . . .
30.9(29) . . .
37.1(32) . . .
41.9(34) . . .
35.9(31) . . .
39.7(35) . . .
34.4(31) . . .
49(4) . . .
37.0(33) . . .
42(4) . . .
37.7(32) . . .
42.9(34) . . .
48(4) . . .
44(4) . . .
45(4) . . .
34.7(30) . . .
45.2(35) . . .
31.4(30) . . .
44(4) . . .
39.5(35) . . .
38.2(33) . . .
47(4) . . .
47(4) . . .
42(4) . . .
41.5(35) . . .
45.9(35) . . .
45(4) . . .
45(4) . . .
36.9(33) . . .
33.7(31) . . .
37.4(31) . . .
39.0(33) . . .
46(4) . . .
32.0(30) . . .
38(4) . . .
41.8(34) . . .
41.6(34) . . .
40.0(34) . . .
34.0(31) . . .
38.3(32) . . .
47(4) . . .
44(4) . . .
36.3(31) . . .
38.0(31) . . .
40.9(34) . . .
45(4) . . .
42(4) . . .
38.6(32) . . .
50(4) . . .
46(4) . . .
34.3(30) . . .
41.1(34) . . .
40(4) . . .
42(4) . . .
37.9(32) . . .
39.6(32) . . .
35.4(32) . . .
34.2(33) . . .
40(4) . . .
33.9(32) . . .
48(4) . . .
35.8(33) . . .
37.8(34) . . .
35.8(31) . . .
39.7(34) . . .
39.1(32) . . .
40.7(34) . . .
42(4) . . .
37.5(34) . . .
36.1(33) . . .
41.1(33) . . .
43(4) . . .
47(4) . . .
40.4(35) . . .
36.8(33) . . .
40.5(33) . . .
45(4) . . .
44(4) . . .
36.1(31) . . .
38.2(32) . . .
35.0(30) . . .
34.0(30) . . .
45(4) . . .
43(4) . . .
39.9(33) . . .
38.4(33) . . .
44(4) . . .
30.3(29) . . .
40(4) . . .
38.2(32) . . .
31.9(29) . . .
34.0(30) . . .
43(4) . . .
38.1(32) . . .
39.0(32) . . .
43.6(34) . . .
39.7(35) . . .
45(4) . . .
40.1(34) . . .
39.0(33) . . .
38.8(33) . . .
37.3(34) . . .
40.3(35) . . .
43.2(34) . . .
42.9(35) . . .
44(4) . . .
47(4) . . .
36.1(33) . . .
38.2(33) . . .
38.6(32) . . .
39.5(34) . . .
39.0(35) . . .
31.6(28) . . .
35.6(31) . . .
34.2(31) . . .
35.9(31) . . .
43(4) . . .
40.4(35) . . .
32.7(31) . . .
33.7(30) . . .
42.0(34) . . .
49(4) . . .
36.2(32) . . .
44.2(35) . . .
34.7(30) . . .
45(4) . . .
40(4) . . .
39(4) . . .
35.7(31) . . .
39.0(34) . . .
38.2(34) . . .
40(4) . . .
44(4) . . .
32.5(30) . . .
38.8(33) . . .
35.6(33) . . .
34.9(32) . . .
41.6(34) . . .
37.2(31) . . .
35.0(31) . . .
39.2(34) . . .
33.3(30) . . .
41.6(35) . . .
40.3(33) . . .
32.3(30) . . .
35.4(33) . . .
33.7(31) . . .
46(4) . . .
35.4(31) . . .
30.9(29) . . .
38.9(34) . . .
40.8(33) . . .
40.8(32) . . .
51(4) . . .
48(4) . . .
42(4) . . .
34.2(30) . . .
41.3(33) . . .
40.7(34) . . .
33.7(31) . . .
39.6(34) . . .
38.7(32) . . .
45.0(35) . . .
38.0(33) . . .
44(4) . . .
36.5(32) . . .
38.8(35) . . .
32.5(30) . . .
34.2(32) . . .
39.4(33) . . .
40.2(34) . . .
40.3(34) . . .
35.5(31) . . .
36.7(32) . . .
42.5(34) . . .
42(4) . . .
32.9(31) . . .
40.0(33) . . .
32.4(29) . . .
36.8(33) . . .
33.3(32) . . .
37.5(33) . . .
38.3(32) . . .
38.0(32) . . .
39.5(34) . . .
45(4) . . .
35.2(31) . . .
44.6(35) . . .
37.6(32) . . .
42(4) . . .
34.7(32) . . .
39(4) . . .
40.5(33) . . .
34.6(30) . . .
39.3(34) . . .
36.3(33) . . .
38.7(33) . . .
44.4(35) . . .
36.9(32) . . .
39.8(34) . . .
35.4(33) . . .
39.9(33) . . .
42.6(34) . . .
34.7(31) . . .
29.6(29) . . .
38.2(34) . . .
48(4) . . .
47(4) . . .
39.4(33) . . .
34.1(31) . . .
31.5(30) . . .
37.1(33) . . .
42.4(34) . . .
48(4) . . .
34.6(31) . . .
30.3(30) . . .
44(4) . . .
41.3(33) . . .
36.7(32) . . .
29.9(30) . . .
36.8(34) . . .
47(4) . . .
36.5(32) . . .
35.3(31) . . .
39(4) . . .
43.3(35) . . .
33.5(30) . . .
40.0(32) . . .
44(4) . . .
34.3(30) . . .
37.2(32) . . .
39.2(33) . . .
43.3(34) . . .
41.6(34) . . .
40.3(35) . . .
41.3(34) . . .
47(4) . . .
42.7(34) . . .
45(4) . . .
38.2(34) . . .
40.4(34) . . .
37.5(31) . . .
39.4(32) . . .
41(4) . . .
31.3(28) . . .
43.2(34) . . .
39.9(33) . . .
37.2(32) . . .
38.6(34) . . .
41.8(35) . . .
35.1(31) . . .
35.0(31) . . .
35.2(32) . . .
52(4) . . .
37.8(32) . . .
41.3(34) . . .
46(4) . . .
40.0(35) . . .
28.7(30) . . .
38.1(34) . . .
38.1(34) . . .
34.5(30) . . .
45(4) . . .
42(4) . . .
28.6(27) . . .
39.2(33) . . .
32.1(30) . . .
28.5(28) . . .
49(4) . . .
37.9(32) . . .
38.1(32) . . .
27.7(27) . . .
43(4) . . .
42(4) . . .
41.5(35) . . .
46(4) . . .
37.5(32) . . .
48(4) . . .
41(4) . . .
40.5(35) . . .
45(4) . . .
39.0(34) . . .
35.7(32) . . .
42.0(35) . . .
38.1(32) . . .
40.1(34) . . .
50(4) . . .
39.4(33) . . .
40.3(34) . . .
44(4) . . .
45.2(35) . . .
35.1(30) . . .
40.3(34) . . .
44(4) . . .
33.6(30) . . .
40.3(33) . . .
38.8(33) . . .
34.0(30) . . .
40.5(34) . . .
37.7(33) . . .
39.3(32) . . .
45(4) . . .
50(4) . . .
41(4) . . .
39.7(34) . . .
37.3(32) . . .
38.7(34) . . .
37.0(32) . . .
40.7(34) . . .
43(4) . . .
43.4(34) . . .
36.9(31) . . .
41(4) . . .
37.3(32) . . .
37.7(32) . . .
38.5(33) . . .
31.7(29) . . .
35.0(34) . . .
46(4) . . .
37.4(33) . . .
42.1(34) . . .
36.7(34) . . .
30.4(33) . . .
32.5(31) . . .
36.1(32) . . .
48(4) . . .
42.8(35) . . .
37.2(35) . . .
42(4) . . .
38.2(32) . . .
34.6(31) . . .
32.9(30) . . .
38.6(34) . . .
32.5(30) . . .
32.4(30) . . .
33.9(31) . . .
41(4) . . .
31.5(31) . . .
33.1(31) . . .
32.7(30) . . .
41.3(34) . . .
48(4) . . .
43(4) . . .
34.2(31) . . .
32.3(30) . . .
34.3(30) . . .
34.8(32) . . .
37.1(33) . . .
31.7(30) . . .
39.7(33) . . .
44(4) . . .
35.3(32) . . .
29.5(29) . . .
33.4(30) . . .
44.7(35) . . .
41.5(33) . . .
43(4) . . .
30.4(28) . . .
39.1(32) . . .
36.5(31) . . .
35.5(31) . . .
38.9(35) . . .
32.9(29) . . .
48(4) . . .
36.3(32) . . .
38.3(34) . . .
40(4) . . .
30.0(29) . . .
23.8(26) . . .
33.0(30) . . .
36.4(32) . . .
46(4) . . .
48(4) . . .
43.5(34) . . .
31.4(30) . . .
40(4) . . .
37.4(32) . . .
40.3(33) . . .
41.3(33) . . .
33.6(31) . . .
32.4(29) . . .
36.0(35) . . .
35.8(32) . . .
37.6(32) . . .
40.5(33) . . .
40.5(34) . . .
42(4) . . .
31.0(30) . . .
35.8(32) . . .
36.8(34) . . .
40.1(34) . . .
41(4) . . .
47(4) . . .
41.3(34) . . .
38.6(32) . . .
33.3(30) . . .
41(4) . . .
30.5(30) . . .
39.4(33) . . .
35.4(32) . . .
39(4) . . .
39(4) . . .
39.9(34) . . .
31.8(29) . . .
34.6(31) . . .
35.0(32) . . .
36.0(33) . . .
36.3(32) . . .
39.4(32) . . .
35.5(32) . . .
37.2(33) . . .
34.4(32) . . .
36.5(32) . . .
41.4(34) . . .
40.2(33) . . .
36.4(32) . . .
36.5(31) . . .
34.1(30) . . .
29.9(28) . . .
42.8(35) . . .
43(4) . . .
40.2(35) . . .
32.8(29) . . .
38.3(32) . . .
52(4) . . .
39.2(34) . . .
37.2(34) . . .
31.5(29) . . .
38.3(32) . . .
38.1(34) . . .
38.5(34) . . .
35.4(32) . . .
45(4) . . .
40.4(33) . . .
40.2(33) . . .
48(4) . . .
39.8(33) . . .
38.6(33) . . .
42.8(34) . . .
45(4) . . .
38.7(34) . . .
28.1(28) . . .
42.9(35) . . .
39.5(32) . . .
41.5(34) . . .
44(4) . . .
34.0(31) . . .
41.6(34) . . .
45(4) . . .
30.4(29) . . .
41(4) . . .
31.7(30) . . .
30.5(28) . . .
45(4) . . .
47(4) . . .
35.3(32) . . .
39.3(33) . . .
43.6(35) . . .
36.0(31) . . .
37.7(34) . . .
38.1(35) . . .
39.2(33) . . .
44.0(35) . . .
31.5(30) . . .
31.9(32) . . .
32.3(31) . . .
31.8(30) . . .
39.8(33) . . .
44(4) . . .
37.7(35) . . .
41(4) . . .
44.0(34) . . .
44.4(35) . . .
41(4) . . .
32.4(31) . . .
43(4) . . .
40.9(33) . . .
40.7(34) . . .
44(4) . . .
42(4) . . .
29.4(30) . . .
37.3(32) . . .
40.3(33) . . .
40.8(34) . . .
35.0(33) . . .
46(4) . . .
33.6(30) . . .
29.6(30) . . .
36.1(32) . . .
39.1(34) . . .
42(4) . . .
42.9(34) . . .
33.4(30) . . .
34.8(30) . . .
44(4) . . .
31.4(30) . . .
30.6(29) . . .
43.1(35) . . .
38.0(32) . . .
46(4) . . .
41.3(33) . . .
42.8(34) . . .
38(4) . . .
38.0(34) . . .
42(4) . . .
39.1(35) . . .
37.6(32) . . .
32.1(30) . . .
36.7(33) . . .
38.7(33) . . .
34.8(31) . . .
33.8(30) . . .
37.5(32) . . .
37.9(34) . . .
34.2(31) . . .
38.6(33) . . .
35.0(31) . . .
37.6(33) . . .
33.9(32) . . .
33.1(30) . . .
37.0(33) . . .
32.2(29) . . .
39.5(33) . . .
36.5(31) . . .
41.6(34) . . .
37.6(32) . . .
33.6(30) . . .
38.1(33) . . .
36.5(34) . . .
41(4) . . .
40.3(33) . . .
32.9(30) . . .
37.8(35) . . .
44(4) . . .
43.7(35) . . .
41.6(35) . . .
32.4(31) . . .
38.7(34) . . .
43(4) . . .
41.4(35) . . .
35.9(31) . . .
39.0(33) . . .
39.5(34) . . .
30.3(29) . . .
44(4) . . .
37.4(31) . . .
44(4) . . .
38.2(34) . . .
42.5(35) . . .
38.2(33) . . .
39.1(33) . . .
37.4(32) . . .
34.7(30) . . .
37.7(32) . . .
45(4) . . .
40.4(33) . . .
41(4) . . .
29.5(29) . . .
34.0(32) . . .
40.2(33) . . .
34.3(30) . . .
40.6(34) . . .
34.9(31) . . .
39.8(33) . . .
39.6(33) . . .
38.4(33) . . .
45(4) . . .
40.2(34) . . .
34.3(31) . . .
32.9(31) . . .
39.2(32) . . .
31.3(29) . . .
36.5(33) . . .
36.9(33) . . .
36.4(31) . . .
40.5(33) . . .
47(4) . . .
35.8(35) . . .
36.3(33) . . .
33.1(31) . . .
38.7(33) . . .
31.7(29) . . .
35.3(34) . . .
37.3(33) . . .
36.3(32) . . .
34.7(30) . . .
40.8(35) . . .
38.8(34) . . .
45(4) . . .
34.9(31) . . .
41.8(33) . . .
46(4) . . .
36.8(33) . . .
37.9(33) . . .
32.4(30) . . .
30.9(30) . . .
34.6(31) . . .
43(4) . . .
39.3(33) . . .
43.8(34) . . .
38(4) . . .
41.3(34) . . .
52(4) . . .
39.1(33) . . .
34.0(31) . . .
40(4) . . .
46(4) . . .
42.2(35) . . .
45(4) . . .
39.5(33) . . .
38.4(35) . . .
33.3(32) . . .
30.3(30) . . .
35.5(31) . . .
50(4) . . .
39.5(33) . . .
42(4) . . .
42.3(35) . . .
31.5(29) . . .
31.8(29) . . .
44(4) . . .
43(4) . . .
38.1(32) . . .
32.0(30) . . .
38.4(32) . . .
35.7(32) . . .
38(4) . . .
36.9(34) . . .
26.0(26) . . .
31.9(30) . . .
40.6(33) . . .
34.6(32) . . .
44(4) . . .
48(4) . . .
38.8(32) . . .
37.3(33) . . .
40(4) . . .
38.2(34) . . .
39.0(34) . . .
31.1(29) . . .
33.1(33) . . .
32.6(31) . . .
33.0(30) . . .
38.3(33) . . .
37.6(32) . . .
41.9(35) . . .
39.9(34) . . .
41.8(34) . . .
36.4(32) . . .
38.2(33) . . .
34.6(32) . . .
41(4) . . .
36.8(32) . . .
38.9(32) . . .
45(4) . . .
32.4(31) . . .
38.7(33) . . .
41.4(33) . . .
34.0(31) . . .
42(4) . . .
38.4(34) . . .
32.0(31) . . .
35.3(32) . . .
39.8(33) . . .
40.0(35) . . .
39(4) . . .
34.6(34) . . .
41.5(33) . . .
44(4) . . .
31.0(30) . . .
34.8(35) . . .
34.1(35) . . .
32.3(30) . . .
49(4) . . .
37.9(35) . . .
33.3(33) . . .
43.0(35) . . .
38.1(32) . . .
36.1(31) . . .
34.6(32) . . .
37.3(35) . . .
48(4) . . .
42.5(34) . . .
41.2(33) . . .
43.5(34) . . .
39(4) . . .
38(4) . . .
37.7(32) . . .
36.6(31) . . .
33.0(29) . . .
37.3(32) . . .
43(4) . . .
38.8(33) . . .
30.6(30) . . .
39.0(35) . . .
37.0(32) . . .
40.7(33) . . .
36.5(32) . . .
39.2(33) . . .
34.2(31) . . .
35.5(33) . . .
36.8(32) . . .
37.9(32) . . .
36.7(32) . . .
45(4) . . .
50(4) . . .
38.9(32) . . .
42.8(35) . . .
44(4) . . .
28.7(29) . . .
41(4) . . .
43(4) . . .
39.2(33) . . .
34.8(31) . . .
38.1(32) . . .
43.5(35) . . .
33.2(30) . . .
42.2(34) . . .
45(4) . . .
37.5(34) . . .
36.8(34) . . .
35.6(31) . . .
33.2(30) . . .
28.7(31) . . .
32.5(30) . . .
38.7(33) . . .
30.4(29) . . .
32.4(30) . . .
42(4) . . .
31.9(30) . . .
39.0(34) . . .
34.5(30) . . .
38.9(33) . . .
42(4) . . .
29.6(28) . . .
35.3(33) . . .
33.8(30) . . .
33.2(31) . . .
41.8(35) . . .
39.9(33) . . .
42.2(35) . . .
31.8(29) . . .
31.1(29) . . .
37.0(33) . . .
30.2(28) . . .
36.5(32) . . .
41.6(34) . . .
39.4(33) . . .
38.5(32) . . .
32.6(31) . . .
47(4) . . .
31.8(29) . . .
43(4) . . .
32.9(32) . . .
36.2(32) . . .
46(4) . . .
45(4) . . .
37.0(32) . . .
34.9(33) . . .
37.3(34) . . .
33.6(30) . . .
31.1(29) . . .
45(4) . . .
29.9(31) . . .
35.6(34) . . .
29.6(28) . . .
38.3(32) . . .
52(4) . . .
35.0(31) . . .
48(4) . . .
38.9(32) . . .
33.1(30) . . .
54(4) . . .
37.4(33) . . .
38.3(33) . . .
34.4(30) . . .
34.1(31) . . .
48(4) . . .
34.0(31) . . .
31.2(29) . . .
40.5(33) . . .
32.0(29) . . .
34.2(31) . . .
43(4) . . .
43(4) . . .
39.3(33) . . .
42.6(34) . . .
35.7(33) . . .
35.4(32) . . .
35.8(32) . . .
35.0(31) . . .
32.6(32) . . .
44(4) . . .
43(4) . . .
35.5(33) . . .
37.8(32) . . .
37.7(32) . . .
35.0(34) . . .
33.8(33) . . .
33.8(33) . . .
32.7(30) . . .
44(4) . . .
27.7(28) . . .
32.9(32) . . .
28.9(28) . . .
39.4(33) . . .
36.4(33) . . .
37(4) . . .
35.7(33) . . .
37.9(32) . . .
38.1(32) . . .
32.5(30) . . .
37.9(34) . . .
34.7(30) . . .
34.0(30) . . .
34.1(31) . . .
36.7(32) . . .
40.0(35) . . .
40(4) . . .
30.6(29) . . .
45(4) . . .
35.0(32) . . .
33.1(32) . . .
34.9(32) . . .
37.9(34) . . .
32.1(30) . . .
38.0(34) . . .
38(4) . . .
35.1(31) . . .
42.5(34) . . .
38.2(32) . . .
39.2(33) . . .
39.7(34) . . .
42.9(34) . . .
32.3(30) . . .
37.2(32) . . .
38.6(33) . . .
32.5(30) . . .
34.7(31) . . .
43.5(34) . . .
31.3(30) . . .
33.6(32) . . .
35.5(33) . . .
28.9(28) . . .
42.2(34) . . .
38.7(33) . . .
36.4(34) . . .
37.0(33) . . .
39.6(34) . . .
39.5(33) . . .
39.4(34) . . .
36.8(33) . . .
41.5(35) . . .
32.3(30) . . .
36.1(32) . . .
40.0(34) . . .
28.7(28) . . .
32.4(32) . . .
37.7(33) . . .
36.1(32) . . .
33.1(31) . . .
33.2(34) . . .
35.8(32) . . .
48(4) . . .
35.8(32) . . .
44(4) . . .
36.0(33) . . .
41.7(35) . . .
38.9(32) . . .
39.4(33) . . .
45(4) . . .
28.1(27) . . .
34.3(30) . . .
36.9(32) . . .
26.4(27) . . .
28.5(28) . . .
45(4) . . .
38.9(34) . . .
40.0(32) . . .
43.7(35) . . .
47(4) . . .
34.7(31) . . .
40.2(34) . . .
40.6(33) . . .
39.7(33) . . .
37.9(33) . . .
40(4) . . .
41.0(34) . . .
36.7(32) . . .
33.4(30) . . .
28.8(27) . . .
37.0(33) . . .
27.1(29) . . .
38.6(32) . . .
45(4) . . .
36.2(31) . . .
45(4) . . .
29.8(32) . . .
36.0(32) . . .
42.4(34) . . .
40.9(35) . . .
31.3(28) . . .
33.0(31) . . .
38.0(32) . . .
36.0(32) . . .
44(4) . . .
42.0(34) . . .
44(4) . . .
36.8(32) . . .
38.6(33) . . .
34.4(31) . . .
38.5(34) . . .
31.6(30) . . .
31.1(29) . . .
34.3(31) . . .
37.2(32) . . .
39.4(34) . . .
39.6(33) . . .
38.7(32) . . .
41(4) . . .
37(4) . . .
32.7(30) . . .
31.3(29) . . .
33.5(30) . . .
41.4(34) . . .
36.8(34) . . .
35.9(32) . . .
28.7(28) . . .
30.5(29) . . .
38.0(33) . . .
44(4) . . .
45(4) . . .
31.4(29) . . .
38.0(32) . . .
41(4) . . .
36.5(33) . . .
37.6(31) . . .
39.0(32) . . .
31.2(29) . . .
41.4(33) . . .
37.5(34) . . .
31.1(31) . . .
36.4(32) . . .
33.3(30) . . .
34.0(35) . . .
39(4) . . .
43(4) . . .
27.2(27) . . .
42.2(34) . . .
38.4(32) . . .
35.5(30) . . .
33.9(32) . . .
31.4(29) . . .
32.5(29) . . .
37.4(33) . . .
31.2(30) . . .
35.0(31) . . .
41.2(34) . . .
36.3(31) . . .
38.2(33) . . .
47(4) . . .
35.8(31) . . .
35.5(31) . . .
31.4(32) . . .
32.0(31) . . .
35.7(31) . . .
30.8(29) . . .
42.9(34) . . .
39.5(35) . . .
38.9(35) . . .
34.8(31) . . .
36.4(32) . . .
36.8(32) . . .
47(4) . . .
38.0(35) . . .
32.0(31) . . .
36.7(33) . . .
35.9(31) . . .
40.4(35) . . .
43(4) . . .
37.8(32) . . .
37.2(32) . . .
40.8(33) . . .
46(4) . . .
35.0(33) . . .
34.1(31) . . .
36.5(32) . . .
48(4) . . .
39.7(34) . . .
47(4) . . .
39.7(33) . . .
34.7(30) . . .
28.7(28) . . .
37.7(34) . . .
34.2(35) . . .
23.7(26) . . .
36.3(31) . . .
35.5(31) . . .
34.4(32) . . .
42(4) . . .
37.3(33) . . .
33.9(30) . . .
29.1(29) . . .
28.8(29) . . .
36.5(32) . . .
33.6(31) . . .
40.6(33) . . .
35.8(31) . . .
30.2(30) . . .
33.3(33) . . .
28.4(28) . . .
38.1(33) . . .
31.5(30) . . .
36.5(33) . . .
36.9(32) . . .
40.4(33) . . .
35.5(31) . . .
39.7(33) . . .
34.4(31) . . .
36.2(31) . . .
38.3(32) . . .
38.2(32) . . .
34.6(30) . . .
42(4) . . .
40.2(33) . . .
35.3(31) . . .
36.7(31) . . .
34.9(32) . . .
42(4) . . .
34.4(32) . . .
37.2(32) . . .
35.3(30) . . .
37.0(33) . . .
40.4(35) . . .
34.6(31) . . .
31.6(30) . . .
43(4) . . .
42(4) . . .
40.1(35) . . .
43.4(35) . . .
32.3(30) . . .
34.5(30) . . .
39.7(33) . . .
29.6(28) . . .
34.0(31) . . .
32.1(30) . . .
41.5(34) . . .
32.5(32) . . .
35.7(34) . . .
33.6(30) . . .
34.4(32) . . .
31.8(30) . . .
37.6(33) . . .
47(4) . . .
32.7(29) . . .
34.2(30) . . .
40.6(34) . . .
29.2(29) . . .
43(4) . . .
37.2(32) . . .
36.9(31) . . .
40.8(34) . . .
37.0(33) . . .
37.0(33) . . .
32.1(30) . . .
35.6(31) . . .
37.0(34) . . .
36.6(33) . . .
36.3(32) . . .
33.4(30) . . .
30.3(29) . . .
32.6(31) . . .
31.6(32) . . .
41(4) . . .
28.3(28) . . .
28.4(28) . . .
39(4) . . .
24.2(26) . . .
33.8(33) . . .
35.7(31) . . .
27.3(28) . . .
40.0(34) . . .
29.3(31) . . .
32.2(31) . . .
35.2(32) . . .
41.8(34) . . .
35.0(32) . . .
29.2(30) . . .
33.5(32) . . .
36.3(31) . . .
33.4(30) . . .
36.8(32) . . .
39.8(34) . . .
42.3(34) . . .
42.3(34) . . .
37.4(33) . . .
39.1(34) . . .
32.2(31) . . .
25.8(27) . . .
34.3(31) . . .
39.0(33) . . .
39.3(34) . . .
37.6(33) . . .
39.1(33) . . .
38.1(32) . . .
35.3(33) . . .
36.4(34) . . .
32.7(33) . . .
39.1(34) . . .
33.3(30) . . .
40(4) . . .
36.4(32) . . .
35.7(32) . . .
38.9(33) . . .
32.4(30) . . .
35.0(34) . . .
35.6(32) . . .
40.8(34) . . .
34.0(31) . . .
38.7(33) . . .
34.8(31) . . .
33.7(30) . . .
37.5(33) . . .
34.4(30) . . .
37.8(33) . . .
36.0(34) . . .
34.0(32) . . .
35.8(32) . . .
35.6(31) . . .
39.8(33) . . .
37.6(34) . . .
39(4) . . .
34.4(31) . . .
37.5(33) . . .
33.9(30) . . .
33.9(32) . . .
42(4) . . .
36.7(32) . . .
39.5(33) . . .
41.6(34) . . .
39.0(35) . . .
34.1(31) . . .
30.3(29) . . .
35.7(32) . . .
30.8(30) . . .
48(4) . . .
41.2(34) . . .
40(4) . . .
35.8(32) . . .
39.7(33) . . .
36.9(33) . . .
46(4) . . .
40.0(34) . . .
40.3(33) . . .
33.5(31) . . .
38.2(35) . . .
36.5(34) . . .
40.8(34) . . .
38.9(33) . . .
31.9(32) . . .
30.8(31) . . .
39(4) . . .
42.8(34) . . .
39.7(33) . . .
32.0(32) . . .
33.7(31) . . .
39.6(33) . . .
34.0(31) . . .
27.1(27) . . .
37(4) . . .
49(4) . . .
34.5(31) . . .
35.9(31) . . .
28.9(28) . . .
38.1(33) . . .
29.4(29) . . .
30.3(29) . . .
39.8(33) . . .
29.5(28) . . .
33.2(30) . . .
33.8(33) . . .
29.0(28) . . .
31.9(30) . . .
39.5(33) . . .
38.5(33) . . .
38.0(35) . . .
31.2(30) . . .
34.0(30) . . .
42.3(34) . . .
35.0(31) . . .
37.4(35) . . .
49(4) . . .
36.9(31) . . .
30.2(28) . . .
32.6(32) . . .
40(4) . . .
37(4) . . .
35.4(31) . . .
34.1(30) . . .
31.9(30) . . .
39(4) . . .
33.7(31) . . .
35.4(31) . . .
44.5(35) . . .
39.7(34) . . .
36.5(31) . . .
35.9(32) . . .
30.1(29) . . .
32.7(32) . . .
36.7(34) . . .
40.3(35) . . .
31.0(31) . . .
28.8(29) . . .
34.8(32) . . .
34.4(32) . . .
35.8(34) . . .
35.9(32) . . .
29.5(28) . . .
35.5(32) . . .
27.3(28) . . .
35.4(32) . . .
40.0(33) . . .
38.1(33) . . .
37.9(33) . . .
33.4(32) . . .
38.4(33) . . .
34.1(31) . . .
33.5(31) . . .
33.8(31) . . .
32.5(30) . . .
25.9(27) . . .
35.9(31) . . .
35.5(31) . . .
29.7(30) . . .
36(4) . . .
37.6(33) . . .
30.0(29) . . .
27.0(28) . . .
34.4(34) . . .
39(4) . . .
44(4) . . .
38.3(32) . . .
35.0(31) . . .
29.1(29) . . .
32.6(33) . . .
27.4(30) . . .
29.6(29) . . .
38.6(33) . . .
36.8(33) . . .
37.2(35) . . .
25.6(27) . . .
27.1(27) . . .
39.5(35) . . .
30.1(30) . . .
36.8(33) . . .
40.5(35) . . .
27.9(27) . . .
37.5(35) . . .
29.2(29) . . .
32.8(31) . . .
36.4(32) . . .
37.1(32) . . .
39.4(33) . . .
30.3(29) . . .
37.5(33) . . .
40.6(33) . . .
34.0(31) . . .
40.0(34) . . .
40.0(34) . . .
39.4(34) . . .
34.4(30) . . .
33.8(30) . . .
32.1(31) . . .
31.5(30) . . .
39.2(35) . . .
36.7(32) . . .
41.7(34) . . .
40.3(34) . . .
35.6(31) . . .
34.4(33) . . .
36.7(32) . . .
34.6(30) . . .
36.0(32) . . .
33.4(34) . . .
36.1(32) . . .
34.3(31) . . .
35.9(31) . . .
33.8(31) . . .
33.8(32) . . .
31.9(31) . . .
33.0(30) . . .
37.1(32) . . .
40.2(34) . . .
31.5(30) . . .
25.8(27) . . .
26.7(27) . . .
35.7(31) . . .
43.2(35) . . .
35.0(32) . . .
33.1(31) . . .
39.8(32) . . .
47(4) . . .
38.7(33) . . .
51(4) . . .
38.6(33) . . .
34.1(31) . . .
31.1(29) . . .
34.0(31) . . .
38.4(33) . . .
37.4(32) . . .
38.0(32) . . .
31.9(32) . . .
35.8(32) . . .
29.0(27) . . .
40.1(34) . . .
40.9(33) . . .
31.0(29) . . .
32.7(29) . . .
46(4) . . .
42.3(35) . . .
29.8(28) . . .
39.0(34) . . .
36.6(32) . . .
28.9(28) . . .
34.4(31) . . .
31.3(29) . . .
34.0(32) . . .
34.4(32) . . .
40.6(34) . . .
37.6(32) . . .
36.9(32) . . .
36.1(32) . . .
34.0(33) . . .
39.0(34) . . .
37.8(32) . . .
33.6(31) . . .
30.6(30) . . .
40(4) . . .
30.8(28) . . .
37.0(32) . . .
38.0(33) . . .
38.1(33) . . .
34.0(32) . . .
33.2(30) . . .
35.8(32) . . .
41.5(34) . . .
31.6(30) . . .
36.2(34) . . .
42(4) . . .
39.4(32) . . .
39.7(33) . . .
28.4(30) . . .
33.2(33) . . .
39.4(34) . . .
46(4) . . .
36.3(32) . . .
36.0(32) . . .
35.8(31) . . .
28.4(28) . . .
30.0(28) . . .
33.7(32) . . .
37(4) . . .
41(4) . . .
29.1(29) . . .
32.5(30) . . .
33.3(31) . . .
37.9(35) . . .
37.2(33) . . .
34.6(31) . . .
37.5(32) . . .
35.6(34) . . .
33.1(32) . . .
42(4) . . .
34.9(30) . . .
41.9(34) . . .
42.9(34) . . .
37.0(32) . . .
34.0(33) . . .
32.3(30) . . .
32.5(30) . . .
39.4(34) . . .
38.2(35) . . .
35.6(33) . . .
26.1(28) . . .
37.0(31) . . .
30.8(28) . . .
35.2(33) . . .
39.8(33) . . .
32.3(30) . . .
32.5(29) . . .
39.0(34) . . .
37.6(33) . . .
25.7(26) . . .
36.4(31) . . .
38.3(32) . . .
42(4) . . .
47(4) . . .
41(4) . . .
36.4(31) . . .
30.4(29) . . .
36.1(33) . . .
34.1(31) . . .
50(4) . . .
29.7(29) . . .
33.0(30) . . .
33.4(32) . . .
34.8(35) . . .
40.6(35) . . .
35.6(31) . . .
34.0(32) . . .
40(4) . . .
34.6(32) . . .
37.3(33) . . .
33.2(30) . . .
36.9(32) . . .
35.2(33) . . .
34.9(32) . . .
31.4(30) . . .
35.0(30) . . .
37.3(33) . . .
36.6(33) . . .
38.7(33) . . .
35.5(31) . . .
34.2(31) . . .
48(4) . . .
39.0(33) . . .
47(4) . . .
29.4(28) . . .
37.8(33) . . .
34.5(32) . . .
40(4) . . .
32.9(32) . . .
38.0(32) . . .
36.9(32) . . .
38.3(34) . . .
30.0(31) . . .
34.1(31) . . .
30.7(29) . . .
41.1(33) . . .
38.0(34) . . .
37.8(34) . . .
36.1(31) . . .
38.8(32) . . .
33.4(30) . . .
28.9(28) . . .
36.5(34) . . .
34.2(32) . . .
39.5(33) . . .
28.6(29) . . .
32.0(30) . . .
32.5(33) . . .
31.1(30) . . .
31.7(29) . . .
27.9(28) . . .
38.9(35) . . .
41(4) . . .
35.9(33) . . .
38.0(32) . . .
32.4(30) . . .
35.6(32) . . .
42(4) . . .
37.7(32) . . .
32.9(30) . . .
22.7(27) . . .
27.0(28) . . .
32.8(31) . . .
39.0(33) . . .
33.4(30) . . .
32.7(30) . . .
27.2(28) . . .
40(4) . . .
33.2(30) . . .
36.8(32) . . .
33.7(31) . . .
33.3(31) . . .
35.8(30) . . .
41.2(34) . . .
34.2(30) . . .
40.1(35) . . .
41(4) . . .
29.3(30) . . .
26.8(27) . . .
35.0(31) . . .
37.2(32) . . .
37.3(34) . . .
43(4) . . .
32.7(30) . . .
31.3(30) . . .
35.5(34) . . .
30.1(30) . . .
32.5(31) . . .
36.9(31) . . .
36.8(32) . . .
33.4(31) . . .
32.3(32) . . .
30.4(30) . . .
22.6(25) . . .
37.0(34) . . .
37.7(34) . . .
38.8(34) . . .
44(4) . . .
32.1(30) . . .
29.2(30) . . .
35.3(32) . . .
33.0(31) . . .
27.9(27) . . .
35.7(31) . . .
31.9(30) . . .
37.6(32) . . .
35.9(32) . . .
38.7(34) . . .
31.1(29) . . .
36.8(33) . . .
39.1(34) . . .
43(4) . . .
39.4(33) . . .
30.6(30) . . .
35.1(34) . . .
36.8(35) . . .
33.6(30) . . .
33.1(30) . . .
38.1(33) . . .
28.0(30) . . .
33.5(34) . . .
27.1(30) . . .
28.8(29) . . .
31.5(29) . . .
30.2(29) . . .
31.0(30) . . .
37(4) . . .
31.2(29) . . .
42.2(34) . . .
45(4) . . .
39(4) . . .
30.4(28) . . .
35.2(31) . . .
35.6(31) . . .
36.4(33) . . .
35.5(34) . . .
32.8(34) . . .
25.5(26) . . .
29.5(28) . . .
33.7(31) . . .
32.9(30) . . .
36.4(32) . . .
32.5(30) . . .
35.1(31) . . .
35.3(31) . . .
32.5(32) . . .
26.0(28) . . .
37.5(32) . . .
40.5(34) . . .
39(4) . . .
47(4) . . .
33.7(31) . . .
30.1(28) . . .
36.0(31) . . .
37.0(32) . . .
46(4) . . .
33.3(30) . . .
33.3(30) . . .
37.4(34) . . .
30.9(32) . . .
33.8(33) . . .
27.4(28) . . .
40.9(33) . . .
32.2(32) . . .
38.6(34) . . .
38(4) . . .
32.8(30) . . .
41.3(33) . . .
36.8(34) . . .
26.4(28) . . .
36.0(33) . . .
31.1(29) . . .
42.3(34) . . .
34.1(32) . . .
38.0(34) . . .
34.5(31) . . .
29.4(28) . . .
40.3(33) . . .
35.8(31) . . .
35.5(33) . . .
31.1(31) . . .
37.8(33) . . .
33.8(30) . . .
33.5(30) . . .
36.3(34) . . .
31.4(29) . . .
33.5(30) . . .
43.1(34) . . .
31.1(30) . . .
36.5(33) . . .
37.4(34) . . .
31.2(29) . . .
42.8(35) . . .
37.8(32) . . .
29.2(29) . . .
32.6(30) . . .
35.4(31) . . .
37.5(33) . . .
39.4(35) . . .
40(4) . . .
30.7(30) . . .
35.7(31) . . .
29.4(28) . . .
33.5(33) . . .
36.1(31) . . .
38.0(33) . . .
29.5(29) . . .
29.9(29) . . .
43(4) . . .
35.1(32) . . .
38.3(33) . . .
28.5(28) . . .
34.4(32) . . .
30.8(31) . . .
34.5(33) . . .
43.4(34) . . .
38.2(32) . . .
39(4) . . .
35.8(34) . . .
37.0(35) . . .
32.2(30) . . .
28.3(28) . . .
30.3(30) . . .
41(4) . . .
37.0(33) . . .
23.2(25) . . .
30.5(28) . . .
30.8(30) . . .
43(4) . . .
38.4(33) . . .
29.0(29) . . .
38.2(33) . . .
40(4) . . .
35.7(33) . . .
38.6(33) . . .
37.7(32) . . .
44(4) . . .
43(4) . . .
40(4) . . .
37.3(33) . . .
39.5(33) . . .
36.0(31) . . .
34.2(31) . . .
38(4) . . .
39(4) . . .
35.0(31) . . .
31.1(29) . . .
34.0(31) . . .
31.7(30) . . .
41.1(34) . . .
31.9(29) . . .
32.7(31) . . .
34.2(31) . . .
28.1(28) . . .
38.6(34) . . .
33.0(29) . . .
37.1(33) . . .
26.3(28) . . .
29.2(30) . . .
40.1(35) . . .
35.3(31) . . .
44(4) . . .
34.4(32) . . .
33.8(31) . . .
40(4) . . .
39.3(33) . . .
34.2(31) . . .
37.0(33) . . .
29.8(29) . . .
30.5(31) . . .
28.2(27) . . .
31.7(30) . . .
35.5(32) . . .
33.2(30) . . .
37.7(32) . . .
30.4(29) . . .
34.7(31) . . .
31.4(30) . . .
36.2(32) . . .
34.7(31) . . .
32.4(29) . . .
34.5(31) . . .
35.3(33) . . .
35.3(31) . . .
38.5(32) . . .
30.3(29) . . .
36.5(33) . . .
38(4) . . .
34.9(32) . . .
30.5(28) . . .
34.5(31) . . .
30.6(30) . . .
39(4) . . .
35.3(33) . . .
35.2(31) . . .
38.2(33) . . .
40.3(34) . . .
37.9(34) . . .
41(4) . . .
33.5(30) . . .
37.5(32) . . .
32.9(31) . . .
34.0(32) . . .
33.9(30) . . .
40.1(34) . . .
33.6(31) . . .
40.2(35) . . .
31.9(32) . . .
25.0(27) . . .
27.6(27) . . .
35.3(31) . . .
34.0(33) . . .
36.9(33) . . .
30.3(29) . . .
29.0(28) . . .
32.6(31) . . .
35.9(34) . . .
35.6(32) . . .
36.2(32) . . .
38.2(32) . . .
32.3(30) . . .
40(4) . . .
36.7(33) . . .
38.1(32) . . .
34.1(30) . . .
31.7(29) . . .
37.6(32) . . .
34.7(32) . . .
32.5(30) . . .
35.5(31) . . .
35.3(32) . . .
38.0(34) . . .
48(4) . . .
33.1(30) . . .
30.0(28) . . .
34.4(32) . . .
27.8(29) . . .
27.3(28) . . .
33.1(30) . . .
35.3(31) . . .
30.7(29) . . .
35.8(34) . . .
32.1(33) . . .
33.8(30) . . .
37.7(34) . . .
33.7(32) . . .
44(4) . . .
35.2(33) . . .
36.0(31) . . .
32.7(30) . . .
33.4(34) . . .
35.9(34) . . .
33.8(34) . . .
31.0(29) . . .
35.7(31) . . .
41(4) . . .
39(4) . . .
30.6(29) . . .
43.6(35) . . .
37.6(32) . . .
30.5(31) . . .
25.2(27) . . .
38.8(34) . . .
39.0(32) . . .
38.3(33) . . .
39.5(33) . . .
42(4) . . .
31.2(29) . . .
31.5(30) . . .
33.6(31) . . .
35.3(34) . . .
34.6(33) . . .
34.8(31) . . .
36.7(31) . . .
42(4) . . .
30.3(28) . . .
45(4) . . .
41.0(33) . . .
39.9(33) . . .
38.2(35) . . .
33.5(32) . . .
35.8(32) . . .
38.9(33) . . .
34.7(31) . . .
34.8(33) . . .
40(4) . . .
33.7(31) . . .
30.0(29) . . .
34.4(31) . . .
38.5(34) . . .
33.2(32) . . .
28.7(29) . . .
36.4(32) . . .
37.0(32) . . .
37.3(32) . . .
36.8(33) . . .
42.8(35) . . .
39.9(33) . . .
25.7(27) . . .
30.6(29) . . .
36.5(33) . . .
35.0(31) . . .
38.5(32) . . .
27.9(28) . . .
37.9(34) . . .
39.1(33) . . .
35.1(31) . . .
37.6(32) . . .
29.2(29) . . .
36.2(34) . . .
32.6(30) . . .
30.8(31) . . .
29.6(29) . . .
44(4) . . .
36.3(33) . . .
36.8(32) . . .
33.3(30) . . .
39.1(32) . . .
40.2(34) . . .
33.9(31) . . .
34.5(31) . . .
25.9(26) . . .
23.7(25) . . .
34.9(32) . . .
35.1(33) . . .
34.3(31) . . .
31.9(30) . . .
35.0(31) . . .
33.5(31) . . .
34.1(34) . . .
32.2(31) . . .
31.2(29) . . .
39.3(34) . . .
30.0(30) . . .
35.6(33) . . .
35.1(32) . . .
39.6(32) . . .
37.5(33) . . .
33.7(30) . . .
35.1(31) . . .
43.0(35) . . .
42.6(34) . . .
36.2(32) . . .
31.4(29) . . .
36.8(33) . . .
39.1(35) . . .
25.6(27) . . .
33.4(30) . . .
38.2(35) . . .
27.9(31) . . .
38.8(34) . . .
34.9(31) . . .
30.7(31) . . .
32.2(33) . . .
36.1(35) . . .
32.8(32) . . .
33.4(30) . . .
33.1(31) . . .
30.6(33) . . .
38(4) . . .
36.4(32) . . .
44.4(35) . . .
36.2(33) . . .
31.6(30) . . .
38.1(33) . . .
37.3(33) . . .
29.7(28) . . .
31.4(30) . . .
29.8(29) . . .
39.7(35) . . .
36.0(31) . . .
39.1(32) . . .
33.9(31) . . .
39.3(35) . . .
38.6(35) . . .
39.8(34) . . .
38.1(32) . . .
36.0(33) . . .
29.8(31) . . .
35.8(32) . . .
31.6(30) . . .
28.2(28) . . .
32.4(31) . . .
29.3(32) . . .
39.3(33) . . .
39.8(32) . . .
39.3(33) . . .
39.1(34) . . .
41(4) . . .
35.2(31) . . .
35.4(32) . . .
38.4(35) . . .
37.4(32) . . .
34.0(32) . . .
39.6(34) . . .
35.6(31) . . .
29.1(28) . . .
38.7(35) . . .
37.4(35) . . .
30.2(30) . . .
37.2(32) . . .
29.8(29) . . .
35.5(32) . . .
33.8(32) . . .
38.9(33) . . .
39.1(33) . . .
37.8(32) . . .
36.3(32) . . .
40(4) . . .
33.6(31) . . .
35.0(31) . . .
35.9(33) . . .
32.2(32) . . .
30.6(28) . . .
31.4(29) . . .
31.8(29) . . .
35.3(31) . . .
31.3(29) . . .
37.3(33) . . .
38.7(32) . . .
25.5(27) . . .
31.6(29) . . .
39(4) . . .
34.0(33) . . .
37.3(32) . . .
29.6(29) . . .
33.8(30) . . .
27.9(30) . . .
31.2(32) . . .
31.1(30) . . .
29.3(28) . . .
34.5(32) . . .
34.0(34) . . .
32.2(32) . . .
33.3(30) . . .
34.5(31) . . .
43(4) . . .
30.6(30) . . .
37.7(33) . . .
36.7(31) . . .
45(4) . . .
30.9(30) . . .
36.8(34) . . .
29.6(28) . . .
32.6(30) . . .
31.8(29) . . .
35.6(32) . . .
30.7(30) . . .
37.7(35) . . .
40.6(33) . . .
35.4(31) . . .
30.5(28) . . .
33.6(33) . . .
32.4(31) . . .
34.4(30) . . .
32.3(30) . . .
32.5(33) . . .
28.8(30) . . .
28.8(28) . . .
38.5(32) . . .
32.5(31) . . .
30.3(28) . . .
28.1(28) . . .
29.8(29) . . .
31.7(30) . . .
40(4) . . .
35.3(32) . . .
44(4) . . .
37.8(32) . . .
34.8(30) . . .
43(4) . . .
37.2(33) . . .
36.5(33) . . .
32.4(32) . . .
38.2(32) . . .
35.4(33) . . .
36.3(35) . . .
30.1(29) . . .
29.2(29) . . .
33.3(30) . . .
35.2(30) . . .
37.4(35) . . .
43(4) . . .
28.8(28) . . .
26.3(28) . . .
37.6(34) . . .
33.8(33) . . .
36.2(32) . . .
28.5(30) . . .
38.6(32) . . .
45(4) . . .
34.3(32) . . .
24.3(25) . . .
34.0(31) . . .
34.8(30) . . .
35.1(33) . . .
38(4) . . .
36.6(32) . . .
33.4(30) . . .
37.3(32) . . .
27.4(27) . . .
28.3(28) . . .
41(4) . . .
36.8(32) . . .
32.6(31) . . .
28.5(27) . . .
32.6(31) . . .
38.0(33) . . .
38.4(32) . . .
38.4(33) . . .
36.3(33) . . .
28.4(28) . . .
42.1(34) . . .
29.4(28) . . .
34.4(32) . . .
35.6(33) . . .
40(4) . . .
35.0(32) . . .
38.8(33) . . .
33.2(32) . . .
33.1(31) . . .
34.4(32) . . .
33.1(30) . . .
36.3(31) . . .
33.5(32) . . .
32.0(33) . . .
41(4) . . .
30.7(29) . . .
34.0(31) . . .
34.3(31) . . .
38.2(35) . . .
36.4(33) . . .
28.3(27) . . .
38.8(33) . . .
36.7(32) . . .
39(4) . . .
30.2(29) . . .
31.1(29) . . .
32.2(29) . . .
35.6(32) . . .
27.0(27) . . .
33.1(31) . . .
41.8(34) . . .
40.0(33) . . .
37.2(34) . . .
28.3(30) . . .
31.5(30) . . .
33.2(30) . . .
37.5(32) . . .
33.1(31) . . .
38(4) . . .
34.4(32) . . .
31.0(29) . . .
27.5(28) . . .
31.5(30) . . .
33.4(32) . . .
33.5(31) . . .
29.3(28) . . .
37.8(33) . . .
33.1(30) . . .
32.2(30) . . .
39.6(34) . . .
31.4(30) . . .
44(4) . . .
36.3(33) . . .
30.7(29) . . .
39.0(34) . . .
34.3(31) . . .
30.2(30) . . .
26.2(27) . . .
27.7(28) . . .
40.5(34) . . .
40.2(33) . . .
36.2(32) . . .
29.5(31) . . .
40(4) . . .
34.4(31) . . .
27.5(27) . . .
36.3(32) . . .
38.1(35) . . .
33.3(31) . . .
28.9(28) . . .
33.4(29) . . .
33.8(30) . . .
33.3(31) . . .
34.9(32) . . .
39.3(33) . . .
33.3(30) . . .
44(4) . . .
29.8(30) . . .
26.1(28) . . .
30.3(30) . . .
23.4(25) . . .
33.6(30) . . .
42(4) . . .
29.6(28) . . .
34.8(31) . . .
35.8(31) . . .
39(4) . . .
32.3(32) . . .
32.0(34) . . .
40.2(34) . . .
37.7(32) . . .
32.4(29) . . .
28.3(30) . . .
27.9(29) . . .
39.6(32) . . .
32.4(31) . . .
26.9(28) . . .
36.8(33) . . .
34.7(32) . . .
28.2(28) . . .
29.3(30) . . .
34.5(32) . . .
32.6(30) . . .
40.0(34) . . .
37.8(32) . . .
33.8(34) . . .
32.9(31) . . .
33.7(32) . . .
36.0(33) . . .
30.5(29) . . .
34.7(32) . . .
30.5(30) . . .
37.6(34) . . .
27.2(28) . . .
28.2(28) . . .
42(4) . . .
36.2(35) . . .
28.6(29) . . .
34.7(31) . . .
32.2(30) . . .
35.3(33) . . .
36.2(34) . . .
35.4(31) . . .
38.3(32) . . .
36.4(32) . . .
27.4(28) . . .
32.7(32) . . .
33.6(31) . . .
33.9(31) . . .
30.7(30) . . .
31.9(31) . . .
31.7(33) . . .
30.7(30) . . .
30.8(29) . . .
42.2(34) . . .
36.2(33) . . .
31.0(31) . . .
34.1(32) . . .
33.8(30) . . .
41.8(35) . . .
27.9(28) . . .
28.4(30) . . .
23.1(25) . . .
33.1(30) . . .
39.0(34) . . .
30.6(29) . . .
25.6(28) . . .
33.3(31) . . .
37.9(32) . . .
32.3(31) . . .
38(4) . . .
34.7(32) . . .
29.8(29) . . .
32.3(29) . . .
37.5(33) . . .
24.6(25) . . .
24.7(29) . . .
25.2(26) . . .
38.7(34) . . .
27.9(28) . . .
41(4) . . .
32.1(29) . . .
30.6(28) . . .
26.2(27) . . .
21.6(25) . . .
33.5(31) . . .
42(4) . . .
32.1(29) . . .
32.5(30) . . .
35.7(34) . . .
38(4) . . .
32.6(31) . . .
37.1(32) . . .
32.0(29) . . .
33.3(31) . . .
31.2(31) . . .
36.6(32) . . .
33.6(30) . . .
39.7(33) . . .
40.6(33) . . .
39(4) . . .
36.4(32) . . .
39.4(32) . . .
34.6(31) . . .
35.4(32) . . .
28.4(29) . . .
32.7(31) . . .
40.3(33) . . .
37.5(32) . . .
37.4(34) . . .
27.5(30) . . .
31.1(29) . . .
34.2(30) . . .
43(4) . . .
35.5(32) . . .
32.7(29) . . .
33.5(30) . . .
34.4(30) . . .
35.6(32) . . .
30.9(31) . . .
27.8(27) . . .
29.0(28) . . .
33.8(31) . . .
34.6(33) . . .
26.7(28) . . .
37.8(33) . . .
43.2(35) . . .
28.2(28) . . .
32.1(31) . . .
28.1(30) . . .
28.1(29) . . .
29.0(29) . . .
37.4(31) . . .
38.7(35) . . .
30.1(28) . . .
32.5(30) . . .
36.2(31) . . .
42.3(35) . . .
38.0(33) . . .
40.1(35) . . .
37.2(32) . . .
40.2(33) . . .
38.5(32) . . .
36.6(33) . . .
32.6(32) . . .
30.4(29) . . .
34.7(31) . . .
35.2(31) . . .
36.5(33) . . .
41(4) . . .
47(4) . . .
28.9(27) . . .
22.4(25) . . .
38.0(33) . . .
33.3(32) . . .
30.8(30) . . .
28.9(28) . . .
28.7(28) . . .
39.9(35) . . .
36.4(33) . . .
39.0(34) . . .
34.1(30) . . .
28.1(27) . . .
27.4(28) . . .
32.7(32) . . .
32.1(31) . . .
31.1(30) . . .
38.0(33) . . .
34.8(33) . . .
35.7(33) . . .
26.8(27) . . .
27.8(27) . . .
36.5(33) . . .
35.1(31) . . .
36.0(33) . . .
28.1(28) . . .
28.0(28) . . .
26.5(28) . . .
28.5(30) . . .
27.5(29) . . .
32.1(30) . . .
46(4) . . .
34.5(31) . . .
32.0(32) . . .
35.0(32) . . .
46(4) . . .
43(4) . . .
30.1(29) . . .
36.2(33) . . .
43.5(35) . . .
35.2(30) . . .
34.9(31) . . .
37.8(32) . . .
32.1(31) . . .
34.2(34) . . .
32.5(30) . . .
28.7(28) . . .
37.3(32) . . .
31.8(30) . . .
26.7(28) . . .
30.4(28) . . .
29.9(28) . . .
27.8(28) . . .
31.1(32) . . .
34.2(31) . . .
40.9(34) . . .
38.3(32) . . .
26.1(26) . . .
31.1(30) . . .
29.4(29) . . .
27.5(28) . . .
31.0(29) . . .
29.6(30) . . .
25.7(27) . . .
30.9(29) . . .
29.7(29) . . .
33.7(30) . . .
35.7(32) . . .
34.1(34) . . .
36.3(31) . . .
32.5(30) . . .
39.2(33) . . .
36.1(33) . . .
37.7(34) . . .
40.5(34) . . .
28.1(28) . . .
26.3(27) . . .
36.1(33) . . .
40.9(34) . . .
35.8(31) . . .
36.5(31) . . .
31.8(30) . . .
42(4) . . .
33.0(31) . . .
32.3(30) . . .
39.8(33) . . .
29.7(29) . . .
30.8(30) . . .
42(4) . . .
24.9(26) . . .
38.9(33) . . .
29.2(29) . . .
29.9(32) . . .
26.2(28) . . .
29.6(31) . . .
34.7(32) . . .
37.5(34) . . .
36.0(33) . . .
39.8(34) . . .
35.9(31) . . .
28.1(28) . . .
28.5(30) . . .
28.6(29) . . .
38.7(33) . . .
37.0(32) . . .
33.4(30) . . .
33.4(31) . . .
34.0(32) . . .
37.1(34) . . .
31.2(30) . . .
36.4(31) . . .
32.9(32) . . .
36.4(34) . . .
31.0(30) . . .
33.4(30) . . .
32.0(30) . . .
39(4) . . .
35.8(34) . . .
34.4(34) . . .
27.7(28) . . .
26.2(28) . . .
31.0(31) . . .
26.6(28) . . .
29.5(29) . . .
28.8(28) . . .
33.6(33) . . .
37.6(33) . . .
32.3(32) . . .
28.0(29) . . .
33.2(30) . . .
36.9(32) . . .
28.2(32) . . .
27.7(29) . . .
36.7(32) . . .
34.8(31) . . .
39.0(34) . . .
36.6(32) . . .
38.0(33) . . .
25.6(26) . . .
34.3(31) . . .
36.8(32) . . .
33.4(31) . . .
33.0(33) . . .
29.9(29) . . .
30.3(29) . . .
33.6(34) . . .
32.9(32) . . .
40(4) . . .
26.1(26) . . .
31.8(29) . . .
27.5(29) . . .
25.8(30) . . .
26.1(27) . . .
32.3(30) . . .
32.1(30) . . .
36.5(33) . . .
38.3(33) . . .
37.7(34) . . .
32.3(30) . . .
39.5(34) . . .
34.4(31) . . .
38.9(34) . . .
32.1(31) . . .
29.5(29) . . .
28.8(28) . . .
26.2(29) . . .
38(4) . . .
33.5(31) . . .
33.6(30) . . .
34.8(33) . . .
30.4(30) . . .
31.7(30) . . .
32.0(29) . . .
37.0(31) . . .
33.5(30) . . .
37.9(34) . . .
35.5(34) . . .
29.2(28) . . .
35.8(31) . . .
36.8(34) . . .
34.5(33) . . .
33.9(31) . . .
36.0(32) . . .
32.8(30) . . .
38.7(34) . . .
32.0(31) . . .
33.7(30) . . .
27.7(28) . . .
31.3(29) . . .
30.0(28) . . .
36(4) . . .
29.5(29) . . .
39.2(32) . . .
34.5(31) . . .
37.3(35) . . .
35.1(33) . . .
34.9(32) . . .
27.9(28) . . .
34.7(30) . . .
37.8(33) . . .
35.6(35) . . .
33.7(33) . . .
30.6(29) . . .
26.9(28) . . .
31.2(29) . . .
33.2(31) . . .
35.0(31) . . .
34.2(30) . . .
29.3(29) . . .
40(4) . . .
33.6(32) . . .
37.9(33) . . .
40.6(33) . . .
33.9(31) . . .
38(4) . . .
37.1(35) . . .
26.6(27) . . .
37.7(32) . . .
38.2(32) . . .
42.2(34) . . .
38.0(33) . . .
37.8(32) . . .
40.8(33) . . .
27.6(27) . . .
32.3(33) . . .
33.0(31) . . .
41.6(34) . . .
29.1(28) . . .
40(4) . . .
37.2(33) . . .
31.9(29) . . .
31.3(29) . . .
39.6(33) . . .
37(4) . . .
37(4) . . .
33.6(31) . . .
31.7(30) . . .
34.3(30) . . .
38.6(34) . . .
37(4) . . .
36.9(32) . . .
32.8(29) . . .
38.1(35) . . .
30.3(31) . . .
36.4(35) . . .
26.7(27) . . .
29.9(28) . . .
35.4(32) . . .
32.8(30) . . .
33.7(31) . . .
33.4(30) . . .
34.2(31) . . .
32.5(30) . . .
27.9(27) . . .
33.1(31) . . .
31.4(31) . . .
31.2(28) . . .
35.8(33) . . .
30.6(29) . . .
36(4) . . .
35.7(32) . . .
25.8(27) . . .
40.0(33) . . .
37.2(32) . . .
36.2(33) . . .
29.5(32) . . .
36.2(31) . . .
28.6(29) . . .
30.3(32) . . .
36.2(35) . . .
31.3(30) . . .
36.9(32) . . .
33.6(31) . . .
35.1(32) . . .
39.3(34) . . .
31.4(29) . . .
37.0(31) . . .
32.1(31) . . .
41(4) . . .
31.6(29) . . .
33.8(30) . . .
30.9(29) . . .
26.7(27) . . .
38(4) . . .
40.1(34) . . .
25.0(26) . . .
29.8(28) . . .
26.7(27) . . .
25.3(27) . . .
33.3(33) . . .
36.2(32) . . .
39.3(33) . . .
29.0(32) . . .
32.5(35) . . .
31.9(30) . . .
36.8(32) . . .
37.2(32) . . .
35.7(31) . . .
35.0(32) . . .
34.8(32) . . .
31.1(28) . . .
33.0(30) . . .
31.4(31) . . .
29.7(30) . . .
26.9(27) . . .
37.7(33) . . .
28.5(27) . . .
30.2(32) . . .
29.8(31) . . .
33.8(32) . . .
35.6(32) . . .
37.8(33) . . .
33.9(31) . . .
34.5(32) . . .
50(4) . . .
31.8(30) . . .
40.0(34) . . .
31.8(31) . . .
37(4) . . .
34.0(34) . . .
35.1(31) . . .
36.0(32) . . .
38(4) . . .
36.5(32) . . .
35.0(31) . . .
22.6(26) . . .
35.6(34) . . .
33.5(31) . . .
27.3(28) . . .
39.1(34) . . .
45(4) . . .
36.4(31) . . .
35.7(34) . . .
32.2(30) . . .
28.0(27) . . .
28.9(28) . . .
32.7(33) . . .
32.9(33) . . .
29.9(29) . . .
36.6(32) . . .
31.5(29) . . .
28.0(27) . . .
32.3(30) . . .
35.4(31) . . .
43.4(34) . . .
42.2(34) . . .
34.5(32) . . .
33.2(32) . . .
31.4(29) . . .
37.0(31) . . .
34.0(30) . . .
36.9(33) . . .
34.3(33) . . .
38.1(33) . . .
29.6(28) . . .
32.1(30) . . .
37.3(35) . . .
31.5(30) . . .
46(4) . . .
34.5(31) . . .
30.3(28) . . .
29.6(28) . . .
34.4(30) . . .
39.1(33) . . .
30.3(29) . . .
32.0(31) . . .
34.4(33) . . .
30.9(30) . . .
21.1(23) . . .
28.9(29) . . .
36.5(32) . . .
33.7(31) . . .
38.2(34) . . .
36.8(32) . . .
31.5(29) . . .
40.7(34) . . .
36.9(32) . . .
33.4(32) . . .
26.0(27) . . .
43.3(34) . . .
31.5(30) . . .
29.3(30) . . .
34.8(32) . . .
27.7(27) . . .
24.9(26) . . .
22.9(25) . . .
28.6(31) . . .
27.9(28) . . .
38.0(32) . . .
40.6(33) . . .
34.8(31) . . .
40(4) . . .
37.4(33) . . .
31.5(29) . . .
30.0(28) . . .
29.6(28) . . .
29.0(28) . . .
38.7(33) . . .
33.0(31) . . .
40.6(33) . . .
40.3(32) . . .
33.5(32) . . .
30.3(29) . . .
30.1(29) . . .
34.6(33) . . .
35.1(31) . . .
31.4(31) . . .
31.5(30) . . .
37.3(31) . . .
33.0(31) . . .
41(4) . . .
30.5(30) . . .
33.8(32) . . .
36.4(31) . . .
31.3(29) . . .
36.5(33) . . .
39.0(34) . . .
24.9(27) . . .
28.7(28) . . .
34.5(32) . . .
33.2(32) . . .
33.2(31) . . .
33.6(30) . . .
39.5(33) . . .
37(4) . . .
33.7(30) . . .
39.3(34) . . .
25.1(26) . . .
23.0(26) . . .
43(4) . . .
27.0(26) . . .
37.0(34) . . .
39.4(33) . . .
29.8(28) . . .
37.0(33) . . .
34.7(34) . . .
31.2(30) . . .
38.9(33) . . .
38.7(32) . . .
32.0(30) . . .
32.2(31) . . .
35.3(33) . . .
35.5(30) . . .
34.7(31) . . .
35.4(32) . . .
28.7(31) . . .
29.1(30) . . .
37.1(32) . . .
32.4(30) . . .
37.6(34) . . .
36.6(33) . . .
28.4(28) . . .
33.2(31) . . .
43(4) . . .
29.5(28) . . .
39(4) . . .
27.3(27) . . .
33.9(30) . . .
33.5(31) . . .
32.0(29) . . .
43(4) . . .
25.7(28) . . .
34.8(31) . . .
34.3(30) . . .
29.5(30) . . .
24.6(26) . . .
33.0(32) . . .
32.6(29) . . .
28.7(28) . . .
35.4(32) . . .
35.6(33) . . .
27.8(30) . . .
31.6(30) . . .
34.4(34) . . .
29.0(28) . . .
31.3(29) . . .
41(4) . . .
37.1(32) . . .
40(4) . . .
32.7(34) . . .
29.3(30) . . .
30.3(32) . . .
39.5(33) . . .
33.0(32) . . .
30.0(32) . . .
29.3(28) . . .
26.4(27) . . .
34.2(30) . . .
37.8(34) . . .
35.5(32) . . .
41.1(35) . . .
34.4(30) . . .
39.0(33) . . .
28.4(27) . . .
37.7(35) . . .
31.5(31) . . .
32.5(31) . . .
21.7(24) . . .
36.1(32) . . .
34.4(31) . . .
31.8(29) . . .
28.7(28) . . .
27.9(27) . . .
35.4(32) . . .
36.2(34) . . .
30.2(29) . . .
33.9(30) . . .
30.4(29) . . .
31.9(30) . . .
32.0(32) . . .
30.9(30) . . .
29.9(29) . . .
40.4(33) . . .
27.7(27) . . .
32.9(34) . . .
36.5(33) . . .
33.2(30) . . .
33.7(30) . . .
30.7(28) . . .
33.4(30) . . .
28.8(28) . . .
35.6(31) . . .
36.7(34) . . .
29.0(30) . . .
29.3(30) . . .
30.5(30) . . .
34.2(31) . . .
39.8(34) . . .
32.3(31) . . .
40.5(35) . . .
34.5(31) . . .
35.3(31) . . .
29.7(30) . . .
27.7(30) . . .
35.5(33) . . .
40.1(33) . . .
31.3(29) . . .
39.1(33) . . .
39(4) . . .
27.6(29) . . .
31.4(29) . . .
30.9(29) . . .
30.5(30) . . .
33.1(33) . . .
27.4(27) . . .
39.1(33) . . .
30.8(30) . . .
26.9(29) . . .
36(4) . . .
32.2(30) . . .
33.7(30) . . .
29.1(28) . . .
32.8(33) . . .
27.1(29) . . .
35.5(32) . . .
39.2(33) . . .
36.6(31) . . .
40.4(34) . . .
34.1(31) . . .
38.8(34) . . .
31.0(29) . . .
33.3(30) . . .
30.8(29) . . .
35.4(34) . . .
24.0(25) . . .
37.1(32) . . .
29.5(30) . . .
35.5(33) . . .
33.7(31) . . .
33.7(30) . . .
29.7(29) . . .
29.5(29) . . .
36.8(33) . . .
33.1(33) . . .
28.0(30) . . .
33.0(30) . . .
26.9(28) . . .
26.4(27) . . .
34.8(34) . . .
34.4(31) . . .
35.7(31) . . .
30.5(31) . . .
32.1(32) . . .
28.8(29) . . .
38.0(32) . . .
29.5(29) . . .
23.2(26) . . .
32.2(31) . . .
39.1(33) . . .
37.6(33) . . .
31.2(29) . . .
26.6(27) . . .
32.3(30) . . .
39.1(33) . . .
31.0(29) . . .
31.9(30) . . .
33.7(30) . . .
29.9(31) . . .
35.4(35) . . .
28.8(28) . . .
30.8(28) . . .
35.8(32) . . .
31.7(32) . . .
32.4(31) . . .
32.5(30) . . .
36.2(31) . . .
34.0(31) . . .
29.9(31) . . .
25.7(28) . . .
42.1(34) . . .
35.1(31) . . .
32.2(30) . . .
32.2(31) . . .
29.7(29) . . .
25.2(27) . . .
33.3(31) . . .
38.2(34) . . .
37.7(34) . . .
33.1(31) . . .
35.3(32) . . .
34.6(30) . . .
45(4) . . .
34.8(32) . . .
40(4) . . .
34.2(31) . . .
27.8(29) . . .
30.7(31) . . .
30.8(32) . . .
32.1(30) . . .
20.6(25) . . .
30.2(29) . . .
32.5(31) . . .
35.7(32) . . .
39.3(34) . . .
33.7(30) . . .
23.8(27) . . .
32.8(30) . . .
39.7(33) . . .
32.2(30) . . .
38.5(32) . . .
30.6(29) . . .
35.3(32) . . .
36.2(34) . . .
27.1(27) . . .
28.0(28) . . .
32.6(30) . . .
36.3(33) . . .
35.1(32) . . .
27.6(27) . . .
30.6(29) . . .
25.2(26) . . .
31.9(31) . . .
34.7(31) . . .
32.0(30) . . .
34.8(31) . . .
32.6(29) . . .
33.8(31) . . .
40.6(35) . . .
39.1(32) . . .
34.9(30) . . .
37.3(34) . . .
34.6(32) . . .
32.2(30) . . .
32.1(29) . . .
33.7(31) . . .
36.4(34) . . .
32.1(31) . . .
35.5(32) . . .
31.4(29) . . .
30.2(28) . . .
34.6(32) . . .
29.9(28) . . .
39.9(34) . . .
32.4(30) . . .
25.9(27) . . .
27.8(29) . . .
33.3(32) . . .
35.6(31) . . .
32.6(30) . . .
42.2(35) . . .
31.6(30) . . .
33.5(33) . . .
29.6(29) . . .
37.8(32) . . .
35.9(33) . . .
31.4(31) . . .
29.7(30) . . .
31.1(30) . . .
32.4(30) . . .
34.1(31) . . .
36.7(33) . . .
32.4(30) . . .
22.6(25) . . .
36.0(32) . . .
35.2(32) . . .
28.0(29) . . .
32.8(32) . . .
27.1(28) . . .
38.5(33) . . .
38.6(32) . . .
30.4(30) . . .
28.3(30) . . .
32.0(31) . . .
36.7(32) . . .
34.8(32) . . .
28.8(31) . . .
28.9(29) . . .
32.0(29) . . .
31.3(30) . . .
29.4(29) . . .
33.7(33) . . .
23.3(25) . . .
31.7(29) . . .
33.7(31) . . .
31.8(30) . . .
27.5(30) . . .
27.9(30) . . .
39.1(33) . . .
38.2(32) . . .
33.2(32) . . .
24.5(26) . . .
33.0(32) . . .
28.0(28) . . .
38.5(34) . . .
32.2(32) . . .
40(4) . . .
33.1(30) . . .
48(4) . . .
33.1(30) . . .
32.4(32) . . .
36.5(33) . . .
31.3(30) . . .
25.3(26) . . .
33.2(30) . . .
30.0(30) . . .
29.4(30) . . .
36.0(32) . . .
38.3(32) . . .
30.5(30) . . .
29.8(31) . . .
34.9(31) . . .
32.3(29) . . .
33.9(30) . . .
35.2(31) . . .
36.8(34) . . .
46(4) . . .
34.5(31) . . .
33.7(30) . . .
35.0(31) . . .
34.8(33) . . .
34.5(32) . . .
29.7(29) . . .
32.7(31) . . .
22.6(25) . . .
29.4(32) . . .
29.8(30) . . .
33.0(30) . . .
43.3(34) . . .
33.2(31) . . .
39(4) . . .
32.8(32) . . .
35.3(31) . . .
37.8(33) . . .
31.1(31) . . .
27.0(30) . . .
29.5(33) . . .
30.7(29) . . .
30.9(30) . . .
38.0(34) . . .
39.0(34) . . .
32.5(30) . . .
31.7(29) . . .
38.4(33) . . .
34.1(33) . . .
31.4(30) . . .
34.8(32) . . .
30.8(29) . . .
28.3(29) . . .
38(4) . . .
33.5(31) . . .
39.4(34) . . .
29.1(28) . . .
35.6(34) . . .
27.5(29) . . .
29.8(28) . . .
29.7(28) . . .
39.9(33) . . .
38.5(32) . . .
31.5(30) . . .
33.2(31) . . .
40.7(34) . . .
36.7(32) . . .
34.5(32) . . .
37.4(33) . . .
34.1(32) . . .
35.7(31) . . .
40.2(33) . . .
36.7(32) . . .
40(4) . . .
36.7(32) . . .
31.3(29) . . .
32.8(31) . . .
32.6(31) . . .
46(4) . . .
41.2(35) . . .
29.3(28) . . .
36.7(33) . . .
31.3(31) . . .
38.7(35) . . .
35.2(31) . . .
35.1(31) . . .
30.1(28) . . .
23.8(27) . . .
24.1(28) . . .
31.5(31) . . .
29.4(29) . . .
34.5(32) . . .
32.0(31) . . .
31.9(32) . . .
28.9(29) . . .
33.2(30) . . .
32.4(31) . . .
33.1(32) . . .
27.9(29) . . .
34.3(32) . . .
30.6(29) . . .
37.7(33) . . .
33.4(31) . . .
24.1(26) . . .
31.5(30) . . .
41.2(33) . . .
34.1(31) . . .
33.2(31) . . .
35.9(34) . . .
33.7(30) . . .
36.7(32) . . .
38.2(33) . . .
36(4) . . .
27.2(27) . . .
33.9(31) . . .
30.1(28) . . .
36.5(31) . . .
33.4(32) . . .
31.5(33) . . .
38.9(32) . . .
30.7(29) . . .
34.4(33) . . .
33.2(33) . . .
31.7(31) . . .
34.3(31) . . .
25.2(26) . . .
38.7(34) . . .
36.6(34) . . .
34.5(32) . . .
36.9(32) . . .
33.1(30) . . .
35.3(33) . . .
33.5(31) . . .
42(4) . . .
34.5(30) . . .
34.2(30) . . .
27.8(28) . . .
27.1(28) . . .
31.8(29) . . .
39.6(33) . . .
27.8(28) . . .
28.4(28) . . .
30.4(31) . . .
36.1(32) . . .
33.9(30) . . .
34.6(31) . . .
31.7(30) . . .
28.7(27) . . .
42.5(34) . . .
35.4(31) . . .
24.5(26) . . .
31.7(31) . . .
33.7(30) . . .
30.8(29) . . .
27.8(27) . . .
29.2(28) . . .
28.7(29) . . .
39(4) . . .
31.8(29) . . .
29.2(29) . . .
31.6(31) . . .
28.8(31) . . .
29.3(28) . . .
33.9(31) . . .
36.4(31) . . .
36.0(31) . . .
28.9(28) . . .
32.2(30) . . .
36.3(32) . . .
30.8(29) . . .
27.8(28) . . .
39(4) . . .
34.9(31) . . .
33.5(30) . . .
28.8(29) . . .
33.0(32) . . .
26.2(28) . . .
28.0(27) . . .
36.3(31) . . .
37.1(32) . . .
32.3(30) . . .
38(4) . . .
28.6(30) . . .
26.5(27) . . .
26.4(27) . . .
35.7(34) . . .
38(4) . . .
32.8(30) . . .
32.1(29) . . .
27.5(27) . . .
30.0(30) . . .
30.2(30) . . .
24.5(26) . . .
38.0(32) . . .
44(4) . . .
28.4(27) . . .
31.1(29) . . .
23.6(27) . . .
29.5(28) . . .
29.0(29) . . .
34.5(32) . . .
36.9(32) . . .
29.4(29) . . .
27.1(28) . . .
33.3(30) . . .
34.6(32) . . .
22.0(26) . . .
32.2(30) . . .
36.5(32) . . .
33.8(30) . . .
37.7(33) . . .
30.5(29) . . .
29.0(28) . . .
35.6(31) . . .
31.3(29) . . .
34.1(32) . . .
21.8(24) . . .
38.8(34) . . .
28.8(28) . . .
37.7(33) . . .
37.4(32) . . .
31.3(30) . . .
27.4(27) . . .
32.3(30) . . .
37.4(33) . . .
34.9(35) . . .
33.0(31) . . .
31.0(29) . . .
29.2(28) . . .
32.0(31) . . .
30.5(32) . . .
26.4(28) . . .
34.7(31) . . .
37.3(32) . . .
35.3(31) . . .
39.7(35) . . .
30.7(29) . . .
32.8(30) . . .
30.9(30) . . .
31.6(29) . . .
33.9(32) . . .
30.9(29) . . .
44.4(34) . . .
33.3(31) . . .
32.0(30) . . .
34.0(31) . . .
38.7(33) . . .
33.3(30) . . .
29.9(29) . . .
36.0(33) . . .
33.9(32) . . .
27.6(27) . . .
32.5(29) . . .
42(4) . . .
22.8(28) . . .
28.2(30) . . .
33.9(32) . . .
25.0(26) . . .
24.1(26) . . .
33.8(32) . . .
35.8(32) . . .
36.4(33) . . .
32.5(30) . . .
28.4(28) . . .
31.0(30) . . .
29.4(29) . . .
34.8(32) . . .
30.3(29) . . .
32.4(32) . . .
34.5(33) . . .
33.5(30) . . .
31.2(29) . . .
27.2(27) . . .
31.1(29) . . .
35.5(34) . . .
31.5(32) . . .
27.8(28) . . .
30.0(28) . . .
30.1(29) . . .
32.9(33) . . .
28.8(28) . . .
30.5(28) . . .
32.3(30) . . .
30.6(29) . . .
32.7(33) . . .
28.7(28) . . .
40.3(34) . . .
35.8(32) . . .
32.4(30) . . .
30.3(30) . . .
33.4(33) . . .
32.0(30) . . .
32.3(31) . . .
35(4) . . .
36.1(33) . . .
33.1(31) . . .
40.5(33) . . .
31.5(29) . . .
30.9(29) . . .
31.9(30) . . .
39.0(33) . . .
37.8(33) . . .
24.5(28) . . .
32.8(32) . . .
33.3(31) . . .
28.9(28) . . .
27.0(27) . . .
36.5(34) . . .
44(4) . . .
36.4(33) . . .
35.9(31) . . .
38.8(32) . . .
37.9(32) . . .
36.0(32) . . .
34.0(33) . . .
27.9(27) . . .
36.2(31) . . .
36.3(33) . . .
31.3(31) . . .
26.7(27) . . .
31.0(29) . . .
31.4(30) . . .
36.5(33) . . .
27.9(29) . . .
30.5(30) . . .
30.1(28) . . .
33.8(30) . . .
34.0(31) . . .
36.1(35) . . .
23.8(27) . . .
32.4(30) . . .
36.8(31) . . .
28.9(27) . . .
39(4) . . .
32.8(30) . . .
30.6(29) . . .
32.2(29) . . .
30.1(30) . . .
29.8(31) . . .
27.4(28) . . .
28.5(29) . . .
33.5(30) . . .
31.5(30) . . .
24.7(26) . . .
31.7(31) . . .
36.2(31) . . .
36.6(31) . . .
35.4(31) . . .
48(4) . . .
32.0(30) . . .
26.2(26) . . .
33.3(31) . . .
36.7(33) . . .
30.3(30) . . .
27.4(30) . . .
31.8(29) . . .
30.5(31) . . .
29.3(30) . . .
36.6(34) . . .
29.5(28) . . .
29.3(28) . . .
26.6(27) . . .
33.2(32) . . .
33.4(32) . . .
34.4(30) . . .
35.0(31) . . .
31.8(30) . . .
31.0(30) . . .
31.6(31) . . .
30.0(29) . . .
25.6(26) . . .
32.9(31) . . .
23.0(24) . . .
27.3(27) . . .
42.3(34) . . .
37.7(32) . . .
35.6(33) . . .
27.9(29) . . .
27.5(27) . . .
24.8(26) . . .
34.0(33) . . .
27.0(28) . . .
34.3(32) . . .
31.3(30) . . .
30.6(29) . . .
33.1(30) . . .
39.1(34) . . .
32.2(31) . . .
35.8(32) . . .
33.3(30) . . .
28.4(28) . . .
32.0(32) . . .
29.1(30) . . .
28.6(29) . . .
33.9(31) . . .
27.0(27) . . .
34.1(35) . . .
30.9(33) . . .
36.8(32) . . .
34.9(31) . . .
34.9(32) . . .
24.1(26) . . .
31.1(30) . . .
30.6(30) . . .
31.9(30) . . .
36.4(34) . . .
30.9(31) . . .
31.4(30) . . .
31.2(29) . . .
31.0(29) . . .
28.3(29) . . .
30.4(31) . . .
30.9(29) . . .
35.9(32) . . .
35.8(31) . . .
34.7(32) . . .
30.2(32) . . .
39(4) . . .
30.8(31) . . .
36.4(31) . . .
37.3(32) . . .
37.2(33) . . .
34.8(31) . . .
34.2(31) . . .
26.5(27) . . .
34.5(32) . . .
24.0(28) . . .
33.0(32) . . .
40.3(33) . . .
29.1(28) . . .
31.9(32) . . .
31.5(31) . . .
36.3(32) . . .
30.5(30) . . .
36.8(32) . . .
24.5(26) . . .
29.2(32) . . .
31.5(31) . . .
37.3(32) . . .
39.7(33) . . .
41.0(35) . . .
29.9(29) . . .
33.5(31) . . .
25.4(26) . . .
39.5(33) . . .
31.1(29) . . .
33.3(32) . . .
30.5(29) . . .
28.6(28) . . .
39.7(34) . . .
43(4) . . .
41(4) . . .
27.3(30) . . .
32.3(30) . . .
34.6(30) . . .
36.0(33) . . .
32.8(31) . . .
36.3(32) . . .
34.5(30) . . .
30.6(30) . . .
39(4) . . .
39.8(35) . . .
38.3(33) . . .
31.9(29) . . .
37.9(34) . . .
36.8(34) . . .
31.1(33) . . .
29.4(31) . . .
28.8(29) . . .
37.0(34) . . .
42(4) . . .
27.0(28) . . .
30.2(29) . . .
35.9(32) . . .
36.4(32) . . .
34.1(32) . . .
41.8(35) . . .
32.9(30) . . .
32.1(30) . . .
34.7(32) . . .
34.3(33) . . .
34.9(32) . . .
27.4(27) . . .
26.5(27) . . .
32.9(29) . . .
33.7(31) . . .
30.6(29) . . .
30.4(29) . . .
37.8(33) . . .
42(4) . . .
31.8(30) . . .
33.8(32) . . .
38.7(32) . . .
30.0(29) . . .
31.1(30) . . .
33.4(31) . . .
35.7(34) . . .
29.8(28) . . .
37.8(32) . . .
29.1(28) . . .
33.6(31) . . .
41.7(35) . . .
30.4(29) . . .
30.9(29) . . .
38.7(34) . . .
38.4(34) . . .
26.5(27) . . .
28.7(28) . . .
35.2(33) . . .
46(4) . . .
26.6(29) . . .
33.0(31) . . .
33.1(30) . . .
31.4(30) . . .
28.8(30) . . .
32.8(32) . . .
33.4(31) . . .
38.8(32) . . .
36.2(32) . . .
35(4) . . .
30.3(30) . . .
35.8(31) . . .
30.7(29) . . .
36.8(32) . . .
37.0(34) . . .
36.0(32) . . .
31.2(29) . . .
34.5(30) . . .
34.0(32) . . .
38.2(34) . . .
37.4(32) . . .
39.1(33) . . .
34.0(31) . . .
38.4(32) . . .
32.1(31) . . .
29.7(30) . . .
38.2(32) . . .
34.1(31) . . .
37.6(33) . . .
32.9(31) . . .
32.7(32) . . .
29.1(28) . . .
33.5(32) . . .
34.7(30) . . .
40.0(34) . . .
35.1(31) . . .
35.7(31) . . .
31.8(30) . . .
32.2(32) . . .
25.4(27) . . .
31.7(31) . . .
26.0(26) . . .
30.5(29) . . .
35.2(30) . . .
38(4) . . .
37.4(34) . . .
38.4(32) . . .
31.7(32) . . .
36.7(33) . . .
33.2(30) . . .
33.5(30) . . .
34.4(31) . . .
34.8(32) . . .
29.4(30) . . .
35.7(31) . . .
33.8(30) . . .
29.1(28) . . .
29.2(32) . . .
32.6(32) . . .
30.3(29) . . .
35.2(31) . . .
36.7(31) . . .
29.4(28) . . .
37(4) . . .
33.4(32) . . .
27.9(27) . . .
30.8(31) . . .
23.3(27) . . .
38(4) . . .
30.5(29) . . .
42.5(34) . . .
35.9(33) . . .
35.7(32) . . .
29.6(32) . . .
26.4(29) . . .
35.6(31) . . .
40.5(34) . . .
47(4) . . .
25.0(26) . . .
35.7(32) . . .
35.0(31) . . .
26.3(27) . . .
37.4(34) . . .
30.2(30) . . .
29.8(29) . . .
40.3(33) . . .
44(4) . . .
38(4) . . .
27.8(31) . . .
38.8(35) . . .
32.9(30) . . .
41.0(34) . . .
33.3(32) . . .
27.8(28) . . .
41.5(35) . . .
34.4(30) . . .
32.2(30) . . .
44(4) . . .
29.8(29) . . .
31.0(30) . . .
22.8(25) . . .
32.4(30) . . .
39.3(34) . . .
39.2(35) . . .
29.0(29) . . .
27.3(27) . . .
28.0(29) . . .
39.8(35) . . .
32.9(32) . . .
28.2(27) . . .
30.9(28) . . .
22.2(26) . . .
28.6(30) . . .
34.0(32) . . .
31.5(30) . . .
30.0(29) . . .
36.0(33) . . .
37.9(34) . . .
33.8(31) . . .
26.0(27) . . .
34.6(30) . . .
31.5(32) . . .
38(4) . . .
36.2(33) . . .
30.4(29) . . .
30.6(28) . . .
32.8(30) . . .
29.6(30) . . .
30.9(31) . . .
29.3(29) . . .
30.5(29) . . .
37.1(34) . . .
33.9(31) . . .
43(4) . . .
30.3(30) . . .
23.2(25) . . .
30.6(33) . . .
25.5(28) . . .
38(4) . . .
31.7(29) . . .
26.4(27) . . .
33.2(33) . . .
33.6(32) . . .
37.8(32) . . .
32.1(30) . . .
35.1(32) . . .
31.8(30) . . .
31.7(30) . . .
35.0(32) . . .
34.9(31) . . .
45(4) . . .
33.8(31) . . .
28.1(30) . . .
29.2(28) . . .
34.7(30) . . .
33.1(30) . . .
38(4) . . .
30.1(29) . . .
35.2(30) . . .
31.1(29) . . .
39.0(33) . . .
32.2(28) . . .
37.3(32) . . .
42.7(34) . . .
28.3(28) . . .
33.0(31) . . .
30.0(29) . . .
32.0(30) . . .
40.8(33) . . .
31.5(30) . . .
31.8(31) . . .
38(4) . . .
28.9(27) . . .
31.1(29) . . .
26.4(27) . . .
34.9(34) . . .
36.4(32) . . .
43.1(35) . . .
30.3(29) . . .
38.1(33) . . .
30.3(31) . . .
32.5(32) . . .
37.1(32) . . .
32.2(31) . . .
36.9(32) . . .
32.4(31) . . .
27.0(28) . . .
39.6(34) . . .
34.4(30) . . .
31.4(30) . . .
32.8(30) . . .
33.0(32) . . .
32.0(29) . . .
33.1(30) . . .
29.0(31) . . .
28.2(28) . . .
31.5(31) . . .
28.1(28) . . .
32.4(30) . . .
31.7(32) . . .
33.3(33) . . .
40(4) . . .
43.0(35) . . .
37.7(32) . . .
25.6(26) . . .
26.8(29) . . .
38(4) . . .
36.5(32) . . .
36.2(33) . . .
26.2(28) . . .
24.9(27) . . .
29.0(28) . . .
32.3(30) . . .
38.6(32) . . .
25.6(27) . . .
30.6(31) . . .
33.1(30) . . .
27.0(27) . . .
36.1(31) . . .
33.8(31) . . .
34.0(33) . . .
34.7(31) . . .
29.0(28) . . .
25.8(27) . . .
27.9(28) . . .
34.1(34) . . .
34.4(32) . . .
32.1(29) . . .
33.5(30) . . .
32.2(30) . . .
28.5(28) . . .
33.9(32) . . .
32.6(29) . . .
38.3(33) . . .
42(4) . . .
28.5(29) . . .
28.7(28) . . .
39.8(33) . . .
37.2(31) . . .
39.9(33) . . .
32.6(31) . . .
26.0(28) . . .
32.5(30) . . .
26.3(27) . . .
29.5(29) . . .
30.2(29) . . .
33.7(31) . . .
32.0(29) . . .
27.1(27) . . .
39(4) . . .
33.8(32) . . .
35.0(32) . . .
29.5(28) . . .
30.6(29) . . .
27.7(29) . . .
32.5(32) . . .
30.6(29) . . .
38.1(33) . . .
23.6(26) . . .
32.3(31) . . .
29.2(29) . . .
35.6(31) . . .
31.1(29) . . .
32.1(30) . . .
28.4(30) . . .
30.6(29) . . .
24.8(26) . . .
28.4(28) . . .
33.8(32) . . .
31.9(33) . . .
29.6(31) . . .
27.9(27) . . .
25.7(26) . . .
29.1(29) . . .
27.2(28) . . .
23.6(26) . . .
29.8(28) . . .
32.8(31) . . .
36.1(33) . . .
29.2(30) . . .
29.4(31) . . .
29.7(28) . . .
24.8(26) . . .
29.5(31) . . .
25.3(27) . . .
29.7(28) . . .
30.3(29) . . .
25.0(26) . . .
36.7(33) . . .
32.9(29) . . .
30.9(29) . . .
33.2(30) . . .
32.2(30) . . .
22.6(26) . . .
32.9(33) . . .
33.8(30) . . .
29.9(29) . . .
29.1(30) . . .
37.8(33) . . .
34.3(31) . . .
33.6(31) . . .
31.1(29) . . .
33.6(32) . . .
32.7(31) . . .
28.9(28) . . .
37.7(33) . . .
38.2(33) . . .
28.9(30) . . .
25.9(27) . . .
35.1(30) . . .
35.2(32) . . .
31.4(29) . . .
28.7(28) . . .
31.0(31) . . .
29.7(29) . . .
31.0(29) . . .
31.3(29) . . .
33.4(32) . . .
32.0(32) . . .
37.2(34) . . .
37.7(33) . . .
32.3(30) . . .
33.5(32) . . .
32.7(30) . . .
40(4) . . .
23.4(26) . . .
33.4(31) . . .
37.6(33) . . .
34.1(32) . . .
42(4) . . .
29.8(29) . . .
37.6(32) . . .
40.5(34) . . .
34.7(32) . . .
33.9(30) . . .
30.1(29) . . .
33.6(31) . . .
34.5(33) . . .
31.6(31) . . .
31.6(30) . . .
26.8(27) . . .
30.0(32) . . .
46(4) . . .
32.5(30) . . .
36.6(32) . . .
29.1(28) . . .
37.5(34) . . .
34.9(34) . . .
31.2(29) . . .
32.0(29) . . .
33.7(30) . . .
31.2(29) . . .
30.1(29) . . .
27.1(28) . . .
32.2(30) . . .
34.2(31) . . .
26.9(28) . . .
30.3(30) . . .
27.3(28) . . .
35.2(31) . . .
30.6(29) . . .
27.3(26) . . .
34.6(32) . . .
21.6(24) . . .
32.5(30) . . .
36.1(31) . . .
32.7(32) . . .
29.1(31) . . .
31.3(32) . . .
33.9(30) . . .
26.3(27) . . .
36.0(32) . . .
26.2(29) . . .
27.8(29) . . .
37.6(33) . . .
22.6(25) . . .
30.5(31) . . .
33.6(32) . . .
31.4(31) . . .
33.8(30) . . .
31.1(30) . . .
33.1(31) . . .
35.5(34) . . .
31.3(33) . . .
28.7(28) . . .
32.5(30) . . .
30.0(32) . . .
25.1(26) . . .
31.5(30) . . .
38.3(32) . . .
28.0(29) . . .
31.0(30) . . .
29.6(31) . . .
28.8(29) . . .
40.5(33) . . .
27.6(27) . . .
25.7(27) . . .
31.2(31) . . .
27.7(28) . . .
29.0(28) . . .
27.2(29) . . .
28.3(30) . . .
32.2(33) . . .
31.7(29) . . .
31.4(29) . . .
36.1(34) . . .
33.3(33) . . .
28.7(30) . . .
31.6(30) . . .
31.6(30) . . .
28.7(29) . . .
31.0(30) . . .
31.4(29) . . .
26.2(26) . . .
28.8(29) . . .
35.2(31) . . .
36.2(33) . . .
33.3(30) . . .
32.5(29) . . .
28.3(28) . . .
30.3(30) . . .
30.3(31) . . .
29.0(30) . . .
37.6(32) . . .
32.5(29) . . .
33.4(30) . . .
35.8(32) . . .
37.7(33) . . .
32.6(30) . . .
28.5(29) . . .
31.9(30) . . .
33.1(30) . . .
32.0(29) . . .
32.9(30) . . .
26.8(27) . . .
32.0(30) . . .
28.2(28) . . .
32.3(31) . . .
33.6(30) . . .
36.9(34) . . .
29.8(28) . . .
44(4) . . .
33.2(31) . . .
29.5(29) . . .
34.7(32) . . .
29.9(30) . . .
36.5(34) . . .
27.6(28) . . .
29.8(29) . . .
35.7(32) . . .
34.7(33) . . .
28.3(28) . . .
33.4(31) . . .
32.4(31) . . .
28.9(30) . . .
27.3(29) . . .
34(4) . . .
27.1(27) . . .
24.3(26) . . .
32.5(32) . . .
34.0(33) . . .
31.1(31) . . .
32.8(31) . . .
32.2(30) . . .
29.9(32) . . .
33.4(33) . . .
37(4) . . .
33.5(30) . . .
29.3(29) . . .
31.3(30) . . .
32.3(33) . . .
30.7(31) . . .
32.3(29) . . .
34.0(31) . . .
32.1(31) . . .
24.0(27) . . .
29.7(31) . . .
29.9(29) . . .
28.8(29) . . .
28.0(28) . . .
32.3(32) . . .
29.7(30) . . .
33.4(30) . . .
26.7(30) . . .
38.1(34) . . .
37.5(34) . . .
29.2(28) . . .
35.4(31) . . .
31.1(29) . . .
33.8(31) . . .
31.2(33) . . .
24.8(27) . . .
24.5(26) . . .
36.5(31) . . .
34.4(31) . . .
32.2(31) . . .
31.7(30) . . .
44.7(35) . . .
34.8(32) . . .
27.8(28) . . .
38.8(35) . . .
30.3(29) . . .
37.8(32) . . .
18.8(26) . . .
30.7(33) . . .
27.6(27) . . .
31.2(30) . . .
25.1(27) . . .
34.1(32) . . .
44(4) . . .
35.1(32) . . .
39.1(32) . . .
32.7(30) . . .
26.8(27) . . .
33.9(34) . . .
32.9(32) . . .
33.3(31) . . .
30.0(28) . . .
28.0(29) . . .
27.9(30) . . .
25.7(27) . . .
31.9(29) . . .
32.0(30) . . .
22.8(27) . . .
30.7(33) . . .
36.9(34) . . .
32.4(30) . . .
24.9(27) . . .
25.9(26) . . .
28.2(28) . . .
33.1(31) . . .
33.8(30) . . .
30.6(29) . . .
29.5(27) . . .
32.9(31) . . .
36.3(33) . . .
28.5(28) . . .
34.1(33) . . .
29.3(29) . . .
33.4(31) . . .
31.2(29) . . .
22.2(25) . . .
29.7(28) . . .
33.8(31) . . .
31.0(28) . . .
34.4(30) . . .
39.3(32) . . .
31.5(31) . . .
33.0(34) . . .
32.5(31) . . .
33.5(33) . . .
37.4(32) . . .
45(4) . . .
49(4) . . .
31.1(30) . . .
38.6(34) . . .
28.7(29) . . .
36(4) . . .
32.9(33) . . .
30.9(29) . . .
40.1(33) . . .
33.9(30) . . .
26.7(27) . . .
30.3(30) . . .
30.3(29) . . .
28.0(28) . . .
33.3(30) . . .
30.6(30) . . .
30.7(30) . . .
36.6(32) . . .
28.7(28) . . .
34.6(32) . . .
34.1(33) . . .
32.5(31) . . .
26.2(27) . . .
27.8(27) . . .
36.3(31) . . .
34.2(33) . . .
27.0(28) . . .
35.2(31) . . .
30.0(28) . . .
31.2(30) . . .
33.9(31) . . .
32.2(33) . . .
34.9(32) . . .
37.1(32) . . .
30.2(30) . . .
25.0(26) . . .
33.7(32) . . .
31.6(32) . . .
32.1(30) . . .
33.1(32) . . .
33.6(31) . . .
28.3(30) . . .
29.2(32) . . .
30.1(28) . . .
38(4) . . .
28.7(28) . . .
27.6(27) . . .
24.1(25) . . .
24.3(25) . . .
35.0(31) . . .
33.7(31) . . .
31.9(30) . . .
25.9(26) . . .
36.3(31) . . .
37.7(33) . . .
24.5(26) . . .
36.3(34) . . .
29.5(30) . . .
31.5(29) . . .
42.6(35) . . .
33.3(29) . . .
26.1(27) . . .
26.1(26) . . .
43(4) . . .
33.9(32) . . .
26.3(29) . . .
26.4(28) . . .
34.4(32) . . .
24.6(25) . . .
34.2(32) . . .
28.9(30) . . .
26.6(28) . . .
33.1(30) . . .
28.0(28) . . .
32.6(32) . . .
27.3(30) . . .
27.5(28) . . .
38.9(32) . . .
33.6(30) . . .
36.8(32) . . .
34.8(32) . . .
28.9(28) . . .
27.2(27) . . .
38.3(34) . . .
42(4) . . .
28.2(30) . . .
33.3(33) . . .
34.7(31) . . .
34.7(31) . . .
27.4(28) . . .
31.3(30) . . .
29.1(28) . . .
30.8(29) . . .
28.2(28) . . .
35.5(35) . . .
35.7(31) . . .
32.1(31) . . .
31.4(29) . . .
35.0(33) . . .
32.8(32) . . .
23.0(25) . . .
32.9(30) . . .
27.6(28) . . .
33.9(31) . . .
29.6(29) . . .
34.8(32) . . .
24.4(25) . . .
38.9(33) . . .
39.8(33) . . .
30.0(30) . . .
29.1(29) . . .
29.5(28) . . .
29.0(28) . . .
30.6(33) . . .
28.9(29) . . .
44(4) . . .
31.0(29) . . .
35.2(31) . . .
33.6(33) . . .
28.0(29) . . .
28.5(28) . . .
33.9(31) . . .
27.4(27) . . .
34.5(32) . . .
30.4(31) . . .
28.7(30) . . .
37.6(32) . . .
43.5(35) . . .
36.1(34) . . .
23.8(26) . . .
35.4(32) . . .
28.9(29) . . .
23.3(25) . . .
26.2(30) . . .
36.6(33) . . .
41.6(35) . . .
37.1(33) . . .
36.4(33) . . .
30.5(30) . . .
28.7(29) . . .
39(4) . . .
27.9(28) . . .
34.0(30) . . .
26.5(27) . . .
31.3(31) . . .
21.4(26) . . .
31.9(29) . . .
30.4(29) . . .
32.2(31) . . .
28.9(29) . . .
31.1(30) . . .
22.7(25) . . .
30.7(31) . . .
32.0(33) . . .
33.6(32) . . .
28.6(28) . . .
30.3(28) . . .
38.3(33) . . .
35.4(33) . . .
23.6(25) . . .
22.9(25) . . .
27.3(27) . . .
31.2(30) . . .
33.9(31) . . .
33.7(31) . . .
33.1(29) . . .
32.0(30) . . .
32.1(30) . . .
28.2(30) . . .
24.7(25) . . .
29.6(28) . . .
33.3(30) . . .
39.3(32) . . .
38.8(33) . . .
37.5(34) . . .
32.5(30) . . .
28.8(28) . . .
37.0(34) . . .
32.0(32) . . .
28.8(30) . . .
25.0(26) . . .
22.4(26) . . .
32.3(33) . . .
36.5(33) . . .
35.5(32) . . .
34.6(31) . . .
35.9(33) . . .
37.0(33) . . .
26.2(27) . . .
29.7(32) . . .
21.0(23) . . .
29.6(30) . . .
28.7(28) . . .
39.8(34) . . .
35.8(31) . . .
40.0(33) . . .
35.5(31) . . .
28.2(29) . . .
29.4(28) . . .
27.5(27) . . .
38.1(32) . . .
39.4(34) . . .
32.5(31) . . .
26.5(28) . . .
29.9(29) . . .
34.5(30) . . .
30.5(29) . . .
41(4) . . .
37.5(32) . . .
35.1(32) . . .
35.1(30) . . .
34.6(32) . . .
34.1(31) . . .
33.3(34) . . .
27.0(27) . . .
27.8(27) . . .
33.0(32) . . .
31.1(31) . . .
33.7(30) . . .
33.9(31) . . .
36.0(31) . . .
35.9(34) . . .
27.5(29) . . .
31.7(33) . . .
27.5(27) . . .
30.4(28) . . .
37.6(34) . . .
34.5(33) . . .
37.6(34) . . .
38.3(32) . . .
29.3(29) . . .
26.4(28) . . .
31.7(32) . . .
28.8(29) . . .
28.1(28) . . .
34.6(31) . . .
28.5(29) . . .
37(4) . . .
33.8(31) . . .
39.2(33) . . .
35.2(32) . . .
35.2(33) . . .
41(4) . . .
36.8(32) . . .
29.3(28) . . .
30.2(28) . . .
42(4) . . .
24.2(26) . . .
42(4) . . .
33.2(30) . . .
35.9(31) . . .
47(4) . . .
31.6(31) . . .
32.8(32) . . .
33.2(31) . . .
37.2(35) . . .
36.3(34) . . .
37.0(34) . . .
30.6(28) . . .
40.9(33) . . .
40(4) . . .
36.3(34) . . .
32.4(31) . . .
32.2(30) . . .
33.8(31) . . .
33.8(33) . . .
37.7(33) . . .
37.0(34) . . .
43.5(35) . . .
32.1(30) . . .
34.4(33) . . .
32.4(33) . . .
24.9(27) . . .
25.4(26) . . .
32.7(30) . . .
38.2(33) . . .
36.9(32) . . .
41.8(34) . . .
33.6(31) . . .
35.4(31) . . .
31.7(29) . . .
35.6(33) . . .
31.2(30) . . .
37.2(32) . . .
29.1(28) . . .
31.4(31) . . .
36.4(34) . . .
31.7(30) . . .
30.2(29) . . .
39.9(33) . . .
32.1(31) . . .
22.6(25) . . .
31.0(34) . . .
28.1(27) . . .
28.5(29) . . .
30.9(31) . . .
38(4) . . .
34.6(31) . . .
33.7(31) . . .
30.5(30) . . .
36.3(34) . . .
31.2(30) . . .
31.1(29) . . .
21.7(25) . . .
31.3(32) . . .
31.5(31) . . .
34.7(33) . . .
26.5(26) . . .
32.7(30) . . .
37.2(32) . . .
29.5(30) . . .
27.6(28) . . .
28.3(29) . . .
28.8(28) . . .
24.8(25) . . .
24.9(28) . . .
36.8(34) . . .
29.7(28) . . .
35.1(32) . . .
29.2(28) . . .
33.8(32) . . .
31.1(29) . . .
37.4(32) . . .
28.4(28) . . .
28.8(27) . . .
38.9(35) . . .
38.4(34) . . .
26.5(27) . . .
31.2(29) . . .
36.8(33) . . .
35.4(31) . . .
34.8(31) . . .
34.3(31) . . .
28.5(28) . . .
39.5(35) . . .
34.3(33) . . .
27.2(30) . . .
31.8(30) . . .
31.5(29) . . .
28.5(28) . . .
27.9(29) . . .
34.6(32) . . .
35.6(31) . . .
34.8(31) . . .
24.0(27) . . .
33.5(33) . . .
32.8(30) . . .
25.5(27) . . .
32.2(31) . . .
32.2(31) . . .
38.3(33) . . .
35.9(31) . . .
29.1(29) . . .
32.2(32) . . .
31.8(31) . . .
26.9(28) . . .
27.1(28) . . .
32.5(30) . . .
33.5(32) . . .
35.5(34) . . .
36.1(32) . . .
30.8(29) . . .
27.2(27) . . .
29.2(29) . . .
28.9(29) . . .
39(4) . . .
29.6(29) . . .
28.0(28) . . .
38.8(35) . . .
31.0(31) . . .
31.0(29) . . .
28.7(28) . . .
29.3(29) . . .
37.8(33) . . .
27.5(27) . . .
29.8(29) . . .
31.8(29) . . .
27.7(28) . . .
23.2(25) . . .
36.1(33) . . .
35.7(32) . . .
32.5(30) . . .
28.0(28) . . .
24.9(26) . . .
29.4(28) . . .
35.4(31) . . .
36.0(31) . . .
36.4(32) . . .
27.6(27) . . .
30.9(30) . . .
31.4(30) . . .
39.9(32) . . .
41(4) . . .
21.4(25) . . .
21.2(26) . . .
30.0(31) . . .
37.6(32) . . .
32.8(30) . . .
30.5(29) . . .
27.6(29) . . .
34.8(32) . . .
29.1(28) . . .
34.4(32) . . .
33.9(32) . . .
35.1(32) . . .
30.8(28) . . .
39.8(34) . . .
28.3(27) . . .
29.9(30) . . .
29.9(29) . . .
33.3(30) . . .
32.5(30) . . .
30.7(31) . . .
28.8(33) . . .
26.5(28) . . .
34.8(32) . . .
29.9(29) . . .
34.1(32) . . .
32.3(31) . . .
25.6(27) . . .
29.8(28) . . .
26.5(27) . . .
28.4(29) . . .
29.4(29) . . .
32.9(30) . . .
32.2(29) . . .
26.3(28) . . .
38(4) . . .
26.6(26) . . .
29.5(28) . . .
33.9(31) . . .
33.6(32) . . .
36.1(33) . . .
33.9(32) . . .
38.6(34) . . .
33.2(30) . . .
37.4(32) . . .
32.8(30) . . .
38.2(35) . . .
34.5(32) . . .
34.0(31) . . .
25.3(27) . . .
27.2(28) . . .
34.9(33) . . .
32.8(31) . . .
31.1(28) . . .
26.5(27) . . .
28.7(28) . . .
35.3(32) . . .
29.5(28) . . .
32.3(30) . . .
30.5(29) . . .
31.7(31) . . .
28.2(29) . . .
34.0(31) . . .
32.3(30) . . .
24.7(27) . . .
33.5(31) . . .
34.4(32) . . .
33.8(30) . . .
27.6(27) . . .
28.1(29) . . .
25.8(29) . . .
33.5(32) . . .
29.9(28) . . .
35.5(31) . . .
28.0(29) . . .
31.4(32) . . .
36.1(34) . . .
23.5(25) . . .
39(4) . . .
31.0(32) . . .
31.7(32) . . .
29.5(29) . . .
25.7(27) . . .
29.4(28) . . .
26.0(27) . . .
30.8(30) . . .
20.8(23) . . .
33.5(31) . . .
33.0(33) . . .
39.8(34) . . .
28.8(30) . . .
26.8(28) . . .
40.4(33) . . .
36.3(31) . . .
41.7(35) . . .
27.3(27) . . .
25.0(27) . . .
23.8(26) . . .
20.1(24) . . .
26.3(27) . . .
31.0(30) . . .
34.5(32) . . .
35.2(31) . . .
40.0(34) . . .
34.7(31) . . .
27.5(28) . . .
36.7(33) . . .
29.5(29) . . .
31.1(31) . . .
31.5(30) . . .
30.4(28) . . .
31.3(29) . . .
29.5(29) . . .
36.3(35) . . .
34.7(34) . . .
30.0(30) . . .
34.5(32) . . .
32.2(29) . . .
35.4(32) . . .
31.6(31) . . .
31.6(30) . . .
26.3(28) . . .
33.5(30) . . .
29.3(29) . . .
34.3(32) . . .
30.8(29) . . .
30.5(30) . . .
29.1(28) . . .
27.4(29) . . .
33.6(32) . . .
34.6(31) . . .
36.0(31) . . .
30.8(29) . . .
36.1(32) . . .
27.7(29) . . .
35.8(33) . . .
30.0(29) . . .
33.8(31) . . .
31.8(31) . . .
30.8(30) . . .
24.6(26) . . .
34.0(31) . . .
32.9(31) . . .
25.4(28) . . .
24.8(28) . . .
37.7(35) . . .
30.2(29) . . .
31.0(30) . . .
32.7(33) . . .
25.3(25) . . .
30.4(31) . . .
28.3(28) . . .
26.4(28) . . .
32.3(32) . . .
34.0(33) . . .
31.0(29) . . .
31.4(29) . . .
19.0(22) . . .
32.3(32) . . .
24.5(26) . . .
38.2(33) . . .
33.3(31) . . .
32.6(30) . . .
34.2(32) . . .
29.2(29) . . .
31.5(29) . . .
34.0(30) . . .
41(4) . . .
28.8(30) . . .
29.4(30) . . .
29.7(28) . . .
29.0(28) . . .
29.2(30) . . .
24.9(27) . . .
33.6(31) . . .
31.7(29) . . .
30.0(29) . . .
38.6(35) . . .
35.5(34) . . .
36.9(33) . . .
20.3(24) . . .
27.1(27) . . .
31.2(30) . . .
28.9(31) . . .
32.0(30) . . .
27.0(27) . . .
27.8(28) . . .
23.6(26) . . .
31.4(32) . . .
35.3(32) . . .
29.0(28) . . .
31.4(32) . . .
27.7(28) . . .
38.4(33) . . .
35.1(31) . . .
26.9(28) . . .
31.8(30) . . .
27.8(27) . . .
28.1(29) . . .
27.6(28) . . .
37.3(32) . . .
24.7(26) . . .
30.7(31) . . .
30.4(32) . . .
34.2(32) . . .
40.2(33) . . .
28.3(27) . . .
28.2(28) . . .
32.0(29) . . .
28.1(28) . . .
25.0(27) . . .
20.6(24) . . .
33.3(33) . . .
27.5(27) . . .
30.3(29) . . .
30.7(29) . . .
38.4(33) . . .
32.8(33) . . .
27.7(29) . . .
31.6(29) . . .
36.0(34) . . .
28.8(32) . . .
26.3(29) . . .
26.9(28) . . .
31.8(29) . . .
39.5(33) . . .
26.0(27) . . .
20.9(26) . . .
21.0(24) . . .
22.2(26) . . .
31.2(29) . . .
34.4(30) . . .
37.7(34) . . .
37.7(34) . . .
37.2(32) . . .
34.6(30) . . .
31.3(32) . . .
26.5(28) . . .
32.6(31) . . .
28.6(28) . . .
30.0(31) . . .
35.1(32) . . .
31.0(31) . . .
23.8(27) . . .
25.9(26) . . .
30.6(30) . . .
39.6(35) . . .
32.3(33) . . .
30.4(31) . . .
25.9(27) . . .
22.7(25) . . .
36.2(33) . . .
33.3(30) . . .
35.2(31) . . .
31.7(29) . . .
34.5(30) . . .
37.1(31) . . .
35.8(33) . . .
25.0(30) . . .
26.4(27) . . .
33.9(32) . . .
36.0(35) . . .
25.6(27) . . .
34.1(31) . . .
34.3(30) . . .
26.9(28) . . .
32.7(34) . . .
38(4) . . .
26.2(27) . . .
23.3(25) . . .
30.3(29) . . .
32.4(31) . . .
29.3(29) . . .
34.6(31) . . .
30.0(28) . . .
34.3(32) . . .
26.3(29) . . .
31.4(31) . . .
40.5(34) . . .
31.8(29) . . .
37.6(35) . . .
32.4(33) . . .
38(4) . . .
26.6(27) . . .
23.8(25) . . .
38.1(34) . . .
35.6(34) . . .
29.7(30) . . .
40.8(34) . . .
36.8(33) . . .
33.3(32) . . .
27.4(28) . . .
38.5(34) . . .
39.2(32) . . .
31.1(29) . . .
27.5(29) . . .
39(4) . . .
30.2(32) . . .
33.6(31) . . .
40.5(34) . . .
41(4) . . .
36.9(33) . . .
33.7(32) . . .
35.9(31) . . .
30.6(29) . . .
26.6(27) . . .
38(4) . . .
25.6(26) . . .
31.2(29) . . .
31.8(29) . . .
29.4(29) . . .
33.0(32) . . .
31.1(29) . . .
33.3(31) . . .
26.9(28) . . .
33.2(30) . . .
35.9(32) . . .
24.4(25) . . .
23.9(25) . . .
28.1(29) . . .
23.3(26) . . .
27.7(29) . . .
33.2(30) . . .
31.1(29) . . .
33.4(31) . . .
27.8(28) . . .
36.5(31) . . .
29.5(28) . . .
30.5(29) . . .
29.8(29) . . .
30.6(31) . . .
24.3(26) . . .
28.5(29) . . .
35.5(31) . . .
38.9(34) . . .
28.8(29) . . .
32.3(31) . . .
29.9(28) . . .
27.1(28) . . .
27.9(29) . . .
33.5(31) . . .
34.8(33) . . .
30.5(30) . . .
30.7(29) . . .
31.6(31) . . .
37(4) . . .
24.7(27) . . .
30.6(28) . . .
37.8(32) . . .
31.7(31) . . .
28.3(28) . . .
31.8(31) . . .
32.0(30) . . .
35.7(32) . . .
32.6(31) . . .
30.9(30) . . .
33.2(31) . . .
30.9(29) . . .
37.2(32) . . .
31.2(30) . . .
26.8(27) . . .
32.1(30) . . .
29.1(28) . . .
33.3(31) . . .
28.6(29) . . .
32.5(31) . . .
27.1(27) . . .
31.2(29) . . .
29.9(29) . . .
28.5(28) . . .
33.4(31) . . .
30.3(30) . . .
34.5(30) . . .
38(4) . . .
26.8(28) . . .
23.5(26) . . .
26.1(29) . . .
25.8(27) . . .
20.3(26) . . .
30.3(30) . . .
32.0(30) . . .
31.4(30) . . .
29.5(29) . . .
31.1(30) . . .
26.6(29) . . .
31.4(31) . . .
36.6(31) . . .
37.3(32) . . .
28.4(29) . . .
33.2(33) . . .
25.9(27) . . .
31.3(29) . . .
33.3(30) . . .
27.6(28) . . .
31.4(31) . . .
30.9(30) . . .
23.4(25) . . .
30.8(32) . . .
27.2(27) . . .
35.4(32) . . .
41(4) . . .
37.5(32) . . .
26.9(29) . . .
26.3(30) . . .
23.5(26) . . .
26.8(27) . . .
32.7(29) . . .
21.2(24) . . .
37.8(33) . . .
32.9(32) . . .
45(4) . . .
24.0(25) . . .
34.9(33) . . .
31.5(31) . . .
33.2(32) . . .
26.1(27) . . .
32.2(29) . . .
38.2(33) . . .
35.6(35) . . .
38.5(34) . . .
32.7(30) . . .
34.4(31) . . .
29.7(30) . . .
25.1(27) . . .
29.8(29) . . .
36.2(32) . . .
34.6(31) . . .
32.1(31) . . .
35.5(34) . . .
27.7(27) . . .
29.4(28) . . .
25.1(26) . . .
31.0(30) . . .
20.9(26) . . .
31.0(32) . . .
34.7(30) . . .
35.8(31) . . .
31.8(31) . . .
25.3(27) . . .
32.2(30) . . .
26.4(26) . . .
32.5(30) . . .
30.9(30) . . .
28.0(32) . . .
25.3(27) . . .
35.0(31) . . .
34.3(32) . . .
26.2(27) . . .
21.4(26) . . .
25.1(27) . . .
34.9(30) . . .
30.6(31) . . .
29.6(31) . . .
26.0(27) . . .
29.3(29) . . .
34.3(31) . . .
30.3(30) . . .
28.2(28) . . .
26.8(27) . . .
32.3(32) . . .
26.6(27) . . .
30.2(29) . . .
32.9(33) . . .
27.3(28) . . .
27.0(27) . . .
29.2(29) . . .
31.3(30) . . .
36.5(33) . . .
28.4(27) . . .
27.0(27) . . .
32.4(30) . . .
33.0(29) . . .
31.0(30) . . .
24.3(26) . . .
29.4(28) . . .
31.0(29) . . .
29.3(30) . . .
31.5(31) . . .
30.2(28) . . .
31.2(30) . . .
33.7(30) . . .
27.6(27) . . .
31.2(31) . . .
29.4(28) . . .
34.6(31) . . .
35.4(32) . . .
33.8(34) . . .
28.3(30) . . .
35.6(35) . . .
34.6(31) . . .
23.1(25) . . .
22.1(25) . . .
24.0(25) . . .
30.9(30) . . .
36.7(31) . . .
29.9(29) . . .
37(4) . . .
33.5(32) . . .
34.0(32) . . .
32.4(30) . . .
32.9(30) . . .
29.6(29) . . .
31.7(30) . . .
31.0(31) . . .
23.2(25) . . .
25.2(28) . . .
30.8(31) . . .
34.7(31) . . .
37.7(33) . . .
35.9(31) . . .
33.2(30) . . .
19.8(24) . . .
27.3(29) . . .
26.9(27) . . .
39.1(33) . . .
36.0(32) . . .
30.4(30) . . .
33.4(32) . . .
34.0(30) . . .
40.6(33) . . .
30.5(29) . . .
38(4) . . .
32.9(31) . . .
36.6(32) . . .
29.5(28) . . .
38(4) . . .
23.5(25) . . .
28.2(29) . . .
35.0(30) . . .
41.1(34) . . .
35.8(33) . . .
30.3(31) . . .
26.9(28) . . .
30.5(29) . . .
29.6(28) . . .
31.6(30) . . .
34.5(33) . . .
30.5(29) . . .
32.4(30) . . .
29.6(28) . . .
30.6(30) . . .
27.3(29) . . .
28.6(31) . . .
27.9(27) . . .
28.5(28) . . .
26.0(28) . . .
35.1(33) . . .
29.8(28) . . .
32.7(30) . . .
34.8(32) . . .
30.0(30) . . .
29.6(29) . . .
28.4(28) . . .
34.5(31) . . .
28.4(28) . . .
26.6(27) . . .
38.4(34) . . .
33.4(31) . . .
27.6(28) . . .
34.5(31) . . .
35.6(33) . . .
34.1(32) . . .
32.8(30) . . .
30.7(29) . . .
23.7(26) . . .
32.4(32) . . .
30.0(28) . . .
28.9(29) . . .
35.1(31) . . .
35.9(32) . . .
31.9(31) . . .
35.6(33) . . .
23.0(25) . . .
31.6(30) . . .
28.2(28) . . .
33.8(33) . . .
25.6(26) . . .
31.8(29) . . .
24.3(27) . . .
26.0(27) . . .
32.8(33) . . .
34.9(32) . . .
33.0(30) . . .
25.7(26) . . .
29.6(30) . . .
31.5(31) . . .
31.1(30) . . .
23.3(25) . . .
28.7(30) . . .
33.8(31) . . .
26.4(26) . . .
35.6(32) . . .
33.3(30) . . .
40.8(33) . . .
40.2(33) . . .
36.0(33) . . .
40(4) . . .
29.6(28) . . .
35.1(31) . . .
34.5(32) . . .
29.6(29) . . .
30.1(29) . . .
35.6(31) . . .
31.3(29) . . .
29.3(30) . . .
28.6(30) . . .
32.5(30) . . .
33.5(31) . . .
31.9(32) . . .
26.3(29) . . .
27.1(30) . . .
32.2(30) . . .
29.2(28) . . .
32.5(32) . . .
28.0(28) . . .
30.0(30) . . .
33.2(31) . . .
30.6(29) . . .
24.4(26) . . .
27.3(29) . . .
24.2(26) . . .
28.1(27) . . .
33.8(30) . . .
37.0(33) . . .
28.3(29) . . .
36.2(34) . . .
35.1(31) . . .
30.8(29) . . .
23.0(26) . . .
36(4) . . .
31.0(29) . . .
33.0(31) . . .
31.6(29) . . .
25.4(28) . . .
23.6(26) . . .
34.3(32) . . .
34.7(31) . . .
33.7(30) . . .
31.7(32) . . .
31.3(30) . . .
32.0(30) . . .
26.3(27) . . .
28.8(29) . . .
41(4) . . .
31.4(32) . . .
29.0(30) . . .
25.8(26) . . .
31.3(30) . . .
31.2(31) . . .
34.2(33) . . .
27.0(28) . . .
35.3(31) . . .
28.7(29) . . .
24.3(25) . . .
29.6(30) . . .
26.6(27) . . .
35.5(32) . . .
27.6(28) . . .
32.1(31) . . .
31.8(30) . . .
29.3(30) . . .
32.4(31) . . .
26.2(27) . . .
28.5(28) . . .
30.0(30) . . .
31.6(30) . . .
34.7(31) . . .
29.1(29) . . .
31.1(31) . . .
30.8(30) . . .
29.0(29) . . .
29.4(29) . . .
35.6(32) . . .
30.8(30) . . .
33.1(30) . . .
32.7(30) . . .
34.0(30) . . .
29.9(28) . . .
24.1(26) . . .
31.4(33) . . .
25.7(27) . . .
25.7(26) . . .
29.6(29) . . .
16.7(22) . . .
21.4(25) . . .
30.6(29) . . .
34.4(32) . . .
33.0(30) . . .
26.3(27) . . .
26.4(28) . . .
21.5(25) . . .
29.1(29) . . .
30.5(30) . . .
34.5(32) . . .
30.8(29) . . .
37.3(31) . . .
35.0(31) . . .
29.0(29) . . .
29.3(31) . . .
26.1(29) . . .
29.9(29) . . .
22.1(27) . . .
29.5(29) . . .
29.8(30) . . .
33.2(30) . . .
30.7(29) . . .
29.3(29) . . .
27.7(29) . . .
29.9(31) . . .
29.5(30) . . .
25.1(26) . . .
21.6(25) . . .
28.0(29) . . .
22.9(23) . . .
35.5(32) . . .
34.5(31) . . .
37.0(34) . . .
46(4) . . .
25.6(27) . . .
30.0(29) . . .
33.9(30) . . .
31.4(32) . . .
24.5(28) . . .
23.3(26) . . .
32.0(30) . . .
29.8(29) . . .
32.0(30) . . .
30.9(29) . . .
30.9(31) . . .
26.5(27) . . .
32.9(30) . . .
31.5(32) . . .
27.8(31) . . .
25.7(29) . . .
27.7(28) . . .
31.3(29) . . .
31.2(29) . . .
26.0(27) . . .
30.4(30) . . .
26.5(27) . . .
29.2(29) . . .
37.0(32) . . .
36.0(31) . . .
29.5(30) . . .
27.4(27) . . .
31.1(29) . . .
34.2(32) . . .
28.4(30) . . .
24.4(28) . . .
28.5(28) . . .
34.4(32) . . .
31.8(32) . . .
28.3(29) . . .
37.3(34) . . .
23.7(26) . . .
29.3(28) . . .
37.5(34) . . .
30.0(28) . . .
29.4(29) . . .
25.0(26) . . .
33.0(30) . . .
35.5(33) . . .
43(4) . . .
31.5(31) . . .
32.6(30) . . .
24.0(25) . . .
24.7(25) . . .
31.6(31) . . .
29.2(30) . . .
34.8(31) . . .
34.7(32) . . .
33.6(32) . . .
28.7(28) . . .
33.3(31) . . .
25.7(26) . . .
27.5(29) . . .
32.5(29) . . .
35.0(31) . . .
25.6(26) . . .
25.3(27) . . .
26.5(28) . . .
33.8(33) . . .
23.8(25) . . .
39.3(33) . . .
34.0(30) . . .
34.2(31) . . .
25.1(28) . . .
25.7(28) . . .
31.7(29) . . .
24.6(26) . . .
24.0(26) . . .
32.0(32) . . .
30.9(30) . . .
28.2(27) . . .
32.3(32) . . .
30.7(30) . . .
31.1(29) . . .
24.4(25) . . .
29.1(28) . . .
27.0(27) . . .
28.7(29) . . .
24.3(27) . . .
30.7(30) . . .
30.2(29) . . .
28.5(28) . . .
39(4) . . .
36.5(34) . . .
35.2(32) . . .
35.7(31) . . .
28.7(28) . . .
33.4(31) . . .
30.9(29) . . .
37.0(33) . . .
34.4(31) . . .
32.0(31) . . .
34.3(32) . . .
22.3(24) . . .
27.1(28) . . .
37.8(32) . . .
30.3(28) . . .
30.2(29) . . .
31.9(32) . . .
27.1(27) . . .
20.8(24) . . .
31.4(30) . . .
32.2(31) . . .
35.3(33) . . .
25.6(26) . . .
27.8(28) . . .
31.9(30) . . .
32.2(33) . . .
34.8(32) . . .
31.1(29) . . .
21.0(25) . . .
32.5(31) . . .
28.0(30) . . .
35.2(33) . . .
28.7(27) . . .
35.7(32) . . .
34.7(32) . . .
29.4(31) . . .
34.7(33) . . .
31.4(30) . . .
35.9(31) . . .
32.5(32) . . .
29.2(31) . . .
25.0(26) . . .
33.7(30) . . .
31.3(29) . . .
38.1(33) . . .
32.6(30) . . .
33.9(30) . . .
28.3(28) . . .
36.6(32) . . .
33.2(30) . . .
27.4(28) . . .
35.2(32) . . .
35.4(31) . . .
29.8(28) . . .
34.9(32) . . .
31.4(28) . . .
25.8(26) . . .
22.2(24) . . .
28.0(28) . . .
29.6(28) . . .
33.6(31) . . .
29.1(28) . . .
32.1(30) . . .
34.0(31) . . .
23.7(27) . . .
29.8(32) . . .
37.2(33) . . .
26.1(27) . . .
25.7(27) . . .
32.4(31) . . .
30.0(29) . . .
36.0(31) . . .
29.9(29) . . .
36.7(34) . . .
33.1(33) . . .
36.3(32) . . .
35.6(31) . . .
34.7(30) . . .
36.4(32) . . .
27.5(29) . . .
30.9(30) . . .
29.7(28) . . .
22.3(26) . . .
17.9(22) . . .
32.8(31) . . .
34.4(32) . . .
35.3(31) . . .
24.7(27) . . .
23.6(27) . . .
28.9(29) . . .
32.4(32) . . .
31.7(29) . . .
28.7(28) . . .
29.0(29) . . .
33.1(33) . . .
32.6(31) . . .
26.7(27) . . .
33.0(33) . . .
25.9(27) . . .
30.0(31) . . .
30.7(29) . . .
30.1(29) . . .
26.4(28) . . .
34.4(33) . . .
36.5(34) . . .
30.1(29) . . .
31.2(29) . . .
29.3(29) . . .
31.3(31) . . .
36.0(33) . . .
25.8(27) . . .
31.5(29) . . .
26.1(27) . . .
24.0(26) . . .
39.4(34) . . .
35.9(31) . . .
28.8(28) . . .
27.5(28) . . .
36.3(33) . . .
29.9(29) . . .
26.7(27) . . .
26.6(27) . . .
32.0(31) . . .
28.4(30) . . .
32.8(31) . . .
32.0(30) . . .
34.2(30) . . .
33.3(31) . . .
28.9(29) . . .
35.5(32) . . .
33.6(30) . . .
30.9(29) . . .
29.3(29) . . .
29.9(30) . . .
25.8(28) . . .
29.3(28) . . .
33.5(30) . . .
31.3(29) . . .
23.8(25) . . .
29.4(31) . . .
28.3(28) . . .
32.2(29) . . .
32.3(30) . . .
27.2(28) . . .
31.4(29) . . .
28.6(29) . . .
22.9(25) . . .
31.3(31) . . .
31.0(30) . . .
29.7(30) . . .
33.5(30) . . .
35.4(32) . . .
38.2(34) . . .
35.3(31) . . .
32.7(32) . . .
25.6(26) . . .
33.8(32) . . .
28.0(28) . . .
28.8(30) . . .
37.9(33) . . .
37.4(31) . . .
33.3(32) . . .
35.5(33) . . .
35.4(32) . . .
34.8(30) . . .
36.3(31) . . .
34.7(31) . . .
26.6(29) . . .
27.7(28) . . .
31.6(30) . . .
29.1(29) . . .
36.1(32) . . .
26.4(27) . . .
31.6(29) . . .
34.9(31) . . .
30.9(28) . . .
29.9(30) . . .
32.6(32) . . .
38.3(34) . . .
25.1(27) . . .
28.2(28) . . .
31.5(30) . . .
31.3(30) . . .
31.6(32) . . .
30.7(30) . . .
32.3(29) . . .
23.6(24) . . .
35.8(34) . . .
26.5(27) . . .
37.4(32) . . .
30.1(29) . . .
35.7(34) . . .
29.8(31) . . .
27.3(28) . . .
31.8(30) . . .
33.7(30) . . .
36.9(34) . . .
32.7(30) . . .
38.1(34) . . .
38.2(33) . . .
25.7(28) . . .
20.1(23) . . .
26.8(29) . . .
34.7(33) . . .
36.3(31) . . .
28.1(29) . . .
33.5(31) . . .
33.8(31) . . .
26.7(28) . . .
26.5(27) . . .
29.3(32) . . .
29.0(31) . . .
25.5(27) . . .
27.7(27) . . .
32.8(30) . . .
32.1(29) . . .
34.5(32) . . .
30.7(30) . . .
25.6(26) . . .
32.8(30) . . .
26.4(26) . . .
32.7(34) . . .
25.3(27) . . .
30.2(29) . . .
30.9(29) . . .
25.2(27) . . .
40(4) . . .
33.0(31) . . .
36.1(31) . . .
34.6(31) . . .
30.2(29) . . .
20.9(24) . . .
24.0(28) . . .
24.8(26) . . .
19.7(23) . . .
24.8(27) . . .
24.7(26) . . .
35.1(32) . . .
28.8(27) . . .
32.4(30) . . .
25.2(26) . . .
29.1(31) . . .
20.1(25) . . .
30.8(29) . . .
34.0(31) . . .
29.5(29) . . .
31.7(30) . . .
39(4) . . .
26.4(26) . . .
31.7(30) . . .
28.5(27) . . .
34.4(31) . . .
40.7(34) . . .
36.8(32) . . .
29.4(29) . . .
31.4(32) . . .
31.7(32) . . .
29.3(29) . . .
37.7(32) . . .
35.0(31) . . .
33.9(32) . . .
23.7(25) . . .
27.5(27) . . .
23.7(26) . . .
29.0(30) . . .
28.1(29) . . .
31.9(30) . . .
24.9(27) . . .
24.9(26) . . .
28.7(31) . . .
29.4(32) . . .
28.2(31) . . .
30.5(29) . . .
30.8(29) . . .
34.3(32) . . .
30.6(30) . . .
33.5(32) . . .
25.6(26) . . .
31.0(29) . . .
33.8(32) . . .
27.8(29) . . .
27.5(28) . . .
26.1(27) . . .
27.8(27) . . .
31.7(29) . . .
34.1(32) . . .
33.0(30) . . .
35.7(31) . . .
32.9(30) . . .
32.8(30) . . .
30.9(32) . . .
23.2(27) . . .
30.1(29) . . .
25.5(26) . . .
35.8(31) . . .
33.9(30) . . .
34.5(33) . . .
30.3(29) . . .
41.6(35) . . .
37.3(33) . . .
24.1(25) . . .
32.0(30) . . .
29.3(28) . . .
34.7(31) . . .
41.8(34) . . .
34.8(32) . . .
27.4(27) . . .
32.3(29) . . .
27.6(28) . . .
27.6(26) . . .
37.3(32) . . .
45(4) . . .
33.8(30) . . .
28.5(31) . . .
28.0(30) . . .
28.9(30) . . .
30.4(30) . . .
32.3(30) . . .
36.3(32) . . .
33.9(33) . . .
35.8(32) . . .
27.3(28) . . .
35.9(31) . . .
30.1(29) . . .
28.9(30) . . .
33.7(31) . . .
35.8(31) . . .
32.5(30) . . .
25.7(26) . . .
34.4(34) . . .
37.8(33) . . .
32.8(30) . . .
29.1(28) . . .
29.4(29) . . .
28.9(30) . . .
36.6(34) . . .
32.4(30) . . .
21.2(23) . . .
26.0(27) . . .
27.9(29) . . .
26.9(27) . . .
29.9(29) . . .
27.5(28) . . .
29.2(30) . . .
33.5(31) . . .
33.0(32) . . .
31.6(29) . . .
30.1(30) . . .
32.0(30) . . .
29.8(28) . . .
34.7(31) . . .
29.3(28) . . .
28.5(29) . . .
27.4(28) . . .
26.7(28) . . .
29.9(31) . . .
31.4(29) . . .
32.8(31) . . .
30.9(31) . . .
35.0(34) . . .
33.1(31) . . .
31.1(29) . . .
26.1(27) . . .
27.9(28) . . .
29.1(32) . . .
30.8(30) . . .
34.8(31) . . .
35.3(34) . . .
34.2(32) . . .
33.9(33) . . .
29.0(29) . . .
24.2(26) . . .
32(4) . . .
27.4(30) . . .
22.6(26) . . .
38.2(34) . . .
25.2(27) . . .
30.2(30) . . .
28.0(28) . . .
27.9(28) . . .
28.4(27) . . .
34.0(31) . . .
26.2(28) . . .
34(4) . . .
42.2(34) . . .
38.9(32) . . .
30.8(30) . . .
30.8(30) . . .
26.1(27) . . .
26.8(27) . . .
40.0(32) . . .
33.0(31) . . .
31.6(30) . . .
29.6(30) . . .
30.7(32) . . .
25.6(27) . . .
32.0(30) . . .
28.1(29) . . .
27.6(28) . . .
24.1(27) . . .
30.5(28) . . .
30.9(31) . . .
34.0(33) . . .
31.4(31) . . .
35.9(33) . . .
22.0(25) . . .
25.2(28) . . .
26.2(29) . . .
26.5(29) . . .
25.0(26) . . .
24.0(25) . . .
34.6(31) . . .
28.7(29) . . .
31.8(30) . . .
26.1(27) . . .
34.5(30) . . .
27.7(28) . . .
34.3(33) . . .
29.9(30) . . .
28.5(28) . . .
28.8(27) . . .
26.2(26) . . .
32.6(31) . . .
35.3(33) . . .
35.7(32) . . .
36.2(31) . . .
30.6(30) . . .
33.3(30) . . .
35.7(31) . . .
40.4(34) . . .
27.6(27) . . .
25.8(27) . . .
32.5(32) . . .
33.2(29) . . .
29.5(29) . . .
22.5(24) . . .
26.2(28) . . .
28.4(30) . . .
33.0(32) . . .
30.9(29) . . .
33.9(30) . . .
35.4(32) . . .
37.8(34) . . .
34.2(33) . . .
34.1(31) . . .
28.3(27) . . .
30.9(29) . . .
35.6(33) . . .
29.5(29) . . .
24.7(26) . . .
35.2(31) . . .
32.5(31) . . .
37.1(33) . . .
37.3(32) . . .
32.7(30) . . .
27.1(27) . . .
42(4) . . .
32.6(32) . . .
27.8(28) . . .
26.1(27) . . .
32.1(30) . . .
37.3(33) . . .
41(4) . . .
32.5(30) . . .
29.9(29) . . .
27.8(28) . . .
35.1(33) . . .
34.3(33) . . .
26.2(26) . . .
33.5(30) . . .
23.9(25) . . .
29.7(29) . . .
29.7(28) . . .
36.3(33) . . .
31.2(29) . . .
28.7(29) . . .
28.9(30) . . .
36.6(34) . . .
26.3(26) . . .
32.3(30) . . .
35.4(32) . . .
24.6(28) . . .
24.0(28) . . .
29.1(28) . . .
31.8(30) . . .
40(4) . . .
33.8(32) . . .
33.7(31) . . .
28.4(27) . . .
28.7(28) . . .
34.1(31) . . .
33.9(33) . . .
29.6(29) . . .
24.0(26) . . .
34.1(30) . . .
34.6(31) . . .
31.2(31) . . .
30.6(31) . . .
31.4(29) . . .
26.5(27) . . .
32.7(32) . . .
26.8(28) . . .
21.9(26) . . .
29.0(28) . . .
35.9(33) . . .
30.6(30) . . .
31.0(31) . . .
28.8(28) . . .
26.0(27) . . .
23.7(26) . . .
33.6(31) . . .
32.4(30) . . .
36.9(33) . . .
29.6(28) . . .
36.9(33) . . .
27.7(28) . . .
32.7(30) . . .
31.5(29) . . .
30.0(29) . . .
30.7(31) . . .
26.6(29) . . .
27.6(29) . . .
26.8(27) . . .
28.7(29) . . .
30.7(30) . . .
32.7(32) . . .
32.8(31) . . .
29.9(28) . . .
37.0(31) . . .
27.3(27) . . .
29.4(31) . . .
29.3(29) . . .
28.4(28) . . .
31.0(30) . . .
25.5(29) . . .
24.1(29) . . .
38(4) . . .
30.4(29) . . .
31.1(29) . . .
28.5(28) . . .
24.0(28) . . .
34.4(31) . . .
29.6(28) . . .
29.3(29) . . .
34.7(32) . . .
26.3(28) . . .
36.3(34) . . .
30.3(28) . . .
27.3(28) . . .
30.7(30) . . .
35.7(34) . . .
32.7(31) . . .
28.4(28) . . .
39.2(33) . . .
36.5(32) . . .
33.1(31) . . .
34.6(31) . . .
35.0(31) . . .
29.8(31) . . .
30.3(31) . . .
30.0(29) . . .
35.4(32) . . .
29.5(29) . . .
32.0(30) . . .
31.9(30) . . .
33.9(32) . . .
23.4(26) . . .
30.1(28) . . .
26.1(28) . . .
26.2(28) . . .
28.5(28) . . .
38.6(33) . . .
27.0(27) . . .
30.6(30) . . .
30.1(30) . . .
25.1(27) . . .
23.6(26) . . .
30.7(29) . . .
28.8(28) . . .
34.9(32) . . .
30.7(29) . . .
29.6(28) . . .
31.3(29) . . .
25.6(27) . . .
29.2(30) . . .
34.9(32) . . .
39.7(33) . . .
31.5(32) . . .
26.9(29) . . .
24.9(27) . . .
31.7(33) . . .
32.3(30) . . .
28.3(28) . . .
33.9(31) . . .
25.4(26) . . .
34.3(33) . . .
27.1(28) . . .
35.2(32) . . .
31.1(29) . . .
31.8(31) . . .
29.6(30) . . .
37.3(32) . . .
28.7(29) . . .
35.6(33) . . .
29.2(28) . . .
29.7(29) . . .
31.4(29) . . .
26.3(28) . . .
26.4(27) . . .
33.0(31) . . .
34.0(32) . . .
40.3(33) . . .
27.3(29) . . .
28.0(30) . . .
32.3(31) . . .
28.3(28) . . .
19.2(23) . . .
28.3(29) . . .
29.7(30) . . .
29.9(29) . . .
29.1(28) . . .
33.0(30) . . .
31.6(30) . . .
28.4(30) . . .
26.6(27) . . .
31.7(30) . . .
28.2(28) . . .
32.1(29) . . .
33.0(32) . . .
29.1(30) . . .
38.9(33) . . .
26.3(28) . . .
23.8(26) . . .
29.6(29) . . .
33.3(30) . . .
36.2(32) . . .
28.9(28) . . .
25.0(27) . . .
31.5(32) . . .
37.7(34) . . .
29.4(29) . . .
29.8(28) . . .
37.9(35) . . .
34.6(33) . . .
29.1(29) . . .
41.3(34) . . .
36.1(32) . . .
29.5(29) . . .
32.8(31) . . .
33.6(31) . . .
31.0(29) . . .
25.6(26) . . .
27.9(28) . . .
26.4(29) . . .
26.7(29) . . .
25.4(27) . . .
23.6(26) . . .
23.1(25) . . .
31.6(33) . . .
32.5(33) . . .
20.6(24) . . .
30.9(32) . . .
25.7(27) . . .
32.8(31) . . .
27.3(27) . . .
29.8(30) . . .
26.8(28) . . .
34.8(32) . . .
31.6(30) . . .
27.7(29) . . .
26.1(27) . . .
34.1(32) . . .
25.8(28) . . .
27.0(28) . . .
39.7(33) . . .
27.7(27) . . .
28.4(28) . . .
30.6(31) . . .
26.8(26) . . .
30.6(29) . . .
34.6(31) . . .
33.3(30) . . .
29.4(28) . . .
35.1(32) . . .
28.6(28) . . .
36.1(31) . . .
29.3(29) . . .
23.3(26) . . .
35.3(32) . . .
28.1(27) . . .
32.9(30) . . .
25.0(27) . . .
28.7(29) . . .
36.7(32) . . .
34.6(31) . . .
34.0(31) . . .
37.2(34) . . .
31.2(30) . . .
31.1(29) . . .
24.3(26) . . .
32.5(30) . . .
29.9(30) . . .
28.0(27) . . .
39.2(33) . . .
32.8(29) . . .
27.5(29) . . .
29.0(29) . . .
32.9(33) . . .
29.2(29) . . .
36.6(31) . . .
37.5(34) . . .
30.4(30) . . .
28.0(28) . . .
29.1(29) . . .
28.0(28) . . .
25.1(27) . . .
32.6(31) . . .
39.1(34) . . .
33.0(30) . . .
23.7(26) . . .
33.2(31) . . .
28.5(30) . . .
29.0(29) . . .
21.7(24) . . .
32.7(30) . . .
28.5(28) . . .
24.1(27) . . .
27.4(26) . . .
34.2(31) . . .
30.0(29) . . .
25.0(27) . . .
24.6(28) . . .
32.5(32) . . .
24.9(26) . . .
24.9(26) . . .
29.2(28) . . .
33.3(32) . . .
26.3(27) . . .
21.7(24) . . .
24.0(26) . . .
34.8(33) . . .
26.3(27) . . .
32.7(30) . . .
31.2(29) . . .
30.3(29) . . .
29.6(28) . . .
31.6(32) . . .
32.0(33) . . .
29.6(28) . . .
35.5(32) . . .
29.5(29) . . .
27.4(29) . . .
28.9(30) . . .
35.0(31) . . .
31.8(30) . . .
43(4) . . .
40(4) . . .
32.5(31) . . .
23.2(26) . . .
32.3(31) . . .
33.7(31) . . .
31.4(31) . . .
30.9(30) . . .
26.7(27) . . .
32.6(30) . . .
27.7(28) . . .
31.5(30) . . .
29.6(28) . . .
36.5(32) . . .
36.5(32) . . .
29.5(29) . . .
30.5(30) . . .
37.7(32) . . .
29.8(29) . . .
31.8(30) . . .
40(4) . . .
34.1(30) . . .
34.5(31) . . .
39.0(33) . . .
39.3(32) . . .
34.5(31) . . .
33.2(31) . . .
29.9(28) . . .
36.8(32) . . .
24.2(27) . . .
32.6(32) . . .
28.9(30) . . .
32.3(29) . . .
37.4(33) . . .
23.5(26) . . .
31.6(32) . . .
32.1(31) . . .
23.6(26) . . .
30.9(29) . . .
23.1(24) . . .
31.0(31) . . .
32.8(31) . . .
32.5(29) . . .
34.8(31) . . .
37.5(33) . . .
26.5(28) . . .
26.1(28) . . .
21.6(25) . . .
27.4(28) . . .
29.8(30) . . .
26.4(28) . . .
29.6(32) . . .
24.2(25) . . .
32.4(32) . . .
27.5(29) . . .
24.8(26) . . .
28.0(28) . . .
29.9(28) . . .
22.4(26) . . .
29.3(30) . . .
31.0(29) . . .
37.1(33) . . .
34.5(30) . . .
27.8(29) . . .
25.8(27) . . .
27.6(28) . . .
33.7(31) . . .
27.3(27) . . .
36.4(33) . . .
28.7(29) . . .
29.2(29) . . .
34.6(32) . . .
28.0(27) . . .
33.0(31) . . .
31.8(31) . . .
36.4(32) . . .
29.6(28) . . .
34.6(31) . . .
27.8(29) . . .
27.5(31) . . .
29.4(30) . . .
26.4(27) . . .
22.7(25) . . .
25.1(26) . . .
24.9(27) . . .
26.1(29) . . .
26.9(27) . . .
29.4(28) . . .
27.5(28) . . .
28.7(32) . . .
21.1(25) . . .
31.5(29) . . .
31.1(30) . . .
32.5(31) . . .
35.1(33) . . .
33.6(32) . . .
32.8(31) . . .
29.3(28) . . .
26.4(28) . . .
26.8(28) . . .
31.6(30) . . .
28.2(28) . . .
28.0(29) . . .
33(4) . . .
33.5(33) . . .
27.7(27) . . .
26.1(27) . . .
36.2(33) . . .
20.9(24) . . .
34.4(33) . . .
31.2(30) . . .
30.4(29) . . .
35.1(32) . . .
36.1(33) . . .
32.9(30) . . .
33.7(31) . . .
35.2(31) . . .
32.0(30) . . .
25.9(28) . . .
28.2(30) . . .
24.2(26) . . .
35.7(32) . . .
24.8(26) . . .
36.5(34) . . .
27.3(27) . . .
31.3(29) . . .
27.0(28) . . .
24.3(26) . . .
23.1(27) . . .
31.3(30) . . .
42.5(35) . . .
32.1(30) . . .
26.2(28) . . .
29.1(31) . . .
32.8(32) . . .
27.8(28) . . .
33.9(32) . . .
28.1(29) . . .
30.8(31) . . .
24.2(28) . . .
31.0(29) . . .
23.3(25) . . .
35.2(35) . . .
27.5(30) . . .
31.0(31) . . .
36.8(32) . . .
33.4(30) . . .
31.6(31) . . .
21.6(26) . . .
23.5(26) . . .
35.3(31) . . .
34.2(32) . . .
34.4(32) . . .
22.9(25) . . .
30.3(32) . . .
31.5(29) . . .
38(4) . . .
25.6(28) . . .
31.9(30) . . .
35.3(31) . . .
34.0(30) . . .
29.3(28) . . .
29.1(30) . . .
30.1(29) . . .
31.9(30) . . .
24.6(26) . . .
29.0(32) . . .
24.3(28) . . .
28.0(29) . . .
32.3(29) . . .
26.6(29) . . .
25.1(29) . . .
26.1(28) . . .
27.8(30) . . .
26.5(27) . . .
30.9(29) . . .
42(4) . . .
34.9(33) . . .
27.4(29) . . .
29.5(28) . . .
31.0(29) . . .
25.9(27) . . .
22.2(25) . . .
28.5(27) . . .
31.9(29) . . .
35.5(31) . . .
35.8(32) . . .
27.9(29) . . .
31.3(31) . . .
37.7(32) . . .
33.0(30) . . .
30.5(28) . . .
32.3(31) . . .
39.3(33) . . .
24.2(26) . . .
28.3(28) . . .
29.4(29) . . .
33.2(33) . . .
30.3(29) . . .
32.4(30) . . .
24.3(26) . . .
31.0(30) . . .
32.4(31) . . .
32.9(30) . . .
26.4(26) . . .
31.4(31) . . .
26.1(28) . . .
31.2(30) . . .
32.7(31) . . .
28.6(29) . . .
38.6(34) . . .
37.7(35) . . .
30.6(30) . . .
28.0(27) . . .
38.1(33) . . .
33.3(32) . . .
31.3(31) . . .
28.9(29) . . .
28.4(28) . . .
24.0(27) . . .
24.2(25) . . .
31.9(31) . . .
15.2(21) . . .
30.6(29) . . .
26.8(27) . . .
31.0(30) . . .
32.4(32) . . .
27.2(27) . . .
22.5(25) . . .
29.9(28) . . .
30.3(30) . . .
31.8(33) . . .
26.7(28) . . .
33.1(30) . . .
33.6(32) . . .
28.7(29) . . .
19.7(23) . . .
32.9(32) . . .
36.7(32) . . .
33.8(31) . . .
34.1(33) . . .
34.1(32) . . .
26.7(30) . . .
18.0(23) . . .
23.9(26) . . .
32.9(32) . . .
28.6(31) . . .
29.3(31) . . .
28.3(28) . . .
27.4(28) . . .
27.2(27) . . .
29.2(30) . . .
23.0(25) . . .
27.0(27) . . .
29.7(29) . . .
31.6(31) . . .
27.1(28) . . .
30.2(29) . . .
41.1(34) . . .
31.0(29) . . .
26.1(27) . . .
29.6(29) . . .
26.4(28) . . .
31.8(30) . . .
27.1(28) . . .
27.9(30) . . .
28.4(30) . . .
37.0(33) . . .
33.8(30) . . .
30.3(29) . . .
30.9(32) . . .
29.6(29) . . .
33.7(30) . . .
29.8(29) . . .
33.9(30) . . .
35.0(32) . . .
30.5(29) . . .
35.6(31) . . .
30.5(30) . . .
27.4(30) . . .
38(4) . . .
29.0(29) . . .
27.5(28) . . .
29.4(29) . . .
33.4(30) . . .
34.4(34) . . .
25.8(27) . . .
28.0(28) . . .
27.0(27) . . .
30.5(31) . . .
25.8(28) . . .
25.6(30) . . .
21.5(24) . . .
34.9(31) . . .
28.1(28) . . .
32.1(31) . . .
29.4(29) . . .
31.1(29) . . .
33.7(30) . . .
32.2(31) . . .
32.3(32) . . .
32.6(31) . . .
31.2(28) . . .
26.8(28) . . .
25.2(30) . . .
32.2(32) . . .
28.4(29) . . .
29.0(28) . . .
37.5(34) . . .
23.4(27) . . .
26.1(29) . . .
31.8(31) . . .
28.5(28) . . .
31.4(31) . . .
29.1(30) . . .
26.0(28) . . .
28.7(29) . . .
30.1(28) . . .
31.9(30) . . .
26.3(28) . . .
35.8(32) . . .
32.0(29) . . .
21.9(24) . . .
28.9(28) . . .
27.6(28) . . .
31.4(30) . . .
26.8(27) . . .
31.4(30) . . .
33.1(32) . . .
29.3(29) . . .
32.8(31) . . .
19.4(24) . . .
31.5(29) . . .
35.0(34) . . .
27.5(30) . . .
29.5(29) . . .
34.2(31) . . .
28.9(29) . . .
26.9(27) . . .
30.1(31) . . .
34.4(31) . . .
39.8(33) . . .
28.1(27) . . .
31.7(31) . . .
27.8(29) . . .
39.3(35) . . .
34.3(30) . . .
30.4(30) . . .
31.5(31) . . .
25.7(28) . . .
28.2(29) . . .
33.4(30) . . .
29.8(29) . . .
31.6(30) . . .
34.9(34) . . .
29.2(28) . . .
29.6(28) . . .
32.6(31) . . .
29.3(30) . . .
33.7(31) . . .
37.5(33) . . .
27.2(27) . . .
31.5(29) . . .
29.3(29) . . .
29.5(30) . . .
26.6(28) . . .
24.3(26) . . .
30.6(29) . . .
29.8(29) . . .
33.4(30) . . .
35.9(31) . . .
40.4(34) . . .
26.5(26) . . .
28.5(29) . . .
29.5(30) . . .
31.1(29) . . .
32.5(30) . . .
35.3(32) . . .
33.2(33) . . .
30.8(31) . . .
29.4(28) . . .
21.3(24) . . .
29.1(28) . . .
31.7(30) . . .
31.3(29) . . .
28.6(28) . . .
30.8(29) . . .
28.0(30) . . .
30.5(32) . . .
26.9(32) . . .
31.5(29) . . .
23.2(26) . . .
27.9(28) . . .
28.2(29) . . .
24.8(29) . . .
36.1(32) . . .
32.2(30) . . .
28.3(29) . . .
36.6(33) . . .
27.2(27) . . .
24.0(26) . . .
33.3(31) . . .
29.0(28) . . .
31.5(31) . . .
33.7(31) . . .
39.0(32) . . .
27.9(29) . . .
26.7(28) . . .
27.1(28) . . .
24.3(26) . . .
29.6(28) . . .
30.1(29) . . .
36.9(34) . . .
35.3(31) . . .
29.5(29) . . .
25.2(26) . . .
28.8(29) . . .
26.3(27) . . .
34.7(32) . . .
28.6(28) . . .
35.8(32) . . .
27.9(28) . . .
29.1(30) . . .
30.5(30) . . .
30.4(29) . . .
28.6(28) . . .
39.2(33) . . .
31.1(31) . . .
26.8(30) . . .
30.6(29) . . .
29.0(29) . . .
28.9(30) . . .
28.4(33) . . .
28.3(30) . . .
26.3(26) . . .
26.8(27) . . .
35.3(32) . . .
27.5(29) . . .
24.6(30) . . .
22.9(25) . . .
33.8(31) . . .
25.4(26) . . .
33.8(31) . . .
29.7(28) . . .
31.6(29) . . .
32.0(29) . . .
36.1(34) . . .
28.4(29) . . .
31.2(30) . . .
32.1(31) . . .
36.6(32) . . .
29.7(29) . . .
30.1(32) . . .
26.0(27) . . .
37.2(32) . . .
36.6(32) . . .
26.4(29) . . .
23.4(27) . . .
25.2(26) . . .
33.3(31) . . .
32.9(31) . . .
23.6(26) . . .
29.1(30) . . .
24.8(26) . . .
26.5(28) . . .
34.5(32) . . .
27.5(29) . . .
27.2(29) . . .
27.8(27) . . .
34.3(31) . . .
22.7(25) . . .
37(4) . . .
29.9(32) . . .
26.5(29) . . .
29.8(28) . . .
28.6(28) . . .
27.5(30) . . .
24.2(26) . . .
26.3(28) . . .
35.4(31) . . .
28.3(28) . . .
34.2(32) . . .
32.5(30) . . .
25.8(26) . . .
23.3(25) . . .
32.5(31) . . .
32.6(31) . . .
29.0(29) . . .
32.2(29) . . .
24.8(26) . . .
24.6(29) . . .
23.4(28) . . .
31.7(32) . . .
25.0(26) . . .
25.8(27) . . .
27.4(28) . . .
24.2(27) . . .
28.4(28) . . .
30.0(28) . . .
30.0(29) . . .
29.0(29) . . .
30.6(29) . . .
33.5(32) . . .
27.5(28) . . .
34.2(30) . . .
33.2(30) . . .
28.0(28) . . .
30.6(30) . . .
34.4(30) . . .
22.0(24) . . .
27.9(28) . . .
35.0(32) . . .
27.7(29) . . .
31.6(29) . . .
29.0(30) . . .
31.3(31) . . .
30.1(30) . . .
39.0(33) . . .
31.6(30) . . .
25.7(26) . . .
25.3(27) . . .
26.7(28) . . .
29.0(28) . . .
29.5(28) . . .
21.0(24) . . .
25.1(27) . . .
37.2(32) . . .
38.0(33) . . .
35.6(31) . . .
38.4(34) . . .
35.1(32) . . .
31.8(30) . . .
28.9(28) . . .
34.6(31) . . .
37.7(33) . . .
28.1(29) . . .
23.1(25) . . .
27.1(27) . . .
28.1(28) . . .
26.5(27) . . .
26.4(27) . . .
34.6(32) . . .
32.9(30) . . .
42.6(34) . . .
27.7(27) . . .
25.9(29) . . .
20.0(24) . . .
31.9(29) . . .
21.4(24) . . .
33.5(34) . . .
29.4(31) . . .
27.0(28) . . .
21.5(25) . . .
23.3(26) . . .
31.0(33) . . .
20.7(23) . . .
33.6(34) . . .
33.7(31) . . .
33.5(30) . . .
30.6(29) . . .
35.8(33) . . .
34.5(31) . . .
24.6(26) . . .
32.1(30) . . .
34.3(31) . . .
32.8(32) . . .
31.4(31) . . .
33.6(31) . . .
32.4(29) . . .
34.4(33) . . .
30.7(30) . . .
28.6(28) . . .
35.9(31) . . .
26.3(27) . . .
36.4(34) . . .
29.2(28) . . .
29.0(29) . . .
24.0(25) . . .
27.4(28) . . .
26.8(30) . . .
35.8(33) . . .
31.0(29) . . .
29.2(30) . . .
31.5(30) . . .
21.9(26) . . .
28.0(29) . . .
33.2(30) . . .
23.3(25) . . .
35.3(32) . . .
28.3(29) . . .
27.8(28) . . .
30.3(30) . . .
30.8(29) . . .
31.0(28) . . .
31.5(31) . . .
26.3(27) . . .
27.8(28) . . .
30.9(29) . . .
30.7(30) . . .
25.7(26) . . .
28.6(28) . . .
30.3(28) . . .
27.6(28) . . .
34.4(32) . . .
29.0(29) . . .
26.3(27) . . .
31.7(30) . . .
31.3(30) . . .
30.3(30) . . .
28.0(29) . . .
26.4(27) . . .
34.0(31) . . .
35.5(31) . . .
23.2(26) . . .
27.4(28) . . .
24.4(26) . . .
25.9(27) . . .
30.4(29) . . .
25.2(26) . . .
33.0(31) . . .
28.3(28) . . .
27.7(28) . . .
23.9(27) . . .
30.7(31) . . .
31.0(31) . . .
20.6(24) . . .
27.0(27) . . .
36.5(33) . . .
24.7(26) . . .
26.2(28) . . .
33.4(31) . . .
34.7(31) . . .
26.6(27) . . .
26.0(27) . . .
31.2(30) . . .
34.0(31) . . .
30.2(29) . . .
28.4(31) . . .
24.0(28) . . .
26.2(28) . . .
31.0(30) . . .
31.3(31) . . .
31.9(31) . . .
30.2(29) . . .
30.4(29) . . .
31.1(29) . . .
33.8(30) . . .
33.4(31) . . .
33.2(32) . . .
24.4(27) . . .
28.0(27) . . .
28.7(29) . . .
27.5(29) . . .
30.0(31) . . .
35.5(32) . . .
29.4(28) . . .
27.5(29) . . .
40(4) . . .
35.7(34) . . .
25.6(27) . . .
28.5(28) . . .
23.0(25) . . .
32.7(32) . . .
29.2(30) . . .
23.8(25) . . .
32.3(30) . . .
26.6(27) . . .
30.2(30) . . .
29.3(30) . . .
37.0(32) . . .
19.4(23) . . .
25.0(29) . . .
31.2(31) . . .
29.4(29) . . .
24.5(27) . . .
30.5(29) . . .
25.5(26) . . .
38.3(35) . . .
32.3(29) . . .
32.5(29) . . .
29.8(28) . . .
28.3(28) . . .
32.3(31) . . .
29.3(28) . . .
33.9(31) . . .
20.8(23) . . .
27.5(29) . . .
28.5(30) . . .
25.6(26) . . .
33.0(30) . . .
31.7(29) . . .
28.4(30) . . .
34.7(35) . . .
30.5(29) . . .
32.7(30) . . .
29.2(29) . . .
30.1(30) . . .
31.5(32) . . .
30.4(29) . . .
26.1(27) . . .
30.4(30) . . .
28.2(28) . . .
32.7(32) . . .
27.9(27) . . .
25.3(27) . . .
27.6(27) . . .
33.5(33) . . .
27.6(27) . . .
29.1(28) . . .
28.4(28) . . .
26.4(27) . . .
23.1(24) . . .
27.2(27) . . .
23.1(25) . . .
28.1(28) . . .
27.3(28) . . .
36.7(34) . . .
22.3(25) . . .
32.6(30) . . .
28.9(29) . . .
34.0(32) . . .
34.1(31) . . .
32.4(31) . . .
24.8(25) . . .
26.3(28) . . .
32.6(33) . . .
26.8(26) . . .
32.7(31) . . .
31.6(30) . . .
34.5(32) . . .
31.6(31) . . .
22.3(25) . . .
29.4(31) . . .
27.6(27) . . .
31.5(29) . . .
28.8(29) . . .
29.6(31) . . .
27.9(31) . . .
30.8(29) . . .
26.7(27) . . .
27.2(27) . . .
28.1(28) . . .
25.2(30) . . .
22.3(24) . . .
30.2(29) . . .
40(4) . . .
35.7(33) . . .
31.4(29) . . .
30.2(29) . . .
30.2(28) . . .
33.8(34) . . .
22.8(27) . . .
26.8(30) . . .
26.6(27) . . .
35.0(31) . . .
26.3(26) . . .
22.3(25) . . .
24.8(28) . . .
21.7(24) . . .
23.1(26) . . .
27.2(26) . . .
26.8(27) . . .
29.4(29) . . .
34.1(30) . . .
38.1(35) . . .
28.3(28) . . .
34.1(31) . . .
31.8(29) . . .
31.4(29) . . .
26.5(28) . . .
24.7(28) . . .
25.7(29) . . .
25.6(27) . . .
34.6(31) . . .
27.4(28) . . .
28.4(30) . . .
26.1(27) . . .
32.2(30) . . .
25.2(26) . . .
28.7(29) . . .
23.5(27) . . .
29.5(29) . . .
30.4(30) . . .
25.9(26) . . .
26.2(31) . . .
31.8(33) . . .
28.1(28) . . .
34.6(31) . . .
29.3(28) . . .
36.8(34) . . .
24.9(26) . . .
24.6(26) . . .
25.9(27) . . .
30.9(30) . . .
43(4) . . .
35.8(31) . . .
31.7(29) . . .
30.3(30) . . .
25.1(26) . . .
30.2(30) . . .
24.9(26) . . .
24.2(27) . . .
26.8(27) . . .
35.8(31) . . .
35.3(32) . . .
26.4(27) . . .
28.1(28) . . .
26.9(27) . . .
26.3(26) . . .
32.1(32) . . .
32.5(32) . . .
27.7(27) . . .
31.5(29) . . .
36.6(33) . . .
28.7(29) . . .
26.6(27) . . .
30.0(30) . . .
29.9(29) . . .
29.4(29) . . .
35.6(33) . . .
34.6(31) . . .
33.6(31) . . .
26.5(27) . . .
35.0(35) . . .
37.5(34) . . .
31.6(29) . . .
25.9(27) . . .
25.7(26) . . .
28.5(30) . . .
28.8(28) . . .
32.8(31) . . .
21.9(24) . . .
25.6(27) . . .
26.2(26) . . .
29.0(31) . . .
28.8(30) . . .
35.4(31) . . .
26.4(26) . . .
23.7(28) . . .
23.5(26) . . .
35.5(33) . . .
26.4(27) . . .
31.7(30) . . .
17.2(22) . . .
27.0(30) . . .
27.1(28) . . .
31.6(29) . . .
29.5(28) . . .
31.3(31) . . .
31.3(31) . . .
26.1(26) . . .
34.7(31) . . .
23.7(26) . . .
35.6(32) . . .
25.1(25) . . .
26.5(28) . . .
31.5(30) . . .
39.0(33) . . .
21.4(25) . . .
26.7(31) . . .
30.8(31) . . .
39.3(33) . . .
37.7(33) . . .
39.2(34) . . .
32.9(30) . . .
30.5(32) . . .
23.1(25) . . .
23.1(26) . . .
31.0(30) . . .
32.5(32) . . .
30.0(29) . . .
28.2(28) . . .
25.8(29) . . .
27.4(31) . . .
33.8(31) . . .
33.6(30) . . .
37.1(32) . . .
36.2(33) . . .
30.4(31) . . .
31.8(30) . . .
31.4(30) . . .
32.2(30) . . .
30.1(30) . . .
29.2(30) . . .
33.7(32) . . .
33.0(30) . . .
31.5(29) . . .
23.6(26) . . .
28.6(30) . . .
33.2(32) . . .
31.6(29) . . .
25.3(26) . . .
30.5(30) . . .
34.4(33) . . .
33.9(31) . . .
35.2(31) . . .
20.7(24) . . .
33.2(33) . . .
29.7(29) . . .
33.8(34) . . .
28.4(27) . . .
39.2(33) . . .
37.7(33) . . .
34.9(35) . . .
25.0(27) . . .
33.2(30) . . .
29.4(28) . . .
27.8(28) . . .
28.0(28) . . .
32.3(31) . . .
26.0(27) . . .
32.9(30) . . .
27.4(27) . . .
35.3(35) . . .
27.9(28) . . .
31.3(29) . . .
31.7(29) . . .
26.3(28) . . .
30.7(31) . . .
31.9(31) . . .
23.0(25) . . .
26.0(27) . . .
32.5(33) . . .
37.4(35) . . .
26.1(26) . . .
28.7(28) . . .
30.9(30) . . .
33.4(33) . . .
35.9(32) . . .
32.7(31) . . .
34.3(32) . . .
25.8(28) . . .
35.6(35) . . .
34.3(32) . . .
25.7(26) . . .
24.9(26) . . .
25.5(27) . . .
21.7(26) . . .
25.4(28) . . .
33.9(31) . . .
28.0(27) . . .
30.7(29) . . .
34.7(34) . . .
32.6(31) . . .
25.3(26) . . .
26.9(27) . . .
29.2(28) . . .
23.5(26) . . .
33.0(31) . . .
26.1(26) . . .
31.5(29) . . .
24.5(27) . . .
28.1(30) . . .
29.9(29) . . .
26.2(27) . . .
30.1(29) . . .
30.6(32) . . .
31(4) . . .
27.6(28) . . .
30.4(29) . . .
33.2(33) . . .
24.3(26) . . .
26.0(27) . . .
24.9(27) . . .
23.4(26) . . .
30.8(31) . . .
32.9(31) . . .
34.6(31) . . .
34.9(31) . . .
27.0(27) . . .
29.3(29) . . .
27.4(28) . . .
27.8(28) . . .
29.8(30) . . .
31.9(29) . . .
31.6(32) . . .
28.4(30) . . .
31.7(31) . . .
30.8(29) . . .
32.8(30) . . .
20.5(23) . . .
33.8(34) . . .
29.4(28) . . .
26.5(27) . . .
24.3(25) . . .
19.4(23) . . .
28.7(32) . . .
30.7(31) . . .
30.3(28) . . .
27.1(27) . . .
27.7(29) . . .
30.1(30) . . .
34.5(31) . . .
25.3(26) . . .
26.3(26) . . .
28.7(28) . . .
32.4(31) . . .
31.2(29) . . .
32.7(30) . . .
23.6(26) . . .
27.4(30) . . .
30.0(30) . . .
33.9(34) . . .
25.6(27) . . .
27.1(27) . . .
28.6(29) . . .
29.4(29) . . .
25.5(26) . . .
24.8(26) . . .
25.6(27) . . .
30.9(30) . . .
34.3(32) . . .
29.2(29) . . .
31.6(30) . . .
27.8(29) . . .
30.5(31) . . .
30.8(30) . . .
29.0(29) . . .
34.6(31) . . .
30.2(31) . . .
27.8(30) . . .
31.8(32) . . .
39.4(34) . . .
27.5(27) . . .
30.2(30) . . .
35.7(33) . . .
24.9(26) . . .
38.3(34) . . .
26.8(27) . . .
29.4(29) . . .
28.6(31) . . .
25.0(29) . . .
16.5(23) . . .
27.5(27) . . .
30.9(31) . . .
35.4(33) . . .
38.7(33) . . .
48(4) . . .
34.7(32) . . .
28.4(29) . . .
29.6(29) . . .
25.9(27) . . .
23.4(25) . . .
24.3(26) . . .
31.3(29) . . .
33.4(33) . . .
34.0(32) . . .
23.8(25) . . .
34.4(32) . . .
28.6(28) . . .
36.5(34) . . .
27.0(29) . . .
32.8(30) . . .
33.7(30) . . .
27.5(28) . . .
25.1(27) . . .
35.2(32) . . .
31.1(29) . . .
31.7(30) . . .
26.6(28) . . .
30.8(30) . . .
31.3(31) . . .
28.1(28) . . .
21.9(25) . . .
28.0(31) . . .
29.4(30) . . .
21.8(25) . . .
23.5(25) . . .
32.3(31) . . .
31.3(31) . . .
26.7(29) . . .
23.6(25) . . .
32.6(30) . . .
33.1(31) . . .
33.4(33) . . .
36.0(32) . . .
27.8(27) . . .
29.0(29) . . .
26.0(28) . . .
22.0(29) . . .
32.3(32) . . .
30.2(29) . . .
31.5(29) . . .
32.2(30) . . .
26.7(27) . . .
29.7(31) . . .
29.6(30) . . .
36.7(33) . . .
25.6(27) . . .
23.9(27) . . .
30.6(31) . . .
25.4(26) . . .
27.1(27) . . .
25.8(26) . . .
25.9(30) . . .
31.9(31) . . .
30.3(29) . . .
25.9(27) . . .
22.5(26) . . .
31.6(32) . . .
34.9(32) . . .
27.0(27) . . .
24.7(26) . . .
28.1(28) . . .
39(4) . . .
26.4(28) . . .
31.9(29) . . .
27.2(28) . . .
22.6(24) . . .
27.0(27) . . .
25.9(28) . . .
27.4(27) . . .
26.2(27) . . .
29.4(28) . . .
32.4(32) . . .
27.5(27) . . .
29.0(29) . . .
26.4(30) . . .
26.3(29) . . .
26.3(29) . . .
25.3(26) . . .
36.7(32) . . .
33.1(30) . . .
33.8(31) . . .
34.6(33) . . .
29.6(29) . . .
31.6(30) . . .
29.3(29) . . .
30.1(32) . . .
28.6(30) . . .
30.2(29) . . .
31.9(30) . . .
29.6(30) . . .
28.2(29) . . .
24.2(26) . . .
28.1(27) . . .
34.6(30) . . .
28.6(28) . . .
27.5(28) . . .
22.9(26) . . .
28.9(27) . . .
27.1(27) . . .
27.5(26) . . .
48(4) . . .
23.3(25) . . .
25.0(26) . . .
32.4(29) . . .
29.0(29) . . .
29.6(29) . . .
38.4(33) . . .
37.0(32) . . .
29.0(30) . . .
22.1(25) . . .
31.7(30) . . .
32.0(30) . . .
28.4(28) . . .
32.6(29) . . .
38.6(34) . . .
29.6(30) . . .
24.6(26) . . .
20.9(25) . . .
32.2(29) . . .
32.9(31) . . .
32.5(31) . . .
28.5(28) . . .
34.7(31) . . .
33.4(31) . . .
28.3(30) . . .
41(4) . . .
30.9(30) . . .
29.4(29) . . .
19.6(23) . . .
27.9(29) . . .
27.0(30) . . .
32.2(30) . . .
27.9(28) . . .
22.5(25) . . .
35.5(31) . . .
32.6(29) . . .
33.0(31) . . .
31.6(29) . . .
28.5(28) . . .
26.8(28) . . .
31.3(29) . . .
29.8(28) . . .
30.0(28) . . .
35.6(32) . . .
32.6(33) . . .
19.3(22) . . .
22.9(25) . . .
30.3(29) . . .
25.7(27) . . .
36(4) . . .
28.1(29) . . .
30.9(29) . . .
19.0(23) . . .
24.5(27) . . .
22.4(28) . . .
21.5(26) . . .
28.1(28) . . .
31.0(31) . . .
32.6(31) . . .
34.3(32) . . .
30.3(29) . . .
28.7(28) . . .
24.6(27) . . .
27.0(28) . . .
26.5(28) . . .
27.4(27) . . .
33.3(29) . . .
24.1(26) . . .
28.1(29) . . .
28.6(29) . . .
35.0(32) . . .
31.9(29) . . .
27.3(27) . . .
29.5(29) . . .
24.2(26) . . .
33.8(31) . . .
27.2(27) . . .
30.0(29) . . .
38.9(35) . . .
26.1(25) . . .
33.2(30) . . .
32.8(30) . . .
30.5(29) . . .
30.5(29) . . .
29.4(28) . . .
34.7(31) . . .
24.0(26) . . .
30.5(29) . . .
37.1(34) . . .
27.8(29) . . .
25.7(26) . . .
30.2(29) . . .
29.6(29) . . .
29.6(32) . . .
30.0(28) . . .
31.4(29) . . .
31.1(29) . . .
29.9(29) . . .
32.0(32) . . .
30.9(30) . . .
39.6(33) . . .
27.3(28) . . .
31.1(31) . . .
33.2(33) . . .
23.5(26) . . .
30.5(29) . . .
22.6(25) . . .
24.9(27) . . .
24.8(28) . . .
24.7(26) . . .
34.7(31) . . .
31.0(29) . . .
23.8(25) . . .
35.5(33) . . .
27.5(28) . . .
27.7(28) . . .
24.7(26) . . .
24.7(28) . . .
33.3(31) . . .
28.8(28) . . .
25.2(27) . . .
27.2(28) . . .
29.8(29) . . .
35.5(31) . . .
33.8(30) . . .
29.8(29) . . .
33.5(33) . . .
32.0(34) . . .
21.7(25) . . .
25.9(26) . . .
26.6(26) . . .
30.5(31) . . .
26.1(26) . . .
26.1(28) . . .
21.5(26) . . .
25.3(26) . . .
29.7(29) . . .
33.1(33) . . .
28.2(27) . . .
33.0(30) . . .
26.6(27) . . .
41(4) . . .
33.5(32) . . .
26.6(26) . . .
26.6(27) . . .
22.6(25) . . .
32.1(30) . . .
34.2(33) . . .
30.6(31) . . .
33.1(31) . . .
32.0(30) . . .
23.2(27) . . .
27.3(31) . . .
25.6(28) . . .
29.4(28) . . .
26.6(27) . . .
37(4) . . .
34.5(33) . . .
28.9(28) . . .
23.8(26) . . .
29.0(28) . . .
33.6(31) . . .
32.5(31) . . .
30.9(30) . . .
30.8(30) . . .
24.4(27) . . .
28.1(30) . . .
23.4(27) . . .
29.3(29) . . .
34.1(31) . . .
22.8(25) . . .
35.5(35) . . .
36.0(32) . . .
33.8(30) . . .
24.8(26) . . .
21.2(25) . . .
20.8(24) . . .
24.1(27) . . .
22.6(25) . . .
24.6(26) . . .
26.8(29) . . .
28.0(29) . . .
41(4) . . .
34.0(30) . . .
26.0(27) . . .
33.0(31) . . .
28.2(31) . . .
29.8(31) . . .
31.7(29) . . .
37.9(32) . . .
29.1(30) . . .
25.5(28) . . .
30.6(30) . . .
32.8(29) . . .
24.9(26) . . .
30.5(30) . . .
31.1(31) . . .
27.5(27) . . .
33.7(30) . . .
31.3(29) . . .
30.0(30) . . .
26.9(30) . . .
29.5(32) . . .
30.4(29) . . .
28.7(28) . . .
26.1(28) . . .
29.6(28) . . .
34.6(32) . . .
24.2(26) . . .
27.2(28) . . .
36.3(33) . . .
31.4(31) . . .
33.2(31) . . .
25.3(26) . . .
24.5(26) . . .
26.4(28) . . .
26.8(29) . . .
26.1(28) . . .
30.2(29) . . .
27.7(27) . . .
27.1(28) . . .
38(4) . . .
33.4(30) . . .
30.4(29) . . .
35.5(32) . . .
23.3(25) . . .
27.6(27) . . .
30.8(29) . . .
31.4(29) . . .
28.5(28) . . .
29.1(31) . . .
25.1(30) . . .
16.9(21) . . .
26.5(27) . . .
25.3(27) . . .
27.2(29) . . .
27.6(28) . . .
27.4(27) . . .
29.5(28) . . .
31.7(30) . . .
25.9(27) . . .
28.9(28) . . .
28.1(27) . . .
25.4(26) . . .
28.7(29) . . .
25.4(28) . . .
21.4(24) . . .
27.4(28) . . .
25.9(27) . . .
35.3(33) . . .
33.5(32) . . .
27.4(27) . . .
34.0(30) . . .
31.0(29) . . .
37.4(33) . . .
26.9(27) . . .
19.9(24) . . .
27.9(27) . . .
28.9(28) . . .
32.4(33) . . .
29.8(31) . . .
29.8(30) . . .
28.1(27) . . .
26.3(27) . . .
27.7(29) . . .
29.6(30) . . .
22.1(25) . . .
23.4(26) . . .
25.8(27) . . .
25.6(27) . . .
31.5(33) . . .
21.5(25) . . .
33.5(30) . . .
31.6(30) . . .
29.5(34) . . .
26.1(30) . . .
23.9(26) . . .
27.4(27) . . .
31.5(30) . . .
26.4(28) . . .
29.5(32) . . .
24.9(27) . . .
18.2(22) . . .
30.1(30) . . .
26.8(29) . . .
25.0(28) . . .
28.4(29) . . .
26.5(27) . . .
27.1(29) . . .
32.8(33) . . .
28.0(28) . . .
25.9(27) . . .
31.5(29) . . .
22.4(26) . . .
22.5(26) . . .
22.5(25) . . .
29.6(28) . . .
31.8(29) . . .
36.2(32) . . .
35.0(32) . . .
38.0(33) . . .
25.6(27) . . .
29.7(29) . . .
32.0(31) . . .
28.5(29) . . .
26.2(26) . . .
31.2(29) . . .
39.0(32) . . .
30.6(29) . . .
23.5(27) . . .
30.5(31) . . .
27.1(27) . . .
29.4(28) . . .
26.6(27) . . .
28.3(28) . . .
37.7(34) . . .
35.3(31) . . .
26.2(28) . . .
23.8(27) . . .
25.3(28) . . .
33.9(32) . . .
27.5(28) . . .
34.8(32) . . .
26.8(29) . . .
31.1(32) . . .
32.5(31) . . .
34.5(31) . . .
36.6(33) . . .
39(4) . . .
27.8(27) . . .
29.3(28) . . .
23.7(26) . . .
27.0(27) . . .
34.2(33) . . .
20.6(24) . . .
29.3(29) . . .
27.9(28) . . .
37.3(34) . . .
25.5(29) . . .
40(4) . . .
36.7(32) . . .
30.4(29) . . .
21.6(26) . . .
32.5(33) . . .
26.2(26) . . .
32.2(30) . . .
27.6(27) . . .
32.2(31) . . .
31.1(32) . . .
33.0(32) . . .
34.5(31) . . .
35.8(32) . . .
24.9(27) . . .
29.1(31) . . .
29.4(30) . . .
21.8(24) . . .
26.5(27) . . .
29.3(30) . . .
29.4(29) . . .
29.3(28) . . .
26.4(27) . . .
34.0(30) . . .
28.0(29) . . .
28.5(30) . . .
29.7(30) . . .
31.4(30) . . .
30.9(30) . . .
23.3(27) . . .
28.9(32) . . .
30.6(31) . . .
32.5(30) . . .
32.6(29) . . .
26.5(28) . . .
31.2(30) . . .
30.2(30) . . .
26.1(27) . . .
33.0(31) . . .
25.9(27) . . .
34.4(32) . . .
27.3(28) . . .
34.2(31) . . .
31.5(31) . . .
45(4) . . .
20.5(23) . . .
29.5(28) . . .
32.7(29) . . .
36.5(34) . . .
27.8(30) . . .
27.4(30) . . .
29.7(31) . . .
31.0(29) . . .
24.5(27) . . .
29.4(31) . . .
31.7(29) . . .
33.1(29) . . .
28.9(28) . . .
25.7(27) . . .
24.4(25) . . .
27.3(27) . . .
27.6(28) . . .
27.0(28) . . .
18.5(23) . . .
32.9(35) . . .
33(4) . . .
29.7(29) . . .
34.5(31) . . .
40.5(34) . . .
33.9(33) . . .
25.1(26) . . .
31.4(29) . . .
23.5(27) . . .
30.5(32) . . .
43(4) . . .
31.1(29) . . .
31.6(29) . . .
28.8(28) . . .
32.3(31) . . .
23.9(25) . . .
31.6(30) . . .
29.0(28) . . .
23.8(27) . . .
31.9(31) . . .
25.5(27) . . .
23.7(26) . . .
29.4(28) . . .
28.1(28) . . .
27.6(29) . . .
26.6(29) . . .
22.6(25) . . .
30.0(28) . . .
35.7(32) . . .
28.4(29) . . .
28.9(29) . . .
28.6(28) . . .
26.5(27) . . .
30.7(30) . . .
37(4) . . .
27.9(31) . . .
27.1(27) . . .
30.4(28) . . .
30.8(29) . . .
35.6(31) . . .
26.9(28) . . .
28.6(28) . . .
31.7(30) . . .
25.5(26) . . .
26.1(27) . . .
19.2(22) . . .
30.5(29) . . .
29.0(29) . . .
28.3(28) . . .
32.8(32) . . .
33.3(32) . . .
28.0(28) . . .
29.0(28) . . .
29.1(28) . . .
32.6(31) . . .
34.5(30) . . .
26.4(27) . . .
22.8(25) . . .
23.9(26) . . .
30.1(32) . . .
24.9(28) . . .
31.7(30) . . .
30.5(30) . . .
22.5(25) . . .
29.4(30) . . .
37.0(33) . . .
28.1(27) . . .
26.3(27) . . .
24.8(26) . . .
36.1(33) . . .
31.6(30) . . .
33.5(31) . . .
23.5(25) . . .
24.1(27) . . .
35.3(34) . . .
33.9(32) . . .
32.2(30) . . .
32.2(30) . . .
27.8(29) . . .
31.3(29) . . .
30.9(30) . . .
26.6(27) . . .
21.5(24) . . .
23.8(27) . . .
21.2(25) . . .
27.5(27) . . .
29.9(29) . . .
32.7(31) . . .
32.6(32) . . .
27.0(29) . . .
28.2(28) . . .
31.4(29) . . .
27.6(29) . . .
38(4) . . .
30.1(29) . . .
31.5(30) . . .
32.0(29) . . .
26.0(28) . . .
30.5(31) . . .
30.2(31) . . .
30.5(29) . . .
21.9(25) . . .
26.2(27) . . .
24.0(27) . . .
22.0(25) . . .
30.6(28) . . .
26.1(26) . . .
31.3(30) . . .
33.2(32) . . .
36(4) . . .
19.5(23) . . .
29.5(29) . . .
25.5(29) . . .
20.9(25) . . .
29.6(28) . . .
31.6(29) . . .
26.4(27) . . .
30.1(29) . . .
30.3(31) . . .
27.7(27) . . .
25.1(26) . . .
32.3(30) . . .
30.0(30) . . .
28.7(29) . . .
22.3(24) . . .
27.5(27) . . .
32.7(31) . . .
30.8(30) . . .
33.1(31) . . .
38.7(33) . . .
27.7(28) . . .
24.7(28) . . .
28.8(30) . . .
23.7(25) . . .
30.8(29) . . .
25.7(26) . . .
24.8(26) . . .
26.0(27) . . .
32.2(32) . . .
32.1(30) . . .
26.9(28) . . .
31.5(30) . . .
34.4(31) . . .
31.3(31) . . .
33.9(30) . . .
32.8(30) . . .
31.9(30) . . .
28.9(29) . . .
25.5(26) . . .
24.9(26) . . .
31.5(29) . . .
29.6(28) . . .
25.0(26) . . .
26.7(27) . . .
29.4(28) . . .
38.3(34) . . .
27.1(27) . . .
26.6(28) . . .
31.7(31) . . .
29.4(28) . . .
27.8(29) . . .
29.7(29) . . .
41(4) . . .
29.6(29) . . .
33.6(30) . . .
28.7(28) . . .
25.3(27) . . .
28.5(31) . . .
34.1(33) . . .
31.4(29) . . .
23.5(26) . . .
20.5(24) . . .
30.0(29) . . .
30.7(29) . . .
24.7(26) . . .
33.0(32) . . .
31.0(30) . . .
33.5(30) . . .
28.4(28) . . .
30.5(29) . . .
28.4(29) . . .
29.4(30) . . .
28.1(29) . . .
34.8(32) . . .
32.7(30) . . .
35.4(34) . . .
27.7(28) . . .
25.2(26) . . .
34.2(30) . . .
26.4(27) . . .
30.5(29) . . .
27.7(29) . . .
31.6(31) . . .
23.1(25) . . .
24.1(25) . . .
33.5(33) . . .
21.7(25) . . .
23.3(26) . . .
33.1(30) . . .
35.7(32) . . .
28.3(28) . . .
26.3(27) . . .
30.9(30) . . .
33.0(30) . . .
33.4(30) . . .
32.8(29) . . .
31.0(30) . . .
31.0(30) . . .
32.1(29) . . .
33.9(31) . . .
26.0(27) . . .
28.7(32) . . .
26.0(28) . . .
30.1(28) . . .
30.2(30) . . .
18.1(21) . . .
27.3(27) . . .
33.5(30) . . .
31.3(29) . . .
27.0(28) . . .
28.7(29) . . .
29.2(29) . . .
26.0(27) . . .
28.9(28) . . .
36.6(34) . . .
29.0(28) . . .
36.4(32) . . .
33.9(31) . . .
23.5(25) . . .
26.3(29) . . .
28.5(29) . . .
32.3(30) . . .
29.6(30) . . .
31.0(29) . . .
30.6(30) . . .
24.2(25) . . .
25.9(26) . . .
23.9(25) . . .
24.0(26) . . .
28.1(29) . . .
28.5(31) . . .
28.8(29) . . .
32.7(29) . . .
25.9(26) . . .
23.6(25) . . .
30.0(30) . . .
30.2(30) . . .
30.8(28) . . .
31.9(29) . . .
31.0(32) . . .
30.2(31) . . .
30.5(30) . . .
35.0(31) . . .
38.3(33) . . .
29.3(30) . . .
25.5(28) . . .
28.4(30) . . .
22.6(24) . . .
29.3(29) . . .
26.6(27) . . .
26.4(30) . . .
27.2(29) . . .
20.3(24) . . .
30.5(29) . . .
37.7(35) . . .
36.2(33) . . .
23.8(26) . . .
26.2(27) . . .
34.2(30) . . .
28.7(29) . . .
31.4(32) . . .
26.1(27) . . .
20.7(24) . . .
29.2(30) . . .
27.9(29) . . .
31.5(31) . . .
23.1(25) . . .
36.4(32) . . .
33.2(32) . . .
39(4) . . .
24.1(25) . . .
34.5(30) . . .
32.6(29) . . .
40(4) . . .
22.3(27) . . .
23.2(26) . . .
26.8(27) . . .
36.9(31) . . .
36.2(33) . . .
27.6(29) . . .
36.1(32) . . .
27.9(27) . . .
34.5(31) . . .
29.5(29) . . .
30.9(31) . . .
28.3(28) . . .
29.4(28) . . .
28.0(28) . . .
24.8(26) . . .
22.9(25) . . .
26.9(27) . . .
29.6(28) . . .
33.4(30) . . .
33.2(32) . . .
29.9(31) . . .
27.1(27) . . .
29.7(29) . . .
29.1(29) . . .
30.0(28) . . .
32.7(31) . . .
34.6(32) . . .
26.0(27) . . .
21.0(24) . . .
25.9(27) . . .
35.8(35) . . .
30.5(29) . . .
32.6(30) . . .
24.4(25) . . .
28.8(28) . . .
29.5(29) . . .
25.3(26) . . .
30.1(29) . . .
33.8(32) . . .
31.6(31) . . .
28.7(29) . . .
29.2(29) . . .
31.5(29) . . .
29.8(30) . . .
27.5(28) . . .
25.2(26) . . .
29.5(29) . . .
23.0(25) . . .
27.5(31) . . .
36(4) . . .
31.6(30) . . .
32.2(30) . . .
27.6(28) . . .
28.2(29) . . .
26.2(29) . . .
26.8(28) . . .
31.4(30) . . .
37.2(32) . . .
32.4(33) . . .
29.0(31) . . .
25.8(26) . . .
38.0(32) . . .
22.3(25) . . .
30.1(31) . . .
29.4(31) . . .
27.6(29) . . .
30.2(28) . . .
34.4(31) . . .
26.8(26) . . .
23.5(28) . . .
24.1(27) . . .
27.0(27) . . .
32.8(31) . . .
21.5(24) . . .
21.8(25) . . .
28.7(29) . . .
30.3(29) . . .
32.6(31) . . .
23.7(26) . . .
28.1(29) . . .
38.1(35) . . .
30.7(29) . . .
28.0(29) . . .
30.9(30) . . .
26.4(29) . . .
25.0(27) . . .
23.8(26) . . .
37.5(34) . . .
36.6(34) . . .
26.5(28) . . .
33.5(32) . . .
28.2(28) . . .
39.9(35) . . .
28.6(30) . . .
29.5(32) . . .
25.4(27) . . .
32.4(29) . . .
25.9(27) . . .
25.9(28) . . .
30.1(28) . . .
35.3(33) . . .
32.5(30) . . .
34.1(30) . . .
33.5(33) . . .
29.1(29) . . .
28.3(28) . . .
30.5(30) . . .
23.1(25) . . .
24.0(29) . . .
29.8(33) . . .
19.9(24) . . .
23.8(26) . . .
21.5(24) . . .
24.9(27) . . .
31.1(32) . . .
25.0(27) . . .
28.5(28) . . .
31.5(30) . . .
26.3(28) . . .
30.0(30) . . .
23.1(25) . . .
38.4(33) . . .
26.0(26) . . .
29.3(29) . . .
30.0(29) . . .
30.3(30) . . .
31.3(31) . . .
33.1(32) . . .
27.7(29) . . .
26.2(26) . . .
28.2(28) . . .
32.6(31) . . .
31.4(31) . . .
32.0(32) . . .
22.3(27) . . .
26.4(27) . . .
29.7(28) . . .
29.0(27) . . .
33.9(31) . . .
32.3(32) . . .
27.5(28) . . .
24.0(26) . . .
32.2(31) . . .
29.9(28) . . .
29.5(29) . . .
22.6(25) . . .
36.5(34) . . .
24.7(26) . . .
30.3(31) . . .
34.0(31) . . .
38.6(32) . . .
33.2(31) . . .
32.2(33) . . .
34.9(34) . . .
30.5(29) . . .
20.8(24) . . .
23.0(26) . . .
21.6(25) . . .
35.3(33) . . .
24.2(25) . . .
29.9(28) . . .
31.3(30) . . .
21.9(25) . . .
21.3(24) . . .
30.0(29) . . .
34.1(30) . . .
33.0(32) . . .
23.2(27) . . .
24.6(28) . . .
30.0(29) . . .
36.2(32) . . .
28.6(30) . . .
25.9(28) . . .
32.5(33) . . .
40.6(33) . . .
35.4(32) . . .
33.0(31) . . .
27.6(28) . . .
26.2(28) . . .
34.9(31) . . .
33.6(30) . . .
25.9(27) . . .
29.4(31) . . .
28.2(28) . . .
27.7(28) . . .
29.3(28) . . .
28.6(28) . . .
29.7(32) . . .
28.5(31) . . .
30.0(28) . . .
26.9(30) . . .
29.1(31) . . .
31.1(32) . . .
30.7(30) . . .
29.5(29) . . .
28.9(31) . . .
33.3(34) . . .
22.2(26) . . .
25.6(27) . . .
19.8(23) . . .
26.1(28) . . .
33.5(32) . . .
34.4(31) . . .
33.7(30) . . .
32.1(30) . . .
25.2(27) . . .
30.1(31) . . .
28.7(27) . . .
20.4(24) . . .
24.8(26) . . .
30.2(30) . . .
24.0(27) . . .
26.8(27) . . .
28.4(28) . . .
32.6(30) . . .
28.8(29) . . .
27.2(29) . . .
30.1(30) . . .
29.9(29) . . .
29.7(29) . . .
30.5(30) . . .
22.5(26) . . .
25.5(28) . . .
32.4(30) . . .
25.3(28) . . .
29.6(30) . . .
31.6(32) . . .
27.2(28) . . .
31.8(29) . . .
33.7(32) . . .
33.9(32) . . .
27.5(28) . . .
35.5(32) . . .
27.9(28) . . .
36.9(32) . . .
27.4(28) . . .
28.3(29) . . .
25.5(26) . . .
32.2(30) . . .
26.2(27) . . .
27.4(29) . . .
33.7(33) . . .
28.9(28) . . .
33.6(30) . . .
24.5(27) . . .
27.7(29) . . .
28.3(29) . . .
20.6(24) . . .
24.9(26) . . .
33.1(32) . . .
28.0(29) . . .
25.6(28) . . .
39.2(34) . . .
32.4(30) . . .
31.1(30) . . .
31.4(31) . . .
27.1(28) . . .
23.0(25) . . .
17.0(22) . . .
29.5(30) . . .
29.9(31) . . .
25.8(29) . . .
22.2(25) . . .
29.4(29) . . .
34.0(32) . . .
27.6(29) . . .
30.6(31) . . .
20.2(24) . . .
21.2(26) . . .
21.4(24) . . .
30.9(31) . . .
22.7(25) . . .
25.3(27) . . .
28.9(29) . . .
29.3(30) . . .
28.8(29) . . .
23.3(25) . . .
26.1(27) . . .
31.8(31) . . .
25.1(26) . . .
33.1(32) . . .
32.6(31) . . .
27.1(27) . . .
26.8(27) . . .
37.4(34) . . .
30.2(30) . . .
33(4) . . .
25.5(26) . . .
32.7(30) . . .
30.8(29) . . .
25.9(26) . . .
26.0(27) . . .
28.3(28) . . .
23.2(25) . . .
25.6(27) . . .
32.1(32) . . .
27.9(27) . . .
34.5(31) . . .
26.3(27) . . .
22.5(26) . . .
31.0(32) . . .
27.0(27) . . .
23.2(25) . . .
24.7(26) . . .
27.5(31) . . .
29.7(29) . . .
38.4(33) . . .
32.2(31) . . .
26.6(29) . . .
28.2(30) . . .
38.5(34) . . .
35.8(32) . . .
28.2(28) . . .
30.8(31) . . .
33.2(33) . . .
31.2(31) . . .
24.2(27) . . .
30.2(29) . . .
30.4(29) . . .
29.5(30) . . .
29.9(29) . . .
23.5(25) . . .
22.9(25) . . .
25.4(27) . . .
36.7(35) . . .
34.1(31) . . .
27.3(28) . . .
26.2(27) . . .
27.6(29) . . .
28.3(30) . . .
31.6(30) . . .
24.7(25) . . .
29.5(28) . . .
32.3(30) . . .
33.9(33) . . .
24.5(26) . . .
32.3(30) . . .
29.0(28) . . .
39.0(34) . . .
24.8(26) . . .
25.5(27) . . .
23.4(25) . . .
28.3(27) . . .
37.2(34) . . .
30.1(31) . . .
27.1(28) . . .
33.3(30) . . .
23.1(26) . . .
23.7(26) . . .
32.1(31) . . .
27.3(28) . . .
25.2(26) . . .
29.2(28) . . .
32.0(31) . . .
32.2(31) . . .
31.6(32) . . .
30.2(28) . . .
35.8(32) . . .
30.9(30) . . .
35.6(32) . . .
26.3(26) . . .
23.0(25) . . .
28.6(28) . . .
33.3(33) . . .
31.7(31) . . .
28.1(28) . . .
34.4(33) . . .
21.5(25) . . .
27.8(32) . . .
27.4(30) . . .
20.0(24) . . .
27.3(27) . . .
25.8(28) . . .
30.3(33) . . .
28.5(31) . . .
28.9(28) . . .
22.4(24) . . .
33.4(33) . . .
27.7(29) . . .
24.5(27) . . .
26.5(26) . . .
32.5(29) . . .
36.3(33) . . .
29.5(29) . . .
37.0(32) . . .
33.2(30) . . .
22.6(25) . . .
24.3(27) . . .
29.6(29) . . .
30.7(29) . . .
29.1(28) . . .
24.2(27) . . .
24.6(28) . . .
30.6(32) . . .
32.1(30) . . .
34.1(30) . . .
27.9(29) . . .
25.6(28) . . .
27.0(29) . . .
22.4(25) . . .
27.3(27) . . .
29.8(29) . . .
28.8(29) . . .
28.5(28) . . .
21.9(25) . . .
24.3(26) . . .
31.6(30) . . .
32.3(33) . . .
31.0(30) . . .
35.0(32) . . .
21.5(24) . . .
31.0(30) . . .
26.4(27) . . .
31.2(30) . . .
29.1(29) . . .
27.8(28) . . .
22.9(27) . . .
25.6(30) . . .
26.2(27) . . .
29.0(28) . . .
31.1(29) . . .
33.4(32) . . .
31.3(30) . . .
27.9(29) . . .
28.2(29) . . .
35.5(31) . . .
33.8(32) . . .
31.2(33) . . .
30.0(30) . . .
35.4(31) . . .
31.0(30) . . .
38.2(34) . . .
30.7(31) . . .
31.0(31) . . .
25.4(27) . . .
37.2(34) . . .
27.9(28) . . .
37.5(34) . . .
31.9(30) . . .
33.7(30) . . .
31.0(29) . . .
36.0(33) . . .
27.5(29) . . .
29.0(30) . . .
22.4(25) . . .
28.2(28) . . .
28.0(28) . . .
32.1(31) . . .
22.6(25) . . .
28.8(28) . . .
33.3(32) . . .
27.4(30) . . .
25.3(27) . . .
27.2(27) . . .
35.4(32) . . .
29.5(30) . . .
26.7(28) . . .
29.4(30) . . .
33.3(30) . . .
32.3(30) . . .
27.1(28) . . .
31.0(34) . . .
35.6(33) . . .
34.3(30) . . .
31.3(31) . . .
23.1(25) . . .
30.8(33) . . .
26.0(27) . . .
20.0(23) . . .
18.3(23) . . .
34.5(32) . . .
33.7(34) . . .
34(4) . . .
27.3(28) . . .
28.9(28) . . .
26.3(27) . . .
25.5(29) . . .
29.9(31) . . .
35.1(31) . . .
27.5(27) . . .
29.0(30) . . .
38.3(35) . . .
31.3(29) . . .
23.7(25) . . .
24.6(28) . . .
24.3(26) . . .
33.7(33) . . .
26.8(27) . . .
26.4(27) . . .
29.1(28) . . .
25.4(27) . . .
30.2(31) . . .
21.4(26) . . .
31.8(29) . . .
34.3(32) . . .
25.4(25) . . .
31.0(29) . . .
34.4(32) . . .
30.5(29) . . .
30.2(31) . . .
29.0(29) . . .
26.5(28) . . .
20.4(24) . . .
23.8(25) . . .
29.5(28) . . .
27.3(27) . . .
30.6(30) . . .
28.9(27) . . .
30.8(29) . . .
25.3(28) . . .
23.7(26) . . .
33.0(30) . . .
26.2(27) . . .
32.3(30) . . .
35.0(31) . . .
34.5(33) . . .
31.3(29) . . .
31.2(29) . . .
29.6(29) . . .
25.3(27) . . .
27.6(32) . . .
26.0(28) . . .
36.9(31) . . .
32.7(30) . . .
29.6(29) . . .
33.4(32) . . .
29.0(30) . . .
31.1(29) . . .
24.8(26) . . .
25.6(29) . . .
25.4(28) . . .
29.9(29) . . .
29.1(28) . . .
29.5(29) . . .
29.2(31) . . .
25.3(28) . . .
33.7(32) . . .
24.9(27) . . .
28.5(28) . . .
34.3(32) . . .
29.0(28) . . .
29.0(30) . . .
32.2(30) . . .
31.2(29) . . .
34.9(32) . . .
36.5(32) . . .
32.4(30) . . .
23.5(26) . . .
19.9(24) . . .
22.6(24) . . .
27.6(27) . . .
36.0(33) . . .
38.3(32) . . .
32.8(30) . . .
31.9(32) . . .
25.5(28) . . .
21.8(25) . . .
19.0(23) . . .
27.4(27) . . .
23.3(26) . . .
25.6(27) . . .
30.4(29) . . .
26.9(27) . . .
21.5(24) . . .
20.7(25) . . .
19.8(23) . . .
33.7(30) . . .
32.1(30) . . .
27.4(27) . . .
32.8(32) . . .
34.2(33) . . .
26.5(27) . . .
31.1(29) . . .
28.1(27) . . .
28.1(30) . . .
34.7(33) . . .
33.4(31) . . .
20.7(23) . . .
30.3(30) . . .
32.0(31) . . .
25.6(27) . . .
30.3(29) . . .
31.5(29) . . .
34.5(31) . . .
29.8(29) . . .
32.6(30) . . .
24.6(27) . . .
25.0(26) . . .
29.9(30) . . .
29.6(28) . . .
29.1(28) . . .
30.1(29) . . .
31.5(29) . . .
30.2(31) . . .
25.2(28) . . .
25.9(28) . . .
26.9(27) . . .
24.5(26) . . .
31.9(31) . . .
24.3(26) . . .
21.2(24) . . .
33.0(30) . . .
37.9(33) . . .
26.9(28) . . .
31.8(32) . . .
32.7(31) . . .
33.7(30) . . .
26.9(27) . . .
30.4(31) . . .
23.1(25) . . .
23.9(25) . . .
35.8(31) . . .
32.7(30) . . .
31.5(31) . . .
36.7(33) . . .
29.2(28) . . .
31.5(30) . . .
33.5(31) . . .
25.9(27) . . .
28.0(29) . . .
30.8(30) . . .
32.1(30) . . .
24.0(25) . . .
30.1(31) . . .
32.3(34) . . .
23.6(25) . . .
26.4(28) . . .
28.5(29) . . .
26.7(30) . . .
23.6(27) . . .
26.5(27) . . .
24.0(25) . . .
27.5(28) . . .
30.7(31) . . .
37.3(34) . . .
28.0(28) . . .
38.3(32) . . .
29.7(28) . . .
28.6(28) . . .
30.7(29) . . .
33.7(30) . . .
30.2(29) . . .
32.1(31) . . .
31.3(31) . . .
29.5(30) . . .
34.8(30) . . .
26.9(27) . . .
31.5(31) . . .
34.0(32) . . .
33.4(30) . . .
29.4(29) . . .
21.4(25) . . .
21.0(25) . . .
25.4(28) . . .
35.5(32) . . .
31.4(29) . . .
29.6(29) . . .
33.6(31) . . .
31.0(29) . . .
32.2(30) . . .
23.0(25) . . .
25.9(27) . . .
28.8(30) . . .
31.9(32) . . .
31.3(30) . . .
32.7(30) . . .
37.7(34) . . .
29.0(32) . . .
27.1(30) . . .
27.1(27) . . .
29.1(28) . . .
26.5(29) . . .
31.4(31) . . .
36.0(32) . . .
39.2(32) . . .
30.7(29) . . .
25.2(26) . . .
28.7(28) . . .
28.1(28) . . .
25.1(26) . . .
23.2(27) . . .
29.1(31) . . .
28.6(30) . . .
28.8(29) . . .
20.9(25) . . .
22.9(26) . . .
24.0(28) . . .
23.6(27) . . .
26.1(27) . . .
25.8(27) . . .
29.4(28) . . .
31.7(30) . . .
34.8(33) . . .
25.1(26) . . .
27.0(27) . . .
25.3(26) . . .
30.1(31) . . .
22.0(24) . . .
31.6(30) . . .
35.0(31) . . .
29.1(28) . . .
29.3(29) . . .
25.6(26) . . .
29.0(28) . . .
27.2(28) . . .
26.3(26) . . .
24.5(29) . . .
33.9(33) . . .
20.0(23) . . .
34.9(31) . . .
32.8(31) . . .
26.1(29) . . .
28.1(30) . . .
35.8(31) . . .
30.1(29) . . .
27.2(29) . . .
26.5(30) . . .
24.5(27) . . .
31.1(29) . . .
27.2(27) . . .
34.6(31) . . .
30.2(30) . . .
28.5(29) . . .
28.1(29) . . .
25.9(27) . . .
27.2(29) . . .
24.5(27) . . .
38.4(34) . . .
33.8(30) . . .
29.3(30) . . .
26.0(28) . . .
28.8(29) . . .
25.3(26) . . .
24.9(26) . . .
18.9(23) . . .
29.8(31) . . .
24.3(27) . . .
33.3(32) . . .
30.5(29) . . .
24.9(27) . . .
23.2(24) . . .
28.1(27) . . .
33.9(31) . . .
32.0(29) . . .
30.5(31) . . .
27.0(28) . . .
28.7(30) . . .
22.7(26) . . .
29.3(28) . . .
26.5(28) . . .
30.1(31) . . .
35.1(34) . . .
28.4(28) . . .
34.3(30) . . .
34.0(33) . . .
29.4(30) . . .
30.7(30) . . .
26.6(27) . . .
26.7(27) . . .
34.0(32) . . .
24.1(26) . . .
29.2(30) . . .
25.8(27) . . .
35.7(31) . . .
27.1(29) . . .
26.9(28) . . .
33.0(29) . . .
32.1(29) . . .
27.0(27) . . .
28.7(31) . . .
36.3(34) . . .
31.4(30) . . .
23.2(25) . . .
25.8(26) . . .
26.0(26) . . .
27.4(28) . . .
25.3(26) . . .
27.2(28) . . .
33.8(31) . . .
32.0(30) . . .
33.0(31) . . .
26.2(27) . . .
26.7(27) . . .
27.2(28) . . .
27.1(30) . . .
20.2(26) . . .
22.7(25) . . .
28.3(27) . . .
23.3(26) . . .
21.0(24) . . .
29.3(29) . . .
28.9(28) . . .
33.0(30) . . .
31.1(30) . . .
29.2(32) . . .
32.4(31) . . .
30.2(29) . . .
25.0(27) . . .
22.0(25) . . .
35.0(34) . . .
30.0(30) . . .
32.3(30) . . .
36.1(31) . . .
31.2(30) . . .
28.5(30) . . .
28.5(28) . . .
30.5(29) . . .
32.8(29) . . .
31.7(29) . . .
35.4(33) . . .
27.7(28) . . .
27.1(27) . . .
30.0(29) . . .
31.8(32) . . .
35.1(33) . . .
31.6(30) . . .
32.2(30) . . .
31.9(29) . . .
26.7(32) . . .
30.8(32) . . .
27.4(28) . . .
38.0(32) . . .
29.0(29) . . .
29.2(30) . . .
28.3(30) . . .
29.8(29) . . .
31.7(30) . . .
36.2(31) . . .
32.1(30) . . .
28.7(30) . . .
30.4(29) . . .
33.6(30) . . .
32.5(30) . . .
27.5(29) . . .
26.9(30) . . .
31.6(30) . . .
28.5(28) . . .
25.9(27) . . .
28.2(28) . . .
26.2(27) . . .
28.8(30) . . .
21.7(24) . . .
31.3(29) . . .
35.3(33) . . .
27.6(28) . . .
27.7(28) . . .
32.8(31) . . .
29.8(28) . . .
24.4(26) . . .
21.8(24) . . .
34.7(31) . . .
35.7(31) . . .
31.4(32) . . .
21.5(28) . . .
19.7(24) . . .
24.1(26) . . .
26.3(27) . . .
22.7(25) . . .
24.0(28) . . .
28.3(28) . . .
32.6(30) . . .
26.6(27) . . .
25.9(27) . . .
24.6(28) . . .
24.0(28) . . .
22.7(26) . . .
27.3(28) . . .
25.7(27) . . .
27.1(29) . . .
24.6(27) . . .
29.0(28) . . .
23.3(26) . . .
28.3(29) . . .
24.5(27) . . .
26.0(28) . . .
31.0(29) . . .
26.9(27) . . .
29.6(29) . . .
34.8(33) . . .
28.0(28) . . .
28.7(28) . . .
25.9(26) . . .
26.9(27) . . .
32.9(32) . . .
29.4(29) . . .
35.7(32) . . .
29.3(29) . . .
23.6(25) . . .
36.2(33) . . .
30.3(29) . . .
30.8(29) . . .
29.9(29) . . .
38.1(33) . . .
32.5(30) . . .
33.4(32) . . .
29.1(28) . . .
25.1(27) . . .
26.9(28) . . .
36.2(34) . . .
31.8(30) . . .
23.5(25) . . .
24.3(26) . . .
27.7(29) . . .
30.7(30) . . .
24.7(25) . . .
28.5(28) . . .
27.3(27) . . .
28.0(29) . . .
28.4(29) . . .
27.0(28) . . .
30.5(30) . . .
32.2(31) . . .
28.3(29) . . .
29.1(29) . . .
21.2(25) . . .
34.8(31) . . .
29.1(30) . . .
25.7(28) . . .
36.1(32) . . .
36.1(31) . . .
37.5(33) . . .
28.2(28) . . .
27.7(29) . . .
23.7(25) . . .
34.8(34) . . .
27.6(28) . . .
26.6(29) . . .
28.9(29) . . .
27.4(28) . . .
32.6(30) . . .
26.5(27) . . .
27.9(29) . . .
28.1(29) . . .
35.4(32) . . .
40.7(34) . . .
31.5(30) . . .
26.6(28) . . .
30.0(29) . . .
33.3(31) . . .
29.0(28) . . .
28.4(30) . . .
27.7(27) . . .
29.9(32) . . .
22.3(25) . . .
30.1(29) . . .
29.2(29) . . .
29.5(30) . . .
26.3(27) . . .
25.5(26) . . .
31.5(29) . . .
43(4) . . .
29.6(30) . . .
18.7(23) . . .
27.0(28) . . .
35.6(31) . . .
29.7(28) . . .
28.7(30) . . .
23.9(26) . . .
27.0(28) . . .
20.1(23) . . .
24.3(25) . . .
33.7(32) . . .
27.1(28) . . .
26.5(27) . . .
25.9(26) . . .
27.4(30) . . .
31.5(34) . . .
18.8(23) . . .
26.6(27) . . .
29.6(29) . . .
32.6(35) . . .
23.5(27) . . .
25.6(28) . . .
30.8(30) . . .
26.4(27) . . .
23.7(27) . . .
23.6(26) . . .
32.0(30) . . .
27.7(27) . . .
34.4(31) . . .
29.8(28) . . .
30.4(29) . . .
24.1(25) . . .
35.8(31) . . .
35.5(32) . . .
29.8(31) . . .
32.6(32) . . .
26.1(27) . . .
28.6(28) . . .
24.9(26) . . .
28.4(29) . . .
29.7(30) . . .
33.4(30) . . .
30.6(30) . . .
29.8(31) . . .
27.0(29) . . .
26.4(27) . . .
30.3(30) . . .
36.6(31) . . .
29.4(29) . . .
23.4(27) . . .
13.2(18) . . .
26.7(27) . . .
27.1(28) . . .
27.2(27) . . .
31.3(31) . . .
33.1(30) . . .
34.9(30) . . .
30.5(29) . . .
28.7(28) . . .
26.3(29) . . .
29.8(31) . . .
21.3(24) . . .
29.2(28) . . .
26.6(27) . . .
34.3(34) . . .
29.8(29) . . .
29.3(29) . . .
35.6(31) . . .
18.5(23) . . .
25.3(29) . . .
24.3(25) . . .
26.6(27) . . .
28.3(27) . . .
26.6(28) . . .
26.8(29) . . .
26.6(27) . . .
31.1(29) . . .
31.5(30) . . .
26.4(29) . . .
26.0(31) . . .
30.8(32) . . .
29.9(29) . . .
32.1(30) . . .
28.1(28) . . .
29.8(31) . . .
20.9(26) . . .
29.0(28) . . .
31.0(29) . . .
33.8(32) . . .
38(4) . . .
32.3(30) . . .
29.1(29) . . .
34.8(31) . . .
32.8(30) . . .
23.9(25) . . .
25.5(27) . . .
28.8(28) . . .
29.4(29) . . .
25.7(25) . . .
31.5(30) . . .
33.3(30) . . .
35.0(31) . . .
33.9(31) . . .
24.0(26) . . .
27.8(28) . . .
29.7(29) . . .
23.0(25) . . .
25.4(28) . . .
25.6(26) . . .
28.0(29) . . .
21.4(24) . . .
24.7(26) . . .
24.4(27) . . .
24.0(26) . . .
27.5(28) . . .
31.1(29) . . .
31.5(29) . . .
32.8(31) . . .
18.1(23) . . .
27.9(28) . . .
30.5(29) . . .
34.9(31) . . .
27.6(29) . . .
29.5(32) . . .
25.2(29) . . .
24.8(27) . . .
33.1(32) . . .
22.0(26) . . .
31.0(31) . . .
32.2(31) . . .
30.1(29) . . .
33.5(31) . . .
36.3(35) . . .
33.5(32) . . .
22.3(25) . . .
25.9(26) . . .
29.2(29) . . .
32.3(33) . . .
22.0(24) . . .
26.9(27) . . .
27.4(27) . . .
24.5(26) . . .
29.5(32) . . .
37.2(34) . . .
30.0(28) . . .
25.8(28) . . .
30.1(30) . . .
28.0(30) . . .
27.9(30) . . .
25.6(26) . . .
27.9(28) . . .
20.2(23) . . .
36.7(34) . . .
27.5(29) . . .
30.2(29) . . .
29.1(28) . . .
27.7(29) . . .
33.2(33) . . .
24.5(26) . . .
28.8(28) . . .
27.7(27) . . .
27.1(28) . . .
30.6(32) . . .
27.4(29) . . .
34.9(31) . . .
37.3(32) . . .
39.8(34) . . .
30.1(30) . . .
40.0(35) . . .
20.4(24) . . .
33.2(31) . . .
32.1(30) . . .
23.9(28) . . .
26.5(28) . . .
33.5(30) . . .
31.8(29) . . .
31.4(31) . . .
23.4(26) . . .
37.2(34) . . .
37.8(31) . . .
34.0(30) . . .
25.0(28) . . .
22.5(28) . . .
31.0(30) . . .
33.2(30) . . .
32.9(31) . . .
27.9(27) . . .
27.3(30) . . .
20.8(25) . . .
18.3(22) . . .
19.6(25) . . .
26.8(27) . . .
31.9(30) . . .
23.5(25) . . .
31.7(29) . . .
29.3(29) . . .
27.7(29) . . .
30.5(31) . . .
28.5(29) . . .
20.9(24) . . .
36.6(34) . . .
29.4(29) . . .
29.7(29) . . .
29.8(28) . . .
31.5(29) . . .
27.0(27) . . .
28.8(30) . . .
31.6(31) . . .
25.4(27) . . .
28.8(28) . . .
28.3(30) . . .
26.0(27) . . .
25.6(28) . . .
28.1(27) . . .
25.9(26) . . .
30.2(30) . . .
29.9(30) . . .
31.0(31) . . .
26.7(27) . . .
27.5(27) . . .
26.1(27) . . .
23.7(26) . . .
22.5(25) . . .
34.3(31) . . .
22.5(25) . . .
24.1(27) . . .
30.9(32) . . .
28.1(29) . . .
29.4(28) . . .
19.5(23) . . .
23.5(27) . . .
33(4) . . .
29.1(28) . . .
30.1(28) . . .
27.4(28) . . .
27.8(28) . . .
30.4(30) . . .
23.9(26) . . .
32.0(29) . . .
32.3(30) . . .
33.5(32) . . .
28.7(30) . . .
23.1(26) . . .
33.3(30) . . .
29.4(28) . . .
25.5(26) . . .
25.8(27) . . .
29.1(29) . . .
27.6(27) . . .
32.2(30) . . .
29.6(28) . . .
29.3(28) . . .
38.4(32) . . .
26.0(26) . . .
31.3(31) . . .
21.7(26) . . .
26.4(29) . . .
29.2(30) . . .
28.1(28) . . .
32.1(33) . . .
37.1(33) . . .
33.0(31) . . .
28.9(28) . . .
28.4(28) . . .
28.7(31) . . .
34.5(34) . . .
29.0(28) . . .
23.4(26) . . .
21.4(24) . . .
25.8(28) . . .
35.2(32) . . .
33.3(29) . . .
29.0(28) . . .
27.2(27) . . .
19.6(23) . . .
29.0(30) . . .
29.3(29) . . .
23.2(25) . . .
33.2(30) . . .
23.6(25) . . .
31.0(32) . . .
27.0(28) . . .
26.9(27) . . .
26.9(29) . . .
24.3(27) . . .
32.7(34) . . .
31.4(32) . . .
30.1(29) . . .
25.9(27) . . .
32.8(32) . . .
26.8(29) . . .
29.4(29) . . .
28.8(28) . . .
30.9(30) . . .
27.9(28) . . .
30.3(32) . . .
26.0(27) . . .
30.8(29) . . .
21.4(25) . . .
28.6(30) . . .
39(4) . . .
33.3(31) . . .
32.5(30) . . .
31.7(31) . . .
26.8(29) . . .
27.9(27) . . .
32.3(29) . . .
20.1(24) . . .
28.8(29) . . .
22.2(26) . . .
23.9(25) . . .
30.2(29) . . .
24.6(25) . . .
21.5(24) . . .
25.5(29) . . .
31.7(30) . . .
28.0(28) . . .
27.2(27) . . .
29.5(30) . . .
34.2(32) . . .
32.7(30) . . .
24.7(26) . . .
21.6(24) . . .
26.7(29) . . .
37(4) . . .
22.9(25) . . .
30.6(29) . . .
25.3(26) . . .
24.0(27) . . .
33.3(32) . . .
29.4(29) . . .
28.6(28) . . .
33.0(30) . . .
29.2(29) . . .
33.3(32) . . .
29.9(31) . . .
28.7(28) . . .
31.2(29) . . .
31.1(29) . . .
31.5(33) . . .
26.5(28) . . .
31.4(29) . . .
27.1(27) . . .
23.5(27) . . .
23.5(25) . . .
26.2(27) . . .
33.8(30) . . .
27.3(28) . . .
22.6(25) . . .
26.4(27) . . .
30.3(30) . . .
32.8(30) . . .
33.1(30) . . .
32.2(31) . . .
25.4(25) . . .
33.2(30) . . .
27.7(28) . . .
20.3(24) . . .
32.9(33) . . .
27.1(29) . . .
27.8(28) . . .
29.7(29) . . .
27.8(29) . . .
36.0(33) . . .
34.6(31) . . .
29.1(29) . . .
26.5(27) . . .
32.9(32) . . .
27.8(29) . . .
29.1(28) . . .
27.2(27) . . .
28.7(28) . . .
35.7(32) . . .
27.6(27) . . .
30.6(28) . . .
30.8(29) . . .
34.5(31) . . .
26.5(26) . . .
37(4) . . .
20.6(24) . . .
25.6(27) . . .
29.2(29) . . .
19.5(23) . . .
24.6(26) . . .
27.5(28) . . .
29.0(28) . . .
28.6(28) . . .
27.8(28) . . .
36.5(33) . . .
28.5(28) . . .
25.8(26) . . .
24.8(27) . . .
30.2(31) . . .
27.8(31) . . .
23.5(25) . . .
26.0(27) . . .
20.4(25) . . .
28.1(28) . . .
21.8(25) . . .
29.0(30) . . .
29.5(28) . . .
27.6(29) . . .
30.8(30) . . .
25.8(26) . . .
39.8(34) . . .
28.5(28) . . .
21.9(28) . . .
26.5(31) . . .
20.7(24) . . .
22.2(27) . . .
28.5(28) . . .
26.8(28) . . .
25.6(26) . . .
34.3(32) . . .
19.3(22) . . .
30.1(29) . . .
29.6(28) . . .
32.3(32) . . .
30.2(29) . . .
28.7(28) . . .
30.6(29) . . .
23.3(25) . . .
24.4(27) . . .
26.7(29) . . .
30.1(29) . . .
30.6(29) . . .
30.8(29) . . .
40(4) . . .
33.6(32) . . .
26.7(28) . . .
26.5(27) . . .
28.2(29) . . .
31.4(29) . . .
33.5(30) . . .
25.6(27) . . .
28.1(27) . . .
23.6(26) . . .
25.2(27) . . .
25.1(26) . . .
28.1(27) . . .
34.6(31) . . .
33.1(30) . . .
25.9(27) . . .
29.0(29) . . .
24.9(26) . . .
18.9(23) . . .
34.5(32) . . .
28.3(26) . . .
30.4(29) . . .
27.5(27) . . .
28.2(29) . . .
26.0(29) . . .
32.2(30) . . .
36.0(31) . . .
26.5(28) . . .
28.4(29) . . .
29.1(31) . . .
32.5(32) . . .
25.3(26) . . .
32.4(30) . . .
33.6(31) . . .
31.6(31) . . .
27.3(30) . . .
27.1(28) . . .
22.9(25) . . .
26.4(27) . . .
25.0(27) . . .
25.4(27) . . .
27.3(28) . . .
36.2(31) . . .
24.9(27) . . .
26.8(29) . . .
30.0(29) . . .
29.5(29) . . .
31.3(29) . . .
26.1(28) . . .
24.0(28) . . .
25.8(28) . . .
23.1(25) . . .
24.6(27) . . .
28.9(28) . . .
31.8(31) . . .
23.4(26) . . .
29.0(28) . . .
27.9(28) . . .
26.8(28) . . .
31.0(32) . . .
30.7(29) . . .
27.1(27) . . .
23.8(25) . . .
22.5(25) . . .
26.5(28) . . .
37.6(33) . . .
32.6(29) . . .
28.0(29) . . .
27.8(28) . . .
32.5(31) . . .
29.8(29) . . .
23.7(26) . . .
29.3(31) . . .
24.3(27) . . .
24.6(26) . . .
25.6(26) . . .
25.8(27) . . .
33.0(31) . . .
25.9(26) . . .
33.0(32) . . .
22.5(26) . . .
27.5(27) . . .
23.2(27) . . .
32.0(32) . . .
27.3(28) . . .
28.9(28) . . .
37.7(32) . . .
25.0(25) . . .
32.0(31) . . .
29.0(29) . . .
32.0(29) . . .
31.1(29) . . .
31.3(33) . . .
28.9(31) . . .
31.6(31) . . .
33.4(31) . . .
37.0(31) . . .
32.8(30) . . .
31.0(32) . . .
28.6(28) . . .
32.3(29) . . .
26.9(28) . . .
27.4(29) . . .
26.0(28) . . .
33.6(30) . . .
33.2(30) . . .
24.5(25) . . .
24.4(27) . . .
42(4) . . .
29.5(29) . . .
28.9(28) . . .
34.4(32) . . .
30.9(30) . . .
22.3(25) . . .
23.4(26) . . .
27.8(28) . . .
32.3(29) . . .
38.0(34) . . .
25.0(25) . . .
32.1(31) . . .
25.3(26) . . .
29.1(28) . . .
31.1(31) . . .
30.9(29) . . .
26.0(27) . . .
30.7(29) . . .
31.5(31) . . .
32.6(33) . . .
22.3(24) . . .
28.5(28) . . .
27.9(28) . . .
29.0(28) . . .
32.0(33) . . .
30.3(31) . . .
31.8(29) . . .
32.6(30) . . .
34.1(31) . . .
33.7(31) . . .
28.0(28) . . .
28.8(28) . . .
34.4(30) . . .
34.8(31) . . .
31.0(31) . . .
33.5(32) . . .
43.3(34) . . .
25.0(27) . . .
29.0(29) . . .
27.2(29) . . .
30.1(29) . . .
30.7(29) . . .
36.6(32) . . .
28.1(28) . . .
28.7(29) . . .
25.6(29) . . .
28.9(28) . . .
32.1(31) . . .
31.5(29) . . .
33.2(33) . . .
24.0(26) . . .
26.8(27) . . .
27.9(28) . . .
26.4(29) . . .
25.7(27) . . .
23.6(26) . . .
26.5(27) . . .
20.8(25) . . .
35.2(32) . . .
26.1(29) . . .
19.9(24) . . .
20.3(24) . . .
26.7(28) . . .
26.3(29) . . .
25.4(26) . . .
33.2(30) . . .
31.5(29) . . .
38.2(34) . . .
34.0(32) . . .
26.8(28) . . .
27.8(28) . . .
34.0(30) . . .
24.9(27) . . .
31.2(32) . . .
37.5(34) . . .
30.9(29) . . .
30.5(29) . . .
33.9(30) . . .
26.6(28) . . .
26.1(28) . . .
29.5(28) . . .
35.8(31) . . .
25.0(25) . . .
31.9(33) . . .
25.2(26) . . .
33.1(30) . . .
28.5(28) . . .
25.7(27) . . .
27.8(29) . . .
35.0(33) . . .
29.1(28) . . .
32.9(30) . . .
28.1(30) . . .
21.9(28) . . .
31.6(34) . . .
33.6(31) . . .
25.8(27) . . .
28.2(27) . . .
29.4(29) . . .
28.8(29) . . .
29.2(28) . . .
27.5(28) . . .
34.5(33) . . .
28.3(28) . . .
24.0(27) . . .
24.4(26) . . .
25.1(27) . . .
27.8(28) . . .
24.1(25) . . .
27.1(27) . . .
30.7(29) . . .
30.1(30) . . .
31.1(32) . . .
27.2(30) . . .
27.1(29) . . .
28.7(28) . . .
24.3(26) . . .
29.8(34) . . .
25.6(28) . . .
28.1(28) . . .
38.0(33) . . .
33.9(31) . . .
24.1(27) . . .
24.5(26) . . .
30.2(30) . . .
35.8(31) . . .
27.6(29) . . .
27.2(31) . . .
30.0(31) . . .
26.8(27) . . .
36.4(31) . . .
27.7(28) . . .
34.2(34) . . .
34.1(31) . . .
26.2(27) . . .
27.6(28) . . .
33.0(31) . . .
25.5(28) . . .
24.9(27) . . .
28.0(27) . . .
26.7(27) . . .
32.2(33) . . .
32.8(34) . . .
27.6(28) . . .
26.0(27) . . .
29.1(28) . . .
35.1(32) . . .
34.0(31) . . .
32.8(30) . . .
35.9(32) . . .
27.7(30) . . .
28.8(30) . . .
26.1(28) . . .
30.7(29) . . .
38.9(32) . . .
28.6(28) . . .
30.1(29) . . .
31.5(32) . . .
23.1(25) . . .
27.3(29) . . .
26.6(27) . . .
20.1(23) . . .
35.4(33) . . .
35.2(31) . . .
31.5(29) . . .
28.7(30) . . .
23.8(27) . . .
30.1(31) . . .
28.5(29) . . .
26.9(27) . . .
21.6(25) . . .
26.6(29) . . .
30.1(29) . . .
30.7(30) . . .
22.0(24) . . .
20.8(26) . . .
32.3(32) . . .
29.8(30) . . .
24.6(26) . . .
34.6(33) . . .
25.3(28) . . .
23.7(27) . . .
24.5(27) . . .
26.5(27) . . .
30.3(28) . . .
36.0(34) . . .
27.5(29) . . .
30.5(29) . . .
40.2(33) . . .
22.0(24) . . .
27.1(28) . . .
24.6(28) . . .
30.9(30) . . .
32.9(30) . . .
30.6(30) . . .
27.9(29) . . .
27.0(31) . . .
31.2(32) . . .
26.0(27) . . .
28.0(29) . . .
30.9(31) . . .
35.0(33) . . .
35.8(32) . . .
31.4(29) . . .
26.7(27) . . .
24.8(26) . . .
35.3(34) . . .
27.0(27) . . .
29.9(29) . . .
27.8(28) . . .
23.3(26) . . .
27.4(28) . . .
32.2(30) . . .
30.2(29) . . .
28.7(30) . . .
26.7(29) . . .
23.6(25) . . .
27.5(27) . . .
32.8(30) . . .
24.2(27) . . .
29.9(29) . . .
30.9(31) . . .
28.2(27) . . .
25.5(26) . . .
25.3(26) . . .
29.9(30) . . .
30.5(30) . . .
23.1(25) . . .
25.1(26) . . .
31.6(30) . . .
26.9(27) . . .
32.2(31) . . .
31.3(29) . . .
26.5(28) . . .
26.0(27) . . .
24.6(27) . . .
28.6(30) . . .
22.4(24) . . .
30.0(29) . . .
35.5(32) . . .
34.6(33) . . .
28.5(29) . . .
25.8(26) . . .
25.4(26) . . .
27.8(30) . . .
27.7(32) . . .
23.7(27) . . .
37.1(32) . . .
25.3(26) . . .
28.0(29) . . .
30.8(33) . . .
27.1(29) . . .
28.2(28) . . .
27.8(29) . . .
32.0(32) . . .
32.6(34) . . .
28.5(32) . . .
29.1(28) . . .
26.4(30) . . .
36.3(35) . . .
30.4(30) . . .
27.4(28) . . .
22.1(24) . . .
29.6(30) . . .
32.4(30) . . .
32.0(31) . . .
33.3(32) . . .
30.5(29) . . .
35.9(33) . . .
30.3(31) . . .
29.4(28) . . .
32.9(32) . . .
34.2(30) . . .
29.1(29) . . .
26.7(29) . . .
26.8(30) . . .
24.3(26) . . .
24.7(26) . . .
21.9(25) . . .
32.5(33) . . .
29.3(34) . . .
28.9(29) . . .
24.9(26) . . .
33.3(32) . . .
27.1(30) . . .
25.5(27) . . .
26.8(27) . . .
27.8(27) . . .
30.9(30) . . .
35.9(34) . . .
29.2(29) . . .
26.3(27) . . .
27.9(27) . . .
26.2(27) . . .
25.0(28) . . .
30.1(29) . . .
26.5(26) . . .
28.5(28) . . .
32.7(32) . . .
29.5(29) . . .
37.8(34) . . .
30.5(29) . . .
22.4(24) . . .
29.9(27) . . .
31.3(31) . . .
31.6(32) . . .
37.6(32) . . .
20.5(23) . . .
22.6(25) . . .
28.5(28) . . .
33.4(31) . . .
26.1(27) . . .
30.5(32) . . .
32.5(31) . . .
33.9(30) . . .
28.4(28) . . .
31.5(29) . . .
30.2(29) . . .
31.9(30) . . .
35.0(32) . . .
24.8(26) . . .
22.3(25) . . .
32.3(33) . . .
37.3(35) . . .
26.3(27) . . .
30.8(30) . . .
29.1(28) . . .
31.8(30) . . .
23.1(25) . . .
35.7(33) . . .
35.9(32) . . .
22.8(25) . . .
26.8(29) . . .
28.6(30) . . .
24.2(27) . . .
26.1(27) . . .
32.0(29) . . .
31.5(30) . . .
32.6(34) . . .
27.2(27) . . .
33.3(30) . . .
28.3(28) . . .
31.1(28) . . .
37.8(34) . . .
23.4(25) . . .
30.8(29) . . .
35.8(32) . . .
28.8(28) . . .
28.7(31) . . .
26.3(27) . . .
28.3(28) . . .
19.9(23) . . .
27.0(27) . . .
38.3(34) . . .
40.3(33) . . .
30.8(29) . . .
27.6(27) . . .
26.1(28) . . .
35.0(33) . . .
29.1(28) . . .
26.4(27) . . .
29.1(29) . . .
30.8(31) . . .
27.8(29) . . .
20.5(23) . . .
27.8(27) . . .
24.3(26) . . .
31.1(31) . . .
24.9(26) . . .
31.3(30) . . .
24.9(28) . . .
29.1(31) . . .
36.0(34) . . .
29.4(30) . . .
33.4(31) . . .
29.5(29) . . .
30.8(30) . . .
19.7(24) . . .
28.0(28) . . .
27.2(27) . . .
27.5(27) . . .
29.0(28) . . .
29.2(30) . . .
28.8(28) . . .
31.7(30) . . .
30.9(28) . . .
25.8(28) . . .
20.6(26) . . .
26.2(27) . . .
30.4(28) . . .
30.0(29) . . .
27.4(27) . . .
35.1(35) . . .
23.1(26) . . .
27.8(27) . . .
27.4(28) . . .
29.4(30) . . .
20.9(25) . . .
26.5(28) . . .
37.0(33) . . .
28.4(29) . . .
24.9(26) . . .
28.8(30) . . .
23.0(25) . . .
22.9(25) . . .
29.7(28) . . .
30.0(29) . . .
28.3(27) . . .
27.1(27) . . .
28.5(28) . . .
40.9(34) . . .
24.2(26) . . .
34.0(32) . . .
28.1(27) . . .
29.8(28) . . .
29.6(31) . . .
23.8(25) . . .
31.6(31) . . .
28.1(29) . . .
27.6(27) . . .
33.5(33) . . .
30.8(29) . . .
33.9(30) . . .
36.0(31) . . .
24.9(26) . . .
36.3(33) . . .
28.0(29) . . .
31.9(32) . . .
31.7(30) . . .
28.7(28) . . .
25.8(28) . . .
30.1(32) . . .
29.0(29) . . .
27.0(28) . . .
33.4(30) . . .
32.1(31) . . .
23.2(26) . . .
29.8(29) . . .
29.4(28) . . .
26.5(27) . . .
27.8(29) . . .
27.2(30) . . .
32.6(31) . . .
29.1(28) . . .
28.3(29) . . .
25.3(31) . . .
28.8(31) . . .
29.6(28) . . .
30.0(28) . . .
36.4(31) . . .
30.7(28) . . .
30.9(29) . . .
29.4(29) . . .
26.7(27) . . .
30.2(29) . . .
32.0(31) . . .
34.9(32) . . .
32.3(30) . . .
27.0(27) . . .
28.1(29) . . .
35.4(33) . . .
27.2(28) . . .
24.3(26) . . .
29.7(29) . . .
25.4(27) . . .
21.9(24) . . .
27.6(28) . . .
28.2(27) . . .
27.2(27) . . .
34.6(33) . . .
27.8(28) . . .
34.9(34) . . .
31.7(30) . . .
30.8(29) . . .
22.2(25) . . .
29.9(31) . . .
32.0(30) . . .
24.1(25) . . .
20.7(24) . . .
27.9(29) . . .
34.1(35) . . .
30.1(29) . . .
24.3(26) . . .
24.7(26) . . .
22.9(28) . . .
25.7(27) . . .
33.8(33) . . .
27.7(28) . . .
32.8(30) . . .
24.9(27) . . .
27.2(29) . . .
27.6(28) . . .
23.0(25) . . .
29.8(28) . . .
31.9(31) . . .
25.4(27) . . .
21.5(24) . . .
26.5(27) . . .
30.4(29) . . .
29.8(32) . . .
31.2(32) . . .
28.3(28) . . .
22.6(24) . . .
25.1(27) . . .
33.8(31) . . .
30.1(29) . . .
23.5(27) . . .
30.1(29) . . .
28.3(28) . . .
32.8(30) . . .
29.2(28) . . .
39(4) . . .
28.2(28) . . .
31.2(31) . . .
35.3(34) . . .
25.9(27) . . .
33.2(32) . . .
28.2(28) . . .
24.8(27) . . .
30.8(32) . . .
25.1(26) . . .
24.7(27) . . .
31.4(29) . . .
31.0(32) . . .
24.1(27) . . .
28.5(33) . . .
31.5(30) . . .
28.1(28) . . .
29.0(29) . . .
36(4) . . .
25.6(27) . . .
25.4(26) . . .
28.9(28) . . .
32.0(31) . . .
27.7(30) . . .
30.0(29) . . .
32.6(29) . . .
18.5(22) . . .
31.2(31) . . .
22.7(26) . . .
28.3(29) . . .
26.0(27) . . .
28.9(28) . . .
25.9(27) . . .
30.0(31) . . .
32.2(31) . . .
32.8(30) . . .
28.1(28) . . .
25.1(25) . . .
30.7(32) . . .
33.4(34) . . .
34.1(30) . . .
24.5(26) . . .
24.0(28) . . .
23.7(27) . . .
30.4(34) . . .
23.6(26) . . .
30.6(30) . . .
36.4(34) . . .
31.4(30) . . .
27.1(27) . . .
33.0(29) . . .
25.8(28) . . .
35.0(34) . . .
24.5(27) . . .
26.8(27) . . .
28.5(28) . . .
23.3(25) . . .
18.1(22) . . .
20.8(26) . . .
33.6(30) . . .
35.9(32) . . .
27.5(28) . . .
25.2(30) . . .
33.8(33) . . .
31.5(29) . . .
23.7(26) . . .
29.6(30) . . .
27.8(30) . . .
28.0(28) . . .
32.4(29) . . .
35.1(31) . . .
29.5(29) . . .
29.8(29) . . .
35.8(30) . . .
30.6(29) . . .
17.7(22) . . .
21.7(24) . . .
30.1(30) . . .
25.7(26) . . .
22.9(27) . . .
22.7(25) . . .
20.8(25) . . .
22.8(27) . . .
25.1(28) . . .
27.3(27) . . .
30.8(29) . . .
31.6(30) . . .
32.5(32) . . .
26.0(26) . . .
32.1(30) . . .
31.5(29) . . .
36.2(32) . . .
33.3(33) . . .
24.9(28) . . .
30.6(29) . . .
28.6(29) . . .
26.4(28) . . .
26.9(26) . . .
32.6(29) . . .
32.2(30) . . .
26.3(27) . . .
28.0(28) . . .
33.0(32) . . .
25.2(26) . . .
31.8(29) . . .
34.6(32) . . .
30.3(29) . . .
26.5(26) . . .
30.7(29) . . .
26.9(27) . . .
31.8(34) . . .
28.9(30) . . .
30.8(31) . . .
26.4(27) . . .
23.8(25) . . .
33.7(34) . . .
29.3(31) . . .
34.6(33) . . .
26.1(27) . . .
25.8(27) . . .
27.1(28) . . .
31.0(30) . . .
28.3(28) . . .
27.5(28) . . .
24.9(26) . . .
21.4(27) . . .
24.8(27) . . .
26.9(27) . . .
27.8(28) . . .
26.3(27) . . .
32.2(31) . . .
33.0(34) . . .
26.9(28) . . .
23.7(25) . . .
29.1(29) . . .
23.4(25) . . .
25.0(29) . . .
29.3(31) . . .
34.4(31) . . .
30.7(30) . . .
29.9(30) . . .
33.3(33) . . .
28.1(30) . . .
31.0(30) . . .
28.2(27) . . .
31.7(30) . . .
28.0(28) . . .
29.2(30) . . .
34.6(31) . . .
28.2(28) . . .
29.1(28) . . .
26.2(26) . . .
29.7(28) . . .
33.0(30) . . .
33.5(31) . . .
31.3(31) . . .
25.1(26) . . .
32.7(31) . . .
38.9(33) . . .
22.7(29) . . .
25.2(27) . . .
31.7(29) . . .
36.5(32) . . .
31.5(30) . . .
30.6(30) . . .
27.1(27) . . .
31.5(30) . . .
33.3(31) . . .
27.9(28) . . .
25.2(29) . . .
30.2(32) . . .
24.0(26) . . .
20.2(25) . . .
28.4(28) . . .
27.9(28) . . .
29.6(32) . . .
23.1(26) . . .
27.4(28) . . .
31.9(30) . . .
25.7(27) . . .
27.8(31) . . .
23.5(26) . . .
24.0(25) . . .
33.6(30) . . .
26.8(28) . . .
23.4(27) . . .
36.3(33) . . .
31.7(29) . . .
24.8(28) . . .
21.0(24) . . .
31.4(31) . . .
32.6(30) . . .
29.6(29) . . .
28.6(28) . . .
28.7(30) . . .
32.7(33) . . .
24.8(25) . . .
28.3(27) . . .
27.6(29) . . .
29.0(30) . . .
29.0(30) . . .
29.7(31) . . .
28.2(28) . . .
23.7(28) . . .
28.1(31) . . .
26.5(28) . . .
36.0(31) . . .
32.1(30) . . .
34.3(32) . . .
30.4(30) . . .
24.7(26) . . .
22.4(24) . . .
21.6(24) . . .
30.8(32) . . .
34.4(32) . . .
28.3(29) . . .
27.6(27) . . .
34.9(31) . . .
23.0(26) . . .
24.4(28) . . .
25.2(27) . . .
26.5(27) . . .
29.6(28) . . .
32.1(32) . . .
30.3(31) . . .
23.9(26) . . .
24.9(28) . . .
28.1(28) . . .
30.0(30) . . .
29.2(31) . . .
29.1(29) . . .
33.6(30) . . .
31.8(29) . . .
26.4(28) . . .
23.0(27) . . .
30.1(32) . . .
22.8(25) . . .
28.5(28) . . .
28.5(28) . . .
30.2(32) . . .
32.0(31) . . .
29.9(29) . . .
26.5(26) . . .
33.4(33) . . .
24.4(27) . . .
29.3(28) . . .
26.4(27) . . .
27.6(29) . . .
26.8(29) . . .
28.3(29) . . .
28.7(29) . . .
26.0(26) . . .
30.9(29) . . .
28.1(28) . . .
25.5(28) . . .
28.4(28) . . .
32.9(29) . . .
28.0(28) . . .
29.2(30) . . .
21.8(26) . . .
27.5(29) . . .
29.8(29) . . .
24.5(26) . . .
28.5(29) . . .
29.5(30) . . .
28.0(29) . . .
24.7(26) . . .
28.6(30) . . .
37(4) . . .
29.6(29) . . .
29.7(28) . . .
30.5(29) . . .
24.2(26) . . .
22.8(28) . . .
19.9(24) . . .
26.5(28) . . .
24.4(25) . . .
34.0(32) . . .
30.9(30) . . .
31.8(32) . . .
24.0(27) . . .
22.0(24) . . .
23.3(26) . . .
23.5(27) . . .
35.1(34) . . .
28.5(28) . . .
29.9(29) . . .
35.7(33) . . .
27.8(29) . . .
34.0(31) . . .
38.8(34) . . .
27.8(27) . . .
30.9(28) . . .
28.9(30) . . .
25.1(27) . . .
23.0(25) . . .
20.9(24) . . .
25.6(28) . . .
28.3(28) . . .
23.8(25) . . .
19.3(24) . . .
24.4(26) . . .
30.6(29) . . .
29.8(29) . . .
33.6(31) . . .
32.2(30) . . .
30.9(29) . . .
34.7(33) . . .
32.1(30) . . .
28.5(28) . . .
27.8(28) . . .
33.2(32) . . .
32.6(33) . . .
28.8(29) . . .
22.4(24) . . .
26.8(27) . . .
26.2(27) . . .
25.0(26) . . .
28.0(29) . . .
31.5(30) . . .
21.3(24) . . .
24.4(27) . . .
32.8(32) . . .
26.8(26) . . .
24.1(25) . . .
29.5(29) . . .
33.2(32) . . .
31.6(31) . . .
27.3(28) . . .
23.3(25) . . .
22.1(25) . . .
31.2(30) . . .
26.0(29) . . .
25.4(29) . . .
27.6(27) . . .
25.0(26) . . .
29.4(29) . . .
38(4) . . .
26.3(27) . . .
35.8(31) . . .
31.2(29) . . .
26.4(28) . . .
29.8(31) . . .
29.8(30) . . .
27.9(27) . . .
27.5(27) . . .
29.6(29) . . .
31.7(32) . . .
24.2(27) . . .
29.7(28) . . .
26.8(27) . . .
31.6(33) . . .
35.4(34) . . .
32.2(31) . . .
36.0(31) . . .
30.7(29) . . .
32.8(32) . . .
38.2(35) . . .
30.6(29) . . .
22.8(25) . . .
31.4(31) . . .
26.5(26) . . .
27.2(28) . . .
30.8(32) . . .
30.7(29) . . .
32.0(29) . . .
30.5(30) . . .
33.3(32) . . .
34.0(30) . . .
27.4(27) . . .
25.6(30) . . .
26.5(29) . . .
34.6(32) . . .
28.3(28) . . .
33.4(30) . . .
23.1(28) . . .
18.8(25) . . .
22.5(27) . . .
23.1(25) . . .
29.3(28) . . .
30.0(29) . . .
30.9(30) . . .
30.9(30) . . .
34.5(31) . . .
38.8(32) . . .
29.5(30) . . .
35(4) . . .
22.9(29) . . .
30.7(30) . . .
32.3(30) . . .
19.5(24) . . .
29.5(31) . . .
28.8(28) . . .
33.5(30) . . .
34.9(30) . . .
29.3(28) . . .
28.0(28) . . .
27.5(29) . . .
25.5(27) . . .
29.3(30) . . .
30.0(30) . . .
26.2(29) . . .
32.4(31) . . .
35.6(31) . . .
34.0(30) . . .
34.0(32) . . .
33.6(32) . . .
31.3(30) . . .
26.6(27) . . .
34.1(31) . . .
31.6(29) . . .
35.2(32) . . .
29.0(28) . . .
32.0(30) . . .
30.3(30) . . .
30.1(30) . . .
23.0(24) . . .
23.7(26) . . .
36.4(31) . . .
25.5(27) . . .
31.2(32) . . .
27.6(29) . . .
24.1(26) . . .
26.2(27) . . .
24.1(27) . . .
23.1(26) . . .
27.0(27) . . .
24.6(26) . . .
27.6(27) . . .
24.7(28) . . .
31.2(31) . . .
28.0(27) . . .
34.6(31) . . .
37.7(33) . . .
33.4(32) . . .
32.1(33) . . .
27.0(30) . . .
29.3(28) . . .
22.5(25) . . .
24.7(26) . . .
29.9(31) . . .
29.7(30) . . .
24.3(26) . . .
29.4(30) . . .
25.6(27) . . .
27.0(29) . . .
35.0(32) . . .
33.9(30) . . .
32.4(30) . . .
28.6(29) . . .
30.0(32) . . .
26.4(29) . . .
33.4(31) . . .
23.3(26) . . .
30.3(29) . . .
29.6(29) . . .
34.0(32) . . .
28.3(28) . . .
29.5(29) . . .
25.7(28) . . .
25.4(27) . . .
29.6(29) . . .
24.0(25) . . .
25.0(27) . . .
31.4(29) . . .
27.1(26) . . .
36.8(32) . . .
30.5(29) . . .
29.0(31) . . .
23.3(26) . . .
37.8(34) . . .
31.3(30) . . .
26.9(27) . . .
26.6(28) . . .
25.8(26) . . .
30.6(30) . . .
24.8(28) . . .
20.6(23) . . .
21.6(25) . . .
30.1(30) . . .
30.0(28) . . .
32.2(30) . . .
29.7(29) . . .
24.7(27) . . .
33.4(35) . . .
31.3(30) . . .
34.4(31) . . .
26.8(27) . . .
26.3(29) . . .
28.4(32) . . .
21.6(24) . . .
31.4(29) . . .
32.3(30) . . .
28.9(31) . . .
24.9(28) . . .
25.3(28) . . .
30.1(29) . . .
24.7(27) . . .
27.8(29) . . .
29.2(29) . . .
29.3(28) . . .
33.5(30) . . .
35.7(32) . . .
36(4) . . .
23.2(25) . . .
24.7(27) . . .
19.6(23) . . .
37(4) . . .
27.6(28) . . .
24.0(27) . . .
21.7(25) . . .
28.6(28) . . .
33.8(31) . . .
24.9(27) . . .
28.3(30) . . .
27.7(28) . . .
25.2(26) . . .
23.0(25) . . .
29.2(29) . . .
29.7(28) . . .
27.7(28) . . .
37.2(33) . . .
21.2(24) . . .
20.9(25) . . .
29.0(30) . . .
29.4(28) . . .
23.9(26) . . .
30.2(29) . . .
26.5(27) . . .
28.5(28) . . .
28.7(27) . . .
26.5(27) . . .
32.4(32) . . .
23.9(28) . . .
33.8(33) . . .
35.2(31) . . .
29.3(28) . . .
33.6(33) . . .
33.1(33) . . .
28.7(28) . . .
31.3(29) . . .
27.4(28) . . .
33.4(32) . . .
21.6(25) . . .
31.1(31) . . .
33.0(30) . . .
23.5(25) . . .
29.8(31) . . .
26.5(27) . . .
26.2(30) . . .
30.0(29) . . .
21.6(24) . . .
28.9(28) . . .
26.5(27) . . .
35.7(32) . . .
25.5(26) . . .
26.4(27) . . .
25.9(29) . . .
24.5(28) . . .
26.0(28) . . .
32.1(30) . . .
32.5(31) . . .
25.6(28) . . .
22.1(25) . . .
33.6(31) . . .
28.6(28) . . .
25.5(28) . . .
28.5(31) . . .
26.3(28) . . .
41.0(34) . . .
29.5(28) . . .
26.9(28) . . .
25.0(27) . . .
33.4(31) . . .
25.8(28) . . .
33.1(31) . . .
39.4(34) . . .
25.1(28) . . .
22.4(25) . . .
28.8(28) . . .
24.4(26) . . .
25.0(27) . . .
26.2(29) . . .
25.1(27) . . .
35.7(32) . . .
29.1(30) . . .
22.3(25) . . .
23.4(26) . . .
20.4(24) . . .
23.7(26) . . .
29.5(28) . . .
27.0(28) . . .
25.8(28) . . .
26.2(28) . . .
24.7(26) . . .
25.9(26) . . .
25.9(26) . . .
26.6(28) . . .
27.0(29) . . .
29.0(28) . . .
26.3(29) . . .
25.7(28) . . .
30.8(30) . . .
30.5(28) . . .
25.8(27) . . .
30.5(29) . . .
23.0(26) . . .
23.5(26) . . .
23.1(26) . . .
25.8(26) . . .
25.3(27) . . .
28.3(28) . . .
27.5(29) . . .
36.5(33) . . .
26.2(26) . . .
34.3(35) . . .
31.5(34) . . .
32.5(33) . . .
30.2(29) . . .
19.6(23) . . .
26.4(27) . . .
29.7(30) . . .
26.3(28) . . .
21.6(25) . . .
28.8(28) . . .
26.7(28) . . .
24.2(26) . . .
27.3(29) . . .
29.3(30) . . .
36.0(31) . . .
31.0(29) . . .
19.5(24) . . .
32.4(33) . . .
32.8(30) . . .
30.1(29) . . .
30.0(30) . . .
23.4(24) . . .
25.5(27) . . .
29.4(29) . . .
30.7(29) . . .
28.0(28) . . .
30.9(31) . . .
29.7(31) . . .
30.0(29) . . .
26.0(28) . . .
29.3(29) . . .
28.7(31) . . .
27.5(28) . . .
28.5(28) . . .
25.5(27) . . .
33.9(31) . . .
34.8(33) . . .
32.7(33) . . .
28.5(28) . . .
33.2(30) . . .
29.2(29) . . .
28.7(29) . . .
39.5(33) . . .
25.9(27) . . .
28.1(28) . . .
23.3(26) . . .
23.7(27) . . .
27.0(27) . . .
28.7(28) . . .
28.7(30) . . .
24.8(26) . . .
28.1(29) . . .
29.5(29) . . .
27.6(27) . . .
25.0(26) . . .
26.4(28) . . .
30.0(29) . . .
37.7(33) . . .
25.2(26) . . .
31.3(30) . . .
35.3(35) . . .
29.7(30) . . .
32.0(30) . . .
31.4(29) . . .
26.0(28) . . .
27.1(31) . . .
33.7(32) . . .
27.0(27) . . .
32.8(30) . . .
27.9(28) . . .
20.2(24) . . .
31.9(31) . . .
27.8(27) . . .
25.1(26) . . .
25.5(26) . . .
33.6(32) . . .
26.1(28) . . .
21.4(24) . . .
24.6(25) . . .
29.6(29) . . .
29.8(29) . . .
24.5(26) . . .
24.5(26) . . .
27.8(27) . . .
24.8(26) . . .
31.7(31) . . .
27.5(27) . . .
27.3(28) . . .
20.4(24) . . .
27.9(28) . . .
36.4(35) . . .
30.4(29) . . .
32.5(30) . . .
23.8(25) . . .
30.4(31) . . .
27.9(31) . . .
28.8(29) . . .
36.5(32) . . .
27.3(28) . . .
30.4(29) . . .
26.6(28) . . .
27.6(27) . . .
28.0(28) . . .
33.9(32) . . .
26.5(28) . . .
25.7(28) . . .
27.2(28) . . .
29.9(28) . . .
30.6(30) . . .
27.0(28) . . .
25.5(27) . . .
25.9(27) . . .
29.1(28) . . .
33.9(31) . . .
29.0(29) . . .
22.5(25) . . .
27.3(27) . . .
32.9(30) . . .
35.8(32) . . .
33.2(33) . . .
29.6(29) . . .
26.3(27) . . .
27.8(28) . . .
24.4(27) . . .
36(4) . . .
26.5(28) . . .
22.3(24) . . .
28.9(28) . . .
31.1(31) . . .
25.0(28) . . .
34.0(33) . . .
28.8(28) . . .
35.3(32) . . .
23.0(24) . . .
26.8(30) . . .
28.6(28) . . .
29.6(29) . . .
30.2(29) . . .
30.4(28) . . .
30.0(29) . . .
32.4(30) . . .
26.4(27) . . .
30.0(30) . . .
28.1(30) . . .
22.9(26) . . .
33.6(32) . . .
31.9(29) . . .
24.5(27) . . .
20.6(24) . . .
31.4(30) . . .
38.7(33) . . .
25.7(26) . . .
30.0(32) . . .
36.8(35) . . .
30.0(30) . . .
27.4(29) . . .
30.6(29) . . .
25.9(26) . . .
33.1(31) . . .
26.8(27) . . .
27.3(29) . . .
24.5(25) . . .
28.2(29) . . .
25.5(29) . . .
29.6(30) . . .
32.3(29) . . .
25.4(27) . . .
28.6(32) . . .
23.9(27) . . .
25.6(29) . . .
24.4(27) . . .
28.6(28) . . .
35.1(33) . . .
24.1(27) . . .
31.9(29) . . .
30.2(28) . . .
34.7(31) . . .
30.7(30) . . .
22.2(25) . . .
21.4(25) . . .
30.0(28) . . .
25.1(26) . . .
33.2(31) . . .
28.7(28) . . .
31.6(32) . . .
31.9(29) . . .
26.9(27) . . .
41(4) . . .
23.4(26) . . .
22.0(24) . . .
30.3(29) . . .
27.6(28) . . .
41(4) . . .
25.8(28) . . .
25.8(28) . . .
24.4(26) . . .
27.8(29) . . .
33.3(33) . . .
28.3(29) . . .
25.6(27) . . .
22.7(25) . . .
30.1(31) . . .
33.0(34) . . .
20.7(23) . . .
28.9(29) . . .
22.4(25) . . .
29.9(29) . . .
32.3(31) . . .
30.9(31) . . .
24.2(26) . . .
23.9(25) . . .
32.7(31) . . .
25.9(27) . . .
23.3(26) . . .
31.6(29) . . .
35.8(32) . . .
25.1(26) . . .
27.0(30) . . .
30.5(30) . . .
29.4(28) . . .
33.4(30) . . .
30.5(32) . . .
32.4(34) . . .
26.5(28) . . .
35.2(31) . . .
30.2(29) . . .
34.0(32) . . .
31.6(32) . . .
29.8(29) . . .
25.6(26) . . .
28.5(28) . . .
28.3(28) . . .
27.0(27) . . .
30.4(28) . . .
32.1(30) . . .
30.8(29) . . .
28.7(29) . . .
27.0(27) . . .
34.1(32) . . .
26.1(27) . . .
35.7(32) . . .
28.3(28) . . .
28.2(28) . . .
29.2(29) . . .
27.1(27) . . .
23.7(26) . . .
34.1(34) . . .
22.7(25) . . .
28.1(29) . . .
29.2(28) . . .
25.9(27) . . .
27.0(27) . . .
26.7(28) . . .
24.5(26) . . .
33.4(30) . . .
32.0(32) . . .
24.4(29) . . .
loop_
_refln_index_h
_refln_index_k
_refln_index_l
_refln_observed_status
_refln_F_squared_meas
_refln_F_squared_calc
_refln_phase_calc
_refln_d_spacing
_gsas_i100_meas
0 0 2 o 453.965 433.605 180.00 6.58982 0.31
0 2 0 o 1096.663 1526.412 180.00 8.20161 1.15
0 1 3 o 238.106 40.464 180.00 4.24365 0.13
0 2 2 o 33407.820 33164.320 0.00 5.13706 27.51
0 3 1 o 1339.482 1476.379 180.00 5.05037 1.07
0 0 4 o 237.992 204.331 180.00 3.29491 0.04
1 0 1 o 12787.039 13026.859 0.00 5.87886 13.78
1 1 2 o 5267.873 3942.741 0.00 4.47564 6.59
0 4 0 o 2885.506 1668.101 0.00 4.10081 0.76
1 0 3 o 486.256 297.076 180.00 3.65173 0.20
1 2 1 o 1852.985 1731.339 0.00 4.77815 2.64
0 2 4 o 1071.446 677.381 0.00 3.05741 0.31
0 1 5 o 1153.299 1515.541 180.00 2.60254 0.25
0 3 3 o 13403.413 13480.361 0.00 3.42470 4.92
1 1 4 o 66.823 59.630 0.00 2.89879 0.04
0 4 2 o 1.253 18.352 0.00 3.48170 0.00
1 2 3 o 876.599 884.334 0.00 3.33600 0.61
0 5 1 o 11.286 15.381 180.00 3.18350 0.00
1 3 2 o 3597.342 3848.692 0.00 3.54320 2.82
1 0 5 o 632.278 699.847 180.00 2.44630 0.12
0 0 6 o 1557.302 2175.119 0.00 2.19661 0.12
1 4 1 o 743.853 771.260 180.00 3.36338 0.53
0 3 5 o 73.804 129.104 0.00 2.37441 0.01
0 2 6 o 506.788 743.088 180.00 2.12182 0.07
0 6 0 o 1907.471 2187.917 0.00 2.73387 0.22
1 3 4 o 42.859 45.248 0.00 2.59292 0.02
1 1 6 o 1105.063 1030.227 180.00 2.06661 0.30
0 1 7 o 284.912 951.769 0.00 1.87052 0.03
1 2 5 o 273.694 405.675 0.00 2.34424 0.09
0 4 4 o 9867.777 11764.957 0.00 2.56853 2.04
0 5 3 o 204.314 343.586 180.00 2.62861 0.04
1 0 7 o 917.589 1027.910 0.00 1.80992 0.10
0 6 2 o 126.246 448.576 0.00 2.52519 0.03
1 4 3 o 4958.112 5460.910 0.00 2.72717 2.31
1 5 2 o 2594.380 2623.416 180.00 2.68106 1.17
0 7 1 o 194.663 305.390 0.00 2.30713 0.03
0 0 8 o 120.220 393.242 180.00 1.64745 0.01
2 0 0 o 2471.739 2253.001 180.00 3.28426 0.42
1 6 1 o 667.824 820.149 0.00 2.47894 0.26
2 0 2 o 499.392 303.263 0.00 2.93943 0.14
1 3 6 o 1338.009 1000.124 0.00 1.94670 0.32
0 3 7 o 1328.989 1324.559 0.00 1.78022 0.13
0 4 6 o 3935.875 2996.001 180.00 1.93631 0.47
2 1 1 o 915.446 861.843 180.00 3.12831 0.56
1 2 7 o 1493.271 1497.870 180.00 1.76740 0.30
0 2 8 o 0.000 1061.175 180.00 1.61519 0.00
1 4 5 o 189.062 168.997 180.00 2.10088 0.05
2 1 3 o 1053.922 1100.504 0.00 2.59728 0.45
2 0 4 o 1820.376 1591.751 180.00 2.32608 0.31
2 2 0 o 68.325 50.890 0.00 3.04890 0.02
1 1 8 o 0.000 1225.841 0.00 1.59043 0.00
0 1 9 o 982.735 1255.326 0.00 1.45860 0.07
0 5 5 o 25349.572 23498.791 0.00 2.05482 3.38
0 8 0 o 141.846 120.651 0.00 2.05040 0.01
2 2 2 o 2203.980 2068.795 180.00 2.76708 1.06
1 5 4 o 6299.669 6705.887 0.00 2.19158 1.91
2 3 1 o 604.194 616.954 0.00 2.75329 0.29
2 1 5 o 261.998 184.379 180.00 2.03975 0.07
1 6 3 o 4520.441 4673.105 180.00 2.18851 1.36
2 2 4 o 2.056 18.597 0.00 2.23782 0.00
2 4 0 o 1521.897 1858.737 180.00 2.56347 0.31
0 6 4 o 8020.278 7089.650 180.00 2.10395 1.12
2 3 3 o 18.110 47.707 180.00 2.37042 0.01
1 7 2 o 2736.995 2579.995 0.00 2.09282 0.76
2 0 6 o 0.046 0.069 180.00 1.82586 0.00
1 0 9 o 338.252 1278.768 180.00 1.42931 0.02
0 0 10 o 4200.806 6175.571 180.00 1.31796 0.12
0 7 3 o 7104.115 6860.565 0.00 2.06758 0.96
0 8 2 o 2401.708 1797.469 180.00 1.95782 0.29
1 3 8 o 15.123 28.217 0.00 1.53380 0.00
0 3 9 o 29.673 49.901 0.00 1.41455 0.00
0 4 8 o 60.002 108.275 180.00 1.52870 0.00
1 4 7 o 47.786 186.811 180.00 1.65582 0.01
0 2 10 o 4.884 5.360 180.00 1.30127 0.00
2 4 2 o 177.868 324.204 180.00 2.38908 0.06
1 8 1 o 744.246 567.339 180.00 1.93603 0.18
1 2 9 o 23.685 36.362 180.00 1.40809 0.00
2 5 1 o 0.000 13.515 0.00 2.28587 0.00
2 2 6 o 723.808 724.390 180.00 1.78223 0.15
2 3 5 o 890.290 657.417 0.00 1.92421 0.21
1 1 10 o 1.907 1.990 0.00 1.28822 0.00
0 5 7 o 1.499 12.038 180.00 1.63298 0.00
0 9 1 o 3599.494 3884.851 0.00 1.80540 0.37
1 5 6 o 816.443 874.166 0.00 1.75861 0.16
2 1 7 o 8.290 191.516 0.00 1.62539 0.00
2 6 0 o 2980.700 2610.758 180.00 2.10117 0.41
2 0 8 o 332.197 406.307 180.00 1.47257 0.02
0 6 6 o 5436.266 6858.267 0.00 1.71235 0.51
2 4 4 o 1290.974 864.552 180.00 2.02326 0.33
1 4 9 o 0.162 0.167 180.00 1.34968 0.00
1 6 5 o 595.190 769.145 0.00 1.82302 0.13
2 3 7 o 820.680 1871.348 180.00 1.56508 0.13
2 2 8 o 654.035 1072.032 0.00 1.44940 0.09
0 10 0 o 3877.124 9848.986 180.00 1.64032 0.17
2 5 3 o 79.771 76.591 0.00 2.05223 0.02
0 7 5 o 1287.521 1064.074 180.00 1.75133 0.13
1 7 4 o 258.980 507.706 180.00 1.83370 0.06
1 5 8 o 4.156 50.671 180.00 1.43660 0.00
2 6 2 o 605.077 479.953 180.00 2.00187 0.15
1 8 3 o 145.001 183.019 0.00 1.78785 0.03
0 8 4 o 1222.320 1316.077 0.00 1.74085 0.12
1 3 10 o 0.252 0.202 180.00 1.25757 0.00
0 4 10 o 29.529 22.844 180.00 1.25475 0.00
2 7 1 o 467.892 617.544 180.00 1.88787 0.11
0 9 3 o 43.097 50.597 180.00 1.68346 0.00
2 4 6 o 1384.386 2072.169 0.00 1.66800 0.24
0 5 9 o 2.358 2.392 180.00 1.33723 0.00
1 6 7 o 138.156 421.262 0.00 1.50916 0.02
1 9 2 o 20.546 24.455 0.00 1.69700 0.00
2 1 9 o 956.731 1169.230 180.00 1.33305 0.11
0 10 2 o 100.201 1079.475 0.00 1.59175 0.01
2 5 5 o 2095.156 2223.049 180.00 1.74197 0.40
2 0 10 o 3096.721 2026.089 0.00 1.22315 0.15
2 8 0 o 7.168 8.682 0.00 1.73928 0.00
0 6 8 o 65.018 85.163 180.00 1.41105 0.00
1 10 1 o 0.000 441.592 180.00 1.57997 0.00
0 7 7 o 4431.409 5219.515 0.00 1.46773 0.31
2 3 9 o 925.910 977.021 0.00 1.29917 0.10
2 2 10 o 1042.446 839.734 180.00 1.20977 0.10
1 7 6 o 363.502 686.078 0.00 1.55692 0.06
2 6 4 o 1097.594 757.535 0.00 1.77160 0.22
2 4 8 o 1555.259 1651.592 180.00 1.38592 0.19
3 0 1 o 2545.211 2369.572 180.00 2.15991 0.37
0 11 1 o 5037.346 5006.815 180.00 1.48175 0.35
3 1 2 o 2729.933 2677.742 180.00 2.06135 0.73
2 8 2 o 93.727 118.123 180.00 1.68169 0.02
3 0 3 o 3889.780 3026.128 0.00 1.95962 0.47
2 7 3 o 1448.931 1320.832 180.00 1.74972 0.28
3 1 4 o 3660.382 3725.461 0.00 1.81243 0.76
3 2 1 o 29.383 27.443 0.00 2.08869 0.01
2 5 7 o 2160.514 2239.694 0.00 1.46221 0.30
1 6 9 o 89.981 79.276 180.00 1.26665 0.01
1 9 4 o 176.436 304.773 0.00 1.54982 0.03
3 0 5 o 2682.502 3108.622 180.00 1.68425 0.24
2 9 1 o 0.000 21.085 180.00 1.58211 0.00
3 1 6 o 158.764 215.646 180.00 1.54384 0.02
3 2 3 o 5483.149 4100.569 180.00 1.90597 1.26
1 8 5 o 106.337 577.932 180.00 1.57142 0.02
0 9 5 o 807.782 1187.376 0.00 1.49912 0.06
0 8 6 o 740.526 1053.937 180.00 1.49888 0.05
1 10 3 o 1.042 1.468 180.00 1.49630 0.00
3 3 2 o 1135.845 767.972 0.00 1.94230 0.27
0 12 0 o 2943.079 3165.374 0.00 1.36694 0.09
3 0 7 o 42.736 238.095 180.00 1.42757 0.00
3 2 5 o 73.610 375.730 0.00 1.64983 0.01
2 6 6 o 1435.066 2533.877 180.00 1.51837 0.21
1 11 2 o 64.720 179.636 180.00 1.42003 0.01
0 7 9 o 510.835 279.864 0.00 1.24185 0.03
3 4 1 o 1023.198 761.484 180.00 1.91103 0.24
3 3 4 o 144.296 338.832 180.00 1.72991 0.03
0 11 3 o 696.233 886.871 0.00 1.41207 0.04
1 7 8 o 234.438 408.334 0.00 1.32021 0.03
0 10 4 o 47.453 57.280 180.00 1.46842 0.00
3 2 7 o 11.171 17.113 0.00 1.40642 0.00
3 1 8 o 583.059 825.474 180.00 1.31221 0.06
2 7 5 o 1232.005 1302.088 0.00 1.54534 0.19
2 6 8 o 2933.419 2972.525 0.00 1.29646 0.32
3 4 3 o 257.262 228.169 180.00 1.76811 0.05
2 5 9 o 3727.810 1951.864 180.00 1.23850 0.37
2 9 3 o 9.103 14.337 0.00 1.49811 0.00
2 10 0 o 19.959 23.156 0.00 1.46747 0.00
3 3 6 o 16.632 18.053 0.00 1.49188 0.00
3 5 2 o 256.609 237.681 0.00 1.75536 0.05
0 8 8 o 945.005 1010.521 0.00 1.28426 0.05
0 12 2 o 3904.383 3703.469 180.00 1.33844 0.23
2 8 4 o 1572.698 2104.725 180.00 1.53813 0.24
1 12 1 o 4.434 6.050 180.00 1.33142 0.00
1 8 7 o 346.550 355.393 0.00 1.35690 0.04
3 4 5 o 11.218 21.713 180.00 1.55797 0.00
3 0 9 o 2155.989 1669.669 0.00 1.21724 0.10
3 6 1 o 1681.381 1868.230 180.00 1.69479 0.31
2 10 2 o 82.703 297.576 180.00 1.43239 0.01
1 9 6 o 348.483 394.761 180.00 1.37171 0.04
2 7 7 o 4101.086 3476.031 180.00 1.34001 0.47
0 9 7 o 1.475 1.856 0.00 1.30953 0.00
0 13 1 o 3416.609 2706.045 0.00 1.25604 0.17
1 10 5 o 285.307 282.749 0.00 1.36240 0.03
3 3 8 o 46.000 49.753 180.00 1.27985 0.00
2 11 1 o 188.477 200.273 0.00 1.35065 0.02
3 5 4 o 173.572 448.402 180.00 1.59390 0.03
3 4 7 o 292.854 288.198 0.00 1.34821 0.03
3 6 3 o 153.062 336.938 0.00 1.59272 0.02
0 10 6 o 0.190 0.253 180.00 1.31430 0.00
3 7 2 o 1100.533 1885.431 180.00 1.55467 0.17
2 8 6 o 2719.565 2456.829 0.00 1.36358 0.32
1 12 3 o 36.968 39.927 180.00 1.28018 0.00
1 11 4 o 14.444 22.230 180.00 1.33039 0.00
3 8 1 o 1.216 1.087 0.00 1.48706 0.00
0 11 5 o 590.402 583.017 0.00 1.29790 0.03
3 5 6 o 81.344 273.453 180.00 1.40198 0.01
1 13 2 o 66.893 52.357 180.00 1.21779 0.01
0 12 4 o 11.452 9.869 180.00 1.26259 0.00
0 13 3 o 728.448 607.350 180.00 1.21276 0.03
2 12 0 o 592.563 499.243 180.00 1.26199 0.03
2 9 5 o 4083.565 3650.331 180.00 1.36377 0.49
2 11 3 o 1201.253 1210.870 180.00 1.29725 0.13
3 5 8 o 580.604 419.232 0.00 1.22173 0.06
2 10 4 o 652.824 542.548 0.00 1.34053 0.08
2 12 2 o 1582.744 819.657 0.00 1.23947 0.16
3 6 5 o 5.656 26.535 180.00 1.43397 0.00
3 8 3 o 390.339 846.343 180.00 1.41667 0.05
3 7 4 o 0.000 10.229 0.00 1.43915 0.00
3 6 7 o 479.887 425.055 180.00 1.26543 0.05
1 10 7 o 220.674 179.128 180.00 1.21543 0.02
1 11 6 o 162.241 154.916 0.00 1.21256 0.02
4 0 0 o 2296.811 3414.550 0.00 1.64213 0.10
3 9 2 o 50.242 58.516 180.00 1.37016 0.01
4 0 2 o 74.050 148.344 180.00 1.59340 0.01
4 1 1 o 686.449 1289.978 0.00 1.62155 0.11
4 1 3 o 187.322 451.928 180.00 1.53147 0.03
4 0 4 o 687.471 851.705 0.00 1.46971 0.05
2 9 7 o 16.267 13.143 0.00 1.21640 0.00
4 2 0 o 54.873 265.837 180.00 1.61017 0.00
3 10 1 o 20.288 25.010 0.00 1.30631 0.00
4 1 5 o 989.401 1032.453 0.00 1.38878 0.12
4 2 2 o 1347.380 2039.956 0.00 1.56416 0.21
4 3 1 o 560.322 776.727 180.00 1.56165 0.09
4 2 4 o 478.553 645.559 180.00 1.44667 0.06
3 7 6 o 22.051 21.475 0.00 1.29320 0.00
4 0 6 o 769.862 1171.991 180.00 1.31523 0.04
2 10 6 o 232.720 205.833 180.00 1.22022 0.02
4 4 0 o 922.045 1553.531 0.00 1.52445 0.07
3 8 5 o 73.343 70.251 180.00 1.30147 0.01
4 1 7 o 814.163 407.405 180.00 1.23405 0.08
4 2 6 o 297.830 301.121 0.00 1.29864 0.03
4 3 3 o 2718.157 2400.760 0.00 1.48071 0.38
3 9 4 o 220.107 221.469 180.00 1.28912 0.02
4 3 5 o 101.813 112.403 180.00 1.35060 0.01
4 4 2 o 1598.141 1215.219 180.00 1.48522 0.23
4 5 1 o 1971.223 2202.155 0.00 1.45941 0.27
3 10 3 o 456.298 370.849 180.00 1.25782 0.05
3 11 2 o 307.077 260.878 0.00 1.21150 0.03
4 4 4 o 1041.016 1059.377 0.00 1.38354 0.13
4 5 3 o 498.579 453.509 180.00 1.39270 0.06
4 6 0 o 2884.955 3124.868 180.00 1.40770 0.18
4 4 6 o 108.912 76.178 180.00 1.25240 0.01
4 6 2 o 1009.449 1156.062 0.00 1.37664 0.12
4 7 1 o 2314.345 2048.853 180.00 1.33785 0.27
4 5 5 o 699.517 782.890 0.00 1.28281 0.07
4 8 0 o 1381.487 1499.786 0.00 1.28174 0.07
4 6 4 o 347.766 329.512 180.00 1.29451 0.04
4 8 2 o 2120.116 1710.188 180.00 1.25816 0.22
4 7 3 o 849.996 882.799 0.00 1.28590 0.09
4 9 1 o 1695.737 1397.688 0.00 1.21479 0.16
5 0 1 o 2091.732 2624.283 0.00 1.30723 0.12
5 1 2 o 576.674 604.861 0.00 1.28440 0.06
5 0 3 o 0.216 0.167 0.00 1.25864 0.00
5 1 4 o 10.472 8.645 0.00 1.21692 0.00
5 2 1 o 545.876 648.033 0.00 1.29093 0.06
5 2 3 o 864.907 453.259 0.00 1.24407 0.09
5 3 2 o 825.813 662.285 0.00 1.25401 0.08
5 4 1 o 1.225 0.915 180.00 1.24548 0.00
