#------------------------------------------------------------------------------
#$Date: 2019-10-29 23:16:44 +0200 (Tue, 29 Oct 2019) $
#$Revision: 220404 $
#$URL: file:///home/coder/svn-repositories/cod/cif/4/00/29/4002980.cif $
#------------------------------------------------------------------------------
#
# This file is available in the Crystallography Open Database (COD),
# http://www.crystallography.net/
#
# All data on this site have been placed in the public domain by the
# contributors.
#
data_4002980
loop_
_publ_author_name
'Cao, Liling'
'Song, Yunxia'
'Peng, Guang'
'Luo, Min'
'Yang, Yi'
'Lin, Chen-sheng'
'Zhao, Dan'
'Xu, Feng'
'Lin, Zheshuai'
'Ye, Ning'
_publ_section_title
;
 Refractive Index Modulates Second-Harmonic Responses in RE8O(CO3)3(OH)15X
 (RE = Y, Lu; X = Cl, Br): Rare-Earth Halide Carbonates as Ultraviolet
 Nonlinear Optical Materials
;
_journal_issue                   6
_journal_name_full               'Chemistry of Materials'
_journal_page_first              2130
_journal_paper_doi               10.1021/acs.chemmater.9b00068
_journal_volume                  31
_journal_year                    2019
_chemical_formula_sum            'C3 H0 Br Cs0 N0 O25 Y8 Zn0'
_chemical_formula_weight         1227.22
_space_group_crystal_system      hexagonal
_space_group_IT_number           173
_space_group_name_Hall           'P 6c'
_space_group_name_H-M_alt        'P 63'
_symmetry_space_group_name_Hall  'P 6c'
_symmetry_space_group_name_H-M   'P 63'
_audit_creation_method           SHELXL-2014/7
_cell_angle_alpha                90
_cell_angle_beta                 90
_cell_angle_gamma                120
_cell_formula_units_Z            2
_cell_length_a                   9.4927(9)
_cell_length_b                   9.4927(9)
_cell_length_c                   14.752(3)
_cell_measurement_reflns_used    4115
_cell_measurement_temperature    293(2)
_cell_measurement_theta_max      27.4829
_cell_measurement_theta_min      2.4775
_cell_volume                     1151.2(3)
_computing_cell_refinement       'CrystalClear (Rigaku Inc., 2008)'
_computing_data_collection       'CrystalClear (Rigaku Inc., 2008)'
_computing_data_reduction        'CrystalClear (Rigaku Inc., 2008)'
_computing_structure_refinement  'SHELXL-2014/7 (Sheldrick, 2014)'
_diffrn_ambient_temperature      293(2)
_diffrn_detector_area_resol_mean 28.5714
_diffrn_measured_fraction_theta_full 1.000
_diffrn_measured_fraction_theta_max 0.998
_diffrn_measurement_device
;
Saturn724+ (2x2 bin mode)
;
_diffrn_measurement_method       CCD_Profile_fitting
_diffrn_radiation_type           MoK\a
_diffrn_radiation_wavelength     0.71073
_diffrn_reflns_av_R_equivalents  0.1188
_diffrn_reflns_av_unetI/netI     0.1487
_diffrn_reflns_Laue_measured_fraction_full 1.000
_diffrn_reflns_Laue_measured_fraction_max 0.998
_diffrn_reflns_limit_h_max       12
_diffrn_reflns_limit_h_min       -9
_diffrn_reflns_limit_k_max       11
_diffrn_reflns_limit_k_min       -12
_diffrn_reflns_limit_l_max       19
_diffrn_reflns_limit_l_min       -9
_diffrn_reflns_number            4489
_diffrn_reflns_point_group_measured_fraction_full 1.000
_diffrn_reflns_point_group_measured_fraction_max 0.998
_diffrn_reflns_theta_full        25.242
_diffrn_reflns_theta_max         27.482
_diffrn_reflns_theta_min         2.477
_exptl_absorpt_coefficient_mu    21.758
_exptl_absorpt_correction_T_max  0.0000
_exptl_absorpt_correction_T_min  0.0000
_exptl_absorpt_correction_type   multi-scan
_exptl_crystal_colour            White
_exptl_crystal_density_diffrn    3.540
_exptl_crystal_description       Prism
_exptl_crystal_F_000             1130
_exptl_crystal_size_max          0.2000
_exptl_crystal_size_mid          0.2000
_exptl_crystal_size_min          0.1000
_refine_diff_density_max         2.032
_refine_diff_density_min         -1.754
_refine_diff_density_rms         0.256
_refine_ls_abs_structure_details
;
 Refined as an inversion twin.
;
_refine_ls_abs_structure_Flack   0.60(5)
_refine_ls_extinction_coef       0.0022(7)
_refine_ls_extinction_expression Fc^*^=kFc[1+0.001xFc^2^\l^3^/sin(2\q)]^-1/4^
_refine_ls_extinction_method     'SHELXL-2014/7 (Sheldrick 2014'
_refine_ls_goodness_of_fit_ref   0.981
_refine_ls_hydrogen_treatment    undef
_refine_ls_matrix_type           full
_refine_ls_number_parameters     103
_refine_ls_number_reflns         1429
_refine_ls_number_restraints     73
_refine_ls_restrained_S_all      0.983
_refine_ls_R_factor_all          0.0600
_refine_ls_R_factor_gt           0.0502
_refine_ls_shift/su_max          0.000
_refine_ls_shift/su_mean         0.000
_refine_ls_structure_factor_coef Fsqd
_refine_ls_weighting_details
'w=1/[\s^2^(Fo^2^)+(0.0138P)^2^] where P=(Fo^2^+2Fc^2^)/3'
_refine_ls_weighting_scheme      calc
_refine_ls_wR_factor_gt          0.1014
_refine_ls_wR_factor_ref         0.1053
_reflns_Friedel_coverage         0.924
_reflns_Friedel_fraction_full    1.000
_reflns_Friedel_fraction_max     0.998
_reflns_number_gt                1153
_reflns_number_total             1429
_reflns_threshold_expression     'I > 2\s(I)'
_cod_data_source_file            cm9b00068_si_004.cif
_cod_data_source_block           1
_cod_depositor_comments
;
The following automatic conversions were performed:

'_exptl_absorpt_correction_type' value 'Multi-scan' changed to
'multi-scan' according to
/home/data/users/saulius/crontab/automatic-downloads/current/ACS/lib/dictionaries/cif_core.dic
dictionary named 'cif_core.dic' version 2.4.2 from 2011-04-26.

Automatic conversion script
Id: cif_fix_values 4973 2017-02-22 13:04:09Z antanas 
;
_cod_original_cell_volume        1151.3(3)
_cod_database_code               4002980
_shelx_shelxl_version_number     2014/7
_shelx_space_group_comment
;
The symmetry employed for this shelxl refinement is uniquely defined
by the following loop, which should always be used as a source of
symmetry information in preference to the above space-group names.
They are only intended as comments.
;
_shelx_res_file
;

    1.res created by SHELXL-2014/7


TITL 1 in P6(3)
CELL 0.71073   9.4927   9.4927  14.7524  90.000  90.000 120.000
ZERR    2.00   0.0009   0.0009   0.0033   0.000   0.000   0.000
LATT -1
SYMM -Y, X-Y, Z
SYMM -X+Y, -X, Z
SYMM -X, -Y, 0.5+Z
SYMM Y, -X+Y, 0.5+Z
SYMM X-Y, X, 0.5+Z
SFAC C H N O ZN BR Y CS
UNIT 6 0 0 50 0 2 16 0

L.S. 30
BOND
FMAP 2
PLAN 20
ACTA
TWIN
ISOR 0.001
WGHT    0.013800
EXTI    0.002198
BASF   0.59991
FVAR       0.18499
Y1    7    0.589080    0.718451    0.232102    11.00000    0.00822    0.00725 =
         0.00822    0.00038    0.00091    0.00398
Y2    7    0.429704    0.293301    0.141009    11.00000    0.00783    0.00777 =
         0.00909    0.00067    0.00096    0.00415
Y3    7    0.666667    0.333333   -0.064227    10.33333    0.00910    0.00910 =
         0.00821    0.00000    0.00000    0.00455
Y4    7    0.000000    0.000000    0.110691    10.33333    0.00841    0.00841 =
         0.00596    0.00000    0.00000    0.00421
BR    6    0.666667    0.333333    0.438854    10.33333    0.04278    0.04278 =
         0.02235    0.00000    0.00000    0.02139
O1    4    0.490985    0.864711    0.139819    11.00000    0.00810    0.00792 =
         0.00745   -0.00012    0.00012    0.00396
O2    4    0.634660    0.497487    0.237327    11.00000    0.01102    0.01155 =
         0.01090   -0.00021    0.00000    0.00579
O3    4   -0.191887   -0.008679    0.221078    11.00000    0.00879
O4    4    0.745700    0.764383    0.363331    11.00000    0.01248
O5    4    0.274564    0.016032    0.110001    11.00000    0.01023    0.00968 =
         0.00977   -0.00036    0.00037    0.00469
O6    4    0.633837    0.481460   -0.175237    11.00000    0.01057    0.01066 =
         0.00986    0.00002   -0.00020    0.00541
O7    4    0.691348    0.118314   -0.019824    11.00000    0.01787    0.01764 =
         0.01786    0.00007    0.00005    0.00907
O8    4    0.169343    0.200938    0.005489    11.00000    0.01821    0.01814 =
         0.01827    0.00006    0.00072    0.00906
O9    4    0.666667    0.333333    0.086809    10.33333    0.02211
C1    1    0.276761    0.245860   -0.052247    11.00000    0.00992    0.00959 =
         0.00968   -0.00004    0.00003    0.00485

HKLF 4

REM  1 in P6(3)
REM R1 =  0.0502 for    1153 Fo > 4sig(Fo)  and  0.0600 for all    1429 data
REM    103 parameters refined using     73 restraints

END

WGHT      0.0138      0.0000

REM Highest difference peak  2.032,  deepest hole -1.754,  1-sigma level  0.256
Q1    1   0.0000  0.0000  0.0561  10.33333  0.05    2.03
Q2    1   0.4275  0.2908  0.0839  11.00000  0.05    1.88
Q3    1   0.4333  0.2889  0.1885  11.00000  0.05    1.69
Q4    1   0.0000  0.0000  0.1707  10.33333  0.05    1.68
Q5    1   0.5750  0.6989  0.2898  11.00000  0.05    1.68
Q6    1   0.5732  0.7065  0.1821  11.00000  0.05    1.61
Q7    1   0.7225  0.3978  0.4379  11.00000  0.05    1.50
Q8    1   0.0000  0.0000  0.3129  10.33333  0.05    1.22
Q9    1   0.6667  0.3333  0.5022  10.33333  0.05    1.17
Q10   1   0.2845 -0.1400  0.0609  11.00000  0.05    1.07
Q11   1   0.4469  0.8007  0.0935  11.00000  0.05    0.96
Q12   1   0.5648  0.4219 -0.1833  11.00000  0.05    0.93
Q13   1  -0.1556  0.0446  0.2686  11.00000  0.05    0.85
Q14   1   0.4366  0.3029  0.3054  11.00000  0.05    0.80
Q15   1   0.6393  0.5598  0.2384  11.00000  0.05    0.74
Q16   1   0.6567  0.2753 -0.0025  11.00000  0.05    0.74
Q17   1   0.5763  0.4080  0.2736  11.00000  0.05    0.73
Q18   1   0.6667  0.3333  0.3700  10.33333  0.05    0.72
Q19   1   0.2806 -0.0580  0.1572  11.00000  0.05    0.71
Q20   1   0.7002  0.4993 -0.1479  11.00000  0.05    0.71
;
_shelx_res_checksum              81324
_shelx_hkl_file
;
   0   0   2 1771.09  231.27
   0   0   3    1.32    2.98
   0   0  -3    2.56    1.47
   0   0   4 1893.64  247.55
   0   0  -4 1732.20  226.29
   0   0   5    6.29    6.39
   0   0  -5    2.81    1.78
   0   0   6 1313.62  172.16
   0   0   7    1.01    5.17
   0   0   8 2037.84  569.84
   0   0   9   -1.51    6.49
   0   0  10 4634.11 1295.30
   0   0  11    1.26    7.00
   0   0  12  665.63   56.17
   0   0  13   -2.27    7.50
   0   0  14 1354.43  484.68
   0   0  15    5.02    5.07
   0   0  16  118.98   24.74
   0   0  17    5.14    7.90
   0   0  18   18.65   13.30
   0   0  19    4.54    6.86
   1  -1  19   67.76   38.39
  -1   0  19   77.52   35.32
   0   1  19   90.83   51.11
   1  -1  18   33.78   21.14
  -1   0  18   28.51   20.96
   0   1  18   44.66   31.44
   1  -1  17   79.23   48.46
  -1   0  17   66.79   28.34
   0   1  17   97.41   23.28
   1  -1  16   52.30   29.88
  -1   0  16   58.06   18.09
   0   1  16   83.18   17.83
   1  -1  15  121.99   38.43
  -1   0  15  120.39   16.17
   0   1  15  144.04   19.47
   1  -1  14  166.87   37.88
  -1   0  14  160.71   35.70
   0   1  14  168.51   37.22
   1  -1  13   66.37   16.49
  -1   0  13   63.65   33.46
   0   1  13   79.66   52.11
   1  -1  12  118.48   15.61
  -1   0  12  112.16   30.53
   0   1  12  139.97   17.07
  -1   0  11    6.75    6.07
   0   1  11    7.47    7.88
   1  -1  10  294.89   23.82
  -1   0  10  355.05   32.10
   0   1  10  378.88   32.79
   1  -1   9  107.37   37.56
  -1   0   9   99.16   28.79
   0   1   9  117.95   14.44
   1  -1   8  216.73   18.02
  -1   0   8  238.32   18.40
   0   1   8  251.94   19.99
   1  -1   7  193.00   15.86
  -1   0   7  220.98   17.29
   0   1   7  233.16   18.00
   1  -1   6   39.00   11.32
  -1   0   6   37.04   11.14
   0   1   6   44.56   13.16
   1   0  -6   29.48    2.93
   1  -1   5  241.37   20.94
  -1   0   5  239.91   17.83
   0   1   5  260.90   19.19
   1   0  -5  202.76   14.47
   1  -1   4  242.00   18.68
  -1   1  -4  262.92   19.37
  -1   0   4  216.85   15.73
   1   0  -4  181.67   12.93
   0   1   4  245.80   17.74
   0  -1  -4  189.73   13.64
   1  -1   3  302.32   22.17
  -1   0   3  242.68   17.22
   1   0  -3  215.56   15.08
   0   1   3  264.46   18.71
   0  -1  -3  234.28   16.53
   1  -1   2  175.06   13.25
  -1   1  -2  170.44   12.87
  -1   0   2  122.83    8.67
   0   1   2  139.46    9.99
   0  -1  -1  216.77   16.94
   1  -1   1  266.52   19.35
   0  -1   0   35.70    4.33
   1  -1  -1  211.76   15.79
   0  -1   1  237.60   17.40
   1   0   1  174.81   12.72
   1  -1  -2  163.16   16.66
  -1   1   2  154.57   12.37
   0  -1   2  181.30   13.61
   1   0   2  127.79    9.80
  -1   1   3  278.06   21.21
   0  -1   3  306.14   22.80
   1   0   3  220.42   16.41
  -1   0  -3  235.68   17.26
  -1   1   3  285.12   20.00
   0  -1   4  244.68   18.19
   0   1  -4  294.23   21.28
   1   0   4  237.15   17.92
  -1   0  -4  196.79   14.71
  -1   1   4  239.72   17.05
   1  -1  -4  207.93   14.70
   0  -1   5  231.26   17.92
   0   1  -5  304.59   22.09
   1   0   5  264.24   20.50
  -1   1   5  256.87   18.49
   1  -1  -5  198.98   14.13
   0  -1   6   29.45    4.78
   1   0   6   38.01    5.88
  -1   1   6   44.74    5.33
   0  -1   7  179.08   14.90
   1   0   7  232.78   18.68
  -1   1   7  238.93   18.19
   0  -1   8  186.71   15.34
   1   0   8  262.87   20.94
  -1   1   8  255.25   19.69
   0  -1   9   87.17   14.74
   1   0   9  109.00   11.87
  -1   1   9  110.56   11.38
   0  -1  10  312.15   25.32
   1   0  10  403.71   31.45
  -1   1  10  430.63   32.60
   0  -1  11    8.31    6.84
   1   0  11   12.13    8.23
  -1   1  11    9.58    6.24
   0  -1  12  103.51   18.45
   1   0  12  134.67   35.91
  -1   1  12  131.46   18.55
   0  -1  13   57.89   23.21
   1   0  13   67.43   13.23
  -1   1  13   72.68   13.01
   0  -1  14  137.94   31.43
   1   0  14  172.14   38.90
  -1   1  14  175.72   38.72
   0  -1  15   95.25   46.43
   1   0  15  127.96   49.17
  -1   1  15  134.67   17.49
   0  -1  16   65.09   17.89
   1   0  16   51.53   31.72
  -1   1  16   69.29   15.86
   0  -1  17   66.87   21.34
   1   0  17  117.55   27.62
  -1   1  17   77.95   44.06
   0  -1  18   36.00   11.40
   1   0  18   52.65   19.15
  -1   1  18   40.56   27.68
   0  -1  19   76.95   31.30
   1   0  19  100.82   27.68
  -1   1  19  100.27   26.94
   1  -2  18  203.57   54.16
  -2   1  18  214.47   55.20
   1   1  18  258.49   66.93
   1  -2  17  249.69   25.00
  -2   1  17  274.08   24.69
   1   1  17  321.17   29.76
   1  -2  16   83.14   47.03
  -2   1  16  136.33   27.49
   1   1  16  127.67   25.46
   1  -2  15  314.21   34.33
  -2   1  15  406.42   41.28
   1   1  15  389.55   40.90
   1  -2  14   11.99   12.77
  -2   1  14   13.37   10.52
   1  -2  13   61.73   21.21
  -2   1  13   89.92   37.20
   1   1  13  113.63   50.51
   1  -2  12  508.56   44.47
  -2   1  12  680.40   56.47
   1   1  12  746.62   63.49
   1  -2  11   17.43    8.09
  -2   1  11   18.17    8.18
   1   1  11   17.90    8.38
   1  -2  10   65.45   28.05
  -2   1  10   89.08   26.13
   1   1  10  106.39   35.86
   1  -2   9  113.16   13.23
  -2   1   9  161.72   13.51
   1  -2   8  361.66   29.34
   1   1   8  429.28   32.64
  -2   1   8  413.06   29.88
  -2   1   7  729.32   53.46
   1  -2   7  823.70   59.36
   1   1   7  914.48  120.72
  -2   1   7  908.73  119.18
  -2   1   6  541.78   39.46
   1  -2   6  619.75   44.81
   1   1   6  677.77   48.39
  -2   1   6  639.12   44.68
  -2   1   5  711.87   50.67
   1  -2   5  832.52   58.98
   1   1   5  826.69   58.09
  -2   1   5  784.60   54.34
  -2   1   4  163.85   13.50
   1  -2   4  194.40   15.73
  -1   2  -4  200.64   15.78
   1   1   4  167.78   13.01
  -2   1   4  156.62   11.17
   2  -1  -3  170.23   15.50
   1  -2   3  189.91   16.07
  -1   2  -3  194.63   15.23
   1   1   3  145.93   11.02
   2  -1  -2  658.73   46.36
   1  -2   2  782.38   56.16
   1   1   2  556.04   38.78
  -1  -1  -2  508.48   35.32
   1  -2   1  450.51   33.00
   2  -1  -1  478.82   33.81
  -1   2  -1  483.96   35.15
   1   1   1  350.43   24.51
  -1  -1  -1  366.97   25.51
   1   1   0  252.51   18.77
   1  -2   0  208.51   17.10
  -1   2   0  268.28   20.32
   2  -1   0  297.52   21.58
  -2   1   0  283.57   20.39
   1   1   0  232.26   16.35
  -1  -1   1  404.95   29.11
   1  -2  -1  407.00   33.65
   1   1  -1  394.89   28.08
  -1   2   1  387.03   29.17
   2  -1   1  455.54   32.47
  -2   1  -1  427.55   30.29
   1  -2  -2  726.35   52.97
  -1   2   2  596.60   43.19
  -1  -1   2  665.67   46.82
   1   1  -2  810.43   56.28
   2  -1   2  672.28   47.64
  -2   1  -2  694.56   48.70
   1  -2  -3  177.00   16.19
  -1   2   3  153.64   20.03
  -1  -1   3  185.52   13.92
   1   1  -3  194.53   15.18
   2  -1   3  172.05   14.35
  -2   1  -3  167.86   13.01
  -1   2   4  157.88   14.62
  -1  -1   4  179.66   13.46
   2  -1   4  157.80   14.11
   1   1  -4  194.30   14.16
  -1   2   4  173.29   12.71
  -1  -1   5  806.93   56.41
   2  -1   5  779.56   55.80
   1   1  -5  989.03  129.44
  -1   2   5  810.08   56.32
  -1  -1   6  582.77   41.54
   2  -1   6  580.28   42.72
   1   1  -6  691.92   48.53
  -1   2   6  633.01   44.38
  -1  -1   7  729.58   51.76
   2  -1   7  758.62   54.99
   1   1  -7  877.61   61.28
  -1   2   7  908.13  119.10
  -1  -1   8  301.12   25.21
   2  -1   8  346.02   27.46
  -1   2   8  416.84   30.25
  -1  -1   9  108.35   10.52
  -1   2   9  163.34   16.53
  -1  -1  10   57.70   17.78
   2  -1  10   85.17   40.79
  -1  -1  11   13.04    7.10
   2  -1  11   22.75   15.37
  -1   2  11   16.64    7.28
  -1  -1  12  509.06   43.52
   2  -1  12  620.04   53.75
  -1   2  12  727.59   61.04
  -1  -1  13   62.02   17.88
   2  -1  13   77.11   34.31
  -1   2  13  110.91   43.23
  -1  -1  14    6.16    4.58
  -1   2  14    7.31   10.67
  -1  -1  15  324.76   34.16
   2  -1  15  365.52   40.06
  -1   2  15  440.53   45.46
  -1  -1  16  105.16   21.78
   2  -1  16  129.88   26.43
  -1   2  16  137.30   27.53
  -1  -1  17  242.34   23.80
   2  -1  17  274.13   25.86
  -1   2  17  323.70   28.53
  -1  -1  18  180.56   46.93
   2  -1  18  218.81   57.29
  -1   2  18  244.80   63.49
   2  -2  18    5.88    9.40
   0   2  18    5.52    8.22
   2  -2  17  163.82   38.02
  -2   0  17  155.72   26.89
   0   2  17  255.35   24.71
   2  -2  16   19.58   13.16
  -2   0  16   20.97    9.67
   0   2  16   29.19   14.27
   2  -2  15  125.11   53.86
  -2   0  15  150.33   18.31
   0   2  15  191.31   22.89
   2  -2  14  203.76   50.07
  -2   0  14  239.37   51.83
   0   2  14  282.27   61.29
   2  -2  13  117.94   61.25
  -2   0  13  116.64   32.59
   2  -2  12    5.69    6.12
  -2   0  12    9.91    5.47
   0   2  12    5.16    7.97
   2  -2  11   -0.92    8.72
  -2   0  11   -0.18    4.59
   0   2  11    4.47    6.97
   2  -2  10  155.97   32.97
  -2   0  10  175.51   35.31
   0   2  10  205.93   41.60
   2  -2   9  103.10   40.64
  -2   0   9  114.13   13.36
   0   2   9  129.34   12.53
   2  -2   8   67.05   23.57
  -2   0   8   70.58   10.65
   0   2   8   76.86   12.29
   2  -2   7  533.88   40.34
  -2   0   7  507.28   35.64
   0   2   7  618.87   43.80
   2  -2   6   39.30    7.19
  -2   0   6   38.03    5.99
   0   2   6   49.40   14.84
   2   0  -6   29.07    2.54
   2  -2   5  834.13   59.41
  -2   0   5  686.40   48.04
   0   2   5  828.73   58.38
   2   0  -5  644.51   44.47
   2  -2   4  401.66   30.44
  -2   0   4  305.38   21.35
   0   2   4  356.62   25.31
   0   2   3  369.99   28.95
   2  -2   3  429.95   32.25
  -2   2  -3  479.31   34.48
   0   2   3  386.44   27.20
   0  -2  -2  223.43   20.06
   0   2   2  187.67   17.32
   2  -2   2  232.34   20.24
  -2   2  -2  264.37   20.18
   0  -2  -1  136.73   13.82
   0   2   1  112.52   11.15
   2  -2   1  161.16   14.78
  -2   2  -1  157.54   13.22
   2   0  -1  140.89   10.19
   0  -2   0  220.07   18.91
   0   2   0  196.63   16.51
   2  -2   0  247.23   19.92
  -2   2   0  237.96   18.58
   2   0   0  208.92   15.38
   0  -2   1  126.32   17.69
   2  -2  -1  152.64   15.02
   0   2  -1  135.63   11.77
  -2   2   1  138.85   12.48
   2   0   1  114.68    9.25
   2  -2  -2  219.23   19.05
  -2   2   2  200.18   17.72
   0  -2   2  217.39   17.88
   2   0   2  177.31   14.38
  -2   0  -2  159.27   12.13
   2  -2  -3  461.74   35.39
  -2   2   3  354.09   27.24
   0  -2   3  441.88   32.50
   2   0   3  334.85   24.91
  -2   0  -3  307.72   22.30
   2  -2  -4  416.24   34.50
  -2   2   4  334.08   39.58
   0  -2   4  425.51   31.37
   0   2  -4  454.20   32.40
   2   0   4  330.96   25.46
  -2   2   5  767.93   57.22
   0  -2   5  909.91  119.68
   0   2  -5 1058.10  138.73
   2   0   5  809.85   57.59
  -2   2   5  881.49   61.05
   0  -2   6   49.28    7.58
   2   0   6   32.23    6.39
  -2   2   6   39.82    5.09
   0  -2   7  550.77   39.91
   2   0   7  608.92   44.04
  -2   2   7  586.69   40.88
   0  -2   8   70.88   26.19
   2   0   8   86.59   15.10
  -2   2   8   69.71   14.53
   0  -2   9  101.04   29.73
   2   0   9  123.41   13.12
  -2   2   9  143.71   12.70
   0  -2  10  139.05   32.25
   2   0  10  190.88   38.89
  -2   2  10  207.14   41.30
   0  -2  11    1.42    2.67
  -2   2  11    1.17    5.78
   0  -2  12    7.77    4.95
   2   0  12   10.14    8.89
  -2   2  12    5.30    8.83
   0  -2  13   92.01   42.68
   2   0  13  154.32   43.23
  -2   2  13  150.65   46.77
   0  -2  14  200.10   44.17
   2   0  14  268.63   58.68
  -2   2  14  306.14   65.82
   0  -2  15   99.19   36.23
  -2   2  15  203.94   23.33
   0  -2  16   26.85   12.76
   2   0  16   27.64   15.47
  -2   2  16   30.74   12.82
   0  -2  17  153.17   16.67
   2   0  17  200.79   21.60
  -2   2  17  236.68   22.30
   0  -2  18    7.71    8.11
   2   0  18    6.47   10.53
  -2   2  18    4.78    6.90
   1  -3  18    9.50    9.75
   2   1  18    8.58   11.69
   1  -3  17  141.54   18.09
   2   1  17  162.65   20.12
  -3   2  17  185.14   17.93
   1  -3  16   13.52    9.68
  -3   2  16   25.90   17.44
   1  -3  15   42.56   19.95
   2   1  15   59.23   22.77
  -3   2  15   54.04   30.75
   1  -3  14  200.86   51.33
   2   1  14  371.60   79.75
  -3   2  14  369.38   78.62
   1  -3  13  113.88   49.50
   2   1  13  207.22   65.11
  -3   2  13  226.32   61.89
   1  -3  12   20.06    6.87
  -3   2  12   14.26    6.58
   1  -3  11   13.77    9.88
   2   1  11   19.54   10.16
  -3   2  11   21.72    8.72
   1  -3  10  152.65   32.86
   2   1  10  228.92   46.50
  -3   2  10  217.01   43.21
   1  -3   9   91.73   16.36
   2   1   9  121.01   13.52
  -3   2   9  112.45    9.82
   1  -3   8   31.52    8.78
   2   1   8   38.64    8.48
  -3   2   8   30.18    5.17
   1  -3   7  461.42   35.32
   2   1   7  472.92   35.15
  -3   2   7  438.74   30.64
  -3   2   6   13.44    5.09
   1  -3   6   18.21    8.62
   2   1   6   10.91    4.30
  -3   2   6   16.51    6.74
   3  -2  -5  988.01  130.39
  -3   2   5  666.70   48.08
   1  -3   5  883.83   63.96
   2   1   5  745.76   53.33
   3  -2  -4  589.28   43.70
  -3   2   4  480.90   35.27
   1  -3   4  544.94   40.43
   2   1   4  490.66   35.53
   3  -2  -3  710.83   51.02
  -3   2   3  688.66   49.22
   1  -3   3  755.22   54.73
   2   1   3  591.52   42.08
   3  -2  -2  205.44   17.60
   1  -3   2  187.67   16.58
  -3   2   2  178.93   14.36
  -1   3  -2  219.48   17.78
   2   1   2  149.11   11.34
   1  -3   1   13.21    6.67
   3  -2  -1   12.16   10.39
  -1   3  -1   16.18    5.38
  -3   2   1   10.43    3.10
   2   1   1   10.89    3.49
  -2  -1  -1    9.38    1.31
   2   1   0  325.49   24.43
   1  -3   0  325.07   26.43
  -1   3   0  332.24   26.64
   3  -2   0  368.48   28.39
  -3   2   0  378.93   27.59
   2   1  -1   12.82    6.51
   1  -3  -1   17.98    7.32
  -1   3   1   14.97   10.18
   3  -2   1   15.00    4.98
  -3   2  -1   18.52    4.64
   2   1  -1    9.93    2.45
   1  -3  -2  191.26   31.43
   2   1  -2  193.06   15.04
   3  -2   2  191.09   16.43
   2   1  -2  158.29   11.10
   1  -3  -3  722.84   55.21
  -2  -1   3  636.51   44.40
   2   1  -3  902.64  117.96
   3  -2   3  733.30   52.38
   1  -3  -4  604.72   46.81
  -2  -1   4  526.40   37.03
   3  -2   4  539.77   39.50
   2   1  -4  612.28   42.39
  -2  -1   5  822.81   57.37
   3  -2   5  790.34   57.36
   2   1  -5  846.36   58.60
  -1   3   5  818.73   57.09
  -2  -1   6   15.54    8.47
   3  -2   6   19.75   12.20
   2   1  -6   11.42    4.87
  -1   3   6   18.36    7.36
  -2  -1   7  418.31   29.82
   3  -2   7  403.83   31.29
   2   1  -7  389.83   27.18
  -1   3   7  459.00   32.69
  -2  -1   8   26.64   15.68
   3  -2   8   28.03   12.74
   2   1  -8   30.10    4.54
  -1   3   8   33.30   10.29
  -2  -1   9   85.82   13.02
   3  -2   9   96.31   36.12
  -1   3   9  113.69   10.78
  -2  -1  10  138.55   28.16
  -1   3  10  212.72   42.71
  -2  -1  11   12.06    6.49
   3  -2  11    9.99    7.87
  -1   3  11   20.42    9.94
  -2  -1  12    9.03    5.15
   3  -2  12   20.58   10.01
  -1   3  12   21.31    9.89
  -2  -1  13  120.43   33.51
   3  -2  13  151.36   42.67
  -1   3  13  207.43   57.49
  -2  -1  14  265.19   57.11
   3  -2  14  292.35   64.22
  -1   3  14  380.00   81.48
  -2  -1  15   38.53   20.99
   3  -2  15   46.37   31.75
  -1   3  15   62.22   39.16
  -2  -1  16   25.90   11.25
   3  -2  16   31.35   16.01
  -1   3  16   29.56   11.66
   3  -2  17  133.23   52.42
  -1   3  17  189.72   21.16
   3  -2  18    7.57   10.26
  -1   3  18   11.26    8.12
   2  -3  18  111.61   45.22
   1   2  18  172.81   43.03
   2  -3  17    9.31    7.29
   1   2  17   17.07   10.71
   2  -3  16  106.22   49.08
  -3   1  16  130.48   27.27
   1   2  16  167.61   36.67
   2  -3  15   22.01   13.63
  -3   1  15    8.43    6.31
   2  -3  14   41.45   20.91
  -3   1  14   70.66   26.46
   1   2  14   75.50   28.06
   2  -3  13    6.92    8.83
  -3   1  13    9.10    6.14
   1   2  13   11.52    7.34
   2  -3  12 1031.33  432.57
  -3   1  12 1581.01  127.22
   1   2  12 1759.73  245.13
  -3   1  11    3.59    4.06
   1   2  11    8.19    7.15
   2  -3  10  586.88  116.05
  -3   1  10  827.09  233.48
   1   2  10  829.09  234.20
   2  -3   9    4.51    6.19
  -3   1   9   12.34    4.98
   1   2   9    9.36    7.08
  -3   1   8 1291.54   90.16
   2  -3   8 1664.29  465.89
  -3   1   8 1900.15  531.21
   1   2   8 1905.28  532.89
  -3   1   7    6.17    5.72
   2  -3   7    8.38   11.64
  -3   1   7    8.37    3.19
   1   2   7    9.00    5.46
  -3   1   6   88.15   10.54
   2  -3   6  116.28   14.96
  -3   1   6  109.50    9.14
   1   2   6  115.39   10.37
   2  -3   5  612.37   45.81
   1   2   5  548.49   39.10
  -3   1   5  514.77   35.68
   2  -3   4  273.95   23.28
   1   2   4  231.15   16.94
  -3   1   4  246.67   17.17
   3  -1  -3  379.93   27.29
   2  -3   3  387.33   30.78
   1   2   3  312.26   22.38
   1   2   2 3032.53  397.21
   3  -1  -2 4037.36  527.14
   2  -3   2 3980.15  520.41
   1   2   2 3053.92  398.68
   1   2   1   38.74   12.72
   2  -3   1   42.09    9.85
   3  -1  -1   47.49    6.11
  -3   1   1   43.76    7.00
   1   2   1   41.11    3.94
  -1  -2   0 2223.85  291.22
   1   2   0 2279.05  298.25
   2  -3   0 2664.57  349.00
  -2   3   0 2589.38  338.84
   3  -1   0 2922.62  381.76
  -3   1   0 2314.53  302.34
  -1  -2   1   48.39   20.44
   2  -3  -1   62.11   21.04
   1   2  -1   40.46   17.35
  -2   3   1   48.71    9.36
   3  -1   1   39.21    5.01
  -3   1  -1   40.36    4.56
   2  -3  -2 3505.53  458.75
  -1  -2   2 3094.86  404.56
   1   2  -2 3847.64  502.57
   3  -1   2 3251.96  424.89
  -3   1  -2 3060.13  399.75
   2  -3  -3  378.15   51.38
  -1  -2   3  355.56   26.86
   1   2  -3  466.71   33.62
   3  -1   3  343.36   25.58
   2  -3  -4  301.10   40.54
  -1  -2   4  260.03   19.76
   1   2  -4  353.17   25.39
   3  -1   4  238.16   19.58
   2  -3  -5  670.63   50.81
  -1  -2   5  575.74   41.43
   1   2  -5  690.20   48.39
   3  -1   5  521.73   38.33
  -1  -2   6  116.78   11.28
   3  -1   6  115.99   33.72
   1   2  -6  143.89   12.14
  -2   3   6  116.13    9.28
  -1  -2   7   10.61    5.04
   3  -1   7    9.59    6.22
   1   2  -7    8.97    4.01
  -2   3   7   10.57    2.99
  -1  -2   8 1615.26  451.98
   3  -1   8 1637.18  458.22
  -2   3   8 1840.27  514.47
  -1  -2   9    5.56    7.92
   3  -1   9   15.43    9.84
  -2   3   9    8.55    3.91
  -1  -2  10  573.62  112.56
   3  -1  10  731.30  207.00
  -2   3  10  816.14  230.13
  -1  -2  11    6.71    5.80
   3  -1  11   12.46    7.12
  -2   3  11    8.26    3.80
  -1  -2  12  989.40  414.88
   3  -1  12 1443.55  605.14
  -2   3  12 1622.24  131.12
  -1  -2  13    2.14    4.37
   3  -1  13    9.24    9.44
  -2   3  13    7.02    6.38
  -1  -2  14   44.44   28.09
   3  -1  14   52.70   24.11
  -2   3  14   79.19   30.28
  -1  -2  15   16.49    8.62
   3  -1  15    8.12   10.69
  -2   3  15   12.15   11.16
  -1  -2  16   84.44   35.12
  -2   3  16  154.06   32.90
  -1  -2  17    4.82    6.01
   3  -1  17   17.98   11.83
  -2   3  17   17.16   17.99
   3  -1  18  144.68   48.32
  -2   3  18  158.44   51.15
   3  -3  18  125.38   53.02
   0   3  18  204.75   49.42
   3  -3  17  155.03   42.53
   0   3  17  191.43   50.15
   3  -3  16  139.87   31.22
   0   3  16  211.29   44.19
   3  -3  15  161.14   33.14
  -3   0  15  140.40   25.89
   0   3  15  219.43   42.28
   3  -3  14   31.53   18.22
  -3   0  14   19.12   12.84
   3  -3  13   58.58   28.16
  -3   0  13   50.04   21.84
   0   3  13   84.29   21.58
   3  -3  12  495.74  135.15
  -3   0  12  500.49  135.09
   0   3  12  715.46  300.25
   3  -3  11   16.12   14.35
  -3   0  11    2.40    3.50
   0   3  11    3.57    4.59
   3  -3  10   52.10   18.06
  -3   0  10   52.66   18.54
   0   3  10   80.48   28.60
  -3   0   9   31.21   14.75
   3  -3   9   59.82   34.33
  -3   0   9   35.10   10.42
   0   3   9   63.05   18.72
   3  -3   8  206.48   19.54
  -3   0   8  166.19   13.05
   0   3   8  236.47   18.55
   3  -3   7  474.12   37.20
  -3   0   7  366.93   25.79
   0   3   7  488.13   34.76
  -3   0   6  714.50   49.54
   3  -3   6  856.51   61.82
  -3   0   6  726.80   49.88
   0   3   6  849.68   59.12
   0   3   5  521.81   36.97
   3  -3   4  301.26   26.29
   0   3   4  306.22   22.15
   3  -3   4  318.63   26.78
   0  -3  -3  432.54   35.35
   3  -3   3  411.66   31.86
   0  -3  -2  603.81   46.36
   3  -3   2  726.40   53.55
   3   0  -2  848.39   58.62
   0  -3  -1   90.31   13.56
   3  -3   1   93.44   12.25
   3   0  -1   97.35    7.60
   0  -3   0  540.65   41.00
   0   3   0  520.30   39.07
   3  -3   0  586.24   43.84
   3   0   0  545.13   38.29
   0  -3   1  100.41   34.20
   3  -3  -1   97.91   11.33
   0   3  -1   79.15    9.28
  -3   3   1   97.01   10.22
   3   0   1   83.31    8.33
  -3   0  -1   60.65    5.11
   3  -3  -2  676.23   71.09
   0  -3   2  606.44   45.31
   3   0   2  536.93   38.43
   3  -3  -3  376.35   40.26
   0  -3   3  405.78   31.71
   0   3  -3  477.20   35.01
   3   0   3  333.87   25.31
   3  -3  -4  349.84   28.50
   0  -3   4  324.57   25.83
   3   0   4  259.03   20.43
   3  -3  -5  730.41   54.07
   0  -3   5  677.09   49.59
   3   0   5  608.44   44.10
   0  -3   6  871.30   62.64
   3   0   6  813.73   57.80
  -3   3   6  942.38   64.86
   0  -3   7  487.76   37.16
   3   0   7  491.71   37.08
  -3   3   7  510.35   35.65
   0  -3   8  212.50   19.28
   3   0   8  239.49   21.44
  -3   3   8  229.10   16.94
   0  -3   9   55.51   18.68
   3   0   9   76.37   33.47
  -3   3   9   63.11   18.38
   0  -3  10   58.19   19.03
   3   0  10   82.62   25.61
  -3   3  10   69.38   20.34
   0  -3  11    4.91    7.84
   3   0  11   -0.59    8.34
  -3   3  11    6.11    5.06
   0  -3  12  434.08  117.97
   3   0  12  710.46  298.41
  -3   3  12  709.98  297.74
   0  -3  13   38.68   23.16
  -3   3  13   69.24   30.13
   0  -3  14   19.83   10.74
   3   0  14   36.16   16.32
  -3   3  14   29.12   13.07
   0  -3  15  101.18   37.37
   3   0  15  196.40   37.61
  -3   3  15  221.36   40.91
   0  -3  16  122.31   47.92
   3   0  16  202.72   43.09
  -3   3  16  198.40   41.12
   0  -3  17   76.46   44.30
  -3   3  17  198.94   51.44
   0  -3  18  103.44   47.22
   3   0  18  186.76   46.95
  -3   3  18  198.10   47.25
   1  -4  17  152.22   41.02
   3   1  17  264.70   68.42
   1  -4  16    3.20    7.72
   3   1  16   22.68   16.11
  -4   3  16   17.30    8.19
   1  -4  15  149.93   29.42
   3   1  15  349.53   64.22
  -4   3  15  364.64   64.64
   3   1  14  305.51   34.35
  -4   3  14  315.22   32.79
   1  -4  13   58.35   27.62
   3   1  13  101.21   24.72
  -4   3  13   91.15   20.86
   1  -4  12   67.51   13.70
   3   1  12  155.36   44.25
  -4   3  12  131.97   36.39
   1  -4  11   12.90    7.97
   3   1  11   20.06   12.11
  -4   3  11   26.41   12.52
   1  -4  10  225.78   25.82
   3   1  10  305.40   28.38
  -4   3  10  317.25   26.57
   1  -4   9  171.71   36.84
   3   1   9  230.82   47.24
  -4   3   9  197.94   39.43
   1  -4   8   55.26   19.22
   3   1   8   72.91   38.43
  -4   3   8   60.19   21.29
   1  -4   7  489.45   38.42
   3   1   7  600.46   44.62
  -4   3   7  557.38   38.73
   4  -3  -6   63.50   21.47
   1  -4   6   53.61   12.13
   3   1   6   56.75   21.07
   4  -3  -5 1351.03   97.41
   1  -4   5 1173.06   83.83
   3   1   5 1083.65   76.00
   4  -3  -4  680.17   50.57
   1  -4   4  625.84   47.28
   3   1   4  519.45   38.22
   4  -3  -3  559.14   45.73
   1  -4   3  608.29   46.30
   3   1   3  456.72   33.45
   4  -3  -2  216.78   20.50
   1  -4   2  195.47   19.89
   3   1   2  149.80   12.27
   1  -4   1  200.91   26.22
   4  -3  -1  240.34   20.64
   3   1   1  180.48   13.86
  -3  -1  -1  168.23   12.14
   1  -4   0  134.08   16.87
   4  -3   0  160.98   15.91
   3   1   0  108.47    8.86
  -3  -1   0  116.62    8.51
   3   1  -1  205.97   15.92
   1  -4  -1  222.44   21.13
   4  -3   1  246.74   23.71
   3   1  -1  160.20   11.81
   1  -4  -2  208.79   22.78
   3   1  -2  181.29   13.81
   4  -3   2  213.71   18.57
   3   1  -2  148.34   10.72
   1  -4  -3  492.41   41.20
   3   1  -3  655.70   45.43
   4  -3   3  661.99   48.71
   3   1  -3  476.68   32.97
   1  -4  -4  655.91   52.31
   4  -3   4  693.39   51.96
   4  -3   5 1238.29   87.18
  -1   4   5 1282.15   88.27
  -3  -1   6   41.41    6.15
   4  -3   6   48.08   11.15
  -1   4   6   51.71    8.01
   3   1  -6   33.06    4.37
  -3  -1   7  472.78   33.03
   4  -3   7  470.66   37.41
  -1   4   7  533.65   37.87
  -3  -1   8   46.31   13.65
   4  -3   8   50.72   17.26
   3   1  -8   36.25   10.24
  -3  -1   9  159.10   31.79
   4  -3   9  168.66   42.84
  -1   4   9  207.30   41.45
   3   1  -9  136.37   26.68
  -3  -1  10  209.74   18.68
   4  -3  10  232.46   28.89
  -1   4  10  300.50   26.40
  -3  -1  11   14.29    8.96
  -1   4  11   23.10    9.51
  -3  -1  12   76.09   34.47
   4  -3  12   91.30   45.93
  -1   4  12  128.86   39.83
   4  -3  13   87.70   35.32
   4  -3  14  222.11   27.60
  -1   4  14  307.75   33.03
   4  -3  15  243.78   45.79
  -1   4  15  353.24   63.77
   4  -3  16   18.83   17.12
  -1   4  16   21.46   13.52
   4  -3  17  202.41   54.93
  -1   4  17  303.52   78.07
   2  -4  18   75.37   61.26
   2   2  18  182.26   46.13
   2  -4  17  118.41   34.35
   2  -4  16   86.59   49.36
   2   2  16  160.33   31.69
   2  -4  15  108.98   44.28
  -4   2  15  200.95   36.41
   2   2  15  224.19   46.37
   2  -4  14   23.36   16.81
  -4   2  14   19.02   14.36
   2   2  14   19.95   11.55
   2  -4  13   43.57   26.02
  -4   2  13   84.06   19.26
   2  -4  12  438.25  119.62
  -4   2  12  714.79  299.70
   2   2  12  725.54  304.71
   2  -4  11   20.74   10.75
   2   2  11   30.23   12.33
  -4   2  11   25.23   12.36
   2  -4  10   38.72   16.95
   2   2  10   34.62   15.72
  -4   2  10   47.85   14.53
   2  -4   9   23.97   11.47
   2   2   9   34.82   13.13
  -4   2   9   33.16   13.16
   2  -4   8  233.84   22.03
   2   2   8  334.86   26.82
  -4   2   8  302.66   21.53
  -4   2   7  325.48   25.86
   2  -4   7  424.66   34.44
   2   2   7  493.19   36.54
  -4   2   7  441.20   30.97
   2  -4   6  688.08   53.10
   2   2   6  646.89   45.97
  -4   2   6  642.54   44.14
   4  -2  -5  649.42   46.44
  -4   2   5  538.55   38.53
   2  -4   5  578.15   45.12
   2   2   5  548.51   39.13
   4  -2  -4  134.94   13.67
  -4   2   4  126.33   10.72
   2  -4   4  143.35   18.53
   2   2   4  119.88   10.25
   4  -2  -3  275.82   21.78
   2  -4   3  311.39   25.90
  -4   2   3  321.39   23.83
   2   2   3  250.05   18.55
   4  -2  -2  618.83   45.40
   2  -4   2  582.50   44.78
  -4   2   2  594.87   42.25
   2   2   2  451.02   31.82
   2   2   1  361.69   27.86
   2  -4   1  439.56   36.66
   4  -2  -1  471.69   34.77
  -4   2   1  409.94   29.54
   2   2   1  331.94   23.67
   2   2   0    9.10    4.38
   2  -4   0   15.64    7.99
   4  -2   0   18.13    6.53
  -4   2   0    9.58    3.33
   2   2   0    9.00    2.03
   2   2  -1  377.74   28.10
   2  -4  -1  391.96   33.19
   4  -2   1  479.24   35.66
   2   2  -1  352.53   24.66
  -2  -2   2  450.93   33.28
   2  -4  -2  548.39   42.66
   2   2  -2  551.34   39.64
   4  -2   2  598.78   43.37
  -2  -2   3  252.58   19.66
   2  -4  -3  310.63   27.77
   2   2  -3  315.65   23.02
   4  -2   3  304.01   23.77
   2  -4  -4  161.76   18.75
  -2  -2   4  108.25    9.90
   2   2  -4  165.72   12.64
   4  -2   4  133.68   14.66
   2  -4  -5  637.43   49.93
  -2  -2   5  506.48   36.49
   2   2  -5  704.60   48.88
   4  -2   5  558.05   41.71
  -2  -2   6  609.85   43.19
   4  -2   6  606.76   46.11
   2   2  -6  778.83   53.92
  -2   4   6  699.11   49.85
  -2  -2   7  401.18   29.43
   4  -2   7  420.58   32.88
   2   2  -7  532.85   37.21
  -2   4   7  482.10   34.05
  -2  -2   8  272.52   21.38
   4  -2   8  273.24   24.35
   2   2  -8  320.21   22.95
  -2   4   8  311.04   22.85
  -2  -2   9   35.58   12.39
   4  -2   9   29.97   13.37
  -2   4   9   35.70   11.27
  -2  -2  10   28.07    9.89
   4  -2  10   39.42   16.62
  -2   4  10   43.98   13.72
  -2  -2  11   19.00    7.85
   4  -2  11   26.41   15.78
  -2   4  11   34.71   11.36
  -2  -2  12  380.12  103.15
   4  -2  12  514.87  139.93
  -2   4  12  633.25  265.67
  -2  -2  13   28.75   21.26
   4  -2  13   72.93   51.29
  -2   4  13   82.95   36.86
  -2  -2  14    9.42    7.40
   4  -2  14   17.57   11.42
  -2   4  14   18.89    9.43
  -2  -2  15   95.30   31.67
   4  -2  15  162.26   57.03
  -2   4  15  208.66   39.26
   4  -2  16  125.33   39.04
  -2   4  16  153.68   17.02
  -2   4  17  179.68   54.73
   4  -2  18  162.24   40.73
  -2   4  18  186.65   50.05
   3  -4  17   92.65   30.79
   1   3  17  157.58   58.47
   3  -4  16   36.29   17.28
   1   3  16   63.67   26.88
   3  -4  15   44.75   20.86
   1   3  15   66.56   33.90
   3  -4  14  139.85   23.75
   1   3  14  238.36   28.01
   3  -4  13   56.84   26.43
   1   3  13  100.04   43.52
  -4   1  12    7.39    3.45
   3  -4  11   29.61   16.11
  -4   1  11   22.18    7.43
   1   3  11   30.49   17.18
   3  -4  10   31.74   13.28
  -4   1  10   44.15   13.18
   1   3  10   35.64   11.96
   3  -4   9   97.20   24.55
  -4   1   9  118.63   23.62
   1   3   9  121.18   27.23
   3  -4   8  224.58   46.64
  -4   1   8  221.59   43.48
   1   3   8  233.94   46.43
  -4   1   7  275.08   19.44
   1   3   7  289.45   22.35
  -4   1   6    1.45    2.33
   3  -4   6   -0.22   10.24
  -4   1   6    2.94    1.39
   1   3   6    5.25    5.45
   3  -4   5  440.48   37.42
  -4   1   5  433.36   30.19
  -4   1   5  351.68   24.12
   1   3   5  373.11   26.67
   4  -1  -4  313.74   22.47
   3  -4   4  319.07   30.59
  -4   1   4  274.43   19.46
   1   3   4  279.58   20.64
   4  -1  -3  259.05   19.10
   3  -4   3  262.69   24.71
   1   3   3  223.40   16.57
   3  -4   2  243.92   21.79
   4  -1  -2  298.16   21.81
   1   3   2  229.15   16.75
  -1  -3  -1   29.84   12.76
   3  -4   1   23.47   10.76
   4  -1  -1   30.87   10.41
  -4   1   1   19.46    3.42
  -1  -3   0  186.74   20.54
   3  -4   0  227.07   23.65
   4  -1   0  228.71   17.43
  -4   1   0  167.87   12.87
  -1  -3   1   22.96   10.82
   3  -4  -1   23.88   10.26
   1   3  -1   15.87    9.39
   4  -1   1   25.60    5.93
  -4   1  -1   17.64    3.31
  -1  -3   2  227.74   25.02
   3  -4  -2  264.08   23.76
   1   3  -2  277.36   21.77
   4  -1   2  233.65   18.32
   3  -4  -3  259.34   34.94
  -1  -3   3  215.77   18.82
   1   3  -3  286.59   21.98
   4  -1   3  242.36   20.26
   3  -4  -4  346.25   29.71
  -1  -3   4  275.54   23.00
   1   3  -4  376.76   27.97
   4  -1   4  273.15   22.21
   3  -4  -5  443.17   41.35
  -1  -3   5  390.65   30.31
   1   3  -5  516.57   36.85
   4  -1   5  367.37   27.90
   3  -4  -6   10.78    5.33
  -1  -3   6    9.66    9.30
   4  -1   6   -0.60    7.31
  -1  -3   7  252.59   20.93
   4  -1   7  249.50   21.49
  -3   4   7  298.33   21.71
  -1  -3   8  196.73   40.02
   4  -1   8  203.00   43.82
  -3   4   8  238.21   46.88
  -1  -3   9  105.75   22.86
   4  -1   9  136.25   43.43
  -3   4   9  121.22   24.33
  -1  -3  10   21.59    9.86
   4  -1  10   31.43   14.70
  -3   4  10   37.31   17.70
  -1  -3  11   17.78    9.96
   4  -1  11   24.96   14.72
  -3   4  11   30.14   16.67
  -1  -3  12   -3.16    5.35
   4  -1  12    7.20    9.76
  -3   4  12    9.57    5.44
  -1  -3  13   55.97   25.24
   4  -1  13   75.01   21.89
  -3   4  13   88.57   20.24
  -1  -3  14  108.72   15.34
  -1  -3  15   26.72   13.29
   4  -1  15   56.51   20.25
  -3   4  15   60.45   14.89
  -1  -3  16   26.97   13.01
   4  -1  16   48.89   16.98
  -3   4  16   49.08   19.88
   4  -1  17   96.36   49.57
  -3   4  17  159.36   41.53
   4  -4  17  158.34   44.36
   0   4  17  218.45   57.55
   4  -4  16   33.93   20.52
   0   4  16   48.35   14.75
   4  -4  15  150.80   59.54
   4  -4  14  159.22   32.80
   0   4  14  237.40   43.74
   4  -4  13   46.99   20.29
   0   4  13   99.97   39.46
   4  -4  12  227.01   50.51
  -4   0  12  171.56   36.70
   0   4  12  345.29   74.07
   4  -4  11    6.98   10.75
  -4   0  11   -0.73    1.91
  -4   0  10  224.62   18.96
   0   4  10  337.53   29.54
  -4   0   9   64.63   18.49
  -4   0   9   83.00   23.50
   4  -4   9   89.02   27.92
   0   4   9  102.04   21.00
  -4   0   8   77.84   21.89
  -4   0   8   67.36   18.92
   4  -4   8  102.09   43.60
   0   4   8   97.05   20.03
   4  -4   7  428.80   36.18
   0   4   7  363.75   26.67
   4  -4   6   -1.11   10.43
   0   4   6    2.24    2.26
   4  -4   5  931.70   68.28
   0   4   5  870.11   60.45
   4  -4   4  615.22   47.56
   0   4   4  529.87   37.15
   0  -4  -3  376.94   34.78
   4  -4   3  390.18   32.17
   0  -4  -2   94.38   36.23
   4  -4   2  100.50   15.90
   4   0  -2  101.51    8.15
   0  -4  -1  151.54   17.49
   4  -4   1  165.82   16.51
   4   0  -1  175.92   13.34
  -4   0   1  119.33    8.67
   0  -4   0   53.21   21.02
   4  -4   0   64.02   13.38
   4   0   0   54.84    5.96
  -4   0   0   34.66    3.26
   0  -4   1  144.79   16.85
   4  -4  -1  180.18   19.77
   4   0   1  151.04   12.63
   0  -4   2   81.33   34.93
   4  -4  -2   88.08   25.27
   4   0   2   80.36    7.90
   4  -4  -3  351.68   37.42
   0  -4   3  332.75   36.33
   4   0   3  329.77   25.09
   4  -4  -4  571.17   44.18
   0  -4   4  495.06   39.54
   4   0   4  446.15   37.22
   4  -4  -5 1013.81   74.67
   0  -4   5  824.02   60.85
   4   0   5  743.96   53.25
   4  -4  -6   -6.53    9.75
   0  -4   6    4.62   10.78
   4   0   6    4.83    6.08
   4  -4  -7  467.11   38.16
   0  -4   7  358.29   29.67
   4   0   7  358.04   29.57
   0  -4   8   72.39   23.32
   4   0   8   91.65   27.93
  -4   4   8  100.63   20.37
   0  -4   9   88.59   27.57
   4   0   9  113.32   33.30
  -4   4   9  122.34   24.49
   0  -4  10  252.64   26.36
   4   0  10  337.47   32.03
  -4   4  10  323.96   27.35
   0  -4  11    8.10    7.81
   4   0  11    5.62   10.67
  -4   4  11    2.48    3.57
   0  -4  12  201.58   56.39
   4   0  12  330.12   90.21
  -4   4  12  328.30   88.92
   0  -4  13   44.44   19.05
   4   0  13   90.41   50.07
  -4   4  13   70.44   18.65
   0  -4  14  105.39   22.23
   4   0  14  232.52   79.10
  -4   4  14  227.45   41.16
   0  -4  15  122.86   27.85
   4   0  15  246.87   52.32
  -4   4  15  255.57   51.36
   0  -4  16   14.34    9.02
   4   0  16   37.68   22.31
  -4   4  16   50.53   10.59
   0  -4  17   95.69   27.37
   4   0  17  214.83   56.99
  -4   4  17  254.34   65.03
   1  -5  17    5.71    8.45
   1  -5  16   24.31   10.11
   4   1  16   47.72   28.28
   1  -5  15    7.61    8.15
   4   1  15    5.91   11.13
  -5   4  15    1.86    4.27
   1  -5  14  352.30   78.18
   4   1  14  842.64  210.50
  -5   4  14  775.36  192.65
   1  -5  13    6.18    5.03
   4   1  13    4.95   10.90
  -5   4  13    3.82    2.51
   1  -5  12  285.87   62.85
   4   1  12  535.64  114.55
  -5   4  12  508.14  107.11
   1  -5  11    2.30    9.07
   4   1  11   -5.75    9.49
  -5   4  11    2.26    2.38
   1  -5  10 1731.35  725.72
   4   1  10 2625.84 1100.09
  -5   4  10 2402.63 1006.16
   1  -5   9    6.11    9.86
   4   1   9    2.90    5.07
  -5   4   9   -0.08    2.87
   1  -5   8  643.62  127.22
   4   1   8  839.03  237.19
  -5   4   8  797.00  224.50
   5  -4  -7    5.42    5.07
   1  -5   7   -1.11    7.43
   4   1   7    8.62   12.66
   5  -4  -6  803.56   59.74
   1  -5   6  631.82   48.78
   4   1   6  698.25   53.17
   5  -4  -5    6.21    8.17
   1  -5   5    3.44    8.81
   4   1   5    4.74    5.82
   5  -4  -4 1125.50   80.92
   1  -5   4 1023.73   75.52
   4   1   4  994.10   70.15
   5  -4  -3    4.29    5.27
   1  -5   3    7.08    7.37
   4   1   3   -0.12    4.28
   1  -5   2 1328.34   96.00
   5  -4  -2 1556.05  435.83
   4   1   2 1129.27   78.62
   1  -5   1    5.53    6.58
   5  -4  -1    9.09    9.35
   4   1   1    3.02    2.57
   1  -5   0 8504.50 2377.14
   5  -4   0 9999.99 2794.93
   4   1   0 6447.42 1801.66
  -4  -1   0 6641.96 1855.85
   4   1  -1    4.75    4.03
   1  -5  -1    5.17    8.18
   5  -4   1    2.08    9.60
   4   1  -1    2.86    2.59
   1  -5  -2 1486.56  416.94
   4   1  -2 1418.53   97.87
   5  -4   2 1577.37  441.68
   4   1  -2 1408.84   96.42
   1  -5  -3    4.03   15.73
   4   1  -3    1.82    1.99
   5  -4   3    8.47   13.73
   4   1  -3    0.24    0.69
   1  -5  -4 1038.78   76.65
   5  -4   4 1084.46   78.22
   1  -5  -5   -2.07   14.69
   5  -4   5    5.03   10.84
   5  -4   6  691.29   53.19
  -1   5   6  706.89   49.59
   5  -4   7    0.33   11.32
  -1   5   7    6.44    4.27
   5  -4   8  680.84  134.83
  -1   5   8  750.06  211.54
   5  -4   9   -4.32   10.29
  -1   5   9   -0.34    5.23
   5  -4  10 2042.93  856.28
   5  -4  11   13.15   14.22
  -1   5  11    3.95    4.00
  -1   5  12  504.68  106.95
   5  -4  13    8.71   11.93
  -1   5  13    2.06    7.62
   5  -4  14  582.96  146.97
   5  -4  15    2.04    6.79
   5  -4  16   42.83   22.25
  -1   5  16   43.13   11.83
  -1   5  17    4.87   13.35
   2  -5  17   34.37   23.18
   3   2  17   96.30   26.74
   2  -5  16   20.98   13.16
   3   2  16   29.33   12.43
   2  -5  15   72.52   20.75
   3   2  15  113.37   55.59
   2  -5  14   91.05   21.14
   3   2  14  226.87   43.21
  -5   3  14  206.07   36.97
   2  -5  13   33.77   18.23
   3   2  13   78.25   37.25
  -5   3  13   66.60   20.83
   2  -5  12    8.02   11.92
   3   2  12    2.69    9.89
  -5   3  12    3.00    3.84
   2  -5  11   45.14   15.18
   3   2  11   94.35   42.76
  -5   3  11   61.70   10.11
   2  -5  10  135.41   20.13
   3   2  10  178.34   22.68
  -5   3  10  157.03   15.14
   2  -5   9   50.59   27.48
   3   2   9   66.33   21.45
  -5   3   9   58.07   16.77
   3   2   8   94.20   21.52
  -5   3   8   90.30   25.62
   2  -5   7  152.51   33.84
   3   2   7  145.49   31.06
  -5   3   7  155.00   30.45
   5  -3  -6   44.43   16.96
   2  -5   6   37.25   20.15
   3   2   6   45.56   10.29
   5  -3  -5  404.15   34.47
   2  -5   5  320.47   28.11
   3   2   5  332.47   25.67
   5  -3  -4  214.64   18.89
   2  -5   4  219.90   24.87
   3   2   4  191.98   15.66
   5  -3  -3  359.69   28.47
   2  -5   3  346.53   31.35
   3   2   3  310.97   22.97
   2  -5   2  139.97   20.39
   5  -3  -2  159.30   15.36
   3   2   2  121.57    9.76
   2  -5   1   46.00   19.00
   5  -3  -1   48.08   10.54
   3   2   1   35.15    5.67
   3   2   0   22.66   10.35
   2  -5   0   35.27   18.71
   5  -3   0   28.02    7.06
   3   2   0   24.11    8.50
   3   2  -1   43.94   14.32
   2  -5  -1   54.59   20.97
   5  -3   1   50.99   10.45
   3   2  -1   34.70    5.34
   2  -5  -2  152.30   20.89
   3   2  -2  141.13   11.86
   5  -3   2  155.79   16.45
   3   2  -2  112.74    8.31
   2  -5  -3  401.28   35.33
   3   2  -3  375.39   27.19
   5  -3   3  400.94   36.50
   2  -5  -4  261.08   55.97
   5  -3   4  255.19   21.60
   2  -5  -5  402.14   36.62
   5  -3   5  345.87   29.11
   3   2  -5  415.94   28.88
   2  -5  -6   54.53   20.60
  -3  -2   6   31.08    9.24
   5  -3   6   41.23   13.44
   3   2  -6   44.22    7.04
  -3  -2   7  105.21   21.23
   5  -3   7  164.41   35.51
   3   2  -7  129.73   25.46
  -3  -2   8   70.79   20.82
   5  -3   8   76.06   34.50
   3   2  -8   79.31   22.34
  -2   5   8   88.51   25.64
  -3  -2   9   49.41   15.02
   5  -3   9   49.84   28.84
   3   2  -9   39.84   11.42
  -2   5   9   66.88   26.11
  -3  -2  10  105.18   16.08
   5  -3  10  142.73   54.75
  -2   5  10  156.57   15.29
   5  -3  11   41.25   22.09
  -2   5  11   65.53   11.78
  -3  -2  12    3.08    3.54
   5  -3  12    6.21    7.10
   5  -3  13   64.76   22.93
  -2   5  13   61.22    9.74
  -2   5  14  183.67   33.81
   5  -3  15   83.10   43.55
  -2   5  15  102.33   38.11
   5  -3  16   20.39   10.54
  -2   5  16   28.03   12.69
   5  -3  17   54.14   56.49
  -2   5  17   81.33   42.01
   3  -5  17   96.32   27.20
   2   3  17  195.24   47.70
   3  -5  16   11.17   10.68
   2   3  16   15.09   10.53
   3  -5  15   58.49   18.16
   2   3  15  128.66   28.61
   3  -5  14  148.08   30.54
   2   3  14  326.82   60.90
   3  -5  13  148.55   26.19
   2   3  13  263.65   41.81
   3  -5  12   62.10   33.37
   2   3  12  131.26   43.67
   3  -5  11   14.53   10.02
  -5   2  11   23.13    4.72
   2   3  11   23.84    8.83
   3  -5  10  220.21   26.66
  -5   2  10  295.17   24.95
   2   3  10  304.17   28.48
   3  -5   9   60.81   23.19
  -5   2   9   60.75   18.62
   2   3   9   68.26   27.52
   3  -5   8    6.78   12.88
   2   3   8   13.10    6.98
  -5   2   8    6.71    2.84
   3  -5   7  478.50   95.45
   2   3   7  502.52   98.76
  -5   2   7  466.90   90.94
   3  -5   6   13.17    8.56
   2   3   6   20.63    5.39
  -5   2   6   22.64    5.43
   5  -2  -5  527.16   39.40
   3  -5   5  450.46   37.86
   2   3   5  443.83   31.96
   3  -5   5  464.07   40.01
   5  -2  -4  373.59   29.53
   3  -5   4  389.73   33.94
   2   3   4  347.79   25.33
   5  -2  -3  587.08   42.43
   3  -5   3  565.98   45.14
  -5   2   3  499.37   35.11
   2   3   3  466.47   32.99
   3  -5   2   58.01   17.39
   5  -2  -2   63.91   10.70
  -5   2   2   47.17    7.32
   2   3   2   50.55    7.46
   3  -5   1   79.53   19.81
   5  -2  -1  118.98   12.06
  -5   2   1   71.21   10.32
   2   3   1   73.20   11.27
   3  -5   0  610.21   48.76
   5  -2   0  702.98   50.80
   2   3   0  530.99   37.20
  -2  -3   1   93.04   28.77
   3  -5  -1   89.24   33.23
   5  -2   1   96.34   15.56
  -2  -3   2   55.70   19.65
   3  -5  -2   46.24   19.88
   2   3  -2   49.97    9.29
   5  -2   2   65.75   22.35
  -2  -3   3  471.28   37.32
   3  -5  -3  580.05   46.72
   2   3  -3  561.39   40.28
   5  -2   3  564.75   41.92
   3  -5  -4  429.19   36.67
  -2  -3   4  320.67   25.12
   2   3  -4  452.69   32.84
   5  -2   4  379.47   30.33
   3  -5  -5  545.89   46.64
  -2  -3   5  372.28   28.58
   5  -2   5  430.27   33.15
   3  -5  -6   25.96   16.26
  -2  -3   6   17.06    8.60
   2   3  -6   27.71    5.14
   5  -2   6   24.65   11.92
   3  -5  -7  614.60  122.81
  -2  -3   7  463.96   91.68
   5  -2   7  472.85   98.04
   2   3  -7  567.62  110.82
  -2  -3   8    6.16    8.01
   5  -2   8    6.07    7.82
  -3   5   8   11.93    5.97
  -2  -3   9   57.02   18.07
   5  -2   9   49.98   17.26
  -2  -3  10  204.47   19.88
   5  -2  10  248.24   25.77
  -3   5  10  277.99   23.85
  -2  -3  11   20.06    8.50
   5  -2  11   27.55   12.83
  -3   5  11   24.28   12.62
  -2  -3  12   54.41   26.44
   5  -2  12  107.79   53.55
  -3   5  12  106.97   23.92
   5  -2  13  196.13   61.38
  -3   5  13  243.75   26.14
   5  -2  14  207.09   56.50
  -3   5  14  247.79   44.40
  -3   5  15   85.48   38.55
   5  -2  16   23.17   14.81
  -3   5  16   11.95    8.14
   5  -2  17  146.74   39.03
  -3   5  17  186.01   44.95
   4  -5  17   99.31   47.25
   4  -5  16   46.84   30.35
   1   4  16   93.58   55.60
   4  -5  15  113.03   27.92
   1   4  15  181.79   65.86
   4  -5  14   10.47   11.21
   1   4  14   21.84   13.85
   1   4  13  134.86   37.71
   4  -5  12  362.67   79.47
   1   4  12  554.26  117.79
   4  -5  11   20.86   10.36
   1   4  11   34.34   15.59
   4  -5  10   20.32   12.85
   1   4  10   30.62    9.42
  -5   1   9   98.57   27.95
   4  -5   9  122.87   34.58
  -5   1   9   83.34   23.60
   1   4   9  149.64   15.32
   1   4   8  144.64   29.66
   4  -5   7  361.14   73.48
   1   4   7  348.40   68.69
   4  -5   6  419.77   35.89
   1   4   6  367.06   26.90
   4  -5   5  465.91   38.22
   1   4   5  447.76   32.20
   5  -1  -4  261.05   18.61
   4  -5   4  227.86   23.63
  -5   1   4  181.34   12.63
   1   4   4  230.32   17.09
   5  -1  -3  422.06   30.09
   4  -5   3  381.74   33.32
   1   4   3  345.82   24.92
   4  -5   2  485.65   39.44
   5  -1  -2  564.40   39.88
  -1  -4  -1  124.40   49.75
   4  -5   1  121.42   15.66
   5  -1  -1  147.89   14.13
  -5   1   1   76.89   12.31
  -1  -4   0  411.11   33.83
   4  -5   0  454.42   37.55
   5  -1   0  495.37   35.50
  -1  -4   1  115.87   42.42
   4  -5  -1  118.44   22.96
   5  -1   1  126.81   12.22
  -1  -4   2  414.10   33.94
   4  -5  -2  459.35   49.34
   5  -1   2  464.99   34.23
  -1  -4   3  337.79   28.01
   4  -5  -3  362.43   40.39
   5  -1   3  334.25   25.98
   4  -5  -4  305.38   76.07
  -1  -4   4  207.29   19.30
   5  -1   4  245.37   20.75
   4  -5  -5  524.09   42.59
  -1  -4   5  399.94   32.28
   5  -1   5  427.62   32.33
   4  -5  -6  466.10   70.98
  -1  -4   6  349.71   29.84
   5  -1   6  351.04   28.80
   4  -5  -7  472.74  112.45
  -1  -4   7  335.83   67.51
   5  -1   7  332.93   67.13
  -1  -4   8  114.82   25.99
   5  -1   8  134.78   36.96
  -4   5   8  149.66   29.89
  -1  -4   9  103.60   18.32
   5  -1   9  111.21   14.16
  -4   5   9  136.25   12.68
  -1  -4  10   15.50    8.59
   5  -1  10   16.88   11.09
  -4   5  10   26.12    9.38
  -1  -4  11   17.47    8.05
   5  -1  11   19.18   11.88
  -4   5  11   22.51    9.25
  -1  -4  12  304.32   65.66
   5  -1  12  518.07  110.59
  -4   5  12  506.18  106.80
  -1  -4  13   56.73   19.24
   5  -1  13  123.90   22.62
  -4   5  13  117.02   13.84
  -1  -4  14    4.64    6.00
   5  -1  14   16.82   12.28
  -4   5  14   10.15    7.16
   5  -1  15  141.93   46.77
  -4   5  15  159.54   36.60
   5  -1  16   95.79   30.77
  -4   5  16  104.90   28.27
   5  -1  17  132.83   75.30
  -4   5  17  170.54   40.94
   5  -5  16   43.72   17.65
   0   5  16   54.33   19.13
   0   5  15   64.05   11.39
   5  -5  14   89.18   45.68
   0   5  14  130.54   48.03
   5  -5  13   65.85   18.17
   0   5  13   67.79   43.77
   5  -5  12   58.89   17.84
   0   5  11   13.91    8.91
   5  -5  10  202.77   58.04
   0   5  10  274.72   74.70
   5  -5   9  101.87   25.36
   0   5   9   99.96   33.91
   5  -5   8   85.97   30.30
   0   5   8   77.18   23.02
   5  -5   7   92.73   23.97
   0   5   7  104.65   21.67
   5  -5   6   30.17   13.63
   0   5   6   36.00   11.06
   5  -5   5  146.17   33.30
   0   5   5  137.27   27.45
   5  -5   4  207.76   23.67
   0   5   4  178.48   14.35
   0  -5  -3  117.53   36.79
   5   0  -3   94.33   12.88
   5   0  -3  106.68    8.15
   5  -5   3   98.00   21.94
   0  -5  -2   30.40   16.27
   5  -5   2   19.91    9.65
   5   0  -2   26.13    8.47
   0  -5  -1  130.27   47.79
   5  -5   1  129.53   16.11
   5   0  -1  127.42   12.77
  -5   0   1   80.95   10.88
   0  -5   0   54.27   33.22
   5  -5   0   58.87   15.29
   5   0   0   50.79    8.58
   0  -5   1  114.25   26.39
   5  -5  -1  137.12   19.09
   5   0   1  104.98   11.44
   0  -5   2   19.68   11.39
   5  -5  -2   37.46   14.97
   5   0   2   27.33    9.32
   5  -5  -3  101.14   41.61
   0  -5   3   89.32   34.53
   5   0   3   98.27   25.76
   5  -5  -4  200.70   22.19
   0  -5   4  162.28   26.56
   5   0   4  170.55   15.85
   5  -5  -5  195.86   70.68
   0  -5   5  139.45   30.27
   5   0   5  134.01   27.77
   5  -5  -6   39.05   27.18
   0  -5   6   54.00   22.62
   5   0   6   40.07   15.38
   5  -5  -7   87.75   34.54
   0  -5   7   91.43   30.35
   5   0   7   98.72   22.00
   5  -5  -8  117.24   19.11
   0  -5   8   75.12   24.80
   5   0   8   97.45   29.72
   0  -5   9   74.83   24.40
   5   0   9   91.12   28.13
  -5   5   9  103.27   15.26
   0  -5  10  177.96   50.12
   5   0  10  294.78   81.40
  -5   5  10  257.22   69.58
   0  -5  11    1.58    7.78
   5   0  11   18.24   15.25
  -5   5  11    9.34    4.97
   0  -5  12   45.21   24.18
   5   0  12  102.47   18.23
  -5   5  12   80.29   14.04
   0  -5  13   33.81   14.61
   5   0  13   91.55   58.15
  -5   5  13   78.45   15.39
   0  -5  14   76.55   19.52
   5   0  14   95.97   48.27
  -5   5  14  130.36   27.09
   0  -5  15   26.37   13.80
   5   0  15   75.00   26.63
  -5   5  15   65.35   23.83
   5   0  16   45.40   17.35
  -5   5  16   50.41   15.08
   1  -6  16   32.34   20.65
   5   1  16   82.59   35.50
   1  -6  15   19.25   13.95
   5   1  15   73.51   45.61
   1  -6  14   47.97   22.59
   5   1  14   92.91   18.51
  -6   5  14   74.46   14.60
   1  -6  13    9.33    9.73
   5   1  13   11.45   11.00
  -6   5  13   12.81    7.25
   1  -6  12   16.80   14.33
   5   1  12    3.68   11.17
  -6   5  12    8.02    4.61
   1  -6  11    5.37    8.81
   5   1  11   12.86   11.76
  -6   5  11   12.24    7.23
   1  -6  10  169.23   42.21
   5   1  10  234.12   51.75
  -6   5  10  225.43   47.74
   1  -6   9   66.75   16.47
   5   1   9   96.06   43.98
  -6   5   9   76.54   32.42
   6  -5  -8  156.07   20.93
   1  -6   8  123.14   18.10
   5   1   8  150.22   19.27
   6  -5  -7   27.98   12.69
   1  -6   7   12.34   13.36
   5   1   7   33.62   14.56
   6  -5  -6   85.87   39.96
   1  -6   6   56.31   22.07
   5   1   6   76.15   25.39
   6  -5  -5   50.29   29.00
   1  -6   5   21.67   14.85
   5   1   5   35.46   16.76
   6  -5  -4  111.31   38.76
   1  -6   4  132.19   67.68
   5   1   4  100.36   36.59
   1  -6   3   43.07   21.25
   6  -5  -3   50.37   23.30
   5   1   3   42.84   19.45
   1  -6   2   80.21   30.85
   6  -5  -2   75.79   19.56
   5   1   2   77.51   22.79
   1  -6   1   92.05   42.06
   6  -5  -1   78.52   18.72
   5   1   1   93.89   22.09
   1  -6   0   40.26   17.80
   6  -5   0   45.81   14.16
   5   1   0   43.83   10.97
   5   1  -1   69.96   10.84
   1  -6  -1   94.40   33.20
   6  -5   1   98.51   24.85
   5   1  -1   90.76   13.82
   1  -6  -2   95.73   45.13
   5   1  -2   64.23   14.77
   6  -5   2   75.77   18.34
   5   1  -2   81.70   12.30
   1  -6  -3   54.60   27.21
   5   1  -3   45.47   14.28
   6  -5   3   40.99   19.00
   5   1  -3   66.29   18.80
   1  -6  -4  114.38   66.19
   6  -5   4  131.26   32.82
   1  -6  -5   42.24   18.32
   6  -5   5   47.53   21.94
   6  -5   6   86.07   30.86
  -1   6   6   66.88   19.54
   6  -5   7   31.76   14.22
  -1   6   7   33.46   11.01
   6  -5   8  149.02   55.71
  -1   6   8  147.19   15.17
   6  -5   9   73.06   36.24
  -1   6   9   75.00   16.84
   6  -5  10  172.17   40.61
  -1   6  10  207.43   48.16
   6  -5  11   15.69   12.21
   6  -5  12   12.54   15.29
  -1   6  12   18.57   11.00
   6  -5  13   16.06   14.26
  -1   6  13   13.25    9.72
   6  -5  14   53.88   18.16
  -1   6  14   85.24   26.30
   6  -5  15   58.46   21.23
   6  -5  16   46.92   34.37
  -1   6  16   72.16   28.75
   2  -6  16   27.17   19.38
   4   2  16   69.46   22.52
   2  -6  15   33.11   18.19
   4   2  15   71.29   14.35
   2  -6  14   45.74   17.53
   4   2  14   89.86   51.59
   2  -6  13    2.55   10.05
   4   2  13    4.93    5.45
  -6   4  13    3.88    2.55
   2  -6  12    4.98   13.87
   4   2  12    7.36    7.35
  -6   4  12    0.31    3.37
   2  -6  11   11.49   14.61
   4   2  11    8.37   11.34
  -6   4  11    7.17    4.52
   2  -6  10   95.39   28.57
   4   2  10  134.58   49.46
  -6   4  10  121.37   33.10
   2  -6   9   25.78   14.33
   4   2   9   33.74    9.13
  -6   4   9   32.15    9.18
   2  -6   8  143.53   20.97
   4   2   8  170.25   19.38
  -6   4   8  161.57   13.86
   6  -4  -7   38.78   21.64
   2  -6   7   45.61   22.22
   4   2   7   36.04   12.64
   6  -4  -6   17.01    8.81
   2  -6   6   14.09   12.92
   4   2   6   11.83    6.44
   6  -4  -5  107.92   39.28
   2  -6   5  108.96   27.93
   4   2   5   91.35   26.87
   6  -4  -4   76.25   39.40
   2  -6   4   83.00   29.87
   4   2   4   60.52   18.62
   6  -4  -3   86.50   34.61
   2  -6   3   68.52   27.69
   4   2   3   69.62   13.88
   2  -6   2   96.08   46.08
   6  -4  -2  114.24   16.68
   4   2   2   72.48   15.03
   2  -6   1  103.24   50.49
   6  -4  -1  114.49   15.10
   4   2   1   76.86   11.28
   2  -6   0   14.22   10.67
   6  -4   0    9.40   12.66
   4   2   0    5.73    2.51
   4   2  -1   77.76   20.63
   2  -6  -1   99.44   44.65
   6  -4   1  109.77   16.04
   4   2  -1   68.69   10.12
   2  -6  -2  118.75   45.84
   4   2  -2   86.46   14.31
   6  -4   2  130.27   17.48
   4   2  -2   70.11   10.03
   2  -6  -3   69.49   37.64
   4   2  -3   70.65   10.55
   6  -4   3   86.13   16.46
   4   2  -3   64.78    8.99
   2  -6  -4   81.32   33.71
   4   2  -4   81.98   23.24
   6  -4   4   91.06   28.51
   4   2  -4   55.31   15.64
   2  -6  -5  132.95   64.33
   6  -4   5  143.84   56.02
   2  -6  -6   37.89   25.39
   6  -4   6   26.42   16.53
   6  -4   7   50.72   20.15
  -2   6   7   39.88   16.94
   6  -4   8  148.54   18.74
   6  -4   9   27.98   11.70
  -2   6   9   26.08   10.42
   6  -4  10  118.90   51.36
  -2   6  10  114.82   31.73
   6  -4  11   11.47   13.21
  -2   6  11    9.91    7.16
   6  -4  12   11.12   14.81
  -2   6  12    5.85    6.52
   6  -4  13    3.06    5.51
   6  -4  14   62.91   19.39
  -2   6  14   92.44   20.61
   6  -4  15   38.82   21.83
  -2   6  15   57.15   17.35
   6  -4  16   53.77   37.83
  -2   6  16   76.73   29.72
   3  -6  16   50.14   30.71
   3   3  16  113.02   42.38
   3  -6  15   87.17   19.41
   3  -6  14    9.35   11.69
   3   3  14   13.56   11.81
   3  -6  13   37.87   20.29
   3   3  13   82.83   46.42
   3  -6  12  342.41   38.61
   3  -6  11   36.28   19.11
   3   3  11   51.81   23.70
   3  -6  10   28.68   14.52
   3   3  10   41.14   10.82
  -6   3  10   43.13    6.94
   3   3   9   67.19   14.73
  -6   3   9   55.12    8.32
   3  -6   8  218.79   27.35
   3   3   8  258.64   25.32
  -6   3   8  242.40   19.99
   3  -6   7  310.09   63.86
   3   3   7  379.83   75.20
  -6   3   7  369.20   72.01
   6  -3  -6  442.02   87.26
   3  -6   6  353.94   72.15
   3   3   6  389.60   76.98
   6  -3  -5  338.91   69.05
   3  -6   5  280.24   58.61
   3   3   5  292.46   57.73
   6  -3  -4   98.87   36.09
   3   3   4   89.27   13.21
   6  -3  -3  167.23   16.65
   3  -6   3  134.23   22.62
   3   3   3  124.45   10.98
   3  -6   2  465.97   42.76
   6  -3  -2  486.05   36.83
   3   3   2  344.90   24.90
   3  -6   1  206.00   67.95
   6  -3  -1  214.00   19.11
   3   3   1  155.68   12.58
   3  -6   0   20.66   13.52
   6  -3   0   15.15    5.70
   3   3   0   13.01    3.03
   3  -6  -1  225.87   59.14
   6  -3   1  223.24   20.23
   3   3  -1  146.28   11.01
   3  -6  -2  452.95   40.56
   6  -3   2  438.21   33.63
   3   3  -2  325.24   22.83
   3  -6  -3  187.29   48.38
   3   3  -3  145.35   12.42
   6  -3   3  190.82   41.61
   3   3  -3  114.12    8.51
  -3  -3   4   80.77   14.56
   3  -6  -4  127.83   52.62
   3   3  -4  109.26    9.75
   6  -3   4  109.43   13.02
  -3  -3   5  213.73   43.49
   3  -6  -5  455.78  144.54
   3   3  -5  388.41   76.02
   6  -3   5  334.22   66.81
   3  -6  -6  470.57  125.09
  -3  -3   6  296.02   58.62
   6  -3   6  397.39   80.40
   3   3  -6  437.06   85.32
   3  -6  -7  446.59   93.89
  -3  -3   7  267.71   53.02
   6  -3   7  351.23   71.54
   3   3  -7  425.37   83.01
  -3  -3   8  177.40   16.41
   6  -3   8  237.76   24.82
  -3   6   8  262.28   22.75
  -3  -3   9   33.46   10.35
   6  -3   9   45.87   15.18
  -3   6   9   52.15   14.22
  -3  -3  10   21.85   12.84
   6  -3  10   42.93   16.71
  -3   6  10   42.07    8.61
   6  -3  11   34.06   21.68
  -3   6  11   46.13   25.43
   6  -3  12  520.57   55.90
  -3   6  12  579.49   56.45
   6  -3  13   77.32   33.59
  -3   6  13   86.65   17.71
   6  -3  14    9.00    8.98
  -3   6  14   11.05    6.96
   6  -3  15  166.93   46.54
  -3   6  15  183.25   17.77
  -3   6  16   95.06   43.59
   4  -6  16   49.82   31.99
   4  -6  15   14.52   13.66
   2   4  15   27.28   14.98
   4  -6  14   39.28   16.31
   2   4  14   62.44   17.44
   4  -6  13    9.05   17.44
   2   4  13   -0.15    9.57
   4  -6  12  760.39   77.95
   2   4  12 1142.76  338.21
   4  -6  11   10.35   13.98
   2   4  11    5.46    5.11
   4  -6  10  515.11  140.98
   2   4  10  708.09  297.84
   4  -6   9   21.24   12.96
  -6   2   9   18.98    4.08
   2   4   9   26.84    7.90
   4  -6   8 1072.16   91.69
  -6   2   8 1132.90   90.30
   2   4   8 1285.33  104.27
  -6   2   7    0.80    1.38
   2   4   7    3.72    7.87
   4  -6   6   58.11   23.01
  -6   2   6   50.29   14.32
   2   4   6   75.14   27.27
  -6   2   6   67.05   18.83
   6  -2  -5  121.64   24.66
   4  -6   5  124.28   58.72
   2   4   5  110.05   22.41
   6  -2  -4  128.26   25.99
   4  -6   4  122.46   30.34
   2   4   4  111.31   22.58
   6  -2  -3    9.32    7.17
   4  -6   3   18.67   19.32
  -6   2   3    1.18    1.75
   2   4   3    4.51    2.32
   4  -6   2 2487.36  696.41
   6  -2  -2 2779.56  777.14
  -6   2   2 1761.36  492.38
   2   4   2 2051.39  573.40
   4  -6   1   25.02   12.67
   6  -2  -1   15.72    7.09
   2   4   1   16.23    4.09
   4  -6   0 2028.59  568.52
   6  -2   0 2355.89  658.81
   2   4   0 1760.30  492.05
  -2  -4   1   13.16    6.61
   4  -6  -1   21.29   14.48
   6  -2   1   13.73    6.63
  -2  -4   2 1907.21  533.77
   4  -6  -2 2396.90  671.27
   6  -2   2 2604.41  728.26
  -2  -4   3   -1.10    7.07
   4  -6  -3   10.07   16.33
   6  -2   3    2.32    3.56
  -2  -4   4  101.86   31.23
   4  -6  -4  157.39   51.71
   6  -2   4  130.99   46.73
   4  -6  -5  140.79   50.55
  -2  -4   5   91.94   27.69
   6  -2   5  119.50   25.72
   4  -6  -6  100.21   30.20
  -2  -4   6   64.68   34.57
   6  -2   6   77.53   24.71
   4  -6  -7   12.25   13.79
  -2  -4   7   -0.89    6.23
   6  -2   7    8.86    5.68
  -2  -4   8  925.60   76.77
   6  -2   8 1068.14  100.51
  -2  -4   9   11.09    7.23
   6  -2   9   16.81    7.74
  -4   6   9   18.33    4.91
  -2  -4  10  441.83  119.89
   6  -2  10  526.24  143.09
  -4   6  10  650.95  272.85
  -2  -4  11    4.42    7.38
   6  -2  11    2.04    5.60
  -4   6  11    2.86    3.14
   6  -2  12  996.88   98.65
  -4   6  12 1051.60  310.60
   6  -2  13    2.34   11.07
  -4   6  13    8.64    5.96
   6  -2  14   45.63   29.51
  -4   6  14   44.57   30.13
  -4   6  15   22.65   12.17
   6  -2  16   79.64   23.92
  -4   6  16   63.59   52.26
   5  -6  16   22.86   17.59
   1   5  16   56.84   32.92
   5  -6  15   45.71   17.99
   1   5  15  102.53   29.41
   5  -6  14   51.63   19.38
   1   5  14   79.09   13.33
   5  -6  13   32.22   16.04
   1   5  13   76.95   18.14
   5  -6  12   18.41   14.62
   1   5  12   12.62    9.04
   5  -6  11   11.85   13.44
   1   5  11   25.33   12.75
   5  -6  10   62.10   32.47
   1   5  10   60.65   26.62
   5  -6   9   57.03   18.13
   1   5   9   83.88   23.98
   5  -6   8  149.92   26.41
   1   5   8  155.23   15.24
   5  -6   7  279.30   32.76
   1   5   7  281.35   24.36
   5  -6   6   10.37   12.77
   1   5   6    5.13    5.88
   5  -6   5  151.09   33.75
   1   5   5  164.53   32.96
   6  -1  -4   44.60   13.16
   5  -6   4   51.62   22.89
   1   5   4   44.94   13.58
   6  -1  -3  114.52   23.12
   5  -6   3   96.55   26.28
   1   5   3   98.40   20.20
  -1  -5  -2  182.07   21.79
   5  -6   2  185.44   22.83
  -1  -5  -1   43.41   21.15
   5  -6   1   40.98   14.31
   6  -1  -1   49.76    9.83
  -6   1   1   27.81    6.56
  -1  -5   0    8.37    8.41
   5  -6   0   10.08   16.32
   6  -1   0   13.23    6.11
  -1  -5   1   52.31   28.36
   5  -6  -1   42.42   20.75
   6  -1   1   48.38   16.37
  -1  -5   2  158.88   18.99
   5  -6  -2  219.72   60.53
   6  -1   2  189.41   17.02
  -1  -5   3  113.08   55.48
   5  -6  -3  134.57   40.16
   6  -1   3  117.05   29.81
   5  -6  -4   51.87   18.75
  -1  -5   4   50.80   21.18
   6  -1   4   42.00   14.68
   5  -6  -5  221.45   85.95
  -1  -5   5  131.39   28.62
   6  -1   5  159.66   33.21
   5  -6  -6   17.23   13.49
  -1  -5   6    4.45    8.43
   6  -1   6    3.87    9.65
   5  -6  -7  322.10   32.69
  -1  -5   7  216.48   23.17
   6  -1   7  248.91   25.17
   5  -6  -8  187.95   24.42
  -1  -5   8  113.78   15.67
   6  -1   8  134.88   19.15
  -1  -5   9   66.49   14.79
   6  -1   9   76.92   35.09
  -5   6   9   84.21   23.50
  -1  -5  10   45.86   21.54
   6  -1  10   65.69   29.86
  -5   6  10   65.17   33.24
  -1  -5  11    8.86   10.88
   6  -1  11   23.08   14.03
  -5   6  11   19.39   11.98
  -1  -5  12    3.18    6.47
   6  -1  12   18.58   13.05
  -5   6  12   11.13    7.39
  -1  -5  13   37.12   14.97
   6  -1  13   52.25   20.93
  -5   6  13   49.53   20.70
   6  -1  14   65.90   18.09
  -5   6  14   67.50   22.76
   6  -1  15   87.22   26.02
  -5   6  15   83.21   22.67
   6  -1  16   43.51   34.06
  -5   6  16   35.59   32.19
   6  -6  15  125.17   36.60
   0   6  15  237.37   61.76
   6  -6  14    3.72   12.20
   0   6  14    5.17    4.38
   6  -6  13  106.43   45.29
   0   6  13  152.15   32.36
   0   6  12  335.77   59.74
   6  -6  11   37.10   19.14
   0   6  11   38.85   16.19
   6  -6  10   50.16   24.97
   0   6  10   78.89   18.40
   6  -6   9  122.69   33.60
   0   6   9  128.42   28.24
   6  -6   8  139.33   43.07
   0   6   8  133.37   36.90
   6  -6   7  459.13   45.13
   0   6   7  450.69   37.82
   6  -6   6  267.00   61.98
   0   6   6  259.67   22.43
   6  -6   5  523.40   49.83
   0   6   5  512.81   42.37
   6  -6   4  102.76   29.14
   0   6   4   78.58   25.18
   0  -6  -3  395.86   80.95
   6   0  -3  372.65   72.85
   6  -6   3  416.94   85.27
   6   0  -3  470.38   91.79
   0  -6  -2  207.53   75.04
   6  -6   2  210.64   46.06
   6   0  -2  267.21   52.54
   0  -6  -1   59.87   35.66
   6  -6   1   71.97   25.89
   6   0  -1   66.12   19.27
  -6   0   1   49.39   13.99
   0  -6   0  237.69   51.92
   6  -6   0  242.26   52.66
   6   0   0  265.87   52.61
   6  -6  -1   65.67   25.73
   6   0   1   64.86   19.51
   0  -6   2  187.61   41.60
   6  -6  -2  229.27   59.07
   6   0   2  200.25   41.12
   0  -6   3  324.38   65.76
   6  -6  -3  390.12   79.07
   6   0   3  372.85   73.82
   6  -6  -4  101.10   36.39
   0  -6   4   75.40   37.20
   6   0   4   94.71   24.97
   6  -6  -5  596.15   63.64
   0  -6   5  437.24   42.25
   6   0   5  493.27   42.53
   6  -6  -6  293.25   52.66
   0  -6   6  246.60   65.65
   6   0   6  243.66   47.36
   6  -6  -7  535.92   50.70
   0  -6   7  357.05   35.41
   6   0   7  425.96   38.69
   6  -6  -8  163.06   46.43
   0  -6   8   96.82   29.85
   6   0   8  122.01   35.47
   0  -6   9  103.35   25.91
   6   0   9  124.14   29.82
  -6   6   9  150.79   32.31
   0  -6  10   55.95   26.12
   6   0  10   81.65   32.23
  -6   6  10   70.69   25.87
   0  -6  11   18.97   12.43
   6   0  11   32.56   16.07
  -6   6  11   26.97   10.94
   0  -6  12  204.45   40.12
   6   0  12  323.55   60.11
  -6   6  12  322.11   56.63
   0  -6  13   77.83   22.28
   6   0  13  167.50   53.90
  -6   6  13  140.05   28.33
   0  -6  14    5.29    7.09
   6   0  14   12.82   11.33
  -6   6  14    0.81    2.98
   6   0  15  236.57   64.10
  -6   6  15  238.83   60.43
   6   1  15  143.28   52.77
   1  -7  14   55.74   19.57
   6   1  14  119.47   35.38
   1  -7  13   42.67   20.86
   6   1  13   70.70   34.78
  -7   6  13   70.23    7.85
   1  -7  12   25.63   17.02
   6   1  12   17.36   14.41
  -7   6  12   15.10    6.19
   1  -7  11   13.41   18.75
   6   1  11    9.94   10.93
  -7   6  11    3.81    3.31
   1  -7  10  107.71   18.08
   6   1  10  133.28   18.30
  -7   6  10  158.74   16.57
   1  -7   9   32.93   18.61
   6   1   9   54.68   20.59
  -7   6   9   46.54   17.20
   7  -6  -8   78.31   30.45
   1  -7   8   48.71   25.61
   6   1   8   82.05   37.21
   7  -6  -7  483.08  137.62
   1  -7   7  314.31   98.03
   6   1   7  421.40  114.62
   7  -6  -6   34.47   20.46
   1  -7   6   37.42   20.76
   6   1   6   32.79    8.74
   7  -6  -5  343.95   57.78
   1  -7   5  242.84   28.10
   6   1   5  258.32   25.37
   7  -6  -4  115.93   33.30
   1  -7   4   92.23   45.94
   6   1   4   88.92   26.30
   1  -7   3  176.25   68.65
   7  -6  -3  208.20   33.38
   6   1   3  161.71   21.33
   7  -6  -2  165.73   44.20
   6   1   2  160.54   15.95
   1  -7   1   30.91   14.76
   7  -6  -1   43.08   19.90
   6   1   1   34.01   11.17
   1  -7   0   18.13   15.52
   7  -6   0   28.38   21.61
   6   1   0   13.87    6.53
   1  -7  -1   38.94   22.49
   7  -6   1   31.78   17.68
   6   1  -1   45.73   15.12
   1  -7  -2  201.33   86.92
   6   1  -2  123.82   22.01
   7  -6   2  164.55   21.87
   6   1  -2  182.01   15.91
   6   1  -3  168.83   14.51
   7  -6   3  216.44   28.56
   6   1  -3  235.88   19.55
   1  -7  -4  122.86   59.57
   7  -6   4  100.07   33.42
   1  -7  -5  343.31   37.31
   7  -6   5  299.65   36.46
   7  -6   6   47.17   16.41
  -1   7   6   36.23   16.31
   7  -6   7  416.60  115.23
   7  -6   8   70.76   29.82
  -1   7   8   78.38   18.59
   7  -6   9   50.24   23.42
  -1   7   9   51.57   17.16
   7  -6  10  127.37   25.62
  -1   7  10  148.09   17.04
   7  -6  11   11.20   13.10
  -1   7  11    6.19    4.53
   7  -6  12   24.94   21.73
   7  -6  13   44.66   22.03
  -1   7  13   74.43   20.62
   7  -6  14   64.67   25.98
  -1   7  14  102.70   27.80
   7  -6  15   92.06   29.00
  -1   7  15  155.41   37.99
   2  -7  15  116.10   31.03
   5   2  15  300.08   72.29
   2  -7  14   12.01    9.92
   5   2  14    3.48   10.71
   2  -7  13   37.28   13.75
   5   2  13  104.41   35.31
   2  -7  12  224.80   48.48
   5   2  12  458.80   91.89
   2  -7  11   -3.51   10.27
   5   2  11   17.64   10.39
  -7   5  11    4.48    3.59
   2  -7  10   34.21   22.70
   5   2  10   56.91   30.28
  -7   5  10   39.44   14.64
   2  -7   9   93.93   27.24
   5   2   9  134.80   41.06
  -7   5   9  112.37   24.13
   7  -5  -8  207.54   57.86
   2  -7   8  133.26   39.90
   5   2   8  229.93   64.64
   2  -7   7  406.04  112.21
   5   2   7  483.60  131.21
   7  -5  -6  282.67   30.01
   2  -7   6  216.51   28.28
   5   2   6  245.28   24.80
   7  -5  -5  497.41   48.42
   5   2   5  459.02   39.62
   7  -5  -4  103.91   36.20
   2  -7   4   67.80   39.09
   5   2   4   69.65   24.71
   2  -7   3  212.72   47.07
   7  -5  -3  250.84   81.56
   5   2   3  194.78   39.57
   2  -7   2  276.95   74.78
   7  -5  -2  356.23   73.98
   5   2   2  249.28   49.53
   2  -7   1   82.39   42.72
   7  -5  -1  111.20   25.91
   5   2   1   65.82   21.86
   7  -5   0  182.40   39.24
   5   2   0  134.70   27.15
   2  -7  -1   94.65   29.19
   7  -5   1  111.09   27.07
   5   2  -1   85.42   24.53
   2  -7  -2  311.37   77.46
   5   2  -2  269.06   53.23
   7  -5   2  351.26   71.75
   5   2  -2  292.19   57.34
   2  -7  -3  237.94   68.09
   5   2  -3  219.02   43.32
   7  -5   3  253.51   53.05
   5   2  -3  227.65   44.66
   2  -7  -4   76.18   37.92
   7  -5   4   97.54   31.02
   5   2  -4   89.64   25.56
   5   2  -4   84.37   23.89
   2  -7  -5  501.06   48.17
   7  -5   5  511.35   50.97
   2  -7  -6  264.52   33.97
   7  -5   6  221.53   27.04
   7  -5   7  467.31  127.91
  -2   7   7  492.72  132.99
   7  -5   8  180.88   62.73
  -2   7   8  181.44   49.44
   7  -5   9   95.60   58.76
  -2   7   9  103.22   23.30
   7  -5  10   40.16   19.39
  -2   7  10   35.77   14.69
   7  -5  11   11.19   16.59
  -2   7  11    8.60    6.65
   7  -5  12  228.56   64.15
  -2   7  12  377.30   75.67
   7  -5  13   78.72   38.65
  -2   7  13   77.31   30.53
   7  -5  14   14.85    8.72
   7  -5  15  173.37   58.85
  -2   7  15  260.41   61.57
   3  -7  15   81.40   26.26
   4   3  15  176.54   51.40
   3  -7  14   71.11   18.44
   3  -7  13   85.21   21.64
   4   3  13  167.14   53.23
   3  -7  12   82.97   20.94
   4   3  12  162.52   32.04
   3  -7  11   -0.07   11.75
   4   3  11   11.62    6.72
   3  -7  10  134.59   33.48
   4   3  10  210.61   46.79
  -7   4  10  176.11   37.27
   3  -7   9   59.59   30.16
   4   3   9   62.26   40.98
  -7   4   9   47.83   20.31
   3  -7   8   11.79   10.36
   4   3   8   13.76    7.33
  -7   4   8   15.53    6.10
   7  -4  -7  531.36  223.19
   3  -7   7  441.37  121.56
   4   3   7  457.55  124.27
   7  -4  -6   77.22   29.10
   3  -7   6   59.66   21.66
   4   3   6   74.22   23.86
   7  -4  -5  394.07   36.00
   3  -7   5  325.14   35.12
   4   3   5  365.89   32.68
   7  -4  -4  322.91   64.99
   3  -7   4  281.78   60.69
   4   3   4  291.52   57.79
   7  -4  -3  333.53   69.85
   3  -7   3  330.40   72.45
   4   3   3  282.03   55.76
   3  -7   2   94.11   40.76
   7  -4  -2  131.23   29.41
   4   3   2  104.62   21.54
   3  -7   1   43.08   21.45
   7  -4  -1   58.79   20.57
   4   3   1   40.45   16.57
   3  -7   0   79.96   51.63
   7  -4   0   91.45   29.39
   4   3   0   62.19   19.38
   3  -7  -1   41.05   22.46
   7  -4   1   33.97   12.51
   4   3  -1   33.39    9.96
   3  -7  -2  114.12   51.81
   7  -4   2  148.26   32.66
   4   3  -2   82.64   23.46
   3  -7  -3  423.26  125.55
   4   3  -3  329.94   65.01
   7  -4   3  377.73   76.39
   4   3  -3  234.16   45.81
   3  -7  -4  360.94   74.92
   4   3  -4  335.17   65.78
   7  -4   4  330.00   66.64
   4   3  -4  213.45   41.73
   3  -7  -5  423.80   51.82
   7  -4   5  414.07   40.50
   3  -7  -6   98.24   62.18
   7  -4   6   94.99   40.05
   4   3  -6   41.28   11.72
   3  -7  -7  579.97  244.63
   7  -4   7  481.50  131.65
   7  -4   8   17.50   10.69
  -3   7   8   21.41    7.71
   7  -4   9   44.88   22.99
  -3   7   9   47.58   25.60
   7  -4  10  151.44   44.84
  -3   7  10  181.78   39.34
   7  -4  11    4.37   12.97
  -3   7  11    5.05    6.45
   7  -4  12  115.87   25.35
  -3   7  12  140.44   26.11
   7  -4  13  115.39   28.27
  -3   7  13  159.72   33.05
   7  -4  14  126.25   24.24
  -3   7  14  145.13   15.12
   7  -4  15  108.06   71.88
  -3   7  15  176.98   42.67
   4  -7  15   17.34   15.35
   3   4  15   36.97   28.60
   4  -7  14   96.86   18.86
   4  -7  13   32.73   17.71
   3   4  13   51.99   21.34
   4  -7  12   19.34   13.17
   3   4  12   19.58   11.86
   4  -7  11   59.52   15.02
   3   4  11   74.93   14.04
   3   4  10  107.89   33.38
   4  -7   9   36.02   19.82
   3   4   9   64.34   35.97
   4  -7   9   31.72   19.13
   4  -7   8   95.31   31.33
   3   4   8  128.60   52.87
  -7   3   8  108.63   29.35
   4  -7   7  183.46   54.05
   3   4   7  191.63   52.81
  -7   3   7  185.36   49.93
   7  -3  -6   15.78   12.57
   4  -7   6   12.59   13.89
   3   4   6   17.59    8.09
   7  -3  -5  206.96   20.22
   3   4   5  177.12   16.61
   7  -3  -4  225.18   45.51
   4  -7   4  190.02   42.66
   3   4   4  188.37   38.00
   7  -3  -3  164.62   34.06
   4  -7   3  134.86   34.38
   3   4   3  127.02   25.55
   4  -7   2  104.51   29.46
   7  -3  -2  122.90   26.22
   3   4   2   98.57   23.96
   4  -7   1    7.11    9.94
   7  -3  -1   15.74    7.57
   3   4   1   14.84    6.62
   4  -7   0   -3.48   15.39
   7  -3   0    3.08    9.53
   3   4   0    0.73    2.77
   4  -7  -1   14.73    9.82
   7  -3   1   23.25   14.66
   3   4  -1   11.08    4.08
   4  -7  -2  126.39   42.66
   7  -3   2  119.49   26.62
   3   4  -2   81.53   23.10
   4  -7  -3  185.91   72.22
   7  -3   3  182.09   50.32
   3   4  -3  126.41   24.96
  -3  -4   4  158.16   32.76
   4  -7  -4  280.36   93.37
   7  -3   4  244.36   50.54
  -3  -4   5  123.88   22.53
   4  -7  -5  230.31   53.50
   7  -3   5  210.52   50.41
   4  -7  -6   10.28    9.31
  -3  -4   6    8.77    5.86
   7  -3   6   14.63   11.25
   4  -7  -7  248.17   72.33
  -3  -4   7  120.03   33.50
   7  -3   7  193.65   54.33
   4  -7  -8  170.21   73.95
   7  -3   8  135.32   55.08
   7  -3   9   62.47   31.50
   7  -3  10   76.00   38.86
  -4   7  10   88.45   20.30
   7  -3  11   52.19   29.85
  -4   7  11   80.41   10.72
   7  -3  12    4.13    6.55
  -4   7  12   16.55    7.24
   7  -3  13   42.38   26.12
  -4   7  13   43.50   26.67
   7  -3  14  183.76   22.83
  -4   7  14  230.96   20.51
   7  -3  15   16.29   14.70
  -4   7  15   19.72    7.75
   5  -7  15   44.07   30.75
   2   5  15   78.60   22.24
   5  -7  14   16.41   13.61
   2   5  14   37.55   11.88
   5  -7  13   25.54   21.01
   2   5  13   58.05   18.41
   5  -7  12  137.96   32.63
   2   5  12  214.95   44.19
   5  -7  12  160.45   39.27
   5  -7  11    7.57   12.53
   2   5  11    8.19    9.21
   5  -7  10   62.80   18.67
   2   5  10   99.40   17.84
   5  -7   9   35.53   24.20
   2   5   9   53.59   24.89
   2   5   8  124.03   34.45
   5  -7   7  127.47   62.08
   2   5   7  157.19   43.43
   5  -7   6  442.71   46.00
   2   5   6  424.04   36.15
   7  -2  -5  264.93   22.41
   5  -7   5  219.08   26.00
  -7   2   5  182.07   14.92
   2   5   5  222.99   20.33
   7  -2  -4   43.30   18.62
   5  -7   4   57.33   20.93
   2   5   4   47.24   19.73
   7  -2  -3  178.94   36.43
   5  -7   3  183.76   44.13
  -7   2   3  110.60   22.00
   2   5   3  150.08   30.08
   5  -7   2   51.84   25.36
   7  -2  -2   49.13   18.98
   2   5   2   42.06   12.81
   5  -7   1   79.78   31.48
   7  -2  -1   80.31   23.85
   2   5   1   59.46   17.20
   5  -7   0  186.64   71.01
   7  -2   0  180.46   37.62
   2   5   0  137.91   27.41
  -2  -5   1   64.21   34.10
   5  -7  -1   67.55   34.06
   7  -2   1   88.66   38.16
  -2  -5   2   37.06   17.81
   5  -7  -2   52.09   23.64
   7  -2   2   61.29   20.62
  -2  -5   3  127.48   37.89
   5  -7  -3  166.22   49.06
   7  -2   3  180.50   38.03
  -2  -5   4   40.70   19.62
   5  -7  -4   64.66   38.88
   7  -2   4   61.86   23.31
   5  -7  -5  316.37   94.91
  -2  -5   5  190.11   21.15
   7  -2   5  246.57   25.13
   5  -7  -6  493.78   49.07
  -2  -5   6  327.20   30.45
   7  -2   6  446.28   40.57
   5  -7  -7  198.70   93.29
  -2  -5   7  119.31   43.03
   7  -2   7  157.95   45.24
   5  -7  -8  151.03   75.55
  -2  -5   8   94.10   27.43
   7  -2   8  108.57   35.23
  -2  -5   9   33.42   24.55
   7  -2   9   49.85   29.15
  -5   7   9   46.37   27.97
   7  -2  10   74.87   31.75
  -5   7  10   95.75   11.55
   7  -2  11    1.49   10.70
  -5   7  11    4.53    4.96
   7  -2  12  183.54   40.60
  -5   7  12  202.11   40.54
   7  -2  13   38.17   21.64
  -5   7  13   27.83   17.98
   7  -2  14   44.92   20.31
  -5   7  14   31.19   11.87
   7  -2  15   71.41   26.00
  -5   7  15   51.21   40.05
   6  -7  15   39.09   26.05
   1   6  15   77.10   21.96
   6  -7  14  102.58   44.18
   1   6  14  177.87   46.66
   6  -7  13   77.28   20.73
   1   6  13  119.29   52.71
   6  -7  12   90.23   28.99
   1   6  12  112.58   24.91
   6  -7  11   12.60   13.58
   1   6  11   19.30   10.15
   6  -7  10  180.05   28.59
   1   6  10  222.17   24.59
   6  -7   9   28.22   16.27
   1   6   9   39.24   20.08
   6  -7   8    6.24   22.70
   1   6   8    4.11    4.87
   6  -7   7  349.50   97.18
   1   6   7  366.13   99.11
   6  -7   6   -5.23   14.57
   1   6   6    2.15    4.58
   6  -7   5  268.63   35.41
   1   6   5  264.45   23.65
   6  -7   4  159.63   24.45
   1   6   4  157.35   15.15
   7  -1  -3  284.06   24.10
   6  -7   3  270.11   32.95
   1   6   3  241.63   21.27
   6  -7   2   36.07   21.01
   7  -1  -2   30.29   19.12
  -1  -6  -1   24.22   13.94
   6  -7   1   32.10   18.45
   7  -1  -1   43.90   18.42
  -1  -6   0  246.43   52.61
   6  -7   0  278.89   61.26
   7  -1   0  316.75   62.84
  -1  -6   1   46.50   24.07
   6  -7  -1   30.52   14.26
   7  -1   1   46.37   22.06
  -1  -6   2   43.28   24.91
   6  -7  -2   24.72   18.06
   7  -1   2   35.25   12.18
  -1  -6   3  247.67   28.94
   6  -7  -3  271.87   48.39
   7  -1   3  267.38   28.36
  -1  -6   4  153.63   54.01
   6  -7  -4  182.39   50.87
   7  -1   4  161.06   17.15
   6  -7  -5  370.02   89.20
  -1  -6   5  219.35   25.28
   7  -1   5  276.08   26.28
   6  -7  -6   25.66   14.35
  -1  -6   6    6.72    6.87
   7  -1   6   -3.58    9.02
   6  -7  -7  473.73  159.03
  -1  -6   7  280.89   77.30
   7  -1   7  325.13   89.34
   6  -7  -8   15.79    9.81
  -1  -6   8    4.90    5.88
   7  -1   8    7.01    6.49
   6  -7  -9   40.67   22.69
  -1  -6   9   28.46   24.44
   7  -1   9   34.40   17.81
  -1  -6  10  129.15   43.39
   7  -1  10  166.04   52.27
  -6   7  10  221.62   22.57
  -1  -6  11   10.58   10.08
   7  -1  11   11.54   11.35
  -6   7  11   12.86    7.01
   7  -1  12   94.97   22.96
  -6   7  12  110.40   22.68
   7  -1  13  135.32   26.85
  -6   7  13  135.29   12.70
   7  -1  14  132.53   79.35
  -6   7  14  173.55   44.15
   7  -1  15   60.31   36.22
  -6   7  15   65.84   17.41
   7  -7  14   27.36   20.58
   0   7  14   50.92   35.86
   0   7  13    7.01    8.56
   7  -7  12  446.04   44.72
   0   7  12  658.85   50.06
   7  -7  11   23.25   23.18
   0   7  11    6.12    7.39
   7  -7  10  399.59   74.99
   0   7  10  526.29  131.25
   7  -7   9   18.22   20.64
   0   7   9   10.35    5.81
   7  -7   8  858.59   88.16
   0   7   8  917.81   89.15
   7  -7   7    8.48    9.31
   0   7   7    6.48    5.82
   7  -7   6   87.93   31.31
   0   7   6   94.71   30.54
   7  -7   5   14.67   10.13
   0   7   5   16.22    5.28
   7  -7   4  117.71   36.00
   0   7   4  149.62   45.00
   0  -7  -3   10.87   14.68
   7  -7   3   14.98   19.78
   7   0  -3    6.71    3.32
   0  -7  -2 1431.08  121.09
   7  -7   2 1612.39  135.61
   7   0  -2 1801.42  249.29
   0  -7  -1   12.59   12.56
   7  -7   1   23.83   23.59
   7   0  -1   15.43    7.16
   0  -7   0 1552.37  130.90
   7  -7   0 1734.23  145.58
   7   0   0 1771.61  245.43
   0  -7   1   16.49   10.11
   7  -7  -1   26.51   23.55
   7   0   1   11.21    8.49
   0  -7   2 1396.56  117.91
   7  -7  -2 1515.23  136.29
   7   0   2 1498.03  121.34
   0  -7   3    7.89   12.35
   7  -7  -3   -2.97   13.35
   7   0   3    5.06    6.69
   0  -7   4  132.03   39.13
   7  -7  -4  158.53   62.49
   7   0   4  124.43   34.97
   7  -7  -5   29.49   11.39
   0  -7   5   12.09    6.38
   7   0   5   16.84    7.21
   7  -7  -6   84.44   44.66
   0  -7   6   64.55   35.16
   7   0   6   74.51   14.85
   7  -7  -7   10.02    8.42
   0  -7   7    4.51    6.57
   7   0   7    8.67    7.96
   7  -7  -8 1052.35  312.38
   0  -7   8  671.88   68.76
   7   0   8  854.49   84.60
   7  -7  -9   12.36   13.73
   0  -7   9    7.26   11.03
   7   0   9    7.56    8.31
   0  -7  10  344.08   64.84
   7   0  10  481.01   86.09
  -7   7  10  496.26   86.31
   0  -7  11    5.71   12.90
   7   0  11    6.77   11.34
  -7   7  11    2.65    4.92
   7   0  12  647.69   52.97
  -7   7  12  586.87   42.70
   7   0  13    0.42   10.90
  -7   7  13    3.57    2.79
   7   0  14   48.49   29.26
  -7   7  14   38.55   26.86
   1  -8  13   16.00   13.46
   7   1  13   15.58   15.08
   1  -8  12   57.86   21.96
   7   1  12   93.53   36.34
   1  -8  11    2.06   10.99
   7   1  11    1.50   10.87
  -8   7  11   -1.56    3.06
   1  -8  10   77.72   29.91
   7   1  10  118.58   28.34
  -8   7  10  123.53   25.23
   8  -7  -9   33.40   31.47
   1  -8   9   14.43   13.22
   7   1   9   27.27   12.92
   8  -7  -8   71.09   45.40
   1  -8   8   59.30   37.80
   7   1   8   85.20   19.61
   8  -7  -7   95.59   34.94
   1  -8   7   60.71   21.55
   7   1   7   86.01   14.17
   8  -7  -6  316.68   70.43
   1  -8   6  216.58   50.27
   7   1   6  247.41   53.69
   8  -7  -5  165.46   56.72
   1  -8   5  125.98   68.84
   7   1   5  150.82   33.81
   1  -8   4   28.11   18.44
   8  -7  -4   53.56   26.21
   7   1   4   38.49   19.00
   1  -8   3   56.97   24.60
   8  -7  -3   62.47   25.53
   7   1   3   50.87   10.40
   1  -8   2   20.32   13.48
   8  -7  -2   26.79   12.41
   7   1   2   21.93   14.61
   1  -8   1   18.97   12.47
   8  -7  -1   27.31   17.80
   7   1   1   22.32    8.93
   1  -8   0  384.70  106.88
   8  -7   0  390.63  108.32
   7   1   0  425.35  114.95
   1  -8  -1   38.12   15.46
   8  -7   1   16.15   11.72
   7   1  -1   21.62    6.78
   1  -8  -2   20.48   12.43
   8  -7   2   33.72   15.64
   7   1  -2   25.39    9.09
   1  -8  -3   68.04   26.12
   8  -7   3   65.79   16.77
   1  -8  -4   47.91   31.78
   8  -7   4   44.94   22.63
   8  -7   5  180.01   44.12
  -1   8   5  157.44   34.12
   8  -7   6  288.14   65.85
  -1   8   6  292.31   62.20
   8  -7   7   80.59   17.05
  -1   8   7  103.59   22.58
   8  -7   8   68.80   43.71
  -1   8   8   73.73   15.13
   8  -7   9   29.84   20.02
  -1   8   9   38.13   13.15
   8  -7  10  115.31   33.02
  -1   8  10  112.54   23.83
   8  -7  11    5.88   16.23
  -1   8  11    2.40    4.73
   8  -7  12   86.80   28.03
  -1   8  12   96.91   33.53
   8  -7  13    1.50   17.02
  -1   8  13    6.02    7.70
   2  -8  14   79.38   25.87
   6   2  14  199.45   48.82
   2  -8  13   26.09   14.05
   6   2  13   62.43   25.21
   2  -8  12   31.81   19.06
   6   2  12   71.59   30.26
   2  -8  11   67.96   21.07
   6   2  11  100.66   29.63
   2  -8  10  109.43   28.42
   6   2  10  178.69   34.91
  -8   6  10  160.21   28.36
   2  -8   9   21.18   17.79
   6   2   9   44.19   18.90
  -8   6   9   41.20   12.90
   8  -6  -8    3.40    6.71
   2  -8   8   12.26   20.27
   6   2   8   11.81    8.46
   8  -6  -7  265.40   58.70
   2  -8   7  203.40   49.01
   6   2   7  249.76   54.38
   8  -6  -6   10.83   12.33
   2  -8   6    8.03   12.90
   6   2   6    5.67    5.12
   8  -6  -5  202.96   68.09
   2  -8   5  148.68   69.83
   6   2   5  202.29   64.60
   8  -6  -4  153.04   68.15
   2  -8   4  132.95   64.11
   6   2   4  130.53   38.05
   8  -6  -3  130.87   58.88
   6   2   3   93.73   27.99
   2  -8   2   17.66   15.83
   8  -6  -2   15.78   11.29
   6   2   2   11.31    6.12
   2  -8   1   54.62   35.19
   8  -6  -1   48.85   15.77
   6   2   1   45.54   14.92
   2  -8   0  150.67   79.71
   8  -6   0  164.49   48.62
   6   2   0  139.19   38.14
   2  -8  -1   58.87   32.90
   8  -6   1   60.35   17.41
   6   2  -1   43.98    7.64
   8  -6   2    9.53   12.69
   6   2  -2   20.70    6.42
   2  -8  -3  113.73   54.09
   8  -6   3  114.48   36.05
   6   2  -3  121.56   33.04
   2  -8  -4  173.86   83.01
   8  -6   4  146.00   43.27
   2  -8  -5  229.92   94.08
   8  -6   5  232.69   68.24
   2  -8  -6   -6.39   15.24
   8  -6   6   -6.07   13.65
   8  -6   7  248.67   57.45
  -2   8   7  218.38   46.85
   8  -6   8   10.05   15.21
  -2   8   8   12.78    7.42
   8  -6   9   33.34   17.79
  -2   8   9   36.62   19.31
   8  -6  10  150.88   32.14
  -2   8  10  174.31   31.96
   8  -6  11   71.59   21.01
   8  -6  12   44.31   21.94
  -2   8  12   58.06    8.87
   8  -6  13   58.48   25.08
  -2   8  13   60.12   24.02
   8  -6  14  104.05   34.57
  -2   8  14  170.86   41.10
   3  -8  14   37.50   25.37
   5   3  14   80.84   50.09
   3  -8  13    8.54   11.68
   5   3  13    8.08    9.71
   3  -8  12  369.97   36.32
   3  -8  11    8.43   17.11
   5   3  11    5.30    6.39
   3  -8  10  362.55   67.57
   5   3  10  610.32  153.28
   3  -8   9    3.36   13.03
   5   3   9   14.35   12.86
  -8   5   9    9.82    6.34
   3  -8   9    9.98   14.92
   8  -5  -8 1001.34   97.49
   3  -8   8  700.40   74.43
   5   3   8  942.24   92.33
   8  -5  -7    7.32    7.80
   3  -8   7    8.42   15.13
   5   3   7    2.91    3.80
   8  -5  -6   52.34   20.80
   5   3   6   63.67   24.54
   3  -8   5   10.42    9.37
   5   3   5    5.71    5.27
   3  -8   4  143.35   61.75
   5   3   4  122.35   34.31
   3  -8   3   13.62   13.06
   8  -5  -3    7.44    6.82
   5   3   3    1.55    5.01
   3  -8   2 1008.64   87.98
   8  -5  -2 1315.91  109.52
   5   3   2  915.28   74.91
   8  -5  -1   18.13   13.65
   5   3   1    5.10    2.39
   3  -8   0 1460.72  124.93
   8  -5   0 1733.44  142.14
   5   3   0 1111.72   89.90
   3  -8  -1   -1.32   17.04
   8  -5   1    7.65   10.45
   5   3  -1    3.25    2.42
   3  -8  -2 1217.85  106.86
   8  -5   2 1305.67  108.75
   5   3  -2  899.05   72.56
   3  -8  -3   12.93   15.90
   8  -5   3   -4.00   10.84
   5   3  -3    2.10    2.47
   3  -8  -4  182.33   81.93
   8  -5   4  173.40   50.32
   5   3  -4  134.35   36.40
   3  -8  -5   15.58   16.10
   8  -5   5   11.08   13.75
   3  -8  -6   66.36   26.67
   8  -5   6   56.73   19.12
   3  -8  -7   20.11   14.26
   8  -5   7   10.42   17.89
   8  -5   8  846.34   85.61
   8  -5   9   14.91   12.37
  -3   8   9   10.57    6.80
   8  -5  10  451.96   82.96
  -3   8  10  512.27   89.51
   8  -5  11    3.15    5.54
  -3   8  11    3.20    6.09
   8  -5  12  511.81   45.30
  -3   8  12  617.79   46.01
   8  -5  13   -1.21   12.56
  -3   8  13    7.48    4.93
   8  -5  14   71.36   32.76
  -3   8  14   85.95   22.66
   4  -8  14    3.97   11.32
   4   4  14   16.96   11.68
   4  -8  13   16.99   16.83
   4   4  13   44.91   24.04
   4  -8  12  131.66   58.22
   4   4  12  350.29   34.24
   4  -8  11    1.70   12.18
   4   4  11    6.68    9.58
   4  -8  10   16.51   13.55
   4   4  10   27.38   14.53
   4  -8   9   48.93   25.09
   4   4   9   69.95   14.18
   4  -8   8   32.08   22.72
   4   4   8   49.26   28.11
   8  -4  -7  148.41   32.68
   4  -8   7  103.49   29.64
   4   4   7  127.78   38.74
   8  -4  -6  333.17   90.74
   4  -8   6  269.08   76.72
   4   4   6  298.75   81.60
   8  -4  -5  157.20   45.83
   4  -8   5  159.46   48.95
   4   4   5  145.51   40.53
   8  -4  -4  146.10   45.87
   4  -8   4  145.44   46.79
   4   4   4  140.59   38.90
   4  -8   3  152.60   27.49
   8  -4  -3  149.73   18.20
   4   4   3  126.89   23.44
   4  -8   2  191.84   58.79
   8  -4  -2  208.04   24.03
   4   4   2  148.88   17.53
   4  -8   1   30.70   14.29
   8  -4  -1   35.92   14.22
   4   4   1   23.54    7.83
   4  -8   0  365.36   41.16
   8  -4   0  388.85   35.84
   4   4   0  286.87   34.59
   4  -8  -1   46.75   25.31
   8  -4   1   61.37   21.49
   4   4  -1   25.32    7.85
   4  -8  -2  221.99   82.83
   4   4  -2  120.77   10.70
   4  -8  -3  159.70   69.25
   8  -4   3  140.67   17.66
   4   4  -3   95.01   27.05
   4  -8  -4  165.84   77.71
   8  -4   4  174.17   50.02
   4   4  -4  103.53   28.20
   4  -8  -5  170.56   67.62
   8  -4   5  158.84   53.39
   4   4  -5   90.29   24.46
   4  -8  -6  353.50  100.69
   8  -4   6  329.96   91.52
   4  -8  -7  144.05   76.95
   8  -4   7  124.13   30.51
   4  -8  -8   71.18   33.62
   8  -4   8   57.80   28.55
   8  -4   9   66.37   19.12
  -4   8   9   63.38   22.92
   8  -4  10   25.01   14.22
  -4   8  10   22.57    9.12
   8  -4  11    9.85    6.50
  -4   8  11   10.85    6.24
   8  -4  12  228.69   50.99
  -4   8  12  262.50   30.61
   8  -4  13   32.34   15.82
  -4   8  13   33.21   11.72
   8  -4  14   16.51   13.04
  -4   8  14    4.96    4.23
   5  -8  14  135.53   36.89
   3   5  14  272.16   65.21
   5  -8  13   50.69   19.74
   3   5  13   73.61   22.66
   5  -8  12  120.62   23.14
   3   5  12  185.93   22.06
   3   5  11    1.90    8.79
   5  -8  10  194.04   41.54
   3   5  10  303.62   55.12
   5  -8   9  128.32   29.27
   3   5   9  181.19   22.48
   5  -8   8    2.36   12.47
   3   5   8    7.13    9.50
   5  -8   7  339.46   77.01
   3   5   7  429.66   91.12
   5  -8   6   11.15   13.08
   3   5   6   21.73    8.66
   8  -3  -5 1033.58  433.16
   5  -8   5  952.73  400.65
   3   5   5  932.30  390.75
   8  -3  -4  333.46   90.57
   5  -8   4  301.47   85.37
   3   5   4  285.81   77.48
   5  -8   3  327.62   40.83
   8  -3  -3  397.29   35.14
   3   5   3  321.19   27.45
   5  -8   2   65.15   29.40
   8  -3  -2   86.91   28.74
   3   5   2   68.98   21.37
   5  -8   1   92.41   44.87
   8  -3  -1  103.73   17.98
   3   5   1   73.56   21.45
   5  -8   0  310.69   82.56
   8  -3   0  338.39   31.90
   3   5   0  223.98   19.22
   5  -8  -1  124.18   33.01
   8  -3   1  101.80   18.63
   3   5  -1   78.06   22.46
   5  -8  -2   90.88   48.97
   8  -3   2  104.64   18.52
   3   5  -2   69.17   19.92
   5  -8  -3  386.62   84.22
   8  -3   3  441.37   40.47
   3   5  -3  294.92   24.35
  -3  -5   4  223.66   61.62
   5  -8  -4  412.40  141.71
   8  -3   4  380.73  103.91
  -3  -5   5  697.01  292.54
   5  -8  -5 1163.40  489.13
   8  -3   5 1086.57  455.83
  -3  -5   6   10.29    6.71
   5  -8  -6   24.30   15.13
   8  -3   6   30.23   11.72
   5  -8  -7  463.95  102.84
   8  -3   7  414.40   89.23
   5  -8  -8   18.44   13.90
   8  -3   8    9.02   10.54
   8  -3   9  138.20   22.53
  -5   8   9  196.51   20.91
   8  -3  10  232.88   48.61
  -5   8  10  267.09   47.31
   8  -3  11    2.17    6.87
  -5   8  11    4.38    5.09
   8  -3  12  123.03   34.08
  -5   8  12  179.02   16.03
   8  -3  13   56.99   39.18
  -5   8  13   59.17   24.63
   8  -3  14  171.62   51.39
  -5   8  14  204.66   47.67
   6  -8  14   74.94   23.65
   2   6  14  121.23   31.32
   2   6  13   62.27   20.80
   6  -8  12   19.07   16.51
   2   6  12   12.90   10.11
   6  -8  11   34.28   24.22
   2   6  11   34.07   18.84
   6  -8  10   43.02   23.29
   2   6  10   50.12   17.20
   2   6   9  138.82   29.56
   6  -8   8   17.01   13.26
   2   6   8   12.99    8.94
   6  -8   7  199.44   48.16
   2   6   7  207.37   45.99
   6  -8   6  101.54   27.51
   2   6   6  102.82   23.01
   6  -8   5  439.51  120.98
   2   6   5  409.22  110.66
   6  -8   4  221.35   64.56
   2   6   4  191.66   52.34
   8  -2  -3  195.83   53.59
   6  -8   3  204.89   62.10
   2   6   3  152.83   41.75
   6  -8   2   61.05   19.52
   8  -2  -2   58.92   17.78
   2   6   2   50.53    8.67
   6  -8   1  134.07   67.47
   8  -2  -1  129.78   36.14
   2   6   1   97.60   27.01
   6  -8   0   15.34   17.41
   8  -2   0    7.52    8.42
   2   6   0    7.19    3.92
  -2  -6   1  104.36   31.32
   6  -8  -1  134.86   60.28
   8  -2   1  129.45   36.61
  -2  -6   2   41.46   20.89
   6  -8  -2   70.38   25.22
   8  -2   2   72.76   14.55
  -2  -6   3  124.67   61.10
   6  -8  -3  190.54   78.87
   8  -2   3  207.54   57.10
  -2  -6   4  173.29   48.93
   6  -8  -4  269.35   89.69
   8  -2   4  234.65   72.05
  -2  -6   5  324.58   91.68
   6  -8  -5  595.31  285.80
   8  -2   5  450.48  122.46
   6  -8  -6  133.92   47.49
  -2  -6   6   65.45   45.53
   8  -2   6  102.18   29.05
   6  -8  -7  254.38  106.40
  -2  -6   7  162.02   37.07
   8  -2   7  193.00   49.58
   6  -8  -8   14.40   14.04
  -2  -6   8    9.25    7.86
   8  -2   8    8.99   10.96
   6  -8  -9  197.10   52.45
   8  -2   9  153.85   40.47
   8  -2  10   54.83   21.60
  -6   8  10   48.37   22.03
   8  -2  11   24.37   11.88
  -6   8  11   35.42   10.30
   8  -2  12    9.44   13.66
  -6   8  12   12.76    7.52
   8  -2  13   17.41   10.59
  -6   8  13   24.62   18.54
   8  -2  14  107.96   32.49
  -6   8  14  139.65   33.26
   7  -8  13   40.17   29.75
   1   7  13   50.41   41.83
   7  -8  12  281.65   77.04
   1   7  12  484.45   19.82
   7  -8  11   47.75   26.79
   1   7  11   54.61   33.65
   7  -8  10   14.94   16.63
   1   7  10    5.80    7.51
   7  -8   9   57.95   26.04
   1   7   9   62.66   13.30
   7  -8   8  139.71   33.35
   1   7   8  152.79   28.24
   7  -8   7  114.97   23.01
   1   7   7  104.86   13.87
   7  -8   6  214.68   50.41
   1   7   6  195.91   43.29
   7  -8   5   87.28   25.78
   1   7   5   90.55   20.34
   7  -8   4   42.23   23.72
   1   7   4   37.82   17.28
   7  -8   3   88.83   33.09
   1   7   3   98.67   27.61
   7  -8   2  287.66   81.75
   8  -1  -2  315.05   85.32
   1   7   2  270.89   73.42
  -1  -7  -1  161.70   83.07
   7  -8   1  184.38   55.13
   8  -1  -1  193.22   52.83
  -1  -7   0   27.57   15.63
   7  -8   0   33.39   17.49
   8  -1   0   45.41   16.52
  -1  -7   1  159.06   46.34
   7  -8  -1  207.03  105.03
   8  -1   1  199.91   54.80
  -1  -7   2  217.44   73.25
   7  -8  -2  278.37   81.44
   8  -1   2  336.19   91.54
  -1  -7   3   84.99   42.52
   7  -8  -3  123.28   66.32
   8  -1   3  108.00   39.00
  -1  -7   4   34.20   21.93
   7  -8  -4   52.00   30.96
   8  -1   4   49.21   22.77
  -1  -7   5   79.18   47.67
   7  -8  -5  103.68   41.19
   8  -1   5   99.25   28.50
   7  -8  -6  236.99   71.21
  -1  -7   6  150.18   59.83
   8  -1   6  191.27   49.11
   7  -8  -7  101.41   37.22
  -1  -7   7   73.62   45.31
   8  -1   7  108.49   25.29
   7  -8  -8  175.87   41.23
  -1  -7   8   90.74   48.37
   8  -1   8  144.49   41.25
   7  -8  -9   46.70   31.12
  -1  -7   9   33.59   23.28
   8  -1   9   47.14   32.60
  -1  -7  10    9.95    6.92
   8  -1  10   10.75   11.59
  -7   8  10   13.22    6.62
   8  -1  11   39.61   25.36
  -7   8  11   53.18    7.35
   8  -1  12  406.95  103.43
  -7   8  12  421.18   12.06
   8  -1  13   41.74   40.60
  -7   8  13   51.34   29.21
   8  -8  12   13.59   15.54
   0   8  12    0.58    7.56
   8  -8  11   22.38   15.80
   0   8  11   21.28   20.79
   8  -8  10   31.93   19.24
   0   8  10   33.16   14.29
   8  -8   9   11.81   16.21
   0   8   9    9.92    8.98
   8  -8   8  193.23   44.52
   0   8   8  209.35   42.95
   8  -8   7   76.50   24.93
   0   8   7   62.96   24.10
   8  -8   6   44.17   22.11
   0   8   6   30.39   20.33
   8  -8   5   44.92   25.67
   0   8   5   31.69   12.54
   8  -8   4   46.70   26.90
   0   8   4   38.79   21.27
   0  -8  -3  111.28   33.33
   8  -8   3   88.10   27.22
   0  -8  -2  107.73   67.60
   8  -8   2  116.68   33.08
   0  -8  -1   22.30   15.53
   8  -8   1   33.32   27.36
   8   0  -1   20.53    9.76
   0  -8   0   76.04   40.12
   8  -8   0   79.91   29.69
   8   0   0   70.08   29.61
   0  -8   1   22.44   21.03
   8  -8  -1   30.07   16.57
   8   0   1   25.27   12.44
   0  -8   2   89.46   54.34
   8  -8  -2  122.45   50.49
   8   0   2  116.70   26.45
   0  -8   3   80.10   44.72
   8  -8  -3   93.57   48.39
   8   0   3   91.63   25.78
   0  -8   4   35.80   24.16
   8  -8  -4   52.63   27.15
   8   0   4   36.15   18.12
   8  -8  -5   46.20   24.09
   0  -8   5   21.64   14.09
   8   0   5   37.45   23.79
   8  -8  -6   37.49   22.59
   0  -8   6   22.94   12.87
   8   0   6   24.52   12.27
   8  -8  -7   88.81   33.57
   0  -8   7   43.15   24.08
   8   0   7   51.14   18.37
   8  -8  -8  213.38   46.98
   0  -8   8  115.41   60.57
   8   0   8  174.94   37.14
   8  -8  -9   -0.35   11.48
   0  -8   9    8.10   11.47
   8   0   9   10.47    9.73
   0  -8  10   18.58   15.54
   8   0  10   28.81   14.55
  -8   8  10   22.86   17.58
   0  -8  11    7.00    4.79
   8   0  11   26.76   13.82
  -8   8  11   22.75   13.59
   8   0  12   12.67   17.01
  -8   8  12    2.23    2.54
   1  -9  11    5.78    7.36
   8   1  11    4.78    5.17
   1  -9  10   86.69   52.93
   8   1  10  192.94   50.98
  -9   8  10  185.42   46.70
   9  -8  -9   98.05   34.27
   1  -9   9   51.48   26.04
   8   1   9   71.76   39.16
   9  -8  -8    9.02   10.01
   1  -9   8    6.70    6.94
   8   1   8    6.36    8.15
   9  -8  -7  191.80   56.30
   1  -9   7  109.74   58.78
   8   1   7  140.03   29.93
   9  -8  -6   -0.01   12.11
   1  -9   6   -2.07   12.94
   8   1   6    7.00    6.11
   9  -8  -5  579.53  146.59
   1  -9   5  390.71   78.22
   8   1   5  472.57   83.71
   1  -9   4  154.66   60.96
   9  -8  -4  196.12   50.34
   8   1   4  167.49   31.44
   1  -9   3  116.97   61.81
   9  -8  -3  157.26   53.99
   8   1   3  125.55   15.88
   1  -9   2   30.21   21.06
   9  -8  -2   39.45   19.57
   8   1   2   21.10    9.96
   1  -9   1   67.94   30.02
   9  -8  -1   58.96   38.15
   8   1   1   64.68   19.47
   1  -9   0  182.20   88.67
   9  -8   0  186.14   30.63
   1  -9  -1   55.75   31.70
   9  -8   1   83.93   23.79
   1  -9  -2   29.39   25.99
   9  -8   2   34.62   22.16
   1  -9  -3  131.62   76.66
   9  -8   3  139.96   30.05
   1  -9  -4  191.87   44.04
   9  -8   4  189.29   40.62
   9  -8   5  522.38   95.62
  -1   9   5  527.31  131.26
   9  -8   6    6.88   13.90
  -1   9   6    7.37    7.24
   9  -8   7  137.16   35.95
  -1   9   7  181.68   36.93
   9  -8   8   11.15   16.77
  -1   9   8    1.44    6.42
   9  -8   9   71.08   17.87
  -1   9   9  100.70   12.54
   9  -8  10  146.02   44.55
  -1   9  10  193.92   49.74
   9  -8  11    3.28   15.96
  -1   9  11    5.59    4.17
   2  -9  12   46.21   31.06
   7   2  12   72.31   23.42
   2  -9  11    8.22    6.64
   7   2  11   29.39   16.22
   2  -9  10   64.71   51.93
   7   2  10  144.49   18.09
   9  -7  -9  231.34   34.76
   2  -9   9  141.56   70.38
   7   2   9  218.82   44.63
   9  -7  -8    7.94    6.37
   2  -9   8   13.87   14.34
   7   2   8   14.74    6.27
   9  -7  -7  351.06   71.35
   2  -9   7  229.65   46.25
   7   2   7  312.22   56.74
   9  -7  -6   66.22   31.04
   2  -9   6   50.31   31.22
   7   2   6   53.20   18.09
   9  -7  -5  771.32   78.50
   2  -9   5  546.59   65.93
   7   2   5  638.87   63.70
   2  -9   4  198.55   84.25
   9  -7  -4  242.58   70.08
   7   2   4  210.55   25.04
   2  -9   3  232.92   32.25
   9  -7  -3  216.77   47.52
   7   2   3  201.97   26.24
   2  -9   2   61.57   39.33
   9  -7  -2   73.58   26.70
   7   2   2   72.08   10.62
   2  -9   1  203.22   59.34
   9  -7  -1  219.86   51.48
   7   2   1  196.99   42.54
   2  -9   0  131.13   70.63
   9  -7   0  169.46   41.31
   7   2   0  133.56   29.02
   2  -9  -1  223.22   84.89
   9  -7   1  223.08   52.43
   7   2  -1  211.76   45.18
   2  -9  -2   92.39   43.10
   9  -7   2   69.73   28.44
   2  -9  -3  244.03   32.93
   9  -7   3  252.69   33.59
   2  -9  -4  246.80   37.18
   9  -7   4  214.09   28.11
   2  -9  -5  761.07   81.02
   9  -7   5  770.05   80.00
   9  -7   6   82.88   26.92
  -2   9   6   70.47   33.48
   9  -7   7  303.15   58.99
  -2   9   7  337.00   59.44
   9  -7   8    8.34   14.13
  -2   9   8   13.54    8.23
   9  -7   9  197.81   30.19
  -2   9   9  239.96   21.52
   9  -7  10  110.78   21.37
  -2   9  10  126.36   13.85
   9  -7  11   28.64   17.84
  -2   9  11   22.80   18.14
   9  -7  12   69.28   52.95
   3  -9  12  118.92   34.05
   6   3  12  183.85   62.60
   3  -9  12  137.34   45.53
   3  -9  11   41.04   24.46
   6   3  11   32.66   11.48
   3  -9  10   23.14   16.12
   6   3  10   31.70   22.21
   3  -9   9   41.71   20.60
   6   3   9   67.46   20.31
   3  -9   8   80.13   21.80
   6   3   8  123.65   25.33
   9  -6  -7   65.38   20.78
   3  -9   7   63.73   24.55
   6   3   7   76.96   18.60
   9  -6  -6  205.88   54.04
   3  -9   6  158.18   62.05
   6   3   6  196.59   23.64
   9  -6  -5  102.12   25.31
   3  -9   5   87.70   38.77
   6   3   5  128.28   18.23
   9  -6  -4   20.12   12.55
   3  -9   4   19.65   15.16
   6   3   4   14.23   10.56
   3  -9   3   63.30   47.86
   9  -6  -3   86.32   37.95
   6   3   3   63.57   29.72
   3  -9   2   72.91   28.49
   9  -6  -2  101.71   29.92
   6   3   2   77.74   18.43
   3  -9   1  131.62   71.22
   9  -6  -1  148.79   36.44
   6   3   1  121.76   26.99
   3  -9   0   47.05   27.18
   9  -6   0   47.96   24.43
   6   3   0   45.24   22.37
   9  -6   1  143.05   34.91
   6   3  -1  116.35   25.36
   3  -9  -2   68.50   51.77
   9  -6   2   77.51   22.80
   6   3  -2   68.38   31.35
   3  -9  -3   88.29   49.51
   9  -6   3  109.98   29.99
   3  -9  -4   13.97   13.99
   9  -6   4   23.38   22.21
   3  -9  -5  103.50   63.10
   9  -6   5  119.10   30.89
   3  -9  -6  227.75   92.07
   9  -6   6  227.02   29.95
   3  -9  -7   82.28   24.51
   9  -6   7   60.19   21.53
   9  -6   8   89.63   23.01
  -3   9   8  110.37   21.07
   9  -6   9   49.02   26.35
  -3   9   9   43.25   20.69
   9  -6  10   35.58   23.74
  -3   9  10   25.86   19.23
   9  -6  11   21.23   16.16
  -3   9  11   26.92    7.96
   9  -6  12  201.89   53.10
  -3   9  12  182.99   43.26
   4  -9  13   22.64   21.16
   5   4  13   42.37   42.00
   4  -9  12    6.59   12.16
   5   4  12    9.29   11.12
   4  -9  11   10.70   13.44
   5   4  11   13.14   12.57
   4  -9  10   12.51   14.60
   5   4  10   24.69   28.51
   4  -9   9   15.77   19.81
   5   4   9    5.38    5.27
   4  -9   8  159.46   37.53
   5   4   8  236.88   43.89
   5   4   7   83.74   14.85
   9  -5  -6   39.91   28.99
   4  -9   6   50.11   27.93
   5   4   6   37.87   15.98
   9  -5  -5   19.03   14.54
   4  -9   5   15.15   16.91
   5   4   5   17.70   11.17
   9  -5  -4   18.05   11.13
   4  -9   4   17.91   14.40
   5   4   4   15.32   10.70
   4  -9   3   64.71   40.44
   9  -5  -3   80.86   37.86
   5   4   3   76.18   21.50
   9  -5  -2  195.39   44.31
   5   4   2  122.46   30.35
   4  -9   1    6.90   15.85
   9  -5  -1   16.85   17.24
   5   4   1    4.85    5.66
   4  -9   0   47.46   26.45
   9  -5   0   72.18   18.49
   5   4   0   46.64   21.65
   4  -9  -1   13.90   10.09
   9  -5   1    1.64    8.94
   5   4  -1    1.68    3.45
   4  -9  -2  204.45   81.28
   9  -5   2  188.67   43.57
   5   4  -2  124.71   26.79
   4  -9  -3   78.37   31.23
   9  -5   3  101.71   26.41
   5   4  -3   56.89   24.16
   4  -9  -4   22.10   22.55
   9  -5   4   21.58   16.24
   4  -9  -5   37.98   21.53
   9  -5   5   34.42   21.31
   4  -9  -6   38.94   25.43
   9  -5   6   32.23   21.20
   4  -9  -7   94.93   50.07
   9  -5   7   69.48   14.58
   9  -5   8  203.62   40.21
   9  -5   9    6.41    7.42
  -4   9   9    7.90    8.63
   9  -5  10   36.46   27.94
  -4   9  10   30.39   13.17
   9  -5  11    9.59   12.90
  -4   9  11   13.20    8.54
   9  -5  12   14.12   18.85
  -4   9  12   11.66    8.61
   9  -5  13   33.81   23.78
  -4   9  13   28.75   28.77
   5  -9  13   36.82   28.44
   4   5  13   27.84   21.19
   5  -9  12   57.35   21.74
   4   5  12   87.79   25.45
   5  -9  11   50.28   16.71
   4   5  11   48.62   14.66
   5  -9  10  106.93   21.65
   4   5  10  177.25   20.21
   5  -9   9   71.64   25.40
   4   5   9   63.98   23.38
   5  -9   8   14.07   16.27
   4   5   8   18.76    9.83
   5  -9   7   97.25   29.13
   4   5   7  102.08   23.17
   5  -9   6    5.87   15.23
   4   5   6    3.70    5.53
   4   5   5  255.02   26.71
   9  -4  -4  151.90   46.36
   5  -9   4  149.77   50.19
   4   5   4  153.68   33.66
   5  -9   3   92.10   35.85
   9  -4  -3   74.01   22.90
   4   5   3   69.49   29.96
   5  -9   2    1.60   12.66
   9  -4  -2    8.53   10.81
   4   5   2    8.01    5.30
   5  -9   1  213.88  108.17
   9  -4  -1  216.24   47.54
   4   5   1  153.90   32.99
   5  -9   0   93.29   40.96
   9  -4   0   82.36   21.04
   4   5   0   63.88   30.02
   5  -9  -1  205.61   87.14
   9  -4   1  213.70   47.47
   4   5  -1  143.46   30.64
   5  -9  -2   -0.94   16.81
   9  -4   2    5.89    8.55
   4   5  -2    3.58    2.55
   5  -9  -3   90.70   40.33
   9  -4   3   93.25   25.91
   4   5  -3   54.80   23.24
   5  -9  -4  212.53   82.11
   9  -4   4  197.69   45.80
   4   5  -4  121.56   25.86
   5  -9  -5  367.69  105.36
   9  -4   5  327.71   39.51
   5  -9  -6   11.49   22.92
   9  -4   6    6.87   12.57
   5  -9  -7   99.78   55.68
   9  -4   7  138.59   42.58
   5  -9  -8   18.27   21.18
   9  -4   8   13.30   11.73
   9  -4   9   62.68   19.33
   9  -4  10  166.32   25.13
   9  -4  11   28.52   22.15
  -5   9  11   33.36   13.86
   9  -4  12   62.57   20.78
  -5   9  12   73.03   22.49
   9  -4  13   27.86   26.77
  -5   9  13   21.79   23.12
   6  -9  12  129.13   37.25
   3   6  12  195.27   69.15
   6  -9  11   19.79   14.05
   3   6  11    5.50    8.42
   6  -9  10  712.24   62.04
   3   6  10 1007.28  166.69
   6  -9   9   10.38   15.87
   3   6   9   -0.88    7.31
   6  -9   8  218.36   45.19
   3   6   8  262.91   47.66
   6  -9   7   -0.14   14.47
   3   6   7    4.61    3.59
   6  -9   6  274.52   37.59
   3   6   6  298.47   30.60
   6  -9   5    7.85   15.44
   3   6   5    4.77    5.22
   6  -9   4  395.10   88.60
   3   6   4  351.78   74.57
   6  -9   3    8.07   17.08
   9  -3  -3    6.48    5.72
   3   6   3    2.34    3.77
   6  -9   2  554.02  120.33
   9  -3  -2  622.87  131.69
   3   6   2  462.02   97.35
   6  -9   1   -1.78   16.25
   9  -3  -1    7.57    7.03
   3   6   1    6.74    4.33
   6  -9   0 2177.87  780.04
   9  -3   0 2619.04  936.42
   3   6   0 1773.26  633.78
   6  -9  -1   -1.58   18.17
   9  -3   1   13.87   10.42
   3   6  -1    4.95    3.23
   6  -9  -2  593.05  160.73
   9  -3   2  673.44  241.67
   6  -9  -3   18.93   15.50
   9  -3   3    9.71    9.64
   3   6  -3    3.92    2.79
   6  -9  -4  457.00  100.49
   9  -3   4  484.49  103.52
   3   6  -4  334.57   70.43
  -3  -6   5    6.38    4.87
   6  -9  -5   -3.72   17.45
   9  -3   5   10.08   13.32
  -3  -6   6  188.51   32.25
   6  -9  -6  353.26   44.31
   9  -3   6  338.21   38.69
   6  -9  -7   -2.39   16.35
   9  -3   7    7.99    6.88
   6  -9  -8  269.67   55.58
   9  -3   8  208.13   82.69
   6  -9  -9    8.42    8.49
   9  -3   9    8.93   12.28
   9  -3  10  826.55   65.40
  -6   9  10 1017.93  167.28
   9  -3  11    7.09   11.26
  -6   9  11    7.88    6.10
   9  -3  12  162.52   41.04
  -6   9  12  196.51   45.89
   7  -9  12    4.08   13.66
   2   7  12   -2.26    9.12
   7  -9  11    6.59   13.57
   2   7  11   15.81    7.45
   2   7  10   15.11   10.67
   7  -9   9    6.74   15.62
   2   7   9   14.96   10.66
   7  -9   8   98.90   29.89
   2   7   8   89.10   19.53
   7  -9   7    3.63   15.44
   2   7   7    8.46    6.43
   7  -9   6    5.20   14.70
   2   7   6    4.90    3.71
   7  -9   5  136.96   30.15
   2   7   5  108.63   13.38
   7  -9   4   21.27   18.69
   2   7   4   29.39   12.57
   7  -9   3   54.55   28.00
   2   7   3   25.26   12.02
   7  -9   2   66.79   26.47
   2   7   2   51.68   18.77
   7  -9   1   54.65   38.71
   9  -2  -1   53.01   23.80
   2   7   1   36.84   16.26
   7  -9   0   10.24    8.79
   9  -2   0   12.82    8.79
   2   7   0   10.02    7.39
   7  -9  -1   50.44   28.33
   9  -2   1   48.02   22.03
  -2  -7   2   42.66   25.62
   7  -9  -2   61.08   31.99
   9  -2   2   69.36   34.77
  -2  -7   3   12.68   10.20
   7  -9  -3   34.67   23.78
   9  -2   3   31.67   13.76
   7  -9  -4   33.74   27.08
   9  -2   4   31.16   21.53
  -2  -7   5   79.31   52.10
   7  -9  -5  157.66   67.47
   9  -2   5  147.18   21.03
  -2  -7   6   -1.45    8.63
   7  -9  -6   -4.36   15.80
   9  -2   6    4.27    9.19
   7  -9  -7   18.76   12.04
  -2  -7   7    5.58    3.60
   9  -2   7   10.83   13.07
   7  -9  -8   91.60   55.68
   9  -2   8   75.99   44.04
   7  -9  -9   25.54   20.58
   9  -2   9   14.02   13.24
   9  -2  10   21.93   15.28
  -7   9  10   17.54    7.96
   9  -2  11   24.54   14.99
  -7   9  11   10.54    6.15
   9  -2  12    6.95    6.37
  -7   9  12    4.73    3.53
   8  -9  11   19.71   22.37
   1   8  11   16.20   13.28
   8  -9  10  118.18   38.97
   1   8  10  159.32   41.99
   8  -9   9   33.37   19.50
   1   8   9   39.89   16.58
   8  -9   8   -0.45   16.16
   1   8   8    4.95    4.39
   8  -9   7  296.56   64.61
   1   8   7  319.61   66.98
   8  -9   6   22.23   19.95
   1   8   6   18.84    8.33
   8  -9   5  176.30   42.55
   1   8   5  160.63   29.39
   8  -9   4  216.03   46.45
   1   8   4  212.28   37.96
   8  -9   3  243.95   39.27
   1   8   3  212.62   22.95
   8  -9   2   61.49   24.84
   1   8   2   49.22   19.71
   8  -9   1   43.09   26.47
  -1  -8   0  107.25   63.68
   8  -9   0  119.49   53.16
   9  -1   0  147.42   17.40
  -1  -8   1   29.08   20.37
   8  -9  -1   45.30   30.77
   9  -1   1   42.39   17.15
  -1  -8   2   27.42   21.52
   8  -9  -2   66.52   23.36
   9  -1   2   59.40   18.74
  -1  -8   3  202.45   53.34
   8  -9  -3  226.18   61.31
   9  -1   3  243.40   26.78
  -1  -8   4  150.39   60.19
   8  -9  -4  263.67   88.08
   9  -1   4  243.46   44.27
  -1  -8   5   98.93   54.26
   8  -9  -5  164.13   54.79
   9  -1   5  152.00   33.54
   8  -9  -6   35.84   18.75
  -1  -8   6   28.17   16.18
   9  -1   6   26.60   12.64
   8  -9  -7  370.89  102.92
  -1  -8   7  231.47   49.24
   9  -1   7  324.11   65.73
   8  -9  -8    7.67   10.10
  -1  -8   8    6.04    7.91
   9  -1   8    4.53    6.10
   8  -9  -9   32.36   21.25
   9  -1   9   37.93   19.05
   9  -1  10  141.26   38.33
  -8   9  10  158.85   40.39
   9  -1  11   16.05    9.91
  -8   9  11   14.01    3.96
   9  -9  10    6.89   16.59
   0   9  10   10.54    9.95
   9  -9   9   45.45   36.49
   0   9   9   48.81   23.55
   9  -9   8   24.93   19.84
   0   9   8   22.07    9.67
   9  -9   7   70.94   17.63
   0   9   7   57.72    8.85
   9  -9   6  115.37   22.03
   0   9   6  140.42   14.20
   9  -9   5  140.84   37.68
   0   9   5  128.44   26.65
   9  -9   4   94.83   25.77
   0   9   4  104.11   22.33
   9  -9   3   82.48   27.41
   0   9   3   88.22   16.91
   0  -9  -2  106.89   59.17
   9  -9   2  166.52   41.88
   0  -9  -1   47.78   27.03
   9  -9   1   48.36   22.03
   0  -9   0   70.18   42.74
   9  -9   0   57.83   26.46
   0  -9   1   51.36   23.46
   9  -9  -1   43.52   20.02
   0  -9   2   94.01   38.23
   9  -9  -2  109.64   56.18
   9   0   2  122.09   23.36
   0  -9   3   76.89   41.63
   9  -9  -3   89.08   31.59
   9   0   3   92.06   19.04
   0  -9   4   94.91   51.84
   9  -9  -4   92.27   57.16
   9   0   4   96.96   22.37
   0  -9   5   79.65   43.52
   9  -9  -5  107.00   62.87
   9   0   5   98.57   36.13
   9  -9  -6  122.79   46.10
   0  -9   6   79.87   54.08
   9   0   6  118.47   30.63
   9  -9  -7   46.70   34.97
   0  -9   7   35.92   22.04
   9   0   7   56.33   26.05
   9  -9  -8   24.96   14.63
   0  -9   8    5.31    8.35
   9   0   8   25.87   12.61
   9  -9  -9   58.63   29.32
   0  -9   9   38.10   22.95
   9   0   9   44.86   28.35
   9   0  10    6.00    6.35
  10  -9  -8   15.83   11.21
   1 -10   8    5.55    5.99
   9   1   8   13.02   11.95
  10  -9  -7   23.04   27.51
   1 -10   7   14.86   13.68
   9   1   7   36.70   12.59
  10  -9  -6    2.29    5.96
   1 -10   6    5.27   15.95
   9   1   6    5.21    3.52
   1 -10   5   60.61   35.89
  10  -9  -5   84.78   45.18
   9   1   5   70.68   10.98
   1 -10   4   67.94   41.23
  10  -9  -4   58.40   46.84
   9   1   4   65.83   22.22
   1 -10   3   41.06   21.47
  10  -9  -3   40.30   20.92
   9   1   3   34.24   18.91
   1 -10   2    6.22    8.38
  10  -9  -2    9.06    8.43
   1 -10   1  101.80   68.20
  10  -9  -1  121.47   38.40
   1 -10   0   49.23   30.11
  10  -9   0   39.92   18.96
   1 -10  -1  110.19   47.28
  10  -9   1  144.56   36.37
   1 -10  -2   -7.36   15.14
  10  -9   2   26.56   23.86
   1 -10  -3   31.40   25.19
  10  -9   3   28.51   23.14
  10  -9   4   75.21   20.67
  -1  10   4   78.96    9.20
  10  -9   5   77.97   29.79
  -1  10   5   76.04   20.86
  10  -9   6   12.56   22.14
  -1  10   6    6.94    6.86
  10  -9   7   50.28   33.63
  -1  10   7   26.80   15.62
  10  -9   8    3.50   16.47
  -1  10   8   12.77    8.16
   2 -10   9    2.33    8.46
   8   2   9    0.59    8.00
   2 -10   8   83.20   51.34
   8   2   8  123.05   41.67
  10  -8  -7    4.48    7.49
   2 -10   7   -0.89   11.93
   8   2   7    4.13    8.17
  10  -8  -6  258.41   37.68
   2 -10   6  194.26   88.08
   8   2   6  228.30   22.45
  10  -8  -5    7.70   12.71
   2 -10   5   10.49    9.21
   8   2   5    6.10    7.34
   2 -10   4  275.67   60.08
  10  -8  -4  283.03   85.04
   8   2   4  257.00   51.46
   2 -10   3    9.95   10.12
  10  -8  -3    6.32    8.73
   8   2   3    7.02    7.91
   2 -10   2  300.24   89.59
  10  -8  -2  382.62  123.51
   8   2   2  346.96   68.60
   2 -10   1    9.26   18.35
  10  -8  -1   -4.65   11.79
  10  -8   0 1641.87  614.38
   2 -10  -1   15.75   19.87
  10  -8   1   -1.97   12.86
   2 -10  -2  326.85   69.06
  10  -8   2  397.26   81.97
   2 -10  -3   -1.17   16.32
  10  -8   3    5.92   13.41
   2 -10  -4  315.18   67.33
  10  -8   4  334.46   71.56
  10  -8   5    5.86    9.90
  10  -8   6  240.01   29.59
  -2  10   6  279.01   23.76
  10  -8   7   14.31   21.84
  -2  10   7    3.59    6.01
  10  -8   8  138.57   40.45
  -2  10   8  142.79   37.06
  10  -8   9   11.30   16.35
  -2  10   9    6.12    8.25
   3 -10  10   11.10    8.05
   7   3  10   21.36   15.11
   3 -10   9   14.18   11.68
   7   3   9   31.61   10.11
   3 -10   8   32.45   24.45
   7   3   8   24.81   18.94
   3 -10   7   25.56   19.67
   7   3   7   28.24   13.75
  10  -7  -6   40.61   28.58
   3 -10   6   26.16   20.09
   7   3   6   60.21   15.38
  10  -7  -5  145.52   53.90
   3 -10   5   95.65   66.14
   7   3   5  140.60   30.03
   3 -10   4   74.33   44.05
  10  -7  -4   95.61   38.50
   7   3   4   68.59   25.35
   3 -10   3   29.03   17.90
  10  -7  -3   36.68   15.53
   7   3   3   18.85    9.18
   3 -10   2   62.95   30.73
  10  -7  -2   64.38   31.72
   7   3   2   57.25   18.76
   3 -10   1   29.36   17.03
  10  -7  -1   54.03   23.59
   7   3   1   30.49   21.52
   3 -10   0   22.75   21.25
  10  -7   0   15.36   12.27
   3 -10  -1   36.92   26.10
  10  -7   1   50.60   22.32
   3 -10  -2   46.92   33.07
  10  -7   2   77.93   24.01
   3 -10  -3   46.28   32.15
  10  -7   3   45.56   20.64
   3 -10  -4   71.57   42.17
  10  -7   4   90.18   27.18
   3 -10  -5  179.43   95.61
  10  -7   5  174.43   41.38
   3 -10  -6   38.85   37.83
  10  -7   6   61.78   23.51
  10  -7   7   43.20   23.87
  -3  10   7   33.60   21.51
  10  -7   8   51.30   22.15
  -3  10   8   42.21   10.51
  10  -7   9   38.62   46.15
  -3  10   9   46.19   14.38
  10  -7  10   23.98   20.66
  -3  10  10   14.13    8.54
   4 -10  11    7.38   14.54
   6   4  11    3.35    9.35
   4 -10  10  129.24   37.68
   6   4  10  203.57   49.22
   4 -10   9   14.04   15.65
   6   4   9   29.48   13.54
   4 -10   8   -5.29   14.68
   6   4   8    8.08    7.79
   4 -10   7  207.83   76.64
   6   4   7  290.81   67.89
   4 -10   6   13.37   14.91
   6   4   6   -0.34    8.03
  10  -6  -5  167.43   47.16
   6   4   5  158.54   30.27
  10  -6  -4  136.24   41.41
   4 -10   4  151.27   61.19
   6   4   4  128.63   24.74
   4 -10   3  162.02   63.74
  10  -6  -3  173.94   38.04
   6   4   3  142.78   26.91
   4 -10   2   20.02   16.46
  10  -6  -2   32.68   17.87
   6   4   2   18.72    7.29
   4 -10   1   53.51   25.15
  10  -6  -1   51.08   19.97
   6   4   1   27.93   19.75
   4 -10   0  187.57   81.31
  10  -6   0  196.86   26.37
   6   4   0  153.26   16.96
   4 -10  -1   70.11   39.50
  10  -6   1   70.63   21.13
   4 -10  -2   28.85   28.50
  10  -6   2   41.39   20.18
   4 -10  -3  202.33   88.46
  10  -6   3  194.50   39.94
   4 -10  -4  167.75   75.13
  10  -6   4  162.65   35.01
   4 -10  -5  197.35   40.91
  10  -6   5  173.29   37.01
   4 -10  -6   10.24    9.05
  10  -6   6    1.26   13.00
   4 -10  -7  369.32   80.11
  10  -6   7  353.61   74.50
  10  -6   8   -4.37   13.58
  -4  10   8    6.82    6.31
  10  -6   9   36.10   21.23
  -4  10   9   35.98    8.97
  10  -6  10  157.50   45.14
  -4  10  10  191.43   44.94
  10  -6  11   -2.32   15.53
  -4  10  11    8.17    6.65
   5 -10  11   38.11   29.01
   5   5  11   37.86   26.48
   5 -10  10   22.17   22.01
   5   5  10   15.91   14.26
   5 -10   9   42.72   17.57
   5   5   9   54.78   37.64
   5 -10   8   54.16   23.99
   5   5   8   41.52   17.79
   5 -10   7  185.38   44.81
   5   5   7  173.04   36.35
   5 -10   6  123.25   31.48
   5   5   6  124.07   26.35
   5 -10   5  245.68  114.78
   5   5   5  278.01   50.10
   5 -10   4   55.00   29.17
   5   5   4   84.26   21.51
  10  -5  -3  202.58   53.16
   5   5   3  179.91   32.70
   5 -10   2  126.35   38.02
  10  -5  -2  159.33   23.56
   5   5   2   95.90   23.20
   5 -10   1   45.07   28.14
  10  -5  -1   52.72   19.58
   5   5   1   34.37   14.11
   5 -10   0   43.62   32.71
  10  -5   0   68.18   15.11
   5   5   0   39.21   14.97
   5 -10  -1   58.79   24.46
  10  -5   1   50.83   21.85
   5   5  -1   32.51   14.74
   5 -10  -2  150.21   61.24
  10  -5   2  165.72   33.24
   5   5  -2   79.86    9.04
   5 -10  -3  264.21   54.30
  10  -5   3  245.16   47.66
   5 -10  -4  101.47   62.63
  10  -5   4   92.22   23.09
   5 -10  -5  320.83  134.36
  10  -5   5  324.28   62.08
   5 -10  -6  105.25   88.53
  10  -5   6  150.13   33.65
   5 -10  -7  207.06   47.53
  10  -5   7  200.43   43.93
   5 -10  -8   29.20   17.11
  10  -5   8   54.10   17.62
  10  -5   9   85.70   26.83
  -5  10   9   71.37   32.80
  10  -5  10   15.94   13.93
  10  -5  11   28.02   25.19
  -5  10  11   33.32   19.59
   6 -10  11   14.59   20.57
   4   6  11   34.34   22.79
   4   6  10  121.08   31.04
   6 -10   9   52.20   25.28
   4   6   9   77.50   26.37
   6 -10   8   51.44   20.18
   4   6   8   45.37   22.36
   6 -10   7   10.42   17.86
   4   6   7    2.92    7.05
   6 -10   6   14.67   16.42
   4   6   6   18.85    9.03
   6 -10   5   20.82   27.10
   4   6   5   37.74   13.65
   6 -10   4   73.79   31.58
   4   6   4   40.20   18.66
   6 -10   3   22.35   13.98
   4   6   3   16.25    6.31
   6 -10   2   20.32   11.77
  10  -4  -2    8.54    8.91
   4   6   2    8.98    5.54
   6 -10   1   65.04   25.42
  10  -4  -1   87.53   14.02
   4   6   1   49.87   15.55
   6 -10   0   36.76   35.92
  10  -4   0   26.66   13.34
   4   6   0   16.75   10.63
   6 -10  -1   67.21   29.60
  10  -4   1   85.22   14.12
   4   6  -1   48.80   15.13
   6 -10  -2    9.52   16.28
  10  -4   2    7.94    9.53
   4   6  -2    9.27    4.38
   6 -10  -3   17.83   13.40
  10  -4   3   27.09   14.68
   4   6  -3   14.92    5.29
   6 -10  -4   60.92   30.56
  10  -4   4   69.60   18.22
   6 -10  -5   59.60   28.16
  10  -4   5   50.76   20.95
   6 -10  -6   25.64   24.17
  10  -4   6   25.16   14.92
   6 -10  -7    8.47    8.28
  10  -4   7    6.38   10.30
   6 -10  -8   46.36   44.17
  10  -4   8   42.18   32.14
   6 -10  -9   95.53   31.49
  10  -4   9   70.94   41.71
  10  -4  10   99.48   29.23
  -6  10  10  107.63   26.14
  10  -4  11   27.53   19.17
  -6  10  11   20.75   18.16
   7 -10  10   37.48   28.14
   3   7  10   58.20   50.76
   7 -10   9   14.39   15.37
   3   7   9   33.96   12.60
   7 -10   8  140.55   45.50
   3   7   8  141.96   50.03
   7 -10   7    5.85   16.48
   7 -10   6   30.08   24.39
   3   7   6   44.40   13.28
   7 -10   5   45.81   26.66
   3   7   5   22.32   11.07
   7 -10   4   42.57   28.74
   3   7   4   36.08   18.49
   7 -10   3   14.71   20.53
   3   7   3    8.77    4.78
   7 -10   2   74.19   24.03
   3   7   2   62.36   17.79
   7 -10   1   26.31   20.43
   3   7   1   13.82    5.94
   7 -10   0   18.80   14.07
  10  -3   0   10.68    9.59
   3   7   0   12.30    6.42
   7 -10  -1   33.61   20.47
  10  -3   1   24.45   10.12
   3   7  -1   12.63    5.30
   7 -10  -2   81.29   28.00
  10  -3   2   75.43   17.46
   3   7  -2   57.96   17.84
   7 -10  -3   -1.58   16.55
  10  -3   3    5.71    8.13
   3   7  -3    7.36    3.64
   7 -10  -4   54.74   24.47
  10  -3   4   35.47   14.21
   3   7  -4   29.65   10.34
   7 -10  -5   42.17   22.81
  10  -3   5   32.82   16.92
   7 -10  -6   49.51   33.99
  10  -3   6   49.59   21.49
   7 -10  -7   16.61   10.57
  10  -3   7    5.71   10.30
   7 -10  -8  128.03   89.43
  10  -3   8  134.21   38.14
   7 -10  -9   12.27    9.77
  10  -3   9   30.24   12.07
  10  -3  10   49.78   35.21
  -7  10  10   85.43   21.23
   8 -10   9   33.92   24.82
   2   8   9   57.54   32.54
   8 -10   8   68.13   30.19
   2   8   8   71.05   19.88
   8 -10   7  116.26   38.27
   2   8   7  169.93   43.78
   8 -10   6   84.56   26.16
   2   8   6   97.39   10.92
   8 -10   5  181.73   46.69
   2   8   5  149.30   30.64
   8 -10   4   42.64   20.63
   2   8   4   44.92   18.15
   8 -10   3  126.27   33.92
   2   8   3  118.07   24.25
   8 -10   2  144.37   62.71
   2   8   2  139.16   27.95
   8 -10   1   40.53   15.74
   2   8   1   34.32    9.99
   8 -10   0    3.56    8.34
   2   8   0    2.44    3.78
   8 -10  -1   39.46   36.15
  10  -2   1   36.26   12.79
   2   8  -1   25.63   17.68
   8 -10  -2  154.32   65.92
  10  -2   2  183.76   37.92
   2   8  -2  115.03   23.08
  -2  -8   3   76.14   43.20
   8 -10  -3  141.31   87.41
  10  -2   3  144.89   31.26
  -2  -8   4   35.76   21.75
   8 -10  -4   47.75   31.19
  10  -2   4   55.94   15.83
  -2  -8   5   79.43   46.79
   8 -10  -5  212.62   71.10
  10  -2   5  171.03   36.77
   8 -10  -6  115.42   66.04
  10  -2   6   91.46   46.10
   8 -10  -7  154.32   77.86
  10  -2   7  158.40   43.04
   8 -10  -8   64.60   32.09
  10  -2   8   54.78   20.36
   8 -10  -9   61.35   40.15
   9 -10   8  382.99   93.64
   1   9   8  427.84   98.43
   9 -10   7    0.55   16.67
   1   9   7    6.15    6.01
   9 -10   6   47.17   27.27
   1   9   6   35.01   23.10
   9 -10   5   11.98   16.41
   1   9   5    9.89    6.96
   9 -10   4   60.05   20.45
   1   9   4   71.78    9.65
   9 -10   3   13.12   19.16
   1   9   3    8.11    7.23
   9 -10   2  842.51   76.89
   1   9   2  701.35   51.22
   9 -10   1    7.38   10.48
   1   9   1    7.07    4.88
   9 -10   0  807.50  161.53
  -1  -9   1   13.13    8.02
   9 -10  -1    9.95   20.09
  -1  -9   2  634.78   54.46
   9 -10  -2  798.83   69.65
  -1  -9   3    9.75    7.61
   9 -10  -3   14.76   15.94
  10  -1   3    5.50    8.55
  -1  -9   4   38.00   28.48
   9 -10  -4   77.27   32.69
  10  -1   4   60.16   16.80
  -1  -9   5    6.71   11.97
   9 -10  -5   15.12   12.46
  10  -1   5    6.59    7.24
  -1  -9   6   22.10   13.77
   9 -10  -6   46.54   28.23
  10  -1   6   30.54   11.35
   9 -10  -7    5.24    8.97
  10  -1   7    3.38    5.01
   9 -10  -8  413.65  111.02
  10  -1   8  400.07   93.31
  10 -10   6   20.03   21.37
   0  10   6   21.66   15.72
  10 -10   5    0.11   15.57
   0  10   5    2.82    4.70
  10 -10   4   12.62   23.57
   0  10   4    7.20    5.42
  10 -10   3   49.58   30.57
   0  10   3   44.48   13.04
  10 -10   2  125.73   39.02
   0  10   2   99.81   33.97
   0 -10  -1   13.66    9.60
  10 -10   1   -1.69   16.54
   0 -10   0   25.11   17.37
  10 -10   0   36.77   13.42
   0 -10   1    9.45    9.03
  10 -10  -1   15.16   11.45
   0 -10   2   58.03   44.14
  10 -10  -2   90.55   45.33
   0 -10   3   19.51   10.63
  10 -10  -3   25.94   13.02
   0 -10   4    5.97   13.84
  10 -10  -4    5.69    6.32
  10 -10  -5   -1.72   14.04
  10   0   5    3.58    3.53
   0 -10   6   16.83   12.61
  10 -10  -6   10.16    8.05
  10   0   6   16.06    7.35
   1 -11   3  106.06   87.88
  11 -10  -3  169.73   65.12
   1 -11   2   52.31   46.89
  11 -10  -2   75.67   41.60
   1 -11   1   19.42   14.12
  11 -10  -1   18.92    9.93
   1 -11   0   38.54   34.28
  11 -10   0   33.99   29.02
   1 -11  -1   32.16   28.07
  11 -10   1   21.79   25.13
   1 -11  -2   80.42   49.52
  11 -10   2   78.80   28.68
  11 -10   3  176.29   48.10
  -1  11   3  177.61   42.75
   2 -11   5    3.20   11.66
  11  -9  -5   19.10   14.13
   9   2   5   13.00    7.54
   2 -11   4   25.51   23.97
  11  -9  -4   14.19   14.75
   2 -11   3   17.53   12.40
  11  -9  -3    6.99   10.10
   2 -11   2   11.86   18.28
  11  -9  -2    6.89   11.29
   2 -11   1   27.09   25.55
  11  -9  -1   24.71   11.98
   2 -11   0    7.94   13.83
  11  -9   0   15.39   14.04
   2 -11  -1   26.87   20.92
  11  -9   1   22.48   20.61
   2 -11  -2   12.47   13.52
  11  -9   2   25.57   15.49
   2 -11  -3   18.56   14.27
  11  -9   3   16.99   14.52
   2 -11  -4   24.67   19.57
  11  -9   4   77.11   30.12
  11  -9   5   16.24   15.15
  -2  11   5   16.42    5.97
   3 -11   7    7.58   18.24
   8   3   7    6.04    7.87
   3 -11   6   13.36   10.53
   8   3   6   30.69   18.89
   3 -11   5   43.94   35.52
   8   3   5   57.51   17.18
   3 -11   4   16.03   16.30
  11  -8  -4    7.37   11.57
   8   3   4    2.23    5.83
   3 -11   3    6.45    8.24
  11  -8  -3    6.11    8.48
   3 -11   2   24.61   22.82
  11  -8  -2   35.08   23.01
   3 -11   1   13.63   11.49
  11  -8  -1    9.85   13.20
   3 -11   0   41.24   28.18
  11  -8   0   44.76   24.98
   3 -11  -1   13.45   19.68
  11  -8   1   17.25   17.66
   3 -11  -2   45.67   39.26
  11  -8   2   39.11   23.13
   3 -11  -3    8.52   11.91
  11  -8   3   -8.67   12.78
  11  -8   4    7.86   12.28
   3 -11  -5   43.34   30.84
  11  -8   5   66.55   25.09
  11  -8   6   30.25   23.89
  11  -8   7   10.61   13.85
  -3  11   7    3.22    3.67
   4 -11   8   37.53   38.06
   7   4   8   70.04   27.47
   4 -11   7   44.33   31.86
   7   4   7   44.61   36.89
   4 -11   6   96.72   51.81
   7   4   6  108.19   29.86
   4 -11   5   36.11   28.09
   7   4   5   56.60   16.75
   4 -11   4   40.64   23.53
   7   4   4   17.37   19.42
  11  -7  -3   68.40   39.10
   7   4   3   51.52   14.18
   4 -11   2   94.25   56.25
  11  -7  -2  134.03   33.20
   4 -11   1   65.80   29.00
  11  -7  -1   94.08   19.32
   4 -11   0   13.74   13.89
  11  -7   0    9.90   11.90
   4 -11  -1   71.17   42.24
  11  -7   1   86.17   20.66
   4 -11  -2  117.36   79.99
  11  -7   2  160.92   24.60
   4 -11  -3   84.12   48.52
  11  -7   3   72.82   19.16
   4 -11  -4   42.58   27.81
  11  -7   4   25.35   15.40
   4 -11  -5   73.07   44.64
  11  -7   5   57.05   20.90
   4 -11  -6  133.26   92.79
  11  -7   6  140.65   42.80
   4 -11  -7   75.77   33.59
  11  -7   7   60.20   38.81
  11  -7   8   60.46   35.99
  -4  11   8   72.23   27.55
   5 -11   8  262.43   97.92
   6   5   8  451.98  104.96
   5 -11   7   10.09   11.73
   6   5   7   10.87    8.23
   6   5   6   35.22   22.28
   5 -11   5   16.22   11.02
   6   5   5    8.27    7.73
   5 -11   4   51.30   32.09
   6   5   4   58.04   14.45
   5 -11   3    7.34   13.99
   6   5   3    3.41    5.42
   5 -11   2  865.55   75.70
  11  -6  -2  883.42   68.63
   6   5   2  666.66   50.12
   5 -11   1   28.22   20.71
  11  -6  -1   19.03   12.09
   6   5   1   10.12    5.78
   5 -11   0  859.57  171.49
  11  -6   0  962.79  360.70
   5 -11  -1   26.58   20.32
  11  -6   1   12.82   10.06
   5 -11  -2  973.59  165.96
  11  -6   2  966.02   75.05
   5 -11  -3    9.27   14.87
  11  -6   3    8.26   11.82
   5 -11  -4   63.33   46.52
  11  -6   4   78.07   15.54
   5 -11  -5   19.97   10.88
  11  -6   5   20.43   15.93
   5 -11  -6   49.64   33.80
  11  -6   6   26.21   28.45
   5 -11  -7   -2.11   12.00
  11  -6   7    6.39   10.70
   5 -11  -8  590.11  140.30
  11  -6   8  421.66  101.11
   6 -11   8   68.98   29.92
   5   6   8   46.24   27.54
   6 -11   7   91.69   32.97
   5   6   7  103.76   26.71
   6 -11   6   10.64   14.68
   5   6   6    6.54    4.66
   6 -11   5   33.84   18.98
   5   6   5   31.87   15.86
   5   6   4    3.50    4.64
   6 -11   3   60.13   23.56
   5   6   3   44.78   25.48
   6 -11   2   58.54   25.29
   5   6   2   34.24   17.35
   6 -11   1    6.24   11.80
   5   6   1    6.05    6.13
   6 -11   0   15.34   16.30
  11  -5   0   21.87   11.71
   5   6   0   20.49    6.88
   6 -11  -1   14.41   18.77
  11  -5   1   14.94   12.91
   6 -11  -2   62.31   27.90
  11  -5   2   60.03   15.86
   6 -11  -3   77.75   54.24
  11  -5   3   80.31   15.81
   6 -11  -4   11.33   13.71
  11  -5   4    6.19    5.45
   6 -11  -5   49.32   28.81
  11  -5   5   48.27   20.83
   6 -11  -6   21.78   19.64
  11  -5   6    4.59   10.62
   6 -11  -7  121.44   49.34
  11  -5   7  111.08   29.22
   6 -11  -8   54.34   65.97
  11  -5   8   64.20   20.00
   7 -11   8   46.85   35.34
   4   7   8   38.58   35.04
   4   7   7  245.99   59.45
   7 -11   6   60.77   32.30
   4   7   6   99.54   26.91
   7 -11   5  307.00  118.88
   4   7   5  307.32   77.50
   7 -11   4   47.23   27.51
   4   7   4   33.35   29.38
   7 -11   3  173.35   85.49
   4   7   3  175.86   16.23
   7 -11   2  112.07   44.10
   4   7   2   94.02   10.22
   7 -11   1   48.26   28.00
   4   7   1   28.97   13.70
   7 -11   0   89.10   44.92
   4   7   0   71.29    7.65
   7 -11  -1   46.06   21.30
  11  -4   1   34.26   15.80
   4   7  -1   20.50    9.63
   7 -11  -2  125.51   47.39
  11  -4   2  130.00   20.15
   7 -11  -3  208.39   57.75
  11  -4   3  219.81   23.92
   7 -11  -4   88.26   30.46
  11  -4   4   55.42   14.30
   7 -11  -5  442.39   39.10
  11  -4   5  350.58   90.13
   7 -11  -6  118.35   61.30
  11  -4   6  102.53   30.57
   7 -11  -7  329.48   82.52
   7 -11  -8   26.29   38.06
  11  -4   8   29.89   21.98
   8 -11   7  240.40   63.40
   3   8   7  260.50   61.05
   8 -11   6   93.85   35.69
   3   8   6   65.47   16.79
   8 -11   5  141.61   47.15
   3   8   5  128.33   33.07
   8 -11   4  137.82   91.10
   3   8   4  134.24   34.61
   8 -11   3  184.17   90.31
   3   8   3  180.43   45.81
   8 -11   2  118.21   56.11
   3   8   2   77.57    9.19
   8 -11   1   15.75   17.27
   3   8   1    6.95    4.77
   8 -11   0   33.03   27.15
   3   8   0    6.10    4.09
   8 -11  -1   21.20   22.80
   3   8  -1    4.40    3.71
   8 -11  -2   88.42   27.59
   3   8  -2   70.45    7.40
   8 -11  -3  205.06   80.20
  11  -3   3  250.22   65.18
   8 -11  -4  142.92   61.83
  11  -3   4  152.14   40.40
   8 -11  -5  145.84  109.05
   8 -11  -6   61.53   52.05
  11  -3   6   57.38   32.65
   8 -11  -7  259.71   85.95
  11  -3   7  246.44   59.06
   9 -11   5   34.75   28.28
   2   9   5   12.35   10.30
   9 -11   4   34.78   28.56
   2   9   4   33.16   20.68
   9 -11   3   51.21   27.99
   2   9   3   71.18   19.06
   9 -11   2   11.52    8.84
   2   9   2    7.33    4.38
   9 -11   1   81.68   41.21
   2   9   1   46.20   16.55
   9 -11   0   35.92   12.61
   9 -11  -1   56.62   31.77
   2   9  -1   46.82   12.77
   9 -11  -2   20.32   14.54
   2   9  -2    6.41    6.24
   9 -11  -3   66.66   68.12
   2   9  -3   61.77   17.33
   9 -11  -4   34.39   27.87
   9 -11  -5   17.14   16.18
  11  -2   5   14.01   10.77
  10 -11   3   10.45   19.13
   1  10   3   15.42    6.76
  10 -11   2   11.14   11.98
   1  10   2    3.76    6.42
  10 -11   1   15.60   14.72
   1  10   1    9.48    5.75
  10 -11   0   97.26   78.09
   1  10   0   96.93   23.19
  10 -11  -1   21.81   18.61
   1  10  -1    9.09    8.27
  -1 -10   2    8.35    6.56
  10 -11  -2    1.13    9.59
  -1 -10   3   12.88    7.12
  10 -11  -3   25.52   19.83
   4 -12   2   36.99   29.29
   4 -12   1   22.48   21.74
  12  -8  -1   12.70    7.06
   4 -12   0   14.00   17.53
  12  -8   0   14.39   12.03
   4 -12  -1   26.37   23.09
  12  -8   1   17.72   14.58
   4 -12  -2   38.78   33.01
  12  -8   2   47.72   30.24
   5 -12   3   46.56   43.51
   5 -12   2   35.57   22.78
   5 -12   1   31.35   26.40
  12  -7   0    5.06    9.43
   5 -12  -1   21.10   33.61
  12  -7   1   19.04   14.27
   5 -12  -2   33.63   35.22
  12  -7   2   42.56   26.99
   5 -12  -3   77.36   47.98
  12  -7   3   79.00   24.12
   5 -12  -4   16.05   22.76
  12  -7   4   18.87   14.56
   6 -12   4   46.21   35.16
   6   6   4   41.34   24.61
   6 -12   3   13.00   10.07
   6   6   3   13.09    6.30
   6 -12   2   11.17    8.63
   6 -12   1   18.63   17.65
   6 -12   0  204.83  116.06
   6 -12  -1   -8.54   19.35
  12  -6   1    4.60   11.17
   6 -12  -2   12.35   12.23
  12  -6   2    7.88    8.71
   6 -12  -3   21.27   20.41
  12  -6   3   18.39   13.60
   6 -12  -4   49.08   45.01
  12  -6   4   32.30   21.97
   7 -12   4   67.63   33.92
   5   7   4   29.13   28.71
   7 -12   3   65.95   50.32
   5   7   3   68.62   18.06
   7 -12   2   15.00    9.27
   5   7   2   15.73    7.27
   7 -12   1   36.67   29.32
   7 -12   0   58.49   48.57
   7 -12  -1   52.74   39.44
   7 -12  -2   14.27   15.01
   7 -12  -3   77.18   58.09
  12  -5   3   98.81   27.48
   7 -12  -4   33.05   29.56
  12  -5   4   49.57   30.42
   8 -12   2  417.47  143.96
   4   8   2  399.79   91.80
   8 -12   1   10.17   18.24
   4   8   1    6.74    3.51
   8 -12   0  521.97  125.50
   8 -12  -1    8.27   17.67
   8 -12  -2  542.72  130.53
   0   0   0    0.00    0.00
;
_shelx_hkl_checksum              41604
loop_
_space_group_symop_operation_xyz
'x, y, z'
'-y, x-y, z'
'-x+y, -x, z'
'-x, -y, z+1/2'
'y, -x+y, z+1/2'
'x-y, x, z+1/2'
loop_
_atom_site_label
_atom_site_type_symbol
_atom_site_fract_x
_atom_site_fract_y
_atom_site_fract_z
_atom_site_U_iso_or_equiv
_atom_site_adp_type
_atom_site_occupancy
_atom_site_site_symmetry_order
_atom_site_calc_flag
_atom_site_refinement_flags_posn
_atom_site_refinement_flags_adp
_atom_site_refinement_flags_occupancy
Y1 Y 0.58908(18) 0.71845(19) 0.23210(10) 0.0078(4) Uani 1 1 d . U .
Y2 Y 0.42970(17) 0.29330(17) 0.14101(11) 0.0081(4) Uani 1 1 d . U .
Y3 Y 0.6667 0.3333 -0.0642(3) 0.0088(5) Uani 1 3 d S TU P
Y4 Y 0.0000 0.0000 0.1107(2) 0.0076(5) Uani 1 3 d S TU P
Br Br 0.6667 0.3333 0.4389(4) 0.0360(8) Uani 1 3 d S TU P
O1 O 0.4910(12) 0.8647(12) 0.1398(8) 0.008(2) Uani 1 1 d . U .
O2 O 0.6347(13) 0.4975(13) 0.2373(8) 0.011(2) Uani 1 1 d . U .
O3 O -0.1919(13) -0.0087(12) 0.2211(7) 0.009(2) Uiso 1 1 d . . .
O4 O 0.7457(13) 0.7644(13) 0.3633(8) 0.012(2) Uiso 1 1 d . . .
O5 O 0.2746(12) 0.0160(12) 0.1100(8) 0.010(2) Uani 1 1 d . U .
O6 O 0.6338(12) 0.4815(13) -0.1752(8) 0.010(2) Uani 1 1 d . U .
O7 O 0.6913(14) 0.1183(14) -0.0198(8) 0.018(3) Uani 1 1 d . U .
O8 O 0.1693(14) 0.2009(15) 0.0055(8) 0.018(3) Uani 1 1 d . U .
O9 O 0.6667 0.3333 0.0868(13) 0.022(6) Uiso 1 3 d S . P
C1 C 0.2768(17) 0.2459(17) -0.0522(11) 0.010(3) Uani 1 1 d . U .
loop_
_atom_site_aniso_label
_atom_site_aniso_U_11
_atom_site_aniso_U_22
_atom_site_aniso_U_33
_atom_site_aniso_U_23
_atom_site_aniso_U_13
_atom_site_aniso_U_12
Y1 0.0082(6) 0.0072(7) 0.0082(7) 0.0004(6) 0.0009(6) 0.0040(5)
Y2 0.0078(6) 0.0078(7) 0.0091(7) 0.0007(6) 0.0010(6) 0.0042(6)
Y3 0.0091(6) 0.0091(6) 0.0082(9) 0.000 0.000 0.0045(3)
Y4 0.0084(6) 0.0084(6) 0.0060(9) 0.000 0.000 0.0042(3)
Br 0.0428(11) 0.0428(11) 0.0223(14) 0.000 0.000 0.0214(5)
O1 0.008(2) 0.008(2) 0.007(2) -0.0001(13) 0.0001(13) 0.0040(15)
O2 0.011(3) 0.012(3) 0.011(3) -0.0002(13) 0.0000(13) 0.0058(16)
O5 0.010(3) 0.010(3) 0.010(3) -0.0004(13) 0.0004(13) 0.0047(16)
O6 0.011(3) 0.011(3) 0.010(3) 0.0000(13) -0.0002(13) 0.0054(16)
O7 0.018(3) 0.018(3) 0.018(3) 0.0001(13) 0.0001(13) 0.0091(19)
O8 0.018(3) 0.018(3) 0.018(3) 0.0001(13) 0.0007(13) 0.0091(17)
C1 0.010(3) 0.010(3) 0.010(3) 0.0000(13) 0.0000(13) 0.0048(19)
loop_
_atom_type_symbol
_atom_type_description
_atom_type_scat_dispersion_real
_atom_type_scat_dispersion_imag
_atom_type_scat_source
C C 0.0033 0.0016 'International Tables Vol C Tables 4.2.6.8 and 6.1.1.4'
H H 0.0000 0.0000 'International Tables Vol C Tables 4.2.6.8 and 6.1.1.4'
N N 0.0061 0.0033 'International Tables Vol C Tables 4.2.6.8 and 6.1.1.4'
O O 0.0106 0.0060 'International Tables Vol C Tables 4.2.6.8 and 6.1.1.4'
Zn Zn 0.2839 1.4301 'International Tables Vol C Tables 4.2.6.8 and 6.1.1.4'
Br Br -0.2901 2.4595 'International Tables Vol C Tables 4.2.6.8 and 6.1.1.4'
Y Y -2.7962 3.5667 'International Tables Vol C Tables 4.2.6.8 and 6.1.1.4'
Cs Cs -0.3680 2.1192 'International Tables Vol C Tables 4.2.6.8 and 6.1.1.4'
loop_
_geom_angle_atom_site_label_1
_geom_angle_atom_site_label_2
_geom_angle_atom_site_label_3
_geom_angle
_geom_angle_site_symmetry_1
_geom_angle_site_symmetry_3
O5 Y1 O4 108.1(4) 3_665 .
O5 Y1 O2 69.8(4) 3_665 .
O4 Y1 O2 75.9(4) . .
O5 Y1 O6 149.8(4) 3_665 5_565
O4 Y1 O6 80.0(4) . 5_565
O2 Y1 O6 139.5(4) . 5_565
O5 Y1 O3 73.7(4) 3_665 1_665
O4 Y1 O3 74.1(4) . 1_665
O2 Y1 O3 121.6(4) . 1_665
O6 Y1 O3 81.1(3) 5_565 1_665
O5 Y1 O1 81.0(4) 3_665 3_565
O4 Y1 O1 144.0(4) . 3_565
O2 Y1 O1 75.1(3) . 3_565
O6 Y1 O1 109.9(4) 5_565 3_565
O3 Y1 O1 140.4(4) 1_665 3_565
O5 Y1 O6 138.9(4) 3_665 4_665
O4 Y1 O6 84.5(4) . 4_665
O2 Y1 O6 76.2(4) . 4_665
O6 Y1 O6 69.5(5) 5_565 4_665
O3 Y1 O6 146.3(4) 1_665 4_665
O1 Y1 O6 68.3(3) 3_565 4_665
O5 Y1 O1 87.7(4) 3_665 .
O4 Y1 O1 137.9(4) . .
O2 Y1 O1 145.3(5) . .
O6 Y1 O1 69.1(3) 5_565 .
O3 Y1 O1 73.5(3) 1_665 .
O1 Y1 O1 75.4(5) 3_565 .
O6 Y1 O1 109.1(3) 4_665 .
O5 Y1 Y3 174.5(2) 3_665 4_665
O4 Y1 Y3 70.8(3) . 4_665
O2 Y1 Y3 104.7(3) . 4_665
O6 Y1 Y3 35.8(3) 5_565 4_665
O3 Y1 Y3 110.8(3) 1_665 4_665
O1 Y1 Y3 96.7(3) 3_565 4_665
O6 Y1 Y3 36.1(2) 4_665 4_665
O1 Y1 Y3 96.7(3) . 4_665
O5 Y1 Y2 35.6(3) 3_665 3_665
O4 Y1 Y2 82.6(3) . 3_665
O2 Y1 Y2 37.6(3) . 3_665
O6 Y1 Y2 161.9(3) 5_565 3_665
O3 Y1 Y2 89.5(2) 1_665 3_665
O1 Y1 Y2 87.2(3) 3_565 3_665
O6 Y1 Y2 113.7(2) 4_665 3_665
O1 Y1 Y2 123.0(3) . 3_665
Y3 Y1 Y2 139.59(5) 4_665 3_665
O5 Y1 Y2 70.2(2) 3_665 .
O4 Y1 Y2 111.7(3) . .
O2 Y1 Y2 37.9(3) . .
O6 Y1 Y2 135.1(2) 5_565 .
O3 Y1 Y2 143.4(3) 1_665 .
O1 Y1 Y2 37.3(2) 3_565 .
O6 Y1 Y2 68.9(3) 4_665 .
O1 Y1 Y2 110.3(3) . .
Y3 Y1 Y2 104.99(4) 4_665 .
Y2 Y1 Y2 57.15(5) 3_665 .
O5 Y1 Y2 80.8(2) 3_665 2_665
O4 Y1 Y2 105.7(3) . 2_665
O2 Y1 Y2 149.1(3) . 2_665
O6 Y1 Y2 69.0(3) 5_565 2_665
O3 Y1 Y2 36.6(3) 1_665 2_665
O1 Y1 Y2 110.1(3) 3_565 2_665
O6 Y1 Y2 134.5(2) 4_665 2_665
O1 Y1 Y2 37.1(2) . 2_665
Y3 Y1 Y2 104.76(4) 4_665 2_665
Y2 Y1 Y2 111.53(6) 3_665 2_665
Y2 Y1 Y2 137.99(6) . 2_665
O9 Y2 O5 97.8(3) . .
O9 Y2 O3 163.6(4) . 3
O5 Y2 O3 72.5(4) . 3
O9 Y2 O1 119.6(3) . 3_565
O5 Y2 O1 133.6(3) . 3_565
O3 Y2 O1 75.5(3) 3 3_565
O9 Y2 O7 70.9(6) . 3_665
O5 Y2 O7 81.6(4) . 3_665
O3 Y2 O7 119.1(4) 3 3_665
O1 Y2 O7 85.7(4) 3_565 3_665
O9 Y2 O2 74.9(4) . 2_655
O5 Y2 O2 68.4(4) . 2_655
O3 Y2 O2 89.1(4) 3 2_655
O1 Y2 O2 143.4(5) 3_565 2_655
O7 Y2 O2 130.3(4) 3_665 2_655
O9 Y2 O2 74.6(5) . .
O5 Y2 O2 145.7(4) . .
O3 Y2 O2 105.7(4) 3 .
O1 Y2 O2 75.4(4) 3_565 .
O7 Y2 O2 124.7(4) 3_665 .
O2 Y2 O2 77.3(5) 2_655 .
O9 Y2 Y2 36.0(3) . 2_655
O5 Y2 Y2 73.4(3) . 2_655
O3 Y2 Y2 127.7(3) 3 2_655
O1 Y2 Y2 152.2(2) 3_565 2_655
O7 Y2 Y2 93.3(3) 3_665 2_655
O2 Y2 Y2 41.3(3) 2_655 2_655
O2 Y2 Y2 82.5(3) . 2_655
O9 Y2 Y2 36.0(3) . 3_665
O5 Y2 Y2 132.0(3) . 3_665
O3 Y2 Y2 146.7(3) 3 3_665
O1 Y2 Y2 92.2(2) 3_565 3_665
O7 Y2 Y2 89.9(3) 3_665 3_665
O2 Y2 Y2 82.7(3) 2_655 3_665
O2 Y2 Y2 41.0(3) . 3_665
Y2 Y2 Y2 60.0 2_655 3_665
O9 Y2 Y4 137.3(3) . .
O5 Y2 Y4 43.8(2) . .
O3 Y2 Y4 40.9(3) 3 .
O1 Y2 Y4 90.6(2) 3_565 .
O7 Y2 Y4 83.2(3) 3_665 .
O2 Y2 Y4 99.2(3) 2_655 .
O2 Y2 Y4 146.6(3) . .
Y2 Y2 Y4 116.95(6) 2_655 .
Y2 Y2 Y4 172.40(7) 3_665 .
O9 Y2 Y3 34.5(5) . .
O5 Y2 Y3 87.9(3) . .
O3 Y2 Y3 152.5(3) 3 .
O1 Y2 Y3 107.2(3) 3_565 .
O7 Y2 Y3 36.6(3) 3_665 .
O2 Y2 Y3 101.6(3) 2_655 .
O2 Y2 Y3 101.3(3) . .
Y2 Y2 Y3 60.58(4) 2_655 .
Y2 Y2 Y3 60.58(4) 3_665 .
Y4 Y2 Y3 111.83(9) . .
O9 Y2 Y1 96.70(17) . 2_655
O5 Y2 Y1 34.9(3) . 2_655
O3 Y2 Y1 67.7(3) 3 2_655
O1 Y2 Y1 143.1(3) 3_565 2_655
O7 Y2 Y1 114.3(3) 3_665 2_655
O2 Y2 Y1 36.8(3) 2_655 2_655
O2 Y2 Y1 111.6(3) . 2_655
Y2 Y2 Y1 61.49(5) 2_655 2_655
Y2 Y2 Y1 117.20(4) 3_665 2_655
Y4 Y2 Y1 63.31(5) . 2_655
Y3 Y2 Y1 106.66(4) . 2_655
O9 Y3 O7 73.2(3) . .
O9 Y3 O7 73.2(3) . 2_655
O7 Y3 O7 112.0(3) . 2_655
O9 Y3 O7 73.2(3) . 3_665
O7 Y3 O7 112.0(3) . 3_665
O7 Y3 O7 112.0(3) 2_655 3_665
O9 Y3 O6 135.9(3) . .
O7 Y3 O6 150.6(4) . .
O7 Y3 O6 85.4(4) 2_655 .
O7 Y3 O6 80.3(4) 3_665 .
O9 Y3 O6 135.9(3) . 2_655
O7 Y3 O6 80.3(4) . 2_655
O7 Y3 O6 150.6(4) 2_655 2_655
O7 Y3 O6 85.4(4) 3_665 2_655
O6 Y3 O6 74.1(4) . 2_655
O9 Y3 O6 135.9(3) . 3_665
O7 Y3 O6 85.4(4) . 3_665
O7 Y3 O6 80.3(4) 2_655 3_665
O7 Y3 O6 150.6(4) 3_665 3_665
O6 Y3 O6 74.1(4) . 3_665
O6 Y3 O6 74.1(4) 2_655 3_665
O9 Y3 Y2 34.56(4) . 2_655
O7 Y3 Y2 38.7(3) . 2_655
O7 Y3 Y2 90.1(3) 2_655 2_655
O7 Y3 Y2 93.6(3) 3_665 2_655
O6 Y3 Y2 170.5(3) . 2_655
O6 Y3 Y2 113.0(3) 2_655 2_655
O6 Y3 Y2 113.5(3) 3_665 2_655
O9 Y3 Y2 34.56(4) . 3_665
O7 Y3 Y2 93.6(3) . 3_665
O7 Y3 Y2 38.7(3) 2_655 3_665
O7 Y3 Y2 90.1(3) 3_665 3_665
O6 Y3 Y2 113.5(3) . 3_665
O6 Y3 Y2 170.5(3) 2_655 3_665
O6 Y3 Y2 113.0(3) 3_665 3_665
Y2 Y3 Y2 58.85(7) 2_655 3_665
O9 Y3 Y2 34.56(4) . .
O7 Y3 Y2 90.1(3) . .
O7 Y3 Y2 93.6(3) 2_655 .
O7 Y3 Y2 38.7(3) 3_665 .
O6 Y3 Y2 113.0(3) . .
O6 Y3 Y2 113.5(3) 2_655 .
O6 Y3 Y2 170.5(3) 3_665 .
Y2 Y3 Y2 58.85(7) 2_655 .
Y2 Y3 Y2 58.85(7) 3_665 .
O9 Y3 Y1 143.50(4) . 5_554
O7 Y3 Y1 70.5(3) . 5_554
O7 Y3 Y1 117.8(3) 2_655 5_554
O7 Y3 Y1 124.4(3) 3_665 5_554
O6 Y3 Y1 80.6(3) . 5_554
O6 Y3 Y1 39.0(3) 2_655 5_554
O6 Y3 Y1 37.6(3) 3_665 5_554
Y2 Y3 Y1 108.96(3) 2_655 5_554
Y2 Y3 Y1 145.15(4) 3_665 5_554
Y2 Y3 Y1 147.21(4) . 5_554
O9 Y3 Y1 143.50(4) . 4_664
O7 Y3 Y1 117.8(3) . 4_664
O7 Y3 Y1 124.4(3) 2_655 4_664
O7 Y3 Y1 70.5(3) 3_665 4_664
O6 Y3 Y1 39.0(3) . 4_664
O6 Y3 Y1 37.6(3) 2_655 4_664
O6 Y3 Y1 80.6(3) 3_665 4_664
Y2 Y3 Y1 145.15(4) 2_655 4_664
Y2 Y3 Y1 147.21(4) 3_665 4_664
Y2 Y3 Y1 108.96(3) . 4_664
Y1 Y3 Y1 62.01(7) 5_554 4_664
O8 Y4 O8 81.4(5) . 2
O8 Y4 O8 81.4(5) . 3
O8 Y4 O8 81.4(5) 2 3
O8 Y4 O3 132.0(4) . .
O8 Y4 O3 83.7(4) 2 .
O8 Y4 O3 140.5(4) 3 .
O8 Y4 O3 83.7(4) . 3
O8 Y4 O3 140.5(4) 2 3
O8 Y4 O3 132.0(4) 3 3
O3 Y4 O3 79.5(4) . 3
O8 Y4 O3 140.5(4) . 2
O8 Y4 O3 132.0(4) 2 2
O8 Y4 O3 83.7(4) 3 2
O3 Y4 O3 79.5(4) . 2
O3 Y4 O3 79.5(4) 3 2
O8 Y4 O5 71.6(4) . .
O8 Y4 O5 138.3(4) 2 .
O8 Y4 O5 63.9(4) 3 .
O3 Y4 O5 137.8(4) . .
O3 Y4 O5 68.0(3) 3 .
O3 Y4 O5 69.0(3) 2 .
O8 Y4 O5 138.3(4) . 3
O8 Y4 O5 63.9(4) 2 3
O8 Y4 O5 71.6(4) 3 3
O3 Y4 O5 69.0(3) . 3
O3 Y4 O5 137.8(4) 3 3
O3 Y4 O5 68.0(3) 2 3
O5 Y4 O5 119.998(4) . 3
O8 Y4 O5 63.9(4) . 2
O8 Y4 O5 71.6(4) 2 2
O8 Y4 O5 138.3(4) 3 2
O3 Y4 O5 68.0(3) . 2
O3 Y4 O5 69.0(3) 3 2
O3 Y4 O5 137.8(4) 2 2
O5 Y4 O5 119.999(4) . 2
O5 Y4 O5 119.998(4) 3 2
O8 Y4 Y2 134.8(3) . 3
O8 Y4 Y2 97.3(3) 2 3
O8 Y4 Y2 54.0(3) 3 3
O3 Y4 Y2 92.3(2) . 3
O3 Y4 Y2 118.8(3) 3 3
O3 Y4 Y2 39.7(2) 2 3
O5 Y4 Y2 81.2(2) . 3
O5 Y4 Y2 39.5(2) 3 3
O5 Y4 Y2 157.9(2) 2 3
O8 Y4 Y2 54.0(3) . .
O8 Y4 Y2 134.8(3) 2 .
O8 Y4 Y2 97.3(3) 3 .
O3 Y4 Y2 118.8(3) . .
O3 Y4 Y2 39.7(2) 3 .
O3 Y4 Y2 92.3(2) 2 .
O5 Y4 Y2 39.5(2) . .
O5 Y4 Y2 157.9(2) 3 .
O5 Y4 Y2 81.2(2) 2 .
Y2 Y4 Y2 118.51(3) 3 .
O8 Y4 Y2 97.3(3) . 2
O8 Y4 Y2 54.0(3) 2 2
O8 Y4 Y2 134.8(3) 3 2
O3 Y4 Y2 39.7(2) . 2
O3 Y4 Y2 92.3(2) 3 2
O3 Y4 Y2 118.8(3) 2 2
O5 Y4 Y2 157.9(2) . 2
O5 Y4 Y2 81.2(2) 3 2
O5 Y4 Y2 39.5(2) 2 2
Y2 Y4 Y2 118.51(3) 3 2
Y2 Y4 Y2 118.51(3) . 2
Y2 O1 Y1 104.1(4) 2_665 2_665
Y2 O1 Y1 104.4(4) 2_665 .
Y1 O1 Y1 104.5(5) 2_665 .
Y1 O2 Y2 105.6(4) . 3_665
Y1 O2 Y2 105.3(4) . .
Y2 O2 Y2 97.7(5) 3_665 .
Y2 O3 Y1 106.3(4) 2 1_445
Y2 O3 Y4 99.4(4) 2 .
Y1 O3 Y4 108.5(4) 1_445 .
C1 O4 Y1 137.3(10) 4_665 .
Y1 O5 Y2 109.5(4) 2_655 .
Y1 O5 Y4 107.4(4) 2_655 .
Y2 O5 Y4 96.7(4) . .
Y3 O6 Y1 106.6(4) . 6_654
Y3 O6 Y1 104.8(4) . 4_664
Y1 O6 Y1 106.1(4) 6_654 4_664
C1 O7 Y3 137.7(10) 2_655 .
C1 O7 Y2 111.9(10) 2_655 2_655
Y3 O7 Y2 104.7(5) . 2_655
C1 O8 Y4 148.0(11) . .
Y3 O9 Y2 111.0(5) . 2_655
Y3 O9 Y2 111.0(5) . 3_665
Y2 O9 Y2 107.9(5) 2_655 3_665
Y3 O9 Y2 111.0(5) . .
Y2 O9 Y2 107.9(5) 2_655 .
Y2 O9 Y2 107.9(5) 3_665 .
O8 C1 O4 125.4(15) . 4_664
O8 C1 O7 115.1(15) . 3_665
O4 C1 O7 119.5(14) 4_664 3_665
loop_
_geom_bond_atom_site_label_1
_geom_bond_atom_site_label_2
_geom_bond_distance
_geom_bond_site_symmetry_2
Y1 O5 2.290(11) 3_665
Y1 O4 2.345(13) .
Y1 O2 2.345(11) .
Y1 O6 2.381(11) 5_565
Y1 O3 2.382(10) 1_665
Y1 O1 2.433(11) 3_565
Y1 O6 2.436(11) 4_665
Y1 O1 2.437(11) .
Y1 Y3 3.738(4) 4_665
Y1 Y2 3.774(2) 3_665
Y1 Y2 3.7785(17) .
Y1 Y2 3.790(2) 2_665
Y2 O9 2.234(7) .
Y2 O5 2.330(10) .
Y2 O3 2.355(10) 3
Y2 O1 2.359(10) 3_565
Y2 O7 2.378(12) 3_665
Y2 O2 2.391(12) 2_655
Y2 O2 2.406(12) .
Y2 Y2 3.612(2) 2_655
Y2 Y2 3.612(2) 3_665
Y2 Y4 3.6378(15) .
Y2 Y3 3.676(4) .
Y2 Y1 3.774(2) 2_655
Y3 O9 2.228(19) .
Y3 O7 2.265(12) .
Y3 O7 2.265(12) 2_655
Y3 O7 2.265(12) 3_665
Y3 O6 2.279(11) .
Y3 O6 2.279(11) 2_655
Y3 O6 2.279(11) 3_665
Y3 Y2 3.676(4) 2_655
Y3 Y2 3.676(4) 3_665
Y3 Y1 3.738(4) 5_554
Y3 Y1 3.738(4) 4_664
Y4 O8 2.359(12) .
Y4 O8 2.359(12) 2
Y4 O8 2.359(12) 3
Y4 O3 2.414(11) .
Y4 O3 2.414(11) 3
Y4 O3 2.414(11) 2
Y4 O5 2.534(10) .
Y4 O5 2.534(10) 3
Y4 O5 2.534(10) 2
Y4 Y2 3.6378(15) 3
Y4 Y2 3.6379(15) 2
O1 Y2 2.359(10) 2_665
O1 Y1 2.433(11) 2_665
O2 Y2 2.391(12) 3_665
O3 Y2 2.355(10) 2
O3 Y1 2.382(10) 1_445
O4 C1 1.26(2) 4_665
O5 Y1 2.290(11) 2_655
O6 Y1 2.381(11) 6_654
O6 Y1 2.436(11) 4_664
O7 C1 1.329(17) 2_655
O7 Y2 2.378(12) 2_655
O8 C1 1.230(18) .
O9 Y2 2.234(7) 2_655
O9 Y2 2.234(7) 3_665
C1 O4 1.26(2) 4_664
C1 O7 1.329(17) 3_665
