#------------------------------------------------------------------------------
#$Date: 2019-10-29 23:17:51 +0200 (Tue, 29 Oct 2019) $
#$Revision: 220408 $
#$URL: file:///home/coder/svn-repositories/cod/cif/4/00/29/4002984.cif $
#------------------------------------------------------------------------------
#
# This file is available in the Crystallography Open Database (COD),
# http://www.crystallography.net/
#
# All data on this site have been placed in the public domain by the
# contributors.
#
data_4002984
loop_
_publ_author_name
'Nazarenko, Olga'
'Kotyrba, Martin R.'
'Yakunin, Sergii'
'W\"orle, Michael'
'Benin, Bogdan M.'
'Rain\`o, Gabriele'
'Krumeich, Frank'
'Kepenekian, Mika\"el'
'Even, Jacky'
'Katan, Claudine'
'Kovalenko, Maksym V.'
_publ_section_title
;
 Guanidinium and Mixed Cesium-Guanidinium Tin(II) Bromides: Effects of
 Quantum Confinement and Out-of-Plane Octahedral Tilting.
;
_journal_issue                   6
_journal_name_full
'Chemistry of materials : a publication of the American Chemical Society'
_journal_page_first              2121
_journal_page_last               2129
_journal_paper_doi               10.1021/acs.chemmater.9b00038
_journal_volume                  31
_journal_year                    2019
_chemical_formula_moiety         '0.25(Br16 Cs4 Sn4), 2(C0.5 H3 N1.5)'
_chemical_formula_sum            'C H6 Br4 Cs N3 Sn'
_chemical_formula_weight         631.33
_space_group_crystal_system      orthorhombic
_space_group_IT_number           74
_space_group_name_Hall           '-I 2b 2'
_space_group_name_H-M_alt        'I m m a'
_symmetry_space_group_name_Hall  '-I 2b 2'
_symmetry_space_group_name_H-M   'I m m a'
_atom_sites_solution_hydrogens   geom
_atom_sites_solution_primary     direct
_audit_creation_date             2018-11-16
_audit_creation_method
;
Olex2 1.2
(compiled 2018.05.29 svn.r3508 for OlexSys, GUI svn.r5506)
;
_cell_angle_alpha                90
_cell_angle_beta                 90
_cell_angle_gamma                90
_cell_formula_units_Z            4
_cell_length_a                   6.0112(10)
_cell_length_b                   11.5363(18)
_cell_length_c                   17.342(3)
_cell_measurement_reflns_used    2457
_cell_measurement_temperature    250
_cell_measurement_theta_max      30.634
_cell_measurement_theta_min      2.349
_cell_volume                     1202.6(3)
_computing_cell_refinement       'Bruker SAINT'
_computing_data_collection       'SMART v5.630 (Bruker, 2003)'
_computing_data_reduction        'Bruker SAINT'
_computing_molecular_graphics    'Olex2 (Dolomanov et al., 2009)'
_computing_publication_material  'Olex2 (Dolomanov et al., 2009)'
_computing_structure_refinement  'XL (Sheldrick, 2008)'
_computing_structure_solution    'ShelXS (Sheldrick, 2008)'
_diffrn_ambient_temperature      250
_diffrn_detector_area_resol_mean 7.9
_diffrn_detector_type            'CCD area detector'
_diffrn_measured_fraction_theta_full 1.000
_diffrn_measured_fraction_theta_max 0.956
_diffrn_measurement_device       'fixed chi three-circle diffractometer'
_diffrn_measurement_device_type  'Bruker SMART CCD'
_diffrn_measurement_method       '\w scans'
_diffrn_radiation_type           MoK\a
_diffrn_radiation_wavelength     0.71073
_diffrn_reflns_av_R_equivalents  0.0361
_diffrn_reflns_av_unetI/netI     0.0247
_diffrn_reflns_Laue_measured_fraction_full 1.000
_diffrn_reflns_Laue_measured_fraction_max 0.956
_diffrn_reflns_limit_h_max       8
_diffrn_reflns_limit_h_min       -8
_diffrn_reflns_limit_k_max       16
_diffrn_reflns_limit_k_min       -16
_diffrn_reflns_limit_l_max       25
_diffrn_reflns_limit_l_min       -25
_diffrn_reflns_number            7135
_diffrn_reflns_point_group_measured_fraction_full 1.000
_diffrn_reflns_point_group_measured_fraction_max 0.956
_diffrn_reflns_theta_full        25.242
_diffrn_reflns_theta_max         31.436
_diffrn_reflns_theta_min         2.120
_exptl_absorpt_coefficient_mu    18.348
_exptl_absorpt_correction_T_max  0.3400
_exptl_absorpt_correction_T_min  0.1656
_exptl_absorpt_correction_type   multi-scan
_exptl_absorpt_process_details
'SADABS-2014/5 (Bruker,2014/5) was used for absorption correction. wR2(int) was 0.1371 before and 0.0494 after correction. The Ratio of minimum to maximum transmission is 0.4871. The \l/2 correction factor is 0.00150.'
_exptl_crystal_colour            'clear orange'
_exptl_crystal_colour_lustre     clear
_exptl_crystal_colour_primary    orange
_exptl_crystal_density_diffrn    3.487
_exptl_crystal_description       plate
_exptl_crystal_F_000             1112
_exptl_crystal_recrystallization_method
'crystallized from hydrobromic acid (HBr, 48% water solution)'
_exptl_crystal_size_max          0.18
_exptl_crystal_size_mid          0.06
_exptl_crystal_size_min          0.02
_refine_diff_density_max         0.656
_refine_diff_density_min         -1.022
_refine_diff_density_rms         0.199
_refine_ls_extinction_coef       0.00437(17)
_refine_ls_extinction_expression Fc^*^=kFc[1+0.001xFc^2^\l^3^/sin(2\q)]^-1/4^
_refine_ls_extinction_method     'SHELXL-2014/7 (Sheldrick 2014'
_refine_ls_goodness_of_fit_ref   1.032
_refine_ls_hydrogen_treatment    constr
_refine_ls_matrix_type           full
_refine_ls_number_parameters     45
_refine_ls_number_reflns         1079
_refine_ls_number_restraints     0
_refine_ls_restrained_S_all      1.032
_refine_ls_R_factor_all          0.0279
_refine_ls_R_factor_gt           0.0227
_refine_ls_shift/su_max          0.001
_refine_ls_shift/su_mean         0.000
_refine_ls_structure_factor_coef Fsqd
_refine_ls_weighting_details
'w=1/[\s^2^(Fo^2^)+(0.0283P)^2^] where P=(Fo^2^+2Fc^2^)/3'
_refine_ls_weighting_scheme      calc
_refine_ls_wR_factor_gt          0.0512
_refine_ls_wR_factor_ref         0.0530
_reflns_Friedel_coverage         0.000
_reflns_number_gt                947
_reflns_number_total             1079
_reflns_threshold_expression     'I > 2\s(I)'
_cod_data_source_file            cm9b00038_si_003.cif
_cod_data_source_block           imma
_cod_database_code               4002984
_shelx_shelxl_version_number     2014/7
_shelx_space_group_comment
;
The symmetry employed for this shelxl refinement is uniquely defined
by the following loop, which should always be used as a source of
symmetry information in preference to the above space-group names.
They are only intended as comments.
;
_shelx_estimated_absorpt_t_max   0.710
_shelx_estimated_absorpt_t_min   0.137
_olex2_refinement_description
;
1. Fixed Uiso
 At 1.2 times of:
  All N(H,H) groups
2. Others
 Sof(Br3B)=0.25*(1-FVAR(2))
 Sof(Br3A)=0.25*FVAR(2)
 Fixed Sof: H1A(0.25) H1B(0.25)
3.a X=CH2 refined with riding coordinates:
 N1(H1A,H1B), N2(H2A,H2B)
;
_shelx_res_file
;
    imma.res created by SHELXL-2014/7

TITL Imma in Imma #74
REM reset to Imma #74
CELL 0.71073 6.0112 11.5363 17.3416 90 90 90
ZERR 4 0.001 0.0018 0.0027 0 0 0
LATT 2
SYMM -X,0.5-Y,+Z
SYMM +X,-Y,-Z
SYMM -X,0.5+Y,-Z
SFAC C H Br Cs N Sn
UNIT 4 24 16 4 12 4

L.S. 100
PLAN  20
SIZE 0.18 0.06 0.02
TEMP -23.15
BOND
HTAB
BOND $H
fmap 2
acta
REM <olex2.extras>
REM <HklSrc "%.\\imma.hkl">
REM </olex2.extras>

WGHT    0.028300
EXTI    0.004365
FVAR       0.19919   0.55604
CS1   4    0.000000    0.750000    0.356107    10.25000    0.04009    0.03438 =
         0.04732    0.00000    0.00000    0.00000
SN1   6    0.500000    0.500000    0.500000    10.25000    0.01913    0.01761 =
         0.02320   -0.00133    0.00000    0.00000
BR1   3    0.500000    0.445529    0.667068    10.50000    0.04237    0.03708 =
         0.03291   -0.00420    0.00000    0.00000
BR2   3    0.000000    0.500000    0.500000    10.25000    0.04477    0.05849 =
         0.02997   -0.00459    0.00000    0.00000
BR3A  3    0.500000    0.250000    0.478097    20.25000    0.08926    0.02987 =
         0.02588    0.00000    0.00000    0.00000
BR3B  3    0.554169    0.250000    0.469824   -20.25000    0.06721    0.03843 =
         0.02883    0.00000    0.01005    0.00000
N1    5    1.000000    0.250000    0.216483    10.25000    0.03000    0.05729 =
         0.02684    0.00000    0.00000    0.00000
AFIX  93
H1A   2    1.000000    0.184689    0.191399    10.25000   -1.20000
H1B   2    1.000000    0.315311    0.191399    10.25000   -1.20000
AFIX   0
N2    5    1.000000    0.349701    0.328476    10.50000    0.04778    0.04878 =
         0.05416   -0.02337    0.00000    0.00000
AFIX  93
H2A   2    1.000000    0.351549    0.378629    10.50000   -1.20000
H2B   2    1.000000    0.414068    0.302334    10.50000   -1.20000
AFIX   0
C1    1    1.000000    0.250000    0.292321    10.25000    0.01975    0.03140 =
         0.02427    0.00000    0.00000    0.00000
HKLF 4

REM  Imma in Imma #74
REM R1 =  0.0227 for     947 Fo > 4sig(Fo)  and  0.0279 for all    1079 data
REM     45 parameters refined using      0 restraints

END

WGHT      0.0283      0.0000

REM Instructions for potential hydrogen bonds
EQIV $1 x+1/2, y-1/2, z-1/2
HTAB N1 Br1_$1
EQIV $2 -x+3/2, -y+1, z-1/2
HTAB N1 Br1_$2
EQIV $3 x+1, y, z
HTAB N2 Br2_$3
HTAB N2 Br1_$2

REM Highest difference peak  0.656,  deepest hole -1.022,  1-sigma level  0.199
Q1    1   0.5000  0.3963  0.6525  10.50000  0.05    0.66
Q2    1   0.3688  0.4603  0.6712  11.00000  0.05    0.52
Q3    1   0.3833  0.5054  0.5259  11.00000  0.05    0.51
Q4    1   0.2524  0.6610  0.3402  11.00000  0.05    0.48
Q5    1   0.0000  0.7500  0.4021  10.25000  0.05    0.47
Q6    1   0.7490  0.2500  0.4135  10.50000  0.05    0.46
Q7    1   0.7452  0.3531  0.7021  11.00000  0.05    0.44
Q8    1   0.2556  0.4394  0.4621  11.00000  0.05    0.44
Q9    1   0.5000  0.5729  0.5032  10.50000  0.05    0.43
Q10   1   0.1517  0.6783  0.4211  11.00000  0.05    0.42
Q11   1   1.2559  0.3797  0.3394  11.00000  0.05    0.42
Q12   1   1.1975  0.3783  0.2304  11.00000  0.05    0.40
Q13   1   0.2787  0.4241  0.7190  11.00000  0.05    0.40
Q14   1   0.7618  0.3463  0.5496  11.00000  0.05    0.40
Q15   1   1.2252  0.3150  0.3015  11.00000  0.05    0.40
Q16   1   0.2447  0.4033  0.5109  11.00000  0.05    0.39
Q17   1   0.1131  0.7500  0.3429  10.50000  0.05    0.39
Q18   1   0.3456  0.3765  0.5809  11.00000  0.05    0.38
Q19   1   0.3080  0.3775  0.7451  11.00000  0.05    0.37
Q20   1   1.2632  0.4461  0.2988  11.00000  0.05    0.37
;
_shelx_res_checksum              89653
_shelx_hkl_file
;
  -2   0   0 9939.27 360.109   3
  -2   0   0 9999.99 366.421   1
  -2   0   0 9717.87 361.641   2
  -4   0   0 6256.01 226.912   1
  -4   0   0 6422.62 227.343   2
  -4   0   0 6077.46 236.053   3
   6   0   0 2132.93 75.8289   2
  -6   0   0 2146.99 87.4950   3
   6   0   0 1703.82 74.7236   1
   8   0   0 524.071 25.9420   2
   1   1   0 0.82027 0.74970   1
  -1   1   0 0.46178 0.64782   2
  -1   1   0 1.28578 1.71568   3
  -1   1   0 -0.3398 0.77507   1
  -1  -1   0 0.06528 0.50107   1
  -1  -1   0 0.59487 1.26278   3
  -3  -1   0 1.08157 3.00296   3
  -3   1   0 -1.3077 3.76715   3
  -3  -1   0 -2.8304 1.25099   2
   3   1   0 -2.1004 0.87748   1
  -3   1   0 2.98941 1.62853   1
  -3   1   0 -0.3589 1.24475   2
  -5   1   0 -3.6666 1.80927   1
  -5   1   0 -2.4363 4.72000   3
   5   1   0 -1.7181 2.20074   2
  -5  -1   0 6.11148 6.83503   3
   5   1   0 -2.3898 1.69381   1
  -7   1   0 2.86639 8.50607   3
  -7  -1   0 4.57389 7.78914   3
   7  -1   0 2.49376 3.68646   2
   7   1   0 0.98873 4.01898   2
   0   2   0 556.039 20.6465   2
   0  -2   0 533.072 21.2481   3
   0   2   0 563.335 20.9245   1
   2   2   0 535.814 21.2552   1
  -2   2   0 545.617 23.6358   3
  -2  -2   0 534.358 22.8117   3
  -2   2   0 541.171 20.8427   2
  -2   2   0 538.892 21.6192   1
   2   2   0 559.628 21.4864   2
  -4   2   0 495.352 20.7131   1
  -4   2   0 413.180 25.7277   3
   4   2   0 487.237 20.6113   2
   4   2   0 501.039 20.1489   1
  -4   2   0 470.518 19.7679   2
  -4  -2   0 456.795 25.4380   3
   6   2   0 238.597 14.0966   2
  -6   2   0 250.510 19.9323   3
   6  -2   0 233.071 13.0809   2
  -6  -2   0 273.428 22.1936   3
  -6   2   0 252.866 13.7526   1
   8  -2   0 86.9945 12.0390   2
  -8  -2   0 101.105 17.7761   3
   8   2   0 80.4082 10.2204   2
  -1  -3   0 0.80267 1.53660   3
  -1   3   0 0.33974 0.85109   2
   1   3   0 0.48714 1.05062   2
  -1   3   0 2.15309 1.35754   1
   1   3   0 -0.2075 0.71238   1
   1  -3   0 -0.5280 1.49335   3
  -3  -3   0 1.81582 2.55087   3
  -3   3   0 0.68606 1.67329   1
   3   3   0 0.19247 1.61825   2
   3  -3   0 -0.8198 2.35910   3
   3   3   0 0.45956 1.73110   1
  -3   3   0 4.10026 1.53601   2
  -5   3   0 -1.5858 2.17093   1
  -5  -3   0 -0.4261 4.44624   3
   5   3   0 0.50509 2.75354   2
  -5   3   0 -2.9887 3.64886   3
  -5   3   0 2.43157 2.09392   2
   7  -3   0 -5.8868 5.46994   3
   7  -3   0 1.57178 3.03536   2
  -7  -3   0 5.84836 7.52718   3
   7   3   0 1.42074 3.87790   2
   0   4   0 6485.29 237.990   1
   0   4   0 6524.58 237.515   2
   0  -4   0 6797.23 238.804   3
  -2  -4   0 5941.02 218.975   3
   2   4   0 5930.42 216.099   1
   2   4   0 5885.12 217.502   2
  -2   4   0 6185.21 216.364   2
   2  -4   0 6053.95 219.037   3
  -2   4   0 6067.80 218.085   1
   4   4   0 2889.13 106.830   1
   4   4   0 2949.59 108.720   2
   4  -4   0 2837.36 111.862   3
  -4  -4   0 2903.56 112.220   3
  -4   4   0 2955.41 107.095   2
  -4   4   0 2986.25 109.152   1
   6  -4   0 904.784 43.8005   3
   6  -4   0 923.531 37.2798   2
  -6  -4   0 960.551 47.8645   3
   6   4   0 901.946 39.0936   2
  -6   4   0 939.117 39.3954   1
  -8  -4   0 277.586 28.9847   3
   8   4   0 214.684 15.7280   2
   1   5   0 2.40063 1.17766   1
   1  -5   0 0.83263 1.83454   3
   1   5   0 0.37959 1.27926   2
  -1   5   0 -1.0262 1.07166   2
  -1  -5   0 -1.6575 1.46232   3
  -1   5   0 -1.9504 1.21528   1
  -3   5   0 0.73186 1.13527   2
  -3   5   0 -0.6223 1.79752   1
   3   5   0 -0.8193 1.72888   2
  -3  -5   0 1.65792 2.47080   3
   3   5   0 1.08244 0.78985   1
   3  -5   0 1.51311 2.56831   3
   5  -5   0 3.36985 3.95210   3
   5   5   0 4.86946 3.12643   2
  -5   5   0 -1.0784 2.53086   1
  -5  -5   0 4.79586 4.00618   3
  -7   5   0 0.27011 3.70300   1
   7   5   0 4.73046 3.85536   2
  -7  -5   0 2.83942 6.48841   3
   7  -5   0 2.09710 4.56426   3
   0   6   0 315.526 13.6617   1
   0  -6   0 305.512 14.7682   3
   0   6   0 312.594 13.0778   2
   2   6   0 153.843 8.04008   2
  -2  -6   0 146.616 9.48134   3
  -2   6   0 134.877 6.47509   2
   2   6   0 140.685 6.61103   1
  -2   6   0 134.162 8.25337   1
   2  -6   0 168.421 9.56880   3
   4  -6   0 15.5057 4.63490   3
  -4   6   0 6.78794 3.39117   1
   4   6   0 5.30912 3.19176   2
  -4  -6   0 22.1608 5.64257   3
   6  -6   0 4.25286 5.02996   3
  -6   6   0 7.70402 4.09556   1
  -6  -6   0 12.1491 6.24805   3
   6   6   0 1.56666 3.24281   2
  -8  -6   0 19.9797 9.80882   3
  -1  -7   0 3.01166 2.25195   3
  -1   7   0 -1.7669 1.26118   2
   1   7   0 1.81954 1.53803   2
   1   7   0 0.79623 1.22182   1
  -1   7   0 0.18364 1.59806   1
   1  -7   0 -1.5077 1.85730   3
  -3   7   0 0.29126 2.10949   1
   3  -7   0 0.55376 3.05008   3
   3   7   0 -0.0714 0.84028   1
  -3  -7   0 1.00111 2.97209   3
   3   7   0 0.67095 2.10702   2
   5  -7   0 0.44145 3.69149   3
  -5  -7   0 -3.3055 3.98669   3
  -5   7   0 0.15961 3.00978   1
   5   7   0 -3.1225 2.18069   2
   7   7   0 -7.8443 3.21299   2
  -7   7   0 1.24062 4.42145   1
  -7  -7   0 2.50382 7.12996   3
   7  -7   0 -2.9287 4.70709   3
   0   8   0 1856.89 67.3947   1
   0  -8   0 1634.29 68.6858   3
   0   8   0 1852.45 66.5641   2
   2   8   0 1393.37 51.6201   1
  -2  -8   0 1362.89 55.2297   3
   2  -8   0 1398.04 55.1059   3
   2   8   0 1357.58 52.8481   2
  -2   8   0 1366.30 53.9587   1
  -4  -8   0 598.017 29.3889   3
   4   8   0 573.689 26.3694   2
  -4   8   0 591.546 27.4840   1
   4  -8   0 626.822 28.6753   3
   6  -8   0 220.024 15.8548   3
  -6   8   0 201.513 14.4505   1
  -6  -8   0 178.378 19.4055   3
   6   8   0 202.703 13.6654   2
   1   9   0 -0.7885 1.56540   1
  -1   9   0 2.39829 2.25345   1
   1   9   0 1.24935 1.95326   2
   1  -9   0 1.57457 2.83522   3
  -1  -9   0 -1.8990 2.72727   3
   3   9   0 2.67240 2.85248   2
  -3  -9   0 4.47655 3.97215   3
  -3   9   0 0.73807 2.61795   1
   3  -9   0 -1.0908 3.36849   3
   5  -9   0 -2.9858 3.67079   3
  -5   9   0 -4.3825 2.70476   1
  -5  -9   0 -2.7984 3.65133   3
   5   9   0 -3.3913 2.70275   2
  -7  -9   0 11.0285 7.04441   3
  -7   9   0 8.14870 5.27712   1
   0  10   0 491.200 20.8559   2
   0  10   0 459.390 21.2570   1
   0 -10   0 490.867 23.7063   3
   2  10   0 284.047 14.2388   2
  -2  10   0 263.588 15.0971   1
  -2 -10   0 273.907 16.6144   3
   2  10   0 292.924 13.5099   1
   2 -10   0 261.972 16.1647   3
   4  10   0 70.6222 7.87035   2
  -4  10   0 63.3657 7.93845   1
  -4 -10   0 74.5812 10.5530   3
   4 -10   0 66.1258 9.19631   3
  -6  10   0 5.03739 5.01277   1
  -6 -10   0 -2.6915 5.29359   3
   6 -10   0 0.30582 4.81931   3
   6  10   0 4.24222 4.33506   2
   1  11   0 -2.6815 2.18948   2
  -1 -11   0 -1.7247 3.24658   3
   1  11   0 -0.7491 2.15712   1
   1 -11   0 -2.3882 3.23695   3
  -1  11   0 -2.9133 2.46800   1
   3  11   0 0.26542 2.83639   2
  -3  11   0 1.21693 3.15647   1
  -3 -11   0 -1.4324 3.28954   3
   3 -11   0 15.9636 5.56840   3
   5 -11   0 6.19354 5.36651   3
  -5 -11   0 5.79083 5.40895   3
   5  11   0 -1.0752 3.11869   2
  -5  11   0 0.50502 3.18513   1
   0 -12   0 819.985 37.2955   3
   0  12   0 797.661 34.3917   1
  -2 -12   0 600.671 30.6170   3
   2  12   0 595.177 27.3542   2
   2 -12   0 641.527 30.3010   3
  -2  12   0 632.807 28.9265   1
   4 -12   0 312.826 20.0052   3
  -4  12   0 323.391 19.3967   1
   4  12   0 338.003 18.1706   2
  -4 -12   0 310.603 21.1217   3
   6 -12   0 94.2209 13.4360   3
  -1 -13   0 -5.3928 3.94565   3
  -1  13   0 2.37760 3.18472   1
   1 -13   0 -3.0342 4.46444   3
  -3  13   0 2.95509 3.49406   1
   3 -13   0 -2.8197 4.24784   3
  -3 -13   0 -0.6143 4.35050   3
   5  13   0 -3.9991 3.58289   2
   5 -13   0 -0.8171 5.29412   3
   0 -14   0 -1.3718 4.63324   3
   0  14   0 3.36171 3.31832   1
  -2 -14   0 4.41023 5.14300   3
  -2  14   0 2.49523 4.13389   1
   2 -14   0 1.24297 4.84798   3
  -4 -14   0 11.1462 6.83324   3
  -4  14   0 7.83845 5.53249   1
   4 -14   0 16.6643 6.85111   3
  -1 -15   0 -0.4443 5.21561   3
  -1  15   0 -2.7598 3.41538   1
   1 -15   0 4.71905 5.38130   3
  -3  15   0 -0.6378 4.32845   1
   3 -15   0 -0.8224 5.18189   3
   0 -16   0 438.471 27.0440   3
  -2  16   0 363.254 21.8420   1
   1   0   1 898.428 32.6936   1
  -1   0   1 938.152 32.4265   1
  -1   0   1 813.255 34.9976   3
  -1   0  -1 928.719 32.7115   2
  -1   0  -1 771.289 33.6717   3
   1   0  -1 945.141 32.5291   2
  -3   0  -1 320.097 13.8885   2
   3   0  -1 340.107 13.7897   2
  -3   0  -1 277.944 18.3588   3
  -3   0   1 321.423 13.4223   1
  -3   0  -1 312.765 13.7315   1
  -3   0   1 350.561 20.2239   3
  -5   0   1 86.7479 6.34690   1
  -5   0  -1 91.7701 7.10439   2
  -5   0   1 113.978 15.8630   3
   5   0  -1 85.6871 6.78622   2
   5   0   1 100.980 7.04043   1
  -5   0  -1 96.1285 14.1555   3
  -7   0  -1 53.7594 11.8261   3
   7   0  -1 43.9607 6.59090   2
  -7   0   1 37.1603 11.2274   3
   7   0   1 35.3027 6.23848   2
   0  -1  -1 618.899 23.6618   3
   0   1   1 643.984 23.1914   2
   0   1   1 651.562 23.6008   1
   0  -1  -1 639.113 23.1872   2
   0   1  -1 640.566 23.4268   1
   0  -1   1 641.690 23.5464   3
  -2  -1  -1 470.534 20.5633   3
  -2  -1  -1 496.793 19.0546   2
   2   1  -1 472.462 18.8049   2
  -2   1   1 478.837 18.8358   1
  -2   1   1 477.760 18.4888   2
   2   1   1 473.279 18.7413   1
  -2   1  -1 478.214 19.0269   1
  -2  -1   1 482.182 18.0752   1
  -2   1  -1 491.368 18.7647   2
  -2  -1   1 470.426 21.4209   3
  -4   1   1 234.744 11.5086   1
   4   1  -1 227.147 10.7430   1
   4   1  -1 247.397 11.7442   2
  -4  -1  -1 254.823 12.0177   2
  -4   1   1 210.489 17.7621   3
  -4  -1  -1 244.799 17.4449   3
  -4   1  -1 238.945 11.7503   1
  -4   1  -1 227.472 17.1321   3
   4   1   1 236.140 11.4997   1
   4  -1  -1 249.910 11.3786   2
  -4   1  -1 244.337 11.6098   2
  -4  -1   1 253.972 17.9056   3
  -6  -1  -1 86.8336 14.9128   3
   6  -1   1 72.2435 7.60826   1
  -6   1   1 74.2592 13.6830   3
   6   1  -1 93.9168 8.59652   2
   6  -1   1 94.0249 8.40381   2
  -6   1  -1 74.2685 12.6622   3
   6   1   1 92.7138 8.48488   2
   6  -1  -1 85.2931 7.88941   2
  -6  -1   1 85.9159 15.3585   3
   8  -1   1 19.0533 5.57450   2
  -8   1   1 33.5448 10.7565   3
   8   1  -1 13.7845 5.77949   2
  -8  -1   1 22.2586 10.1733   3
   8   1   1 16.8774 5.88780   2
   8  -1  -1 21.7409 5.57283   2
   1   2  -1 979.090 36.5474   2
  -1  -2  -1 924.824 37.0053   3
   1   2  -1 983.060 35.5383   1
   1  -2   1 988.860 36.9070   3
  -1   2   1 1019.98 35.7387   2
  -1  -2  -1 999.857 36.5502   2
  -1   2   1 994.271 36.7924   1
  -1   2  -1 967.252 36.8330   1
   1   2   1 1017.22 36.5929   1
  -1  -2   1 982.508 37.3212   3
   1  -2  -1 957.812 37.5942   3
   1  -2  -1 978.030 35.9343   2
  -1   2  -1 998.146 36.4087   2
  -3  -2  -1 800.039 31.3255   2
   3   2  -1 795.578 30.1207   1
  -3   2   1 780.877 30.4014   2
  -3  -2  -1 810.064 33.8947   3
  -3   2   1 812.920 31.3088   1
  -3   2   1 672.674 35.5473   3
   3   2  -1 813.056 31.2327   2
  -3   2  -1 810.456 31.5290   1
  -3   2  -1 817.332 30.8579   2
   3   2   1 834.600 31.5020   1
  -3   2  -1 757.460 34.2628   3
  -3  -2   1 834.317 34.8026   3
  -5  -2  -1 499.414 29.1909   3
  -5   2   1 450.751 21.7852   1
   5   2  -1 506.098 22.3049   2
   5   2  -1 531.967 21.5920   1
  -5   2   1 481.198 29.9889   3
   5   2   1 518.827 22.4740   1
  -5   2  -1 472.594 22.0801   1
   5   2   1 502.263 22.3393   2
  -5  -2   1 519.556 30.1785   3
  -5   2  -1 484.813 21.4188   2
  -5   2  -1 483.824 28.0060   3
   5  -2  -1 519.894 21.3960   2
   7   2  -1 235.287 14.6373   2
   7  -2   1 237.772 13.8080   2
  -7  -2  -1 208.490 23.7600   3
  -7   2   1 258.442 25.2216   3
  -7  -2   1 214.026 24.1985   3
  -7   2  -1 255.122 19.7718   3
   7  -2  -1 225.110 13.2528   2
   7   2   1 213.934 14.4010   2
   0   3   1 199.318 8.84889   1
   0   3  -1 203.807 8.68978   1
   0   3   1 207.823 8.21576   2
   0  -3  -1 212.975 9.47767   3
   0   3  -1 215.161 8.70142   2
  -2  -3  -1 106.150 6.70684   3
  -2   3   1 109.799 6.10354   1
  -2   3   1 93.6536 4.78638   2
   2   3  -1 104.645 5.94978   2
   2  -3   1 105.911 6.67133   3
   2  -3  -1 106.253 7.59303   3
   2   3   1 108.434 5.94143   2
  -2  -3   1 95.0839 6.74816   3
   2   3   1 123.937 5.90188   1
  -2   3  -1 105.761 5.30791   2
   4   3  -1 26.3848 4.02316   2
  -4   3   1 23.8689 3.85560   1
   4   3  -1 23.3432 3.55302   1
  -4  -3  -1 29.2154 5.88998   3
  -4   3   1 28.3154 3.32961   2
  -4   3   1 25.9112 6.68829   3
  -4  -3   1 30.1853 6.70676   3
   4   3   1 26.5474 4.22197   2
  -4   3  -1 23.1644 3.83242   1
   4   3   1 33.2693 5.16121   1
  -4   3  -1 33.7666 3.95313   2
  -6   3   1 4.55893 7.04558   3
  -6  -3  -1 11.4465 7.49544   3
  -6   3   1 4.55288 3.53452   1
   6   3  -1 10.8383 3.95428   2
  -6   3  -1 5.63233 2.95495   2
  -6   3  -1 3.03908 3.15367   1
  -6  -3   1 2.10748 7.09568   3
   6   3   1 6.19585 4.04706   2
   6  -3  -1 7.21156 2.79246   2
   8   3  -1 1.84909 4.61337   2
   8  -3  -1 3.72189 6.28628   3
  -8  -3   1 -3.7880 7.80707   3
   8   3   1 3.45982 4.88993   2
   1   4  -1 320.498 13.2489   2
  -1   4   1 314.987 13.6597   1
  -1  -4  -1 316.251 14.0899   3
   1   4  -1 309.477 12.4336   1
  -1   4   1 323.637 12.1632   2
   1  -4   1 325.903 13.8917   3
   1   4   1 323.551 12.9285   1
  -1  -4   1 327.455 14.3064   3
   1   4   1 317.236 13.0341   2
  -1   4  -1 318.806 13.0382   2
  -1   4  -1 285.314 13.4557   1
   1  -4  -1 325.485 14.4240   3
   3   4  -1 99.9126 6.45905   2
  -3   4   1 95.1616 4.93246   2
   3  -4   1 94.2917 7.33527   3
  -3   4   1 88.4148 6.44171   1
  -3  -4  -1 82.0732 7.27827   3
  -3  -4   1 95.6197 8.00252   3
   3   4   1 99.3804 5.59073   1
  -3   4  -1 102.523 6.67260   1
  -3   4  -1 94.3772 5.32508   2
   3  -4  -1 92.9953 9.43996   3
   3   4   1 85.3933 6.01136   2
  -5  -4  -1 29.1723 7.78818   3
  -5   4   1 15.7134 4.05683   1
   5  -4   1 24.6930 5.88566   3
   5   4  -1 20.1082 4.44354   2
  -5  -4   1 16.1104 6.15882   3
   5  -4  -1 16.1992 6.50689   3
  -5   4  -1 19.6264 3.44006   2
   5   4   1 16.5994 4.26411   2
  -5   4  -1 23.7630 4.72424   1
  -7  -4  -1 20.0487 9.03550   3
   7   4  -1 14.3193 4.97420   2
   7  -4   1 18.2658 6.43345   3
  -7  -4   1 8.76812 8.57688   3
   7  -4  -1 23.7994 7.86341   3
   7   4   1 22.8494 5.87989   2
   0   5  -1 2401.26 89.7969   2
   0  -5  -1 2413.91 91.2102   3
   0   5  -1 2398.40 89.9891   1
   0   5   1 2445.58 89.3063   2
   0   5   1 2588.61 90.3913   1
   0  -5   1 2512.16 91.0987   3
  -2   5   1 1826.72 70.3217   1
   2   5  -1 1862.37 69.9068   2
  -2   5   1 1903.87 68.0903   2
  -2  -5  -1 1864.29 71.4212   3
   2  -5   1 1841.28 70.8204   3
   2   5  -1 1864.58 68.0568   1
  -2  -5   1 1837.14 71.4656   3
   2   5   1 1875.56 68.7986   1
   2  -5  -1 1887.71 71.6848   3
  -2   5  -1 1917.33 70.5979   1
  -2   5  -1 1902.77 68.9307   2
   2   5   1 1928.30 69.8752   2
   4  -5   1 829.772 35.1565   3
  -4  -5  -1 835.727 36.1218   3
   4   5  -1 756.194 32.8372   2
  -4   5   1 792.528 33.5690   1
  -4   5   1 825.552 30.9304   2
   4   5   1 800.815 33.1194   2
  -4  -5   1 767.482 36.1684   3
  -4   5  -1 792.494 31.4309   2
   4  -5  -1 804.742 36.4908   3
  -4   5  -1 823.716 33.7376   1
   4   5   1 815.403 31.4572   1
  -6  -5  -1 262.598 20.1932   3
  -6   5   1 237.429 14.2441   1
   6   5  -1 221.580 13.8889   2
   6  -5   1 229.808 16.1239   3
  -6  -5   1 183.019 20.0145   3
  -6   5  -1 218.925 14.3382   1
   6   5   1 224.564 14.1352   2
   6  -5  -1 238.336 17.7513   3
  -8  -5  -1 42.1997 19.5469   3
   8   5  -1 43.0940 8.75600   2
   8  -5  -1 31.1136 9.13090   3
  -8  -5   1 31.4311 11.8796   3
  -1  -6  -1 13.1519 3.25897   3
  -1   6   1 16.6929 2.05295   2
   1   6  -1 13.6860 2.12819   1
  -1   6   1 19.8086 3.21778   1
   1   6  -1 12.4158 2.40853   2
   1  -6   1 17.8836 3.42696   3
  -1   6  -1 14.8079 2.74705   1
   1   6   1 15.8581 2.46732   1
   1  -6  -1 17.5370 3.73567   3
   1   6   1 13.9472 2.42989   2
  -1  -6   1 9.88508 3.14902   3
  -1   6  -1 13.1184 2.32796   2
   3  -6   1 69.4769 7.11477   3
  -3  -6  -1 75.3212 8.17569   3
  -3   6   1 69.2787 3.82740   2
   3  -6  -1 69.8542 7.98277   3
   3   6   1 54.6095 5.63944   2
  -3  -6   1 64.8079 7.79326   3
  -3   6  -1 64.7079 4.23996   2
   3   6   1 70.0270 4.00577   1
  -3   6  -1 52.5122 5.98318   1
  -5   6   1 88.0356 9.03370   1
   5   6  -1 101.164 9.26972   2
   5  -6   1 84.2483 10.0463   3
  -5  -6  -1 123.648 13.7910   3
  -5   6  -1 111.448 9.11721   1
   5   6   1 99.3911 9.18693   2
  -5  -6   1 90.2333 11.9318   3
   5  -6  -1 115.594 12.6911   3
   7  -6   1 75.9732 10.9116   3
  -7  -6  -1 77.1248 14.7562   3
   7   6  -1 57.9919 8.22360   2
  -7   6   1 65.7640 9.12595   1
   7   6   1 85.8251 9.83861   2
   7  -6  -1 61.1799 11.0672   3
  -7  -6   1 83.1418 15.5134   3
  -7   6  -1 65.6620 8.99005   1
   0   7   1 7.68140 2.30053   1
   0  -7  -1 11.0138 3.29150   3
   0   7  -1 9.90282 2.21629   1
   0   7  -1 7.98536 2.07638   2
   0   7   1 10.1947 1.99525   2
   0  -7   1 18.4182 3.81982   3
   2   7  -1 3.39423 2.14514   2
  -2  -7  -1 9.90244 3.18108   3
  -2   7   1 5.78415 1.17647   2
   2   7  -1 4.79969 1.35674   1
   2  -7   1 7.77845 3.22331   3
  -2   7   1 3.49456 2.25955   1
   2  -7  -1 5.54925 3.07866   3
  -2   7  -1 8.82737 1.88642   2
  -2  -7   1 5.89141 3.10551   3
   2   7   1 5.60096 2.30205   2
  -2   7  -1 2.29096 2.03878   1
   2   7   1 6.30685 1.68684   1
  -4  -7  -1 -1.2843 3.15570   3
  -4   7   1 0.73733 2.79121   1
   4   7  -1 -1.7279 2.26468   2
   4  -7   1 -2.6447 2.87627   3
  -4  -7   1 -1.2239 3.16479   3
   4  -7  -1 -1.8483 3.20575   3
  -4   7  -1 0.52800 2.87908   1
   4   7   1 2.15433 2.71909   2
  -6   7   1 1.78073 3.50572   1
   6  -7   1 3.41334 4.09365   3
  -6  -7  -1 -0.7869 4.85941   3
   6   7  -1 -3.8349 3.15642   2
  -6   7  -1 -1.4101 3.43647   1
   6   7   1 -0.5235 3.27397   2
  -6  -7   1 -11.012 4.33086   3
   6  -7  -1 1.98677 5.14459   3
  -1  -8  -1 3.02905 2.88752   3
  -1   8   1 -1.0701 1.73817   1
   1   8  -1 -0.0885 1.34956   1
  -1   8   1 1.50883 1.39795   2
   1  -8   1 0.18431 2.26241   3
   1   8  -1 -0.6886 1.65981   2
   1   8   1 0.25547 1.63960   1
   1  -8  -1 -2.3000 2.61623   3
   1   8   1 0.62934 1.57970   2
  -1   8  -1 0.08460 1.91986   1
  -1   8  -1 1.63796 1.70478   2
  -1  -8   1 -0.9053 2.49038   3
  -3   8   1 2.76500 2.68476   1
  -3  -8  -1 4.46695 3.75809   3
   3   8  -1 8.15320 3.07128   2
   3  -8   1 4.30268 3.14780   3
  -3  -8   1 5.20770 3.56748   3
   3  -8  -1 2.40104 3.41731   3
  -3   8  -1 3.00830 2.67908   1
   3   8   1 4.04179 2.78590   2
   5  -8   1 0.32384 3.53009   3
   5   8  -1 1.51782 3.54142   2
  -5  -8  -1 4.54818 5.40430   3
  -5   8   1 3.52188 3.79130   1
  -5  -8   1 4.95900 5.28341   3
  -5   8  -1 1.50324 3.46997   1
   5   8   1 -1.0638 3.05594   2
   5  -8  -1 1.41882 4.08725   3
  -7   8   1 2.46681 4.22745   1
   7   8  -1 -2.3284 3.67087   2
  -7  -8  -1 14.6374 7.82383   3
  -7   8  -1 -4.9783 3.85632   1
   7   8   1 -5.3187 3.16016   2
   7  -8  -1 -1.8528 5.28803   3
  -7  -8   1 3.43319 6.48592   3
   0   9   1 95.1545 6.95491   1
   0  -9   1 95.1255 8.27176   3
   0   9  -1 90.8306 6.68832   1
   0   9  -1 111.167 6.81815   2
   0   9   1 101.753 6.20905   2
   0  -9  -1 92.7504 8.07832   3
   2  -9   1 83.8256 8.76638   3
   2   9  -1 72.1807 6.79372   2
  -2  -9  -1 65.1396 8.26221   3
  -2   9   1 75.2071 7.70502   1
   2   9  -1 78.2031 5.09855   1
   2   9   1 81.4109 6.21362   2
  -2  -9   1 82.0866 9.41896   3
   2  -9  -1 61.3331 7.67951   3
  -2   9  -1 85.8188 8.28982   1
   2   9   1 84.9855 5.58400   1
   4   9  -1 38.9947 5.95539   2
   4  -9   1 45.0170 7.17058   3
  -4  -9  -1 46.6310 8.25096   3
   4  -9  -1 30.4265 6.72111   3
  -4   9  -1 57.6641 7.56224   1
   4   9   1 34.7473 5.35664   2
  -4  -9   1 24.5225 6.65335   3
   6   9  -1 11.9514 4.85421   2
   6  -9   1 7.71338 5.16677   3
  -6  -9  -1 23.2396 7.72910   3
  -6   9   1 15.2551 5.61932   1
   6  -9  -1 12.3041 6.27694   3
  -6  -9   1 21.3453 7.49262   3
  -6   9  -1 13.7248 5.30596   1
   6   9   1 12.3215 4.92831   2
   1  10  -1 9.52369 3.21281   2
  -1  10   1 11.8462 3.68508   1
   1  10  -1 14.9493 3.24503   1
   1 -10   1 6.47234 4.08609   3
  -1 -10  -1 16.6295 4.68104   3
   1  10   1 12.4487 3.11620   2
  -1  10  -1 16.0775 3.80091   1
   1  10   1 10.9954 2.93304   1
   1 -10  -1 8.89608 4.07659   3
  -1 -10   1 15.2097 4.87411   3
  -3  10   1 30.2773 5.64325   1
   3  10  -1 45.0676 5.86109   2
   3 -10   1 46.5258 7.35609   3
  -3 -10  -1 46.6710 7.99335   3
   3 -10  -1 38.6408 7.43148   3
   3  10   1 40.9126 5.78556   2
  -3 -10   1 30.6869 6.86508   3
  -3  10  -1 33.6817 6.23722   1
   5 -10   1 65.9749 9.28047   3
  -5  10   1 58.6834 8.59761   1
  -5 -10  -1 75.4432 11.4711   3
   5  10  -1 58.6607 7.92961   2
  -5 -10   1 61.5606 10.3671   3
   5 -10  -1 61.6893 10.0073   3
   5  10   1 52.6136 7.31893   2
  -5  10  -1 38.5151 7.01374   1
   0 -11   1 190.446 12.9655   3
   0  11  -1 181.245 10.8472   1
   0  11   1 188.114 11.1907   1
   0 -11  -1 183.238 13.3127   3
  -2 -11  -1 148.311 12.2595   3
  -2  11   1 162.833 11.3910   1
   2 -11   1 150.262 11.6264   3
   2  11  -1 153.919 10.1039   2
   2  11   1 146.032 9.63080   2
  -2  11  -1 146.648 10.6921   1
  -2 -11   1 139.708 11.7223   3
   2 -11  -1 142.390 12.1195   3
   4 -11   1 88.3053 10.7131   3
  -4  11   1 89.1599 10.2579   1
  -4 -11  -1 69.4542 10.6272   3
   4  11  -1 87.5142 8.99985   2
  -4 -11   1 98.4268 12.4478   3
  -4  11  -1 69.0739 9.21019   1
   4  11   1 76.9849 8.62832   2
   4 -11  -1 107.740 12.3276   3
  -6 -11  -1 39.3049 10.1492   3
  -6  11   1 30.5375 6.99187   1
   6  11  -1 21.8342 6.06576   2
   6 -11  -1 24.3900 7.56078   3
   6  11   1 14.4051 5.56972   2
  -6 -11   1 26.8233 9.11498   3
  -6  11  -1 34.0789 7.73607   1
  -1  12   1 21.2521 4.79437   1
  -1 -12  -1 30.6748 6.78004   3
   1 -12   1 14.2405 5.81152   3
   1  12  -1 32.5595 4.97670   1
   1 -12  -1 25.1801 6.03419   3
  -1  12  -1 21.1416 4.84671   1
   1  12   1 21.0128 4.33434   1
  -1 -12   1 30.3371 6.85617   3
   3 -12   1 11.5919 5.40521   3
   3  12  -1 9.04256 4.21991   2
  -3  12   1 1.63929 3.54125   1
  -3 -12  -1 17.4362 6.03796   3
   3 -12  -1 19.5720 6.46778   3
  -3 -12   1 16.3458 6.14646   3
  -3  12  -1 15.4996 4.63646   1
   3  12   1 12.9306 4.54241   2
   5  12  -1 9.37395 4.76548   2
  -5 -12  -1 1.62141 5.91503   3
  -5  12   1 5.99624 4.91940   1
   5 -12   1 8.33720 4.96197   3
   5  12   1 1.79385 3.86622   2
   5 -12  -1 22.6782 7.11046   3
  -5 -12   1 27.5683 8.42961   3
  -5  12  -1 6.40546 4.09747   1
   0  13   1 7.45686 3.58376   1
   0  13  -1 8.06666 3.35551   1
   0 -13   1 6.88549 4.78606   3
   0 -13  -1 5.22463 5.04681   3
  -2  13   1 8.74616 4.62496   1
   2 -13   1 13.2865 5.48314   3
  -2 -13  -1 9.41642 5.55317   3
  -2 -13   1 3.12832 4.81831   3
   2 -13  -1 14.9932 6.20197   3
  -2  13  -1 7.76534 4.44009   1
  -4 -13  -1 0.59771 4.19795   3
  -4  13   1 4.95691 4.82748   1
   4  13  -1 7.82994 4.28221   2
   4 -13   1 7.84050 5.29941   3
   4 -13  -1 13.6130 6.32117   3
   4  13   1 -0.4514 3.46191   2
  -4 -13   1 5.96549 5.05230   3
  -4  13  -1 7.73321 4.87273   1
  -1 -14  -1 64.1130 10.4512   3
  -1  14   1 69.9435 9.01705   1
   1 -14   1 82.4582 11.6153   3
  -1  14  -1 76.7645 9.23783   1
  -1 -14   1 67.9392 10.7812   3
   1 -14  -1 70.8846 11.0754   3
   3 -14   1 69.4818 10.6314   3
  -3  14   1 76.8010 10.1296   1
  -3 -14  -1 71.8098 11.1780   3
  -3 -14   1 68.4233 11.2493   3
  -3  14  -1 69.2789 9.54569   1
   3 -14  -1 84.1737 11.6310   3
   0 -15  -1 80.2022 12.4126   3
   0 -15   1 115.895 14.0997   3
  -2  15   1 80.7430 10.1848   1
  -2 -15  -1 74.1060 11.8921   3
   2 -15   1 80.0299 11.5210   3
   2 -15  -1 88.3024 12.8900   3
  -2  15  -1 89.4160 10.6207   1
  -2 -15   1 72.9585 12.3664   3
   4 -15   1 15.6189 10.8187   3
  -1  16   1 77.2628 10.1457   1
   1 -16   1 73.5477 11.2160   3
   1 -16  -1 70.6493 11.7722   3
  -1 -16   1 62.3970 16.3026   3
  -1  16  -1 84.4292 16.3531   1
   0   0  -2 842.011 33.3154   3
   0   0   2 923.075 33.1614   3
   0   0   2 930.944 33.4646   1
  -2   0   2 815.279 29.0336   1
   2   0   2 792.510 29.7017   1
  -2   0   2 781.717 34.5298   3
   2   0  -2 781.929 29.2317   2
  -2   0  -2 656.963 31.8611   3
  -2   0  -2 805.059 29.6484   2
  -4   0   2 280.953 12.5911   1
  -4   0  -2 272.404 13.3041   2
   4   0   2 278.634 13.3212   1
  -4   0  -2 288.284 19.6168   3
  -4   0   2 297.073 21.1535   3
   4   0  -2 287.448 13.0276   2
   6   0  -2 88.4697 8.13696   2
  -6   0   2 95.6688 15.7552   3
  -6   0  -2 102.961 15.0975   3
   6   0   2 94.8878 8.82357   1
  -8   0   2 52.6446 12.7919   3
   8   0  -2 45.1126 7.39948   2
   8   0   2 39.8131 7.33962   2
  -1  -1  -2 526.842 20.2814   2
  -1   1   2 534.723 20.2640   1
  -1  -1  -2 549.599 20.3741   3
   1   1  -2 538.448 19.6825   1
  -1   1   2 500.162 22.4678   3
   1  -1   2 569.547 20.2409   3
   1   1  -2 547.568 20.2561   2
  -1  -1   2 540.870 19.5071   1
  -1   1  -2 515.037 20.4677   1
  -1   1  -2 538.847 20.3994   2
   1   1   2 477.970 21.0213   1
  -1  -1   2 513.036 21.4520   3
   1  -1  -2 540.985 19.6869   2
  -3  -1  -2 228.627 13.9129   3
   3   1  -2 233.399 10.5217   2
  -3   1   2 184.522 15.1125   3
  -3  -1  -2 232.234 10.7977   2
  -3   1   2 230.469 10.3822   1
   3   1   2 229.503 10.6980   1
  -3  -1   2 240.328 15.6603   3
  -3  -1   2 223.659 9.51702   1
   3  -1  -2 224.894 9.97661   2
  -3   1  -2 195.956 13.7769   3
  -3   1  -2 226.245 10.7846   1
  -3   1  -2 236.224 10.6554   2
   5   1  -2 61.3766 6.30149   2
  -5   1   2 64.0600 12.4969   3
  -5  -1  -2 75.5267 7.10254   2
   5  -1   2 58.9951 6.46874   1
   5   1  -2 67.0284 5.16857   1
  -5  -1  -2 59.4200 11.4507   3
  -5   1   2 65.5397 6.27159   1
   5  -1  -2 72.8840 6.37008   2
  -5   1  -2 72.7754 6.62678   2
   5   1   2 64.7690 6.69996   1
  -5   1  -2 77.1367 11.8575   3
  -5  -1   2 82.5938 13.4034   3
   7  -1   2 14.9905 4.61847   2
  -7   1   2 15.2223 9.33847   3
   7   1  -2 17.1024 4.87504   2
  -7  -1  -2 13.5868 8.94359   3
   7  -1  -2 13.8802 4.40848   2
  -7  -1   2 20.5061 10.6888   3
   7   1   2 11.3118 4.86833   2
   0  -2   2 1260.00 45.9608   3
   0  -2  -2 1232.77 46.2733   3
   0   2   2 1223.13 46.0588   1
   0   2  -2 1274.69 45.7730   1
   0  -2  -2 1295.87 45.2808   2
   0   2  -2 1205.19 45.9766   2
   2   2  -2 1054.08 37.7381   2
  -2   2   2 995.483 37.7597   1
  -2  -2  -2 982.459 38.5099   3
  -2  -2  -2 974.968 37.7163   2
  -2   2   2 897.523 40.5850   3
   2  -2   2 1032.51 38.6243   3
  -2  -2   2 1008.74 39.7487   3
   2  -2  -2 1017.35 36.7262   2
  -2   2  -2 1038.59 38.1828   1
   2   2   2 914.352 38.5700   1
  -2   2  -2 1036.10 37.5341   2
   4   2  -2 668.592 26.0230   1
   4   2  -2 679.108 27.5346   2
  -4  -2  -2 655.755 31.9370   3
  -4   2   2 662.687 27.4497   1
  -4   2  -2 683.814 27.2631   2
  -4   2  -2 643.171 27.7375   1
   4   2   2 731.897 28.5472   1
  -4   2  -2 674.712 31.5155   3
   4  -2  -2 667.834 26.5167   2
  -4  -2   2 643.215 33.2013   3
   6  -2   2 305.849 16.5015   1
   6   2  -2 280.226 15.8775   2
  -6   2   2 283.039 23.3523   3
  -6  -2  -2 312.185 23.7634   3
  -6   2   2 285.816 15.4696   1
  -6  -2   2 332.046 24.9435   3
   6  -2  -2 315.871 15.2498   2
   6   2   2 296.325 16.3749   2
  -6   2  -2 363.406 21.9844   3
  -6   2  -2 320.880 15.7319   2
   8   2  -2 117.358 11.9176   2
   8  -2   2 123.442 11.3858   2
  -8   2   2 125.397 18.4709   3
   8   2   2 113.184 11.9660   2
  -8  -2   2 123.245 18.7410   3
  -1  -3  -2 4295.40 148.773   2
   1   3  -2 4182.85 147.913   1
  -1  -3  -2 4038.02 149.522   3
  -1   3   2 4284.62 149.303   1
   1   3  -2 4219.32 148.979   2
   1  -3   2 4212.66 149.055   3
  -1   3  -2 3878.00 148.959   2
   1  -3  -2 4073.87 150.234   3
   1   3   2 3877.78 148.895   1
  -1  -3   2 4061.91 149.775   3
  -3   3   2 2177.97 80.6900   1
  -3  -3  -2 2102.20 82.3817   3
  -3  -3  -2 2216.54 80.7412   2
   3   3  -2 2276.11 80.7772   2
   3  -3   2 2194.21 82.0646   3
   3  -3  -2 2020.02 84.6931   3
  -3   3  -2 2217.36 80.0633   2
  -3   3  -2 2201.59 81.1524   1
  -3  -3   2 2082.71 83.4153   3
  -5   3   2 590.339 34.8984   3
  -5   3   2 682.763 28.8087   1
  -5  -3  -2 757.919 35.6500   3
   5  -3   2 719.356 32.6047   3
   5   3  -2 679.219 28.8936   2
  -5   3  -2 676.600 27.9623   2
  -5   3  -2 639.198 28.9541   1
  -5  -3   2 701.403 36.3714   3
   5   3   2 658.302 30.4275   1
   5   3   2 686.778 29.0478   2
   5  -3  -2 651.914 27.1345   2
   7  -3   2 148.792 15.8202   3
   7  -3   2 166.762 12.1455   1
  -7  -3  -2 234.864 24.6822   3
   7   3  -2 154.070 11.9010   2
   7  -3   2 157.497 11.1192   2
   7   3   2 145.734 11.9803   2
  -7  -3   2 191.665 22.7021   3
   0  -4  -2 2871.31 107.138   3
   0   4   2 2985.10 106.418   1
   0   4  -2 2998.77 106.089   1
   0   4   2 2961.95 105.275   2
   0   4  -2 2785.80 106.127   2
   0  -4   2 2890.35 106.757   3
   2  -4   2 1914.28 73.6580   3
   2   4  -2 2016.11 73.3945   2
  -2   4   2 1977.35 73.7398   1
  -2   4   2 2002.93 71.4811   2
  -2  -4  -2 1974.96 74.4725   3
   2  -4  -2 1929.88 75.4668   3
  -2  -4   2 2010.56 75.0226   3
  -2   4  -2 2007.59 73.9422   1
   2   4   2 1911.61 72.8470   1
   2   4   2 1995.37 73.2144   2
  -2   4  -2 2016.52 72.8515   2
   4   4  -2 734.244 28.9242   2
   4  -4   2 731.639 30.5418   3
  -4   4   2 662.982 28.8182   1
  -4  -4  -2 669.326 31.4838   3
  -4   4  -2 716.600 29.5409   1
   4   4   2 669.125 29.2413   1
   4  -4  -2 629.075 32.9622   3
   4   4   2 712.004 28.8691   2
   4  -4  -2 698.728 26.8673   2
  -4  -4   2 685.217 32.5176   3
  -4   4  -2 677.495 27.6789   2
  -6   4   2 180.910 12.3821   1
   6   4  -2 195.948 12.7185   2
  -6  -4  -2 219.780 21.6825   3
   6  -4   2 199.544 14.8040   3
  -6   4  -2 201.728 11.3787   2
  -6   4  -2 205.947 13.1578   1
   6   4   2 203.305 13.0454   2
   6  -4  -2 199.900 13.4041   2
   6  -4  -2 176.307 18.6556   3
  -6  -4   2 272.182 21.2302   3
   8   4  -2 56.6864 8.88330   2
   8   4   2 53.2583 8.62633   2
  -8  -4   2 74.2380 16.6101   3
   8  -4  -2 52.3147 11.3313   3
   1   5  -2 57.3225 4.12048   2
   1  -5   2 52.4034 4.43659   3
  -1   5   2 51.9606 2.49424   2
  -1   5   2 43.1426 4.48577   1
  -1  -5  -2 52.5726 5.54814   3
   1   5  -2 49.6962 3.19579   1
   1   5   2 46.3452 3.69867   1
   1   5   2 53.9935 3.67097   2
  -1   5  -2 51.6510 4.00659   2
   1  -5  -2 43.2348 4.98458   3
  -1  -5   2 62.4412 5.21253   3
  -1   5  -2 45.1258 3.99184   1
  -3  -5  -2 12.0117 3.85418   3
   3   5  -2 14.8150 3.21860   2
  -3   5   2 14.6279 1.80002   2
  -3   5   2 10.9640 3.03763   1
   3  -5   2 9.83893 3.10487   3
  -3   5  -2 10.3214 2.85119   1
   3   5   2 16.3122 2.53485   1
  -3   5  -2 12.9895 2.38165   2
  -3  -5   2 14.3918 4.37219   3
   3  -5  -2 7.69042 3.97734   3
   3   5   2 16.2335 2.94843   2
  -5  -5  -2 -1.4324 4.09216   3
   5   5  -2 0.45866 3.02941   2
  -5   5   2 2.70286 2.94238   1
   5  -5   2 4.90655 3.50861   3
  -5   5  -2 3.06091 3.21336   1
   5   5   2 3.22614 2.79540   2
  -5   5  -2 0.13753 2.03652   2
   5  -5  -2 2.00840 4.66959   3
   5  -5  -2 2.60661 2.00919   2
  -5  -5   2 4.81065 5.08379   3
  -7   5   2 -2.2677 3.05488   1
   7   5  -2 -4.1134 3.35716   2
  -7  -5  -2 -4.9076 6.23948   3
  -7  -5   2 1.51523 7.20090   3
   7   5   2 6.14899 4.34413   2
   7  -5  -2 4.14000 6.09073   3
   0  -6  -2 1549.01 59.7790   3
   0   6   2 1543.28 57.1680   2
   0  -6   2 1585.35 59.4600   3
   0   6   2 1565.35 58.6000   1
   0   6  -2 1510.75 58.1385   2
   0   6  -2 1596.86 58.2576   1
  -2   6   2 1372.07 52.4129   1
   2   6  -2 1385.19 49.6761   1
   2   6  -2 1336.63 51.7022   2
  -2  -6  -2 1356.85 53.3755   3
   2  -6   2 1325.43 52.2771   3
   2   6   2 1350.23 51.4161   2
  -2   6  -2 1374.02 50.8844   2
   2   6   2 1354.83 50.8126   1
  -2  -6   2 1321.87 53.4061   3
   2  -6  -2 1350.25 53.8064   3
  -2   6  -2 1390.10 52.5033   1
   4  -6   2 833.669 36.8411   3
  -4   6   2 897.134 36.7932   1
   4   6  -2 912.862 36.3046   2
  -4  -6  -2 865.696 38.6980   3
   4   6   2 866.944 36.0238   2
  -4   6  -2 897.246 37.0869   1
  -4  -6   2 881.955 39.5760   3
   4  -6  -2 860.143 39.7608   3
  -4   6  -2 900.990 34.4408   2
   6   6  -2 433.212 21.0027   2
  -6  -6  -2 387.956 25.4794   3
  -6   6   2 376.753 20.7878   1
   6  -6   2 375.373 21.4898   3
   6  -6  -2 366.446 24.2536   3
   6   6   2 429.119 21.0018   2
  -6   6  -2 399.030 21.1583   1
  -6  -6   2 392.478 26.5663   3
   8  -6   2 112.644 12.7204   1
   8  -6  -2 131.174 16.8333   3
  -1   7   2 1690.53 65.1326   1
   1  -7   2 1687.94 65.4825   3
   1   7  -2 1723.27 63.6508   1
   1   7  -2 1712.99 64.4596   2
  -1   7   2 1722.29 62.6900   2
  -1  -7  -2 1658.21 66.2111   3
   1   7   2 1767.05 64.3549   1
  -1   7  -2 1723.65 64.9319   1
  -1  -7   2 1705.94 66.1648   3
   1  -7  -2 1759.26 66.5977   3
   1   7   2 1685.15 63.7765   2
  -1   7  -2 1749.94 64.4594   2
   3   7  -2 905.370 36.7821   2
  -3   7   2 901.562 37.3265   1
   3  -7   2 894.981 37.5234   3
  -3  -7  -2 906.346 38.8317   3
  -3   7  -2 929.541 35.0104   2
   3  -7  -2 958.688 39.6880   3
  -3  -7   2 906.524 39.2091   3
   3   7   2 917.390 34.8096   1
  -3   7  -2 865.155 37.3340   1
   3   7   2 907.120 36.5358   2
   5  -7   2 298.486 17.0582   3
   5   7  -2 285.529 16.1581   2
  -5  -7  -2 313.084 19.7510   3
  -5   7   2 296.213 16.8431   1
  -5   7  -2 295.263 17.1359   1
   5  -7  -2 310.288 20.0788   3
  -5  -7   2 315.730 20.2944   3
   5   7   2 281.118 15.9890   2
  -7   7   2 87.9125 10.3991   1
   7   7  -2 59.0580 8.92253   2
  -7  -7  -2 52.2146 12.4565   3
  -7  -7   2 61.6735 13.4056   3
   7  -7  -2 72.0215 11.5923   3
   7   7   2 60.4634 8.78440   2
  -7   7  -2 94.9711 11.0759   1
   0  -8  -2 2115.59 81.9917   3
   0   8   2 2153.28 78.6562   2
   0   8  -2 2140.32 79.8582   1
   0   8   2 2154.31 80.3361   1
   0  -8   2 2129.07 81.5877   3
   0   8  -2 2139.39 79.8301   2
  -2  -8  -2 1541.97 61.7602   3
  -2   8   2 1566.52 60.4029   1
   2   8  -2 1522.84 59.4790   2
   2   8  -2 1566.05 57.5379   1
   2  -8   2 1496.36 60.6216   3
   2  -8  -2 1594.63 61.9919   3
  -2   8  -2 1548.10 58.2936   2
  -2   8  -2 1563.23 60.4150   1
  -2  -8   2 1590.34 62.0310   3
   2   8   2 1564.15 59.0922   2
   2   8   2 1542.43 58.4690   1
  -4  -8  -2 642.949 31.2201   3
   4   8  -2 638.079 28.5843   2
  -4   8   2 649.386 29.3967   1
   4  -8   2 631.020 29.3013   3
  -4   8  -2 656.246 29.6205   1
  -4  -8   2 666.152 31.9638   3
   4   8   2 656.840 28.4753   2
   4  -8  -2 667.415 31.8359   3
  -6   8   2 202.826 14.2767   1
  -6  -8  -2 216.036 18.3491   3
   6  -8   2 211.955 14.9681   3
   6   8  -2 198.181 13.9820   2
   6  -8  -2 238.885 17.9796   3
  -6  -8   2 227.540 18.9103   3
   6   8   2 211.327 13.9855   2
  -6   8  -2 193.786 14.6269   1
  -1   9   2 265.237 13.8374   1
  -1  -9  -2 267.889 15.3428   3
   1   9  -2 265.763 12.4963   1
   1   9  -2 250.920 13.2091   2
   1  -9   2 249.628 14.4613   3
  -1   9  -2 256.285 13.5129   1
   1   9   2 278.665 12.6007   2
   1  -9  -2 258.094 15.3201   3
  -1   9  -2 276.195 13.2085   2
   1   9   2 278.347 13.1423   1
  -1  -9   2 281.254 15.3369   3
  -3  -9  -2 162.476 12.2049   3
  -3   9   2 139.775 10.1817   1
   3  -9   2 143.017 10.6373   3
   3   9  -2 171.729 10.2888   2
  -3  -9   2 151.863 11.7935   3
  -3   9  -2 149.297 10.6215   1
   3   9   2 144.442 9.48916   2
   3  -9  -2 154.169 12.1203   3
  -5   9   2 44.6148 7.18732   1
   5  -9   2 49.6627 7.71236   3
   5   9  -2 57.7446 7.89666   2
  -5  -9  -2 61.9994 10.1874   3
   5   9   2 57.1889 7.47056   2
  -5   9  -2 45.6167 7.11986   1
  -5  -9   2 45.7119 9.07000   3
   5  -9  -2 50.7888 9.39541   3
  -7  -9  -2 16.8111 9.14886   3
  -7   9   2 5.63607 5.24419   1
  -7   9  -2 14.6827 5.56226   1
  -7  -9   2 3.47533 8.88817   3
   7  -9  -2 15.2030 7.09901   3
   0  10  -2 823.360 33.0997   2
   0  10   2 781.519 33.4380   1
   0  10  -2 795.396 32.9740   1
   0 -10   2 804.249 35.1956   3
   0 -10  -2 834.375 35.9551   3
   2  10  -2 735.948 30.8518   2
  -2 -10  -2 723.342 33.4797   3
   2 -10   2 729.418 32.2665   3
  -2  10   2 753.568 31.9802   1
  -2 -10   2 703.464 33.2545   3
   2  10   2 733.582 30.1392   2
  -2  10  -2 716.565 31.6453   1
   2  10   2 725.178 29.6511   1
   2 -10  -2 721.022 33.4658   3
   4  10  -2 490.898 23.4830   2
  -4 -10  -2 492.586 26.5296   3
  -4  10   2 482.839 24.3617   1
   4 -10   2 497.275 24.7632   3
  -4  10  -2 452.934 24.1917   1
   4 -10  -2 494.274 26.4722   3
  -4 -10   2 470.271 26.3556   3
   4  10   2 517.658 23.4541   2
  -6  10   2 269.134 17.1360   1
  -6 -10  -2 254.114 20.2660   3
   6  10  -2 218.291 15.4890   2
   6  10   2 241.672 15.8441   2
  -6 -10   2 224.181 22.9731   3
  -6  10  -2 236.656 16.6894   1
   6 -10  -2 240.022 18.9082   3
   1  11  -2 41.2497 5.48801   2
  -1  11   2 37.6414 5.56403   1
   1  11  -2 38.0272 4.99538   1
   1 -11   2 36.6449 6.87002   3
  -1 -11  -2 32.4260 6.68469   3
  -1 -11   2 50.9282 7.75563   3
  -1  11  -2 31.4162 5.14912   1
   1  11   2 46.6972 5.78392   1
   1 -11  -2 33.2407 6.62014   3
  -3  11   2 20.6961 5.46706   1
   3 -11   2 21.3424 5.73767   3
   3  11  -2 9.53376 3.71197   2
  -3 -11  -2 19.2596 6.00159   3
  -3  11  -2 13.4931 4.93187   1
   3 -11  -2 12.3455 5.13633   3
  -3 -11   2 17.7728 5.71300   3
   3  11   2 21.1335 4.48504   2
  -5  11   2 5.43098 4.36278   1
   5  11  -2 8.32749 4.08106   2
  -5 -11  -2 1.58466 5.25395   3
   5 -11   2 5.07310 4.45950   3
  -5  11  -2 4.83514 4.42410   1
   5 -11  -2 3.41398 4.61108   3
  -5 -11   2 -1.4749 6.00232   3
   5  11   2 8.08956 4.21177   2
   0 -12   2 545.131 27.2370   3
   0 -12  -2 530.052 27.8863   3
   0  12   2 552.150 25.1813   1
   0  12  -2 566.174 24.9738   1
  -2 -12  -2 374.996 22.4992   3
   2  12  -2 407.608 20.2817   2
  -2  12   2 423.914 21.5312   1
   2 -12   2 388.521 21.8169   3
  -2 -12   2 429.346 23.4863   3
  -2  12  -2 425.316 21.3496   1
   2 -12  -2 418.061 23.3170   3
   4  12  -2 190.359 13.2980   2
  -4 -12  -2 204.509 16.6731   3
  -4  12   2 214.075 14.6909   1
   4 -12   2 202.864 14.6880   3
   4  12   2 197.102 12.9825   2
  -4  12  -2 207.513 14.8755   1
  -4 -12   2 196.248 16.2503   3
   4 -12  -2 180.951 18.0215   3
   6 -12  -2 79.2478 12.3717   3
  -1 -13  -2 339.876 20.5756   3
   1 -13   2 344.905 20.2104   3
  -1  13   2 332.181 18.1510   1
   1  13   2 322.223 17.0812   1
   1 -13  -2 362.210 20.9520   3
  -1 -13   2 337.702 20.2080   3
  -1  13  -2 291.156 17.4108   1
  -3  13   2 204.089 14.6990   1
   3 -13   2 201.372 14.8746   3
  -3 -13  -2 215.669 16.6864   3
   3  13  -2 193.908 13.5539   2
   3 -13  -2 205.998 16.4851   3
  -3 -13   2 202.913 16.3455   3
  -3  13  -2 196.915 14.2464   1
  -5 -13  -2 51.3644 15.0032   3
   5  13  -2 77.3296 10.2051   2
   5 -13  -2 82.2846 12.8618   3
   5  13   2 81.5884 9.96369   2
   0 -14   2 114.338 13.0322   3
   0 -14  -2 104.957 13.4080   3
   0  14   2 115.728 9.68170   1
   0  14  -2 107.780 15.8352   1
   2 -14   2 97.3302 11.9752   3
  -2  14   2 95.7704 10.7803   1
  -2 -14  -2 132.107 15.0246   3
  -2 -14   2 91.9944 12.7080   3
   2 -14  -2 117.563 13.6869   3
  -2  14  -2 104.539 11.2636   1
  -4 -14  -2 80.6318 12.8770   3
   4  14  -2 93.4362 11.0016   2
   4 -14   2 91.2856 11.5895   3
  -4  14   2 75.9505 11.9938   1
  -4 -14   2 81.8618 18.4851   3
   4 -14  -2 81.0432 12.7463   3
  -4  14  -2 74.1628 10.7161   1
  -1 -15  -2 -1.4785 4.73760   3
   1 -15   2 4.73890 5.39463   3
  -1  15   2 1.53000 3.45515   1
   1 -15  -2 4.64833 5.40923   3
  -1 -15   2 5.26687 5.71600   3
  -1  15  -2 6.95576 4.24683   1
   3 -15   2 1.95011 4.88455   3
  -3  15   2 7.86387 4.96559   1
   3 -15  -2 1.36812 5.25426   3
  -3  15  -2 5.34201 4.59856   1
   0 -16   2 87.8586 12.8215   3
   0 -16  -2 55.9172 12.7870   3
  -2  16   2 69.1980 9.90900   1
   2 -16   2 69.0989 11.5654   3
  -2  16  -2 71.4436 10.2773   1
   1   0   3 658.701 25.8863   1
  -1   0  -3 671.515 24.8745   3
  -1   0   3 677.510 25.0475   1
   1   0  -3 642.724 24.9498   2
  -1   0  -3 668.731 25.4706   2
  -1   0   3 635.365 28.2843   3
   1   0   3 648.883 24.4685   3
  -3   0   3 237.392 16.5580   3
  -3   0   3 227.458 9.99024   1
  -3   0  -3 226.321 10.8950   2
   3   0  -3 223.888 10.3116   2
   3   0   3 228.726 11.0246   1
  -3   0  -3 209.727 14.4037   3
  -5   0  -3 64.0558 11.5084   3
  -5   0   3 82.6356 14.0683   3
  -5   0   3 66.5498 5.38290   1
   5   0  -3 65.5053 6.25457   2
  -5   0  -3 73.7017 6.95379   2
   5   0   3 66.3864 6.76183   1
   7   0   3 40.7793 6.75692   2
   7   0  -3 43.0115 6.45352   2
  -7   0   3 72.6520 14.8092   3
   0  -1  -3 145.646 6.41083   2
   0  -1   3 149.387 6.45043   3
   0   1  -3 147.459 6.97686   2
   0  -1  -3 158.215 6.85430   3
   0  -1   3 142.817 6.75787   1
  -2  -1  -3 106.121 6.47315   3
   2   1  -3 95.3773 5.44585   2
   2  -1   3 103.770 5.95194   1
  -2   1   3 92.9700 10.1344   3
  -2  -1  -3 105.590 5.75472   2
  -2   1   3 112.775 5.52778   1
  -2   1  -3 104.077 6.74502   3
  -2   1  -3 102.194 5.70992   2
  -2  -1   3 110.393 4.69652   1
  -2  -1   3 99.2553 8.72702   3
   2   1   3 101.454 6.41847   1
   2  -1  -3 97.2654 4.97014   2
  -4   1   3 59.0858 11.1134   3
   4   1  -3 68.9792 5.28975   2
  -4  -1  -3 44.8792 5.13830   2
  -4   1   3 61.4997 4.75184   1
   4  -1   3 62.6536 5.37628   1
  -4  -1  -3 65.6080 9.84162   3
   4  -1  -3 58.2563 5.22403   2
  -4  -1   3 53.0259 10.2005   3
  -4   1  -3 54.4490 5.40284   2
  -4  -1   3 57.5754 4.06117   1
  -4   1  -3 69.7627 9.56742   3
   4   1   3 62.0749 6.19419   1
   6  -1   3 20.5280 4.75350   1
  -6  -1  -3 23.0116 4.75202   2
   6   1  -3 35.9078 5.48797   2
  -6  -1  -3 49.0618 10.9790   3
  -6   1   3 47.2121 11.6891   3
   6   1   3 31.7768 5.60330   1
  -6  -1   3 22.6877 9.33538   3
  -6   1  -3 29.9155 8.40828   3
   6  -1  -3 20.2637 4.25140   2
  -6   1  -3 24.1596 4.67542   2
   8   1  -3 -0.9692 4.08813   2
   8  -1   3 5.47548 4.34887   2
  -8   1   3 2.56121 8.13984   3
   8   1   3 7.17608 5.46109   2
  -8  -1   3 14.9519 9.29343   3
   1   2  -3 4154.38 145.804   2
   1  -2   3 4268.04 145.240   3
  -1  -2  -3 4043.42 145.618   2
  -1  -2  -3 4271.53 145.960   3
  -1   2   3 4072.62 145.968   1
   1   2   3 3561.55 146.664   1
  -1   2  -3 4140.64 146.130   1
  -1   2  -3 4146.67 146.142   2
  -1  -2   3 3987.42 146.692   3
  -1  -2   3 3862.96 145.126   1
   1  -2  -3 3914.97 144.704   2
   1  -2  -3 3864.20 147.320   3
  -3  -2  -3 1851.05 68.9126   2
  -3   2   3 1876.89 68.5927   1
  -3  -2  -3 1862.69 70.7544   3
  -3   2   3 1512.77 74.0279   3
   3   2  -3 1906.70 68.7092   2
  -3   2  -3 1872.01 70.3549   3
  -3   2  -3 1886.58 68.6200   2
  -3  -2   3 1876.11 73.1864   3
   3  -2  -3 1862.63 67.6249   2
   3   2   3 1795.27 70.0320   1
  -3  -2   3 1838.66 66.7622   1
  -3   2  -3 1883.62 69.2801   1
  -5   2   3 336.233 25.8012   3
  -5  -2  -3 339.222 17.7236   2
  -5  -2  -3 425.134 24.8164   3
  -5   2   3 390.165 17.6789   1
   5  -2   3 379.775 18.3901   1
  -5  -2   3 405.656 26.1188   3
   5   2   3 412.476 19.5113   1
  -5   2  -3 364.405 17.6165   2
   5  -2  -3 368.448 16.8054   2
  -5   2  -3 404.615 21.7680   3
  -7   2   3 38.6284 10.9262   3
   7   2  -3 47.4502 6.80637   2
   7  -2   3 28.6269 6.21111   1
  -7   2  -3 19.8982 4.99335   2
   7   2   3 28.5557 6.07726   2
   7  -2  -3 35.5572 5.61320   2
  -7  -2   3 31.6301 11.4441   3
   0   3  -3 78.3482 4.29213   1
   0   3  -3 79.0296 4.71286   2
   0   3   3 76.1872 4.65799   1
   0  -3  -3 76.2895 3.54078   2
   0  -3  -3 76.5582 4.84178   3
   0  -3   3 75.4440 4.49658   3
   2  -3   3 69.2555 4.61991   3
   2   3  -3 73.5360 4.86755   2
  -2  -3  -3 74.6189 5.46053   3
  -2   3   3 73.1297 4.98621   1
  -2  -3  -3 72.1969 4.80646   2
   2   3   3 75.8055 6.06663   1
   2  -3  -3 74.1244 3.42682   2
   2  -3  -3 69.4396 7.61074   3
  -2  -3   3 78.7481 7.47794   3
  -2   3  -3 76.3290 4.80770   2
   4   3  -3 57.9344 5.89224   2
   4  -3   3 52.3814 6.70570   3
  -4  -3  -3 47.3156 5.43548   2
  -4   3   3 58.9987 5.91906   1
  -4   3   3 39.6803 8.80586   3
  -4  -3  -3 50.2086 7.65506   3
   4   3   3 61.4390 7.70623   1
   4  -3  -3 56.4771 4.04759   2
  -4   3  -3 52.7619 5.31219   2
  -4   3  -3 36.2015 5.34452   1
  -4  -3   3 53.6519 9.15239   3
  -6   3   3 15.7349 8.28012   3
   6   3  -3 21.7587 4.99704   2
  -6  -3  -3 30.0071 9.03296   3
   6  -3   3 31.3694 5.89422   1
   6  -3   3 28.3645 6.63440   3
  -6   3   3 26.1860 5.06882   1
  -6  -3   3 33.7372 10.1511   3
   6  -3  -3 27.6180 4.28496   2
   6   3   3 24.2166 5.53651   2
  -6   3  -3 27.2011 4.85317   2
   8   3  -3 5.16029 5.08599   2
  -8  -3   3 6.84703 9.95875   3
   8  -3  -3 11.7606 7.73762   3
   8   3   3 7.92737 5.40228   2
   1   4  -3 1715.80 59.5537   1
  -1  -4  -3 1591.50 60.0348   2
  -1   4   3 1613.03 60.9394   1
  -1  -4  -3 1622.03 61.2851   3
   1   4  -3 1620.49 60.5691   2
   1  -4   3 1646.08 60.5805   3
   1  -4  -3 1642.77 62.0663   3
  -1   4  -3 1686.63 60.9874   1
  -1   4  -3 1538.77 60.6636   2
   1   4   3 1609.17 60.6555   1
  -1  -4   3 1651.11 61.5472   3
  -3   4   3 838.760 33.8868   1
   3  -4   3 856.857 34.1035   3
   3   4  -3 831.983 33.6770   2
  -3  -4  -3 864.393 33.7632   2
  -3  -4  -3 877.695 35.2729   3
   3   4   3 868.092 34.5813   1
   3  -4  -3 862.589 37.7094   3
  -3   4  -3 839.078 34.3221   1
   3  -4  -3 833.738 31.6517   2
  -3  -4   3 802.494 36.2030   3
  -3   4  -3 874.490 33.1032   2
   5  -4   3 328.217 17.4150   3
   5   4  -3 304.646 15.9675   2
  -5   4   3 320.425 16.2388   1
  -5  -4  -3 333.341 20.0680   3
  -5  -4   3 302.823 21.1280   3
   5  -4  -3 272.248 20.7147   3
   5   4   3 311.295 16.1029   2
  -5   4  -3 328.350 15.2246   2
   5  -4  -3 293.690 13.8973   2
  -5   4  -3 323.986 16.6814   1
  -7  -4  -3 142.166 19.0079   3
   7   4  -3 118.055 11.2534   2
   7  -4   3 107.862 11.3901   1
  -7  -4   3 131.480 19.6259   3
   7   4   3 128.167 12.0490   2
   7  -4  -3 143.118 17.9325   3
   0   5  -3 43.4761 4.15108   2
   0  -5  -3 43.2003 4.99479   3
   0   5   3 47.0516 2.71845   2
   0   5  -3 49.1140 3.63259   1
   0   5   3 44.3952 4.24749   1
   0  -5   3 52.3499 4.42075   3
  -2   5   3 52.5979 5.20642   1
  -2  -5  -3 53.2596 5.79439   3
   2  -5   3 40.3010 4.44649   3
   2   5  -3 41.0738 4.43858   2
  -2   5  -3 45.5323 4.34967   2
   2   5   3 58.8440 4.28608   1
  -2   5  -3 43.6268 4.81412   1
  -2  -5   3 62.7658 6.44339   3
   2   5   3 42.6957 4.17425   2
   2  -5  -3 52.0804 6.57055   3
  -4   5   3 40.2059 5.34649   1
  -4  -5  -3 34.1032 6.14696   3
   4  -5   3 44.4904 5.91898   3
   4   5  -3 36.1664 5.10074   2
  -4   5  -3 49.6102 6.30445   1
   4  -5  -3 39.9400 3.44680   2
  -4   5  -3 40.4389 4.56180   2
  -4  -5   3 44.3536 7.77276   3
   4   5   3 37.2034 5.06406   1
   4  -5  -3 44.6094 8.18079   3
   4   5   3 41.7166 5.25699   2
  -6  -5  -3 18.5861 7.39527   3
  -6   5   3 18.5039 4.96595   1
   6  -5   3 17.7279 5.28275   3
   6   5  -3 23.7210 5.27699   2
   6  -5  -3 26.7572 8.51411   3
  -6  -5   3 26.5196 9.36857   3
  -6   5  -3 34.6799 6.35937   1
   6   5   3 16.1435 4.63915   2
   8  -5   3 7.38962 5.57757   1
   8  -5  -3 4.06550 6.50246   3
  -8  -5   3 7.35531 8.76194   3
   1   6  -3 42.7727 3.28210   1
  -1   6   3 49.5495 5.06946   1
  -1  -6  -3 46.4022 5.58366   3
   1   6  -3 54.3655 4.84107   2
   1  -6   3 48.1404 4.86700   3
  -1   6  -3 40.6185 4.38241   1
   1  -6  -3 43.4639 5.70226   3
   1   6   3 49.5141 4.18992   1
   1   6   3 46.4747 3.60718   2
  -1  -6   3 56.1491 5.96312   3
  -1   6  -3 56.7040 5.13125   2
  -3  -6  -3 0.60118 2.67105   3
   3  -6   3 -0.3703 1.97795   3
   3   6  -3 -0.3555 2.13695   2
  -3   6   3 4.23504 2.55288   1
   3  -6  -3 1.44577 0.79005   2
  -3   6  -3 4.31801 2.56545   1
   3   6   3 1.48302 1.73379   1
   3   6   3 -1.5543 1.67974   2
  -3   6  -3 1.62413 1.66547   2
  -3  -6   3 2.62024 3.27217   3
   3  -6  -3 2.15016 3.64416   3
   5   6  -3 20.8343 4.70932   2
   5  -6   3 18.5731 4.54175   3
  -5  -6  -3 8.93662 5.40077   3
  -5   6   3 21.1466 4.89358   1
  -5  -6   3 17.0973 6.06830   3
   5   6   3 14.0399 4.47423   2
   5  -6  -3 9.31865 6.05584   3
  -5   6  -3 20.8160 4.81791   1
   7  -6   3 24.0076 6.50428   1
  -7   6   3 34.0596 6.53297   1
  -7  -6  -3 33.8482 11.0048   3
   7   6  -3 19.5260 5.81875   2
   7   6   3 21.8499 5.77604   2
  -7  -6   3 52.5483 12.5000   3
   7  -6  -3 20.1200 8.30415   3
   0  -7   3 24.9485 4.26929   3
   0   7   3 17.5123 3.22733   1
   0   7  -3 26.6207 3.49140   1
   0  -7  -3 23.2507 4.22146   3
   0   7  -3 28.0266 3.67616   2
   0   7   3 22.9662 2.46759   2
  -2   7   3 23.7580 4.13070   1
  -2  -7  -3 28.4632 4.88460   3
   2   7  -3 25.0378 2.40496   1
   2   7  -3 19.0196 3.51970   2
   2  -7   3 24.6331 4.15620   3
   2  -7  -3 27.4759 5.25660   3
   2   7   3 24.4899 3.50612   2
  -2   7  -3 24.3116 3.41883   2
   2   7   3 20.3708 3.07753   1
  -2  -7   3 26.7695 4.78459   3
  -2   7  -3 17.7365 3.55630   1
  -4   7   3 26.0552 4.96177   1
  -4  -7  -3 23.9003 5.75953   3
   4  -7   3 21.8098 4.57989   3
   4   7  -3 16.2436 3.90443   2
   4   7   3 25.5776 4.69059   2
  -4   7  -3 22.4943 4.61352   1
   4  -7  -3 26.1359 6.60601   3
  -4  -7   3 14.8026 5.18433   3
   6   7  -3 11.8520 4.58110   2
  -6   7   3 13.9181 5.00404   1
  -6  -7  -3 14.2508 6.84562   3
   6  -7  -3 17.0580 7.32036   3
  -6   7  -3 22.1083 5.85084   1
  -6  -7   3 26.4687 8.35161   3
   6   7   3 14.5131 4.87152   2
  -1  -8  -3 3180.13 119.793   3
   1   8  -3 3193.92 117.664   2
   1   8  -3 3285.77 116.655   1
  -1   8   3 3184.56 118.435   1
   1  -8   3 3210.20 118.671   3
  -1   8  -3 2896.40 117.387   2
   1   8   3 3210.45 117.508   1
   1  -8  -3 3225.88 120.128   3
  -1  -8   3 3322.08 119.634   3
  -1   8  -3 3140.15 117.967   1
   1   8   3 3164.90 116.543   2
  -3  -8  -3 1866.16 76.0475   3
   3  -8   3 1982.53 74.6477   3
  -3   8   3 1910.59 74.5747   1
   3   8  -3 1901.26 73.7197   2
  -3   8  -3 1961.55 74.8148   1
  -3  -8   3 1958.61 76.7190   3
   3   8   3 1869.95 71.8673   1
   3  -8  -3 1996.48 77.2100   3
   3   8   3 1922.96 73.3774   2
  -5  -8  -3 707.706 35.7169   3
   5  -8   3 724.559 32.6690   3
  -5   8   3 708.179 33.0251   1
   5   8  -3 760.342 32.6718   2
   5   8   3 731.447 32.3412   2
  -5  -8   3 718.049 36.8911   3
   5  -8  -3 788.644 37.4575   3
  -5   8  -3 700.115 33.2820   1
  -7  -8  -3 238.406 20.6872   3
   7   8  -3 235.088 16.0304   2
  -7   8   3 213.974 15.9600   1
   7  -8  -3 224.373 19.7504   3
  -7   8  -3 248.703 17.2127   1
   7   8   3 238.451 16.2051   2
  -7  -8   3 285.225 23.7494   3
   0   9  -3 21.1765 3.90293   2
   0  -9  -3 18.5172 4.49677   3
   0   9  -3 11.6206 2.90676   1
   0   9   3 23.2508 3.91002   1
   0  -9   3 19.7410 4.69342   3
   2  -9   3 18.3794 4.42866   3
  -2   9   3 22.7087 4.41596   1
  -2  -9  -3 32.7397 5.98357   3
   2   9  -3 22.9259 4.14933   2
  -2   9  -3 27.1417 4.89883   1
   2   9   3 25.0398 3.78960   1
   2  -9  -3 15.6280 5.14047   3
   2   9   3 22.9967 3.77970   2
  -2   9  -3 20.5043 4.25596   2
  -2  -9   3 23.6356 5.44525   3
   4  -9   3 14.2264 4.55446   3
  -4  -9  -3 25.7066 6.61938   3
  -4   9   3 29.0072 5.85377   1
   4   9  -3 20.0350 4.83535   2
  -4   9  -3 22.0883 5.26460   1
  -4  -9   3 26.3559 6.43989   3
   4   9   3 20.7426 4.47297   2
   4  -9  -3 19.7008 6.38997   3
   6   9  -3 9.40210 5.06615   2
  -6  -9  -3 12.6949 6.65542   3
  -6   9   3 11.7986 4.96419   1
   6   9   3 14.9577 4.89653   2
  -6  -9   3 12.0148 7.30760   3
  -6   9  -3 8.33981 4.76020   1
   6  -9  -3 17.0111 6.88860   3
  -1  10   3 17.3805 4.09253   1
   1 -10   3 17.7740 4.83964   3
   1  10  -3 15.4306 3.15514   1
   1  10  -3 12.9628 3.64073   2
  -1 -10  -3 16.1526 4.93901   3
   1 -10  -3 15.8616 5.21833   3
  -1 -10   3 21.7024 5.10842   3
  -1  10  -3 19.0178 3.99146   1
   1  10   3 14.4428 3.17283   2
  -1  10  -3 26.6117 4.37525   2
   1  10   3 15.5034 3.52359   1
  -3 -10  -3 44.3128 7.78198   3
  -3  10   3 37.1003 6.21294   1
   3 -10   3 39.1492 6.45401   3
   3  10  -3 31.3789 5.43796   2
  -3 -10   3 27.9769 6.52721   3
  -3  10  -3 39.3074 6.28705   1
   3 -10  -3 46.1421 8.43785   3
   3  10   3 40.9113 5.52168   2
  -5  10   3 50.6372 8.16385   1
  -5 -10  -3 37.3653 8.40110   3
   5 -10   3 54.6725 8.04639   3
   5  10  -3 52.2109 7.23989   2
   5 -10  -3 35.8694 8.54559   3
  -5  10  -3 45.6284 7.72117   1
   5  10   3 43.9592 6.98137   2
  -5 -10   3 63.7667 11.1928   3
   0 -11   3 2.89115 3.71008   3
   0  11   3 -0.7478 2.68453   1
   0  11  -3 3.85318 2.61673   1
   0 -11  -3 4.02879 4.02269   3
   0  11  -3 7.07848 2.99262   2
   2  11  -3 7.03616 3.67977   2
   2 -11   3 2.91116 3.84046   3
  -2 -11  -3 6.74714 4.50429   3
  -2  11   3 6.17549 3.79090   1
   2  11   3 7.45283 3.03920   1
  -2 -11   3 -1.3769 3.73904   3
   2 -11  -3 1.96215 4.91425   3
   2  11   3 6.57479 3.22325   2
  -2  11  -3 8.41612 3.87274   1
  -4  11   3 3.89552 3.96260   1
   4 -11   3 5.84314 4.42488   3
  -4 -11  -3 9.16407 5.15626   3
   4  11  -3 12.4891 4.50380   2
   4  11   3 3.92473 3.65381   2
  -4 -11   3 15.2343 6.17445   3
  -4  11  -3 2.29063 4.13797   1
   4 -11  -3 6.11358 5.29550   3
  -6 -11  -3 12.5228 7.00632   3
   6  11  -3 4.83831 4.79829   2
  -6  11   3 7.06426 5.02995   1
  -6 -11   3 0.36036 6.71097   3
   6 -11  -3 4.20422 6.45336   3
  -6  11  -3 -1.9800 5.60518   1
   6  11   3 4.37296 4.09263   2
  -1 -12  -3 947.931 43.8601   3
   1 -12   3 969.444 43.0803   3
   1  12  -3 978.588 41.0026   2
  -1  12   3 977.534 41.7354   1
  -1 -12   3 1059.80 44.4010   3
   1 -12  -3 1019.60 44.6895   3
   1  12   3 997.794 40.8001   1
  -1  12  -3 974.387 41.3827   1
   3 -12   3 563.461 28.2619   3
  -3  12   3 581.289 28.8433   1
   3  12  -3 595.009 27.4204   2
  -3 -12  -3 587.515 30.5532   3
  -3  12  -3 597.567 28.4751   1
   3 -12  -3 599.135 31.0294   3
  -3 -12   3 573.895 30.4950   3
  -5 -12  -3 254.348 19.4942   3
   5  12  -3 238.542 15.9050   2
  -5  12   3 264.748 17.6287   1
   5  12   3 245.046 15.8009   2
  -5  12  -3 235.105 16.9257   1
  -5 -12   3 224.002 19.2518   3
   5 -12  -3 266.063 20.0498   3
   0 -13  -3 3.85070 4.14188   3
   0 -13   3 3.81891 4.78442   3
   0  13   3 0.23720 3.23450   1
   0  13  -3 4.30533 2.91556   1
   2  13  -3 12.7873 6.64073   2
  -2  13   3 5.58707 3.92167   1
  -2 -13  -3 9.66825 5.54379   3
   2 -13   3 5.90674 4.63298   3
  -2  13  -3 5.37988 4.20525   1
  -2 -13   3 6.20560 4.98554   3
   2 -13  -3 2.18358 5.05633   3
   4 -13   3 6.84732 5.03261   3
  -4 -13  -3 8.21273 6.05382   3
   4  13  -3 4.77164 4.67618   2
  -4  13   3 3.30616 4.41777   1
   4 -13  -3 2.55578 5.28863   3
  -4  13  -3 2.25885 4.27963   1
  -4 -13   3 19.2092 6.97645   3
  -1  14   3 6.16115 3.70876   1
  -1 -14  -3 -0.0619 4.66585   3
   1 -14   3 10.9014 5.73276   3
  -1  14  -3 6.75118 4.46257   1
   1 -14  -3 4.25604 5.36178   3
  -1 -14   3 6.90439 5.17235   3
  -3 -14  -3 1.63896 5.18840   3
   3 -14   3 3.69189 4.77806   3
  -3  14   3 0.24892 4.22184   1
  -3 -14   3 0.46329 5.63798   3
   3 -14  -3 2.23745 5.43314   3
  -3  14  -3 2.68117 4.01416   1
   0  15   3 1.78329 3.53404   1
   0 -15  -3 -0.1247 4.96894   3
   0 -15   3 -4.8146 4.02339   3
  -2  15   3 4.00319 4.52577   1
   2 -15   3 1.45988 5.20518   3
  -2 -15  -3 -3.3406 4.24378   3
  -2  15  -3 5.87677 4.14252   1
  -2 -15   3 5.20851 5.71597   3
   2 -15  -3 0.44921 4.93973   3
   1 -16   3 101.517 13.1979   3
  -1  16   3 102.996 11.8933   1
   0   0   4 459.451 19.0841   1
   0   0  -4 463.791 18.2867   2
   0   0   4 464.217 18.4048   3
  -2   0  -4 280.189 11.8062   2
   2   0   4 267.388 12.2497   1
  -2   0  -4 227.911 12.6739   3
  -2   0   4 262.753 10.8458   1
   2   0  -4 266.803 11.0818   2
  -4   0   4 84.0901 5.17728   1
  -4   0   4 83.2087 13.0924   3
  -4   0  -4 48.2921 5.54788   2
   4   0   4 94.6239 6.62559   1
  -4   0  -4 93.0742 11.3930   3
   4   0  -4 70.5785 5.34879   2
   6   0  -4 28.5110 4.90841   2
   6   0   4 27.3682 5.35474   1
  -6   0  -4 21.8194 7.41574   3
  -6   0  -4 25.8511 4.78704   2
  -6   0   4 26.1356 9.50224   3
  -8   0   4 15.8217 10.5720   3
   8   0   4 10.6798 5.43986   2
   8   0  -4 22.2257 5.85305   2
   1   1  -4 245.090 10.4600   2
  -1   1   4 240.591 12.7998   3
  -1  -1  -4 249.147 10.5445   2
  -1   1   4 240.793 10.5267   1
  -1  -1  -4 250.101 9.93470   3
   1   1   4 226.024 11.8474   1
  -1   1  -4 244.552 10.9295   2
  -1  -1   4 266.015 10.4518   1
  -1  -1   4 242.200 12.4646   3
   1  -1  -4 256.147 10.0043   2
   3  -1   4 43.2367 4.94960   1
  -3   1   4 41.0570 3.84239   1
  -3  -1  -4 41.4706 4.47019   2
  -3   1   4 40.0186 8.34299   3
   3   1  -4 51.5270 4.00963   2
  -3  -1  -4 52.3974 6.50148   3
  -3  -1   4 44.3698 2.96631   1
  -3   1  -4 35.6413 4.09705   2
   3  -1  -4 44.6954 3.47417   2
   3   1   4 43.8979 5.13551   1
  -3   1  -4 51.3977 6.23049   3
  -3  -1   4 52.6632 9.06770   3
  -5   1   4 0.31198 6.02853   3
  -5  -1  -4 0.17279 5.43144   3
   5   1  -4 2.39809 2.62476   2
   5  -1   4 0.60039 2.56324   1
  -5   1   4 4.62266 2.31881   1
  -5  -1  -4 0.44960 2.56957   2
   5   1   4 3.14244 2.62840   1
  -5   1  -4 4.59455 2.88867   2
  -5   1  -4 9.09102 5.08756   3
   5  -1  -4 2.37969 2.21041   2
  -5  -1   4 -4.3839 4.85097   3
   7   1  -4 -1.1574 3.30133   2
  -7   1   4 4.63205 9.52461   3
   7  -1   4 -4.2534 4.94906   1
  -7   1  -4 0.75982 3.15850   2
   7  -1  -4 3.56066 3.18810   2
  -7  -1   4 -0.4333 6.69273   3
   7   1   4 2.12620 4.11998   2
   0  -2   4 2194.43 78.2694   3
   0  -2  -4 2110.33 78.7943   3
   0   2   4 2157.98 79.1473   1
   0  -2  -4 2245.46 77.9735   2
   0  -2   4 2125.92 78.4471   1
   0   2  -4 2019.71 78.7755   2
   2   2  -4 1797.44 65.3904   2
   2  -2   4 1837.14 66.0873   1
  -2  -2  -4 1807.50 65.6035   2
  -2  -2  -4 1758.46 65.6854   3
  -2   2   4 1495.77 68.6456   3
  -2   2   4 1798.52 65.5457   1
   2  -2   4 1782.64 64.8268   3
   2  -2  -4 1818.29 64.3036   2
  -2  -2   4 1843.89 63.8197   1
   2   2   4 1587.66 67.1686   1
  -2   2  -4 1844.67 65.7915   2
  -2  -2   4 1733.17 67.9902   3
   4  -2   4 1050.95 42.9066   1
  -4  -2  -4 1115.54 42.8116   2
  -4  -2  -4 1048.43 45.9257   3
  -4   2   4 928.703 49.6491   3
   4   2  -4 1067.01 42.1583   2
  -4   2   4 1079.05 42.0570   1
  -4   2  -4 1094.45 42.3468   2
  -4   2  -4 1141.98 44.5676   3
  -4  -2   4 1137.49 49.7597   3
   4   2   4 1106.04 44.2763   1
  -6  -2  -4 412.385 21.5402   2
  -6  -2  -4 522.089 30.0511   3
  -6   2   4 456.266 30.2772   3
   6   2  -4 458.521 21.3591   2
   6  -2   4 456.438 22.4114   1
  -6  -2   4 503.502 32.1825   3
  -6   2  -4 416.201 21.0237   2
   6  -2  -4 437.823 20.0679   2
  -8   2   4 145.165 20.8639   3
   8   2  -4 148.865 13.3628   2
   8  -2   4 153.894 12.1795   2
  -8  -2   4 175.848 23.2937   3
   8   2   4 123.239 12.7716   2
  -1   3   4 1258.71 46.1794   1
   1  -3   4 1184.02 45.0200   3
  -1   3   4 1185.21 44.0299   2
  -1  -3  -4 1194.54 45.3406   2
   1   3  -4 1205.74 45.7862   2
  -1  -3  -4 1226.11 46.0101   3
  -1  -3   4 1233.44 44.9656   1
  -1   3  -4 1186.11 46.1893   2
  -1  -3   4 1229.32 46.5963   3
  -1   3  -4 1252.46 46.1364   1
   1  -3  -4 1233.09 44.1886   2
   1  -3  -4 1246.31 47.4801   3
   1   3   4 1241.85 46.7624   1
   3  -3   4 715.669 28.0792   3
  -3  -3  -4 706.024 28.2754   2
   3   3  -4 723.717 28.1463   2
  -3   3   4 694.352 28.1770   1
  -3  -3  -4 708.325 29.3254   3
   3  -3  -4 703.671 26.4481   2
  -3   3  -4 694.838 27.8513   2
   3   3   4 607.269 29.8208   1
  -3   3  -4 696.881 28.7857   1
  -3  -3   4 712.691 31.5600   3
   5   3  -4 272.947 14.6284   2
   5  -3   4 311.517 16.3986   3
   5  -3   4 276.931 15.3765   1
  -5   3   4 272.222 14.5474   1
  -5   3   4 202.610 21.8353   3
  -5  -3  -4 262.724 14.7940   2
  -5  -3  -4 310.955 19.6823   3
  -5   3  -4 297.111 14.6740   2
   5   3   4 329.876 17.9875   1
  -5  -3   4 314.682 21.7543   3
   7  -3   4 68.2242 9.09570   1
   7   3  -4 64.7962 8.36329   2
  -7  -3   4 80.3318 15.5601   3
   7   3   4 71.2718 9.12217   2
  -7   3  -4 65.6502 7.98234   2
   0   4   4 1348.41 51.5162   1
   0  -4  -4 1358.88 49.8373   2
   0   4  -4 1361.87 50.8748   1
   0  -4  -4 1395.72 52.1010   3
   0  -4   4 1358.47 51.2643   3
   0   4  -4 1357.03 51.4255   2
   2   4  -4 835.793 33.7911   2
   2  -4   4 873.794 33.3786   3
  -2   4   4 846.580 34.1736   1
  -2  -4  -4 863.665 34.6413   3
  -2  -4  -4 860.111 33.6367   2
  -2   4  -4 873.132 34.4820   1
   2   4   4 878.217 34.8592   1
  -2  -4   4 862.025 35.5825   3
   2  -4  -4 898.872 36.8244   3
  -2   4  -4 887.424 34.0123   2
  -4   4   4 290.111 14.2997   1
  -4  -4  -4 303.915 14.5932   2
   4  -4   4 296.754 14.4913   3
  -4  -4  -4 273.448 16.2008   3
   4   4  -4 286.117 14.2771   2
   4  -4  -4 293.379 12.1705   2
  -4   4  -4 286.084 13.6567   2
   4   4   4 244.304 15.6974   1
  -4   4  -4 303.567 15.0274   1
  -4  -4   4 300.543 18.4259   3
   4  -4  -4 239.381 18.2662   3
   6   4  -4 102.783 9.86726   2
  -6  -4  -4 107.515 14.8529   3
   6  -4   4 88.8263 9.91331   1
  -6   4   4 100.299 8.46234   1
   6  -4   4 87.5570 11.0682   3
  -6  -4   4 122.887 16.9205   3
   6  -4  -4 93.5241 14.3378   3
  -6   4  -4 94.4252 8.61137   2
   6   4   4 73.4732 8.66609   2
   8   4  -4 45.4814 8.07673   2
  -8  -4   4 60.5996 13.1230   3
   8   4   4 49.1388 9.50856   2
   8  -4  -4 23.7461 8.66918   3
   1   5  -4 499.083 19.3480   1
  -1  -5  -4 478.170 21.1885   3
   1  -5   4 482.975 20.2496   3
  -1   5   4 507.777 20.9471   1
   1   5  -4 495.863 20.5453   2
  -1  -5  -4 494.331 19.6802   2
   1  -5  -4 505.778 22.0771   3
  -1  -5   4 508.109 21.4060   3
   1   5   4 501.216 20.7080   1
  -1   5  -4 482.851 20.6283   1
  -1   5  -4 494.731 20.7348   2
  -3   5   4 177.318 10.8713   1
  -3  -5  -4 204.122 10.8017   2
  -3  -5  -4 207.481 12.0226   3
   3  -5   4 206.354 10.6266   3
  -3   5  -4 219.536 10.5021   2
   3   5   4 232.922 11.6827   1
  -3   5  -4 191.277 11.2544   1
   3  -5  -4 210.365 8.34732   2
  -3  -5   4 209.068 13.1088   3
   3  -5  -4 218.359 14.5287   3
   5  -5   4 46.8964 6.37632   3
   5   5  -4 42.4820 5.81828   2
  -5  -5  -4 53.6521 8.87532   3
  -5   5   4 47.2312 6.37575   1
  -5   5  -4 42.0471 6.28834   1
  -5  -5   4 57.8656 10.1282   3
  -5   5  -4 49.8208 5.59605   2
   5  -5  -4 19.6637 8.02575   3
   5   5   4 36.9164 5.76670   2
   7  -5   4 7.32396 4.95522   1
   7   5  -4 9.22522 4.60588   2
   7  -5  -4 0.26583 6.02175   3
  -7  -5   4 6.23252 7.16714   3
   7   5   4 12.5870 5.23731   2
   0  -6   4 2302.19 86.9298   3
   0   6  -4 2322.67 86.0579   1
   0   6   4 2340.67 84.6674   2
   0   6  -4 2367.48 86.6362   2
   0   6   4 2302.70 86.7308   1
   0  -6  -4 2346.79 87.9314   3
  -2   6   4 2017.02 76.2304   1
   2   6  -4 1970.63 75.5096   2
   2  -6   4 2020.40 75.5087   3
  -2  -6  -4 2015.88 76.9006   3
  -2   6  -4 2058.17 76.2651   1
   2  -6  -4 2064.72 78.4284   3
   2   6   4 1970.72 74.8883   2
  -2   6  -4 1955.42 75.1898   2
  -2  -6   4 2073.38 77.5980   3
   2   6   4 1971.20 75.2572   1
  -2  -6   4 2037.88 73.1114   1
   4  -6   4 1183.88 47.1925   3
   4   6  -4 1168.56 47.3480   2
  -4  -6  -4 1171.56 49.5298   3
  -4   6   4 1186.71 47.7422   1
  -4   6  -4 1182.25 48.2732   1
  -4   6  -4 1188.41 46.1677   2
   4  -6  -4 1156.07 52.2030   3
  -4  -6   4 1163.45 51.1157   3
   4   6   4 1197.43 47.2286   2
   4   6   4 1265.58 46.8590   1
  -6  -6  -4 475.632 28.3868   3
  -6   6   4 507.515 24.3076   1
   6   6  -4 501.596 24.2136   2
  -6   6  -4 474.696 24.9052   1
   6  -6  -4 431.209 28.9830   3
  -6  -6   4 505.771 31.2640   3
   6   6   4 479.324 23.9120   2
   8  -6   4 149.297 15.5744   1
   8  -6  -4 149.400 26.0474   3
  -1  -7  -4 284.857 15.0725   3
   1   7  -4 301.076 12.7537   1
   1   7  -4 266.370 13.5765   2
   1  -7   4 288.641 14.0269   3
  -1   7   4 306.678 14.4401   1
   1   7   4 290.086 13.7168   1
  -1   7  -4 285.972 13.9004   1
  -1  -7   4 310.590 15.0913   3
  -1   7  -4 287.546 13.9445   2
   1  -7  -4 277.603 15.4662   3
   1   7   4 296.251 12.7361   2
  -3   7   4 206.537 11.9237   1
   3   7  -4 200.802 11.3703   2
  -3  -7  -4 200.105 12.9746   3
   3  -7   4 217.121 11.6231   3
   3   7   4 203.825 11.0944   2
   3   7   4 218.191 10.6069   1
  -3   7  -4 184.291 11.6827   1
   3  -7  -4 197.289 14.2345   3
  -3   7  -4 213.357 10.6830   2
  -3  -7   4 201.426 13.4864   3
   5   7  -4 118.480 10.3127   2
  -5  -7  -4 120.959 13.4127   3
  -5   7   4 99.9841 10.0586   1
   5  -7   4 94.7579 9.32861   3
  -5   7  -4 91.9545 9.75634   1
   5   7   4 93.1305 9.32000   2
  -5  -7   4 90.5043 12.5549   3
   5  -7  -4 108.763 13.7724   3
  -7   7   4 29.2118 6.84509   1
   7  -7   4 21.3819 7.07946   1
   7   7  -4 30.7177 7.15252   2
   7   7   4 23.1379 5.97820   2
   7  -7  -4 25.1631 9.20819   3
  -7  -7   4 30.2825 9.99252   3
   0   8  -4 1176.72 45.4471   1
   0   8   4 1134.69 46.1290   1
   0  -8  -4 1203.87 47.8995   3
   0   8   4 1191.11 43.7907   2
   0  -8   4 1172.51 46.8033   3
   0   8  -4 1164.96 46.0248   2
  -2  -8  -4 840.654 36.0270   3
  -2   8   4 849.200 34.9587   1
   2   8  -4 848.271 31.7156   1
   2   8  -4 833.659 34.1407   2
   2  -8   4 842.515 34.3566   3
   2   8   4 831.816 33.2140   2
  -2   8  -4 844.384 33.5243   2
   2  -8  -4 849.057 36.9176   3
  -2   8  -4 831.419 34.6850   1
   2   8   4 818.901 33.3103   1
  -2  -8   4 762.599 35.5295   3
   4  -8   4 344.470 17.7698   3
  -4  -8  -4 372.313 20.4963   3
   4   8  -4 378.274 18.3876   2
  -4   8   4 358.895 18.6163   1
   4   8   4 361.110 17.9037   2
   4  -8  -4 355.275 21.9307   3
  -4   8  -4 336.305 18.7299   1
  -4  -8   4 350.120 20.9725   3
  -6  -8  -4 117.940 14.5911   3
  -6   8   4 137.671 11.5328   1
   6   8  -4 134.587 12.2687   2
   6  -8  -4 117.493 15.5528   3
   6   8   4 126.228 11.8955   2
  -6  -8   4 151.598 18.3373   3
  -6   8  -4 99.6703 11.4842   1
  -1   9   4 4.02109 2.83941   1
   1   9  -4 3.25144 2.77354   2
   1   9  -4 2.03482 1.90343   1
   1  -9   4 1.04301 2.77900   3
  -1  -9  -4 6.72065 3.93774   3
   1  -9  -4 4.43249 3.69107   3
   1   9   4 5.12215 2.28519   1
  -1   9  -4 1.30917 2.63969   2
   1   9   4 2.55067 1.90946   2
  -1   9  -4 2.85739 2.29533   1
  -1  -9   4 0.39801 2.72053   3
  -3   9   4 0.40180 2.90201   1
   3  -9   4 -1.5101 2.69581   3
  -3  -9  -4 7.09096 4.53343   3
   3   9  -4 -4.4276 2.65995   2
  -3  -9   4 1.34951 4.01585   3
  -3   9  -4 3.76471 3.00964   1
   3   9   4 2.76090 1.94195   1
   3  -9  -4 2.41841 3.92331   3
   3   9   4 0.33496 2.64588   2
  -5   9   4 6.33776 4.15922   1
   5  -9   4 6.91856 4.83713   3
   5   9  -4 5.53800 3.47381   2
  -5  -9  -4 3.21213 4.51411   3
   5   9   4 1.85956 3.20012   2
   5  -9  -4 7.57679 5.85456   3
  -5   9  -4 4.05292 4.24957   1
  -5  -9   4 6.92611 5.78082   3
  -7   9   4 10.0627 5.60576   1
   7  -9  -4 6.90336 6.76830   3
   0  10  -4 1254.34 49.4539   2
   0 -10  -4 1213.98 51.8112   3
   0  10  -4 1266.55 48.9210   1
   0 -10   4 1259.18 50.8460   3
   0  10   4 1224.58 49.6135   1
  -2 -10  -4 1048.32 46.2613   3
   2  10  -4 1133.29 44.3121   2
   2 -10   4 1073.01 44.6987   3
  -2  10   4 1064.07 44.7862   1
  -2  10  -4 986.931 44.1103   1
   2 -10  -4 1120.56 47.3956   3
  -2 -10   4 1133.57 46.5361   3
   2  10   4 1119.31 42.9388   2
   2  10   4 1074.05 42.9896   1
   4 -10   4 650.320 30.0844   3
  -4  10   4 697.796 31.3594   1
  -4 -10  -4 655.382 32.8348   3
   4  10  -4 640.511 29.8347   2
  -4 -10   4 621.011 32.9532   3
   4 -10  -4 689.781 34.3692   3
   4  10   4 655.414 29.4107   2
  -4  10  -4 665.913 31.1444   1
  -6  10   4 243.221 17.5038   1
  -6 -10  -4 312.069 22.3385   3
   6  10  -4 261.360 17.3598   2
   6 -10  -4 270.367 21.4370   3
  -6  10  -4 286.457 18.6817   1
   6  10   4 278.114 17.5225   2
  -6 -10   4 280.054 22.3856   3
   1 -11   4 54.9212 7.49676   3
  -1 -11  -4 47.4586 7.85495   3
  -1  11   4 43.2074 6.73712   1
   1  11  -4 59.5964 6.81833   2
   1  11  -4 51.4550 5.50146   1
  -1  11  -4 50.0100 6.39131   1
   1 -11  -4 46.8498 8.29143   3
   1  11   4 53.1996 6.32496   1
  -1 -11   4 62.6866 8.46080   3
   3 -11   4 21.1245 5.28980   3
  -3 -11  -4 19.7164 6.48565   3
   3  11  -4 17.0016 4.73602   2
  -3  11   4 9.53341 4.28115   1
   3 -11  -4 21.8209 7.19562   3
   3  11   4 16.6626 4.21618   2
  -3  11  -4 20.2179 5.25729   1
  -3 -11   4 16.7112 5.89653   3
  -5  11   4 -1.4392 3.84155   1
   5  11  -4 10.4577 4.59814   2
  -5 -11  -4 8.78974 5.77757   3
   5 -11  -4 4.39909 5.86779   3
  -5  11  -4 8.09706 4.38643   1
   5  11   4 0.35932 3.08485   2
  -5 -11   4 14.2956 7.32251   3
   0 -12  -4 296.532 18.4600   3
   0 -12   4 303.718 17.8344   3
   0  12  -4 289.526 15.4671   1
   0  12   4 284.183 16.0988   1
  -2 -12  -4 224.973 16.1058   3
  -2  12   4 229.922 14.3980   1
   2 -12   4 216.555 14.7111   3
   2  12  -4 244.422 14.1903   2
  -2  12  -4 235.663 14.5212   1
  -2 -12   4 217.347 15.8051   3
   2 -12  -4 230.013 16.9112   3
   4  12  -4 102.817 10.8292   2
  -4  12   4 112.139 12.1275   1
   4 -12   4 100.778 11.0606   3
  -4 -12  -4 109.157 13.2823   3
  -4  12  -4 126.156 12.8128   1
   4 -12  -4 101.101 13.4602   3
   4  12   4 103.787 10.2595   2
  -4 -12   4 106.700 14.0182   3
  -1  13   4 73.3911 8.83225   1
   1 -13   4 89.1703 10.5555   3
  -1 -13  -4 73.8255 10.7166   3
  -1  13  -4 73.9716 8.67989   1
  -1 -13   4 83.7804 10.8974   3
   1 -13  -4 87.5944 11.6915   3
   1  13   4 88.3470 8.89945   1
   3  13  -4 64.1904 8.63524   2
   3 -13   4 69.8566 9.50102   3
  -3 -13  -4 82.1438 11.8580   3
  -3  13   4 64.1845 9.29937   1
  -3  13  -4 76.6223 9.73029   1
   3 -13  -4 63.9540 11.1081   3
  -3 -13   4 69.8589 11.6075   3
  -5 -13  -4 20.3547 10.7212   3
   5  13  -4 30.7836 7.93183   2
   5 -13  -4 26.8303 10.0135   3
   0 -14   4 209.170 16.0517   3
   0 -14  -4 237.375 17.8613   3
   0  14   4 224.563 14.2376   1
   2 -14   4 205.572 15.2774   3
  -2 -14  -4 217.933 17.3921   3
  -2  14   4 206.126 14.5157   1
  -2  14  -4 183.476 14.0435   1
  -2 -14   4 211.098 16.4499   3
   2 -14  -4 193.989 16.2633   3
   4  14  -4 153.933 13.9962   2
  -4 -14  -4 133.957 18.5256   3
  -4  14  -4 130.902 18.6774   1
   4 -14  -4 122.380 15.7720   3
  -1 -15  -4 19.3322 7.36030   3
  -1  15   4 16.8282 5.13427   1
   1 -15   4 17.5906 6.57443   3
  -1  15  -4 16.0882 5.52603   1
  -1 -15   4 17.8161 7.23409   3
   1 -15  -4 21.0872 10.1047   3
   3 -15   4 20.9358 6.70407   3
  -3  15  -4 4.96593 4.56455   1
   0 -16   4 41.3265 9.29905   3
   2 -16   4 47.2801 9.41154   3
  -2  16  -4 24.2264 6.64477   1
  -1   0  -5 2089.87 77.8425   2
   1   0  -5 2220.99 77.2200   2
  -1   0   5 2172.29 77.5600   1
  -1   0   5 1899.27 80.0977   3
   1   0   5 2148.41 78.7863   1
  -3   0   5 1094.73 49.4758   3
  -3   0  -5 1157.11 45.5058   3
  -3   0   5 1117.44 41.5116   1
  -3   0  -5 1077.74 42.6714   2
   3   0   5 1064.44 43.3320   1
   3   0  -5 1104.62 41.8463   2
   5   0  -5 401.648 18.0318   2
   5   0   5 385.303 19.5444   1
  -5   0  -5 443.211 23.8784   3
  -5   0   5 373.569 26.6243   3
  -5   0  -5 398.837 19.1632   2
   7   0  -5 136.196 10.3186   2
  -7   0  -5 134.734 10.9003   2
  -7   0   5 148.495 19.8552   3
   0   1  -5 2675.27 98.1105   2
   0  -1   5 2691.07 98.0906   3
   0  -1  -5 2783.83 97.8369   3
   0  -1   5 2656.14 98.4756   1
   0  -1  -5 2661.51 97.6614   2
   0   1   5 2583.91 98.7320   1
  -2  -1  -5 1880.38 73.0010   2
  -2   1   5 1902.07 77.4838   3
  -2  -1  -5 1960.63 72.6297   3
  -2   1   5 1987.49 72.5594   1
   2  -1   5 1929.43 73.4953   1
   2   1  -5 1966.93 72.5737   2
   2   1   5 1971.92 74.6677   1
  -2   1  -5 2028.88 73.2972   2
  -2  -1   5 2026.03 71.8612   1
   2  -1  -5 2007.41 72.0502   2
   4  -1   5 668.089 29.3742   1
   4   1  -5 712.440 28.3654   2
  -4  -1  -5 753.213 33.5841   3
  -4  -1  -5 662.720 29.0440   2
  -4   1   5 719.611 28.0269   1
  -4   1  -5 658.504 28.7295   2
  -4   1  -5 720.498 31.1171   3
   4   1   5 709.762 30.1198   1
   4  -1  -5 679.201 27.6771   2
  -4  -1   5 700.854 26.9830   1
  -4  -1   5 715.544 36.5127   3
  -6   1   5 187.093 22.3630   3
   6   1  -5 162.514 10.5599   2
  -6  -1  -5 177.864 11.3928   2
   6  -1   5 156.465 11.6306   1
   6  -1  -5 162.731 9.98930   2
   6   1   5 152.744 12.0194   1
  -6  -1   5 179.538 21.7691   3
  -6   1  -5 147.158 10.6985   2
   8   1  -5 30.9639 6.75735   2
  -8   1   5 24.0973 11.3588   3
   8  -1   5 32.4544 6.94105   2
  -8  -1   5 27.7772 10.9457   3
   8   1   5 26.2339 6.93384   2
  -1   2   5 36.7097 3.79021   1
  -1  -2  -5 38.4588 3.43785   2
   1  -2   5 29.7879 3.46494   1
   1  -2   5 39.9665 2.25052   3
  -1  -2  -5 42.6065 3.18831   3
  -1  -2   5 43.6750 3.85336   1
   1  -2  -5 46.7253 5.77206   3
   1   2   5 46.6259 5.57164   1
  -1  -2   5 45.8498 4.80840   3
  -1   2  -5 34.1843 3.76566   2
   1  -2  -5 40.1118 2.88767   2
   3   2  -5 91.1812 6.14612   2
   3  -2   5 109.022 6.22765   3
  -3  -2  -5 93.2609 6.64255   2
  -3  -2  -5 98.2031 7.23749   3
   3  -2   5 95.5810 6.93341   1
  -3   2   5 98.2044 6.14990   1
  -3   2   5 82.7809 10.9340   3
  -3   2  -5 102.938 6.46717   2
   3  -2  -5 98.9646 5.33820   2
   3   2   5 100.497 9.44392   1
  -3  -2   5 83.4590 10.0145   3
  -3  -2   5 101.185 4.58851   1
  -5   2   5 124.339 17.2365   3
  -5   2   5 108.895 7.70951   1
  -5  -2  -5 140.999 15.1003   3
   5   2  -5 92.7170 7.72253   2
   5  -2   5 110.139 8.88955   1
  -5  -2  -5 114.455 8.70282   2
  -5   2  -5 125.721 9.87488   3
  -5  -2   5 98.8757 14.0499   3
  -5   2  -5 110.454 8.45468   2
   5   2   5 136.147 10.8773   1
   5  -2  -5 113.528 7.08857   2
   7   2  -5 70.9990 8.02732   2
   7  -2   5 66.0421 9.09445   1
  -7   2   5 88.6325 15.8448   3
  -7  -2   5 75.6897 15.1719   3
  -7   2  -5 79.8625 8.82131   2
   7   2   5 87.2681 9.72954   2
   0   3  -5 406.089 16.6561   2
   0  -3   5 375.896 15.9129   1
   0  -3  -5 386.649 16.5810   3
   0   3   5 395.412 16.7819   1
   0  -3   5 391.060 15.8310   3
   0  -3  -5 363.011 15.0129   2
  -2  -3  -5 194.422 9.49484   2
  -2   3   5 187.000 9.53482   1
   2  -3   5 190.490 8.40602   3
   2   3  -5 191.546 9.47735   2
   2  -3   5 188.346 9.87823   1
  -2  -3  -5 186.459 9.60939   3
  -2  -3   5 195.865 7.64555   1
   2  -3  -5 203.430 7.97475   2
   2   3   5 170.974 11.3255   1
  -2  -3   5 198.558 11.4316   3
   2  -3  -5 183.546 12.5443   3
  -2   3  -5 178.104 9.74348   2
  -4   3   5 30.9196 8.59835   3
  -4  -3  -5 25.3707 4.14916   2
   4   3  -5 40.2001 5.14334   2
   4  -3   5 38.9485 4.89136   3
   4  -3   5 35.4930 5.13354   1
  -4   3   5 33.4433 4.47046   1
  -4  -3  -5 37.0314 6.25250   3
  -4   3  -5 29.4304 4.22923   2
   4   3   5 41.8057 7.36024   1
  -4  -3   5 39.0020 7.79148   3
   4  -3  -5 32.2532 3.44055   2
  -6   3   5 4.13302 6.10925   3
  -6  -3  -5 4.16060 3.56241   2
  -6   3   5 3.09651 3.35857   1
   6   3  -5 1.14340 3.34709   2
   6  -3   5 1.19077 3.44225   1
  -6  -3   5 11.2680 8.63743   3
  -6   3  -5 6.57499 3.29086   2
   8   3  -5 4.42072 4.76425   2
   8   3   5 -1.1944 5.05838   2
  -8  -3   5 5.73098 6.69351   3
   8  -3  -5 -5.0977 6.16720   3
  -1  -4  -5 1106.16 42.7925   3
   1  -4   5 1128.23 41.6957   3
  -1  -4  -5 1098.19 41.6740   2
  -1   4   5 1105.49 42.8144   1
   1   4  -5 1107.96 42.4844   2
  -1   4  -5 1090.47 42.6292   1
   1   4   5 1118.02 43.2169   1
  -1   4  -5 1084.53 42.9067   2
  -1  -4   5 1135.11 43.2342   3
   1  -4  -5 1135.23 44.1263   3
  -1  -4   5 1106.59 41.4209   1
  -3  -4  -5 521.290 22.6372   3
   3  -4   5 495.523 20.6017   3
  -3   4   5 494.267 21.6260   1
  -3  -4  -5 513.478 21.5563   2
   3  -4  -5 505.354 19.2151   2
   3  -4  -5 489.024 25.8034   3
  -3   4  -5 499.424 21.2503   2
  -3  -4   5 519.770 24.4966   3
   3   4   5 460.222 23.5084   1
  -3   4  -5 513.520 22.3847   1
   5   4  -5 182.305 11.2499   2
  -5  -4  -5 175.568 13.8104   3
  -5  -4  -5 176.424 11.0720   2
   5  -4   5 176.851 10.8132   3
  -5   4   5 177.168 11.0502   1
   5  -4   5 176.908 12.0757   1
  -5   4  -5 188.623 10.8930   2
   5   4   5 190.796 14.5724   1
  -5  -4   5 137.573 16.4422   3
   5  -4  -5 136.743 17.2087   3
   7  -4   5 68.5274 9.64870   1
   7   4  -5 89.9043 9.88609   2
  -7  -4   5 52.0114 12.9590   3
  -7   4  -5 78.8454 8.77457   2
   7  -4  -5 71.3279 13.6254   3
   7   4   5 72.9335 9.02975   2
   0  -5  -5 4090.96 148.098   2
   0   5  -5 4106.59 149.499   1
   0  -5  -5 4068.95 150.971   3
   0   5  -5 4145.06 150.184   2
   0  -5   5 4087.81 149.919   3
   0   5   5 4123.61 150.363   1
   2  -5   5 2892.72 106.323   3
  -2   5   5 2956.15 107.560   1
  -2  -5  -5 2823.34 106.464   2
   2   5  -5 2884.25 107.088   2
  -2  -5  -5 2824.35 107.822   3
   2  -5  -5 2858.33 110.116   3
  -2   5  -5 2970.06 107.252   2
   2   5   5 2872.56 107.772   1
  -2  -5   5 2834.66 104.800   1
  -2  -5   5 2942.21 108.891   3
  -2   5  -5 3016.46 107.886   1
  -4   5   5 1142.61 45.3200   1
  -4  -5  -5 1132.46 47.1420   3
   4   5  -5 1126.30 45.0874   2
   4  -5   5 1155.09 44.4615   3
  -4  -5  -5 1143.72 45.1526   2
  -4   5  -5 1154.02 44.3847   2
  -4  -5   5 1163.55 49.5583   3
  -4   5  -5 1162.40 46.2873   1
   4   5   5 1124.61 47.1008   1
   4  -5  -5 968.977 49.8652   3
  -6  -5  -5 321.714 21.8394   3
   6   5  -5 306.400 16.8770   2
   6  -5   5 304.394 17.9639   1
  -6   5   5 284.426 16.3624   1
  -6   5  -5 312.382 15.8775   2
  -6  -5   5 280.726 23.1156   3
   6  -5  -5 214.143 23.3931   3
   6   5   5 280.770 16.6097   2
   8  -5   5 60.4023 9.58746   1
   8  -5  -5 49.0804 11.9348   3
   1  -6   5 116.538 7.18829   3
  -1  -6  -5 130.072 8.21900   3
  -1   6   5 125.669 7.79034   1
   1   6  -5 124.178 7.60915   2
  -1   6  -5 126.362 7.81627   2
  -1  -6   5 118.346 8.12127   3
   1   6   5 122.332 7.63783   1
   1  -6  -5 122.206 8.97427   3
   1   6   5 113.835 6.25723   2
  -1   6  -5 122.874 7.57004   1
  -3  -6  -5 16.4708 4.28987   3
   3  -6   5 21.0070 3.56892   3
  -3   6   5 15.1635 3.59586   1
   3   6  -5 25.5887 4.28487   2
  -3  -6   5 24.1413 5.19549   3
   3  -6  -5 25.5758 6.61237   3
  -3   6  -5 25.3959 4.69133   1
  -3   6  -5 26.6783 4.00212   2
   3   6   5 31.1633 4.66125   1
   5  -6   5 6.45325 2.90968   3
   5   6  -5 3.54966 3.36280   2
  -5   6   5 5.04771 3.82190   1
  -5  -6  -5 1.54574 4.57992   3
  -5  -6   5 6.17899 4.68889   3
   5  -6  -5 1.75667 5.86451   3
   5   6   5 0.69993 2.71657   2
  -5   6  -5 3.65975 3.43855   1
  -5   6  -5 2.15602 2.64114   2
   7   6  -5 18.6588 5.74738   2
   7  -6   5 13.5785 5.92251   1
   7   6   5 23.2534 5.97851   2
  -7  -6   5 19.6141 9.30453   3
   7  -6  -5 12.8742 8.73002   3
   0   7  -5 278.502 13.9059   2
   0   7   5 280.734 11.6325   2
   0   7  -5 295.304 13.3835   1
   0  -7  -5 275.174 15.0682   3
   0  -7   5 301.609 14.3183   3
   0   7   5 279.368 13.9201   1
   2  -7   5 170.787 9.53982   3
  -2  -7  -5 154.994 10.6532   3
   2   7  -5 178.401 10.1691   2
   2   7   5 176.090 9.73899   1
  -2   7  -5 171.044 10.3581   1
  -2   7  -5 171.836 9.64673   2
   2  -7  -5 167.741 11.9488   3
   2   7   5 164.179 8.92235   2
   4  -7   5 48.3664 5.89360   3
  -4  -7  -5 45.9313 7.56576   3
  -4   7   5 53.1459 6.81272   1
   4   7  -5 60.2393 6.77642   2
   4   7   5 50.5545 6.03787   2
  -4   7  -5 45.5411 5.28339   2
   4   7   5 59.0888 9.52497   1
  -4   7  -5 50.8179 6.98713   1
   4  -7  -5 58.4377 10.0888   3
  -4  -7   5 67.4545 9.98637   3
   6   7  -5 3.37401 4.54898   2
  -6   7   5 19.0170 5.50123   1
  -6  -7  -5 13.6940 6.57082   3
   6   7   5 9.81484 4.52570   2
  -6  -7   5 7.26224 6.76108   3
   6  -7  -5 0.58037 6.23973   3
   1   8  -5 108.976 7.39236   2
   1   8  -5 88.4056 5.86265   1
  -1  -8  -5 99.6093 8.44648   3
   1  -8   5 101.006 7.37015   3
  -1   8   5 91.4373 7.33299   1
   1  -8  -5 83.7132 8.90181   3
   1   8   5 98.5714 6.96166   1
  -1   8  -5 77.4215 6.71090   1
   1   8   5 95.5555 5.84094   2
  -1  -8   5 84.8665 8.72771   3
  -1   8  -5 107.183 7.65990   2
   3   8  -5 52.3033 6.48167   2
   3  -8   5 42.9841 5.80362   3
  -3  -8  -5 52.1173 7.37833   3
  -3   8   5 55.4017 6.96494   1
  -3   8  -5 40.4837 5.93335   1
  -3  -8   5 52.4420 7.99281   3
   3  -8  -5 65.6836 9.39233   3
  -3   8  -5 48.6059 5.45383   2
   3   8   5 56.0604 5.77944   1
   3   8   5 46.2342 5.64224   2
  -5   8   5 31.5229 6.28620   1
  -5  -8  -5 22.9887 6.38414   3
   5   8  -5 35.5405 6.28029   2
   5  -8  -5 32.7710 8.63779   3
  -5  -8   5 22.8370 7.35777   3
  -5   8  -5 24.2202 5.89474   1
   5   8   5 29.7215 5.61003   2
  -7   8   5 15.9976 6.12127   1
   7   8  -5 12.7973 5.99332   2
   7  -8   5 16.3154 6.99849   1
   7  -8  -5 25.8565 9.53050   3
  -7  -8   5 5.51460 8.72903   3
   7   8   5 26.7608 6.73095   2
   0  -9   5 550.171 24.2249   3
   0   9  -5 465.181 22.9690   2
   0   9  -5 525.801 22.5658   1
   0  -9  -5 538.075 25.2200   3
   0   9   5 532.816 23.5642   1
  -2   9   5 373.129 18.5051   1
  -2  -9  -5 370.510 19.6488   3
   2   9  -5 371.255 17.9289   2
   2  -9   5 380.658 17.9453   3
  -2   9  -5 366.828 17.2531   2
   2   9   5 304.389 16.4125   1
  -2  -9   5 375.605 19.5854   3
   2  -9  -5 385.796 20.7227   3
  -2   9  -5 356.349 18.0714   1
   2   9   5 338.958 16.3181   2
   4   9  -5 148.893 10.5305   2
  -4  -9  -5 142.218 13.9146   3
   4  -9   5 138.317 10.0242   3
  -4   9   5 116.847 9.97043   1
  -4   9  -5 120.110 10.5436   1
   4   9   5 154.732 10.0799   2
   4  -9  -5 123.598 14.3117   3
  -4  -9   5 99.0832 12.2176   3
  -6   9   5 37.0933 7.22611   1
  -6  -9  -5 43.2496 10.1623   3
   6   9  -5 38.0496 7.07200   2
   6  -9  -5 22.8504 8.89556   3
   6   9   5 32.6808 6.69044   2
  -6  -9   5 44.8787 10.5683   3
  -6   9  -5 39.8012 7.81884   1
  -1  10   5 28.4666 5.23330   1
   1  10  -5 25.0061 4.75356   2
   1  10  -5 38.5783 4.76097   1
  -1 -10  -5 29.7369 6.05641   3
   1 -10   5 33.4505 5.56546   3
   1  10   5 25.7519 4.60315   1
   1 -10  -5 25.8315 6.17859   3
  -1 -10   5 32.4380 5.89534   3
  -1  10  -5 29.0484 4.97451   1
  -1  10  -5 25.2643 4.58639   2
   3 -10   5 2.92843 3.06033   3
  -3 -10  -5 7.62732 4.52998   3
  -3  10   5 4.15112 3.42833   1
   3  10  -5 4.77356 3.54008   2
  -3 -10   5 -3.2717 3.94880   3
   3 -10  -5 8.99717 5.32914   3
  -3  10  -5 4.13140 3.64148   1
   3  10   5 1.02525 2.48740   2
  -5  10   5 5.06576 4.60422   1
   5  10  -5 2.99447 3.91884   2
  -5 -10  -5 -0.1908 4.20245   3
  -5  10  -5 3.42554 4.05645   1
   5 -10  -5 7.81085 6.11049   3
   5  10   5 6.56397 3.83116   2
  -5 -10   5 6.76285 6.41306   3
   0  11  -5 556.487 23.9504   1
   0  11  -5 526.519 24.5450   2
   0 -11  -5 547.574 27.0792   3
   0  11   5 520.880 24.5502   1
   0 -11   5 499.713 25.3443   3
   2 -11   5 403.320 20.1309   3
   2  11  -5 376.297 19.4799   2
  -2  11   5 414.141 20.5724   1
  -2 -11  -5 363.213 21.6128   3
   2 -11  -5 390.016 22.6587   3
  -2  11  -5 378.121 19.8078   1
  -2 -11   5 356.598 21.0930   3
   2  11   5 380.502 18.3693   1
  -4  11   5 161.997 12.7716   1
  -4 -11  -5 166.660 14.0410   3
   4  11  -5 147.149 11.8786   2
   4 -11  -5 175.400 18.2241   3
  -4 -11   5 171.175 17.4642   3
   4  11   5 167.490 11.3929   2
  -4  11  -5 152.623 12.3730   1
  -6 -11  -5 43.9246 11.0331   3
   6  11   5 33.1732 6.96074   2
   6 -11  -5 46.9811 11.5070   3
  -1 -12  -5 134.397 13.8249   3
  -1  12   5 144.279 10.9389   1
   1  12  -5 141.238 10.5262   2
   1 -12   5 125.809 10.7977   3
   1 -12  -5 135.528 13.8225   3
  -1 -12   5 127.825 12.9217   3
   1  12   5 120.484 9.57130   1
  -1  12  -5 128.294 10.2020   1
   3  12  -5 84.3067 9.62636   2
  -3  12   5 77.7642 9.89461   1
  -3 -12  -5 84.9299 11.4397   3
   3 -12   5 77.9996 9.50827   3
   3 -12  -5 79.5725 11.9432   3
  -3 -12   5 74.9261 10.9130   3
  -3  12  -5 93.2807 10.5410   1
  -5  12   5 32.4571 7.59350   1
   5  12  -5 40.9999 7.78341   2
  -5 -12  -5 40.9916 8.99965   3
  -5  12  -5 50.5786 8.81999   1
  -5 -12   5 54.8103 11.0845   3
   5 -12  -5 52.9111 11.5379   3
   5  12   5 46.3211 7.71685   2
   0 -13   5 16.8759 5.69159   3
   0  13  -5 13.8898 4.84781   1
   0  13   5 15.0169 4.91842   1
   0 -13  -5 19.0326 6.72566   3
   2 -13   5 14.6236 5.63701   3
  -2 -13  -5 13.0430 6.21081   3
   2  13  -5 5.37766 4.13812   2
  -2  13   5 4.14620 4.04366   1
   2 -13  -5 2.55232 4.76047   3
  -2 -13   5 5.40647 5.09445   3
  -2  13  -5 8.16085 4.30441   1
   4  13  -5 -0.5606 4.11699   2
  -4  13   5 -0.2832 4.36664   1
  -4 -13  -5 18.2438 7.02315   3
  -4 -13   5 -2.4723 6.06903   3
   4 -13  -5 3.32113 6.15587   3
  -4  13  -5 1.59404 4.29777   1
  -1  14   5 16.2246 5.07000   1
  -1 -14  -5 27.1134 7.67732   3
   1 -14   5 22.5019 6.78778   3
  -1 -14   5 20.7681 6.87007   3
   1 -14  -5 6.57074 5.85534   3
  -1  14  -5 21.9973 5.20065   1
   3  14  -5 27.2106 6.19057   2
   3 -14   5 28.8378 7.11275   3
  -3  14   5 20.3306 6.52988   1
  -3 -14  -5 31.3523 8.80383   3
   3 -14  -5 18.7462 8.63518   3
  -3  14  -5 35.1600 7.53538   1
  -3 -14   5 23.7202 7.54675   3
   0 -15  -5 169.905 18.0165   3
   0 -15   5 191.395 15.4274   3
   0  15   5 202.011 13.6466   1
   2 -15   5 147.207 15.1342   3
  -2 -15  -5 175.274 18.4792   3
  -2  15   5 141.271 14.3726   1
  -2 -15   5 145.550 16.0933   3
   2 -15  -5 165.712 18.2360   3
  -2  15  -5 153.853 13.0097   1
   1 -16   5 145.040 15.3793   3
  -1  16   5 131.606 13.7335   1
   0   0   6 7938.67 295.164   1
   0   0   6 8102.42 293.938   3
   0   0  -6 8401.02 294.224   2
  -2   0   6 7419.08 265.628   1
   2   0   6 6697.46 267.291   1
  -2   0  -6 7360.90 265.913   3
  -2   0  -6 7276.92 266.519   2
   2   0  -6 7433.83 265.630   2
  -2   0   6 8022.29 272.242   3
  -4   0   6 3884.52 144.378   1
   4   0  -6 3941.85 145.042   2
  -4   0  -6 4482.91 150.023   3
  -4   0  -6 3815.39 146.119   2
   4   0   6 3733.64 146.910   1
   6   0  -6 1241.56 50.3281   2
  -6   0   6 1298.81 62.1438   3
   6   0   6 1256.24 52.9381   1
  -6   0  -6 1305.26 51.8506   2
  -8   0   6 374.875 30.9844   3
  -1  -1  -6 49.5639 3.07074   3
  -1   1   6 40.6486 4.34624   1
  -1   1   6 50.5101 6.26389   3
   1  -1   6 51.6799 5.34386   1
   1   1  -6 34.9374 3.82340   2
  -1  -1   6 55.1942 6.87416   3
  -1  -1   6 56.2486 4.51650   1
   1  -1  -6 54.4663 3.94311   2
  -1   1  -6 51.5250 5.00408   2
   1   1   6 50.0681 5.95449   1
  -3  -1  -6 81.8497 6.96378   3
   3  -1   6 95.0897 6.71249   1
  -3   1   6 80.8122 10.8017   3
  -3  -1  -6 76.2431 5.97728   2
  -3   1   6 79.8031 5.31737   1
   3   1  -6 85.5456 5.54419   2
   3   1   6 76.3875 7.71818   1
  -3   1  -6 92.0934 5.78419   3
  -3  -1   6 71.5413 4.50142   1
   3  -1  -6 79.9760 4.98683   2
  -3  -1   6 67.7294 9.79962   3
  -3   1  -6 70.0317 6.42946   2
   5  -1   6 51.9606 7.01339   1
  -5  -1  -6 88.9962 11.8796   3
  -5   1   6 57.7508 11.7299   3
  -5  -1  -6 61.8254 6.85785   2
   5   1  -6 73.7005 6.69695   2
  -5   1   6 65.3198 5.60087   1
  -5   1  -6 76.5262 7.61550   2
   5   1   6 61.3404 7.93226   1
  -5  -1   6 52.4061 11.0879   3
   5  -1  -6 58.7085 5.76653   2
  -7   1   6 21.1333 9.55822   3
  -7  -1  -6 26.1447 5.61091   2
   7   1  -6 14.2953 4.82801   2
   7  -1   6 21.7391 6.15947   1
  -7  -1   6 28.0349 10.4656   3
  -7   1  -6 27.6718 5.75837   2
   7  -1  -6 29.2509 5.32452   2
   0  -2   6 2006.68 75.4618   3
   0  -2  -6 2094.56 76.0591   3
   0  -2   6 2068.26 76.2953   1
   0  -2  -6 2048.58 75.4403   2
   0   2  -6 2084.83 76.3973   2
   0   2   6 2016.61 76.9370   1
   2  -2   6 1677.42 64.0106   1
   2   2  -6 1715.47 63.1419   2
  -2   2   6 1738.61 63.2972   1
   2  -2   6 1652.64 61.1600   3
  -2   2   6 1605.20 67.0180   3
  -2  -2  -6 1666.20 63.2782   2
  -2  -2  -6 1662.28 62.7534   3
  -2  -2   6 1761.27 66.8524   3
   2  -2  -6 1726.06 62.0246   2
   2   2   6 1611.02 65.7588   1
  -2  -2   6 1675.12 61.8525   1
  -2   2  -6 1756.72 63.8419   2
  -4  -2  -6 960.512 39.5093   2
   4   2  -6 991.011 38.8530   2
  -4   2   6 969.656 47.8102   3
  -4  -2  -6 987.879 41.9362   3
  -4   2   6 957.605 38.5639   1
   4  -2   6 982.985 40.2500   1
   4  -2   6 986.204 38.6570   3
  -4  -2   6 995.145 46.5129   3
   4  -2  -6 984.138 37.6760   2
   4   2   6 1003.20 41.9265   1
  -4   2  -6 961.686 39.2118   2
  -6   2   6 401.744 27.9636   3
   6   2  -6 386.067 19.3679   2
  -6  -2  -6 400.144 20.0333   2
   6  -2   6 337.814 19.9887   1
   6  -2  -6 395.984 18.1746   2
  -6  -2   6 380.913 28.3483   3
  -6   2  -6 396.581 19.7486   2
   6   2   6 428.354 22.8633   1
  -8   2   6 132.901 19.3749   3
   8   2  -6 103.156 10.7736   2
  -8   2  -6 100.571 11.0369   2
  -8  -2   6 117.825 19.6107   3
   8   2   6 106.006 11.6873   2
  -1  -3  -6 26.0132 3.09254   2
   1  -3   6 18.9795 3.00161   1
   1  -3   6 21.6210 2.16137   3
  -1   3   6 18.5134 3.14151   1
  -1  -3  -6 19.7081 2.87668   3
   1   3  -6 17.2709 2.79085   2
  -1   3  -6 24.2054 3.78334   2
   1  -3  -6 20.1464 2.26182   2
   1  -3  -6 12.8215 3.37900   3
   1   3   6 23.2652 4.30485   1
  -1  -3   6 19.3906 2.89208   1
  -1  -3   6 21.4307 3.59456   3
   3  -3   6 38.1812 5.08552   1
   3  -3   6 53.0178 3.76978   3
  -3  -3  -6 57.0932 5.76653   2
   3   3  -6 47.4079 4.99979   2
  -3   3   6 56.9228 5.47591   1
  -3  -3  -6 62.0554 6.16358   3
  -3  -3   6 51.3655 2.52876   1
  -3   3  -6 51.7314 5.61157   2
   3   3   6 45.8312 7.13945   1
  -3  -3   6 56.9845 8.33363   3
   3  -3  -6 53.6553 3.55726   2
   5  -3   6 52.4139 6.88986   3
   5  -3   6 49.2335 7.04524   1
  -5  -3  -6 35.7696 7.96190   3
  -5  -3  -6 46.8087 6.46876   2
  -5   3   6 71.6439 12.0363   3
   5   3  -6 56.4056 6.72495   2
  -5   3   6 54.9293 6.15950   1
   5   3   6 52.0165 8.72894   1
  -5   3  -6 51.7428 6.39292   2
   5  -3  -6 47.7606 4.86136   2
  -5  -3   6 67.3472 12.5191   3
   7  -3   6 18.9577 6.19584   1
   7   3  -6 20.1173 5.31798   2
  -7   3  -6 19.3565 5.20976   2
  -7  -3   6 19.8280 10.0391   3
   7   3   6 21.7697 6.09247   2
   0  -4   6 4442.78 152.989   3
   0  -4   6 4112.48 152.857   1
   0  -4  -6 4080.83 151.690   2
   0   4  -6 4284.87 153.778   2
   0  -4  -6 4187.74 153.921   3
   0   4   6 4100.13 153.910   1
   2  -4   6 3305.04 120.225   1
   2   4  -6 3260.14 119.612   2
  -2  -4  -6 3238.26 119.317   2
   2  -4   6 3380.30 118.171   3
  -2   4   6 3260.75 119.979   1
  -2  -4  -6 3298.93 119.885   3
   2  -4  -6 3203.99 122.992   3
   2   4   6 3081.08 121.606   1
  -2  -4   6 3129.50 117.560   1
  -2   4  -6 3353.57 120.117   2
  -2  -4   6 3277.26 121.648   3
   2  -4  -6 3197.81 117.266   2
  -4  -4  -6 1446.84 58.2763   2
   4   4  -6 1564.95 58.3824   2
  -4  -4  -6 1561.37 60.2172   3
   4  -4   6 1582.78 59.5460   1
  -4   4   6 1561.36 58.3854   1
   4  -4   6 1507.44 56.9190   3
   4  -4  -6 1249.21 63.7183   3
  -4   4  -6 1564.31 58.0382   2
   4   4   6 1348.91 61.1561   1
   4  -4  -6 1512.56 55.6913   2
  -4  -4   6 1531.51 63.9473   3
  -6   4   6 496.587 23.5155   1
  -6  -4  -6 524.536 24.4334   2
   6  -4   6 549.079 25.8519   1
   6   4  -6 478.805 23.4582   2
  -6  -4   6 484.036 32.5044   3
   6  -4  -6 344.826 28.3793   3
  -6   4  -6 521.340 23.6079   2
   8  -4   6 157.452 15.1708   1
   8   4  -6 133.883 13.1056   2
   8  -4  -6 89.5464 16.8049   3
  -1  -5  -6 38.3870 3.62662   2
  -1  -5  -6 29.6354 4.29618   3
  -1   5   6 31.0661 4.18715   1
   1   5  -6 38.7690 4.25484   2
   1  -5   6 34.9972 3.65635   3
  -1  -5   6 28.4074 4.18128   3
   1   5   6 29.9791 4.56854   1
   1  -5  -6 42.3592 5.74707   3
  -1   5  -6 23.1068 3.94654   2
  -1  -5   6 32.2210 3.32433   1
  -1   5  -6 36.1290 4.40392   1
  -3  -5  -6 47.4798 6.10375   3
   3   5  -6 52.2022 5.62484   2
  -3   5   6 47.4406 5.53550   1
   3  -5   6 53.9059 4.39852   3
  -3  -5  -6 61.9482 5.83049   2
  -3   5  -6 49.1410 5.96621   1
  -3  -5   6 56.3712 8.07902   3
  -3   5  -6 46.7843 5.33644   2
   3  -5  -6 48.5420 8.14772   3
   3  -5  -6 57.0925 2.97231   2
   3   5   6 56.4223 7.53536   1
   5   5  -6 48.1124 6.56527   2
  -5  -5  -6 53.9936 8.55950   3
   5  -5   6 30.9901 6.22756   1
  -5  -5  -6 49.0262 6.75450   2
  -5   5   6 47.6815 6.51654   1
   5  -5  -6 32.2759 8.81566   3
  -5  -5   6 46.4617 9.87755   3
  -5   5  -6 42.3723 5.73626   2
   7  -5   6 22.4346 6.36330   1
   7   5  -6 11.2222 5.34970   2
  -7  -5   6 26.8269 10.4388   3
   7   5   6 17.0153 5.10126   2
   7  -5  -6 9.19909 8.00341   3
   0   6  -6 12.8120 3.20698   2
   0  -6   6 9.40383 2.61997   3
   0  -6  -6 8.10243 3.27377   3
   0   6   6 8.31002 2.67508   1
   2   6  -6 13.6773 3.12304   2
  -2   6   6 16.9980 3.61036   1
  -2  -6  -6 18.8486 4.07590   3
  -2  -6  -6 24.6978 3.49891   2
   2  -6   6 19.6789 3.05427   3
   2   6   6 25.5697 4.57551   1
  -2  -6   6 22.1780 2.90727   1
   2  -6  -6 22.2736 5.37190   3
  -2   6  -6 17.2795 3.54365   1
  -2   6  -6 17.4926 3.62837   2
  -2  -6   6 15.7498 4.07403   3
  -4  -6  -6 37.8600 5.42501   2
  -4   6   6 42.6138 6.08234   1
  -4  -6  -6 38.5745 6.50229   3
   4   6  -6 41.3646 5.99536   2
   4  -6   6 39.4252 4.79942   3
  -4  -6   6 37.1488 7.95964   3
  -4   6  -6 33.7145 5.74761   1
   4   6   6 43.4441 7.01162   1
   4  -6  -6 30.3163 7.86845   3
  -4   6  -6 45.9664 5.32745   2
  -6   6   6 39.4319 6.57447   1
   6  -6   6 42.2161 7.73496   1
   6   6  -6 31.9248 6.28294   2
  -6  -6   6 35.7457 10.4333   3
   6   6   6 28.0163 5.90562   2
   6  -6  -6 17.6007 8.73697   3
   1   7  -6 34.6874 4.87408   2
  -1  -7  -6 34.0676 5.23955   3
  -1   7   6 24.8148 4.21312   1
   1  -7   6 31.1649 4.22387   3
  -1  -7   6 26.3606 4.61654   3
   1  -7  -6 24.6628 4.83715   3
  -1  -7   6 35.8484 3.75161   1
  -1   7  -6 39.4088 5.17279   2
  -1   7  -6 35.0669 4.56937   1
   1   7   6 27.7521 3.24770   2
   1   7   6 34.8557 4.73976   1
   3   7  -6 42.4683 5.93365   2
  -3   7   6 39.4593 5.73787   1
  -3  -7  -6 41.6623 6.20982   3
   3  -7   6 37.7516 4.87647   3
  -3  -7   6 45.0752 7.45051   3
   3   7   6 42.9893 5.77670   1
   3   7   6 45.7086 5.31237   2
   3  -7  -6 41.4038 7.96518   3
  -3   7  -6 44.0594 6.33774   1
  -3   7  -6 45.5284 5.43723   2
   5   7  -6 34.4602 6.15124   2
  -5   7   6 39.4452 6.68086   1
  -5  -7  -6 34.3286 7.42063   3
  -5  -7   6 30.8963 8.11652   3
   5  -7  -6 33.5796 9.33257   3
   5   7   6 28.3820 5.62560   2
   7   7  -6 5.79338 5.01388   2
  -7   7   6 19.0091 5.57834   1
   7  -7   6 11.4217 6.40213   1
  -7  -7   6 16.9733 8.09018   3
   7   7   6 -0.6019 4.49101   2
   7  -7  -6 11.4766 8.29064   3
   0  -8  -6 619.742 29.1548   3
   0   8  -6 688.456 27.1893   1
   0   8   6 655.000 28.0358   1
   0  -8   6 632.711 27.9285   3
   0   8  -6 659.355 28.0167   2
   2   8  -6 504.857 22.4497   2
  -2   8   6 492.464 22.9618   1
  -2  -8  -6 495.655 23.7429   3
   2  -8   6 498.837 21.7063   3
  -2  -8   6 489.269 23.8787   3
   2   8   6 474.814 20.8851   2
   2   8   6 498.420 22.1662   1
  -2   8  -6 482.985 22.6385   1
   2  -8  -6 506.931 25.2972   3
  -2   8  -6 478.991 22.1131   2
   4   8  -6 251.581 14.1531   2
   4  -8   6 239.721 12.9034   3
  -4  -8  -6 247.387 16.0738   3
  -4   8   6 217.772 14.0736   1
  -4  -8   6 228.941 16.7361   3
  -4   8  -6 236.569 14.0513   2
   4   8   6 236.273 13.3541   2
  -4   8  -6 209.226 13.9457   1
   4  -8  -6 233.546 17.7759   3
   6   8  -6 81.4862 9.62882   2
   6  -8   6 107.806 11.8496   1
  -6   8   6 84.5360 10.3275   1
   6  -8  -6 74.0931 14.1484   3
   6   8   6 81.8817 9.62771   2
  -6  -8   6 75.4961 13.4023   3
   1   9  -6 9.03442 2.67383   1
  -1  -9  -6 10.4380 4.27876   3
   1  -9   6 9.93481 3.44702   3
  -1   9   6 6.25351 3.26056   1
   1   9  -6 11.9188 3.60500   2
  -1   9  -6 4.71538 2.91925   1
   1  -9  -6 9.74777 4.53215   3
  -1  -9   6 14.0229 4.39294   3
  -1   9  -6 9.33431 3.44395   2
   1   9   6 8.76838 3.10752   1
  -3  -9  -6 25.8615 5.91311   3
   3   9  -6 27.0012 5.29635   2
  -3   9   6 21.2799 5.09513   1
   3  -9   6 27.0554 4.78213   3
  -3   9  -6 17.8849 4.69842   1
   3   9   6 29.0119 4.72644   2
  -3   9  -6 21.2976 4.11397   2
   3   9   6 18.5104 4.15524   1
   3  -9  -6 22.5652 6.85644   3
  -3  -9   6 19.6144 6.07876   3
  -5   9   6 14.2257 5.49375   1
  -5  -9  -6 17.2279 6.71218   3
   5   9  -6 25.9042 5.81938   2
  -5  -9   6 22.0528 7.01116   3
   5   9   6 18.8858 4.99199   2
   5  -9  -6 21.2940 8.77802   3
  -5   9  -6 24.7753 5.93937   1
   0  10   6 82.9163 8.28407   1
   0 -10  -6 69.3850 9.17566   3
   0  10  -6 66.5909 7.46325   2
   0 -10   6 72.1376 8.07256   3
   0  10  -6 63.6157 6.63969   1
  -2  10   6 46.8072 7.08643   1
  -2 -10  -6 45.8108 7.39935   3
   2  10  -6 44.2702 6.41705   2
   2 -10   6 46.5746 6.33557   3
  -2  10  -6 36.4024 5.53607   2
  -2  10  -6 41.3338 6.34077   1
   2  10   6 45.0579 5.19261   2
   2 -10  -6 34.7241 7.15668   3
  -2 -10   6 41.2555 7.30506   3
   2  10   6 45.0707 5.78825   1
  -4 -10  -6 3.79981 4.56713   3
   4  10  -6 1.71631 3.58125   2
  -4  10   6 1.95729 3.41187   1
  -4 -10   6 0.02138 4.92371   3
   4  10   6 -0.3356 3.19565   2
  -4  10  -6 5.77494 3.91519   1
   4 -10  -6 4.46673 5.85948   3
  -6 -10  -6 8.43217 7.04710   3
  -6  10   6 2.33372 4.45715   1
   6  10  -6 -6.2884 4.04783   2
  -6 -10   6 3.20877 7.48376   3
   6  10   6 4.11449 4.33099   2
   6 -10  -6 5.61538 7.69232   3
   1 -11   6 12.4907 4.33756   3
  -1 -11  -6 18.8634 5.82730   3
   1  11  -6 16.0034 4.54156   2
  -1  11   6 13.3880 4.45032   1
   1 -11  -6 11.5524 5.38175   3
  -1  11  -6 13.1746 4.19575   1
  -1 -11   6 13.7096 4.88770   3
  -1  11  -6 9.68860 4.03038   2
   1  11   6 16.3313 4.27818   1
   3 -11   6 18.6548 4.96922   3
  -3  11   6 19.9469 5.56615   1
  -3 -11  -6 15.7306 5.67996   3
   3  11  -6 22.1219 5.50386   2
  -3 -11   6 12.2708 5.75615   3
   3 -11  -6 15.9722 6.89096   3
  -3  11  -6 22.0056 5.41256   1
  -5 -11  -6 17.1284 6.69054   3
  -5  11   6 30.5831 7.11185   1
   5  11  -6 17.6669 5.57522   2
   5 -11  -6 8.54629 7.91322   3
  -5  11  -6 7.79964 5.46230   1
   5  11   6 11.1361 4.62050   2
  -5 -11   6 20.5458 8.90986   3
   0 -12  -6 353.383 21.2053   3
   0  12  -6 351.923 17.9686   1
   0  12   6 374.691 19.3649   1
   0 -12   6 356.100 20.1070   3
   0  12  -6 372.946 19.3543   2
   2  12  -6 282.348 16.7894   2
   2 -12   6 306.984 17.2704   3
  -2  12   6 287.079 17.4194   1
  -2 -12  -6 306.808 19.4807   3
   2 -12  -6 289.491 20.2365   3
  -2  12  -6 300.624 17.2587   1
  -2 -12   6 289.361 18.4121   3
   2  12   6 294.286 15.8701   1
  -4  12   6 154.509 12.8914   1
   4  12  -6 147.344 13.8542   2
  -4 -12  -6 180.212 14.8096   3
   4 -12  -6 209.612 21.3209   3
  -4 -12   6 134.627 16.0781   3
  -4  12  -6 152.335 13.0138   1
  -1  13   6 1.81642 3.64772   1
  -1 -13  -6 2.76027 4.42415   3
   1  13  -6 2.58397 4.63612   2
   1 -13   6 5.94698 4.70988   3
  -1  13  -6 1.00762 3.36186   1
   1 -13  -6 9.21972 5.13024   3
  -1 -13   6 -2.0536 4.36191   3
   1  13   6 -0.7838 3.16985   1
   3  13  -6 8.29065 4.60874   2
  -3 -13  -6 11.0065 5.74444   3
  -3  13   6 12.0139 5.33335   1
  -3 -13   6 1.46623 5.22633   3
  -3  13  -6 2.56330 3.98037   1
   3 -13  -6 7.46321 6.61845   3
   0  14   6 35.1539 6.90301   1
   0 -14  -6 31.3348 8.65284   3
   0 -14   6 40.2654 8.24512   3
   2 -14   6 40.0838 7.78823   3
  -2  14   6 39.1665 7.62129   1
  -2 -14  -6 48.4485 9.62754   3
   2 -14  -6 42.8788 10.2659   3
  -2 -14   6 41.8820 8.99930   3
  -2  14  -6 28.5771 6.63652   1
   4  14  -6 39.9590 7.45502   2
   1 -15   6 6.82702 4.98667   3
  -1 -15  -6 -1.9178 4.64505   3
  -1  15   6 2.96874 4.00551   1
   1 -15  -6 -3.9942 4.90018   3
  -1 -15   6 4.12191 5.52028   3
   0 -16   6 217.898 17.4307   3
  -2  16  -6 208.048 17.2752   1
  -1   0   7 10.2413 2.58258   1
  -1   0   7 21.2043 4.69547   3
  -1   0  -7 9.27401 2.43785   2
   1   0   7 19.7363 4.15819   1
  -1   0  -7 15.7114 1.31582   3
  -1   0  -7 20.3110 2.52107   3
   1   0  -7 13.8190 2.59491   2
  -3   0  -7 10.5197 3.07426   2
   3   0   7 9.86433 3.56547   1
  -3   0   7 8.28198 5.55073   3
  -3   0   7 14.1873 2.50684   1
   3   0  -7 12.1311 2.60144   2
  -3   0  -7 20.7032 4.01756   3
  -5   0   7 25.8852 9.11627   3
   5   0  -7 13.2819 3.43555   2
   5   0   7 12.9697 4.51002   1
  -5   0  -7 15.1348 4.25797   2
  -7   0   7 28.1375 10.3835   3
   7   0  -7 22.4090 5.05355   2
  -7   0  -7 16.5830 5.05732   2
   0  -1   7 99.6773 7.01558   1
   0   1  -7 87.1212 6.26501   2
   0  -1  -7 100.757 5.83446   3
   0  -1   7 86.8444 6.26460   3
   0   1   7 91.9188 6.89794   1
   0  -1  -7 98.5354 5.94671   2
  -2  -1  -7 25.7570 2.73287   3
   2  -1   7 16.8150 3.40241   1
  -2   1   7 27.7589 3.36607   1
  -2   1   7 31.7715 6.55143   3
   2   1  -7 32.2997 3.74808   2
  -2  -1  -7 21.2982 3.45135   2
   2   1   7 23.9846 5.10422   1
  -2  -1   7 25.7085 5.68611   3
  -2   1  -7 18.9896 3.47907   2
  -2  -1   7 21.1559 2.81086   1
   2  -1  -7 23.9404 2.96129   2
   4  -1   7 0.86055 2.96077   1
   4   1  -7 -0.9859 1.93660   2
  -4   1   7 -1.3543 4.83991   3
  -4   1   7 5.73604 2.40918   1
  -4  -1  -7 0.31244 2.49211   2
  -4  -1  -7 0.30019 3.56222   3
   4  -1  -7 2.16534 1.84683   2
  -4  -1   7 0.93201 1.38268   1
  -4  -1   7 0.91642 5.31679   3
   4   1   7 -4.8473 2.64611   1
  -4   1  -7 -2.1760 2.17954   2
   6   1  -7 7.15118 3.45569   2
  -6  -1  -7 7.55802 3.92314   2
   6  -1   7 14.5232 4.80736   1
  -6   1   7 2.42431 7.51539   3
   6   1   7 0.16079 4.50879   1
   6  -1  -7 5.60409 3.03595   2
  -6   1  -7 2.79880 3.44444   2
  -6  -1   7 17.2883 8.25096   3
  -8   1   7 14.7031 8.90077   3
   8   1  -7 4.27244 4.24722   2
  -8   1  -7 3.18533 3.93100   2
  -8  -1   7 3.43169 6.66580   3
  -1  -2  -7 1851.32 67.1245   3
   1   2  -7 1838.92 68.0794   2
  -1   2   7 1854.79 68.5797   1
   1  -2   7 1780.32 66.0478   3
  -1  -2  -7 1844.77 67.8420   2
   1  -2   7 1816.25 68.6896   1
   1   2   7 1724.78 70.2518   1
  -1  -2   7 1812.32 69.6633   3
  -1   2  -7 1848.13 68.8051   2
   1  -2  -7 1828.81 67.2894   2
   1  -2  -7 1817.48 69.8983   3
  -1  -2   7 1814.47 68.2546   1
  -3  -2  -7 1211.91 48.0557   3
  -3   2   7 1250.08 47.7361   1
  -3  -2  -7 1248.44 48.3069   2
   3  -2   7 1242.36 45.7924   3
  -3   2   7 1237.70 54.0236   3
   3  -2   7 1202.68 48.8868   1
   3   2  -7 1221.24 47.6151   2
  -3  -2   7 1233.00 45.8757   1
  -3   2  -7 1265.10 48.4206   2
   3  -2  -7 1228.42 46.5273   2
   3   2   7 1287.36 51.3200   1
  -3  -2   7 1250.81 53.5045   3
  -5   2   7 670.741 36.0096   3
  -5  -2  -7 563.510 26.5448   2
   5  -2   7 588.903 27.4255   1
  -5   2   7 588.931 25.1818   1
   5   2  -7 564.087 25.5719   2
  -5  -2   7 621.553 34.7518   3
   5   2   7 625.087 29.7540   1
  -5   2  -7 561.501 26.1962   2
  -7   2   7 306.003 24.6299   3
   7   2  -7 226.391 14.4696   2
  -7  -2  -7 208.837 14.9531   2
   7  -2   7 233.047 16.2484   1
  -7   2  -7 230.847 14.7523   2
  -7  -2   7 268.185 27.5636   3
   0  -3   7 1521.60 58.2858   1
   0  -3  -7 1577.04 57.3386   2
   0   3   7 1512.87 59.1552   1
   0  -3  -7 1561.48 58.5305   3
   0   3  -7 1536.96 58.7387   2
   0  -3   7 1546.01 57.6275   3
   2  -3   7 984.909 39.8771   1
  -2  -3  -7 971.676 38.9352   2
   2   3  -7 979.920 39.0533   2
  -2   3   7 1035.11 39.4784   1
  -2  -3  -7 1015.37 38.7371   3
   2  -3   7 997.648 36.8229   3
   2  -3  -7 1035.92 37.5848   2
   2   3   7 950.105 41.8946   1
  -2  -3   7 1027.30 41.7603   3
   2  -3  -7 964.505 42.6089   3
  -2   3  -7 1012.29 39.7762   2
  -2  -3   7 1018.39 37.7301   1
  -4  -3  -7 301.098 16.1804   3
  -4   3   7 308.679 21.3870   3
  -4  -3  -7 289.017 15.1016   2
   4  -3   7 279.697 12.9389   3
   4   3  -7 300.987 14.6225   2
  -4   3   7 232.803 13.8685   1
   4  -3   7 308.599 16.0314   1
   4   3   7 331.944 19.0558   1
   4  -3  -7 298.346 12.8527   2
  -4  -3   7 289.055 20.2664   3
  -4   3  -7 307.090 14.8997   2
   6   3  -7 50.8207 7.04760   2
   6  -3   7 56.4659 8.46756   1
  -6   3   7 84.2326 14.7434   3
  -6  -3  -7 67.0294 8.55390   2
  -6   3  -7 53.7807 7.25144   2
  -6  -3   7 78.5129 13.8721   3
   8   3  -7 5.29276 4.46406   2
  -8   3  -7 2.99512 4.35737   2
   1  -4   7 11.7291 2.12126   3
   1  -4   7 8.59842 2.73328   1
  -1  -4  -7 16.6373 2.66809   2
  -1   4   7 15.1044 3.34681   1
  -1  -4  -7 10.8181 2.74948   3
   1   4  -7 8.69860 2.64798   2
   1  -4  -7 12.6743 3.71045   3
   1   4   7 18.5919 4.19026   1
  -1  -4   7 16.3601 3.52791   3
   1  -4  -7 16.4639 2.01001   2
  -1   4  -7 14.3726 3.41303   2
  -1  -4   7 9.94431 2.47621   1
  -3  -4  -7 13.3502 3.43905   3
  -3   4   7 10.5928 3.11373   1
   3  -4   7 6.15296 3.01015   1
   3  -4   7 9.53229 1.85837   3
   3   4  -7 5.49146 2.82187   2
  -3  -4  -7 7.04959 2.69866   2
   3   4   7 8.67984 4.54695   1
  -3  -4   7 3.98806 3.47155   3
   3  -4  -7 10.7143 5.26515   3
   3  -4  -7 8.83969 1.68678   2
  -3   4  -7 8.71287 2.93513   2
  -5   4   7 2.12715 2.93049   1
  -5  -4  -7 -2.8641 4.15777   3
  -5  -4  -7 -0.0147 2.39638   2
   5   4  -7 -0.6038 2.70845   2
   5  -4   7 -2.1202 2.68629   1
  -5   4  -7 -0.3279 2.57964   2
   5   4   7 -3.2804 4.83310   1
  -5  -4   7 2.56004 5.37431   3
   5  -4  -7 8.27506 6.72962   3
   7   4  -7 2.16843 3.89199   2
   7  -4   7 4.85235 4.82467   1
  -7   4  -7 2.66803 3.69275   2
   7   4   7 1.83867 4.50419   2
   7  -4  -7 7.38695 7.24433   3
  -7  -4   7 5.39237 8.30345   3
   0  -5  -7 272.393 11.5911   2
   0   5   7 288.478 14.1532   1
   0  -5   7 290.850 13.1044   3
   0  -5   7 268.696 12.9189   1
   0   5  -7 277.202 13.8751   2
   0  -5  -7 288.176 14.3564   3
   2  -5   7 277.103 13.5070   1
  -2  -5  -7 241.963 12.9400   3
  -2   5   7 234.074 12.8451   1
   2  -5   7 252.641 11.2597   3
  -2  -5  -7 248.795 12.2596   2
  -2   5  -7 263.064 13.2646   2
   2   5   7 272.040 14.7525   1
  -2  -5   7 257.881 11.1768   1
   2  -5  -7 284.187 16.1208   3
  -2  -5   7 236.784 13.9117   3
  -4   5   7 165.276 10.4884   1
  -4  -5  -7 121.404 10.4018   3
  -4  -5  -7 176.862 10.5307   2
   4  -5   7 168.196 11.3805   1
   4  -5   7 161.084 9.67110   3
   4   5  -7 164.851 10.3002   2
  -4  -5   7 156.677 15.8368   3
  -4   5  -7 167.444 10.0575   2
   4  -5  -7 126.663 14.9848   3
   4   5   7 146.370 12.6841   1
   6   5  -7 58.3670 7.74083   2
   6  -5   7 74.0366 9.63119   1
  -6   5   7 71.9781 8.63776   1
  -6   5  -7 80.7321 8.40024   2
   6  -5  -7 45.8312 11.6417   3
  -6  -5   7 73.7296 13.4962   3
   8  -5   7 12.9975 6.97564   1
  -1   6   7 246.882 14.4776   1
  -1  -6  -7 298.507 15.2767   3
   1  -6   7 297.275 14.5463   1
   1  -6   7 299.533 13.8747   3
   1   6  -7 310.272 14.8572   2
  -1  -6  -7 309.441 13.3392   2
   1  -6  -7 318.304 16.6704   3
  -1  -6   7 307.024 13.5163   1
  -1  -6   7 313.167 15.3448   3
   1   6   7 334.287 15.7210   1
  -1   6  -7 336.415 15.5076   2
  -3   6   7 266.175 14.2966   1
   3   6  -7 264.009 14.0321   2
  -3  -6  -7 270.397 14.8205   3
  -3  -6  -7 255.036 13.2282   2
   3  -6   7 262.300 12.3285   3
  -3   6  -7 265.951 13.7185   2
   3  -6  -7 233.835 17.2576   3
   3   6   7 294.245 15.5882   1
  -3  -6   7 246.182 15.8625   3
  -5  -6  -7 174.444 13.5278   3
  -5   6   7 182.933 11.8431   1
   5  -6   7 164.152 12.3014   1
   5   6  -7 160.612 11.2350   2
   5  -6  -7 139.597 17.7455   3
  -5  -6   7 150.366 17.1554   3
  -5   6  -7 169.127 10.8067   2
   7   6  -7 71.7267 9.94472   2
   7  -6   7 77.9122 11.1686   1
   7   6   7 61.2595 8.64319   2
  -7  -6   7 78.2856 15.5659   3
   7  -6  -7 74.4532 15.5001   3
   0  -7  -7 594.229 27.0171   3
   0   7   7 575.063 22.7542   2
   0  -7   7 612.600 25.5335   3
   0  -7   7 578.468 24.5926   1
   0   7   7 594.703 26.0497   1
   0   7  -7 630.967 26.1316   2
   2   7  -7 373.939 18.0733   2
  -2   7   7 359.705 18.2562   1
  -2  -7  -7 397.797 19.0422   3
  -2  -7  -7 352.014 16.7778   2
   2  -7   7 364.135 16.7952   3
   2  -7  -7 372.376 20.8006   3
  -2  -7   7 431.582 20.0267   3
  -2   7  -7 352.437 17.9187   2
  -2   7  -7 398.381 18.6384   1
   2   7   7 397.788 18.6975   1
   4   7  -7 117.676 10.1821   2
  -4   7   7 93.8983 9.31689   1
  -4  -7  -7 108.362 11.0316   3
   4   7   7 128.856 9.89699   1
  -4   7  -7 118.227 8.30645   2
   4   7   7 117.051 8.83775   2
   4  -7  -7 97.1141 12.9910   3
  -4  -7   7 96.8302 11.8877   3
   6  -7   7 18.4017 6.15690   1
  -6   7   7 23.8227 5.83413   1
   6   7  -7 24.4674 5.63419   2
   6  -7  -7 -0.1281 6.07284   3
   6   7   7 24.9379 5.33139   2
  -6  -7   7 35.2691 9.99075   3
   1   8  -7 109.955 8.09452   2
   1  -8   7 91.6451 7.08826   3
  -1  -8  -7 98.5941 9.65404   3
  -1  -8   7 100.627 8.24833   3
  -1   8  -7 82.9856 7.13550   1
   1  -8  -7 89.3014 9.87438   3
   1   8   7 94.1582 5.89720   2
  -1   8  -7 88.7411 8.34979   2
  -1  -8   7 91.7007 6.24908   1
   1   8   7 89.4886 7.61937   1
  -3  -8  -7 49.0575 7.19321   3
   3   8  -7 64.3283 7.42853   2
   3  -8   7 54.6874 5.78995   3
  -3   8   7 42.3607 6.25473   1
  -3  -8   7 47.8984 8.35789   3
   3   8   7 56.4310 6.86322   1
  -3   8  -7 45.1688 6.41567   1
   3  -8  -7 49.5424 9.13392   3
   3   8   7 55.3657 5.97605   2
  -3   8  -7 55.5720 6.48044   2
  -5   8   7 11.4871 4.65202   1
   5  -8   7 11.9468 5.51266   1
   5   8  -7 7.57703 4.50431   2
  -5  -8  -7 16.2836 5.96527   3
  -5  -8   7 11.4308 6.87704   3
   5  -8  -7 12.0624 6.57503   3
   5   8   7 7.48206 3.76389   2
  -7   8   7 -10.279 3.94603   1
   7  -8  -7 3.47103 13.0360   3
   0   9  -7 64.1012 6.56108   1
   0   9  -7 62.8707 7.18098   2
   0   9   7 56.6387 6.56430   1
   0  -9   7 55.7702 6.88053   3
   0  -9  -7 69.4556 8.52310   3
  -2   9   7 29.8907 5.66720   1
   2   9  -7 27.1651 5.41305   2
  -2  -9  -7 26.7552 6.03251   3
   2  -9   7 30.7330 5.00706   3
   2  -9  -7 30.7233 6.65462   3
   2   9   7 38.0668 4.71384   2
   2   9   7 31.2794 5.21316   1
  -2   9  -7 30.4753 5.14145   2
  -2  -9   7 51.3171 7.80053   3
  -2   9  -7 31.6523 5.75062   1
  -4   9   7 8.15527 3.97663   1
  -4  -9  -7 3.66963 4.38326   3
   4   9  -7 9.33667 4.55889   2
  -4   9  -7 7.26914 3.95690   1
  -4  -9   7 0.70833 4.64474   3
   4   9   7 8.81271 3.73431   2
   4  -9  -7 2.78311 5.67421   3
  -6   9   7 9.13494 5.12300   1
   6   9  -7 -4.9596 3.99135   2
   6  -9   7 -2.0087 5.15229   1
  -6  -9   7 0.74566 6.38055   3
   6  -9  -7 -0.8111 7.08086   3
   6   9   7 -1.5638 3.74816   2
  -1  10   7 119.588 9.40030   1
   1  10  -7 104.200 9.74821   2
  -1 -10  -7 134.842 12.8419   3
   1 -10   7 126.934 9.53558   3
   1 -10  -7 120.619 12.6589   3
  -1 -10   7 108.421 10.8329   3
  -1  10  -7 124.328 9.12720   1
   1  10   7 119.654 9.05834   1
  -1  10  -7 104.980 9.75228   2
   3 -10   7 112.085 8.85611   3
  -3  10   7 105.319 10.8206   1
   3  10  -7 107.603 10.2729   2
  -3 -10  -7 106.580 11.9954   3
  -3  10  -7 90.8193 10.1168   1
   3  10   7 105.703 8.44420   1
  -3 -10   7 89.6954 11.3465   3
   3  10   7 123.496 8.65376   2
   3 -10  -7 135.023 15.3495   3
   5  10  -7 84.2425 10.4270   2
  -5 -10  -7 93.7328 12.4790   3
  -5  10   7 85.9271 10.4093   1
   5 -10  -7 69.7997 13.4591   3
   5  10   7 77.5686 9.25639   2
  -5 -10   7 86.7795 13.5653   3
   0  11  -7 0.19136 2.60259   1
   0  11   7 -2.3162 2.60841   1
   0 -11   7 -0.9166 3.09766   3
   0 -11  -7 12.5374 5.00553   3
   0  11  -7 3.36347 3.56610   2
  -2 -11  -7 1.34836 3.84951   3
  -2  11   7 0.35461 3.52810   1
   2  11  -7 1.48001 3.34189   2
   2 -11   7 -5.3075 2.62134   3
   2 -11  -7 4.22324 4.54440   3
  -2 -11   7 6.81757 4.54376   3
  -2  11  -7 0.48406 3.29300   1
   2  11   7 -3.0541 2.30717   1
  -4 -11  -7 5.42672 5.17901   3
   4  11  -7 4.78684 4.56844   2
  -4  11   7 4.13455 4.74993   1
  -4 -11   7 7.65365 5.87429   3
  -4  11  -7 4.87328 4.45533   1
   4 -11  -7 3.44693 6.01302   3
   4  11   7 9.03261 4.06387   2
   1  12  -7 4.20145 3.40447   2
  -1  12   7 1.31699 3.74584   1
   1 -12   7 5.01476 4.10863   3
  -1 -12  -7 2.03501 4.64177   3
   1 -12  -7 2.67113 4.01454   3
  -1  12  -7 6.65024 4.09584   1
  -1 -12   7 6.53465 4.83854   3
   1  12   7 3.52129 3.32342   1
   3  12  -7 0.29483 4.04400   2
  -3  12   7 -4.7364 3.74524   1
  -3 -12  -7 1.50897 4.15319   3
   3 -12  -7 1.93040 5.47224   3
  -3 -12   7 -8.1220 3.71439   3
  -3  12  -7 0.20924 3.92148   1
  -5  12   7 -2.8017 6.91431   1
  -5 -12  -7 -2.1723 5.00635   3
   5  12  -7 -1.5570 4.33356   2
   5 -12  -7 3.71860 6.26692   3
  -5 -12   7 0.98000 9.89543   3
   0  13   7 110.791 11.2302   1
   0 -13   7 121.747 12.5446   3
   0 -13  -7 138.086 15.2123   3
   2 -13   7 74.3890 9.73632   3
  -2 -13  -7 73.3847 11.5918   3
   2  13  -7 91.7611 10.2509   2
  -2  13   7 74.1489 9.60192   1
  -2  13  -7 108.015 11.1136   1
   2 -13  -7 87.2128 13.3637   3
  -2 -13   7 91.7676 12.2268   3
   4  13  -7 24.6421 7.13248   2
  -4 -13  -7 27.6591 7.82244   3
  -4  13   7 17.8910 6.17957   1
   4 -13  -7 28.9448 9.70407   3
  -4 -13   7 27.3383 8.86483   3
  -4  13  -7 20.8764 6.09537   1
  -1 -14  -7 113.527 13.9256   3
  -1  14   7 127.303 12.7258   1
   1 -14   7 120.737 12.9915   3
  -1 -14   7 131.644 14.1120   3
  -1  14  -7 120.680 11.5795   1
   1 -14  -7 122.107 15.6691   3
   1  14   7 131.513 10.8969   1
  -3 -14  -7 104.081 13.8230   3
  -3  14   7 91.8761 11.8276   1
   3  14  -7 118.320 12.2261   2
  -3 -14   7 93.0969 13.6310   3
  -3  14  -7 112.629 12.4763   1
   3 -14  -7 109.149 16.0798   3
   0  15   7 1.40141 3.74613   1
   0 -15  -7 14.3557 7.21163   3
   0 -15   7 8.08441 5.53689   3
  -2  15   7 -0.2414 3.78080   1
  -2 -15  -7 -0.5371 7.99877   3
  -2 -15   7 3.76030 5.99481   3
  -2  15  -7 7.93133 5.45033   1
   1 -16   7 23.1489 7.84064   3
   0   0   8 1588.26 60.6305   3
   0   0  -8 1642.16 61.2220   2
   0   0   8 1635.74 62.5520   1
  -2   0   8 1318.70 51.1847   1
   2   0  -8 1346.47 51.0462   2
   2   0   8 1379.85 53.8146   1
  -2   0   8 1364.15 56.3442   3
   4   0  -8 645.935 26.3987   2
  -4   0   8 681.807 35.3178   3
  -4   0   8 628.705 25.8450   1
   4   0   8 648.942 29.2844   1
  -4   0  -8 618.455 27.6704   2
   6   0  -8 223.192 12.9365   2
  -6   0   8 251.422 21.3665   3
  -6   0  -8 229.846 14.4620   2
   6   0   8 231.611 15.8547   1
  -8   0  -8 67.3105 9.10007   2
  -1  -1  -8 526.062 20.1611   3
  -1  -1  -8 493.849 21.9126   2
   1  -1   8 533.115 23.2761   1
  -1   1   8 529.505 23.5133   3
   1   1  -8 522.970 21.7991   2
  -1   1   8 522.938 22.3439   1
  -1   1  -8 523.415 22.3608   2
   1  -1  -8 524.244 21.3589   2
  -1  -1   8 534.409 24.2735   3
  -1  -1   8 519.908 22.2094   1
   1   1   8 521.757 23.9433   1
  -3  -1  -8 210.913 10.3155   3
   3   1  -8 189.853 9.60630   2
   3  -1   8 171.335 10.9946   1
  -3   1   8 187.326 9.41634   1
   3  -1   8 177.822 7.25592   3
  -3   1   8 159.126 14.1002   3
  -3  -1  -8 144.039 9.66192   2
   3   1   8 200.071 12.4526   1
  -3  -1   8 183.004 8.55080   1
  -3   1  -8 127.873 9.39751   2
   3  -1  -8 173.300 8.98348   2
   5   1  -8 34.7208 5.08809   2
  -5  -1  -8 23.6590 4.96213   2
  -5   1   8 38.5497 10.2650   3
   5  -1   8 33.8621 6.21200   1
  -5   1  -8 22.6052 4.78762   2
   5   1   8 55.9897 8.28597   1
   5  -1  -8 25.6272 4.13096   2
  -5  -1   8 19.4418 8.55671   3
  -7   1   8 9.26845 7.50575   3
   7   1  -8 1.37881 3.56201   2
  -7  -1  -8 8.09615 4.75592   2
   7  -1   8 0.29944 3.81738   1
  -7   1  -8 4.38050 3.93507   2
  -7  -1   8 4.38645 6.81035   3
   0  -2  -8 146.044 8.09628   3
   0  -2   8 158.445 8.50325   3
   0  -2   8 147.089 8.90699   1
   0   2  -8 145.281 8.85148   2
   0   2   8 141.277 9.51657   1
   0  -2  -8 146.254 7.90794   2
   2  -2   8 138.573 8.95561   1
  -2   2   8 137.843 10.9325   3
  -2  -2  -8 119.335 7.94408   2
  -2   2   8 131.370 8.11465   1
   2   2  -8 128.272 7.91455   2
  -2  -2  -8 146.506 7.14971   3
  -2  -2   8 142.130 7.32660   1
  -2  -2   8 139.835 10.9887   3
   2   2   8 142.440 10.6544   1
   2  -2  -8 139.003 7.20533   2
  -4   2   8 92.4125 7.02619   1
  -4   2   8 125.088 14.9386   3
   4   2  -8 101.328 7.39254   2
  -4  -2  -8 108.090 8.46497   2
   4  -2   8 106.411 8.90704   1
   4  -2  -8 107.249 6.57603   2
   4   2   8 112.929 11.6943   1
  -4  -2   8 87.5897 12.3245   3
  -4   2  -8 113.685 8.21959   2
   6  -2   8 61.2097 8.72940   1
   6   2  -8 79.2735 8.40279   2
  -6  -2  -8 55.0653 7.57917   2
  -6   2   8 64.2407 13.3060   3
  -6  -2   8 76.2983 13.5721   3
  -6   2  -8 71.6400 8.40020   2
   6   2   8 82.8722 11.2743   1
   8   2  -8 43.1828 7.68093   2
  -8   2  -8 30.9190 7.31731   2
  -1  -3  -8 2749.87 101.009   3
   1  -3   8 2741.71 99.6097   3
   1  -3   8 2766.85 102.307   1
  -1   3   8 2784.93 102.356   1
  -1  -3  -8 2731.78 101.084   2
   1   3  -8 2801.95 101.827   2
   1  -3  -8 2759.99 103.369   3
   1   3   8 2572.44 103.868   1
  -1   3  -8 2778.45 102.456   2
  -1  -3   8 2782.48 102.677   3
  -1  -3   8 2780.30 101.755   1
   1  -3  -8 2665.13 100.443   2
  -3  -3  -8 1371.01 53.7425   2
   3   3  -8 1395.70 53.4154   2
  -3  -3  -8 1389.99 53.3481   3
   3  -3   8 1354.12 50.5418   3
   3  -3   8 1417.45 54.7631   1
  -3   3   8 1389.69 53.5306   1
   3   3   8 1312.46 57.0219   1
  -3  -3   8 1385.95 58.5017   3
   3  -3  -8 1433.88 51.6922   2
   3  -3  -8 1341.24 58.8079   3
  -3   3  -8 1387.97 54.1065   2
   5   3  -8 372.542 18.6488   2
  -5   3   8 361.915 18.2201   1
  -5   3   8 409.748 26.7904   3
  -5  -3  -8 371.519 19.4190   2
   5  -3   8 384.880 20.4568   1
  -5  -3   8 372.426 25.9628   3
  -5   3  -8 386.438 19.2289   2
   5   3   8 449.266 23.9731   1
  -7  -3  -8 91.6879 10.5738   2
   7   3  -8 70.7306 8.79113   2
   7  -3   8 73.0619 10.4577   1
  -7  -3   8 83.3734 16.1373   3
   7  -3  -8 126.262 18.3972   3
  -7   3  -8 71.3750 8.91424   2
   0   4   8 2754.49 103.816   1
   0  -4  -8 2772.25 101.185   2
   0  -4   8 2852.88 102.623   1
   0  -4   8 2762.30 101.907   3
   0  -4  -8 2778.22 103.117   3
   0   4  -8 2674.90 103.078   2
   2  -4   8 2129.93 76.7386   3
   2  -4   8 2168.60 80.1972   1
  -2  -4  -8 2125.42 78.8964   2
   2   4  -8 2128.42 79.2856   2
  -2   4   8 2200.40 79.8436   1
  -2  -4  -8 2155.83 78.9598   3
   2   4   8 1901.97 81.8382   1
   2  -4  -8 2095.48 77.0594   2
  -2  -4   8 2021.61 77.5941   1
  -2   4  -8 2148.84 80.0016   2
   2  -4  -8 2031.72 82.4828   3
  -2  -4   8 2124.33 81.4442   3
  -4   4   8 1004.62 40.6069   1
   4   4  -8 1028.11 40.5537   2
  -4  -4  -8 978.929 40.8591   2
   4  -4   8 1044.69 42.3142   1
  -4  -4  -8 1007.52 41.6588   3
  -4   4  -8 990.699 40.6119   2
  -4  -4   8 900.842 45.7177   3
   4  -4  -8 975.516 47.2160   3
   4   4   8 1000.90 44.9606   1
  -6  -4  -8 337.331 19.4214   2
   6  -4   8 398.283 21.4278   1
   6   4  -8 370.426 19.2272   2
  -6  -4   8 382.546 27.4262   3
   6  -4  -8 313.972 25.3966   3
  -6   4  -8 360.430 19.1470   2
   8  -4   8 108.175 13.1057   1
   1  -5   8 66.4907 4.70317   3
   1   5  -8 76.7184 6.90396   2
  -1  -5  -8 69.8568 5.01413   2
  -1  -5  -8 69.4372 5.89756   3
   1  -5   8 70.0559 6.00398   1
  -1   5   8 56.9459 6.33658   1
   1   5   8 62.4182 7.21319   1
   1  -5  -8 70.8166 7.77289   3
  -1  -5   8 81.2492 5.61950   1
  -1  -5   8 71.0507 6.14096   3
  -1   5  -8 60.4958 6.44869   2
   1  -5  -8 69.8566 3.70987   2
  -3  -5  -8 10.8293 3.69279   3
  -3   5   8 10.5555 3.37247   1
   3  -5   8 7.12159 3.63875   1
  -3  -5  -8 10.7185 3.15363   2
   3   5  -8 7.63521 3.42543   2
   3  -5   8 9.73293 2.01225   3
   3   5   8 14.0629 4.95432   1
  -3   5  -8 9.64847 3.48988   2
   3  -5  -8 14.4095 5.44031   3
  -3  -5   8 7.85450 4.03837   3
   5  -5   8 4.86231 4.23099   1
   5   5  -8 -0.3178 3.12060   2
  -5  -5  -8 3.62137 3.26538   2
  -5   5   8 0.33797 2.86684   1
   5   5   8 -3.5379 5.23712   1
   5  -5  -8 -1.8843 5.20178   3
  -5  -5   8 4.08817 6.66061   3
  -5   5  -8 7.50393 3.52814   2
   7   5  -8 -4.3059 3.59506   2
   7  -5   8 1.98428 5.49173   1
  -7  -5   8 -7.0986 6.50566   3
   7  -5  -8 -5.0402 5.67585   3
   7   5   8 -0.7293 3.83985   2
   0  -6   8 564.635 22.8638   3
   0  -6  -8 540.633 20.7461   2
   0  -6   8 555.320 22.7148   1
   0   6  -8 556.816 23.8161   2
   0  -6  -8 512.319 24.0330   3
   0   6   8 439.570 23.2574   1
   2   6  -8 439.736 21.0034   2
  -2  -6  -8 449.695 20.1632   2
   2  -6   8 476.798 21.7012   1
  -2   6   8 454.204 21.6466   1
  -2  -6  -8 465.454 21.5014   3
   2  -6   8 480.331 19.5057   3
   2   6   8 512.457 23.2120   1
  -2  -6   8 476.414 22.7791   3
   2  -6  -8 478.237 24.2173   3
  -2   6  -8 470.858 21.6052   2
   4  -6   8 283.401 16.7985   1
  -4   6   8 306.044 16.3449   1
   4   6  -8 298.852 15.9955   2
  -4  -6  -8 289.665 15.7106   2
  -4  -6  -8 287.555 16.6872   3
  -4  -6   8 271.232 19.2646   3
   4  -6  -8 251.734 19.9189   3
  -4   6  -8 322.670 15.6962   2
   4   6   8 316.285 18.6552   1
   6  -6   8 135.610 13.8413   1
  -6   6   8 142.349 11.1561   1
   6   6  -8 152.034 12.9951   2
   6  -6  -8 90.7333 15.4424   3
  -6   6  -8 135.466 10.2800   2
  -6  -6   8 125.241 17.0734   3
   6   6   8 131.760 12.2352   2
  -1  -7  -8 1366.37 53.5384   3
   1   7  -8 1397.86 52.8109   2
  -1   7   8 1373.29 53.1979   1
   1  -7   8 1295.64 51.9885   1
   1  -7   8 1311.26 51.2527   3
  -1  -7  -8 1255.18 50.2499   2
  -1   7  -8 1337.15 52.8571   2
  -1  -7   8 1311.81 50.8532   1
  -1  -7   8 1305.60 52.8740   3
   1  -7  -8 1349.83 54.6506   3
   1   7   8 1367.45 53.1917   1
   3  -7   8 645.188 29.3003   1
  -3  -7  -8 636.786 29.3451   3
  -3  -7  -8 649.465 27.7814   2
   3   7  -8 656.039 28.7737   2
   3  -7   8 638.046 26.4468   3
  -3   7   8 640.103 29.0684   1
  -3  -7   8 691.712 31.8260   3
   3   7   8 718.201 30.6292   1
   3  -7  -8 585.668 31.9493   3
  -3   7  -8 642.992 28.4703   2
   5   7  -8 153.499 12.1494   2
  -5   7   8 188.312 12.7920   1
   5  -7   8 187.938 13.9592   1
   5   7   8 176.268 12.2341   2
  -5   7  -8 202.478 12.3035   2
  -5  -7   8 163.276 18.0572   3
   5  -7  -8 159.145 19.3905   3
   7   7  -8 64.2702 9.01537   2
   7  -7   8 40.3056 9.03714   1
   7  -7  -8 35.0237 11.6202   3
   7   7   8 24.5786 7.45206   2
  -7  -7   8 24.2364 19.5987   3
   0   8   8 2053.66 79.4758   1
   0  -8   8 2071.14 77.8022   1
   0  -8   8 1993.56 78.5712   3
   0   8  -8 2082.53 79.3467   2
   0  -8  -8 2097.09 80.8045   3
  -2  -8  -8 1610.19 61.6942   3
  -2   8   8 1515.31 60.9274   1
   2  -8   8 1558.57 58.8861   3
   2   8  -8 1548.12 60.3906   2
  -2   8  -8 1547.46 60.5235   2
   2   8   8 1380.31 58.2960   2
   2   8   8 1574.98 60.8892   1
  -2  -8   8 1578.44 62.0703   3
   2  -8  -8 1500.48 63.6097   3
  -4   8   8 789.061 35.2935   1
  -4  -8  -8 800.242 36.2204   3
   4  -8   8 803.053 35.7107   1
   4   8  -8 786.926 34.6315   2
   4  -8  -8 773.449 40.3686   3
   4   8   8 763.862 33.7513   2
  -4  -8   8 776.155 38.5158   3
  -4   8  -8 775.316 33.4877   2
   4   8   8 830.843 35.5890   1
   6  -8   8 295.455 19.5807   1
  -6   8   8 274.599 17.7983   1
   6   8  -8 293.633 17.9771   2
   6   8   8 284.131 17.2857   2
   6  -8  -8 200.745 24.0019   3
  -6  -8   8 306.482 23.8917   3
   1  -9   8 260.051 14.1087   3
  -1  -9  -8 282.097 16.4040   3
  -1   9   8 258.954 15.0173   1
   1   9  -8 262.822 14.9787   2
   1   9   8 264.151 14.9134   1
   1  -9  -8 279.434 17.1459   3
  -1  -9   8 265.645 15.2958   3
  -1   9  -8 258.469 14.8978   2
   3   9  -8 127.363 11.1398   2
  -3   9   8 126.746 10.3527   1
  -3  -9  -8 118.170 12.1885   3
  -3   9  -8 130.950 9.56417   2
  -3  -9   8 108.123 12.3264   3
   3  -9  -8 112.840 13.6931   3
   3   9   8 106.149 8.27456   2
   3   9   8 133.426 9.86094   1
   5  -9   8 29.1596 7.07365   1
   5   9  -8 40.9492 7.33511   2
  -5  -9  -8 17.4539 6.42669   3
  -5   9   8 20.5028 5.86529   1
  -5  -9   8 30.2787 9.53225   3
   5  -9  -8 18.2375 8.40352   3
   5   9   8 24.6174 5.71357   2
   0 -10  -8 371.741 21.1333   3
   0  10  -8 396.309 19.8915   2
   0 -10   8 380.712 19.5877   3
   0 -10   8 370.863 18.0511   1
   0  10   8 398.888 19.9112   1
   2 -10   8 301.865 16.1601   3
  -2 -10  -8 321.406 18.9580   3
   2  10  -8 326.159 17.4787   2
  -2  10   8 337.554 18.3206   1
  -2  10  -8 325.582 17.7261   1
   2 -10  -8 311.300 20.3518   3
   2  10   8 326.953 17.3378   1
  -2  10  -8 313.583 17.0566   2
  -2 -10   8 312.793 18.7695   3
  -4  10   8 196.817 14.0740   1
  -4 -10  -8 203.813 15.3743   3
   4  10  -8 210.952 14.1779   2
   4  10   8 195.330 12.8373   2
   4 -10  -8 207.717 21.0762   3
  -4 -10   8 194.557 16.9393   3
  -6  10   8 94.8007 11.9248   1
   6  10   8 99.1619 11.1383   2
   6 -10  -8 70.8454 15.8836   3
   1 -11   8 53.2064 7.22219   3
   1  11  -8 62.6913 7.94052   2
  -1 -11  -8 58.2052 9.22363   3
  -1  11   8 64.5545 8.77023   1
  -1  11  -8 62.4755 7.72038   1
  -1 -11   8 64.6906 8.67021   3
   1 -11  -8 60.4713 9.17794   3
  -1  11  -8 62.4918 7.79539   2
   1  11   8 54.3262 7.64116   1
   3  11  -8 23.7730 5.59923   2
  -3  11   8 23.4777 6.01216   1
  -3 -11  -8 22.3896 6.40958   3
  -3 -11   8 23.1104 6.75303   3
   3 -11  -8 25.7689 7.84070   3
  -3  11  -8 20.7290 5.86143   1
   5 -11   8 -5.9943 4.18408   1
  -5 -11  -8 1.70657 5.13314   3
   5  11  -8 4.54301 5.08341   2
  -5  11   8 5.14322 4.92864   1
   5  11   8 5.24793 4.24592   2
   5 -11  -8 2.20167 7.75875   3
  -5 -11   8 9.54418 7.55211   3
   0 -12  -8 584.251 30.7182   3
   0  12   8 573.121 28.2019   1
   0 -12   8 579.238 28.4103   3
   0  12  -8 619.595 28.2924   2
   2 -12   8 407.016 23.0231   3
  -2  12   8 445.201 24.1949   1
  -2 -12  -8 520.010 26.7907   3
   2  12  -8 455.889 23.6405   2
   2 -12  -8 461.950 27.2967   3
  -2  12  -8 459.799 23.5921   1
  -2 -12   8 466.834 25.3249   3
   2  12   8 462.603 22.8999   1
  -4 -12  -8 260.894 18.9860   3
   4  12  -8 295.088 18.0183   2
  -4  12   8 228.800 17.0424   1
   4 -12  -8 223.273 23.6167   3
  -4 -12   8 282.109 20.8443   3
  -1 -13  -8 266.989 19.1397   3
  -1  13   8 255.272 16.8619   1
   1 -13   8 245.318 16.1614   3
   1  13  -8 263.021 16.4981   2
  -1 -13   8 289.586 18.0585   3
   1  13   8 267.423 16.3782   1
   1 -13  -8 263.284 19.1542   3
   3  13  -8 178.090 12.9682   2
  -3  13   8 142.456 14.5378   1
  -3 -13  -8 158.549 16.6566   3
  -3 -13   8 140.170 16.0528   3
  -3  13  -8 137.267 13.7488   1
   3 -13  -8 149.479 18.0415   3
   0  14   8 31.5222 6.68033   1
   0 -14  -8 37.7653 9.04998   3
   0 -14   8 32.1166 7.99183   3
  -2 -14  -8 32.1954 8.24361   3
   2  14  -8 34.6987 7.24025   2
  -2  14   8 22.2009 6.16063   1
  -2 -14   8 47.0729 9.41601   3
   2 -14  -8 26.3880 9.26655   3
  -1  15   8 7.70275 4.92189   1
  -1 -15  -8 12.7597 7.21616   3
  -1 -15   8 6.15179 6.00798   3
   1 -15  -8 10.8163 8.29754   3
   0  16   8 84.8375 11.1102   1
   0 -16   8 82.5041 13.1308   3
  -1   0   9 113.810 8.71098   3
  -1   0   9 105.748 7.81608   1
   1   0  -9 116.894 7.34129   2
   1   0   9 131.162 9.32029   1
  -1   0  -9 121.865 5.27439   3
  -3   0   9 49.1898 8.89701   3
  -3   0   9 48.9964 4.87320   1
   3   0   9 50.1445 7.09240   1
  -3   0  -9 55.5318 5.99777   2
   3   0  -9 48.1973 4.94617   2
   5   0   9 6.96097 4.42633   1
  -5   0   9 9.54388 6.44321   3
   5   0  -9 5.39143 3.00788   2
  -5   0  -9 4.43865 3.78780   2
   7   0   9 5.19342 5.92413   1
   7   0  -9 3.61676 3.53882   2
  -7   0   9 4.15138 7.86675   3
  -7   0  -9 17.5695 5.74865   2
   0  -1   9 100.051 6.61214   3
   0  -1   9 88.0082 7.67516   1
   0   1   9 89.4923 7.72264   1
   0  -1  -9 108.560 6.92642   2
   0   1  -9 104.545 7.17869   2
   0  -1  -9 91.3783 6.40395   3
  -2  -1  -9 124.034 8.09387   2
   2  -1   9 105.111 8.72310   1
  -2   1   9 138.902 11.5180   3
  -2  -1  -9 114.563 5.73585   3
   2   1  -9 123.162 7.41813   2
  -2   1   9 118.579 7.53546   1
  -2  -1   9 119.174 12.5576   3
   2   1   9 126.924 9.93584   1
  -2   1  -9 123.406 8.25939   2
  -2  -1   9 129.624 7.45590   1
   2  -1  -9 104.855 6.86860   2
  -4   1   9 118.667 7.57637   1
  -4   1   9 120.981 14.6572   3
   4  -1   9 103.831 10.4026   1
  -4  -1  -9 103.578 8.53092   2
   4   1  -9 105.802 7.71476   2
   4  -1  -9 115.308 7.35788   2
  -4   1  -9 123.825 9.14800   2
   4   1   9 128.590 12.0813   1
  -4  -1   9 85.8116 12.6615   3
  -6   1   9 111.719 17.0966   3
  -6  -1  -9 65.0966 8.35761   2
   6   1  -9 48.8538 6.78543   2
   6  -1   9 60.3570 9.12515   1
   6  -1  -9 66.1660 6.83056   2
  -6   1  -9 48.7967 7.41464   2
   6   1   9 43.1690 8.65721   1
  -6  -1   9 65.8564 13.8691   3
   1   2  -9 621.639 26.4980   2
  -1   2   9 623.311 27.1643   1
   1  -2   9 614.602 27.3951   1
  -1  -2  -9 626.450 26.3854   2
  -1  -2  -9 641.376 25.1447   3
  -1  -2   9 645.942 26.9356   1
   1  -2  -9 696.802 28.2994   3
  -1   2  -9 655.162 27.3380   2
   1   2   9 658.881 29.3204   1
   1  -2  -9 644.925 25.8026   2
  -1  -2   9 623.492 28.3296   3
  -3  -2  -9 266.231 12.5889   3
   3   2  -9 242.483 12.8837   2
  -3  -2  -9 281.984 13.8010   2
  -3   2   9 272.533 17.7306   3
   3  -2   9 282.240 14.6880   1
  -3   2   9 253.809 12.8694   1
  -3   2  -9 257.366 13.7875   2
  -3  -2   9 255.518 17.9164   3
  -3  -2   9 259.700 11.4844   1
   3  -2  -9 258.786 11.9627   2
   3   2   9 200.915 14.9527   1
  -5  -2  -9 40.2524 6.30338   2
  -5   2   9 59.7176 11.2423   3
   5  -2   9 52.6183 7.91386   1
   5   2  -9 44.1081 6.13847   2
  -5   2   9 44.0360 5.50229   1
   5  -2  -9 45.4361 5.21663   2
  -5  -2   9 32.4601 9.62483   3
  -5   2  -9 61.3971 7.44146   2
   5   2   9 50.2591 8.77375   1
  -7  -2  -9 1.16984 3.77135   2
  -7   2   9 -4.7305 5.82872   3
   7  -2   9 2.87933 4.83137   1
   7   2  -9 -1.5835 3.48841   2
  -7   2  -9 -2.4447 3.68948   2
  -7  -2   9 12.1431 8.29730   3
   0  -3   9 62.1667 5.12534   3
   0  -3  -9 59.5567 4.89802   2
   0  -3   9 67.7768 6.55198   1
   0   3   9 62.6215 7.18906   1
   0  -3  -9 73.2262 6.66534   3
   0   3  -9 59.4932 6.29675   2
  -2  -3  -9 84.7166 6.53077   2
   2  -3   9 67.0096 7.09350   1
   2   3  -9 79.8694 6.48883   2
  -2   3   9 79.7562 6.61831   1
  -2  -3  -9 76.0388 5.52259   3
  -2   3  -9 83.5978 7.96667   2
   2  -3  -9 79.3430 5.27147   2
  -2  -3   9 84.4673 5.72567   1
   2   3   9 80.0261 10.0178   1
  -2  -3   9 100.101 10.4115   3
   2  -3  -9 98.1076 10.4316   3
   4   3  -9 97.1761 7.77083   2
  -4   3   9 84.7374 7.14485   1
  -4  -3  -9 95.1628 9.01109   2
   4  -3   9 91.5782 9.46373   1
   4  -3  -9 98.5912 6.25431   2
   4   3   9 109.227 12.3411   1
  -4   3  -9 102.140 9.06085   2
  -4  -3   9 93.3372 13.1349   3
   6   3  -9 44.8601 6.74179   2
   6  -3   9 56.3224 8.88236   1
  -6  -3  -9 43.0119 7.18788   2
  -6  -3   9 53.5499 12.6443   3
   6   3   9 68.8695 11.0714   1
  -6   3  -9 38.1879 6.86470   2
   8  -3   9 13.2946 7.00804   1
   8   3  -9 15.6490 6.07706   2
  -1  -4  -9 87.0717 6.28710   3
  -1  -4  -9 76.9277 5.83100   2
   1  -4   9 75.3553 4.78394   3
   1   4  -9 77.2741 7.15155   2
   1  -4   9 84.3785 6.89273   1
  -1   4   9 81.7489 6.98897   1
  -1  -4   9 84.9714 6.99659   3
  -1  -4   9 91.0143 6.72752   1
   1  -4  -9 94.9610 5.43895   2
   1  -4  -9 84.4604 8.43749   3
   1   4   9 67.3561 8.11078   1
  -1   4  -9 95.7830 8.41861   2
   3   4  -9 65.9185 6.80835   2
  -3  -4  -9 72.1195 6.30962   3
   3  -4   9 65.7313 7.68185   1
  -3  -4  -9 66.8034 6.97694   2
  -3   4   9 68.9122 7.11556   1
  -3   4  -9 73.2046 7.49599   2
   3  -4  -9 68.7853 4.63836   2
   3   4   9 74.5563 10.4492   1
   3  -4  -9 74.8987 10.5416   3
  -3  -4   9 73.8933 10.4135   3
  -5  -4  -9 48.7881 7.21753   2
  -5   4   9 44.1342 6.15067   1
   5   4  -9 54.1820 7.13774   2
   5  -4   9 51.8722 7.67759   1
  -5  -4   9 27.6618 9.46156   3
  -5   4  -9 48.3885 6.74374   2
   5  -4  -9 46.8132 10.0552   3
   5   4   9 59.7639 10.6006   1
   7   4  -9 31.0129 6.63119   2
  -7  -4  -9 43.3479 7.60734   2
   7  -4   9 43.6371 8.55766   1
  -7  -4   9 62.3202 14.4987   3
  -7   4  -9 39.8893 7.24560   2
   7  -4  -9 25.2098 10.3028   3
   0  -5   9 42.8962 5.07767   1
   0  -5  -9 47.5449 5.93215   3
   0   5  -9 25.8840 4.44246   2
   0  -5   9 42.0351 4.75209   3
   0   5   9 41.5554 6.04961   1
   0  -5  -9 48.4244 4.23845   2
  -2  -5  -9 58.8920 6.25996   3
   2  -5   9 67.9166 7.50202   1
   2   5  -9 55.5959 6.22831   2
   2  -5   9 55.5606 3.95723   3
  -2   5   9 59.4743 6.71480   1
  -2  -5  -9 55.2637 5.77946   2
   2  -5  -9 54.2925 7.88705   3
  -2   5  -9 52.2140 6.20817   2
   2   5   9 63.4413 8.62248   1
  -2  -5   9 64.5406 5.15206   1
   2  -5  -9 62.7499 3.80467   2
  -2  -5   9 50.5638 7.19240   3
   4   5  -9 69.5385 7.48368   2
   4  -5   9 76.5557 9.04617   1
  -4  -5  -9 81.8958 9.69847   3
  -4   5   9 77.2221 8.06248   1
  -4  -5  -9 76.6885 8.26959   2
  -4   5  -9 65.2980 7.27017   2
  -4  -5   9 69.6121 11.7178   3
   4   5   9 66.9505 10.5389   1
   4  -5  -9 66.2794 11.3588   3
   6  -5   9 28.4483 6.82115   1
  -6   5   9 47.8162 6.89806   1
  -6  -5  -9 27.3062 6.35123   2
   6   5  -9 46.3206 7.20675   2
  -6  -5   9 53.4181 12.5357   3
  -6   5  -9 37.7678 6.55784   2
   6  -5  -9 23.7323 9.17332   3
  -1  -6  -9 226.415 10.5236   2
  -1  -6  -9 215.069 11.9996   3
   1   6  -9 206.120 12.1154   2
   1  -6   9 201.257 10.4110   3
   1  -6   9 177.217 11.4206   1
  -1   6   9 215.927 12.5355   1
  -1   6  -9 220.893 12.6000   2
  -1  -6   9 241.185 12.5524   3
   1  -6  -9 199.803 8.62210   2
   1   6   9 222.145 13.0597   1
  -1  -6   9 209.968 11.0159   1
   1  -6  -9 192.065 12.8659   3
   3  -6   9 176.791 11.7761   1
  -3   6   9 171.181 11.0708   1
  -3  -6  -9 158.298 10.1609   2
  -3  -6  -9 160.070 10.8013   3
   3   6  -9 160.733 10.6609   2
  -3  -6   9 161.507 12.9811   3
   3   6   9 146.871 12.6646   1
   3  -6  -9 168.856 14.3887   3
  -3   6  -9 171.266 10.9817   2
  -5   6   9 95.0231 9.84069   1
  -5  -6  -9 104.626 10.3139   2
   5  -6   9 94.8013 10.6426   1
   5   6  -9 79.5293 8.79099   2
   5  -6  -9 75.1277 13.3393   3
  -5   6  -9 107.819 9.82233   2
  -5  -6   9 138.089 17.3780   3
   7   6  -9 51.7491 8.68240   2
   7  -6   9 79.3893 11.8136   1
   7   6   9 44.4454 8.39891   2
  -7  -6   9 65.7543 14.9603   3
   7  -6  -9 44.5613 11.9089   3
   0   7  -9 18.9477 4.14907   2
   0   7   9 23.7499 4.71214   1
   0  -7   9 20.1579 3.76576   1
   0  -7   9 18.1652 3.83692   3
   0  -7  -9 24.9472 2.85136   2
   0  -7  -9 21.3734 5.01036   3
  -2   7   9 28.9120 5.19798   1
   2  -7   9 37.0215 5.69803   1
  -2  -7  -9 24.7217 4.10291   2
  -2  -7  -9 36.3820 5.84976   3
   2   7  -9 29.3354 5.25652   2
   2  -7   9 34.8103 4.17614   3
  -2   7  -9 25.8836 5.16151   2
  -2  -7   9 31.3056 5.86327   3
   2  -7  -9 37.0385 7.24293   3
   2   7   9 42.0005 6.75955   1
   4   7  -9 42.4830 6.86163   2
   4  -7   9 39.5800 6.85843   1
  -4  -7  -9 36.9985 6.03502   2
  -4   7   9 50.7808 7.17216   1
  -4  -7  -9 35.2403 6.93636   3
   4   7   9 56.0121 8.88091   1
   4  -7  -9 50.5162 10.0006   3
  -4   7  -9 48.4123 6.63349   2
  -4  -7   9 42.7947 9.24812   3
   6  -7   9 26.0598 7.56148   1
  -6   7   9 40.5787 7.20131   1
   6   7  -9 31.1821 6.81873   2
  -6  -7   9 29.3647 10.9977   3
   6   7   9 31.3545 6.78667   2
   6  -7  -9 22.4782 9.86429   3
   1   8  -9 864.719 38.4952   2
   1  -8   9 938.905 37.3135   3
   1  -8   9 909.157 38.0794   1
  -1   8   9 956.795 39.4510   1
  -1  -8  -9 942.956 39.7956   3
  -1  -8   9 933.977 39.2286   1
   1  -8  -9 914.977 40.7908   3
  -1  -8   9 936.485 39.0550   3
   1   8   9 919.934 39.4885   1
  -1   8  -9 921.035 38.8987   2
  -3   8   9 579.596 28.1807   1
   3  -8   9 594.521 28.2682   1
   3   8  -9 596.261 27.7531   2
  -3  -8  -9 623.306 28.7922   3
  -3  -8   9 606.294 30.5172   3
   3  -8  -9 590.277 31.8372   3
  -3   8  -9 618.698 27.6756   2
   3   8   9 650.698 29.2911   1
   5   8  -9 271.765 16.4579   2
   5  -8   9 279.575 18.2491   1
  -5   8   9 298.766 17.1329   1
  -5  -8   9 246.646 20.7535   3
   5   8   9 272.102 16.1793   2
   5  -8  -9 191.662 21.9383   3
   0  -9   9 39.8148 5.90649   3
   0  -9   9 41.7662 5.55668   1
   0   9   9 51.5236 6.96813   1
   0  -9  -9 53.0781 7.94468   3
   0   9  -9 42.8254 6.46547   2
   2   9  -9 65.5332 7.65455   2
  -2  -9  -9 58.2528 8.23469   3
   2  -9   9 50.8150 6.76366   1
  -2   9   9 54.0144 7.51525   1
   2  -9   9 50.5884 6.22184   3
   2   9   9 54.6770 7.46683   1
  -2   9  -9 49.8992 6.91838   2
   2   9   9 62.8352 7.94097   2
   2  -9  -9 63.3385 9.81631   3
  -2  -9   9 59.2194 8.52852   3
   4  -9   9 51.1868 7.59259   1
   4   9  -9 51.7163 7.81695   2
  -4   9   9 47.3250 7.52874   1
  -4  -9  -9 56.0405 8.87602   3
   4   9   9 53.7383 6.87280   2
   4  -9  -9 52.3638 10.8309   3
  -4  -9   9 44.9752 9.65833   3
   6   9  -9 37.7509 7.52160   2
   6  -9   9 32.0706 8.75951   1
  -6   9   9 28.4895 7.00147   1
   6  -9  -9 2.91561 7.82209   3
   6   9   9 21.3874 6.28419   2
  -6  -9   9 25.3912 10.5676   3
   1 -10   9 273.284 14.8615   1
  -1 -10  -9 277.885 17.1037   3
   1  10  -9 275.766 15.8322   2
  -1  10   9 238.073 15.6489   1
   1 -10   9 267.074 14.5825   3
  -1  10  -9 255.440 15.4423   2
   1 -10  -9 267.766 17.6296   3
   1  10   9 257.633 15.5155   1
  -1 -10   9 261.503 15.9365   3
  -3 -10  -9 203.902 14.7211   3
   3  10  -9 200.726 13.5759   2
   3 -10   9 200.157 13.8700   1
  -3  10   9 206.094 14.2125   1
  -3 -10   9 208.452 15.6832   3
  -3  10  -9 186.499 15.1333   2
   3  10   9 191.173 13.3438   1
   3 -10  -9 189.609 16.3852   3
   5  10  -9 94.2937 11.0093   2
  -5  10   9 110.847 11.9445   1
   5 -10   9 120.958 13.0868   1
   5  10   9 127.277 11.6405   2
   5 -10  -9 87.8041 15.4258   3
  -5 -10   9 87.8231 14.4191   3
   0  11  -9 -0.3301 3.41804   2
   0 -11  -9 5.27605 4.86458   3
   0  11   9 -1.4690 3.30247   1
   0 -11   9 -0.5821 3.04658   3
   2  11  -9 7.23254 4.34178   2
   2 -11   9 2.22453 3.75277   1
  -2  11   9 6.33763 4.00618   1
  -2 -11  -9 9.71407 4.70825   3
  -2  11  -9 0.24071 3.98937   2
   2  11   9 5.59206 3.64559   1
   2 -11  -9 3.14027 5.32639   3
  -2 -11   9 5.00557 4.77161   3
   4 -11   9 13.3148 5.68512   1
  -4  11   9 9.20269 4.90959   1
  -4 -11  -9 14.6573 6.29576   3
   4  11  -9 1.80575 4.51906   2
  -4 -11   9 4.40922 5.63195   3
   4 -11  -9 4.34176 7.23623   3
   1  12  -9 279.429 16.8001   2
  -1  12   9 264.548 17.1275   1
   1 -12   9 276.688 16.0933   3
  -1 -12  -9 287.925 19.1266   3
   1 -12   9 270.400 15.4922   1
  -1 -12   9 251.001 17.1542   3
   1 -12  -9 298.801 20.0196   3
  -1  12  -9 271.270 19.5852   2
   1  12   9 263.398 16.4156   1
  -3  12   9 187.408 14.7248   1
   3 -12   9 165.121 13.6322   1
   3  12  -9 217.362 14.3558   2
  -3 -12  -9 202.146 16.0439   3
  -3 -12   9 195.396 16.2094   3
   3 -12  -9 174.156 19.2212   3
   0  13   9 5.04896 4.59413   1
   0 -13   9 11.7423 5.45621   3
   0 -13  -9 12.9419 5.94727   3
  -2  13   9 11.3876 5.53232   1
  -2 -13  -9 14.9765 6.72353   3
   2  13  -9 12.7092 5.30164   2
   2 -13   9 9.45803 4.97435   1
  -2 -13   9 2.64669 5.00500   3
   2 -13  -9 12.4354 6.42750   3
   4  13  -9 23.5223 6.81982   2
  -4 -13  -9 28.6652 8.26306   3
   4 -13   9 19.9066 10.1453   1
  -4 -13   9 13.8857 12.4239   3
  -1  14   9 21.6363 6.73023   1
  -1 -14  -9 22.4076 7.67791   3
   1 -14  -9 23.6730 8.04736   3
   1  14   9 27.9002 6.60203   1
  -1 -14   9 38.0351 8.30127   3
  -3 -14  -9 26.0249 7.93003   3
   3  14  -9 23.4578 7.19351   2
   3 -14   9 37.1500 7.97758   1
  -3 -14   9 24.4111 7.61617   3
   0  15   9 2.92644 4.45431   1
   0 -15   9 5.89559 5.13301   3
   0   0 -10 38.7864 4.93304   2
   0   0 -10 46.8109 4.78830   3
   0   0  10 38.9606 6.00099   1
   2   0  10 33.8026 6.34350   1
  -2   0 -10 48.0854 5.97667   2
  -2   0  10 41.3271 7.35469   3
   2   0 -10 44.3851 4.94933   2
  -2   0  10 28.3139 4.25961   1
  -4   0  10 30.9275 7.95007   3
  -4   0 -10 25.4362 4.78719   2
   4   0  10 46.3618 7.85694   1
  -4   0  10 37.3509 4.44741   1
   4   0 -10 39.3159 5.12277   2
  -6   0  10 38.5391 10.3185   3
  -6   0 -10 25.6189 6.11377   2
   6   0 -10 28.4948 5.06493   2
   6   0  10 28.6689 7.74372   1
  -1  -1 -10 1099.01 44.2062   2
  -1  -1 -10 1131.90 41.6784   3
   1   1 -10 1157.08 44.0085   2
   1  -1  10 1139.76 45.8579   1
  -1   1  10 1064.38 44.5346   1
   1  -1 -10 1130.00 43.4435   2
  -1  -1  10 1079.11 45.6922   3
   1   1  10 1148.54 46.4662   1
  -1  -1  10 1121.00 44.4724   1
  -1   1 -10 1084.94 44.2954   2
   3   1 -10 451.719 20.2384   2
  -3   1  10 456.325 20.2874   1
  -3  -1 -10 441.839 21.2361   2
   3  -1  10 463.435 22.6390   1
  -3   1  10 511.219 26.6267   3
   3  -1 -10 454.452 19.6828   2
  -3   1 -10 479.460 21.6582   2
  -3  -1  10 434.558 25.4971   3
   3   1  10 473.220 23.9408   1
  -3  -1  10 456.380 19.5519   1
   5  -1  10 108.440 11.4410   1
  -5   1  10 107.952 15.8446   3
  -5  -1 -10 98.3899 9.85087   2
   5   1 -10 101.060 8.21505   2
  -5   1 -10 120.177 10.8306   2
   5  -1 -10 103.095 7.73396   2
   5   1  10 102.457 12.1538   1
  -5  -1  10 95.5769 14.5223   3
  -7  -1 -10 18.2186 5.82350   2
  -7   1  10 21.3289 8.93842   3
   7   1 -10 22.8824 5.46403   2
   7  -1  10 21.6838 7.16158   1
  -7  -1  10 21.7510 9.04545   3
  -7   1 -10 19.8860 6.31986   2
   0   2  10 1804.29 70.5995   1
   0   2 -10 1842.11 69.2934   2
   0  -2 -10 1779.82 68.3843   2
   0  -2  10 1752.26 68.7131   3
   0  -2 -10 1843.88 68.3935   3
   0  -2  10 1839.71 70.0747   1
  -2  -2 -10 1520.77 55.3513   3
   2  -2  10 1469.86 58.9126   1
  -2   2  10 1507.37 57.6155   1
   2   2 -10 1518.76 57.2444   2
  -2  -2 -10 1507.51 57.6627   2
   2  -2 -10 1476.94 56.2244   2
  -2   2 -10 1366.04 57.9891   2
  -2  -2  10 1534.46 61.5436   3
   2   2  10 1480.80 60.6426   1
  -2  -2  10 1461.88 56.6506   1
  -4  -2 -10 707.642 32.5258   2
   4  -2  10 765.577 34.3209   1
  -4   2  10 889.168 40.0936   3
   4   2 -10 756.722 31.8991   2
  -4   2  10 714.393 31.4161   1
  -4  -2  10 746.591 39.1924   3
  -4   2 -10 725.010 32.6521   2
   4   2  10 836.432 36.7095   1
   4  -2 -10 762.995 30.6184   2
   6   2 -10 274.775 15.7818   2
   6  -2  10 281.434 18.4454   1
  -6  -2 -10 281.237 17.1712   2
  -6   2  10 301.918 23.8143   3
  -6   2 -10 261.302 16.5966   2
   6   2  10 294.695 20.6179   1
  -6  -2  10 269.875 23.0898   3
  -1   3  10 0.78117 2.40221   1
   1  -3  10 -0.7198 1.25090   3
  -1  -3 -10 0.39320 2.06261   2
   1   3 -10 1.26231 2.30130   2
   1  -3  10 2.63638 2.90291   1
  -1  -3 -10 2.93736 1.92907   3
  -1  -3  10 1.44971 2.77073   3
  -1   3 -10 -0.0661 2.57203   2
   1  -3 -10 0.42377 2.71333   3
   1  -3 -10 1.46225 1.89786   2
   1   3  10 1.88080 3.80697   1
  -1  -3  10 -1.0964 2.29797   1
  -3   3  10 8.20052 3.08384   1
  -3  -3 -10 9.67663 3.50647   2
   3  -3  10 12.2729 4.27704   1
   3   3 -10 14.0336 3.50192   2
   3  -3 -10 10.5138 5.21621   3
  -3  -3  10 16.3838 6.70921   3
   3  -3 -10 18.0891 3.01426   2
  -3   3 -10 8.09787 3.49888   2
   3   3  10 11.4774 5.63666   1
  -5  -3 -10 17.4184 4.95405   2
   5  -3  10 18.0787 5.37517   1
  -5   3  10 17.3210 4.32350   1
   5   3 -10 19.5303 4.73395   2
  -5  -3  10 21.0199 7.87324   3
  -5   3 -10 26.7370 5.30779   2
   5   3  10 15.8161 6.57230   1
   7   3 -10 8.34149 4.49781   2
   7  -3  10 6.58211 5.27823   1
  -7  -3 -10 1.96834 4.01944   2
   7  -3 -10 5.44375 7.50328   3
  -7  -3  10 4.71712 6.95901   3
  -7   3 -10 17.6466 5.71374   2
   0  -4  10 219.049 11.8462   1
   0  -4 -10 202.769 10.3179   2
   0  -4  10 214.669 10.7905   3
   0   4  10 198.752 12.4696   1
   0  -4 -10 192.438 11.3814   3
  -2  -4 -10 181.609 10.3099   2
   2   4 -10 166.158 10.3702   2
  -2   4  10 163.677 10.5618   1
   2  -4  10 178.484 11.4639   1
  -2  -4 -10 182.094 9.74412   3
  -2   4 -10 155.266 10.7878   2
  -2  -4  10 173.272 9.50575   1
   2  -4 -10 173.023 12.8532   3
  -2  -4  10 167.472 12.2411   3
   2  -4 -10 187.814 8.86646   2
   2   4  10 192.503 14.0024   1
  -4   4  10 101.746 8.65406   1
   4  -4  10 125.827 10.5478   1
   4   4 -10 119.210 9.25365   2
  -4  -4 -10 116.752 10.4852   2
  -4  -4  10 100.329 13.4224   3
   4   4  10 152.782 15.7290   1
   4  -4 -10 153.762 16.4283   3
  -4   4 -10 123.790 9.48351   2
   6  -4  10 65.4764 9.98005   1
  -6  -4 -10 66.5358 8.99989   2
   6   4 -10 60.8262 8.04719   2
  -6   4 -10 70.6094 8.76812   2
   6  -4 -10 58.4778 12.5563   3
  -6  -4  10 62.7951 13.4930   3
  -1  -5 -10 1302.38 49.6335   2
   1  -5  10 1077.25 50.5472   1
  -1   5  10 1361.61 52.1303   1
  -1  -5 -10 1257.11 50.5327   3
   1  -5  10 1333.47 48.8288   3
  -1  -5  10 1332.45 50.6194   1
   1  -5 -10 1353.23 48.5002   2
  -1   5 -10 1339.43 51.6817   2
  -1  -5  10 1281.91 51.2713   3
   1   5  10 1327.87 53.1304   1
   1  -5 -10 1217.46 52.1654   3
  -3  -5 -10 615.164 26.8095   3
  -3  -5 -10 630.378 27.1559   2
   3   5 -10 584.121 26.8914   2
   3  -5  10 641.521 28.3538   1
  -3   5  10 620.325 27.4477   1
  -3   5 -10 617.984 27.5937   2
   3  -5 -10 620.845 31.6218   3
   3   5  10 553.671 30.2369   1
  -3  -5  10 614.548 30.7244   3
  -5  -5 -10 174.628 12.2954   2
   5  -5  10 156.610 12.8885   1
  -5   5  10 162.478 11.3830   1
   5   5 -10 161.858 11.7293   2
   5  -5 -10 130.067 16.4388   3
  -5   5 -10 174.812 11.7779   2
  -5  -5  10 138.856 17.7361   3
   5   5  10 163.530 17.0860   1
   7  -5  10 27.4963 8.09091   1
   7   5 -10 38.4172 7.47864   2
  -7   5 -10 41.6665 7.40903   2
  -7  -5  10 23.0581 10.7889   3
   7  -5 -10 19.8065 9.67752   3
   0  -6 -10 1944.52 70.7531   2
   0  -6 -10 1615.58 73.4548   3
   0  -6  10 1969.65 72.4520   3
   0   6  10 1975.51 74.7454   1
   0   6 -10 1939.21 73.7957   2
   0  -6  10 1992.14 73.0178   1
   2   6 -10 1559.50 60.8345   2
  -2   6  10 1563.55 61.5328   1
  -2  -6 -10 1473.40 60.5860   3
   2  -6  10 1585.34 61.5837   1
  -2  -6 -10 1551.49 59.8246   2
  -2   6 -10 1540.35 61.3431   2
   2   6  10 1618.13 63.6722   1
  -2  -6  10 1553.41 62.6233   3
   2  -6 -10 1528.47 63.9123   3
  -4   6  10 807.590 34.7821   1
   4  -6  10 810.457 35.9832   1
   4   6 -10 859.285 34.8959   2
  -4  -6 -10 840.807 34.6257   2
  -4  -6  10 733.100 38.8326   3
  -4   6 -10 820.837 34.4048   2
   4  -6 -10 726.427 39.6255   3
   4   6  10 658.258 37.1356   1
   6  -6  10 326.816 20.3410   1
  -6  -6 -10 288.851 18.4648   2
  -6   6  10 325.881 18.1950   1
   6   6 -10 303.909 18.1896   2
  -6   6 -10 299.929 17.3955   2
  -6  -6  10 302.996 25.9390   3
   6  -6 -10 274.280 23.9924   3
  -1  -7 -10 10.4445 2.63793   2
   1   7 -10 6.44723 3.58312   2
  -1   7  10 12.9318 4.11987   1
   1  -7  10 11.9761 3.14499   3
   1  -7  10 12.6256 3.97257   1
  -1  -7 -10 10.1086 3.89605   3
  -1  -7  10 9.07769 3.71076   3
   1  -7 -10 10.9820 4.64931   3
  -1  -7  10 12.6105 3.25762   1
  -1   7 -10 12.8117 4.29048   2
   1   7  10 13.3266 4.80882   1
  -3   7  10 -3.8234 2.46246   1
   3  -7  10 -0.3407 3.17123   1
   3   7 -10 -1.9791 2.96496   2
  -3  -7 -10 1.23179 2.70157   2
  -3  -7 -10 5.15088 3.28952   3
  -3  -7  10 -2.1924 4.17805   3
  -3   7 -10 7.17761 3.61242   2
   3   7  10 0.30386 3.72598   1
   3  -7 -10 3.07813 4.72381   3
  -5  -7 -10 -0.0576 3.62040   2
   5   7 -10 0.29887 3.34818   2
  -5   7  10 8.09582 3.98897   1
   5  -7  10 4.20514 4.89836   1
   5  -7 -10 2.24904 5.50127   3
  -5   7 -10 3.50690 3.64601   2
  -5  -7  10 -0.0418 5.87457   3
   0  -8  10 367.752 17.0186   1
   0   8 -10 357.535 18.2745   2
   0  -8  10 291.260 16.6199   3
   0   8  10 363.978 18.9527   1
   0  -8 -10 351.464 19.2102   3
   2  -8  10 314.320 17.2446   1
  -2  -8 -10 305.022 15.1088   2
  -2   8  10 314.973 17.5849   1
  -2  -8 -10 307.447 17.3430   3
   2   8 -10 285.911 16.6889   2
   2  -8 -10 284.641 19.1674   3
  -2  -8  10 319.377 18.2454   3
   2   8  10 319.440 18.2255   1
  -2   8 -10 336.823 17.4666   2
   4  -8  10 200.993 14.4239   1
  -4  -8 -10 192.120 12.7553   2
  -4   8  10 165.493 12.9211   1
   4   8 -10 189.799 12.9744   2
  -4  -8  10 182.656 18.1712   3
  -4   8 -10 200.086 12.6514   2
   4   8  10 185.765 14.6009   1
   4  -8 -10 167.749 19.0370   3
   6   8 -10 93.3059 10.8090   2
   6  -8  10 102.993 13.1646   1
  -6   8  10 92.2374 10.8898   1
   6   8  10 77.9809 10.0506   2
   6  -8 -10 52.0559 14.0678   3
  -6  -8  10 83.4378 16.0252   3
   1  -9  10 177.321 10.9069   3
   1   9 -10 163.556 12.0628   2
  -1   9  10 165.687 12.3758   1
  -1  -9 -10 160.620 12.5636   3
   1  -9  10 194.410 11.9485   1
   1   9  10 190.243 13.0163   1
  -1   9 -10 192.913 12.5482   2
  -1  -9  10 181.407 12.2902   3
   1  -9 -10 172.419 13.8449   3
   3  -9  10 57.9303 8.28422   1
   3   9 -10 75.0598 9.11447   2
  -3   9  10 74.4104 9.53696   1
  -3  -9 -10 79.6653 9.71026   3
   3  -9 -10 65.3736 10.8345   3
  -3  -9  10 64.9556 9.86790   3
   3   9  10 65.6035 7.35179   2
   3   9  10 80.2014 9.93734   1
  -3   9 -10 76.8612 8.64502   2
   5  -9  10 21.6657 6.87875   1
   5   9 -10 7.25056 4.94454   2
  -5   9  10 3.88421 3.87837   1
   5   9  10 18.6329 5.02034   2
  -5  -9  10 23.3011 9.14503   3
   5  -9 -10 19.7356 8.95127   3
   0 -10 -10 1062.10 46.2143   3
   0  10 -10 1077.34 44.5466   2
   0 -10  10 996.584 42.6445   1
   0  10  10 1035.55 44.6807   1
   0 -10  10 1042.95 43.4699   3
   2  10 -10 816.174 37.0951   2
   2 -10  10 843.818 36.8699   1
  -2 -10 -10 868.350 38.5979   3
  -2  10  10 853.681 38.1071   1
  -2  10 -10 861.656 37.1764   2
   2  10  10 854.799 37.8126   1
  -2 -10  10 851.737 38.6081   3
   2 -10 -10 764.068 39.9668   3
   4 -10  10 462.750 24.8670   1
  -4  10  10 481.070 25.0399   1
  -4 -10 -10 434.383 25.7861   3
   4  10 -10 460.068 23.9730   2
   4  10  10 464.127 22.9920   2
  -4 -10  10 445.125 27.4313   3
   4 -10 -10 400.121 28.3487   3
  -1 -11 -10 225.404 16.2870   3
   1  11 -10 219.797 14.6780   2
  -1  11  10 215.003 15.0689   1
   1 -11  10 224.585 13.8041   3
   1 -11  10 233.093 14.1899   1
   1  11  10 221.040 14.7314   1
  -1 -11  10 197.874 14.5149   3
  -1  11 -10 246.320 14.9829   2
   1 -11 -10 234.204 17.2528   3
  -3 -11 -10 112.837 12.9935   3
   3 -11  10 115.095 11.9698   1
   3  11 -10 125.557 12.0281   2
  -3  11  10 131.866 13.4256   1
   3  11  10 132.370 18.9960   1
  -3 -11  10 94.6430 12.8756   3
   3 -11 -10 110.902 15.2914   3
   5  11 -10 41.9379 9.77933   2
   5 -11  10 31.9909 11.6039   1
  -5  11  10 37.6582 7.87001   1
   5 -11 -10 12.5765 10.5110   3
  -5 -11  10 13.4660 8.85728   3
   0  12 -10 123.684 12.0619   2
   0  12  10 112.206 11.8903   1
   0 -12  10 106.327 11.2881   3
   0 -12 -10 119.128 13.8633   3
  -2 -12 -10 97.6811 12.6017   3
   2  12 -10 98.3186 11.1314   2
  -2  12  10 104.085 11.7583   1
   2 -12  10 98.9669 10.6845   1
  -2 -12  10 104.421 12.4150   3
   2  12  10 88.1425 10.3040   1
   2 -12 -10 111.421 14.7869   3
   4  12 -10 70.9476 10.0381   2
  -4 -12 -10 58.6352 10.6655   3
  -4  12  10 69.4021 10.5014   1
   4 -12  10 75.3514 10.8578   1
   4 -12 -10 58.8410 12.4359   3
  -4 -12  10 58.3133 11.8888   3
   1  13 -10 -4.1221 3.77110   2
  -1  13  10 9.47866 4.60716   1
  -1 -13 -10 6.86651 5.38724   3
   1 -13 -10 -5.5350 4.55747   3
   1  13  10 -1.7533 4.09019   1
  -1 -13  10 1.52440 4.36370   3
   3 -13  10 1.36086 4.24589   1
  -3 -13 -10 3.60089 5.58640   3
  -3  13  10 1.07343 4.07293   1
   3  13 -10 2.40148 4.73436   2
   3 -13 -10 5.02571 5.85519   3
  -3 -13  10 4.69908 5.59617   3
   0 -14 -10 246.166 19.4151   3
   0  14  10 221.075 15.9607   1
   0 -14  10 211.307 15.6355   3
   2  14 -10 200.810 15.8763   2
  -2 -14 -10 205.401 17.4462   3
  -2  14  10 191.626 15.6179   1
  -2 -14  10 188.932 16.2379   3
   2 -14 -10 186.809 20.7203   3
  -1 -15  10 56.0550 9.91462   3
  -1   0  11 1073.01 43.6491   1
  -1   0 -11 1031.96 43.0648   2
   1   0  11 1093.09 45.0589   1
  -1   0  11 1141.42 44.3667   3
  -1   0 -11 1049.79 39.7177   3
   3   0 -11 745.500 30.9472   2
  -3   0 -11 739.987 32.3724   2
  -3   0  11 800.247 36.9652   3
   3   0  11 732.104 34.3230   1
  -3   0  11 757.250 30.9342   1
  -5   0 -11 340.173 19.6008   2
   5   0  11 378.099 22.2441   1
  -5   0  11 415.384 26.6347   3
   5   0 -11 393.407 18.5145   2
   7   0  11 157.231 16.9583   1
  -7   0  11 192.071 23.4458   3
  -7   0 -11 156.102 14.7867   2
   0  -1  11 1083.42 41.2876   3
   0  -1 -11 1013.89 41.8006   2
   0  -1  11 1063.25 43.5170   1
   0  -1 -11 1047.53 41.1495   3
   0   1 -11 1038.18 42.2372   2
   0   1  11 1079.19 43.8388   1
  -2   1  11 663.344 31.2811   3
  -2  -1 -11 642.510 28.9421   2
   2   1 -11 698.009 28.5143   2
  -2   1  11 690.934 28.9446   1
   2   1  11 670.488 31.3669   1
  -2  -1  11 699.017 32.3434   3
  -2  -1  11 718.340 28.5327   1
   2  -1 -11 633.472 27.7779   2
  -2   1 -11 682.179 29.4916   2
  -4   1  11 252.673 19.3526   3
  -4   1  11 205.665 11.5312   1
  -4  -1 -11 188.882 12.8121   2
   4   1 -11 206.758 11.9199   2
   4  -1  11 183.824 14.1180   1
   4  -1 -11 208.715 11.4051   2
   4   1  11 232.816 15.9600   1
  -4   1 -11 220.644 13.3221   2
  -4  -1  11 216.946 17.9559   3
  -6  -1 -11 44.4996 7.70500   2
   6   1 -11 43.2412 6.40588   2
   6  -1  11 36.1778 8.29770   1
  -6   1  11 49.1924 10.9160   3
   6   1  11 55.9311 10.3666   1
  -6  -1  11 39.4444 11.2512   3
  -6   1 -11 40.1966 7.34385   2
  -1   2  11 27.2438 4.84993   1
  -1  -2 -11 25.9876 4.34616   2
  -1  -2 -11 27.8986 3.37507   3
   1  -2  11 35.3986 5.97111   1
   1   2 -11 24.7267 4.26748   2
  -1  -2  11 27.0353 5.43783   3
   1  -2 -11 25.3931 4.87137   3
   1  -2 -11 38.5943 4.65627   2
  -1  -2  11 26.5605 4.74209   1
   1   2  11 18.3533 5.24332   1
  -1   2 -11 20.9503 4.30310   2
   3  -2  11 19.1132 4.89776   1
  -3  -2 -11 17.0221 4.55044   2
  -3   2  11 28.7306 6.92182   3
  -3   2  11 27.4157 4.49961   1
   3   2 -11 31.6191 4.85948   2
  -3  -2  11 18.4459 6.60626   3
  -3  -2  11 20.6302 3.46361   1
   3  -2 -11 21.7845 3.62841   2
  -3   2 -11 20.8480 4.53101   2
   3   2  11 23.3718 6.02413   1
   5   2 -11 18.8267 4.72842   2
  -5   2  11 15.1096 7.93044   3
  -5  -2 -11 10.2653 4.62888   2
   5  -2  11 15.0491 5.89708   1
  -5  -2  11 20.6640 8.77390   3
  -5   2 -11 13.1724 4.30824   2
   5   2  11 20.3676 7.04805   1
  -7   2  11 15.6872 8.79108   3
  -7  -2 -11 15.6936 5.96702   2
   7  -2  11 14.9797 7.18954   1
   7   2 -11 15.4110 5.59960   2
  -7   2 -11 20.7139 6.15938   2
  -7  -2  11 23.9431 9.50148   3
   0  -3 -11 50.8799 5.55616   2
   0  -3 -11 42.7765 5.17861   3
   0   3 -11 43.3386 6.05372   2
   0  -3  11 42.1451 5.55890   3
   0   3  11 43.2651 6.49356   1
   0  -3  11 37.2024 5.84452   1
  -2  -3 -11 13.4680 3.77487   2
   2  -3  11 9.91416 3.58353   1
  -2  -3 -11 16.3425 3.00021   3
   2   3 -11 18.2529 4.18078   2
  -2   3  11 12.9807 3.74729   1
  -2   3 -11 11.7870 3.73825   2
   2  -3 -11 17.2153 5.22408   3
   2  -3 -11 16.2991 3.27422   2
  -2  -3  11 5.37763 4.60380   3
   2   3  11 17.0799 5.42301   1
  -2  -3  11 14.3835 3.48976   1
   4   3 -11 2.92791 3.21906   2
  -4  -3 -11 3.09948 3.58175   2
   4  -3  11 0.93631 3.42790   1
  -4   3  11 3.16034 2.80084   1
   4   3  11 -2.2604 5.07268   1
  -4  -3  11 2.99443 5.60559   3
  -4   3 -11 1.61634 3.40415   2
   4  -3 -11 -4.9718 4.71856   3
   6   3 -11 3.26362 4.13152   2
  -6  -3 -11 9.05288 4.99812   2
   6  -3  11 4.25257 5.02953   1
  -6   3 -11 19.2703 5.65029   2
  -6  -3  11 -1.4483 7.48512   3
   6  -3 -11 3.49363 5.87325   3
   6   3  11 11.1573 7.54411   1
   1  -4  11 532.653 21.0098   3
  -1  -4 -11 503.691 22.3007   3
  -1  -4 -11 517.188 22.4501   2
   1  -4  11 482.871 23.5558   1
  -1   4  11 541.573 24.4257   1
   1   4 -11 508.125 23.3930   2
   1  -4 -11 520.660 24.3798   3
  -1   4 -11 512.370 23.8726   2
  -1  -4  11 518.203 24.1124   3
   1  -4 -11 507.026 21.7466   2
  -1  -4  11 543.534 23.5046   1
   1   4  11 510.334 25.5714   1
  -3   4  11 366.711 18.5393   1
   3   4 -11 364.991 18.2862   2
   3  -4  11 382.811 19.9304   1
  -3  -4 -11 372.820 18.6299   2
   3  -4 -11 368.581 21.8576   3
   3   4  11 379.627 22.3889   1
  -3  -4  11 382.344 22.7971   3
  -3   4 -11 360.864 19.0026   2
  -5  -4 -11 211.778 14.0876   2
   5   4 -11 179.649 12.9186   2
  -5   4  11 222.482 13.4443   1
   5  -4  11 211.030 15.3063   1
   5  -4 -11 187.200 19.9284   3
  -5   4 -11 216.178 14.1253   2
   5   4  11 206.817 17.7969   1
  -5  -4  11 180.275 19.8665   3
   7   4 -11 104.895 11.2771   2
  -7  -4 -11 80.6506 10.7231   2
   7  -4  11 92.8096 13.2018   1
  -7  -4  11 86.4746 16.7091   3
   7  -4 -11 115.045 17.4424   3
  -7   4 -11 82.3626 10.3395   2
   0  -5 -11 1617.10 59.8322   2
   0   5 -11 1578.94 62.2904   2
   0  -5 -11 1570.97 61.8657   3
   0  -5  11 1628.30 61.8800   1
   0   5  11 1457.70 62.7698   1
   0  -5  11 1611.64 60.7016   3
  -2  -5 -11 1034.34 43.2426   3
   2  -5  11 1100.44 45.3173   1
  -2  -5 -11 1074.87 43.5680   2
  -2   5  11 1129.37 45.1415   1
   2   5 -11 1141.17 44.4796   2
  -2   5 -11 1111.11 44.9925   2
   2   5  11 1011.38 47.0679   1
   2  -5 -11 1125.27 47.4171   3
  -2  -5  11 1065.18 46.2543   3
  -4   5  11 395.607 20.7420   1
   4   5 -11 413.674 20.6387   2
  -4  -5 -11 426.251 21.2326   2
   4  -5  11 414.109 22.2325   1
  -4   5 -11 379.683 20.6054   2
   4  -5 -11 410.469 25.8127   3
   4   5  11 439.124 25.9319   1
  -4  -5  11 436.944 26.7081   3
  -6  -5 -11 97.4855 10.9191   2
   6  -5  11 83.7668 11.5751   1
   6   5 -11 112.216 11.0796   2
  -6  -5  11 114.461 18.0368   3
   6  -5 -11 73.3315 13.7038   3
  -6   5 -11 97.5188 10.5694   2
   1  -6  11 68.0881 5.51353   3
   1  -6  11 69.9698 7.92450   1
   1   6 -11 53.2776 6.76104   2
  -1  -6 -11 70.9221 7.71964   3
  -1  -6 -11 73.6574 6.61675   2
  -1   6  11 69.8951 8.14044   1
  -1  -6  11 84.7859 8.55330   3
   1  -6 -11 75.6195 9.21402   3
  -1  -6  11 84.9914 8.07746   1
  -1   6 -11 85.2138 8.78319   2
   1   6  11 65.9704 9.10152   1
   3  -6  11 37.0405 6.65733   1
   3   6 -11 42.6711 6.38804   2
  -3   6  11 46.7277 6.90918   1
  -3  -6 -11 28.7191 5.78960   3
  -3  -6 -11 23.6320 4.93176   2
  -3  -6  11 34.7913 7.55104   3
   3   6  11 37.9710 8.23964   1
  -3   6 -11 33.9239 6.08021   2
   3  -6 -11 31.7632 7.52866   3
   5   6 -11 6.61544 4.76059   2
   5  -6  11 0.43523 3.92703   1
  -5   6  11 8.54134 4.32628   1
  -5  -6 -11 1.53300 3.77631   2
  -5   6 -11 6.68760 4.31689   2
   5  -6 -11 3.33266 6.25044   3
  -5  -6  11 3.22877 5.98802   3
   5   6  11 -10.828 5.73916   1
   0  -7  11 64.4949 6.94332   3
   0  -7 -11 54.9841 7.31634   3
   0  -7  11 47.8268 6.18803   1
   0   7  11 56.3011 7.68873   1
   0   7 -11 72.6279 8.39986   2
   2  -7  11 36.2349 6.01337   1
  -2  -7 -11 32.0666 4.76115   2
  -2  -7 -11 43.7382 6.25130   3
   2   7 -11 28.4917 5.56408   2
  -2   7  11 38.9005 6.39523   1
   2   7  11 33.8097 7.38373   1
  -2  -7  11 40.7649 7.06716   3
   2  -7 -11 24.6934 6.49395   3
  -2   7 -11 34.3275 5.99572   2
  -4   7  11 4.56686 3.94828   1
   4   7 -11 6.07277 4.41486   2
   4  -7  11 2.88427 3.83810   1
  -4  -7 -11 4.50524 4.10110   2
  -4   7 -11 11.9154 4.18126   2
  -4  -7  11 -0.0853 5.93988   3
   4   7  11 3.42822 5.60575   1
   4  -7 -11 8.57500 6.19729   3
   6  -7  11 -2.5423 5.67681   1
   6   7 -11 0.51691 4.51650   2
  -6   7  11 4.97718 4.34208   1
   6  -7 -11 6.83085 7.79313   3
  -6   7 -11 9.19007 4.55028   2
  -6  -7  11 -1.8542 7.82891   3
  -1  -8 -11 56.8070 5.51646   2
   1   8 -11 54.4539 7.39049   2
  -1  -8 -11 55.8393 7.63601   3
   1  -8  11 54.9807 6.04058   3
  -1   8  11 66.3647 8.57482   1
   1  -8  11 49.1063 6.64527   1
   1  -8 -11 60.3734 9.05902   3
  -1   8 -11 60.4736 8.06929   2
   1   8  11 51.9196 7.72991   1
  -1  -8  11 66.9385 8.04066   3
  -3  -8 -11 53.8815 7.67607   3
   3   8 -11 67.3375 8.25368   2
  -3   8  11 51.5877 7.59479   1
  -3  -8 -11 45.1426 6.38188   2
   3  -8  11 73.1641 8.77984   1
   3   8  11 61.8654 9.62516   1
   3  -8 -11 46.2488 9.60743   3
  -3   8 -11 64.0924 8.31171   2
  -3  -8  11 73.5040 10.6433   3
   5   8 -11 48.4673 8.13825   2
   5  -8  11 56.1277 9.33293   1
  -5   8  11 46.8481 7.82973   1
   5  -8 -11 42.8255 10.6529   3
  -5  -8  11 70.9731 13.1903   3
  -5   8 -11 34.0510 6.44670   2
   0  -9  11 187.555 11.6827   1
   0   9  11 206.972 13.8135   1
   0   9 -11 178.871 12.8071   2
   0  -9 -11 185.101 13.9281   3
   0  -9  11 175.129 11.6119   3
   2   9 -11 113.315 11.2501   2
  -2   9  11 136.157 11.2142   1
  -2  -9 -11 138.974 11.4816   3
   2  -9  11 129.952 10.6350   1
   2  -9 -11 117.284 13.6960   3
  -2  -9  11 121.021 12.3071   3
   2   9  11 135.004 13.2782   1
  -2   9 -11 114.859 11.0799   2
  -4   9  11 42.0829 7.62920   1
   4   9 -11 41.3309 7.31686   2
   4  -9  11 31.5067 7.20537   1
   4   9  11 31.1740 6.16063   2
  -4   9 -11 40.6909 6.72340   2
  -4  -9  11 46.8095 10.2480   3
   4  -9 -11 30.2911 9.83757   3
  -6   9  11 -1.4830 4.82557   1
   6   9  11 4.63239 4.58493   2
   1  10 -11 14.7311 5.12351   2
   1 -10  11 17.9373 4.78732   1
  -1  10  11 17.3958 5.67528   1
  -1 -10 -11 23.2124 6.24549   3
   1 -10 -11 18.0060 6.11919   3
  -1  10 -11 11.8625 4.55174   2
  -1 -10  11 23.2330 5.65991   3
   1  10  11 19.1112 5.46141   1
  -3  10  11 3.98257 3.92841   1
  -3 -10 -11 5.74275 4.66721   3
   3 -10  11 7.65197 4.49182   1
   3  10 -11 3.98272 3.96939   2
   3  10  11 10.6440 5.47173   1
  -3  10 -11 4.76391 4.04075   2
   3 -10 -11 -1.6666 4.43820   3
  -3 -10  11 4.35511 5.56630   3
   5 -10  11 1.25478 5.16882   1
  -5  10  11 3.47735 4.67244   1
   5  10 -11 -2.2808 4.24274   2
  -5 -10  11 0.24879 7.43135   3
   5 -10 -11 -2.2165 6.08723   3
   5  10  11 -0.9525 3.31069   2
   0 -11  11 215.887 14.1696   3
   0 -11 -11 237.745 16.7646   3
   0  11 -11 208.432 14.9926   2
   0  11  11 225.492 15.4409   1
   2 -11  11 159.639 12.4747   1
   2  11 -11 172.748 12.8539   2
  -2  11  11 162.075 13.4570   1
  -2 -11 -11 162.495 13.5821   3
   2  11  11 150.359 12.6508   1
   2 -11 -11 123.548 15.2942   3
  -2 -11  11 160.499 13.8681   3
  -2  11 -11 168.124 12.4882   2
  -4  11  11 62.0025 9.50151   1
   4  11 -11 56.7210 9.19907   2
   4 -11  11 53.1162 9.42463   1
  -4 -11  11 67.6704 12.0017   3
   4 -11 -11 79.6866 13.8997   3
   1  12 -11 95.3771 11.0284   2
  -1 -12 -11 104.384 12.9641   3
  -1  12  11 85.4030 10.7851   1
   1  12  11 109.292 11.9137   1
  -1  12 -11 102.710 11.1819   2
  -1 -12  11 93.6124 11.4102   3
   1 -12 -11 110.825 14.1096   3
   3  12 -11 95.8534 11.6225   2
  -3  12  11 80.3793 11.1294   1
  -3 -12 -11 92.8123 12.0745   3
   3 -12  11 89.5530 11.1862   1
   3 -12 -11 102.338 15.8288   3
  -3 -12  11 82.8826 12.6807   3
   0  13  11 1.31366 4.34006   1
   0  13 -11 3.53214 3.64191   2
   0 -13 -11 -2.2916 4.14441   3
  -2  13  11 3.30271 4.86936   1
   2  13 -11 1.21610 4.14954   2
   2 -13  11 -1.7195 3.51520   1
  -2 -13 -11 -2.2632 4.45628   3
   2 -13 -11 1.79239 4.99608   3
   2  13  11 -3.1530 3.84299   1
  -2 -13  11 4.87145 4.79048   3
   1  14 -11 14.0793 5.76347   2
  -1  14  11 13.9286 6.03789   1
  -1 -14 -11 14.2340 7.07789   3
   1 -14 -11 22.7726 7.83086   3
  -1 -14  11 15.7010 6.78276   3
   1  14  11 12.4400 5.63233   1
   0   0  12 2494.24 95.4654   1
   0   0 -12 2392.73 93.4680   2
   0   0 -12 2544.96 92.2466   3
  -2   0 -12 1907.25 76.8093   2
  -2   0  12 2020.96 76.2436   1
   2   0 -12 2038.98 75.7915   2
   2   0  12 1891.45 78.6644   1
  -2   0  12 2088.60 79.5254   3
   4   0  12 1086.90 47.5789   1
  -4   0  12 1093.00 50.2236   3
   4   0 -12 1063.79 43.0346   2
  -4   0 -12 1057.69 45.0876   2
   6   0  12 427.618 25.3959   1
  -6   0  12 412.638 28.5005   3
   6   0 -12 425.607 20.6356   2
  -6   0 -12 387.781 22.5803   2
   1   1 -12 60.9830 6.66142   2
  -1  -1 -12 65.8337 7.37610   2
  -1   1  12 67.7184 7.74056   1
   1  -1  12 63.1833 7.74084   1
  -1  -1 -12 65.9819 4.49092   3
   1  -1 -12 77.9665 7.88743   3
   1  -1 -12 71.6985 6.83629   2
   1   1  12 65.9169 8.24412   1
  -1  -1  12 66.2701 7.49339   1
  -1   1 -12 68.6232 7.46934   2
  -1  -1  12 71.1804 8.00247   3
  -3  -1 -12 78.2103 8.21531   2
   3  -1  12 69.0824 8.93232   1
  -3   1  12 61.6183 6.79323   1
  -3   1  12 83.0130 11.2201   3
   3   1 -12 74.7147 7.19479   2
  -3  -1  12 86.3823 6.51747   1
  -3  -1  12 77.8999 11.0092   3
   3  -1 -12 74.2097 6.91489   2
  -3   1 -12 72.3926 8.29933   2
   3   1  12 81.6553 10.0876   1
  -5  -1 -12 48.9128 7.40071   2
  -5   1  12 48.4198 10.6790   3
   5   1 -12 49.5251 6.67737   2
   5  -1  12 54.6604 9.35818   1
   5   1  12 53.4673 9.85203   1
  -5  -1  12 63.7355 11.6026   3
  -5   1 -12 61.6862 8.19502   2
   5  -1 -12 54.9897 6.47063   2
  -7   1  12 26.3884 9.85011   3
   7  -1  12 12.9659 6.97722   1
  -7  -1 -12 22.4546 7.13179   2
  -7   1 -12 26.8947 7.66796   2
   7   1  12 24.4091 8.62745   1
  -7  -1  12 17.0609 8.28549   3
   0   2 -12 3167.32 119.210   2
   0  -2 -12 3135.24 118.457   2
   0  -2 -12 3290.00 118.051   3
   0  -2  12 3205.06 118.079   3
   0  -2  12 3182.81 120.218   1
   0   2  12 3120.31 120.815   1
   2   2 -12 2602.50 96.5737   2
  -2  -2 -12 2509.65 96.8590   2
  -2   2  12 2519.33 97.0419   1
   2  -2  12 2430.53 98.4889   1
  -2  -2  12 2582.71 100.570   3
   2  -2 -12 2757.76 99.8390   3
   2  -2 -12 2545.07 95.5014   2
   2   2  12 2700.48 100.457   1
  -2  -2  12 2502.77 96.0797   1
  -2   2 -12 2463.97 97.5437   2
  -4   2  12 1399.78 57.2924   3
   4  -2  12 1233.45 52.7216   1
   4   2 -12 1279.96 49.7157   2
  -4   2  12 1282.53 49.6242   1
  -4  -2 -12 1266.65 51.1929   2
  -4   2 -12 1221.04 50.8721   2
  -4  -2  12 1251.57 56.9409   3
   4  -2 -12 1027.82 47.7447   2
   4   2  12 1254.81 54.3422   1
   6   2 -12 430.155 22.1979   2
   6  -2  12 444.484 26.0567   1
  -6  -2 -12 399.382 23.3470   2
  -6   2  12 443.559 30.1391   3
   6   2  12 492.232 27.7982   1
  -6   2 -12 454.027 23.8727   2
  -6  -2  12 469.936 31.0722   3
   1   3 -12 22.4177 4.54966   2
   1  -3  12 28.9781 3.05279   3
  -1  -3 -12 31.4907 4.06868   3
  -1  -3 -12 27.3836 4.50660   2
   1  -3  12 19.9064 4.80160   1
  -1   3  12 22.3475 4.86665   1
   1   3  12 24.1670 5.82282   1
  -1   3 -12 20.9969 4.55870   2
  -1  -3  12 19.0471 4.51341   3
   1  -3 -12 28.6347 4.15778   2
  -1  -3  12 22.8628 4.79671   1
   1  -3 -12 23.6369 4.89069   3
   3  -3  12 50.4078 7.81709   1
   3   3 -12 45.3133 6.13105   2
  -3  -3 -12 60.1969 7.47797   2
  -3   3  12 38.3563 5.54212   1
  -3  -3  12 54.8783 10.2698   3
   3  -3 -12 51.0967 8.85972   3
  -3   3 -12 36.4317 6.11567   2
   3   3  12 42.2173 8.38727   1
   3  -3 -12 44.9517 5.06696   2
   5   3 -12 34.8275 6.24510   2
   5  -3  12 44.1079 8.58966   1
  -5  -3 -12 29.7867 6.57521   2
  -5  -3  12 24.8521 9.55619   3
  -5   3 -12 44.6209 7.61903   2
   5   3  12 19.0050 8.11618   1
   5  -3 -12 52.9769 10.4497   3
   7   3 -12 7.13550 5.18646   2
  -7  -3 -12 20.6129 6.40393   2
   7  -3  12 15.4506 7.22659   1
  -7  -3  12 13.9183 9.61744   3
  -7   3 -12 20.2407 6.67523   2
   7  -3 -12 15.7329 8.13662   3
   0  -4  12 539.538 25.6721   1
   0  -4 -12 550.205 24.1638   2
   0   4 -12 567.051 25.6936   2
   0   4  12 580.146 26.9849   1
   0  -4 -12 567.820 24.9846   3
   0  -4  12 572.562 24.8724   3
  -2   4  12 479.748 23.2715   1
  -2  -4 -12 478.891 23.6616   3
   2  -4  12 482.390 23.8480   1
   2   4 -12 499.341 22.9609   2
  -2  -4 -12 486.742 22.6066   2
  -2   4 -12 474.530 23.2880   2
   2   4  12 486.042 26.2245   1
   2  -4 -12 486.711 20.7416   2
  -2  -4  12 453.050 25.1293   3
  -2  -4  12 506.432 21.9001   1
   2  -4 -12 497.760 25.0868   3
   4   4 -12 274.896 16.0762   2
   4  -4  12 316.515 18.6875   1
  -4   4  12 282.092 16.2213   1
  -4  -4 -12 321.515 17.5970   2
   4  -4 -12 308.607 20.9164   3
   4   4  12 340.570 21.9517   1
  -4  -4  12 288.123 21.8361   3
  -4   4 -12 295.486 16.9062   2
   6   4 -12 119.510 11.5759   2
   6  -4  12 127.726 14.5877   1
  -6  -4 -12 124.562 12.9814   2
  -6   4 -12 143.571 13.1212   2
  -6  -4  12 98.1412 16.8817   3
   6   4  12 153.747 17.5462   1
   6  -4 -12 128.667 17.3645   3
   1  -5  12 26.2341 5.22877   1
  -1  -5 -12 29.8978 4.75758   2
  -1  -5 -12 25.8355 4.67426   3
   1   5 -12 19.8186 4.38120   2
  -1   5  12 26.7404 5.64372   1
  -1  -5  12 30.8824 5.86931   3
   1   5  12 18.0472 5.46488   1
   1  -5 -12 27.9409 3.92972   2
   1  -5 -12 25.3405 5.56779   3
  -1  -5  12 20.0682 4.63218   1
  -1   5 -12 28.3656 5.18099   2
  -3  -5 -12 34.2998 6.13024   2
   3   5 -12 49.5050 6.76274   2
   3  -5  12 47.3632 7.09138   1
  -3   5  12 43.0540 6.53155   1
  -3  -5  12 28.8179 7.69983   3
   3   5  12 41.9332 8.84800   1
   3  -5 -12 44.7256 8.83375   3
  -3   5 -12 43.8756 6.74650   2
   5  -5  12 35.3961 7.83972   1
  -5   5  12 36.7094 6.59516   1
  -5  -5 -12 30.7574 6.66057   2
   5   5 -12 32.1410 6.23842   2
   5  -5 -12 21.5034 7.98941   3
  -5  -5  12 29.0771 9.63176   3
  -5   5 -12 33.1197 6.68237   2
   5   5  12 40.8890 10.0884   1
   7   5 -12 10.6965 5.71503   2
  -7   5 -12 18.2806 6.69288   2
   0  -6  12 596.334 26.1149   3
   0  -6 -12 608.618 24.9731   2
   0   6  12 565.485 28.4363   1
   0  -6 -12 598.279 27.6760   3
   0   6 -12 644.640 28.1991   2
   0  -6  12 593.365 27.0323   1
  -2  -6 -12 472.629 21.4257   2
  -2  -6 -12 439.644 21.3082   3
   2  -6  12 463.836 22.9248   1
  -2   6  12 427.111 22.4303   1
   2   6 -12 450.276 22.2077   2
  -2   6 -12 472.078 22.6817   2
   2  -6 -12 446.728 24.2814   3
   2   6  12 437.717 24.7967   1
  -2  -6  12 460.627 24.0705   3
   4   6 -12 233.018 14.6658   2
  -4  -6 -12 231.640 14.8783   2
   4  -6  12 248.480 16.3402   1
  -4   6  12 212.195 14.7252   1
  -4  -6  12 244.942 19.9001   3
  -4   6 -12 247.059 15.1029   2
   4   6  12 241.185 18.8934   1
   4  -6 -12 255.758 19.9291   3
   6  -6  12 94.2434 13.1163   1
  -6  -6 -12 113.799 12.5894   2
   6   6 -12 104.478 11.4394   2
   6  -6 -12 97.5541 15.8589   3
  -6  -6  12 100.317 17.2313   3
  -6   6 -12 107.907 10.9668   2
   1   7 -12 21.6986 4.99237   2
  -1  -7 -12 35.0157 4.82404   2
  -1   7  12 27.7763 5.87366   1
   1  -7  12 20.3074 4.90979   1
  -1  -7 -12 31.5665 5.70947   3
   1  -7 -12 30.0853 6.32605   3
  -1   7 -12 34.1184 5.95130   2
  -1  -7  12 28.7552 5.78065   3
   1   7  12 30.1248 7.12900   1
   3  -7  12 37.0713 7.12065   1
   3   7 -12 43.9101 6.43619   2
  -3  -7 -12 47.2042 6.68046   2
  -3   7  12 37.5411 6.92251   1
   3   7  12 35.3627 8.09155   1
  -3  -7  12 38.4169 8.34091   3
  -3   7 -12 39.6388 6.64209   2
   3  -7 -12 36.3023 8.94592   3
  -5  -7 -12 28.5957 6.64969   2
  -5   7  12 31.9175 6.60100   1
   5   7 -12 24.9850 6.46897   2
   5  -7  12 22.9394 7.10081   1
  -5  -7  12 66.7459 13.0630   3
   5  -7 -12 12.7389 7.79808   3
  -5   7 -12 25.7089 5.70790   2
   0  -8  12 3.36751 3.12672   3
   0  -8  12 6.87986 3.05825   1
   0  -8 -12 -2.0189 3.18725   3
   0   8  12 4.81773 3.99379   1
   0   8 -12 5.28073 4.45343   2
  -2   8  12 12.2374 4.38866   1
   2  -8  12 2.76288 3.68512   1
   2   8 -12 2.40449 3.87971   2
  -2  -8 -12 6.06672 3.19303   2
  -2  -8 -12 2.79712 3.55388   3
   2   8  12 0.44285 4.08717   1
   2  -8 -12 4.33382 5.28796   3
  -2  -8  12 3.08370 4.20346   3
  -2   8 -12 2.46149 3.86833   2
  -4  -8 -12 8.31771 4.45044   2
  -4   8  12 8.69083 4.76637   1
   4  -8  12 9.63702 4.75231   1
   4   8 -12 9.12451 4.90356   2
  -4   8 -12 12.4696 5.00607   2
   4   8  12 8.37665 7.10682   1
  -4  -8  12 20.8380 8.09358   3
   4  -8 -12 15.3781 6.97118   3
  -6   8  12 21.6058 6.28676   1
  -6  -8  12 10.4605 13.3719   3
   6   8  12 8.75078 5.09076   2
   1   9 -12 6.96231 4.52290   2
  -1  -9 -12 5.48632 4.32080   3
   1  -9  12 4.07028 3.57315   1
  -1   9  12 8.55755 4.41378   1
  -1   9 -12 14.3681 4.89216   2
   1   9  12 10.3369 5.00427   1
  -1  -9  12 8.39184 4.59719   3
   1  -9 -12 5.84252 4.93576   3
  -3  -9 -12 17.4031 4.63292   2
   3   9 -12 15.3884 5.11405   2
   3  -9  12 5.23511 4.22518   1
  -3   9  12 8.34556 4.75267   1
  -3  -9  12 15.3078 6.68517   3
  -3   9 -12 10.7845 4.76280   2
   3  -9 -12 14.6951 6.91676   3
   3   9  12 15.9457 6.13833   1
  -5   9  12 10.7685 5.44822   1
   5  -9  12 17.7059 6.24318   1
   5   9 -12 14.3281 5.66295   2
  -5  -9  12 31.4788 10.6855   3
   5   9  12 3.18368 4.49358   2
   5  -9 -12 13.2565 7.13661   3
   0  10 -12 54.3586 8.21570   2
   0  10  12 80.7682 10.3408   1
   0 -10 -12 75.7961 10.3908   3
   0 -10  12 63.7844 8.03129   3
   2  10 -12 61.1183 8.62049   2
  -2  10  12 50.6104 8.69699   1
   2 -10  12 70.9480 9.13563   1
  -2 -10 -12 58.5952 8.83913   3
   2 -10 -12 37.5502 9.07081   3
  -2  10 -12 64.7156 8.82530   2
  -2 -10  12 62.2398 9.50754   3
   2  10  12 87.2771 11.0868   1
  -4  10  12 41.0746 8.25971   1
   4 -10  12 51.0010 8.91987   1
   4  10 -12 50.0662 8.29695   2
  -4 -10  12 42.6662 10.6145   3
   4 -10 -12 45.6414 10.8317   3
  -1 -11 -12 11.1600 5.52753   3
   1 -11  12 13.7247 4.64827   1
   1  11 -12 18.6283 5.47988   2
  -1  11  12 17.6521 5.80013   1
   1 -11 -12 13.3437 6.24674   3
  -1 -11  12 9.64358 5.34169   3
   1  11  12 9.16970 5.03790   1
  -1  11 -12 15.0844 5.43977   2
  -3  11  12 14.3728 5.39063   1
   3  11 -12 10.9538 5.36240   2
   3 -11  12 16.3672 6.05227   1
  -3 -11  12 21.2724 7.49817   3
   3  11  12 18.7288 6.64345   1
   3 -11 -12 16.2960 6.48102   3
   0  12 -12 26.9315 6.19626   2
   0 -12 -12 32.0528 8.58779   3
   0  12  12 20.8518 6.53787   1
   2 -12  12 25.2537 6.22126   1
  -2  12  12 15.8812 6.29464   1
   2  12 -12 37.9459 7.74487   2
  -2 -12 -12 36.7835 7.63955   3
   2 -12 -12 25.8066 8.27522   3
  -2 -12  12 20.0997 6.80839   3
   2  12  12 27.0005 6.86318   1
  -4 -12  12 33.6119 9.90431   3
  -1  13  12 4.95813 5.19013   1
  -1 -13 -12 6.74381 5.65479   3
   1  13 -12 2.57709 4.19181   2
   1  13  12 0.92087 4.28275   1
  -1 -13  12 -0.7865 4.64770   3
   1 -13 -12 -1.9917 5.24701   3
   3  13 -12 1.75862 5.61818   2
   3 -13  12 -2.0965 5.80167   1
  -3 -13  12 5.71435 6.47478   3
   0  14  12 119.669 13.9169   1
   0 -14 -12 112.798 14.8572   3
   2  14 -12 99.8982 13.5397   2
  -2 -14 -12 95.8202 13.5372   3
  -2 -14  12 144.219 15.5415   3
  -1   0  13 7.16950 3.73397   1
   1   0 -13 3.86768 3.16622   2
   1   0  13 5.95020 4.51879   1
  -1   0 -13 8.19959 3.50422   2
  -1   0  13 8.93504 3.60512   3
   3   0  13 17.4473 5.99665   1
  -3   0 -13 17.4290 4.86577   2
  -3   0  13 18.5051 6.39982   3
   3   0 -13 21.2390 4.23102   2
  -3   0  13 14.5321 3.86758   1
  -5   0  13 29.4303 9.20795   3
   5   0  13 33.2870 8.18707   1
   5   0 -13 40.2291 6.23919   2
  -5   0 -13 41.8161 7.06142   2
  -7   0  13 36.9123 12.0252   3
  -7   0 -13 25.9291 7.34250   2
   7   0  13 27.0491 8.58103   1
   0  -1 -13 198.163 10.3540   3
   0   1 -13 172.322 11.2467   2
   0   1  13 177.428 12.7864   1
   0  -1 -13 185.493 11.0467   2
   0  -1  13 172.772 12.2543   1
   2  -1  13 104.793 10.7583   1
  -2   1  13 112.183 11.2350   3
   2   1 -13 105.293 8.47476   2
  -2   1  13 120.069 8.84004   1
  -2  -1 -13 114.760 10.3425   2
  -2  -1  13 99.6130 8.12798   1
   2  -1 -13 102.008 7.70495   2
  -2   1 -13 75.8201 8.67152   2
   2   1  13 108.569 11.5693   1
  -2  -1  13 88.0469 10.5415   3
  -4   1  13 19.6520 7.24538   3
   4  -1  13 22.1934 6.96900   1
  -4  -1 -13 28.6716 6.32651   2
   4   1 -13 27.0530 4.89706   2
  -4   1  13 18.7131 4.12453   1
  -4   1 -13 25.5560 5.55979   2
   4  -1 -13 21.2655 4.37157   2
   4   1  13 14.8681 6.44049   1
  -4  -1  13 17.9478 7.14876   3
  -6   1  13 -1.6812 7.19632   3
   6  -1  13 4.51443 6.20712   1
  -6  -1 -13 -1.8092 4.12635   2
   6   1 -13 0.69641 3.60810   2
  -6   1 -13 6.66985 4.63975   2
   6   1  13 5.65140 6.25827   1
  -6  -1  13 5.99332 7.64335   3
   1   2 -13 883.246 36.3608   2
   1  -2  13 846.323 37.9108   1
  -1  -2 -13 845.027 36.1719   2
  -1   2  13 825.206 36.8939   1
  -1  -2  13 884.928 36.7677   1
   1   2  13 920.137 39.0695   1
  -1   2 -13 846.922 36.6333   2
   1  -2 -13 894.164 35.4743   2
   1  -2 -13 923.365 36.8562   3
  -1  -2  13 768.612 36.6122   3
  -3   2  13 504.508 23.2503   1
  -3  -2 -13 485.908 23.8124   2
   3  -2  13 496.229 25.7078   1
   3   2 -13 522.025 23.2570   2
   3   2  13 490.616 26.8704   1
  -3  -2  13 506.781 27.7120   3
  -3   2 -13 445.258 23.6387   2
   3  -2 -13 512.647 22.0400   2
  -5   2  13 255.124 20.2728   3
  -5  -2 -13 203.953 14.8198   2
   5  -2  13 187.170 15.8503   1
   5   2 -13 206.036 13.2653   2
   5   2  13 244.823 18.1299   1
  -5  -2  13 253.600 20.8767   3
  -5   2 -13 201.138 14.3449   2
   7   2 -13 98.8779 10.4824   2
   7  -2  13 88.3216 13.7944   1
  -7   2 -13 88.0901 11.7298   2
   0   3  13 1198.25 49.1299   1
   0  -3 -13 1143.73 46.2618   2
   0   3 -13 1155.46 47.2505   2
   0  -3 -13 1216.14 46.2781   3
   0  -3  13 1133.87 47.9309   1
   0  -3  13 1112.12 45.9686   3
  -2  -3 -13 824.522 34.9755   2
  -2   3  13 804.554 35.3153   1
   2   3 -13 834.718 34.9481   2
   2  -3  13 810.636 36.6755   1
   2  -3 -13 826.182 33.2064   2
   2   3  13 818.995 38.1912   1
   2  -3 -13 812.657 36.8867   3
  -2   3 -13 859.094 35.9440   2
  -2  -3  13 839.545 34.2629   1
  -2  -3  13 761.837 37.5413   3
  -4  -3 -13 332.144 17.9897   2
  -4   3  13 287.610 16.1610   1
   4  -3  13 280.039 18.3589   1
   4   3 -13 302.532 16.6456   2
   4   3  13 341.487 21.3702   1
   4  -3 -13 320.229 21.3382   3
  -4   3 -13 297.552 17.2787   2
  -4  -3  13 268.845 21.6572   3
  -6  -3 -13 74.1613 10.0857   2
   6   3 -13 66.5512 8.50344   2
   6  -3  13 70.9070 11.3137   1
  -6   3 -13 75.5216 9.94705   2
  -6  -3  13 45.1932 12.1253   3
   6   3  13 89.3426 13.4093   1
   6  -3 -13 69.6118 12.6680   3
  -1  -4 -13 11.3192 3.89832   2
  -1   4  13 16.8792 4.74566   1
  -1  -4 -13 18.6500 3.89860   3
   1   4 -13 21.7568 5.01650   2
   1  -4  13 13.7718 4.95610   1
   1  -4 -13 13.8119 3.59752   2
  -1  -4  13 19.9241 4.93862   1
  -1  -4  13 19.2338 5.13522   3
   1  -4 -13 18.3108 4.64350   3
   1   4  13 15.4779 5.49361   1
  -1   4 -13 11.2459 4.00722   2
   3  -4  13 -4.5864 2.68400   1
  -3  -4 -13 2.41246 3.57002   2
  -3   4  13 0.68745 2.93481   1
   3   4 -13 -1.2595 3.14008   2
   3  -4 -13 -2.8761 3.94250   3
   3   4  13 3.54403 5.04340   1
  -3   4 -13 3.58027 3.37741   2
  -3  -4  13 -0.4630 4.99811   3
   5  -4  13 3.29901 5.48078   1
   5   4 -13 7.74313 4.59724   2
  -5   4  13 8.73814 4.27616   1
  -5  -4 -13 6.55415 4.28324   2
   5   4  13 19.7445 7.75004   1
  -5   4 -13 5.49519 4.29252   2
  -5  -4  13 9.13234 7.68449   3
   5  -4 -13 6.38607 6.32263   3
   7   4 -13 13.0543 5.92643   2
  -7   4 -13 19.9139 7.30788   2
   0   5 -13 9.40222 3.65731   2
   0   5  13 2.47387 3.63969   1
   0  -5 -13 7.21941 3.24485   3
   0  -5 -13 9.44160 3.30878   2
   0  -5  13 11.1075 3.83140   3
   0  -5  13 6.80612 3.78265   1
   2  -5  13 20.9428 5.61507   1
   2   5 -13 17.6270 5.01309   2
  -2  -5 -13 19.2696 4.58542   2
  -2   5  13 14.3403 4.71616   1
   2   5  13 8.30970 5.49487   1
  -2  -5  13 17.8878 6.11939   3
   2  -5 -13 17.0089 5.58061   3
  -2   5 -13 15.7836 5.46615   2
  -4  -5 -13 21.1561 6.21842   2
   4   5 -13 22.8933 5.81109   2
  -4   5  13 19.5458 5.13973   1
   4  -5  13 22.2865 5.79723   1
  -4  -5  13 38.3540 10.1779   3
   4   5  13 32.3577 9.61690   1
  -4   5 -13 28.5604 6.05835   2
   4  -5 -13 23.2991 7.81048   3
   6   5 -13 18.7873 5.86927   2
   6  -5  13 14.7834 6.98552   1
  -6  -5 -13 8.60022 5.73601   2
  -6   5 -13 12.9409 5.34014   2
   6  -5 -13 2.84685 5.56273   3
  -6  -5  13 16.7867 9.91808   3
   1   6 -13 220.185 14.1491   2
  -1  -6 -13 221.947 12.7053   2
  -1  -6 -13 233.610 13.4722   3
   1  -6  13 221.902 14.2494   1
  -1   6  13 248.722 15.2427   1
   1   6  13 235.988 16.4882   1
  -1  -6  13 223.197 14.3441   3
  -1  -6  13 237.910 13.9191   1
  -1   6 -13 231.623 14.3052   2
   1  -6 -13 233.287 15.0759   3
   3   6 -13 115.532 10.9971   2
  -3  -6 -13 128.993 11.4491   2
   3  -6  13 107.437 11.5139   1
  -3   6  13 143.573 11.3743   1
  -3   6 -13 125.519 11.7633   2
   3   6  13 144.916 15.8382   1
   3  -6 -13 160.626 16.3282   3
  -3  -6  13 143.329 15.6567   3
   5  -6  13 70.9109 10.5557   1
  -5  -6 -13 69.3277 9.36559   2
  -5   6  13 80.4993 9.50385   1
   5   6 -13 69.7726 8.91515   2
  -5   6 -13 76.9510 8.97178   2
   5   6  13 92.7013 14.7139   1
  -5  -6  13 56.0175 12.8104   3
   5  -6 -13 69.7372 12.4744   3
   0   7  13 512.229 26.3330   1
   0  -7 -13 518.547 25.5487   3
   0   7 -13 500.509 25.1945   2
   0  -7  13 518.693 24.7578   1
   0  -7  13 530.990 23.9524   3
  -2   7  13 396.234 20.6746   1
  -2  -7 -13 345.110 18.2156   2
  -2  -7 -13 330.785 20.4228   3
   2   7 -13 385.007 19.7042   2
   2  -7  13 363.096 19.9862   1
   2  -7 -13 348.987 21.5364   3
  -2  -7  13 353.545 20.9093   3
  -2   7 -13 390.076 20.1153   2
   2   7  13 344.332 22.0609   1
  -4   7  13 148.710 12.0216   1
   4  -7  13 114.242 12.7245   1
   4   7 -13 102.644 10.9706   2
  -4  -7 -13 142.122 12.3992   2
   4   7  13 100.121 13.8590   1
  -4  -7  13 121.334 16.0975   3
   4  -7 -13 115.267 15.2681   3
  -4   7 -13 136.043 12.5573   2
  -6  -7 -13 28.3401 7.38531   2
   6  -7  13 19.6518 8.21436   1
  -6   7  13 21.1808 7.33923   1
   6   7 -13 29.2532 6.90229   2
  -6   7 -13 24.1827 6.06929   2
   6  -7 -13 24.4743 12.2092   3
  -6  -7  13 28.8038 11.8278   3
   1  -8  13 55.1196 7.62893   1
  -1  -8 -13 48.4723 7.27231   3
  -1   8  13 42.5809 7.44117   1
   1   8 -13 57.0265 7.91719   2
   1   8  13 54.6404 8.67090   1
   1  -8 -13 51.0610 8.37939   3
  -1   8 -13 57.3259 8.24141   2
  -1  -8  13 48.7431 7.53124   3
  -3  -8 -13 17.3416 5.13353   2
   3  -8  13 15.4534 5.64819   1
  -3   8  13 22.1206 5.93591   1
   3   8 -13 18.1678 5.43780   2
   3  -8 -13 19.2774 7.71668   3
  -3  -8  13 12.6595 6.56132   3
  -3   8 -13 11.9504 5.08139   2
   3   8  13 6.49955 5.56929   1
  -5  -8 -13 -3.1840 4.12478   2
   5   8 -13 8.06530 5.33129   2
  -5   8  13 2.69191 4.61262   1
   5  -8  13 9.50388 5.81432   1
   5  -8 -13 1.35409 5.63185   3
  -5   8 -13 0.06693 4.17161   2
  -5  -8  13 9.93377 8.02047   3
   0   9 -13 117.726 11.9466   2
   0  -9 -13 125.429 12.7257   3
   0   9  13 106.144 12.3288   1
  -2  -9 -13 67.3394 9.19086   3
  -2   9  13 75.9973 9.99444   1
   2   9 -13 63.1097 8.72942   2
   2  -9  13 79.1424 9.76230   1
  -2  -9  13 83.1843 11.1701   3
   2   9  13 77.3539 10.9752   1
   2  -9 -13 67.6858 10.7087   3
  -2   9 -13 79.0508 9.74863   2
   4  -9  13 18.7285 6.36445   1
   4   9 -13 24.0855 6.25819   2
  -4  -9 -13 17.9092 5.49659   2
  -4   9  13 15.9175 6.16800   1
  -4   9 -13 20.7396 5.72422   2
   4   9  13 19.2965 7.44238   1
  -4  -9  13 18.8984 8.49150   3
   4  -9 -13 23.5443 8.71149   3
   1  10 -13 85.6194 10.0620   2
  -1 -10 -13 101.721 11.8229   3
   1 -10  13 100.326 10.2919   1
  -1  10  13 73.2482 10.3508   1
   1 -10 -13 113.613 13.4425   3
   1  10  13 89.8720 11.5427   1
  -1 -10  13 98.9322 11.1251   3
  -1  10 -13 104.551 10.9904   2
   3 -10  13 58.6262 8.72318   1
   3  10 -13 53.7611 8.54262   2
  -3  10  13 65.3515 9.74419   1
  -3  10 -13 59.9849 8.69371   2
   3  10  13 62.8595 10.8178   1
   3 -10 -13 58.7864 11.1189   3
  -3 -10  13 51.1985 10.4433   3
  -5 -10  13 50.1496 18.0634   3
   0  11 -13 26.8877 6.23596   2
   0 -11 -13 33.8691 8.01446   3
   0  11  13 14.3052 5.63765   1
   2 -11  13 3.72340 4.19081   1
   2  11 -13 13.9296 5.70712   2
  -2  11  13 16.6776 6.04871   1
  -2 -11 -13 22.4597 6.22512   3
   2  11  13 10.8535 5.98774   1
   2 -11 -13 7.22130 5.88328   3
  -2  11 -13 14.6872 5.11591   2
  -2 -11  13 15.1091 6.53831   3
   4 -11  13 5.37407 4.54527   1
   4  11 -13 9.93775 5.68784   2
  -4  11  13 4.57610 5.52553   1
  -4 -11  13 2.91725 6.74024   3
   4 -11 -13 8.36316 8.35237   3
  -1  12  13 2.15114 4.81213   1
   1  12 -13 11.8685 5.51453   2
  -1 -12 -13 6.69162 4.87314   3
  -1  12 -13 14.6714 4.94706   2
   1  12  13 -2.9283 4.50611   1
   1 -12 -13 15.3279 6.45987   3
   3 -12  13 0.70800 4.24645   1
   3  12 -13 -1.6294 4.15642   2
  -3  12  13 0.48927 4.78093   1
   3 -12 -13 -4.5718 5.15873   3
  -3 -12  13 -1.6559 4.88289   3
   0 -13 -13 118.411 14.9789   3
   0  13 -13 98.1976 11.7388   2
   0  13  13 130.879 14.3684   1
   2  13 -13 89.3379 11.7905   2
  -2  13  13 79.4401 16.1243   1
  -2 -13 -13 77.8657 12.3189   3
   2  13  13 102.426 12.6442   1
  -2 -13  13 101.604 13.4325   3
   2 -13 -13 78.0104 13.7047   3
  -1 -14 -13 74.5067 17.0151   3
   1  14 -13 67.8658 10.8822   2
   1  14  13 93.7576 12.4491   1
   0   0 -14 602.613 25.4119   3
   0   0 -14 571.174 26.2476   2
   0   0  14 575.602 27.7107   1
   2   0  14 577.100 28.1747   1
   2   0 -14 536.490 24.5764   2
  -2   0 -14 520.474 25.8134   2
  -2   0  14 594.958 27.3788   3
  -2   0  14 529.132 25.1953   1
  -4   0  14 429.834 25.7293   3
   4   0 -14 409.033 19.4996   2
  -4   0 -14 364.660 20.6153   2
   4   0  14 342.305 22.5542   1
  -6   0 -14 178.744 14.7539   2
   6   0  14 209.012 19.7462   1
  -6   0  14 224.416 23.4529   3
   1  -1  14 12.0354 5.07312   1
   1   1 -14 3.18971 3.10616   2
  -1  -1 -14 8.71369 3.87217   2
  -1   1  14 10.9190 4.38140   1
   1   1  14 15.1242 5.36979   1
  -1  -1  14 10.3357 4.13031   3
  -1   1 -14 7.35965 3.82532   2
   1  -1 -14 16.6937 4.38185   3
  -1  -1  14 10.2202 4.57689   1
   1  -1 -14 10.5770 3.41192   2
  -3   1  14 -1.1374 2.65315   1
   3  -1  14 -0.2079 4.96723   1
  -3   1  14 7.52532 5.05439   3
  -3  -1 -14 -1.9656 2.98013   2
   3   1 -14 0.00407 3.11363   2
  -3  -1  14 3.53931 4.60590   3
   3  -1 -14 -0.8364 2.64847   2
  -3   1 -14 6.03667 4.01112   2
  -3  -1  14 1.64273 2.44592   1
   3   1  14 2.97027 5.07167   1
   5  -1  14 1.76056 5.39173   1
  -5   1  14 -1.2271 5.40600   3
   5   1 -14 3.21451 3.38755   2
  -5  -1 -14 2.49449 4.25673   2
  -5  -1  14 3.48512 6.11914   3
  -5   1 -14 3.09902 4.15642   2
   5   1  14 0.17444 5.40729   1
   7  -1  14 2.01218 6.83675   1
   7   1  14 4.97121 7.18455   1
   0  -2 -14 89.4885 8.64587   2
   0  -2  14 112.235 11.0623   1
   0  -2 -14 102.633 7.55812   3
   0   2 -14 94.7043 9.31984   2
   0   2  14 103.817 10.5420   1
   0  -2  14 110.407 7.32129   3
   2   2 -14 72.5084 8.16497   2
  -2  -2 -14 68.6838 8.11797   2
  -2   2  14 73.6224 8.22164   1
   2  -2  14 51.9267 8.68592   1
   2  -2 -14 90.7462 10.1523   3
   2   2  14 105.143 12.0693   1
   2  -2 -14 71.9375 7.07530   2
  -2   2 -14 98.1654 9.90952   2
  -2  -2  14 61.6891 7.27575   1
  -2  -2  14 56.2284 8.80915   3
   4  -2  14 29.0572 7.85896   1
  -4  -2 -14 31.3130 6.34537   2
  -4   2  14 37.5880 5.91787   1
   4   2 -14 27.2977 5.59893   2
  -4  -2  14 32.7614 9.13110   3
   4   2  14 36.0249 9.19174   1
  -4   2 -14 28.6468 6.23184   2
  -6  -2 -14 20.4346 6.72055   2
   6   2 -14 9.58568 4.73196   2
   6  -2  14 29.5022 8.71140   1
   6   2  14 9.35327 7.19513   1
  -6  -2  14 14.4056 7.85939   3
  -6   2 -14 15.6158 6.15420   2
   1   3 -14 510.541 23.8234   2
   1  -3  14 511.175 25.1746   1
  -1  -3 -14 480.065 23.1338   2
  -1   3  14 493.380 24.5994   1
  -1  -3  14 493.044 24.3266   3
   1  -3 -14 393.801 22.7418   3
  -1  -3  14 534.407 24.1756   1
   1  -3 -14 531.747 22.4671   2
  -1   3 -14 522.860 24.1836   2
   1   3  14 487.188 25.5343   1
  -3  -3 -14 250.124 15.3940   2
  -3   3  14 220.881 14.2531   1
   3   3 -14 257.333 14.9688   2
   3  -3  14 265.047 16.8939   1
  -3  -3  14 218.278 18.2435   3
   3  -3 -14 244.418 17.1147   3
   3   3  14 282.401 18.6361   1
  -3   3 -14 245.660 15.5031   2
   5   3 -14 59.0325 8.15033   2
   5  -3  14 60.8987 10.4309   1
  -5  -3 -14 80.1081 10.7020   2
   5  -3 -14 73.1159 11.9723   3
  -5  -3  14 75.7729 14.0119   3
   5   3  14 86.0413 12.2966   1
  -5   3 -14 69.1897 9.36162   2
   7   3 -14 13.0943 5.56266   2
   0  -4  14 1012.01 42.8375   3
   0   4  14 1018.69 45.1243   1
   0  -4 -14 1022.05 42.3327   2
   0  -4 -14 1101.67 42.9143   3
   0   4 -14 1054.68 43.7953   2
   0  -4  14 1045.68 44.4284   1
  -2  -4 -14 932.618 40.2537   2
  -2   4  14 926.534 41.0870   1
   2  -4  14 962.760 42.2766   1
   2   4 -14 919.493 40.2180   2
   2   4  14 1053.68 44.6850   1
  -2  -4  14 900.797 43.0782   3
  -2   4 -14 957.248 41.2182   2
   2  -4 -14 1004.29 42.6531   3
  -4  -4 -14 588.841 28.8506   2
   4  -4  14 614.846 30.7219   1
  -4   4  14 586.854 27.9607   1
   4   4 -14 547.468 27.5141   2
   4   4  14 605.505 32.5246   1
  -4   4 -14 580.814 28.5275   2
  -4  -4  14 572.801 33.7251   3
   4  -4 -14 654.594 32.8238   3
  -6  -4 -14 289.084 18.8696   2
   6   4 -14 247.744 16.6567   2
   6  -4  14 259.703 19.9557   1
  -6  -4  14 252.019 26.2161   3
  -6   4 -14 247.437 17.1626   2
   6   4  14 293.193 22.3534   1
   6  -4 -14 250.700 21.3020   3
   1   5 -14 29.1751 5.96940   2
  -1  -5 -14 19.2377 4.46737   2
  -1   5  14 39.6726 7.24826   1
   1  -5  14 20.1862 5.57125   1
  -1  -5 -14 30.8280 5.22342   3
   1  -5 -14 31.3370 6.22019   3
  -1   5 -14 26.4000 5.80474   2
  -1  -5  14 24.1425 6.33418   3
  -1  -5  14 20.9382 5.20726   1
   1   5  14 19.9439 6.55297   1
   3  -5  14 32.0980 6.93955   1
   3   5 -14 26.9621 5.79349   2
  -3  -5 -14 30.4536 6.39997   2
  -3   5  14 29.8243 6.06617   1
  -3  -5  14 29.8853 8.22064   3
   3   5  14 24.4255 8.25067   1
   3  -5 -14 34.3077 8.03822   3
  -3   5 -14 32.9431 6.24465   2
  -5  -5 -14 29.3340 6.82810   2
   5   5 -14 16.7161 5.41786   2
  -5   5  14 23.5952 6.05272   1
   5  -5  14 18.3433 6.78322   1
   5   5  14 28.3696 9.30951   1
   5  -5 -14 18.8995 7.70671   3
  -5  -5  14 25.6424 9.27539   3
  -5   5 -14 32.8902 6.72155   2
   0  -6 -14 329.439 17.9490   3
   0  -6  14 312.569 17.8654   1
   0   6  14 335.370 19.8298   1
   0   6 -14 334.873 18.2682   2
   0  -6 -14 310.260 17.2331   2
  -2  -6 -14 265.930 15.0265   2
   2  -6  14 251.704 16.2785   1
   2   6 -14 237.807 15.2431   2
  -2   6  14 254.429 16.1201   1
  -2   6 -14 234.144 15.1420   2
   2   6  14 229.166 17.8258   1
  -2  -6  14 252.443 17.6600   3
   2  -6 -14 248.368 16.8373   3
  -4  -6 -14 107.013 11.5667   2
  -4   6  14 124.853 12.1130   1
   4   6 -14 110.934 11.2269   2
   4  -6  14 131.919 13.9557   1
  -4  -6  14 98.3212 14.8434   3
  -4   6 -14 98.8922 11.1227   2
   4  -6 -14 97.7962 13.8955   3
   4   6  14 143.631 16.8521   1
   6  -6  14 59.7017 10.6394   1
  -6  -6 -14 55.8141 9.39186   2
   6   6 -14 28.6406 7.24250   2
  -6  -6  14 41.6168 12.7887   3
  -6   6 -14 41.5822 7.79845   2
   6  -6 -14 37.8659 11.1799   3
  -1  -7 -14 250.735 14.7993   3
  -1   7  14 244.715 16.1805   1
   1   7 -14 264.159 15.6529   2
   1  -7  14 247.896 15.5985   1
  -1  -7 -14 250.546 13.8789   2
  -1  -7  14 235.933 15.5860   3
   1  -7 -14 234.167 15.8624   3
  -1   7 -14 243.805 15.4682   2
   1   7  14 200.980 16.5803   1
  -3   7  14 114.080 11.9373   1
   3  -7  14 118.393 12.7772   1
   3   7 -14 106.377 11.2420   2
  -3  -7 -14 117.841 11.1114   2
  -3   7 -14 100.304 11.0424   2
   3   7  14 115.371 14.7760   1
  -3  -7  14 116.266 14.5372   3
   3  -7 -14 97.2319 12.7167   3
   5  -7  14 29.7905 7.11999   1
  -5   7  14 28.6443 6.85884   1
  -5  -7 -14 31.1195 7.15827   2
   5   7 -14 34.5810 7.08965   2
   5   7  14 34.9741 10.0875   1
  -5   7 -14 41.8653 7.46419   2
  -5  -7  14 37.2673 11.0336   3
   5  -7 -14 24.7987 9.15589   3
   0   8  14 844.519 39.6442   1
   0  -8 -14 857.980 38.2606   3
   0   8 -14 810.319 37.5105   2
   0  -8  14 848.268 37.1923   1
   2   8 -14 758.397 34.2706   2
  -2   8  14 725.351 34.8414   1
   2  -8  14 742.610 34.5473   1
  -2  -8 -14 759.805 32.7000   2
  -2  -8  14 706.966 35.3800   3
   2   8  14 748.114 37.2854   1
  -2   8 -14 717.105 33.9414   2
   2  -8 -14 727.379 36.2331   3
   4  -8  14 470.869 25.9250   1
   4   8 -14 439.329 24.1155   2
  -4   8  14 452.647 24.8933   1
  -4  -8 -14 501.856 24.4476   2
  -4  -8  14 423.166 29.0313   3
   4   8  14 376.351 27.1369   1
   4  -8 -14 456.119 28.8209   3
  -4   8 -14 459.253 24.2668   2
   1  -9  14 12.3488 4.38482   1
   1   9 -14 25.1966 6.54573   2
  -1   9  14 14.3251 5.26249   1
  -1  -9 -14 11.5000 5.26132   3
   1   9  14 19.5118 6.66632   1
  -1  -9  14 17.9262 5.79589   3
  -1   9 -14 20.8413 5.76267   2
   1  -9 -14 16.6091 5.97943   3
   3  -9  14 14.8590 5.75770   1
  -3   9  14 4.93962 4.42963   1
   3   9 -14 2.60408 4.19390   2
   3  -9 -14 7.78569 6.41983   3
   3   9  14 4.71246 5.67538   1
  -3   9 -14 4.41936 5.16529   2
  -3  -9  14 9.32057 6.05094   3
  -5   9  14 -2.4927 3.78118   1
  -5  -9  14 -5.0571 7.74864   3
   0 -10 -14 237.674 16.5184   3
   0  10 -14 207.552 15.0404   2
   0  10  14 215.244 16.2333   1
   2  10 -14 176.095 13.6076   2
   2 -10  14 157.588 13.0859   1
  -2  10  14 165.024 13.7365   1
  -2  10 -14 180.662 13.5203   2
   2  10  14 170.794 17.4213   1
   2 -10 -14 150.340 16.6607   3
  -2 -10  14 177.919 14.6201   3
   4 -10  14 76.6737 11.1248   1
  -4  10  14 118.460 13.5474   1
   4  10 -14 89.5337 11.2310   2
  -4 -10  14 79.7019 13.8569   3
   4 -10 -14 83.2737 13.7532   3
  -4  10 -14 84.5167 10.9096   2
   1  11 -14 -1.1886 3.86649   2
  -1 -11 -14 1.46331 5.04354   3
  -1  11  14 -3.0602 4.09830   1
   1  11  14 -1.3350 4.68673   1
   1 -11 -14 -1.3515 5.18373   3
  -1  11 -14 1.01686 4.19198   2
   3 -11  14 2.66614 4.51251   1
   3  11 -14 0.38888 4.32641   2
  -3  11  14 -2.8500 4.38877   1
  -3 -11  14 -3.0408 4.65524   3
  -3  11 -14 -2.9962 4.19269   2
   3 -11 -14 5.93063 6.82191   3
   3  11  14 6.22614 5.83099   1
   0 -12 -14 283.764 20.1271   3
   0  12 -14 281.917 18.3069   2
   0  12  14 256.279 19.1314   1
  -2  12  14 232.844 17.7700   1
   2 -12  14 243.084 16.2487   1
   2  12 -14 201.382 16.2423   2
  -2  12 -14 210.394 15.4421   2
   2 -12 -14 241.533 19.4165   3
   2  12  14 198.664 17.0516   1
  -2 -12  14 240.796 18.3836   3
  -1 -13 -14 55.5426 10.6392   3
  -1  13  14 51.2326 10.4261   1
   1  13 -14 51.5273 9.11662   2
   1  13  14 45.8697 9.80863   1
   1 -13 -14 48.9987 10.3466   3
  -1  13 -14 43.8393 8.68128   2
   1   0 -15 641.688 28.8509   3
   1   0 -15 644.192 28.7977   2
  -1   0  15 663.934 30.1679   1
   1   0  15 646.324 31.3325   1
  -1   0 -15 668.604 29.6862   2
  -3   0  15 291.726 15.8696   1
   3   0  15 298.265 19.4847   1
   3   0 -15 286.610 15.8162   2
  -3   0  15 307.036 19.4499   3
  -3   0 -15 273.271 17.0221   2
   5   0 -15 52.2739 7.26387   2
  -5   0  15 35.4262 9.66784   3
  -5   0 -15 60.2436 9.14491   2
   5   0  15 56.3167 11.1111   1
   7   0  15 -9.6537 6.31863   1
   0  -1 -15 6.05542 3.54913   2
   0   1  15 10.9234 4.95299   1
   0  -1  15 3.54259 4.25176   1
   0   1 -15 1.87598 3.54724   2
  -2   1  15 7.21168 4.04852   1
   2  -1  15 13.0931 5.08392   1
  -2  -1 -15 1.13914 3.67857   2
   2   1 -15 24.1021 5.06037   2
  -2  -1  15 11.3608 3.95808   1
   2   1  15 10.1645 4.93868   1
   2  -1 -15 10.8330 3.87814   2
   2  -1 -15 11.2553 4.92066   3
  -2   1 -15 9.60635 4.48398   2
  -2  -1  15 11.2184 5.19166   3
   4   1 -15 11.0137 4.61313   2
  -4   1  15 17.9197 7.19539   3
  -4  -1 -15 7.75875 5.19953   2
   4  -1  15 23.2679 7.43706   1
   4  -1 -15 11.0563 3.89975   2
  -4  -1  15 16.6406 7.49992   3
  -4   1 -15 17.9783 5.39235   2
   4   1  15 6.23160 5.22675   1
  -6  -1 -15 7.90475 5.32885   2
  -6   1  15 9.01869 7.69220   3
   6  -1  15 6.57501 6.99894   1
  -6  -1  15 14.1420 8.39903   3
  -6   1 -15 8.54082 5.53909   2
   6   1  15 6.05371 7.19312   1
  -1  -2 -15 13.9318 4.87570   2
   1  -2  15 31.6026 6.97628   1
   1   2 -15 19.4075 4.98793   2
  -1   2  15 23.1901 5.67577   1
   1  -2 -15 29.5343 5.05960   2
  -1   2 -15 20.0026 4.99211   2
  -1  -2  15 31.5187 5.66983   3
   1   2  15 19.4272 5.92827   1
  -1  -2  15 27.7478 5.80163   1
   1  -2 -15 27.5793 5.56069   3
   3   2 -15 13.4625 4.66182   2
   3  -2  15 15.0757 6.01117   1
  -3  -2 -15 7.69817 4.37785   2
  -3   2  15 15.0520 4.85066   1
  -3   2 -15 3.30407 3.98747   2
   3  -2 -15 12.2814 5.56209   3
   3   2  15 19.1692 7.26813   1
  -3  -2  15 10.6558 6.05397   3
   3  -2 -15 6.79993 3.63407   2
   5   2 -15 14.0754 4.93911   2
  -5  -2 -15 14.7670 5.77525   2
   5  -2  15 11.4034 6.76375   1
  -5   2 -15 16.5356 5.64025   2
  -5  -2  15 11.9078 7.64495   3
   5   2  15 13.8579 6.95017   1
   0   3  15 -1.0081 3.25543   1
   0  -3 -15 4.34720 3.10516   3
   0  -3  15 4.87443 3.98753   1
   0   3 -15 3.38230 3.45421   2
   0  -3 -15 5.10820 3.47116   2
  -2  -3 -15 7.27742 4.15664   2
   2   3 -15 6.00630 4.11423   2
  -2   3  15 5.11563 3.55667   1
   2  -3  15 7.88637 4.92697   1
   2  -3 -15 9.58740 4.76155   3
   2  -3 -15 3.74016 3.21380   2
  -2   3 -15 6.91170 4.22820   2
   2   3  15 8.40991 5.12099   1
  -2  -3  15 3.17602 3.17108   1
  -2  -3  15 4.74182 4.85292   3
  -4  -3 -15 10.2630 4.97808   2
   4  -3  15 5.62685 5.48117   1
   4   3 -15 11.9034 4.93497   2
  -4   3  15 7.47963 4.09163   1
   4  -3 -15 10.6143 6.60069   3
  -4  -3  15 7.85445 7.17007   3
  -4   3 -15 11.5142 5.08936   2
   4   3  15 17.4672 7.75225   1
  -6  -3 -15 0.58854 5.75427   2
   6  -3  15 3.59309 6.69377   1
   6   3 -15 5.51348 4.66027   2
   6   3  15 5.33326 7.15133   1
   6  -3 -15 12.7214 6.87214   3
  -6   3 -15 15.0482 6.09376   2
  -6  -3  15 7.65388 8.23501   3
  -1  -4 -15 114.942 10.3911   2
   1   4 -15 109.719 10.8282   2
  -1   4  15 130.750 12.5344   1
   1  -4  15 82.4888 10.4336   1
  -1  -4  15 103.009 11.1082   3
   1  -4 -15 110.312 9.67735   3
   1  -4 -15 113.605 9.56703   2
  -1   4 -15 102.154 10.4688   2
   1   4  15 89.6243 11.2572   1
  -1  -4  15 118.641 10.8356   1
  -3  -4 -15 30.1926 6.35513   2
   3  -4  15 15.9465 5.84359   1
   3   4 -15 25.3831 5.41671   2
  -3   4  15 38.5900 7.01916   1
   3  -4 -15 44.8140 8.61046   3
  -3   4 -15 39.3217 7.45202   2
  -3  -4  15 30.7263 8.34748   3
   3   4  15 35.3818 8.68406   1
   5   4 -15 1.33366 4.29265   2
  -5  -4 -15 11.7330 6.04539   2
   5  -4  15 -3.3323 4.92885   1
   5   4  15 3.00251 7.12958   1
  -5  -4  15 -0.6190 6.75639   3
  -5   4 -15 10.3285 5.17708   2
   5  -4 -15 7.92089 6.00412   3
   0   5 -15 1.00824 3.36105   2
   0  -5 -15 6.39277 3.15203   2
   0  -5 -15 -1.0403 3.02885   3
   0   5  15 0.26636 4.12216   1
   0  -5  15 5.87431 4.56862   1
  -2  -5 -15 7.21690 3.85293   2
  -2   5  15 8.88415 4.51391   1
   2   5 -15 6.30257 4.31333   2
   2  -5  15 5.40821 4.15655   1
  -2  -5  15 3.09610 4.70826   3
   2  -5 -15 3.88079 4.80266   3
   2   5  15 5.24791 5.29768   1
  -2   5 -15 8.73232 3.92413   2
   4   5 -15 10.8469 4.81651   2
  -4  -5 -15 6.70924 5.08402   2
  -4   5  15 13.5817 5.16548   1
   4  -5  15 10.7849 5.37130   1
  -4  -5  15 18.7714 8.30801   3
   4   5  15 5.63502 6.68527   1
  -4   5 -15 14.9528 5.14671   2
   4  -5 -15 4.50771 5.74035   3
  -6  -5 -15 6.95885 5.60969   2
   6   5 -15 12.0934 6.10631   2
   6  -5  15 4.57501 6.01465   1
  -6  -5  15 14.4854 9.39444   3
  -6   5 -15 4.83252 5.03456   2
   6  -5 -15 -2.2592 7.13979   3
  -1  -6 -15 576.926 26.3119   2
  -1   6  15 575.655 28.9623   1
   1   6 -15 539.488 27.2864   2
   1  -6  15 579.754 28.4295   1
  -1  -6  15 554.855 28.3409   3
   1  -6 -15 577.675 28.0910   3
  -1   6 -15 609.952 28.2930   2
   1   6  15 550.610 30.0605   1
   3   6 -15 328.023 19.3301   2
   3  -6  15 332.234 20.6092   1
  -3  -6 -15 331.662 19.4956   2
  -3   6  15 358.526 20.2697   1
   3  -6 -15 380.308 22.7029   3
  -3  -6  15 308.057 22.8011   3
   3   6  15 323.265 23.2185   1
  -3   6 -15 390.254 20.7428   2
  -5  -6 -15 149.413 14.8391   2
   5   6 -15 138.019 13.4833   2
   5  -6  15 152.288 16.9122   1
  -5   6  15 178.968 13.7887   1
  -5   6 -15 161.874 14.6829   2
   5  -6 -15 125.393 16.1767   3
   5   6  15 167.407 18.9873   1
  -5  -6  15 157.305 19.7626   3
   0   7 -15 0.11575 3.71015   2
   0  -7  15 4.38198 3.97072   1
   0  -7 -15 -1.7780 3.28220   3
   0   7  15 -0.9004 4.44861   1
   2   7 -15 4.25695 3.93147   2
  -2   7  15 7.57485 4.48936   1
   2  -7  15 2.80128 4.34712   1
  -2  -7 -15 2.23275 4.04057   2
   2  -7 -15 5.32049 4.96216   3
  -2  -7  15 -2.4344 5.04506   3
   2   7  15 -0.5606 5.78142   1
  -2   7 -15 -1.6439 3.39990   2
  -4   7  15 0.25645 3.95866   1
   4   7 -15 0.25453 3.98333   2
   4  -7  15 1.20154 4.57297   1
  -4  -7 -15 -2.6822 4.25268   2
   4   7  15 5.78739 7.03768   1
  -4   7 -15 1.05010 3.99559   2
  -4  -7  15 10.3936 8.13123   3
   4  -7 -15 5.97737 5.31461   3
   1  -8  15 75.6491 9.54803   1
   1   8 -15 52.1601 8.22706   2
  -1   8  15 78.8565 10.8385   1
  -1   8 -15 65.7284 9.02096   2
   1  -8 -15 87.5158 10.9561   3
   1   8  15 54.6048 10.0079   1
   3  -8  15 83.0760 11.0401   1
   3   8 -15 63.9003 8.96388   2
  -3  -8 -15 60.2470 8.51257   2
  -3   8  15 77.6224 10.2328   1
   3   8  15 57.5361 11.3285   1
   3  -8 -15 63.7737 10.8192   3
  -3   8 -15 70.7462 9.63821   2
  -3  -8  15 80.9952 13.0035   3
  -5  -8 -15 70.5641 10.2370   2
  -5   8  15 56.6030 9.10471   1
   5  -8  15 59.0711 11.8607   1
   5   8 -15 47.0900 8.75864   2
   5  -8 -15 39.7467 10.0319   3
  -5   8 -15 50.3265 8.35714   2
  -5  -8  15 63.4129 14.2418   3
   0   9  15 15.3990 6.80190   1
   0   9 -15 17.6406 5.83614   2
   0  -9 -15 17.7075 6.45267   3
   2  -9  15 14.5716 5.47524   1
  -2   9  15 19.4542 6.06666   1
   2   9 -15 15.7527 5.65926   2
   2  -9 -15 21.7789 7.22140   3
   2   9  15 20.4349 7.37082   1
  -2   9 -15 21.4752 5.60595   2
  -2  -9  15 17.5190 7.10433   3
  -4  -9 -15 12.5664 5.76124   2
  -4   9  15 9.35907 5.41801   1
   4   9 -15 19.2121 6.17390   2
   4  -9  15 19.8139 7.03979   1
   4  -9 -15 19.0982 7.97523   3
  -4   9 -15 16.1200 5.85884   2
  -4  -9  15 14.7497 9.28568   3
   4   9  15 13.6090 7.88911   1
  -1  10  15 401.188 24.1678   1
  -1 -10 -15 410.492 23.4151   3
   1 -10  15 412.731 22.7076   1
   1  10 -15 412.726 23.1354   2
   1 -10 -15 402.338 24.3309   3
  -1  10 -15 413.396 23.0609   2
   1  10  15 399.275 25.2310   1
   3 -10  15 215.374 16.8596   1
  -3  10  15 265.763 18.5841   1
   3  10 -15 281.603 18.3137   2
  -3  10 -15 294.794 18.1763   2
   3 -10 -15 248.751 20.3161   3
   3  10  15 251.857 19.9607   1
  -3 -10  15 250.451 20.1901   3
   0 -11 -15 10.7713 5.62129   3
   0  11  15 4.28491 5.03008   1
   0  11 -15 1.78543 4.56594   2
   2 -11  15 2.31422 4.36997   1
   2  11 -15 -0.9136 4.54337   2
  -2  11  15 -0.1545 4.20454   1
  -2  11 -15 1.23608 4.04134   2
   2  11  15 -2.0111 5.73292   1
   2 -11 -15 4.09578 5.17788   3
  -4 -11  15 5.97784 8.16020   3
  -1 -12 -15 31.4724 7.89125   3
  -1  12  15 36.5647 8.68569   1
   1  12 -15 18.7518 7.17657   2
   1  12  15 21.4291 8.04645   1
   1 -12 -15 49.2771 10.1973   3
  -1  12 -15 32.3378 7.48456   2
  -3 -12  15 34.5434 10.0060   3
   0 -13 -15 1.56671 5.16573   3
   0  13 -15 7.48447 4.82876   2
   2  13  15 2.98159 5.58446   1
   0   0  16 11.4057 5.12245   1
   0   0 -16 5.58801 3.87772   2
  -2   0  16 21.1680 5.71472   3
  -2   0  16 29.2524 5.91397   1
  -2   0 -16 26.4285 6.25677   2
   2   0 -16 17.5243 4.46594   2
   2   0  16 21.8152 6.77744   1
   4   0  16 43.3492 8.95056   1
  -4   0 -16 28.0650 6.64363   2
  -4   0  16 43.9907 9.20333   3
   4   0 -16 45.1320 6.53037   2
   6   0  16 41.5300 9.85782   1
  -6   0  16 29.9948 9.36448   3
  -6   0 -16 48.3278 8.99736   2
   1  -1  16 378.688 21.4049   1
  -1  -1 -16 395.622 20.0996   2
   1   1 -16 362.403 19.2577   2
  -1   1  16 380.415 20.4816   1
  -1  -1  16 344.513 18.6554   3
   1  -1 -16 395.542 19.1413   3
  -1   1 -16 386.663 20.1388   2
  -1  -1  16 387.617 20.3618   1
   1   1  16 402.033 22.0803   1
   1  -1 -16 354.126 18.8006   2
  -3  -1 -16 218.849 14.5676   2
  -3   1  16 207.311 13.2030   1
   3  -1  16 207.115 16.0015   1
   3   1 -16 189.775 12.8970   2
   3   1  16 183.653 17.5606   1
   3  -1 -16 206.849 12.5607   2
  -3   1 -16 191.450 14.0012   2
  -3  -1  16 198.651 16.1166   3
  -5   1  16 65.1967 12.0472   3
   5   1 -16 65.0754 8.64927   2
  -5  -1 -16 64.7570 9.75015   2
   5  -1  16 83.1096 12.6575   1
   5   1  16 69.6955 11.8546   1
  -5  -1  16 67.2043 13.1061   3
  -5   1 -16 52.8779 8.60152   2
   0  -2 -16 776.096 34.4567   2
   0   2 -16 789.849 35.4316   2
   0   2  16 806.631 37.0004   1
   0  -2  16 835.745 36.6852   1
   2  -2  16 589.280 29.9540   1
   2   2 -16 622.350 27.6800   2
  -2   2  16 541.411 27.4513   1
  -2  -2 -16 536.736 27.3785   2
   2  -2 -16 613.917 28.5031   3
   2   2  16 608.572 30.6994   1
   2  -2 -16 584.285 26.0440   2
  -2  -2  16 594.486 26.9107   1
  -2  -2  16 590.523 28.7810   3
  -2   2 -16 564.257 28.3000   2
  -4  -2 -16 269.318 17.3723   2
   4  -2  16 265.498 19.7161   1
   4   2 -16 276.301 16.2059   2
  -4  -2  16 232.034 19.1193   3
  -4   2 -16 284.917 17.4053   2
   4  -2 -16 280.725 19.4181   3
   4   2  16 291.707 20.3474   1
  -6  -2 -16 112.674 13.3603   2
   6   2 -16 105.906 11.0898   2
   6  -2  16 100.242 14.5724   1
   6   2  16 91.5069 13.6040   1
  -6   2 -16 109.444 12.9094   2
  -6  -2  16 95.0212 15.2561   3
   6  -2 -16 108.939 15.5477   3
   1   3 -16 -5.1807 3.19031   2
  -1   3  16 -2.8046 3.16862   1
   1  -3  16 0.63911 3.72116   1
  -1  -3 -16 2.54244 3.60920   2
   1  -3 -16 -0.7457 3.06794   3
   1   3  16 6.03180 5.23332   1
  -1  -3  16 -0.7180 3.30177   3
  -1  -3  16 4.21854 4.10466   1
  -1   3 -16 3.98908 3.92220   2
   1  -3 -16 -3.5356 2.77517   2
  -3   3  16 -3.3709 3.36501   1
  -3  -3 -16 -4.1280 3.67812   2
   3   3 -16 -0.2258 3.22677   2
   3  -3  16 9.09509 5.31874   1
   3   3  16 0.73609 5.55431   1
   3  -3 -16 2.18544 4.36252   3
  -3  -3  16 2.78793 4.78388   3
  -3   3 -16 -2.0892 2.92537   2
   5   3 -16 -4.0524 3.84847   2
   5  -3  16 0.82754 5.38330   1
  -5  -3 -16 -2.8512 4.69199   2
  -5  -3  16 -3.3477 6.24437   3
   5  -3 -16 -3.3850 4.74349   3
  -5   3 -16 0.36255 4.21537   2
   5   3  16 5.37842 6.51875   1
   0   4 -16 67.6883 8.68490   2
   0   4  16 58.3483 8.95940   1
   0  -4 -16 53.1418 7.21340   2
   0  -4  16 57.9110 8.26413   1
  -2  -4 -16 89.6618 9.94953   2
   2   4 -16 73.1189 8.66896   2
   2  -4  16 74.8824 10.0785   1
  -2   4  16 78.4136 9.82985   1
  -2  -4  16 58.1882 9.72630   3
  -2   4 -16 54.0232 7.85840   2
   2  -4 -16 78.2587 9.90446   3
   2   4  16 63.2577 10.9502   1
   4  -4  16 66.4659 10.6549   1
   4   4 -16 67.5114 8.98983   2
  -4  -4 -16 80.2996 10.5730   2
  -4   4  16 71.4676 9.37517   1
  -4  -4  16 78.3690 13.0762   3
   4  -4 -16 60.1809 10.3648   3
  -4   4 -16 78.1155 9.78460   2
   4   4  16 74.2461 12.0622   1
   6   4 -16 55.8866 9.01319   2
  -6   4 -16 41.0749 9.34372   2
  -6  -4  16 49.8572 12.6394   3
   6   4  16 59.2299 11.5554   1
   1  -5  16 517.773 26.7959   1
  -1  -5 -16 497.883 24.5376   2
   1   5 -16 546.005 26.0682   2
  -1   5  16 475.065 26.2977   1
  -1  -5  16 517.910 25.1724   1
   1  -5 -16 474.375 24.9093   3
  -1   5 -16 531.467 25.9692   2
   1   5  16 541.417 28.2978   1
  -3   5  16 272.957 17.3160   1
   3  -5  16 292.269 18.9027   1
   3   5 -16 277.548 17.1912   2
  -3  -5 -16 263.083 17.1847   2
   3   5  16 311.906 21.4532   1
   3  -5 -16 264.526 18.9583   3
  -3   5 -16 281.623 17.5388   2
  -3  -5  16 273.294 20.7245   3
   5   5 -16 78.5389 10.3782   2
  -5  -5 -16 104.736 12.5474   2
   5  -5  16 107.585 14.5914   1
  -5  -5  16 91.0086 15.5978   3
  -5   5 -16 91.4505 11.1153   2
   5  -5 -16 98.5367 13.9356   3
   5   5  16 118.298 16.2329   1
   0   6  16 735.874 38.2035   1
   0  -6 -16 850.046 37.3198   3
   0  -6  16 863.629 37.7676   1
   0   6 -16 818.996 36.9965   2
   2  -6  16 614.961 31.5844   1
  -2   6  16 597.943 31.0654   1
  -2  -6 -16 648.962 30.0116   2
   2   6 -16 616.360 30.3401   2
   2   6  16 634.912 33.4520   1
   2  -6 -16 682.005 32.1164   3
  -2   6 -16 634.403 30.6722   2
  -2  -6  16 638.604 33.0675   3
   4   6 -16 307.945 19.3330   2
   4  -6  16 319.575 21.3315   1
  -4   6  16 319.395 19.5983   1
  -4  -6 -16 341.465 20.2476   2
   4  -6 -16 339.831 23.2059   3
  -4  -6  16 302.533 23.9282   3
  -4   6 -16 295.501 19.2142   2
   4   6  16 343.615 23.9530   1
  -1   7  16 -0.5450 4.00233   1
   1   7 -16 7.78817 4.86118   2
   1  -7  16 12.1810 5.22460   1
   1   7  16 1.13274 5.07814   1
  -1   7 -16 8.77266 4.67114   2
   1  -7 -16 11.9820 5.18298   3
   3  -7  16 5.64399 5.16486   1
  -3   7  16 1.98908 4.43374   1
  -3  -7 -16 -5.6428 3.84028   2
   3   7 -16 1.06559 4.44246   2
   3  -7 -16 5.84253 5.20979   3
   3   7  16 5.02415 5.33217   1
  -3  -7  16 5.45838 6.70300   3
  -3   7 -16 7.24193 5.35720   2
  -5  -7 -16 -0.6458 4.88513   2
   5  -7  16 1.51317 5.85207   1
   5   7 -16 8.48911 5.18796   2
  -5   7  16 7.63943 4.98871   1
  -5   7 -16 9.69997 5.27411   2
  -5  -7  16 3.58438 8.69957   3
   5   7  16 -1.1117 6.17111   1
   5  -7 -16 1.93358 7.26906   3
   0   8  16 135.235 15.4771   1
   0   8 -16 138.707 13.4157   2
   0  -8 -16 143.726 12.0348   3
   2   8 -16 123.265 12.6445   2
   2  -8  16 119.831 13.3270   1
  -2   8  16 136.582 14.2687   1
   2  -8 -16 148.732 15.3774   3
  -2  -8  16 144.615 17.2936   3
  -2   8 -16 148.339 13.5575   2
   2   8  16 123.586 15.2690   1
   4   8 -16 103.899 12.3833   2
  -4  -8 -16 125.216 13.2471   2
  -4   8  16 131.720 14.2074   1
   4  -8  16 115.460 14.2248   1
  -4  -8  16 127.599 18.0604   3
   4   8  16 107.719 16.6755   1
  -4   8 -16 114.846 12.7506   2
   4  -8 -16 102.509 14.7343   3
  -1   9  16 85.4324 11.8546   1
   1   9 -16 75.6887 9.86687   2
   1  -9  16 73.4667 10.0404   1
  -1   9 -16 73.3818 9.98299   2
   1   9  16 51.8969 10.3782   1
   1  -9 -16 94.1885 11.8557   3
   3  -9  16 44.0103 8.42739   1
  -3   9  16 40.4671 8.41815   1
   3   9 -16 41.6594 8.11096   2
  -3   9 -16 34.7789 7.53030   2
   3   9  16 37.5283 9.89172   1
   3  -9 -16 43.0019 9.57909   3
  -3  -9  16 32.5505 9.53992   3
  -5  -9 -16 11.4090 7.29757   2
   0  10 -16 513.811 26.3596   2
   0 -10 -16 456.603 26.1171   3
   0  10  16 472.168 27.8443   1
   2  10 -16 361.140 21.9050   2
   2 -10  16 373.764 22.3014   1
  -2  10  16 353.503 22.9898   1
   2  10  16 368.880 25.0639   1
  -2  10 -16 358.656 21.6367   2
   2 -10 -16 394.952 24.5128   3
  -4 -10  16 200.110 22.7835   3
  -4  10 -16 186.552 16.5196   2
  -1  11  16 97.2343 13.3418   1
   1  11 -16 92.6198 11.8933   2
  -1  11 -16 79.5160 11.0901   2
   1 -11 -16 115.612 14.1024   3
   1  11  16 100.851 13.9339   1
   3 -11  16 59.4651 9.95033   1
   3  11  16 47.3641 10.7807   1
  -3  11 -16 72.2637 10.7184   2
   0  12  16 45.4531 9.64781   1
   0 -12 -16 65.2166 10.9392   3
   0  12 -16 43.2614 8.06391   2
  -2  12 -16 59.8281 9.93209   2
   2  12  16 36.8834 9.13261   1
  -1   0  17 206.891 14.3681   1
  -1   0 -17 209.598 13.9903   2
   1   0  17 188.687 14.8673   1
   1   0 -17 224.489 13.5730   2
   3   0 -17 211.668 13.2088   2
   3   0  17 225.634 16.9425   1
  -3   0  17 148.224 12.9703   1
  -3   0  17 204.868 15.4931   3
  -3   0 -17 208.575 14.5859   2
  -5   0  17 146.684 17.0566   3
  -5   0 -17 143.835 14.7909   2
   5   0  17 154.510 17.5908   1
   0   1  17 15.7554 5.53336   1
   0  -1 -17 16.0826 4.89475   2
   0   1 -17 15.7543 5.08988   2
   0  -1  17 11.4531 5.15128   1
  -2  -1 -17 8.06901 4.85387   2
   2   1 -17 5.30993 4.09720   2
   2  -1  17 0.63412 4.34846   1
  -2   1  17 1.77714 3.95012   1
  -2   1 -17 4.76880 4.47310   2
   2  -1 -17 6.20508 3.63657   2
   2   1  17 6.42822 5.52133   1
  -2  -1  17 7.78469 4.39916   3
   2  -1 -17 15.1172 5.14353   3
  -2  -1  17 6.08978 3.72929   1
  -4  -1 -17 -2.3177 4.66193   2
   4   1 -17 1.35384 3.92429   2
   4  -1  17 1.16519 5.40453   1
  -4   1 -17 -0.4206 4.36985   2
  -4  -1  17 7.51156 6.74612   3
   4   1  17 -1.2041 5.58538   1
   6  -1  17 -5.1762 5.53443   1
   6   1  17 -1.1040 6.18150   1
  -6  -1  17 -5.0666 5.04946   3
  -1   2  17 85.3700 10.2687   1
  -1  -2 -17 82.2028 9.37879   2
   1  -2  17 67.7204 9.82852   1
   1   2 -17 65.7838 8.75423   2
   1   2  17 74.9374 10.9405   1
  -1   2 -17 73.3932 9.02666   2
   1  -2 -17 81.0005 8.55198   2
  -1  -2  17 84.2371 9.78455   1
   3  -2  17 34.1808 7.90252   1
   3   2 -17 24.7313 6.03773   2
  -3  -2 -17 20.1922 6.04368   2
  -3   2  17 41.3106 7.13458   1
   3   2  17 36.4043 9.13958   1
   3  -2 -17 35.8717 7.87901   3
  -3   2 -17 25.8965 6.92288   2
  -3  -2  17 35.3818 8.13607   3
   5   2 -17 10.9597 5.24600   2
  -5  -2 -17 20.0668 6.58183   2
   5  -2  17 13.3755 6.33831   1
  -5   2 -17 20.9954 6.64134   2
   5  -2 -17 11.0481 6.83754   3
  -5  -2  17 13.2216 7.45562   3
   5   2  17 17.7631 7.77230   1
   0   3  17 117.320 12.5343   1
   0  -3 -17 106.086 10.2590   2
   0   3 -17 107.077 10.8971   2
   0  -3  17 117.661 12.1584   1
   2   3 -17 87.2415 10.1055   2
  -2  -3 -17 92.2491 10.3668   2
   2  -3  17 104.753 12.9845   1
  -2   3  17 88.0700 10.3497   1
  -2  -3  17 102.694 11.6967   3
   2   3  17 103.170 13.4921   1
   2  -3 -17 118.080 11.8576   3
  -2   3 -17 108.582 11.1028   2
   4  -3  17 68.6817 11.2748   1
   4   3 -17 61.9663 8.85435   2
  -4  -3 -17 70.0663 10.2299   2
  -4   3  17 51.5793 7.74074   1
   4   3  17 59.2824 11.2085   1
  -4   3 -17 60.7355 8.83466   2
   4  -3 -17 67.6735 10.8287   3
  -4  -3  17 61.9946 11.2441   3
   6   3 -17 25.5511 6.88433   2
   6   3  17 32.9482 9.66610   1
  -1   4  17 94.3497 11.6204   1
   1  -4  17 99.1633 11.6556   1
  -1  -4 -17 79.5986 9.49837   2
   1   4 -17 97.9070 10.4332   2
  -1  -4  17 95.1967 10.1263   1
   1  -4 -17 78.5199 8.95287   3
   1   4  17 72.2572 10.4596   1
  -1   4 -17 62.8965 8.94632   2
   3   4 -17 97.8446 10.9607   2
   3  -4  17 106.084 13.1011   1
  -3  -4 -17 118.370 12.2772   2
  -3   4  17 97.3309 11.2624   1
  -3   4 -17 113.255 12.1039   2
   3   4  17 122.195 14.8158   1
  -3  -4  17 98.5056 13.6534   3
   3  -4 -17 106.655 12.4758   3
   5   4 -17 112.551 12.0681   2
  -5  -4 -17 69.7304 11.6410   2
   5  -4  17 67.0062 12.4786   1
  -5   4 -17 89.0826 11.6796   2
  -5  -4  17 96.1376 14.9388   3
   5  -4 -17 83.4952 12.7231   3
   5   4  17 84.5524 13.3223   1
   0   5 -17 77.6751 9.91145   2
   0  -5  17 113.094 11.8280   1
   0   5  17 122.954 13.5223   1
  -2   5  17 92.0694 11.2269   1
   2   5 -17 80.3884 9.80599   2
  -2  -5 -17 77.0968 9.68619   2
   2  -5  17 98.3340 11.9910   1
   2  -5 -17 70.9999 9.84837   3
   2   5  17 70.3526 11.6965   1
  -2   5 -17 55.9710 8.45898   2
  -2  -5  17 65.4176 10.8996   3
  -4   5  17 18.8176 5.73544   1
   4  -5  17 27.7581 8.53524   1
   4   5 -17 23.0213 6.42553   2
  -4  -5 -17 28.3548 7.32339   2
   4   5  17 19.5326 8.30862   1
   4  -5 -17 21.5778 7.62077   3
  -4  -5  17 32.3465 9.64888   3
  -4   5 -17 21.7270 6.66560   2
   1  -6  17 -4.0925 4.50956   1
  -1   6  17 -2.8773 4.36595   1
   1   6 -17 0.80686 3.86045   2
  -1   6 -17 4.33037 4.17789   2
   1   6  17 0.33841 5.28394   1
   1  -6 -17 -1.9197 3.85195   3
  -3  -6 -17 -1.1746 4.70167   2
   3  -6  17 4.86464 5.18458   1
  -3   6  17 9.17615 4.60155   1
   3   6 -17 5.36285 4.94319   2
  -3   6 -17 -3.3641 4.14892   2
   3   6  17 5.58214 6.28713   1
  -3  -6  17 1.54418 5.17342   3
   3  -6 -17 -3.8771 3.98746   3
  -5   6  17 -6.2769 4.25820   1
   5  -6  17 0.68877 8.79584   1
  -5  -6 -17 1.86093 5.64551   2
   5   6 -17 -0.2775 5.40043   2
   5   6  17 3.97247 7.15852   1
  -5  -6  17 -10.691 6.83440   3
   5  -6 -17 -0.4673 5.48283   3
  -5   6 -17 2.87922 4.75142   2
   0   7 -17 32.8871 6.92012   2
   0   7  17 39.4390 7.79492   1
   0  -7  17 33.7674 7.22376   1
   2   7 -17 30.7385 7.32411   2
  -2   7  17 38.7862 7.79186   1
   2  -7  17 26.8168 7.09421   1
   2  -7 -17 28.6312 7.39256   3
   2   7  17 27.5041 8.87132   1
  -2   7 -17 27.9696 6.51077   2
   4  -7  17 17.5477 7.71124   1
   4   7 -17 18.7527 6.85593   2
  -4   7  17 34.6984 7.25600   1
  -4  -7 -17 23.8007 7.01643   2
   4  -7 -17 22.2989 7.64550   3
   4   7  17 17.7435 9.37869   1
  -4   7 -17 24.3739 6.82999   2
  -4  -7  17 42.9484 11.6970   3
   1   8 -17 1.42944 4.28743   2
  -1   8  17 6.54951 5.19481   1
   1  -8  17 7.39785 5.21187   1
   1   8  17 7.32919 6.23159   1
   1  -8 -17 3.22677 4.54139   3
  -1   8 -17 -1.3760 3.90124   2
   3   8 -17 7.98637 5.50607   2
   3  -8  17 34.9097 7.99173   1
  -3   8  17 20.1874 6.44348   1
  -3  -8  17 32.4531 9.66671   3
   3  -8 -17 13.7334 5.98142   3
  -3   8 -17 15.5650 5.76637   2
   3   8  17 20.0087 9.01838   1
   0   9  17 6.20191 5.24597   1
   0   9 -17 -1.0910 3.83853   2
   2  -9  17 7.12673 5.25548   1
  -2   9  17 2.61338 5.17225   1
   2   9 -17 5.02471 4.79508   2
   2  -9 -17 -8.9320 3.70627   3
   2   9  17 -3.1586 5.97765   1
  -2   9 -17 -2.1952 3.89021   2
   4   9  17 -1.1926 6.56487   1
  -4  -9  17 12.5910 8.61149   3
  -4   9 -17 -0.4484 4.56795   2
  -1  10  17 2.97851 5.24147   1
   1  10 -17 -2.2033 4.04368   2
   1 -10 -17 11.6004 5.60073   3
   1  10  17 -1.5110 5.38647   1
  -1  10 -17 0.86473 4.24001   2
   3 -10  17 -4.4143 4.31043   1
  -3  10 -17 -10.500 3.36491   2
   3  10  17 18.7871 7.17901   1
   3 -10 -17 5.04387 5.84389   3
   0  11 -17 15.8943 6.13676   2
   0  11  17 6.53686 5.72749   1
   2 -11  17 9.09715 5.08577   1
   2  11  17 0.01129 5.66490   1
  -2  11 -17 4.00958 4.76966   2
   2 -11 -17 -2.4029 5.60633   3
   1 -12 -17 31.1418 9.09434   3
   0   0  18 434.571 23.9953   1
   0   0 -18 441.315 22.2965   2
   2   0  18 449.176 24.9350   1
  -2   0  18 415.467 21.9124   1
   2   0 -18 410.949 21.1027   2
  -2   0 -18 389.437 22.2212   2
  -4   0 -18 285.021 18.9044   2
  -4   0  18 295.387 20.3052   3
   4   0  18 332.583 21.8553   1
   4   0 -18 268.008 16.7769   2
  -1   1  18 6.32369 4.69097   1
   1   1 -18 8.44128 4.55027   2
  -1  -1 -18 10.5199 4.75780   2
   1  -1  18 6.28570 5.75354   1
  -1  -1  18 8.14869 4.55734   1
   1   1  18 16.8727 6.39684   1
   1  -1 -18 10.6077 4.63577   2
  -1   1 -18 6.49338 4.67838   2
   3   1 -18 -2.5876 3.96264   2
  -3   1  18 14.2894 4.81212   1
  -3  -1 -18 8.36263 5.31841   2
   3  -1  18 1.83666 5.20285   1
   3  -1 -18 8.02680 4.27834   2
  -3   1 -18 11.7470 5.80976   2
   3  -1 -18 3.46445 4.39167   3
   3   1  18 11.3993 6.66271   1
  -3  -1  18 5.08482 5.09566   3
   5  -1  18 -3.4896 4.74096   1
  -5  -1 -18 6.84659 6.13253   2
   5   1  18 17.7859 7.83317   1
  -5  -1  18 0.54977 5.92815   3
  -5   1 -18 4.23828 5.36662   2
   5  -1 -18 1.67941 5.55857   3
   0  -2 -18 1790.57 70.8653   2
   0   2  18 1813.49 73.3869   1
   0   2 -18 1741.19 71.2602   2
   0  -2  18 1780.68 72.7918   1
   2   2 -18 1279.11 53.1065   2
   2  -2  18 1260.88 55.9588   1
  -2   2  18 1297.80 53.9783   1
  -2  -2 -18 1248.41 53.6302   2
  -2  -2  18 1184.45 52.5910   1
   2  -2 -18 1272.84 53.8626   3
  -2   2 -18 1310.37 54.2840   2
   2  -2 -18 1346.59 52.0060   2
  -2  -2  18 1254.82 53.9170   3
   2   2  18 1328.95 56.6386   1
   4   2 -18 612.453 29.8782   2
   4  -2  18 660.817 34.6504   1
  -4  -2 -18 595.517 30.9294   2
   4  -2 -18 617.835 32.4942   3
   4   2  18 631.179 34.1407   1
  -4   2 -18 572.101 30.6207   2
  -4  -2  18 607.599 33.6488   3
  -1  -3 -18 0.64001 3.46236   2
   1  -3  18 -6.1945 4.16491   1
  -1   3  18 0.34846 3.64472   1
   1   3 -18 2.82570 4.17005   2
   1   3  18 -0.1708 4.74799   1
  -1   3 -18 9.80309 5.10981   2
  -1  -3  18 3.93564 4.57214   1
   1  -3 -18 6.17885 3.93092   2
  -3   3  18 -1.1901 3.49085   1
  -3  -3 -18 7.61720 5.04682   2
   3   3 -18 5.47219 4.57871   2
   3  -3  18 -1.9084 5.04903   1
  -3  -3  18 0.78506 4.78665   3
  -3   3 -18 6.68132 4.35075   2
   3  -3 -18 4.44376 5.10516   3
   3   3  18 2.53280 5.52180   1
   5   3 -18 4.04430 5.13211   2
   5  -3  18 3.29520 6.49189   1
  -5  -3 -18 5.50392 5.90410   2
  -5   3 -18 -1.1593 5.31336   2
  -5  -3  18 2.01808 7.08811   3
   5   3  18 1.00434 6.91850   1
   5  -3 -18 6.32861 5.70076   3
   0  -4 -18 51.9883 7.53188   2
   0   4  18 45.7713 8.41591   1
   0  -4  18 58.0157 8.87369   1
   0   4 -18 52.9677 8.04403   2
  -2  -4 -18 61.8766 9.02130   2
  -2   4  18 60.7981 9.25769   1
   2   4 -18 61.7319 9.21027   2
   2  -4  18 72.0462 10.6130   1
   2   4  18 62.7694 10.9193   1
  -2   4 -18 74.4599 9.80582   2
   2  -4 -18 77.8925 9.83214   3
   4  -4  18 79.8050 12.6514   1
   4   4 -18 67.7970 9.55403   2
  -4  -4 -18 84.7966 11.4938   2
  -4   4  18 69.8308 9.43434   1
  -4  -4  18 64.0028 12.0830   3
   4  -4 -18 73.5333 11.1431   3
  -4   4 -18 65.6947 10.0424   2
   4   4  18 90.6964 14.0733   1
  -1  -5 -18 4.16781 3.84850   2
   1   5 -18 3.49361 4.47912   2
  -1   5  18 4.81853 5.15124   1
   1  -5  18 4.15027 5.29074   1
  -1   5 -18 -4.9591 3.58511   2
   1   5  18 2.39610 5.13106   1
   3   5 -18 6.12818 5.05458   2
  -3  -5 -18 -5.1921 3.96932   2
  -3   5  18 2.11469 4.09546   1
   3  -5  18 -0.4448 4.63373   1
   3   5  18 4.83247 6.40384   1
   3  -5 -18 0.77635 4.86846   3
  -3   5 -18 -3.4685 3.76865   2
  -3  -5  18 4.64783 6.45873   3
   5   5 -18 2.86982 5.30832   2
  -5  -5 -18 -2.0110 5.25826   2
  -5  -5  18 -2.2351 7.32622   3
  -5   5 -18 2.52308 4.30870   2
   5  -5 -18 -3.1543 5.93485   3
   5   5  18 -4.4942 6.69648   1
   0  -6  18 434.279 23.6100   1
   0   6  18 413.760 24.8290   1
   0   6 -18 408.311 22.8054   2
  -2  -6 -18 314.844 19.2033   2
  -2   6  18 313.068 20.0466   1
   2  -6  18 328.179 21.3978   1
   2   6 -18 312.775 19.5079   2
   2   6  18 306.995 22.0252   1
  -2   6 -18 336.762 19.9379   2
   2  -6 -18 330.483 20.1180   3
  -4   6  18 159.883 15.7118   1
  -4  -6 -18 129.299 14.8490   2
   4   6 -18 196.596 14.7410   2
   4  -6  18 170.945 18.0302   1
   4  -6 -18 176.686 17.9448   3
  -4   6 -18 190.855 14.6838   2
   4   6  18 147.285 18.5558   1
  -4  -6  18 164.371 19.8819   3
   1   7 -18 3.41491 4.40759   2
  -1   7  18 5.72668 5.56039   1
   1  -7  18 7.52652 5.85048   1
  -1   7 -18 8.04909 4.73743   2
   1   7  18 3.83096 5.47542   1
   3   7 -18 0.31826 5.18061   2
  -3   7  18 -2.9354 4.41941   1
  -3  -7 -18 7.82108 5.94880   2
   3  -7  18 4.17829 5.35717   1
   3   7  18 1.96447 6.20434   1
  -3   7 -18 4.62378 4.57716   2
   3  -7 -18 5.66054 5.22918   3
   5   7  18 -6.0659 7.55277   1
   0   8 -18 7.91142 4.91657   2
   0   8  18 21.1079 7.55100   1
  -2   8  18 5.85383 5.19592   1
   2   8 -18 2.10696 4.27046   2
   2  -8  18 12.9054 6.62742   1
   2   8  18 -5.7425 5.70119   1
  -2   8 -18 14.2969 5.55009   2
   2  -8 -18 21.5523 6.69151   3
  -4   8  18 5.70307 5.88892   1
   4  -8 -18 1.20495 6.44034   3
  -4  -8  18 15.4112 8.96509   3
  -4   8 -18 -4.4461 4.35052   2
   4   8  18 2.99062 7.66224   1
  -1   9  18 0.86290 5.00008   1
   1   9 -18 -5.0404 3.57281   2
   1   9  18 -2.9231 5.34815   1
  -1   9 -18 -1.4593 4.00827   2
   3   9 -18 -7.5839 6.53469   2
   3  -9  18 3.86922 5.32483   1
  -3   9  18 -4.9059 4.14508   1
  -3   9 -18 3.89654 4.40349   2
   3  -9 -18 -6.3022 4.46409   3
   3   9  18 2.02540 6.22789   1
   0  10 -18 90.5540 11.6524   2
   0  10  18 76.9642 12.4059   1
   2 -10  18 72.7299 11.1853   1
   2  10  18 66.3011 12.7818   1
  -2  10 -18 84.9921 11.1239   2
   2 -10 -18 58.4649 11.6757   3
   1 -11 -18 -1.4367 7.92356   3
   1   0  19 29.7275 7.76482   1
   1   0 -19 21.6032 5.42770   2
  -1   0 -19 27.2886 6.67133   2
  -1   0  19 24.2965 6.34076   1
  -3   0 -19 42.8700 8.12996   2
   3   0 -19 36.5059 6.84321   2
   3   0  19 43.1655 9.17516   1
   5   0  19 35.3971 9.82326   1
  -5   0 -19 45.4311 9.07244   2
  -5   0  19 36.7719 10.1487   3
   0   1  19 17.8328 6.53124   1
   0  -1  19 19.6283 5.94535   1
   0   1 -19 21.9113 5.85013   2
   0  -1 -19 18.2146 5.55871   2
  -2   1  19 19.1127 5.34038   1
   2  -1  19 16.1791 6.33632   1
   2   1 -19 14.6596 4.89651   2
  -2  -1 -19 14.6155 5.55085   2
   2   1  19 18.3022 6.67387   1
   2  -1 -19 20.0026 5.48456   2
  -2   1 -19 23.3772 6.45541   2
  -2  -1  19 19.3478 5.49824   1
  -4  -1 -19 11.4024 6.02981   2
   4   1 -19 17.9640 5.37919   2
   4  -1  19 13.5929 7.43236   1
  -4  -1  19 4.43306 5.73507   3
   4  -1 -19 8.87712 5.61700   3
  -4   1 -19 8.61068 5.46162   2
   4   1  19 2.88926 6.26470   1
  -1  -2 -19 197.378 13.8845   2
  -1   2  19 192.527 14.9201   1
   1   2 -19 191.981 13.8876   2
   1  -2  19 215.951 16.1451   1
  -1   2 -19 169.322 13.6279   2
   1   2  19 223.671 16.4163   1
   1  -2 -19 199.787 13.0600   2
  -1  -2  19 203.044 14.5964   1
  -3   2  19 107.155 11.6270   1
   3   2 -19 123.847 11.9485   2
   3  -2  19 111.280 14.1179   1
  -3  -2 -19 103.378 11.9434   2
   3   2  19 141.638 16.1282   1
  -3  -2  19 135.681 14.3111   3
   3  -2 -19 104.396 12.2874   3
  -3   2 -19 102.093 11.8575   2
  -5  -2 -19 44.1975 9.32737   2
   5  -2  19 35.9615 9.84400   1
   5   2 -19 57.7428 8.84919   2
   5  -2 -19 32.1591 8.68109   3
   5   2  19 35.6590 9.98117   1
  -5  -2  19 43.9439 10.9017   3
  -5   2 -19 48.5433 11.0152   2
   0   3 -19 266.800 17.2512   2
   0  -3 -19 274.234 16.6050   2
   0   3  19 282.141 18.7740   1
   0  -3  19 285.755 18.7406   1
   2  -3  19 223.910 17.5638   1
  -2  -3 -19 212.761 15.4706   2
  -2   3  19 225.781 15.7928   1
   2   3 -19 223.571 15.3036   2
  -2   3 -19 230.940 16.4336   2
   2   3  19 224.766 17.1275   1
  -4  -3 -19 101.230 12.4245   2
   4   3 -19 103.561 11.9201   2
   4  -3  19 106.042 15.1414   1
   4   3  19 138.096 15.9264   1
  -4  -3  19 122.576 15.3602   3
  -4   3 -19 102.237 12.0558   2
   4  -3 -19 86.0032 11.7619   3
  -1  -4 -19 6.76898 4.73502   2
  -1   4  19 3.63657 4.91618   1
   1   4 -19 10.1567 5.18672   2
   1  -4  19 0.35822 4.48533   1
  -1   4 -19 2.68458 4.86603   2
  -1  -4  19 2.53752 4.01074   1
   1   4  19 0.88587 4.21112   1
   3  -4  19 8.12054 6.32474   1
   3   4 -19 15.5091 5.75833   2
  -3  -4 -19 18.3405 6.33236   2
  -3   4  19 10.0890 5.38064   1
   3  -4 -19 13.2335 5.79227   3
   3   4  19 8.88256 6.72076   1
  -3   4 -19 5.49494 5.21203   2
   5   4 -19 27.4466 7.45521   2
  -5  -4  19 15.2074 8.13602   3
   5  -4 -19 32.9070 8.79227   3
   5   4  19 36.6610 10.0339   1
   0   5  19 7.22224 5.51235   1
   0  -5  19 25.0880 6.60237   1
   0   5 -19 8.60952 5.18896   2
  -2   5  19 7.57963 4.95900   1
  -2  -5 -19 15.1220 5.70804   2
   2  -5  19 7.85184 5.48861   1
   2   5 -19 5.77518 5.23811   2
   2   5  19 11.5451 6.11010   1
  -2   5 -19 9.63255 5.13590   2
   4  -5  19 0.05672 5.57270   1
  -4  -5 -19 6.14624 6.40811   2
   4   5 -19 5.67334 5.84637   2
  -4   5  19 15.3729 5.68835   1
   4   5  19 5.07290 6.86337   1
  -4   5 -19 5.33739 5.35048   2
   4  -5 -19 4.91952 5.57858   3
  -4  -5  19 8.63010 7.45690   3
   1  -6  19 73.5828 10.9757   1
   1   6 -19 66.4631 9.66024   2
  -1   6  19 49.3282 9.34574   1
  -1   6 -19 54.7325 8.70581   2
   1   6  19 58.2312 10.6711   1
   3  -6  19 43.3158 9.19836   1
   3   6 -19 30.4395 7.34510   2
  -3   6  19 19.5299 6.76520   1
  -3  -6 -19 17.6141 6.88242   2
   3  -6 -19 40.2063 8.20977   3
   3   6  19 35.6511 9.27516   1
  -3   6 -19 24.7472 6.70636   2
   0   7  19 109.195 14.1193   1
   0   7 -19 132.010 13.1087   2
   2   7 -19 50.3003 9.82214   2
   2  -7  19 102.927 13.5878   1
  -2   7  19 88.3217 11.7569   1
  -2   7 -19 111.046 12.5562   2
   2  -7 -19 99.3819 12.5870   3
   2   7  19 74.2913 12.9141   1
  -4  -7 -19 41.3869 9.05761   2
  -4   7  19 47.5663 9.25342   1
   4   7  19 44.1829 10.6304   1
   4  -7 -19 45.2847 9.97079   3
   1  -8  19 -5.0249 4.08349   1
   1   8 -19 9.66183 5.07144   2
  -1   8  19 2.63206 5.23033   1
  -1   8 -19 9.22045 5.11607   2
   1   8  19 -1.6251 5.64194   1
   3   8 -19 12.0927 6.89074   2
   3  -8  19 2.75404 6.26537   1
  -3   8  19 2.89918 5.30153   1
   3   8  19 3.41349 6.95700   1
  -3   8 -19 14.4423 5.84881   2
   3  -8 -19 11.2649 6.45058   3
   0   9  19 12.5482 6.94730   1
   0   9 -19 29.4794 7.28816   2
   2  -9  19 14.1598 6.76881   1
  -2   9  19 10.8570 6.55239   1
   2   9 -19 11.9192 6.41396   2
   2  -9 -19 14.7324 6.50320   3
   2   9  19 0.64155 5.66593   1
  -2   9 -19 15.7133 5.61284   2
   0   0  20 71.3369 10.2632   1
   0   0 -20 84.9683 9.79564   2
  -2   0  20 74.2944 9.62572   1
  -2   0 -20 88.6430 11.0506   2
   2   0  20 93.9552 12.6974   1
   2   0 -20 89.5211 10.0516   2
   4   0 -20 77.2212 11.9783   3
   4   0  20 98.4387 14.0038   1
  -4   0 -20 80.8486 11.6920   2
   1   1 -20 38.8677 7.28451   2
  -1  -1 -20 51.4641 8.27010   2
   1  -1  20 53.4127 9.40588   1
  -1   1  20 60.8325 9.35902   1
  -1  -1  20 55.4662 8.47628   1
   1  -1 -20 41.4400 7.04859   2
  -1   1 -20 44.2441 7.97866   2
   1   1  20 42.6697 8.34823   1
   3  -1  20 43.9274 9.88668   1
   3   1 -20 23.2281 6.31178   2
  -3  -1 -20 22.9707 7.07038   2
  -3   1 -20 39.4995 7.90386   2
   3   1  20 26.7237 8.57674   1
   5  -1 -20 6.71442 6.67029   3
  -5  -1  20 15.3871 7.46377   3
   0   2  20 146.029 14.7769   1
   0  -2  20 175.044 15.9609   1
   0  -2 -20 143.461 11.6851   2
   0   2 -20 136.838 12.9847   2
  -2   2  20 125.106 12.9582   1
  -2  -2 -20 124.355 12.6732   2
   2   2 -20 119.602 11.7867   2
   2  -2  20 105.169 13.6479   1
  -2   2 -20 109.289 12.3845   2
   2   2  20 120.255 13.7911   1
   4   2 -20 56.8004 8.83123   2
   4  -2  20 65.8753 12.0113   1
  -4  -2 -20 57.7496 10.3603   2
   4   2  20 65.1383 12.2454   1
   4  -2 -20 51.1820 9.07540   3
  -4  -2  20 68.3797 11.4852   3
  -4   2 -20 70.6033 11.2671   2
  -1   3  20 13.1600 5.69567   1
   1   3 -20 14.1426 5.62139   2
   1  -3  20 5.01497 5.77258   1
  -1  -3 -20 10.2944 5.30358   2
   1   3  20 7.88486 5.57822   1
  -1   3 -20 8.56206 5.03714   2
  -1  -3  20 8.24266 5.01896   1
  -3   3  20 5.76069 4.71620   1
  -3  -3 -20 6.28916 5.85160   2
   3   3 -20 2.76080 4.81047   2
   3  -3  20 7.49538 6.80256   1
   3   3  20 12.2918 7.69126   1
  -3   3 -20 5.86549 5.36629   2
   5   3 -20 -0.4255 5.14852   2
  -5  -3  20 7.52971 8.24502   3
   0   4  20 199.105 16.0433   1
   0  -4  20 169.538 14.5640   1
   0   4 -20 179.844 14.1874   2
  -2   4  20 170.482 14.2925   1
   2  -4  20 197.146 16.6854   1
  -2  -4 -20 167.023 15.0721   2
   2   4 -20 172.438 13.9688   2
  -2   4 -20 191.427 15.0063   2
   2   4  20 177.425 17.9423   1
  -4  -4 -20 125.590 14.2804   2
   4  -4  20 134.892 16.5072   1
   4   4 -20 129.081 13.5055   2
   4  -4 -20 127.406 14.5364   3
   4   4  20 100.526 14.2317   1
  -4   4 -20 97.2523 12.0445   2
   1  -5  20 116.239 13.3198   1
  -1   5  20 118.130 13.4843   1
   1   5 -20 107.235 12.0366   2
  -1   5 -20 119.589 12.9074   2
   1   5  20 122.972 14.2229   1
   3  -5  20 58.5659 10.5356   1
   3   5 -20 61.9326 9.59586   2
  -3   5  20 91.7879 11.8099   1
  -3  -5 -20 68.4644 11.0289   2
  -3   5 -20 75.5832 11.1334   2
   3   5  20 75.1434 13.0215   1
   3  -5 -20 63.2798 14.7093   3
   0   6 -20 245.427 17.2560   2
   0   6  20 226.413 17.3203   1
   2   6 -20 151.778 14.7502   2
  -2   6  20 155.364 16.0628   1
   2  -6  20 173.900 17.7194   1
  -2   6 -20 150.930 14.6180   2
   2   6  20 184.139 18.7440   1
  -4  -6 -20 79.9703 12.1493   2
  -4   6  20 89.1920 11.8249   1
   4  -6 -20 68.8091 11.2952   3
   1   7 -20 1.96685 5.01694   2
   1  -7  20 1.60478 4.90348   1
  -1   7  20 8.29872 6.03678   1
  -1   7 -20 0.56955 4.08702   2
   1   7  20 10.2662 6.85241   1
   3   7 -20 0.58445 5.17043   2
   3  -7  20 1.91230 6.51597   1
  -3   7  20 3.85940 5.59423   1
   3   7  20 -1.9112 6.09025   1
  -3   7 -20 -3.4424 6.28246   2
   3  -7 -20 8.68543 6.12271   3
   0   8  20 154.203 17.3468   1
   0   8 -20 156.490 15.3107   2
  -2   8  20 166.771 17.3194   1
   2   8 -20 174.600 18.2886   2
   2  -8  20 179.011 17.9303   1
  -2   8 -20 164.700 16.3777   2
   2   8  20 165.966 18.7188   1
  -1   0  21 209.195 15.4955   1
   1   0 -21 225.428 14.9574   2
   1   0  21 242.046 18.0134   1
  -1   0 -21 197.004 15.0252   2
   3   0  21 89.6009 13.3433   1
  -3   0 -21 77.2061 10.8766   2
   0   1  21 9.32796 5.80141   1
   0  -1 -21 4.25305 4.87958   2
   0  -1  21 -0.0790 4.19185   1
   0   1 -21 5.88616 4.09224   2
   2   1 -21 -3.0728 3.77510   2
   2  -1  21 10.0828 5.85166   1
  -2   1  21 7.45646 4.77348   1
  -2  -1 -21 4.14696 4.98931   2
   2   1  21 1.00193 5.37708   1
   2  -1 -21 1.72498 4.41286   2
  -2   1 -21 -0.5366 4.27546   2
  -4  -1 -21 -1.4624 5.54383   2
   4  -1  21 -11.213 5.55759   1
   4   1  21 9.22426 7.36115   1
  -4   1 -21 5.80356 5.43454   2
   1   2 -21 56.9662 8.64867   2
  -1  -2 -21 30.4851 7.40184   2
   1  -2  21 54.3044 9.93247   1
  -1   2  21 34.7824 7.86228   1
  -1   2 -21 33.7576 7.40033   2
  -1  -2  21 34.1742 7.39404   1
   1   2  21 25.3583 7.79861   1
   1  -2 -21 46.8490 7.30432   2
   3   2 -21 22.0559 6.42482   2
  -3  -2 -21 27.0378 7.69026   2
   3  -2  21 16.0798 8.08477   1
   3   2  21 22.8095 8.50125   1
  -3   2 -21 18.6469 6.78232   2
   0  -3 -21 1.14136 3.92064   2
   0   3  21 4.81516 4.79286   1
   0   3 -21 8.23583 5.11120   2
   0  -3  21 -3.0632 4.37965   1
   2  -3  21 5.45155 5.75490   1
   2   3 -21 3.77399 4.72591   2
  -2   3  21 0.36283 3.61748   1
  -2  -3 -21 -0.5634 4.82777   2
  -2   3 -21 -5.7518 4.15706   2
   2   3  21 4.11129 4.84665   1
  -4  -3 -21 1.23334 6.19048   2
   4   3 -21 -2.7687 4.83600   2
  -1   4  21 46.6925 8.82932   1
  -1  -4 -21 43.8986 8.17580   2
   1   4 -21 34.2236 7.54018   2
   1  -4  21 41.4224 9.18796   1
  -1   4 -21 55.4355 9.23415   2
   1   4  21 42.2651 8.55371   1
   3   4 -21 6.63438 5.75116   2
   3  -4  21 17.9500 8.03389   1
  -3  -4 -21 12.9227 5.88847   2
  -3   4  21 18.4746 6.45052   1
   3   4  21 30.6620 8.70787   1
  -3   4 -21 7.47846 4.78680   2
   0   5 -21 0.85066 4.85641   2
   0   5  21 1.61118 5.11616   1
   0  -5  21 -1.3398 4.74560   1
  -2   5  21 -2.4901 4.24684   1
  -2  -5 -21 -6.0151 4.76192   2
   2  -5  21 7.83530 5.97467   1
   2   5 -21 6.88985 5.43846   2
  -2   5 -21 6.29285 4.78161   2
   2   5  21 5.21794 7.29242   1
  -4  -5 -21 -2.0443 6.05145   2
   4  -5 -21 8.22110 8.80380   3
   1  -6  21 235.441 17.7203   1
   1   6 -21 235.620 16.9996   2
  -1   6  21 258.794 18.8218   1
   1   6  21 189.644 19.4416   1
  -1   6 -21 217.639 16.2125   2
  -3   6  21 123.030 14.4572   1
   0   7  21 -2.1693 4.97389   1
   0   7 -21 6.64821 4.82897   2
   2   7 -21 -0.5186 6.76279   2
   2  -7  21 -0.4709 5.26396   1
  -2   7  21 -0.8947 5.14922   1
   2   7  21 5.56810 6.19770   1
   0   0 -22 45.8031 7.80864   2
   0   0  22 37.9052 8.40344   1
  -2   0  22 40.1347 12.2098   1
  -2   0 -22 55.6370 9.35437   2
   2   0  22 40.0943 9.71381   1
   2   0 -22 53.0581 8.26448   2
  -1   1  22 24.3434 6.53243   1
  -1  -1 -22 31.6359 7.19725   2
   1   1 -22 18.3836 6.12250   2
   1  -1  22 17.9637 6.59540   1
  -1  -1  22 18.1845 5.74210   1
  -1   1 -22 21.6249 6.73162   2
   1   1  22 27.9503 7.81175   1
   1  -1 -22 26.7432 6.16433   2
  -3  -1 -22 24.9251 7.56990   2
   3   1 -22 19.5802 6.15898   2
   3  -1  22 15.3132 8.02971   1
  -3   1 -22 6.84101 5.60343   2
   3   1  22 19.1247 7.14809   1
   0  -2  22 137.126 14.7624   1
   0   2  22 140.864 15.3752   1
   0   2 -22 140.785 13.7331   2
   0  -2 -22 136.879 12.8550   2
  -2  -2 -22 103.949 11.7746   2
   2  -2  22 119.552 14.6357   1
   2   2 -22 113.095 11.8987   2
  -2   2  22 110.821 12.7034   1
   2   2  22 97.5643 13.6174   1
  -2   2 -22 120.705 13.6672   2
   1   3 -22 17.4408 6.42498   2
   1  -3  22 18.9195 6.60639   1
  -1  -3 -22 21.5717 6.62184   2
  -1   3  22 24.1334 6.92029   1
   1   3  22 36.6799 8.35136   1
  -1   3 -22 11.0841 5.68261   2
   3   3 -22 12.2176 6.31284   2
  -3   3  22 11.9829 5.71511   1
  -3  -3 -22 16.9573 7.18879   2
   3  -3  22 13.1522 7.36598   1
  -3   3 -22 1.57022 6.82667   2
   3   3  22 9.58442 8.02281   1
   0   4  22 73.6543 11.2423   1
   0   4 -22 64.8238 10.0904   2
   0  -4  22 67.1570 10.4160   1
  -2  -4 -22 78.0068 10.6202   2
   2  -4  22 59.6485 11.2561   1
  -2   4  22 46.3256 8.81595   1
   2   4 -22 51.5151 9.11231   2
  -2   4 -22 70.7067 10.9695   2
   2   4  22 62.0512 11.2229   1
   1  -5  22 65.8970 10.8427   1
   1   5 -22 68.7170 10.7202   2
  -1   5  22 62.5853 10.4034   1
   1   5  22 52.5733 10.8930   1
  -1   5 -22 54.0207 9.89047   2
  -3   5  22 32.5203 8.13279   1
  -3  -5 -22 37.2174 8.70597   2
   0   6  22 143.716 16.1851   1
   0   6 -22 172.372 16.2601   2
   2  -6  22 125.638 15.6962   1
  -2   6  22 110.582 19.4470   1
   1   0  23 35.2032 8.76148   1
  -1   0  23 15.7965 5.41958   1
   1   0 -23 22.0073 6.21009   2
  -1   0 -23 24.3063 6.99808   2
   0   1  23 8.06716 5.23010   1
   0  -1 -23 14.5233 5.84870   2
   0   1 -23 12.8335 5.87409   2
   0  -1  23 28.7201 7.01141   1
   2  -1  23 14.2836 7.40158   1
  -2   1  23 3.23079 4.66445   1
   2   1 -23 15.2622 5.78326   2
  -2  -1 -23 26.0267 7.03802   2
  -2   1 -23 15.4659 6.89216   2
   2   1  23 -3.7149 4.64764   1
   1  -2  23 49.2238 9.54364   1
  -1  -2 -23 39.7249 7.97724   2
   1   2 -23 56.3596 9.15297   2
  -1   2  23 55.6557 9.58653   1
  -1   2 -23 53.5860 9.46473   2
   1   2  23 50.5523 9.98318   1
   3   2 -23 35.1895 7.61266   2
  -3  -2 -23 34.2781 8.73552   2
   0  -3  23 121.654 14.1231   1
   0   3  23 109.432 13.8758   1
   0   3 -23 142.551 14.2914   2
  -2   3  23 77.3801 11.5985   1
   2   3 -23 109.018 12.5607   2
  -2  -3 -23 86.9222 11.3062   2
   2  -3  23 75.3992 12.4133   1
  -2   3 -23 79.9174 11.6499   2
  -1   4  23 4.85698 5.42616   1
   1   4 -23 17.6316 6.34592   2
   1  -4  23 5.44603 5.91393   1
   1   4  23 22.8777 7.84050   1
  -1   4 -23 10.9469 5.85696   2
  -3  -4 -23 21.0524 8.46571   2
   0   5 -23 1.09995 5.13114   2
   1  -6  23 18.2601 7.62831   1
   0   0  24 154.266 16.2497   1
   0   0 -24 129.190 13.7067   2
  -2   0 -24 113.951 14.2878   2
   1   1 -24 2.11450 4.56789   2
   1  -1  24 -8.4550 4.09854   1
  -1   1  24 9.96019 5.91435   1
  -1  -1 -24 -5.9837 4.88900   2
  -1  -1  24 8.39229 5.29555   1
   1   1  24 -2.2089 4.78882   1
  -1   1 -24 3.65703 4.63141   2
   0   2 -24 391.520 22.3836   2
   0   2  24 351.399 22.7842   1
   0  -2  24 347.012 22.6191   1
   2   2 -24 301.262 19.6544   2
  -2   2  24 300.798 19.8983   1
  -2  -2 -24 318.505 20.1640   2
   1  -3  24 -0.7098 5.74624   1
   1   3 -24 2.24224 5.07709   2
  -1   3  24 0.68721 5.45839   1
   1   0 -25 32.7053 8.97193   2
  -1   0  25 28.4015 9.26795   1
   0  -1 -25 17.8654 6.40354   2
   0   1 -25 -3.0361 7.46959   2
  -1  -2 -25 37.4427 9.15676   2
   0   0   0    0.00    0.00   0

 _exptl_absorpt_process_details 'SADABS 2014/5'
 _exptl_absorpt_correction_type   multi-scan
 _exptl_absorpt_correction_T_max  0.3400
 _exptl_absorpt_correction_T_min  0.1656
 _exptl_special_details
)
 The following wavelength and cell were deduced by SADABS from the
 direction cosines etc. They are given here for emergency use only:
 CELL 0.71073    6.017   11.546   17.355   89.999   90.007   89.966
)
;
_shelx_hkl_checksum              20386
_olex2_submission_special_instructions 'No special instructions were received'
loop_
_space_group_symop_operation_xyz
'x, y, z'
'-x, -y+1/2, z'
'x, -y, -z'
'-x, y+1/2, -z'
'x+1/2, y+1/2, z+1/2'
'-x+1/2, -y+1, z+1/2'
'x+1/2, -y+1/2, -z+1/2'
'-x+1/2, y+1, -z+1/2'
'-x, -y, -z'
'x, y-1/2, -z'
'-x, y, z'
'x, -y-1/2, z'
'-x+1/2, -y+1/2, -z+1/2'
'x+1/2, y, -z+1/2'
'-x+1/2, y+1/2, z+1/2'
'x+1/2, -y, z+1/2'
loop_
_atom_site_label
_atom_site_type_symbol
_atom_site_fract_x
_atom_site_fract_y
_atom_site_fract_z
_atom_site_U_iso_or_equiv
_atom_site_adp_type
_atom_site_occupancy
_atom_site_site_symmetry_order
_atom_site_calc_flag
_atom_site_refinement_flags_posn
_atom_site_refinement_flags_adp
_atom_site_refinement_flags_occupancy
Cs1 Cs 0.0000 0.7500 0.35611(2) 0.04059(13) Uani 1 4 d S T P
Sn1 Sn 0.5000 0.5000 0.5000 0.01998(10) Uani 1 4 d S T P
Br1 Br 0.5000 0.44553(4) 0.66707(2) 0.03745(13) Uani 1 2 d S T P
Br2 Br 0.0000 0.5000 0.5000 0.04441(17) Uani 1 4 d S T P
Br3A Br 0.5000 0.2500 0.4781(9) 0.048(5) Uani 0.56(10) 4 d S T P
Br3B Br 0.554(5) 0.2500 0.4698(12) 0.0448(14) Uani 0.22(5) 2 d S T P
N1 N 1.0000 0.2500 0.2165(3) 0.0380(10) Uani 1 4 d S T P
H1A H 1.0000 0.1847 0.1914 0.046 Uiso 0.5 2 calc RS T P
H1B H 1.0000 0.3153 0.1914 0.046 Uiso 0.5 2 calc RS T P
N2 N 1.0000 0.3497(4) 0.3285(2) 0.0502(10) Uani 1 2 d S T P
H2A H 1.0000 0.3515 0.3786 0.060 Uiso 1 2 calc RS T P
H2B H 1.0000 0.4141 0.3023 0.060 Uiso 1 2 calc RS T P
C1 C 1.0000 0.2500 0.2923(3) 0.0251(9) Uani 1 4 d S T P
loop_
_atom_site_aniso_label
_atom_site_aniso_U_11
_atom_site_aniso_U_22
_atom_site_aniso_U_33
_atom_site_aniso_U_23
_atom_site_aniso_U_13
_atom_site_aniso_U_12
Cs1 0.0401(2) 0.0344(2) 0.0473(2) 0.000 0.000 0.000
Sn1 0.01913(16) 0.01761(15) 0.02320(17) -0.00133(11) 0.000 0.000
Br1 0.0424(3) 0.0371(2) 0.0329(2) -0.00420(15) 0.000 0.000
Br2 0.0448(4) 0.0585(4) 0.0300(3) -0.0046(3) 0.000 0.000
Br3A 0.089(15) 0.0299(14) 0.026(2) 0.000 0.000 0.000
Br3B 0.067(4) 0.038(2) 0.029(3) 0.000 0.010(3) 0.000
N1 0.030(2) 0.057(3) 0.027(2) 0.000 0.000 0.000
N2 0.048(2) 0.049(2) 0.054(2) -0.0234(17) 0.000 0.000
C1 0.020(2) 0.031(2) 0.024(2) 0.000 0.000 0.000
loop_
_atom_type_symbol
_atom_type_description
_atom_type_scat_dispersion_real
_atom_type_scat_dispersion_imag
_atom_type_scat_source
C C 0.0033 0.0016 'International Tables Vol C Tables 4.2.6.8 and 6.1.1.4'
H H 0.0000 0.0000 'International Tables Vol C Tables 4.2.6.8 and 6.1.1.4'
Br Br -0.2901 2.4595 'International Tables Vol C Tables 4.2.6.8 and 6.1.1.4'
Cs Cs -0.3680 2.1192 'International Tables Vol C Tables 4.2.6.8 and 6.1.1.4'
N N 0.0061 0.0033 'International Tables Vol C Tables 4.2.6.8 and 6.1.1.4'
Sn Sn -0.6537 1.4246 'International Tables Vol C Tables 4.2.6.8 and 6.1.1.4'
loop_
_geom_angle_atom_site_label_1
_geom_angle_atom_site_label_2
_geom_angle_atom_site_label_3
_geom_angle
_geom_angle_site_symmetry_1
_geom_angle_site_symmetry_3
Br1 Cs1 Br1 167.792(18) 9_566 10_566
Br1 Cs1 Br1 73.288(16) 10_566 9_666
Br1 Cs1 Br1 104.519(12) 10_566 6_554
Br1 Cs1 Br1 64.791(10) 9_666 6_554
Br1 Cs1 Br1 105.364(16) 10_566 10_466
Br1 Cs1 Br1 64.791(10) 9_566 6_554
Br1 Cs1 Br1 73.288(16) 9_566 10_466
Br1 Cs1 Br1 104.519(12) 10_466 6_554
Br1 Cs1 Br1 104.519(12) 9_566 5_454
Br1 Cs1 Br1 167.792(18) 10_466 9_666
Br1 Cs1 Br1 69.060(17) 6_554 5_454
Br1 Cs1 Br1 64.791(10) 10_466 5_454
Br1 Cs1 Br1 64.791(10) 10_566 5_454
Br1 Cs1 Br1 105.364(16) 9_566 9_666
Br1 Cs1 Br1 104.519(12) 9_666 5_454
Br1 Cs1 Br2 67.556(9) 10_566 2_565
Br1 Cs1 Br2 121.395(10) 9_666 2_565
Br1 Cs1 Br2 67.556(9) 10_466 2_565
Br1 Cs1 Br2 121.395(10) 10_466 .
Br1 Cs1 Br2 67.556(9) 9_666 .
Br1 Cs1 Br2 67.556(9) 9_566 .
Br1 Cs1 Br2 121.395(10) 10_566 .
Br1 Cs1 Br2 121.395(10) 9_566 2_565
Br1 Cs1 Br3A 59.92(12) 10_466 9_566
Br1 Cs1 Br3A 59.92(12) 9_666 9_666
Br1 Cs1 Br3A 124.71(12) 6_554 9_566
Br1 Cs1 Br3A 124.71(12) 5_454 9_566
Br1 Cs1 Br3A 59.92(12) 10_566 9_666
Br1 Cs1 Br3A 59.92(12) 9_566 9_566
Br1 Cs1 Br3A 130.41(10) 9_666 9_566
Br1 Cs1 Br3A 130.41(10) 10_566 9_566
Br1 Cs1 Br3A 124.71(12) 6_554 9_666
Br1 Cs1 Br3A 130.41(10) 9_566 9_666
Br1 Cs1 Br3A 124.71(12) 5_454 9_666
Br1 Cs1 Br3A 130.41(10) 10_466 9_666
Br1 Cs1 Br3B 127.4(2) 10_466 9_666
Br1 Cs1 Br3B 128.0(2) 6_554 9_666
Br1 Cs1 Br3B 127.4(2) 9_566 9_666
Br1 Cs1 Br3B 63.4(3) 9_566 10_466
Br1 Cs1 Br3B 127.4(2) 9_666 10_466
Br1 Cs1 Br3B 128.0(2) 5_454 10_466
Br1 Cs1 Br3B 63.4(3) 10_466 10_466
Br1 Cs1 Br3B 127.4(2) 10_566 10_466
Br1 Cs1 Br3B 128.0(2) 6_554 10_466
Br1 Cs1 Br3B 63.4(3) 9_666 9_666
Br1 Cs1 Br3B 63.4(3) 10_566 9_666
Br1 Cs1 Br3B 128.0(2) 5_454 9_666
Br2 Cs1 Br1 96.336(13) 2_565 5_454
Br2 Cs1 Br1 96.336(14) . 6_554
Br2 Cs1 Br1 165.397(10) . 5_454
Br2 Cs1 Br1 165.397(10) 2_565 6_554
Br2 Cs1 Br2 98.267(16) 2_565 .
Br2 Cs1 Br3A 63.11(9) 2_565 9_566
Br2 Cs1 Br3A 63.11(9) 2_565 9_666
Br2 Cs1 Br3A 63.11(9) . 9_566
Br2 Cs1 Br3A 63.11(9) . 9_666
Br2 Cs1 Br3B 60.71(17) . 9_666
Br2 Cs1 Br3B 60.71(17) . 10_466
Br2 Cs1 Br3B 60.71(17) 2_565 9_666
Br2 Cs1 Br3B 60.71(17) 2_565 10_466
Br3A Cs1 Br3A 92.5(3) 9_666 9_566
Br3B Cs1 Br3A 87.9(5) 10_466 9_666
Br3B Cs1 Br3A 4.7(2) 10_466 9_566
Br3B Cs1 Br3A 4.7(2) 9_666 9_666
Br3B Cs1 Br3A 87.9(5) 9_666 9_566
Br3B Cs1 Br3B 83.2(7) 9_666 10_466
Br1 Sn1 Br1 180.0 9_666 .
Br1 Sn1 Br2 90.0 9_666 1_655
Br1 Sn1 Br2 90.0 . .
Br1 Sn1 Br2 90.0 . 1_655
Br1 Sn1 Br2 90.0 9_666 .
Br2 Sn1 Br2 180.0 . 1_655
Br3A Sn1 Br1 94.7(3) 9_666 .
Br3A Sn1 Br1 85.3(3) 9_666 9_666
Br3A Sn1 Br1 85.3(3) . .
Br3A Sn1 Br1 94.7(3) . 9_666
Br3A Sn1 Br2 90.000(1) 9_666 .
Br3A Sn1 Br2 90.000(1) . .
Br3A Sn1 Br2 90.000(1) 9_666 1_655
Br3A Sn1 Br2 90.000(1) . 1_655
Br3A Sn1 Br3A 180.0 9_666 .
Br3A Sn1 Br3B 173.1(4) . 9_666
Br3A Sn1 Br3B 173.1(4) 9_666 .
Br3A Sn1 Br3B 173.1(4) . 10_566
Br3A Sn1 Br3B 6.9(4) . 2_655
Br3A Sn1 Br3B 173.1(4) 9_666 2_655
Br3A Sn1 Br3B 6.9(4) . .
Br3A Sn1 Br3B 6.9(4) 9_666 9_666
Br3A Sn1 Br3B 6.9(4) 9_666 10_566
Br3B Sn1 Br1 88.1(4) 10_566 9_666
Br3B Sn1 Br1 88.1(4) 2_655 .
Br3B Sn1 Br1 91.9(4) 10_566 .
Br3B Sn1 Br1 91.9(4) 2_655 9_666
Br3B Sn1 Br1 88.1(4) . .
Br3B Sn1 Br1 91.9(4) 9_666 .
Br3B Sn1 Br1 91.9(4) . 9_666
Br3B Sn1 Br1 88.1(4) 9_666 9_666
Br3B Sn1 Br2 83.7(6) . 1_655
Br3B Sn1 Br2 96.3(6) 2_655 1_655
Br3B Sn1 Br2 83.7(6) 10_566 1_655
Br3B Sn1 Br2 83.7(6) 9_666 .
Br3B Sn1 Br2 96.3(6) 9_666 1_655
Br3B Sn1 Br2 96.3(6) . .
Br3B Sn1 Br2 83.7(6) 2_655 .
Br3B Sn1 Br2 96.3(6) 10_566 .
Br3B Sn1 Br3B 167.3(11) . 10_566
Br3B Sn1 Br3B 180.0 . 9_666
Br3B Sn1 Br3B 12.7(11) . 2_655
Br3B Sn1 Br3B 167.3(11) 2_655 9_666
Br3B Sn1 Br3B 12.7(11) 10_566 9_666
Br3B Sn1 Br3B 180.0 10_566 2_655
Cs1 Br1 Cs1 105.363(16) 9_566 9_666
Cs1 Br1 Cs1 75.480(12) 9_566 5_545
Cs1 Br1 Cs1 75.480(12) 9_666 5_545
Sn1 Br1 Cs1 157.707(14) . 5_545
Sn1 Br1 Cs1 91.294(10) . 9_666
Sn1 Br1 Cs1 91.294(10) . 9_566
Cs1 Br2 Cs1 180.0 . 9_566
Sn1 Br2 Cs1 90.0 . .
Sn1 Br2 Cs1 90.0 . 9_566
Sn1 Br2 Cs1 90.0 1_455 9_566
Sn1 Br2 Cs1 90.0 1_455 .
Sn1 Br2 Sn1 180.0 1_455 .
Cs1 Br3A Cs1 92.5(3) 9_666 9_566
Sn1 Br3A Cs1 84.8(2) . 9_566
Sn1 Br3A Cs1 84.8(2) . 9_666
Sn1 Br3A Cs1 84.8(2) 2_655 9_666
Sn1 Br3A Cs1 84.8(2) 2_655 9_566
Sn1 Br3A Sn1 165.0(6) . 2_655
Br3B Br3A Cs1 68(5) 2_655 9_566
Br3B Br3A Cs1 160(5) 2_655 9_666
Br3B Br3A Sn1 93.0(5) 2_655 .
Br3B Br3A Sn1 93.0(5) 2_655 2_655
Sn1 Br3B Cs1 86.6(5) 2_655 9_666
Sn1 Br3B Cs1 86.6(5) . 9_666
Sn1 Br3B Sn1 155.9(9) . 2_655
Br3B Br3B Cs1 131.6(3) 2_655 9_666
Br3B Br3B Sn1 83.7(5) 2_655 .
Br3B Br3B Sn1 83.7(6) 2_655 2_655
H1A N1 H1B 120.0 . .
C1 N1 H1A 120.0 . .
C1 N1 H1B 120.0 . .
H2A N2 H2B 120.0 . .
C1 N2 H2A 120.0 . .
C1 N2 H2B 120.0 . .
N2 C1 N1 118.6(3) 2_755 .
N2 C1 N1 118.6(3) . .
N2 C1 N2 122.8(5) 2_755 .
loop_
_geom_bond_atom_site_label_1
_geom_bond_atom_site_label_2
_geom_bond_distance
_geom_bond_site_symmetry_2
Cs1 Br1 3.7793(5) 9_566
Cs1 Br1 3.7793(5) 9_666
Cs1 Br1 3.9793(7) 6_554
Cs1 Br1 3.7793(5) 10_466
Cs1 Br1 3.7793(5) 10_566
Cs1 Br1 3.9793(7) 5_454
Cs1 Br2 3.8137(5) 2_565
Cs1 Br2 3.8137(5) .
Cs1 Br3A 4.159(11) 9_566
Cs1 Br3A 4.159(11) 9_666
Cs1 Br3B 4.04(3) 9_666
Cs1 Br3B 4.04(3) 10_466
Sn1 Br1 2.9646(6) .
Sn1 Br1 2.9646(6) 9_666
Sn1 Br2 3.0056(5) 1_655
Sn1 Br2 3.0056(5) .
Sn1 Br3A 2.909(2) 9_666
Sn1 Br3A 2.909(2) .
Sn1 Br3B 2.949(5) 2_655
Sn1 Br3B 2.949(5) 10_566
Sn1 Br3B 2.949(5) .
Sn1 Br3B 2.949(5) 9_666
Br1 Cs1 3.9793(7) 5_545
Br1 Cs1 3.7793(5) 9_566
Br1 Cs1 3.7793(5) 9_666
Br2 Cs1 3.8137(5) 9_566
Br2 Sn1 3.0056(5) 1_455
Br3A Cs1 4.159(11) 9_666
Br3A Cs1 4.159(11) 9_566
Br3A Sn1 2.909(2) 2_655
Br3A Br3B 0.36(2) 2_655
Br3B Cs1 4.04(3) 9_666
Br3B Sn1 2.949(5) 2_655
Br3B Br3B 0.65(6) 2_655
N1 H1A 0.8700 .
N1 H1B 0.8700 .
N1 C1 1.315(6) .
N2 H2A 0.8700 .
N2 H2B 0.8700 .
N2 C1 1.310(4) .
C1 N2 1.310(4) 2_755
