#------------------------------------------------------------------------------
#$Date: 2019-10-29 22:55:53 +0200 (Tue, 29 Oct 2019) $
#$Revision: 220380 $
#$URL: file:///home/coder/svn-repositories/cod/cif/4/00/29/4002956.cif $
#------------------------------------------------------------------------------
#
# This file is available in the Crystallography Open Database (COD),
# http://www.crystallography.net/
#
# All data on this site have been placed in the public domain by the
# contributors.
#
data_4002956
loop_
_publ_author_name
'Wang, Kunlin'
'Mishra, Manish Kumar'
'Sun, Changquan Calvin'
_publ_section_title
;
 Exceptionally Elastic Single-Component Pharmaceutical Crystals
;
_journal_issue                   5
_journal_name_full               'Chemistry of Materials'
_journal_page_first              1794
_journal_paper_doi               10.1021/acs.chemmater.9b00040
_journal_volume                  31
_journal_year                    2019
_chemical_formula_moiety         'C17 H14 F3 N3 O2 S'
_chemical_formula_sum            'C17 H14 F3 N3 O2 S'
_chemical_formula_weight         381.37
_chemical_melting_point          435.15
_chemical_name_common            Celecixib
_chemical_name_systematic
4-[5-(4-methylphenyl)-3-(trifluoromethyl)pyrazol-1-yl]benzenesulfonamide
_space_group_crystal_system      triclinic
_space_group_IT_number           2
_space_group_name_Hall           '-P 1'
_space_group_name_H-M_alt        'P -1'
_symmetry_space_group_name_Hall  '-P 1'
_symmetry_space_group_name_H-M   'P -1'
_atom_sites_solution_hydrogens   mixed
_audit_creation_method           SHELXL-2014/7
_cell_angle_alpha                89.874(4)
_cell_angle_beta                 85.867(3)
_cell_angle_gamma                80.530(4)
_cell_formula_units_Z            2
_cell_length_a                   5.0627(5)
_cell_length_b                   10.0139(11)
_cell_length_c                   16.3981(17)
_cell_measurement_reflns_used    5244
_cell_measurement_temperature    100(2)
_cell_measurement_theta_max      27.57
_cell_measurement_theta_min      2.4
_cell_volume                     817.84(15)
_computing_cell_refinement       'SAINT, Bruker'
_computing_data_collection       'SMART, Bruker'
_computing_data_reduction        'SAINT, Bruker'
_computing_molecular_graphics    'SHELXTL, Bruker'
_computing_structure_refinement  'SHELXL-2014/7 (Sheldrick, 2014)'
_diffrn_ambient_temperature      100(2)
_diffrn_measured_fraction_theta_full 0.998
_diffrn_measured_fraction_theta_max 0.994
_diffrn_measurement_device_type  'Bruker SMART Platform CCD'
_diffrn_measurement_method       'area detector, omega scans per phi'
_diffrn_radiation_type           MoK\a
_diffrn_radiation_wavelength     0.71073
_diffrn_reflns_av_R_equivalents  0.0434
_diffrn_reflns_av_unetI/netI     0.0448
_diffrn_reflns_Laue_measured_fraction_full 0.998
_diffrn_reflns_Laue_measured_fraction_max 0.994
_diffrn_reflns_limit_h_max       6
_diffrn_reflns_limit_h_min       -6
_diffrn_reflns_limit_k_max       12
_diffrn_reflns_limit_k_min       -13
_diffrn_reflns_limit_l_max       21
_diffrn_reflns_limit_l_min       -21
_diffrn_reflns_number            13299
_diffrn_reflns_point_group_measured_fraction_full 0.998
_diffrn_reflns_point_group_measured_fraction_max 0.994
_diffrn_reflns_theta_full        25.242
_diffrn_reflns_theta_max         27.571
_diffrn_reflns_theta_min         2.398
_diffrn_source                   fine
_exptl_absorpt_coefficient_mu    0.248
_exptl_absorpt_correction_type   multi-scan
_exptl_absorpt_process_details   'SADABS, R. Blessing 1995'
_exptl_crystal_colour            colorless
_exptl_crystal_density_diffrn    1.549
_exptl_crystal_description       needle
_exptl_crystal_F_000             392
_exptl_crystal_size_max          0.412
_exptl_crystal_size_mid          0.070
_exptl_crystal_size_min          0.050
_exptl_transmission_factor_max   0.7456
_exptl_transmission_factor_min   0.6953
_refine_diff_density_max         0.342
_refine_diff_density_min         -0.412
_refine_diff_density_rms         0.063
_refine_ls_extinction_method     none
_refine_ls_goodness_of_fit_ref   1.100
_refine_ls_hydrogen_treatment    mixed
_refine_ls_matrix_type           full
_refine_ls_number_parameters     280
_refine_ls_number_reflns         3755
_refine_ls_number_restraints     0
_refine_ls_restrained_S_all      1.100
_refine_ls_R_factor_all          0.0588
_refine_ls_R_factor_gt           0.0409
_refine_ls_shift/su_max          0.000
_refine_ls_shift/su_mean         0.000
_refine_ls_structure_factor_coef Fsqd
_refine_ls_weighting_details
'w=1/[\s^2^(Fo^2^)+(0.0204P)^2^+0.7700P] where P=(Fo^2^+2Fc^2^)/3'
_refine_ls_weighting_scheme      calc
_refine_ls_wR_factor_gt          0.0834
_refine_ls_wR_factor_ref         0.0911
_reflns_Friedel_coverage         0.000
_reflns_number_gt                3006
_reflns_number_total             3755
_reflns_threshold_expression     'I > 2\s(I)'
_cod_data_source_file            cm9b00040_si_001.cif
_cod_data_source_block           CEL_III_a
_cod_depositor_comments
;
The following automatic conversions were performed:

'_chemical_melting_point' value '162C' was changed to '435.15' - it
was converted from degrees Celsius(C) to Kelvins(K).

Automatic conversion script
Id: cif_fix_values 4973 2017-02-22 13:04:09Z antanas 
;
_cod_database_code               4002956
_shelx_shelxl_version_number     2014/7
_shelx_space_group_comment
;
The symmetry employed for this shelxl refinement is uniquely defined
by the following loop, which should always be used as a source of
symmetry information in preference to the above space-group names.
They are only intended as comments.
;
_shelx_estimated_absorpt_t_min   0.905
_shelx_estimated_absorpt_t_max   0.988
_shelx_res_file
;

    CEL_III_a.res created by SHELXL-2014/7


TITL CEL_III_a.res in P-1
REM Old TITL CEL_III in P-1
REM SHELXT solution in P-1
REM R1 0.101,  Rweak 0.006,  Alpha 0.037,  Orientation as input
REM Formula found by SHELXT:  C17 F4 N2 O2 S
CELL  0.71073   5.0627  10.0139  16.3981   89.874   85.867   80.530
ZERR    2.000   0.0005   0.0011   0.0017    0.004    0.003    0.004
LATT  1
SFAC C H F N O S
UNIT 34 28 6 6 4 2
TEMP -173.160
SIZE 0.05 0.07 0.412
L.S. 10
BOND $H
LIST 6
FMAP 2
PLAN 5

ACTA
CONF
LIST 4

EQIV $1 x-1, y, z
HTAB N3 O2_$1
EQIV $2 -x, -y+1, -z+2
HTAB C3 F2_$2
EQIV $3 -x+1, -y+1, -z+1
HTAB N3 N1_$3
EQIV $4 -x+1, -y, -z+1
HTAB C14 O1_$4

WGHT    0.020400    0.770000
FVAR       1.07178
S1    6    0.878702    0.172333    0.407780    11.00000    0.01295    0.01630 =
         0.01244   -0.00108    0.00053   -0.00162
O1    5    0.855134    0.031818    0.408102    11.00000    0.02658    0.01374 =
         0.01680   -0.00095    0.00101   -0.00093
F1    3   -0.243731    0.638738    0.795164    11.00000    0.02130    0.02813 =
         0.02466   -0.00347   -0.00577    0.00531
N1    4    0.237700    0.490176    0.740960    11.00000    0.01492    0.01102 =
         0.01701    0.00025   -0.00120    0.00007
C1    1   -0.052719    0.618548    0.848191    11.00000    0.01915    0.01569 =
         0.01609   -0.00046    0.00001   -0.00289
N2    4    0.453525    0.389095    0.737663    11.00000    0.01535    0.01231 =
         0.01108    0.00021   -0.00052    0.00077
O2    5    1.136791    0.212482    0.390834    11.00000    0.01290    0.03236 =
         0.02012   -0.00438    0.00226   -0.00603
F2    3   -0.171494    0.588265    0.920282    11.00000    0.02738    0.02915 =
         0.01989    0.00135    0.00888    0.00298
C2    1    0.172450    0.509869    0.820701    11.00000    0.01542    0.01310 =
         0.01490   -0.00008    0.00075   -0.00253
N3    4    0.688484    0.244863    0.341133    11.00000    0.01447    0.01803 =
         0.01539    0.00331   -0.00140   -0.00277
H3A   2    0.526194    0.231856    0.347194    11.00000    0.02464
H3    2    0.331112    0.416903    0.926374    11.00000    0.01987
C3    1    0.341422    0.424024    0.868430    11.00000    0.01928    0.01587 =
         0.01244    0.00143   -0.00005   -0.00271
F3    3    0.026832    0.737419    0.859071    11.00000    0.02684    0.01513 =
         0.04415   -0.00894    0.00432   -0.00289
C4    1    0.523263    0.345544    0.813642    11.00000    0.01667    0.01341 =
         0.01246    0.00104    0.00008   -0.00339
H4B   2    0.716644    0.329207    0.330204    11.00000    0.02963
C5    1    0.751510    0.240481    0.831205    11.00000    0.01576    0.01365 =
         0.01286    0.00193   -0.00024   -0.00232
C6    1    0.883646    0.144072    0.774935    11.00000    0.02297    0.01772 =
         0.01388    0.00061   -0.00135   -0.00161
H6    2    0.833118    0.140851    0.721218    11.00000    0.02057
C7    1    1.099484    0.049124    0.796305    11.00000    0.01969    0.01633 =
         0.01631   -0.00166    0.00092    0.00057
H7    2    1.188046   -0.018449    0.755773    11.00000    0.01845
C8    1    1.190415    0.046515    0.874351    11.00000    0.01635    0.01365 =
         0.01844    0.00223   -0.00129   -0.00399
C9    1    1.055009    0.141584    0.931036    11.00000    0.02162    0.01753 =
         0.01496   -0.00001   -0.00474   -0.00306
H9    2    1.118277    0.142716    0.985812    11.00000    0.01717
C10   1    0.841716    0.237138    0.910504    11.00000    0.02061    0.01456 =
         0.01692   -0.00024   -0.00051   -0.00100
H10   2    0.756303    0.307698    0.952423    11.00000    0.01757
C11   1    1.428981   -0.055160    0.895455    11.00000    0.01821    0.01734 =
         0.02164    0.00077   -0.00270    0.00013
AFIX 137
H11A  2    1.583599   -0.009123    0.900504    11.00000   -1.50000
H11B  2    1.471869   -0.124274    0.852172    11.00000   -1.50000
H11C  2    1.386678   -0.098229    0.947417    11.00000   -1.50000
AFIX   0
C12   1    0.558224    0.338644    0.657574    11.00000    0.01591    0.01299 =
         0.01115    0.00001   -0.00103    0.00173
C13   1    0.446940    0.236123    0.623618    11.00000    0.01544    0.01596 =
         0.01387    0.00147    0.00164   -0.00289
H13   2    0.308153    0.200595    0.654730    11.00000    0.01737
C14   1    0.545365    0.184997    0.546986    11.00000    0.01774    0.01526 =
         0.01635    0.00014   -0.00230   -0.00420
H14   2    0.469349    0.113334    0.523718    11.00000    0.01764
C15   1    0.752150    0.239501    0.505768    11.00000    0.01355    0.01483 =
         0.01157    0.00078   -0.00159    0.00082
C17   1    0.761943    0.394435    0.616426    11.00000    0.01976    0.01551 =
         0.01622   -0.00120   -0.00149   -0.00488
H17   2    0.832699    0.463174    0.643077    11.00000    0.02134
C16   1    0.860327    0.343613    0.539410    11.00000    0.01625    0.01759 =
         0.01776    0.00037    0.00127   -0.00583
H16   2    1.000180    0.377238    0.509242    11.00000    0.02173
HKLF 4

REM  CEL_III_a.res in P-1
REM R1 =  0.0409 for    3006 Fo > 4sig(Fo)  and  0.0588 for all    3755 data
REM    280 parameters refined using      0 restraints

END

WGHT      0.0204      0.7700

REM Highest difference peak  0.342,  deepest hole -0.412,  1-sigma level  0.063
Q1    1   0.7753  0.2214  0.4668  11.00000  0.05    0.34
Q2    1   0.6794  0.2046  0.5299  11.00000  0.05    0.33
Q3    1   0.8552  0.2153  0.7977  11.00000  0.05    0.28
Q4    1   0.0857  0.5636  0.8348  11.00000  0.05    0.28
Q5    1   0.6945  0.2559  0.3928  11.00000  0.05    0.28
;
_shelx_res_checksum              15553
_shelx_hkl_file
;
  -1   0   0 2335.97   65.29
  -1   0   0 2164.88   62.69
  -1   0   0 2221.48   66.99
   1   0   0 2220.98   66.99
   1   0   0 2418.86   65.49
  -2   0   0  256.37   16.00
  -2   0   0  251.87   10.00
  -2   0   0  269.77   13.90
   2   0   0  244.08   13.70
   2   0   0  275.17   16.40
  -3   0   0 3030.40   96.59
  -3   0   0 3248.58  103.49
  -3   0   0 3352.36   97.69
  -3   0   0 3015.40   88.59
   3   0   0 3151.98  102.99
   3   0   0 3211.48   97.79
  -4   0   0   71.19   11.20
  -4   0   0   57.59   13.50
  -4   0   0   66.59   10.60
   4   0   0   56.59   10.60
  -5   0   0   84.99   13.10
  -5   0   0   76.89   16.80
  -5   0   0   72.69   12.50
   5   0   0   55.49   12.70
  -6   0   0   18.30    9.90
  -6   0   0   -1.20   11.00
   6  -1   0   99.19   19.70
  -6   1   0  130.29   18.30
  -6   1   0  113.39   32.00
   5  -1   0   41.10   11.50
  -5   1   0   48.00   11.20
  -5   1   0   30.50   12.30
  -5   1   0   47.10   10.90
   4  -1   0  535.25   34.60
   4  -1   0  591.94   29.60
  -4   1   0  620.14   29.10
  -4   1   0  567.14   34.20
  -4   1   0  600.54   29.90
   3  -1   0  130.29   11.60
   3  -1   0  136.49   14.30
  -3   1   0  142.29   11.60
  -3   1   0  167.78   15.70
  -3   1   0  144.49   12.20
   2  -1   0  206.58   14.80
  -2   1   0  190.48   14.40
  -2   1   0  196.98   12.60
   1  -1   0  227.98   12.40
   1  -1   0  226.08    7.80
   1  -1   0  209.68   10.20
  -1   1   0  236.88   11.50
  -1   1   0  239.18   12.80
  -1   1   0  235.88    7.90
  -1   1   0  242.88   10.70
  -1  -1   0 4209.28  120.29
  -1  -1   0 4296.87  121.49
  -1  -1   0 4454.65  122.49
   1   1   0 4469.35  121.69
  -2  -1   0 1346.67   45.40
  -2  -1   0 1226.48   40.10
  -2  -1   0 1283.37   42.80
   2   1   0 1207.18   42.50
  -3  -1   0   11.20    6.00
  -3  -1   0   -0.10    2.80
  -3  -1   0    2.50    4.10
   3   1   0   -2.70    4.20
  -4  -1   0  534.55   27.60
  -4  -1   0  541.45   32.30
  -4  -1   0  563.74   21.80
  -4  -1   0  516.25   26.10
   4   1   0  596.04   29.50
  -5  -1   0  166.48   16.30
  -5  -1   0  146.49   14.80
  -5  -1   0  122.39   20.60
  -6  -1   0  263.57   23.70
  -6  -1   0  238.28   26.80
  -6  -1   0  273.27   27.10
  -6  -1   0  254.77   21.30
   6  -2   0   53.39   22.40
  -6   2   0   72.69   15.10
  -6   2   0   49.40   15.80
   5  -2   0  240.08   21.50
  -5   2   0  278.77   26.50
  -5   2   0  272.97   20.90
  -5   2   0  206.78   21.90
   4  -2   0    9.20    6.30
   4  -2   0   10.90    9.00
  -4   2   0    2.40    7.50
  -4   2   0   16.90    6.60
  -4   2   0   -3.20    5.30
   3  -2   0  190.48   17.40
  -3   2   0  149.19   13.40
  -3   2   0  192.08   13.70
  -3   2   0  172.98   16.80
   2  -2   0  718.63   27.90
   2  -2   0  713.83   32.20
  -2   2   0  726.83   32.20
  -2   2   0  743.93   22.00
  -2   2   0  721.03   27.70
  -2   2   0  745.43   30.20
   1  -2   0 1607.74   48.70
   1  -2   0 1577.24   50.79
   1  -2   0 1605.54   51.59
   1  -2   0 1584.54   46.60
  -1   2   0 1537.05   50.69
  -1   2   0 1540.65   50.09
  -1   2   0 1584.54   46.80
   0  -2   0 2085.59   60.49
   0  -2   0 2016.70   60.99
   0   2   0 2075.49   59.39
   0   2   0 2075.19   61.29
   0   2   0 2044.90   60.19
  -1  -2   0 1117.49   38.30
  -1  -2   0 1147.39   35.00
   1   2   0 1178.58   38.60
   1   2   0 1184.08   35.50
  -2  -2   0  118.99    9.30
  -2  -2   0  111.89   10.00
   2   2   0  120.89    9.70
  -3  -2   0    3.50    3.70
  -3  -2   0    5.50    3.80
  -3  -2   0    8.10    5.70
  -3  -2   0    5.20    3.70
  -4  -2   0   50.89   11.80
  -4  -2   0   60.69    8.90
  -4  -2   0   65.19   12.00
  -4  -2   0   53.79   11.10
  -5  -2   0   65.39   12.20
  -5  -2   0   56.99   10.50
  -5  -2   0   56.59   11.20
  -5  -2   0   39.20   13.20
  -5  -2   0   53.19    8.20
  -6  -2   0   50.69    6.30
  -6  -2   0   45.60   12.30
  -6  -2   0   32.20   10.00
  -6  -2   0   42.20   14.30
  -6  -2   0   52.69   14.80
  -6   3   0    2.60   12.70
   5  -3   0  186.38   20.30
  -5   3   0  147.79   23.50
  -5   3   0  195.68   18.70
   4  -3   0  700.63   33.60
  -4   3   0  695.33   42.50
  -4   3   0  677.33   32.20
  -4   3   0  615.84   33.80
   3  -3   0   -0.30    6.70
   3  -3   0   13.70    5.70
  -3   3   0   13.90    6.40
  -3   3   0   10.80    6.00
  -3   3   0   11.30    7.20
   2  -3   0  194.28   13.10
   2  -3   0  206.98    9.70
   2  -3   0  177.88   15.30
  -2   3   0  200.58   10.00
  -2   3   0  190.18   13.50
  -2   3   0  193.28   14.20
  -2   3   0  221.38   16.30
   1  -3   0  430.06   21.10
   1  -3   0  453.95   19.70
   1  -3   0  452.15   21.50
  -1   3   0  459.95   21.10
  -1   3   0  451.35   18.70
  -1   3   0  450.45   20.80
  -1   3   0  463.15   20.20
   0  -3   0   16.40    4.40
   0  -3   0   17.40    4.90
   0  -3   0   24.40    5.60
   0   3   0   22.00    5.10
   0   3   0   20.90    5.10
   0   3   0   21.00    5.40
  -1  -3   0 6100.89  165.08
  -1  -3   0 5678.03  166.98
  -1  -3   0 5444.46  162.08
   1   3   0 6162.88  163.08
   1   3   0 5847.91  167.48
  -2  -3   0    0.00    2.30
  -2  -3   0    3.20    4.40
  -2  -3   0    2.80    3.60
   2   3   0    0.90    3.70
   2   3   0   -0.30    3.00
  -3  -3   0  290.87   18.90
  -3  -3   0  269.57   17.00
  -3  -3   0  277.97   14.70
  -3  -3   0  284.17   19.40
  -4  -3   0   44.40   11.30
  -4  -3   0   58.59    9.30
  -4  -3   0   65.19   11.60
  -4  -3   0   49.00    9.30
  -5  -3   0   11.10    8.10
  -5  -3   0   14.40    6.10
  -5  -3   0   26.20    7.40
  -6  -3   0   40.20   13.80
  -6  -3   0   31.90   10.30
  -6  -3   0   29.50    9.00
  -6  -3   0   40.20   12.20
  -6  -3   0   37.70    9.90
   5  -4   0    6.60   12.40
  -5   4   0   -8.10   10.20
  -5   4   0   14.00    9.90
   4  -4   0   96.99   14.20
  -4   4   0   76.09   14.60
  -4   4   0   81.89   17.30
  -4   4   0   99.29   14.50
   3  -4   0   -8.90    3.90
   3  -4   0    6.00    7.60
  -3   4   0    2.60    7.10
  -3   4   0    0.40    5.30
  -3   4   0    6.90    6.10
   2  -4   0    2.50    4.50
   2  -4   0    2.90    5.50
   2  -4   0    5.90    5.60
   2  -4   0    1.60    2.80
  -2   4   0    3.30    3.30
  -2   4   0    5.10    4.80
  -2   4   0    9.70    6.00
   1  -4   0   62.69    8.40
   1  -4   0   65.19   10.60
   1  -4   0   68.09    9.50
   1  -4   0   79.29   11.20
  -1   4   0   61.39    8.50
  -1   4   0   63.69    9.40
   0  -4   0   14.10    5.00
   0  -4   0   16.70    5.80
   0  -4   0   24.90    5.60
   0   4   0   20.10    5.50
   0   4   0   20.90    5.60
   0   4   0   17.20    5.60
  -1  -4   0  134.99    9.00
  -1  -4   0  142.79    9.60
  -1  -4   0  109.59   11.20
   1   4   0  136.49    9.40
   1   4   0  130.79   12.00
  -2  -4   0 1586.84   49.30
  -2  -4   0 1497.55   55.39
   2   4   0 1527.85   55.69
   2   4   0 1580.74   50.59
  -3  -4   0  225.38   17.90
  -3  -4   0  159.98   10.90
  -3  -4   0  188.18   15.20
  -4  -4   0   -1.80    5.00
  -4  -4   0    3.40    4.80
  -4  -4   0   -0.20    5.90
  -4  -4   0    2.70    3.70
  -5  -4   0   81.19   13.20
  -5  -4   0  106.59   11.00
  -5  -4   0  111.99   17.80
  -6  -4   0   73.19   12.60
  -6  -4   0   77.79   18.60
  -6  -4   0   74.79   12.20
  -6  -4   0  107.39   18.70
  -6  -4   0   78.39   11.10
   5  -5   0  407.76   31.00
  -5   5   0  479.35   30.80
   4  -5   0  357.06   25.30
  -4   5   0  330.17   29.20
  -4   5   0  393.06   25.80
   3  -5   0   19.00    8.00
   3  -5   0   28.50   12.50
  -3   5   0   21.50   10.00
  -3   5   0   22.20    7.60
  -3   5   0   29.20    9.30
   2  -5   0   64.69   12.40
   2  -5   0   61.19   10.10
   2  -5   0   46.50    7.40
   2  -5   0   55.39   11.60
  -2   5   0   69.39    9.30
  -2   5   0   70.69   11.70
  -2   5   0   57.89   11.50
   1  -5   0    6.90    5.70
   1  -5   0   11.40    5.50
   1  -5   0    1.20    3.80
   1  -5   0    7.50    5.00
  -1   5   0   12.90    5.40
  -1   5   0    1.10    4.60
  -1   5   0    7.10    4.90
   0  -5   0 2704.43   86.09
   0   5   0 2782.32   83.59
   0   5   0 2755.42   87.99
   0   5   0 2688.03   85.09
  -1  -5   0   67.39    7.90
  -1  -5   0   77.79    7.70
  -1  -5   0   83.89   12.50
   1   5   0   70.99    8.00
   1   5   0   92.29   12.90
   1   5   0   61.29    8.50
  -2  -5   0  292.27   15.40
  -2  -5   0  327.97   21.60
  -2  -5   0  284.97   19.80
   2   5   0  295.37   20.70
   2   5   0  319.77   16.60
  -3  -5   0 1767.22   66.29
  -3  -5   0 1693.83   55.49
  -3  -5   0 1721.23   64.09
   3   5   0 1681.83   64.19
  -4  -5   0    9.90    7.10
  -4  -5   0    3.60    5.40
  -4  -5   0   -0.30    7.60
  -5  -5   0   55.89    9.00
  -5  -5   0   47.50   12.30
  -5  -5   0   37.60   10.70
  -6  -5   0  279.77   27.20
  -6  -5   0  227.58   16.50
  -6  -5   0  242.48   21.30
  -6  -5   0  263.47   26.40
  -5   6   0   66.79   18.20
   4  -6   0  135.99   19.10
  -4   6   0  107.69   19.30
   3  -6   0  306.67   16.30
   3  -6   0  316.37   22.60
  -3   6   0  303.87   24.90
   2  -6   0  169.68   15.50
   2  -6   0  208.48   19.40
   2  -6   0  182.68   21.00
  -2   6   0  194.48   17.90
  -2   6   0  180.48   14.20
  -2   6   0  181.48   18.30
   1  -6   0  117.59   13.20
   1  -6   0  133.39   13.70
   1  -6   0  126.99   14.40
   1  -6   0  135.59   12.80
  -1   6   0  115.79   12.40
  -1   6   0  125.09   12.70
  -1   6   0  119.79   13.20
   0  -6   0    5.30    4.90
   0  -6   0    7.90    5.50
   0  -6   0    0.20    5.20
   0  -6   0   12.20    5.30
   0   6   0    3.40    3.90
   0   6   0    8.20    5.10
   0   6   0    2.80    5.10
  -1  -6   0   29.60    6.90
  -1  -6   0   30.40    7.30
  -1  -6   0   37.80    9.80
   1   6   0   31.60    9.20
   1   6   0   33.00    6.90
   1   6   0   28.60    6.50
  -2  -6   0   19.10    5.40
  -2  -6   0   19.10    5.10
  -2  -6   0   21.70    7.80
   2   6   0   18.50    5.60
   2   6   0   11.90    7.50
  -3  -6   0  714.13   38.10
  -3  -6   0  690.83   30.40
  -3  -6   0  747.53   31.80
  -3  -6   0  724.83   37.00
   3   6   0  742.93   38.20
   3   6   0  754.22   32.10
  -4  -6   0  340.77   24.70
  -4  -6   0  287.07   16.50
  -4  -6   0  270.27   23.70
  -5  -6   0  123.39   20.80
  -5  -6   0  110.59   19.10
  -5  -6   0  128.29   11.40
  -5  -6   0  120.19   18.10
  -6  -6   0   25.60   11.00
  -6  -6   0   37.10   12.00
  -6  -6   0   12.70   10.80
  -6  -6   0   20.00    6.50
  -4   7   0    6.30   10.10
   3  -7   0  235.78   21.00
  -3   7   0  173.88   21.50
   2  -7   0   -6.00    6.90
   2  -7   0    5.30    4.90
   2  -7   0    2.60    7.70
   2  -7   0    1.90    7.10
  -2   7   0    7.80   11.60
  -2   7   0   -0.30    7.90
  -2   7   0    2.70    5.70
   1  -7   0   63.09   11.20
   1  -7   0   60.29   11.90
   1  -7   0   64.19   12.60
   1  -7   0   78.79   13.70
  -1   7   0   74.79   12.70
  -1   7   0   84.49   13.20
   0  -7   0  504.35   29.00
   0  -7   0  487.75   26.40
   0  -7   0  534.85   28.40
   0  -7   0  515.35   28.80
   0   7   0  519.55   29.70
   0   7   0  567.24   28.00
   0   7   0  532.25   25.70
  -1  -7   0  359.26   21.70
  -1  -7   0  383.86   20.90
  -1  -7   0  360.16   25.00
   1   7   0  401.36   20.70
   1   7   0  398.36   26.10
   1   7   0  412.56   22.20
  -2  -7   0  351.16   19.40
  -2  -7   0  348.47   20.30
  -2  -7   0  381.36   26.10
   2   7   0  382.66   27.10
   2   7   0  382.46   20.90
  -3  -7   0 2514.35   79.29
  -3  -7   0 2476.85   90.49
  -3  -7   0 2275.87   78.79
  -3  -7   0 2494.75   91.39
   3   7   0 2512.45   81.79
   3   7   0 2494.25   91.49
  -4  -7   0  544.35   50.09
  -4  -7   0  529.65   24.60
  -4  -7   0  530.95   30.30
  -4  -7   0  493.95   34.00
  -5  -7   0   62.29    9.20
  -5  -7   0   59.99   14.90
  -5  -7   0   76.29   15.70
  -5  -7   0   71.79   16.10
  -6  -7   0  127.99   20.90
  -6  -7   0  194.48   23.60
  -6  -7   0  170.08   23.30
  -6  -7   0  160.78   13.60
  -4   8   0  225.18   26.90
   3  -8   0   34.50    9.10
  -3   8   0   25.70   11.10
   2  -8   0  325.87   22.20
   2  -8   0  339.37   27.30
   2  -8   0  320.67   23.60
  -2   8   0  285.07   21.70
  -2   8   0  352.86   25.50
   1  -8   0   -0.90    5.70
   1  -8   0   11.10    6.50
   1  -8   0   11.00    7.70
   1  -8   0    2.10    8.20
  -1   8   0    3.70    7.00
  -1   8   0    9.90    6.80
  -1   8   0    1.00    7.20
   0  -8   0  289.77   21.00
   0  -8   0  312.37   23.60
   0  -8   0  308.47   22.50
   0  -8   0  287.67   22.70
   0   8   0  294.97   20.00
   0   8   0  286.77   23.10
   0   8   0  331.67   22.10
  -1  -8   0   28.00    8.60
  -1  -8   0   28.70    8.90
  -1  -8   0   26.30   10.40
   1   8   0   27.00    7.80
   1   8   0   12.50    9.20
   1   8   0   42.20    8.80
  -2  -8   0   11.80    6.10
  -2  -8   0   12.50    8.90
  -2  -8   0   16.80    6.70
   2   8   0   16.10    6.40
   2   8   0    4.90    8.30
  -3  -8   0  123.89   19.20
  -3  -8   0  132.89   12.70
  -3  -8   0  121.89   12.10
   3   8   0  105.09   14.40
  -4  -8   0  674.43   42.50
  -4  -8   0  731.13   32.10
  -4  -8   0  754.42   43.30
  -4  -8   0  758.82   34.90
  -5  -8   0   14.90    9.10
  -5  -8   0    2.40    4.60
  -5  -8   0   14.30   10.50
  -5  -8   0  -21.00    7.70
   3  -9   0   60.99   11.20
  -3   9   0   48.00   13.60
   2  -9   0   51.39   12.50
   2  -9   0   41.40   11.80
  -2   9   0   33.60   12.60
   1  -9   0  755.72   43.00
   1  -9   0  802.42   41.10
  -1   9   0  876.01   40.40
  -1   9   0  701.53   40.10
   0  -9   0  502.35   31.00
   0  -9   0  508.75   35.40
   0  -9   0  549.65   33.90
   0   9   0  535.95   34.10
   0   9   0  545.05   29.40
  -1  -9   0   44.10   11.00
   1   9   0   36.50    9.00
   1   9   0   45.10   10.70
  -2  -9   0    0.80    4.20
  -2  -9   0    7.60    8.30
  -2  -9   0    6.20    6.10
   2   9   0   -3.80    9.20
  -3  -9   0   36.20    9.30
  -3  -9   0   36.70    9.20
  -3  -9   0   49.10   13.40
   3   9   0   27.50    8.70
  -4  -9   0   19.90   12.20
  -4  -9   0   18.60   11.10
  -4  -9   0   26.40    7.40
   4   9   0   13.10    9.70
  -5  -9   0  114.99   25.70
  -5  -9   0   82.79   17.40
  -5  -9   0  134.69   21.10
  -5  -9   0  145.79   13.90
   3 -10   0  129.59   17.50
  -3  10   0   96.49   17.80
   2 -10   0    7.90    8.80
   2 -10   0   34.00   13.20
  -2  10   0   27.10   10.00
   1 -10   0   -3.00    6.90
   1 -10   0    3.30    8.70
  -1  10   0   21.10   10.60
   0 -10   0  521.05   34.50
   0 -10   0  469.35   32.50
   0  10   0  493.15   29.40
  -1 -10   0   61.79   15.50
  -1 -10   0   49.10   13.70
  -1 -10   0   65.49   13.70
   1  10   0   63.39   12.90
  -2 -10   0  103.29   15.70
  -2 -10   0  137.19   17.80
  -2 -10   0  148.49   23.30
   2  10   0  125.09   18.10
  -3 -10   0  125.59   19.80
  -3 -10   0  119.99   21.60
  -3 -10   0  125.59   14.90
   3  10   0  124.39   17.00
  -4 -10   0  -15.00    5.60
  -4 -10   0  -13.40    5.70
  -4 -10   0    5.40    6.20
   4  10   0   -5.80   10.10
   2 -11   0  169.28   22.90
   2 -11   0  134.19   24.40
  -2  11   0  195.68   35.20
   1 -11   0  147.19   22.70
   1 -11   0  138.29   22.00
  -1  11   0  150.28   18.40
   0 -11   0  211.88   23.40
   0 -11   0  180.78   25.40
   0  11   0  181.18   18.80
  -1 -11   0   85.59   18.40
  -1 -11   0  121.59   18.70
   1  11   0  115.29   17.20
  -2 -11   0   25.70   13.10
  -2 -11   0   43.30   11.50
  -3 -11   0    7.60    8.40
  -3 -11   0   11.10   10.40
  -4 -11   0    1.70    6.90
  -4 -11   0  -12.40    8.60
  -4 -11   0   -9.60    6.70
   1 -12   0   19.40   11.10
   1 -12   0   18.10   10.70
   0 -12   0  215.58   24.80
   0 -12   0  214.68   25.30
  -1 -12   0    2.40    7.90
  -1 -12   0   30.80   11.50
  -2 -12   0   15.70    9.10
  -2 -12   0    1.60    8.90
  -3 -12   0  192.38   20.20
  -3 -12   0  124.99   22.70
  -1 -13   0  223.88   23.60
  -1 -13   0  239.88   27.60
  -1 -13   1  139.69   23.40
  -1 -13   1  112.79   23.60
  -3 -12   1   46.80   12.50
  -3 -12   1   40.10   14.90
  -3 -12   1   60.59   17.70
  -2 -12   1   72.69   18.70
  -2 -12   1   98.79   17.00
  -1 -12   1    7.50   12.00
  -1 -12   1    7.70    9.20
   0  12  -1   24.90    9.80
   0 -12   1   21.90   11.50
   0 -12   1   26.40   10.80
  -1  12  -1  134.99   31.20
   1 -12   1  211.68   24.20
   1 -12   1  172.58   26.10
   4  11  -1    0.30   16.70
  -4 -11   1   12.30    9.80
  -4 -11   1    9.30   11.30
  -4 -11   1   22.00    8.90
  -3 -11   1   21.30   11.90
  -3 -11   1   17.00    8.30
  -3 -11   1   25.80   11.20
  -2 -11   1   -5.30    6.10
  -2 -11   1   -7.00    5.50
   1  11  -1   24.60    9.60
  -1 -11   1   17.40    9.00
  -1 -11   1   12.70   11.10
   0  11  -1   56.79   12.70
   0 -11   1   54.59   14.20
   0 -11   1   88.19   18.90
  -1  11  -1  164.88   19.40
   1 -11   1  152.98   24.60
   1 -11   1  214.58   28.10
  -2  11  -1   18.60   11.00
   2 -11   1   34.90   11.50
   4  10  -1   -5.80   10.00
  -4 -10   1   13.40   10.00
  -4 -10   1    6.00    8.90
  -4 -10   1    4.90    6.50
   3  10  -1  107.99   16.40
  -3 -10   1  139.99   23.80
  -3 -10   1  104.79   21.20
  -3 -10   1  124.89   14.50
   2  10  -1   -7.50    7.00
  -2 -10   1    4.60    7.30
  -2 -10   1    2.60    6.10
  -1 -10   1   50.49   13.90
  -1 -10   1   57.29   14.10
   0  10  -1  325.57   23.20
   0 -10   1  301.77   26.10
   0 -10   1  333.77   27.60
  -1  10  -1   41.40   11.90
   1 -10   1   58.69   14.50
   1 -10   1   38.80   12.00
  -2  10  -1  230.98   22.90
  -3  10  -1  145.89   23.10
   3 -10   1  111.89   17.90
  -5  -9   1   29.00    7.80
  -5  -9   1   54.89   15.50
   4   9  -1  248.98   20.60
  -4  -9   1  237.18   24.40
  -4  -9   1  239.18   26.80
  -4  -9   1  243.38   17.00
   3   9  -1  551.54   29.00
  -3  -9   1  506.95   27.50
  -3  -9   1  459.75   34.40
  -3  -9   1  483.25   26.70
  -3  -9   1  484.05   34.20
   2   9  -1   13.40    7.30
  -2  -9   1    9.40    6.30
  -2  -9   1   14.40    7.10
  -2  -9   1   18.90    9.90
   1   9  -1  227.18   18.70
   1   9  -1  216.88   17.70
  -1  -9   1  213.18   18.80
  -1  -9   1  232.88   19.80
   0   9  -1   31.10    9.20
   0   9  -1   28.80   10.40
   0   9  -1   35.60   12.90
   0  -9   1   46.80   11.90
   0  -9   1   14.20   18.00
   0  -9   1   39.90   12.50
   0  -9   1   26.60   10.00
  -1   9  -1  185.28   20.20
  -1   9  -1  242.98   21.30
   1  -9   1  203.18   20.00
   1  -9   1  192.78   20.60
  -2   9  -1  159.48   21.20
  -2   9  -1  188.28   20.00
   2  -9   1  145.09   21.60
   2  -9   1  188.78   18.60
  -3   9  -1   13.50    8.80
   3  -9   1   -5.90    8.00
  -5  -8   1    0.90    9.20
  -5  -8   1   23.80   10.80
  -5  -8   1    2.90    4.60
  -5  -8   1    1.40    9.10
  -4  -8   1   -3.10    6.90
  -4  -8   1    1.40    7.20
  -4  -8   1    5.70    4.40
  -4  -8   1   19.60    9.90
   3   8  -1  297.27   19.30
  -3  -8   1  293.37   25.10
  -3  -8   1  239.88   23.80
  -3  -8   1  263.27   17.50
   2   8  -1  121.39   19.30
   2   8  -1  114.29   11.90
  -2  -8   1  119.99   18.50
  -2  -8   1   93.29   11.40
  -2  -8   1  110.39   12.00
   1   8  -1   23.30    7.70
   1   8  -1   56.29   13.50
   1   8  -1   52.59   10.30
  -1  -8   1   37.80   11.00
  -1  -8   1   54.99   10.80
  -1  -8   1   30.00    8.20
   0   8  -1  293.07   19.80
   0  -8   1  269.97   20.90
   0  -8   1  238.68   24.10
   0  -8   1  285.97   22.50
   0  -8   1  272.57   21.10
  -1   8  -1  561.34   32.60
  -1   8  -1  563.44   31.80
  -1   8  -1  582.74   31.40
   1  -8   1  551.04   33.60
   1  -8   1  600.04   32.60
   1  -8   1  557.64   33.10
  -2   8  -1  488.55   29.10
  -2   8  -1  464.25   30.20
   2  -8   1  498.45   30.30
   2  -8   1  493.65   34.40
   2  -8   1  520.85   28.70
  -3   8  -1   20.30   10.20
   3  -8   1   18.10   11.30
   3  -8   1   30.10    9.00
  -4   8  -1  105.99   19.50
  -6  -7   1  123.39   20.10
  -6  -7   1  104.99   21.10
  -5  -7   1    4.40    9.10
  -5  -7   1   10.70    9.80
  -5  -7   1    3.90   10.30
  -4  -7   1   50.09   14.20
  -4  -7   1   58.59   10.80
  -4  -7   1   65.09    8.90
  -4  -7   1   66.79   25.30
   3   7  -1  991.90   39.00
   3   7  -1  868.61   46.10
  -3  -7   1  961.60   36.70
  -3  -7   1  901.01   47.20
  -3  -7   1  989.80   39.50
  -3  -7   1  997.20   47.20
   2   7  -1  318.97   18.40
   2   7  -1  317.17   26.60
  -2  -7   1  328.37   18.90
  -2  -7   1  315.77   18.50
  -2  -7   1  303.67   23.60
   1   7  -1  138.09   12.30
   1   7  -1  143.19   12.50
   1   7  -1  132.09   14.90
  -1  -7   1  120.19   17.80
  -1  -7   1  111.29   10.80
  -1  -7   1  125.19   12.70
   0   7  -1  188.08   18.10
   0   7  -1  224.08   17.10
   0   7  -1  275.97   17.50
   0  -7   1  208.48   16.50
   0  -7   1  199.08   17.10
   0  -7   1  205.88   17.60
  -1   7  -1   70.49   12.80
  -1   7  -1  101.79   12.50
   1  -7   1   96.09   13.90
   1  -7   1  106.79   15.30
   1  -7   1   77.89   12.90
   1  -7   1   88.39   14.70
  -2   7  -1  159.98   15.80
  -2   7  -1  189.78   18.90
   2  -7   1  141.89   13.90
   2  -7   1  165.28   16.50
   2  -7   1  165.88   18.90
   2  -7   1  169.78   19.20
  -3   7  -1  112.39   18.70
   3  -7   1  100.39   15.90
   3  -7   1   81.99   11.30
  -4   7  -1   34.20   12.90
   4  -7   1   23.30   13.60
  -6  -6   1  116.59   19.50
  -6  -6   1   76.39   18.30
  -6  -6   1  110.49   17.60
  -5  -6   1   51.19   12.00
  -5  -6   1   33.10   12.30
  -5  -6   1   65.89   15.10
  -4  -6   1  261.67   14.50
  -4  -6   1  285.57   24.50
  -4  -6   1  260.47   22.00
   3   6  -1  991.40   38.70
   3   6  -1  995.40   46.70
  -3  -6   1 1011.40   39.90
  -3  -6   1 1104.29   47.40
  -3  -6   1 1072.99   48.60
  -3  -6   1  961.90   36.10
   2   6  -1 2629.94   90.09
  -2  -6   1 2582.44   88.69
  -2  -6   1 2638.64   80.09
  -2  -6   1 2418.06   80.09
   1   6  -1  771.22   31.40
   1   6  -1  768.32   36.80
   1   6  -1  773.22   31.50
  -1  -6   1  776.92   36.30
  -1  -6   1  817.82   32.60
  -1  -6   1  742.43   30.80
   0   6  -1  608.84   28.30
   0   6  -1  601.84   30.50
   0   6  -1  635.64   27.30
   0  -6   1  630.04   29.50
   0  -6   1  560.24   27.50
   0  -6   1  605.14   30.20
  -1   6  -1  245.18   18.10
  -1   6  -1  244.68   17.50
  -1   6  -1  254.47   17.60
   1  -6   1  252.97   19.30
   1  -6   1  260.47   17.80
   1  -6   1  242.38   17.80
   1  -6   1  251.37   18.80
  -2   6  -1  353.56   23.80
  -2   6  -1  331.67   20.00
  -2   6  -1  334.57   23.00
   2  -6   1  362.06   20.50
   2  -6   1  333.57   21.00
   2  -6   1  344.87   25.30
   2  -6   1  347.77   25.00
  -3   6  -1   11.80    9.10
  -3   6  -1    9.10    5.30
   3  -6   1    7.70    5.10
   3  -6   1   11.00    7.90
  -4   6  -1   53.09   15.00
   4  -6   1   71.09   14.10
  -5   6  -1   19.50   13.00
   5  -6   1    9.00   18.50
  -6  -5   1   92.69   16.80
  -6  -5   1  101.19   18.20
  -6  -5   1   90.89   15.40
  -5  -5   1  215.58   19.10
  -5  -5   1  222.48   19.60
  -5  -5   1  214.68   23.50
  -5  -5   1  255.27   24.40
  -4  -5   1    2.90    3.40
  -4  -5   1    6.80    5.70
  -4  -5   1    4.60    6.80
  -4  -5   1    4.70    6.90
   3   5  -1  413.86   25.20
  -3  -5   1  398.96   24.50
  -3  -5   1  374.36   17.20
  -3  -5   1  365.36   25.10
   2   5  -1 2144.79   68.39
   2   5  -1 2195.48   76.99
  -2  -5   1 2198.28   67.99
  -2  -5   1 2153.58   75.99
  -2  -5   1 2388.26   70.69
   1   5  -1   77.69   12.00
   1   5  -1   68.79    7.60
   1   5  -1   69.19    7.90
  -1  -5   1   78.39   11.70
  -1  -5   1   66.99    7.80
   0   5  -1  311.67   17.70
   0   5  -1  296.97   18.90
   0   5  -1  379.36   20.30
   0  -5   1  292.67   18.00
   0  -5   1  356.56   18.20
   0  -5   1  310.77   19.20
  -1   5  -1 1250.57   46.40
  -1   5  -1 1256.57   46.30
  -1   5  -1 1281.67   47.80
   1  -5   1 1216.28   45.50
   1  -5   1 1242.68   47.70
   1  -5   1 1251.97   48.80
   1  -5   1 1235.88   45.50
  -2   5  -1   37.00    9.50
  -2   5  -1   39.40    7.80
  -2   5  -1   29.10    8.40
   2  -5   1   40.00    7.30
   2  -5   1   32.50    8.20
   2  -5   1   40.90   10.70
  -3   5  -1   25.10    5.70
  -3   5  -1   13.20    9.00
  -3   5  -1   31.70    9.00
   3  -5   1   22.10    7.70
   3  -5   1   28.50    5.80
   3  -5   1   24.70    9.60
  -4   5  -1   52.89   11.40
  -4   5  -1   74.19   15.80
   4  -5   1   54.69   11.20
  -5   5  -1   -6.30    9.60
  -5   5  -1    6.40   17.60
   5  -5   1   25.20   16.50
  -6  -4   1   59.29   10.50
  -6  -4   1   45.20   15.70
  -6  -4   1   71.49   10.60
  -6  -4   1   33.60   12.40
  -6  -4   1   60.39    9.30
  -5  -4   1   16.80    7.90
  -5  -4   1   15.80   12.20
  -5  -4   1   12.90    9.10
  -4  -4   1  188.78   18.90
  -4  -4   1  210.48   12.60
  -4  -4   1  190.08   19.00
  -4  -4   1  215.48   16.80
   3   4  -1  840.52   37.00
  -3  -4   1  854.71   39.20
  -3  -4   1  813.02   29.30
  -3  -4   1  879.11   37.00
   2   4  -1  273.87   18.10
   2   4  -1  239.68   12.80
  -2  -4   1  279.97   18.70
  -2  -4   1  258.37   12.30
  -2  -4   1  256.77   17.20
   1   4  -1 1358.26   45.10
   1   4  -1 1514.45   51.69
  -1  -4   1 1488.25   46.40
  -1  -4   1 1396.96   50.39
  -1  -4   1 1382.86   45.60
   0   4  -1  212.88   14.50
   0   4  -1  208.88   12.70
   0   4  -1  216.88   13.10
   0  -4   1  205.58   12.50
   0  -4   1  204.58   14.10
   0  -4   1  212.28   13.50
  -1   4  -1  290.17   15.90
  -1   4  -1  295.27   17.30
  -1   4  -1  272.77   16.80
   1  -4   1  312.17   18.80
   1  -4   1  274.17   15.60
   1  -4   1  275.57   17.20
   1  -4   1  286.37   16.00
  -2   4  -1  162.98   10.90
  -2   4  -1  163.28   14.80
  -2   4  -1  171.18   12.80
  -2   4  -1  157.58   14.10
   2  -4   1  153.88   12.30
   2  -4   1  146.09   14.70
   2  -4   1  160.58   10.60
  -3   4  -1    9.60    3.50
  -3   4  -1   22.10    7.70
  -3   4  -1   14.70    7.70
  -3   4  -1   15.70    7.10
   3  -4   1    4.20    5.40
   3  -4   1   16.40    6.30
   3  -4   1   14.30    8.50
  -4   4  -1   11.60    7.50
  -4   4  -1   -0.50    8.40
   4  -4   1   22.60    8.50
  -5   4  -1  142.09   22.60
  -5   4  -1  182.18   18.30
   5  -4   1  184.88   19.90
  -6  -3   1  116.29   13.20
  -6  -3   1  157.28   25.30
  -6  -3   1  133.39   19.90
  -6  -3   1  138.19   13.50
  -5  -3   1  110.19   11.30
  -5  -3   1  136.69   18.90
  -5  -3   1  104.59   11.40
  -5  -3   1   85.29   17.60
  -5  -3   1  126.09   12.00
  -4  -3   1   -6.90    6.40
  -4  -3   1    5.20    4.70
  -4  -3   1    0.30    3.30
  -4  -3   1   10.10    7.00
   3   3  -1 1102.69   45.60
  -3  -3   1 1116.09   41.50
  -3  -3   1 1024.80   44.10
  -3  -3   1 1131.59   36.70
  -3  -3   1 1071.39   45.20
   2   3  -1 1682.83   52.09
   2   3  -1 1730.73   57.69
  -2  -3   1 1676.13   58.89
  -2  -3   1 1723.93   57.29
  -2  -3   1 1728.83   52.19
   1   3  -1  826.32   31.30
   1   3  -1  802.82   26.20
  -1  -3   1  776.02   27.80
  -1  -3   1  766.22   27.30
  -1  -3   1  780.22   30.60
   0   3  -1    8.70    4.80
   0   3  -1   15.10    4.60
   0  -3   1    6.20    4.30
   0  -3   1    5.30    3.80
  -1   3  -1   17.20    4.40
  -1   3  -1   19.90    5.90
  -1   3  -1   14.70    5.50
   1  -3   1   12.10    4.50
   1  -3   1   22.00    6.30
   1  -3   1    6.20    4.00
   1  -3   1   14.20    5.60
  -2   3  -1  643.44   29.90
  -2   3  -1  607.54   28.40
  -2   3  -1  642.64   25.60
  -2   3  -1  626.84   22.70
   2  -3   1  589.64   29.60
   2  -3   1  612.24   25.00
  -3   3  -1   13.90    2.70
  -3   3  -1   14.30    6.70
  -3   3  -1   20.60    6.50
  -3   3  -1   17.20    8.40
   3  -3   1    6.80    5.70
   3  -3   1   14.10    8.40
  -4   3  -1   21.30    7.30
  -4   3  -1    9.30    7.20
   4  -3   1   17.00    7.10
  -5   3  -1  175.78   17.00
  -5   3  -1   84.49   17.30
   5  -3   1  136.89   17.90
  -6   3  -1    2.70   11.20
  -6   3  -1   -8.70   10.60
  -6  -2   1   30.80   12.00
  -6  -2   1   14.30    9.10
  -6  -2   1   55.49   13.70
  -6  -2   1   30.90    9.20
  -5  -2   1  103.09   16.20
  -5  -2   1   97.19   11.50
  -5  -2   1  105.29   18.50
  -5  -2   1   94.99   13.00
  -5  -2   1   87.69    8.70
   4   2  -1   71.59   12.80
  -4  -2   1   53.49   13.20
  -4  -2   1   50.69    9.80
  -4  -2   1   66.79   10.10
  -4  -2   1   61.99    8.60
   3   2  -1  852.91   36.30
  -3  -2   1  812.82   31.50
  -3  -2   1  871.11   36.40
  -3  -2   1  837.02   30.80
  -3  -2   1  825.22   38.00
   2   2  -1  373.16   19.20
   2   2  -1  325.37   16.70
  -2  -2   1  344.87   18.50
  -2  -2   1  365.86   14.10
  -2  -2   1  346.37   16.80
   1   2  -1 8234.08  219.58
   1   2  -1 8188.98  224.38
  -1  -2   1 8070.29  224.08
  -1  -2   1 7804.32  219.28
   0   2  -1 3361.26   95.69
   0   2  -1 3417.96   94.59
   0   2  -1 3332.77   95.79
   0  -2   1 3196.08   94.39
   0  -2   1 3402.36   95.69
   0  -2   1 3276.07   93.99
  -1   2  -1 1630.14   49.70
  -1   2  -1 1663.03   49.50
  -1   2  -1 1656.13   52.89
  -1   2  -1 1671.83   52.69
   1  -2   1 1568.14   52.59
   1  -2   1 1680.23   49.60
   1  -2   1 1687.83   49.50
  -2   2  -1 1681.73   61.39
  -2   2  -1 1616.84   47.40
  -2   2  -1 1686.63   50.99
   2  -2   1 1538.05   50.79
   2  -2   1 1644.94   47.90
   2  -2   1 1516.75   56.49
  -3   2  -1  298.67   19.70
  -3   2  -1  324.97   22.00
  -3   2  -1  342.17   17.60
   3  -2   1  299.07   22.20
   3  -2   1  313.37   17.30
  -4   2  -1  533.75   30.10
  -4   2  -1  598.34   27.30
  -4   2  -1  595.44   35.00
   4  -2   1  549.85   27.60
   4  -2   1  525.05   34.70
  -5   2  -1   94.59   18.20
  -5   2  -1  158.88   15.10
   5  -2   1  104.49   15.20
  -6   2  -1    0.80    9.30
  -6   2  -1   -4.80   11.50
  -6  -1   1   14.50   11.60
  -6  -1   1   27.10   10.60
  -6  -1   1   23.50   10.90
   5   1  -1    6.80   14.30
  -5  -1   1   12.70    7.90
  -5  -1   1    8.70    8.30
  -5  -1   1    0.20    5.50
   4   1  -1    0.80    5.90
  -4  -1   1    1.90    4.90
  -4  -1   1   12.50    7.60
  -4  -1   1    2.30    4.40
   3   1  -1  201.08   15.40
  -3  -1   1  196.48   17.30
  -3  -1   1  234.38   15.80
   2   1  -1 1492.55   45.60
   2   1  -1 1431.66   49.50
  -2  -1   1 1453.75   51.39
  -2  -1   1 1555.74   49.90
  -2  -1   1 1425.06   45.20
   1   1  -1  685.53   24.00
   1   1  -1  664.43   22.40
  -1  -1   1  633.14   22.10
  -1  -1   1  663.83   25.70
  -1  -1   1  656.63   19.70
   0   1  -1  711.23   22.70
   0   1  -1  628.54   21.40
   0   1  -1  746.83   21.90
   0  -1   1  732.43   21.60
   0  -1   1  715.33   22.40
   0  -1   1  678.83   22.40
  -1   1  -1 7756.62  206.48
  -1   1  -1 7457.55  199.58
  -1   1  -1 7252.17  199.58
   1  -1   1 7107.99  199.58
   1  -1   1 7069.99  203.38
  -2   1  -1  958.80   28.30
  -2   1  -1  894.71   37.90
  -2   1  -1  915.61   34.70
  -2   1  -1  957.10   36.40
   2  -1   1  933.81   36.70
   2  -1   1  915.81   31.60
  -3   1  -1 1073.99   44.40
  -3   1  -1 1034.80   41.10
  -3   1  -1 1078.69   30.70
  -3   1  -1 1171.28   38.50
  -3   1  -1  983.60   30.40
   3  -1   1  965.90   43.60
   3  -1   1  990.10   37.70
  -4   1  -1   42.80    8.00
  -4   1  -1   30.90   10.40
  -4   1  -1   27.50    7.90
   4  -1   1   33.20    8.40
   4  -1   1   35.20   11.50
  -5   1  -1   19.70    8.90
  -5   1  -1   26.50    9.40
  -5   1  -1   27.30   12.00
   5  -1   1   19.20    8.90
  -6   1  -1  142.39   17.20
  -6   1  -1   87.69   20.80
  -6   0   1   69.39   15.00
  -6   0   1   25.10   14.70
  -6   0   1   54.79   13.00
   5   0  -1  506.25   37.10
  -5   0   1  447.96   26.10
  -5   0   1  448.46   33.70
  -5   0   1  523.35   29.70
   4   0  -1   63.39   11.80
  -4   0   1   75.49   14.20
  -4   0   1   83.69   12.40
  -4   0   1   54.89    9.20
   3   0  -1   12.70    6.10
  -3   0   1   20.40    8.00
  -3   0   1    6.00    2.10
  -3   0   1   10.30    4.70
   2   0  -1  151.28   11.20
   2   0  -1  148.99   12.50
  -2   0   1  150.98   10.90
  -2   0   1  144.79    6.50
  -2   0   1  152.68    9.60
  -2   0   1  138.49   12.50
   1   0  -1    1.00    1.60
   1   0  -1    1.20    3.50
   1   0  -1    2.40    3.00
  -1   0   1   -1.20    1.50
  -1   0   1    4.50    2.40
  -1   0   1   -0.40    3.20
  -1   0  -1  725.53   24.60
  -1   0  -1  713.13   22.30
   1   0   1  734.03   22.30
   1   0   1  719.83   24.70
  -2   0  -1    7.70    4.80
   2   0   1    1.50    4.60
   2   0   1    2.40    3.10
  -3   0  -1 1492.55   50.19
  -3   0  -1 1491.85   45.60
  -3   0  -1 1516.65   56.19
   3   0   1 1456.55   50.69
   3   0   1 1510.95   56.49
  -4   0  -1  354.66   25.60
  -4   0  -1  361.86   22.40
  -4   0  -1  341.87   13.90
  -4   0  -1  376.76   14.80
  -4   0  -1  417.56   21.90
   4   0   1  382.96   21.80
   4   0   1  339.27   25.50
  -5   0  -1   97.69   13.80
  -5   0  -1   89.99   18.10
  -5   0  -1   93.19   20.90
   5   0   1   69.49   11.90
  -6   0  -1   30.60   10.50
  -6   0  -1   13.10   12.20
  -6   1   1  143.09   19.90
  -6   1   1  111.09   26.80
   5  -1  -1   -5.50    9.60
  -5   1   1   20.10   11.00
  -5   1   1   16.60    9.20
   4  -1  -1  406.56   29.80
   4  -1  -1  452.85   26.10
  -4   1   1  433.46   24.60
  -4   1   1  432.56   23.90
  -4   1   1  406.66   29.00
   3  -1  -1   81.59   11.20
   3  -1  -1   55.49   10.90
  -3   1   1   49.70   10.50
  -3   1   1   45.50   10.60
  -3   1   1   71.99    9.60
   2  -1  -1  159.68   15.50
   2  -1  -1  158.38   11.60
  -2   1   1  156.58   13.60
  -2   1   1  173.18   11.80
  -2   1   1  164.68   10.90
   1  -1  -1 1487.25   44.80
   1  -1  -1 1405.56   39.90
   1  -1  -1 1395.36   46.20
   1  -1  -1 1519.35   44.80
  -1   1   1 1356.46   45.90
  -1   1   1 1452.95   44.00
   0  -1  -1  268.57   10.60
   0  -1  -1  273.37   10.30
   0  -1  -1  288.17   10.70
   0   1   1  272.97   10.20
   0   1   1  273.67    9.50
   0   1   1  298.27   11.00
  -2  -1  -1  703.63   28.40
  -2  -1  -1  727.53   26.70
   2   1   1  697.53   26.30
  -3  -1  -1   11.60    4.90
  -3  -1  -1    7.70    5.70
  -3  -1  -1   10.20    4.00
   3   1   1    0.20    4.20
  -4  -1  -1  128.59   12.40
  -4  -1  -1  130.59   15.40
  -4  -1  -1  130.09    9.60
   4   1   1  137.19   13.00
  -5  -1  -1  120.39    9.70
  -5  -1  -1  148.69   14.60
  -5  -1  -1  160.98   16.20
  -5  -1  -1  124.39   20.50
  -6  -1  -1   37.70   11.60
  -6  -1  -1   37.40   13.30
  -6  -1  -1   44.00   11.10
  -6  -1  -1   33.60   11.50
  -6   2   1   56.89   16.10
  -6   2   1   84.09   16.60
   5  -2  -1   -0.30   10.00
  -5   2   1    4.60    8.50
  -5   2   1   10.60    7.80
  -5   2   1    6.20    7.30
   4  -2  -1  270.17   24.10
   4  -2  -1  294.77   21.10
  -4   2   1  301.57   25.80
  -4   2   1  252.77   19.40
  -4   2   1  257.17   19.50
   3  -2  -1  160.38   13.60
   3  -2  -1  144.59   15.90
  -3   2   1  152.88   13.40
  -3   2   1  145.49   15.80
  -3   2   1  156.88   13.20
   2  -2  -1  874.11   33.30
   2  -2  -1  871.81   37.10
  -2   2   1  892.21   33.40
  -2   2   1  928.91   34.10
  -2   2   1  814.02   35.90
   1  -2  -1 1097.79   38.50
   1  -2  -1 1091.79   33.50
   1  -2  -1 1082.89   37.30
   1  -2  -1 1142.89   36.90
  -1   2   1 1080.69   38.00
  -1   2   1 1062.39   36.40
  -1   2   1 1099.99   37.00
   0  -2  -1 1993.40   56.99
   0  -2  -1 1880.11   54.89
   0  -2  -1 1826.22   56.59
   0   2   1 1927.11   54.69
   0   2   1 1843.32   55.79
   0   2   1 1870.51   56.69
  -1  -2  -1 6722.83  188.88
   1   2   1 6768.22  188.88
  -2  -2  -1  253.87   13.40
  -2  -2  -1  259.27   14.70
  -2  -2  -1  252.97   14.20
  -2  -2  -1  266.67   15.10
  -3  -2  -1  537.85   25.60
  -3  -2  -1  544.45   24.20
  -3  -2  -1  570.54   25.10
  -3  -2  -1  540.75   27.30
  -4  -2  -1  709.03   29.90
  -4  -2  -1  814.82   34.40
  -4  -2  -1  711.03   33.20
  -4  -2  -1  650.03   35.80
  -5  -2  -1    6.50   13.50
  -5  -2  -1    4.80    4.40
  -5  -2  -1    4.80    6.20
  -5  -2  -1    8.90    6.60
  -6  -2  -1    9.10    9.40
  -6  -2  -1   -4.90    3.80
  -6  -2  -1    7.00    5.60
  -6  -2  -1    0.70    7.40
  -6  -2  -1  -20.90    7.80
  -6  -2  -1   11.90    8.30
  -6   3   1   13.50   11.50
  -6   3   1  -32.00   12.70
   5  -3  -1  136.69   19.00
  -5   3   1  132.49   18.10
  -5   3   1   78.59   18.10
   4  -3  -1  162.68   16.50
  -4   3   1  182.38   16.70
  -4   3   1  154.88   19.30
  -4   3   1  176.88   19.30
   3  -3  -1    6.20    4.70
   3  -3  -1   -5.00    4.90
  -3   3   1    8.30    6.00
  -3   3   1    9.20    5.20
  -3   3   1    5.90    7.70
   2  -3  -1 1905.01   66.29
   2  -3  -1 1968.70   56.69
   2  -3  -1 1969.80   69.19
   2  -3  -1 1921.81   63.79
  -2   3   1 1898.11   64.89
  -2   3   1 2091.79   64.89
  -2   3   1 1892.91   67.39
   1  -3  -1 3397.36   98.39
   1  -3  -1 3260.97   96.49
   1  -3  -1 3191.38   98.39
  -1   3   1 3247.58   96.99
  -1   3   1 3205.28   94.29
  -1   3   1 3257.97   97.39
  -1   3   1 3171.48   97.59
   0  -3  -1 2018.40   62.19
   0  -3  -1 1951.30   61.69
   0  -3  -1 2009.30   61.19
   0  -3  -1 2006.90   59.89
   0   3   1 1853.51   58.89
   0   3   1 2084.69   62.59
   0   3   1 2018.10   60.99
  -1  -3  -1 3916.81  100.69
  -1  -3  -1 3424.76  102.19
  -1  -3  -1 3483.55  106.09
   1   3   1 3598.84  106.39
   1   3   1 3377.46  102.29
  -2  -3  -1  251.07   15.70
  -2  -3  -1  244.98   13.00
   2   3   1  243.98   14.00
  -3  -3  -1   25.20    7.10
  -3  -3  -1   31.90    8.50
  -3  -3  -1   32.00    6.20
  -3  -3  -1   25.40    6.90
  -4  -3  -1   11.90    5.30
  -4  -3  -1    8.90    5.90
  -4  -3  -1   17.60    7.40
  -4  -3  -1    2.70    5.00
  -5  -3  -1  251.57   20.40
  -5  -3  -1  250.77   23.60
  -5  -3  -1  226.98   18.00
  -5  -3  -1  244.88   17.30
  -6  -3  -1    0.60    7.30
  -6  -3  -1    6.10    7.70
  -6  -3  -1    5.20    5.60
  -6  -3  -1    0.40    9.70
   5  -4  -1  107.19   18.60
  -5   4   1  131.59   22.60
  -5   4   1  124.19   17.70
   4  -4  -1  199.08   19.50
  -4   4   1  204.38   18.60
  -4   4   1  239.18   20.20
  -4   4   1  219.78   23.50
   3  -4  -1  318.67   20.90
   3  -4  -1  333.27   25.40
  -3   4   1  359.66   22.10
  -3   4   1  348.37   22.20
  -3   4   1  323.97   24.40
   2  -4  -1   10.90    6.40
   2  -4  -1    9.20    6.30
   2  -4  -1    3.40    5.10
   2  -4  -1   11.10    3.80
  -2   4   1    2.30    3.50
  -2   4   1    9.00    6.10
  -2   4   1    6.60    5.70
   1  -4  -1  546.05   25.60
   1  -4  -1  534.05   24.90
   1  -4  -1  513.35   25.10
   1  -4  -1  585.44   23.50
  -1   4   1  552.74   25.00
  -1   4   1  563.04   25.20
  -1   4   1  451.85   33.00
  -1   4   1  521.65   23.00
   0  -4  -1   55.99    7.70
   0  -4  -1   51.79    8.40
   0  -4  -1   61.49    9.00
   0  -4  -1   48.00    8.40
   0   4   1   42.50    7.00
   0   4   1   65.49    8.10
   0   4   1   39.80    7.90
  -1  -4  -1 5190.88  140.09
  -1  -4  -1 4921.81  146.99
  -1  -4  -1 4957.20  142.29
   1   4   1 4974.80  147.19
   1   4   1 4824.32  142.19
  -2  -4  -1  201.48   12.00
  -2  -4  -1  188.58   15.00
   2   4   1  229.38   16.30
   2   4   1  205.88   13.10
  -3  -4  -1  318.37   20.70
  -3  -4  -1  271.57   18.60
  -3  -4  -1  258.97   15.10
  -4  -4  -1  159.68   15.10
  -4  -4  -1  153.08   16.00
  -4  -4  -1  164.88   17.20
  -4  -4  -1  152.18   12.70
  -5  -4  -1   60.99   10.70
  -5  -4  -1   81.49   15.00
  -5  -4  -1   62.29   14.70
  -5  -4  -1   61.89   11.40
  -6  -4  -1    9.50    9.50
  -6  -4  -1   -8.40    6.80
  -6  -4  -1   -1.50    6.70
  -6  -4  -1   14.30   12.10
  -5   5   1   23.30   23.10
  -5   5   1   28.10   15.20
   4  -5  -1   19.70   11.40
  -4   5   1    8.90    9.00
  -4   5   1    9.60   11.90
   3  -5  -1  747.13   35.30
   3  -5  -1  602.74   37.60
  -3   5   1  654.33   37.70
  -3   5   1  698.43   35.70
  -3   5   1  756.32   35.50
   2  -5  -1  787.92   30.40
   2  -5  -1  753.92   34.40
   2  -5  -1  775.82   38.30
   2  -5  -1  789.62   37.50
  -2   5   1  746.63   34.80
  -2   5   1  813.52   37.70
  -2   5   1  802.42   36.30
   1  -5  -1   76.39   11.70
   1  -5  -1   74.19   11.50
   1  -5  -1   75.09   11.80
   1  -5  -1   69.39   10.10
  -1   5   1   71.89   10.60
  -1   5   1   83.99   11.00
  -1   5   1   76.89   11.10
   0  -5  -1  739.73   32.90
   0  -5  -1  779.12   31.20
   0  -5  -1  775.62   32.60
   0   5   1  760.82   31.80
   0   5   1  840.22   34.70
   0   5   1  868.41   30.90
  -1  -5  -1   44.60    9.20
  -1  -5  -1   45.60    6.80
  -1  -5  -1   49.20    8.00
   1   5   1   37.70    6.30
   1   5   1   44.90    9.20
  -2  -5  -1  836.92   32.90
  -2  -5  -1 1011.50   35.90
  -2  -5  -1 1008.40   41.70
   2   5   1 1005.80   37.20
   2   5   1  945.51   41.30
  -3  -5  -1 1874.31   68.29
  -3  -5  -1 1816.62   68.69
   3   5   1 1858.51   63.39
  -4  -5  -1    5.60    7.10
  -4  -5  -1   14.30    7.10
  -4  -5  -1   12.10    7.00
  -4  -5  -1    8.00    4.80
  -5  -5  -1   28.90   11.10
  -5  -5  -1   15.20    5.60
  -5  -5  -1    6.80    7.60
  -5  -5  -1    2.30    7.50
  -6  -5  -1  422.56   24.30
  -6  -5  -1  429.06   28.40
  -6  -5  -1  445.76   33.10
  -6  -5  -1  440.96   34.80
  -5   6   1   75.29   19.50
  -5   6   1   97.69   18.70
   4  -6  -1  465.15   30.60
  -4   6   1  446.56   29.90
  -4   6   1  452.15   34.60
   3  -6  -1  281.47   15.00
   3  -6  -1  308.17   22.90
  -3   6   1  254.97   23.40
  -3   6   1  314.47   23.50
   2  -6  -1   72.29   11.70
   2  -6  -1   84.29    9.80
   2  -6  -1   90.29   14.90
  -2   6   1   83.39   14.20
  -2   6   1   71.89   12.60
   1  -6  -1  584.34   30.30
   1  -6  -1  572.64   30.60
   1  -6  -1  629.64   30.40
   1  -6  -1  609.74   28.90
  -1   6   1  614.04   29.10
  -1   6   1  582.44   29.50
  -1   6   1  595.94   29.20
   0  -6  -1 1257.87   49.00
   0  -6  -1 1254.47   49.20
   0  -6  -1 1184.18   45.70
   0  -6  -1 1278.07   48.40
   0   6   1 1233.48   47.10
   0   6   1 1300.77   50.29
   0   6   1 1297.47   44.90
  -1  -6  -1 1395.86   53.89
  -1  -6  -1 1394.86   49.60
  -1  -6  -1 1360.06   46.90
   1   6   1 1450.55   49.70
   1   6   1 1329.57   53.69
   1   6   1 1237.78   49.30
  -2  -6  -1  435.46   20.70
  -2  -6  -1  503.35   23.30
  -2  -6  -1  504.85   28.80
   2   6   1  487.55   28.50
   2   6   1  456.45   23.20
  -3  -6  -1   25.20    5.90
  -3  -6  -1   16.40    5.20
  -3  -6  -1   20.40    8.40
  -3  -6  -1   12.50    7.00
   3   6   1   13.70    6.10
  -4  -6  -1  548.95   33.00
  -4  -6  -1  648.24   36.80
  -4  -6  -1  589.24   32.70
  -4  -6  -1  532.75   26.00
  -5  -6  -1   12.00    9.60
  -5  -6  -1    7.00    5.40
  -5  -6  -1    5.30    7.20
  -5  -6  -1   -4.10    7.50
  -6  -6  -1  -10.50    8.50
  -6  -6  -1   -7.60    8.00
  -6  -6  -1   -3.30    5.40
  -6  -6  -1   -2.50    7.30
  -4   7   1   -6.00   11.50
   3  -7  -1  763.42   31.50
   3  -7  -1  787.52   40.30
  -3   7   1  747.93   42.10
   2  -7  -1  569.84   34.80
   2  -7  -1  515.65   33.40
   2  -7  -1  535.85   35.40
   2  -7  -1  558.84   28.00
  -2   7   1  562.34   32.60
   1  -7  -1  220.08   18.60
   1  -7  -1  206.78   18.70
   1  -7  -1  185.58   17.70
   1  -7  -1  215.88   17.30
  -1   7   1  204.88   16.80
  -1   7   1  211.68   17.20
  -1   7   1  150.38   17.30
   0  -7  -1  145.89   15.40
   0  -7  -1  149.29   15.50
   0  -7  -1  162.78   15.00
   0  -7  -1  167.18   14.60
   0   7   1  148.29   13.20
   0   7   1  140.59   15.50
   0   7   1  153.68   13.90
  -1  -7  -1    2.40    5.50
  -1  -7  -1    4.00    4.40
  -1  -7  -1   -0.90    4.60
   1   7   1    0.20    4.60
   1   7   1    5.40    6.00
   1   7   1   12.80    5.30
  -2  -7  -1  171.48   12.80
  -2  -7  -1  157.88   16.50
  -2  -7  -1  158.98   13.40
   2   7   1  165.28   14.00
   2   7   1  158.78   17.10
  -3  -7  -1   27.60    6.10
  -3  -7  -1   32.00   10.40
  -3  -7  -1   19.30    5.40
   3   7   1   16.10    6.00
  -4  -7  -1  332.57   20.20
  -4  -7  -1  435.66   23.00
  -4  -7  -1  363.46   28.50
  -5  -7  -1   99.29   11.10
  -5  -7  -1   98.29   18.50
  -5  -7  -1  128.39   21.80
  -6  -7  -1  252.67   25.10
  -6  -7  -1  197.98   16.10
  -6  -7  -1  224.68   24.10
  -6  -7  -1  233.48   25.80
  -4   8   1    6.20   10.70
   3  -8  -1   42.70    8.80
  -3   8   1   50.69   14.80
   2  -8  -1  727.33   34.40
   2  -8  -1  675.03   37.40
   2  -8  -1  697.53   41.20
  -2   8   1  702.33   37.90
   1  -8  -1 1412.46   60.89
   1  -8  -1 1484.15   58.39
   1  -8  -1 1468.35   59.79
  -1   8   1 1289.27   73.79
  -1   8   1 1516.15   57.39
  -1   8   1 1439.56   58.89
   0  -8  -1   12.40    6.90
   0  -8  -1   28.30   11.20
   0  -8  -1   28.10    9.30
   0  -8  -1   17.40    8.40
   0   8   1   28.30    8.90
   0   8   1   25.90    9.00
   0   8   1   24.60    7.50
  -1  -8  -1   71.69   13.90
  -1  -8  -1   96.09   14.20
  -1  -8  -1   86.29   12.20
   1   8   1  104.89   14.30
   1   8   1   98.19   16.70
   1   8   1   90.99   10.70
  -2  -8  -1  776.72   41.00
  -2  -8  -1  800.42   35.40
  -2  -8  -1  706.03   31.60
   2   8   1  721.33   40.80
   2   8   1  728.03   34.60
  -3  -8  -1  101.39   18.20
  -3  -8  -1   98.49   10.60
  -3  -8  -1   93.59   10.90
   3   8   1   82.99   13.30
  -4  -8  -1   47.30   10.70
  -4  -8  -1   53.59    9.70
  -4  -8  -1   56.69   13.70
  -4  -8  -1   40.60   12.60
  -5  -8  -1   19.00   11.20
  -5  -8  -1   24.90   12.10
  -5  -8  -1   29.70   12.20
  -5  -8  -1   37.40    8.80
   3  -9  -1   73.99   12.00
  -3   9   1   53.99   14.80
   2  -9  -1  118.49   16.70
   2  -9  -1  163.38   23.50
  -2   9   1   89.89   16.60
   1  -9  -1  278.27   23.20
   1  -9  -1  314.07   25.60
  -1   9   1  319.77   26.60
   0  -9  -1    2.10    7.50
   0  -9  -1   -3.90    7.00
   0   9   1    2.90    5.00
  -1  -9  -1  148.99   15.40
  -1  -9  -1  112.99   15.20
   1   9   1  126.79   14.10
   1   9   1  117.59   12.90
  -2  -9  -1  217.28   16.80
  -2  -9  -1  241.78   23.70
  -2  -9  -1  181.88   17.30
   2   9   1  185.88   17.60
  -3  -9  -1  461.85   25.00
  -3  -9  -1  439.66   26.10
  -3  -9  -1  483.35   34.10
  -4  -9  -1   20.50    7.60
  -4  -9  -1    9.80    9.20
  -4  -9  -1    6.20    5.90
  -4  -9  -1   11.10    9.20
  -5  -9  -1   83.79   16.10
  -5  -9  -1   30.80   12.10
  -5  -9  -1   75.79   12.00
  -5  -9  -1   66.29   16.20
   3 -10  -1   -2.70    8.80
  -3  10   1    9.30   10.30
   2 -10  -1   15.70   10.90
   2 -10  -1   18.00    9.70
  -2  10   1   13.50   10.60
   1 -10  -1    2.80    7.80
   1 -10  -1    9.40    8.10
  -1  10   1   22.70   10.00
   0 -10  -1  125.19   19.50
   0 -10  -1  123.09   19.30
  -1 -10  -1   88.89   16.90
  -1 -10  -1  119.89   17.70
  -1 -10  -1   85.69   15.80
   1  10   1   82.39   13.60
  -2 -10  -1   16.60    8.20
  -2 -10  -1   30.10   12.30
  -3 -10  -1    0.90    6.40
  -3 -10  -1    4.20    7.00
  -3 -10  -1   10.00    6.80
   3  10   1   -4.50    7.60
  -4 -10  -1  271.07   27.90
  -4 -10  -1  248.28   26.70
  -4 -10  -1  305.17   21.60
   4  10   1  243.68   24.80
  -5 -10  -1    6.70    9.70
   2 -11  -1  122.39   22.30
   2 -11  -1  113.39   18.80
   1 -11  -1   47.70   13.30
   1 -11  -1   40.90   13.20
  -1  11   1   27.30    9.40
   0 -11  -1  193.48   22.50
   0 -11  -1  205.28   21.70
   0  11   1  213.18   19.90
  -1 -11  -1   14.70    8.60
  -1 -11  -1   19.10    9.60
   1  11   1   11.90    7.60
  -2 -11  -1   22.30   10.70
  -2 -11  -1   54.29   12.50
  -3 -11  -1  334.67   24.90
  -3 -11  -1  311.17   29.30
  -4 -11  -1  284.07   28.70
  -4 -11  -1  292.57   30.80
  -4 -11  -1  346.77   24.80
   1 -12  -1   41.60   13.20
   1 -12  -1   82.89   17.30
  -1  12   1   65.29   13.40
   0 -12  -1  348.87   31.40
   0 -12  -1  472.15   63.69
   0  12   1  359.66   27.40
  -1 -12  -1  105.09   19.50
  -1 -12  -1  119.89   22.90
   1  12   1  103.69   17.50
  -2 -12  -1    5.00    8.00
  -2 -12  -1    6.70    8.60
  -3 -12  -1   18.80    9.10
  -3 -12  -1   10.30    9.60
  -1 -13  -1  421.56   34.60
  -1 -13  -1  497.25   38.70
  -3 -12   2   75.19   20.50
  -3 -12   2   28.30   10.80
  -3 -12   2   26.60   14.00
  -2 -12   2  272.47   24.50
  -2 -12   2  168.98   26.40
  -1 -12   2  394.76   30.50
  -1 -12   2  399.96   37.50
   0  12  -2    8.70    8.60
   0 -12   2   15.60    9.80
   0 -12   2    0.30    9.60
  -1  12  -2   11.40   10.60
   1 -12   2   -6.40    8.60
   1 -12   2  -19.70    8.60
   4  11  -2  -21.60   21.70
  -4 -11   2   18.00   13.70
  -4 -11   2    7.10   12.50
  -4 -11   2   28.20    9.40
   3  11  -2   -1.80   10.50
  -3 -11   2    6.70   15.50
  -3 -11   2   11.30    7.70
  -3 -11   2   -1.80    8.10
  -2 -11   2   27.90    9.50
  -2 -11   2    6.40    9.80
  -1 -11   2   96.69   18.90
  -1 -11   2  119.09   19.20
   0  11  -2  173.88   19.40
   0 -11   2  139.39   22.10
   0 -11   2  209.08   21.70
  -1  11  -2   -0.90    7.10
   1 -11   2   -0.70    9.00
   1 -11   2    5.20    9.20
  -2  11  -2   18.00   11.00
   2 -11   2    7.50    9.80
   4  10  -2   13.30   11.50
  -4 -10   2   17.20    9.80
  -4 -10   2   -1.60   11.20
  -4 -10   2   25.00    7.80
   3  10  -2    5.50    7.80
  -3 -10   2   23.30    7.40
  -3 -10   2   11.30    8.30
  -3 -10   2    9.70    9.10
   2  10  -2   14.40    8.00
  -2 -10   2   32.40    9.80
  -2 -10   2   16.20    8.90
   1  10  -2  299.37   22.70
  -1 -10   2  327.27   28.40
   0  10  -2   94.39   16.20
   0 -10   2   55.99   13.50
   0 -10   2   77.19   16.50
  -1  10  -2   93.19   16.00
   1 -10   2   98.29   17.50
   1 -10   2   69.59   16.10
  -2  10  -2   32.90   12.20
   2 -10   2   21.10   10.20
  -3  10  -2   50.19   14.00
   3 -10   2   56.69   15.10
  -5  -9   2  140.89   23.70
  -5  -9   2  161.48   25.80
  -4  -9   2  110.39   11.50
  -4  -9   2   68.69   18.20
  -4  -9   2   69.29   17.20
   3   9  -2  203.68   17.20
  -3  -9   2  236.68   16.80
  -3  -9   2  256.97   24.30
  -3  -9   2  232.38   25.10
   2   9  -2   26.20    8.50
  -2  -9   2   33.20    9.00
  -2  -9   2   26.20    8.10
  -2  -9   2   21.80   10.60
   1   9  -2   75.99   12.90
   1   9  -2   87.39   14.20
  -1  -9   2   76.69   13.00
  -1  -9   2  116.39   16.50
  -1  -9   2   89.29   16.80
   0   9  -2    8.30    6.60
   0   9  -2    0.20    6.20
   0   9  -2   13.00    7.30
   0  -9   2   12.90    8.10
   0  -9   2   -4.10    8.10
   0  -9   2    7.70    8.80
   0  -9   2   11.40    8.60
  -1   9  -2   -6.40    6.00
  -1   9  -2    2.70    8.00
   1  -9   2   -9.70    8.60
   1  -9   2    4.20    6.50
   1  -9   2    5.20    6.50
  -2   9  -2   74.99   13.70
  -2   9  -2   96.69   16.60
   2  -9   2   96.39   15.20
  -3   9  -2  459.35   32.50
  -3   9  -2  414.66   27.70
   3  -9   2  437.76   27.50
  -5  -8   2  154.48   10.70
  -5  -8   2  142.09   21.90
  -5  -8   2  118.69   21.70
  -4  -8   2   25.90   11.40
  -4  -8   2   19.10   10.40
  -4  -8   2   20.60    5.80
   3   8  -2  401.96   22.10
  -3  -8   2  342.97   27.40
  -3  -8   2  366.96   29.70
  -3  -8   2  383.26   22.70
  -3  -8   2  381.96   20.90
   2   8  -2  328.47   19.90
   2   8  -2  302.07   25.50
  -2  -8   2  304.47   19.80
  -2  -8   2  332.47   20.30
  -2  -8   2  307.27   24.90
   1   8  -2   12.90    7.40
   1   8  -2    7.10    9.00
   1   8  -2   17.40    6.30
  -1  -8   2   12.60    7.80
  -1  -8   2    4.50    5.70
  -1  -8   2   -0.30    5.10
   0   8  -2  699.13   44.30
   0   8  -2  805.62   36.00
   0  -8   2  760.92   39.40
   0  -8   2  786.62   38.70
  -1   8  -2   14.50    8.00
  -1   8  -2   29.20    9.90
  -1   8  -2   17.30    8.30
   1  -8   2   27.50    8.60
   1  -8   2   10.50    7.10
   1  -8   2   33.10   12.30
   1  -8   2   10.00    9.10
  -2   8  -2  421.46   27.30
  -2   8  -2  429.86   28.40
   2  -8   2  373.66   30.40
   2  -8   2  429.06   26.40
  -3   8  -2   10.30    8.50
  -3   8  -2   20.60   10.40
   3  -8   2    3.10   10.70
   3  -8   2   19.90    7.70
  -4   8  -2  157.48   24.80
  -5  -7   2  202.38   24.00
  -5  -7   2  194.18   22.60
  -5  -7   2  175.18   10.60
  -5  -7   2  179.58   20.60
  -4  -7   2   26.30    5.50
  -4  -7   2   18.90   11.20
  -4  -7   2   24.00    8.00
   3   7  -2  470.95   27.80
   3   7  -2  452.45   30.60
  -3  -7   2  434.96   29.10
  -3  -7   2  430.66   23.90
  -3  -7   2  422.86   30.30
   2   7  -2  210.38   14.40
  -2  -7   2  215.08   14.90
  -2  -7   2  247.78   20.90
  -2  -7   2  210.28   15.40
   1   7  -2  253.87   16.90
   1   7  -2  248.08   20.50
   1   7  -2  255.37   16.50
  -1  -7   2  229.78   16.60
  -1  -7   2  232.18   16.70
  -1  -7   2  234.88   19.60
   0   7  -2  135.99   13.60
   0   7  -2  144.89   13.20
   0   7  -2  150.48   16.30
   0  -7   2  147.29   14.90
   0  -7   2  140.89   14.80
   0  -7   2  161.88   15.30
  -1   7  -2 1550.14   59.69
  -1   7  -2 1582.24   57.79
   1  -7   2 1503.85   65.99
   1  -7   2 1476.05   57.49
   1  -7   2 1514.05   58.39
   1  -7   2 1490.65   60.89
  -2   7  -2 1067.49   45.10
  -2   7  -2 1035.40   47.10
   2  -7   2 1044.20   44.60
   2  -7   2 1099.29   44.40
  -3   7  -2    6.40    6.60
  -3   7  -2   13.40   10.50
   3  -7   2    1.90    6.10
   3  -7   2    8.50    8.70
  -4   7  -2  511.15   36.10
   4  -7   2  433.66   30.90
  -6  -6   2  218.08   21.70
  -6  -6   2  178.88   25.70
  -6  -6   2  157.88   25.70
  -5  -6   2   56.29   15.40
  -5  -6   2   37.40    5.30
  -5  -6   2   43.00   12.30
  -5  -6   2   46.50   13.90
   4   6  -2   74.99   14.60
  -4  -6   2  127.39   18.60
  -4  -6   2   85.89    7.40
  -4  -6   2  102.09   28.70
   3   6  -2 1384.76   46.30
   3   6  -2 1260.57   55.29
  -3  -6   2 1384.06   55.69
  -3  -6   2 1402.86   58.49
  -3  -6   2 1292.97   43.70
  -3  -6   2 1197.28   48.10
   2   6  -2 1720.23   55.49
   2   6  -2 1721.53   65.79
  -2  -6   2 1633.34   57.49
  -2  -6   2 1650.33   64.09
  -2  -6   2 1725.83   66.19
  -2  -6   2 1719.93   55.79
   1   6  -2   17.50    5.70
   1   6  -2   36.10   10.00
   1   6  -2   17.90    5.70
  -1  -6   2   31.40    7.30
  -1  -6   2   14.60    6.40
  -1  -6   2   15.90    5.20
   0   6  -2  136.29   12.60
   0   6  -2  128.89   13.30
   0   6  -2  141.89   12.70
   0  -6   2  169.78   15.10
   0  -6   2  161.98   13.30
   0  -6   2  149.09   13.10
  -1   6  -2  981.40   40.80
  -1   6  -2  959.00   39.60
  -1   6  -2  914.91   40.60
   1  -6   2 1018.30   43.30
   1  -6   2  910.41   41.00
   1  -6   2  953.40   39.90
   1  -6   2  965.90   39.70
  -2   6  -2   -1.70    5.50
  -2   6  -2   -1.30    4.90
  -2   6  -2    3.70    6.90
   2  -6   2    0.10    6.80
   2  -6   2    6.20    5.20
   2  -6   2    0.10    4.60
  -3   6  -2    6.80    8.10
   3  -6   2   -0.90    6.40
   3  -6   2   10.40    5.10
  -4   6  -2   67.89   14.90
   4  -6   2   51.89   12.40
  -5   6  -2  -12.70    9.00
  -6  -5   2   -4.10    7.40
  -6  -5   2    4.70    9.70
  -6  -5   2   22.30    9.50
  -5  -5   2    5.30    3.40
  -5  -5   2    3.00    6.30
  -5  -5   2   18.60    9.50
  -5  -5   2    0.30    9.10
   4   5  -2   67.89   13.60
  -4  -5   2   57.29   10.90
  -4  -5   2   64.49   13.30
  -4  -5   2   55.19    5.80
   3   5  -2   79.29   13.60
  -3  -5   2   78.39    6.60
  -3  -5   2   93.79   14.60
  -3  -5   2   75.09   13.80
   2   5  -2 1944.61   59.99
   2   5  -2 1925.81   69.39
  -2  -5   2 1907.31   59.79
  -2  -5   2 1977.60   69.09
  -2  -5   2 2065.79   71.19
  -2  -5   2 1828.92   62.69
   1   5  -2  914.61   38.80
   1   5  -2  856.71   32.20
  -1  -5   2  892.61   33.10
  -1  -5   2  907.81   38.10
  -1  -5   2  885.31   33.40
   0   5  -2   92.69   12.70
   0   5  -2   89.29    9.10
   0   5  -2   89.29    9.30
   0  -5   2  102.39   10.00
   0  -5   2   88.59   12.60
   0  -5   2   90.59   12.30
  -1   5  -2   50.59    9.80
  -1   5  -2   56.59   10.30
  -1   5  -2   46.70    9.00
   1  -5   2   46.40    9.70
   1  -5   2   53.39    9.10
   1  -5   2   51.99    9.60
   1  -5   2   51.59   10.40
  -2   5  -2   22.40    7.90
  -2   5  -2    8.90    6.20
  -2   5  -2   19.40    6.10
   2  -5   2   15.00    5.20
   2  -5   2   15.40    7.80
   2  -5   2   21.10    6.40
  -3   5  -2  640.74   26.90
  -3   5  -2  647.54   35.20
  -3   5  -2  691.33   36.80
   3  -5   2  657.03   38.10
   3  -5   2  641.14   26.80
   3  -5   2  672.03   30.60
  -4   5  -2   20.40   10.50
   4  -5   2   26.60    8.70
  -5   5  -2    8.10   18.70
   5  -5   2   -2.70   11.10
  -6  -4   2   22.10    9.70
  -6  -4   2   14.50    6.50
  -6  -4   2   -1.40    6.20
  -6  -4   2   14.90   10.50
  -5  -4   2  165.88   15.40
  -5  -4   2  174.88   20.70
  -5  -4   2  163.08   10.80
  -5  -4   2  162.08   11.50
  -5  -4   2  141.29   22.10
  -4  -4   2  103.79   17.10
  -4  -4   2   98.79    7.70
  -4  -4   2  120.29   18.20
  -4  -4   2  127.09   13.10
   3   4  -2  131.59   13.40
  -3  -4   2  123.49   12.30
  -3  -4   2  129.49   17.10
   2   4  -2   38.80    5.30
   2   4  -2   45.90    8.80
  -2  -4   2   39.90    8.60
  -2  -4   2   42.50    9.70
   1   4  -2    4.90    3.30
   1   4  -2   -5.50    7.30
  -1  -4   2   10.50    4.00
  -1  -4   2    9.80    5.70
  -1  -4   2    3.80    3.70
   0   4  -2  362.86   18.20
   0   4  -2  366.66   17.70
   0   4  -2  380.56   20.20
   0  -4   2  363.06   18.70
   0  -4   2  410.16   18.80
   0  -4   2  403.96   20.40
  -1   4  -2  588.44   25.80
  -1   4  -2  570.04   24.90
  -1   4  -2  580.04   26.70
   1  -4   2  573.64   24.30
   1  -4   2  575.04   27.60
   1  -4   2  591.04   25.00
   1  -4   2  521.55   25.80
  -2   4  -2  481.35   26.00
  -2   4  -2  494.65   21.70
  -2   4  -2  527.65   27.10
   2  -4   2  472.45   26.80
   2  -4   2  507.85   21.90
   2  -4   2  479.85   21.90
  -3   4  -2  114.99   16.60
  -3   4  -2   99.49   15.50
  -3   4  -2   95.19    8.20
  -3   4  -2  129.49   14.00
   3  -4   2   80.79   12.80
   3  -4   2  106.29   17.90
   3  -4   2   82.09    8.20
  -4   4  -2   94.09   13.00
  -4   4  -2   85.59   16.00
   4  -4   2   92.89   12.80
  -5   4  -2   45.40   13.90
  -5   4  -2   67.09   12.30
   5  -4   2   32.90   11.50
  -6  -3   2   37.30    8.00
  -6  -3   2   28.10   13.50
  -6  -3   2   33.70   14.50
  -6  -3   2   57.69    9.30
  -5  -3   2  185.88   12.80
  -5  -3   2  182.48   14.30
  -5  -3   2  205.08   21.20
  -5  -3   2  164.38   15.00
  -5  -3   2  191.18   22.90
  -4  -3   2   -1.80    3.70
  -4  -3   2    3.50    3.10
  -4  -3   2   -6.60    5.70
  -4  -3   2    3.20    6.00
  -3  -3   2  424.76   21.70
  -3  -3   2  421.66   25.10
   2   3  -2 3919.41  113.99
  -2  -3   2 3245.98  129.19
  -2  -3   2 3954.70  104.79
  -2  -3   2 3850.81  113.19
   1   3  -2  248.28   10.50
   1   3  -2  255.57   15.10
  -1  -3   2  212.48   14.20
  -1  -3   2  218.58   12.00
  -1  -3   2  236.08   14.30
  -1  -3   2  222.48   10.40
   0   3  -2   45.70    6.60
   0   3  -2   79.59    7.30
   0   3  -2   71.09    9.10
   0  -3   2   52.89    7.30
   0  -3   2   62.89    8.40
   0  -3   2   76.69    7.20
  -1   3  -2  185.68   11.40
  -1   3  -2  182.08   12.50
  -1   3  -2  177.08   12.70
   1  -3   2  190.18   11.10
   1  -3   2  183.38   11.50
   1  -3   2  182.38   13.00
  -2   3  -2 1096.69   42.90
  -2   3  -2 1045.40   36.90
  -2   3  -2 1107.29   42.90
  -2   3  -2 1104.49   36.60
   2  -3   2 1076.39   43.70
   2  -3   2 1091.09   37.10
   2  -3   2 1082.09   36.70
  -3   3  -2   23.60    7.70
  -3   3  -2   27.90    4.50
  -3   3  -2   26.10    8.90
  -3   3  -2   31.40    7.10
   3  -3   2   23.40    9.70
   3  -3   2   24.50    6.20
  -4   3  -2   77.79   13.90
  -4   3  -2  106.89   11.60
   4  -3   2   95.09   11.50
  -5   3  -2    7.60    7.10
  -5   3  -2   26.00   11.40
   5  -3   2    6.40    8.10
  -6   3  -2   36.60   11.60
  -6   3  -2   15.40   15.40
  -6  -2   2   78.99   10.90
  -6  -2   2   58.19   10.80
  -6  -2   2   68.49   15.30
  -6  -2   2   65.49   17.70
   5   2  -2   10.30    9.30
  -5  -2   2    9.60    5.50
  -5  -2   2   -1.10    4.90
  -5  -2   2   13.30   10.20
  -5  -2   2   10.40    8.20
   4   2  -2  139.19   16.00
  -4  -2   2  164.68   11.70
  -4  -2   2  178.08   19.10
  -4  -2   2  137.69   10.50
  -4  -2   2  145.89   11.60
  -4  -2   2  158.68   16.30
   3   2  -2 2482.85   81.59
   3   2  -2 2378.36   74.89
  -3  -2   2 2458.25   83.69
  -3  -2   2 2310.67   80.19
  -3  -2   2 2506.35   74.89
  -3  -2   2 2268.47   78.79
   2   2  -2 1211.08   44.00
   2   2  -2 1220.18   41.00
  -2  -2   2 1157.28   40.40
  -2  -2   2 1160.18   34.90
  -2  -2   2 1190.18   43.90
  -1   2  -2 1044.10   34.10
  -1   2  -2 1050.49   35.90
  -1   2  -2 1033.50   36.80
   1  -2   2 1046.00   32.40
   1  -2   2 1026.90   36.20
  -2   2  -2  173.38    9.40
  -2   2  -2  188.08   13.80
  -2   2  -2  183.78   16.20
   2  -2   2  158.58    9.90
   2  -2   2  167.68    9.80
   2  -2   2  187.18   14.50
  -3   2  -2  461.65   16.80
  -3   2  -2  459.25   20.20
  -3   2  -2  431.46   25.90
  -3   2  -2  440.96   25.00
   3  -2   2  446.36   20.40
   3  -2   2  451.05   27.20
  -4   2  -2  153.68   22.00
  -4   2  -2  183.68   18.70
  -4   2  -2  205.68   20.00
   4  -2   2  120.69   18.90
   4  -2   2  137.89   15.00
  -5   2  -2   87.29   12.40
  -5   2  -2   64.99   16.10
   5  -2   2   61.39   12.00
  -6   2  -2    4.30   14.60
  -6   2  -2   43.40   11.70
  -6  -1   2  350.56   25.50
  -6  -1   2  359.76   22.80
  -6  -1   2  372.96   29.40
  -6  -1   2  368.16   34.70
   5   1  -2   94.39   16.10
  -5  -1   2   87.59   15.30
  -5  -1   2  101.39   19.60
  -5  -1   2  111.59   11.90
   4   1  -2 1098.39   46.40
  -4  -1   2  985.40   38.30
  -4  -1   2  985.60   48.60
  -4  -1   2 1065.19   45.10
   3   1  -2   37.40    8.60
  -3  -1   2   33.70    8.50
  -3  -1   2   26.80    5.40
  -3  -1   2   33.40    7.80
  -3  -1   2   19.20    7.90
   2   1  -2 1205.08   43.10
   2   1  -2 1173.58   38.20
  -2  -1   2 1206.98   44.80
  -2  -1   2 1203.38   36.30
  -2  -1   2 1155.68   42.60
   1   1  -2  444.06   19.20
   1   1  -2  482.15   17.70
  -1  -1   2  482.75   19.80
  -1  -1   2  447.46   17.40
   0   1  -2  711.43   22.60
   0   1  -2  706.03   22.30
   0   1  -2  677.83   23.40
   0  -1   2  723.43   22.30
   0  -1   2  710.23   22.70
   0  -1   2  700.03   23.50
  -1   1  -2 5369.86  144.29
  -1   1  -2 5262.67  145.99
   1  -1   2 5235.88  141.19
   1  -1   2 5030.20  145.79
   1  -1   2 5046.90  144.39
  -2   1  -2  459.05   21.80
  -2   1  -2  426.06   16.50
  -2   1  -2  441.46   16.40
   2  -1   2  413.96   16.40
   2  -1   2  394.96   21.10
  -3   1  -2   55.59    5.30
  -3   1  -2   72.19   11.80
  -3   1  -2   59.79    7.20
   3  -1   2   49.30   10.70
   3  -1   2   59.49    7.90
  -4   1  -2 1517.15   51.29
  -4   1  -2 1501.65   42.70
  -4   1  -2 1425.06   59.79
  -4   1  -2 1387.36   56.69
  -5   1  -2  777.52   44.20
  -5   1  -2  761.82   33.80
  -5   1  -2  706.03   39.00
   5  -1   2  802.32   35.80
  -6   1  -2    6.60    8.50
  -6   1  -2  -17.40   10.80
  -6   0   2   53.99   12.10
  -6   0   2   65.69   15.10
   5   0  -2   45.60   13.30
  -5   0   2   44.10   10.10
  -5   0   2   54.89   12.90
  -5   0   2   55.79   16.20
   4   0  -2  264.47   20.90
  -4   0   2  286.57   17.50
  -4   0   2  300.87   24.50
  -4   0   2  283.37   20.50
   3   0  -2  157.28   14.20
  -3   0   2  144.09    6.80
  -3   0   2  146.39   15.20
  -3   0   2  155.38   13.50
  -3   0   2  163.28   11.10
   2   0  -2  578.84   25.10
   2   0  -2  551.54   18.40
  -2   0   2  558.54   20.90
  -2   0   2  572.44   27.00
  -2   0   2  537.95   18.30
  -2   0   2  596.64   25.10
   1   0  -2 1586.94   46.30
   1   0  -2 1605.44   46.10
   1   0  -2 1597.14   49.99
  -1   0   2 1642.24   51.19
  -1   0   2 1621.24   45.90
  -1   0   2 1566.44   46.40
   0   0  -2  412.46   14.80
   0   0  -2  406.76   13.80
   0   0  -2  398.66   13.90
   0   0   2  416.96   13.90
   0   0   2  397.86   14.00
   0   0   2  424.16   15.10
  -1   0  -2    1.80    2.90
  -1   0  -2    0.80    1.50
   1   0   2    2.80    3.20
  -2   0  -2  177.48    9.30
  -2   0  -2  171.28   12.40
   2   0   2  168.18   12.60
   2   0   2  184.38    9.50
  -3   0  -2    1.80    4.90
  -3   0  -2    3.00    3.20
   3   0   2   -4.50    2.80
   3   0   2    7.70    5.20
  -4   0  -2  406.46   17.40
  -4   0  -2  407.46   22.60
  -4   0  -2  374.76   25.70
   4   0   2  347.17   26.20
  -5   0  -2   48.70   12.10
  -5   0  -2   23.70   10.90
  -5   0  -2   44.10    8.70
  -6   0  -2  269.27   21.90
  -6   0  -2  326.17   30.70
  -6   1   2   -9.10   10.80
  -6   1   2  -16.20    9.60
   5  -1  -2  837.32   43.30
  -5   1   2  829.52   48.70
  -5   1   2  811.62   37.90
  -5   1   2  815.92   40.70
   4  -1  -2   11.60    7.30
  -4   1   2   19.60    8.00
  -4   1   2   15.50    7.20
  -4   1   2   17.10    9.70
   3  -1  -2  213.68   15.80
   3  -1  -2  203.48   18.00
  -3   1   2  205.48   18.20
  -3   1   2  199.28   15.20
   2  -1  -2  763.22   33.50
   2  -1  -2  721.83   30.00
  -2   1   2  762.52   28.20
  -2   1   2  750.22   30.30
  -2   1   2  805.62   37.40
   1  -1  -2   59.29    8.20
   1  -1  -2   64.29    7.60
   1  -1  -2   61.89    7.60
  -1   1   2   61.19    5.70
  -1   1   2   55.59    7.20
  -1   1   2   64.69    8.50
   0  -1  -2 3725.03  102.49
   0  -1  -2 3686.53  102.19
   0  -1  -2 3581.94  100.79
   0   1   2 3642.94  102.19
   0   1   2 3643.64  100.79
   0   1   2 3695.63  102.59
  -1  -1  -2  235.28    9.70
  -2  -1  -2  764.42   28.60
   2   1   2  706.93   28.30
  -3  -1  -2  543.65   23.60
  -3  -1  -2  558.74   23.20
  -3  -1  -2  538.55   27.10
  -4  -1  -2  568.44   26.80
  -4  -1  -2  560.74   24.40
  -4  -1  -2  593.34   32.60
  -5  -1  -2    4.20    5.10
  -5  -1  -2   10.50    4.80
  -5  -1  -2    9.90    4.20
  -6  -1  -2   15.40   11.20
  -6  -1  -2   23.50   12.50
  -6  -1  -2   24.50    9.00
  -6   2   2   68.69   15.70
  -6   2   2   29.70   15.20
   5  -2  -2   21.50   12.30
  -5   2   2   15.70   13.00
  -5   2   2   22.40    9.50
  -5   2   2   36.50   10.50
   4  -2  -2   27.30    8.70
  -4   2   2   10.80    9.90
  -4   2   2   12.00    8.10
  -4   2   2   14.90    6.70
   3  -2  -2  149.79   13.80
   3  -2  -2  122.69   14.60
  -3   2   2  159.28   14.10
  -3   2   2  127.79   15.60
  -3   2   2  155.68   12.60
   2  -2  -2   89.59    9.90
   2  -2  -2  108.89   11.70
   2  -2  -2   95.09   10.00
  -2   2   2  107.69   10.80
  -2   2   2  102.19   12.60
  -2   2   2   94.19    9.20
   1  -2  -2  968.30   31.40
   1  -2  -2 1004.60   36.20
   1  -2  -2 1019.90   35.20
   1  -2  -2  999.70   34.40
  -1   2   2  974.00   34.80
  -1   2   2  997.40   35.90
  -1   2   2  998.90   34.00
   0  -2  -2 2771.42   80.79
   0  -2  -2 2732.83   78.49
   0  -2  -2 2731.03   80.29
   0   2   2 2731.23   81.29
   0   2   2 2818.42   80.29
   0   2   2 2812.92   78.29
  -1  -2  -2 6212.58  173.38
   1   2   2 6214.08  173.98
  -2  -2  -2  547.25   23.30
  -2  -2  -2  553.14   22.90
  -2  -2  -2  507.35   22.00
  -2  -2  -2  507.85   21.80
  -3  -2  -2  174.68   13.50
  -3  -2  -2  174.98   12.90
  -3  -2  -2  170.48   12.70
  -4  -2  -2  291.47   19.00
  -4  -2  -2  285.87   20.10
  -4  -2  -2  290.37   21.60
  -4  -2  -2  281.67   17.50
  -5  -2  -2   87.89   13.30
  -5  -2  -2  110.49   16.50
  -5  -2  -2  114.09   18.40
  -6  -2  -2   87.59   14.50
  -6  -2  -2   75.59   14.30
  -6  -2  -2   99.59   17.20
  -6  -2  -2  103.69   17.10
  -6  -2  -2   62.89   16.40
  -6  -2  -2  104.69    9.60
   5  -3  -2   29.40   12.50
  -5   3   2   33.10   12.50
  -5   3   2   31.40   13.00
   4  -3  -2   40.60   11.20
  -4   3   2   39.80   10.20
  -4   3   2   29.60   11.70
   3  -3  -2   12.60    5.50
   3  -3  -2   22.30    9.00
  -3   3   2   26.90    8.00
  -3   3   2   29.50    9.70
  -3   3   2   15.60    6.10
   2  -3  -2  161.08    8.10
   2  -3  -2  149.49   13.30
   2  -3  -2  143.49   12.70
   2  -3  -2  164.68   15.10
  -2   3   2  143.29   14.10
  -2   3   2  153.68   13.30
  -2   3   2  157.68   12.80
   1  -3  -2   57.79    9.10
   1  -3  -2   52.99    8.30
   1  -3  -2   70.79    9.50
   1  -3  -2   57.79    8.20
  -1   3   2   51.69    8.80
  -1   3   2   61.99    8.70
  -1   3   2   64.99    9.10
   0  -3  -2 1831.42   58.69
   0  -3  -2 1852.71   58.99
   0  -3  -2 1815.02   56.09
   0  -3  -2 1869.61   58.19
   0   3   2 1908.11   57.99
  -1  -3  -2  574.74   22.60
  -1  -3  -2  570.44   25.20
  -1  -3  -2  581.64   19.00
   1   3   2  552.34   22.50
  -2  -3  -2   33.00    5.90
  -2  -3  -2   33.70    7.30
   2   3   2   26.90    6.70
  -3  -3  -2  851.81   36.10
  -3  -3  -2  884.01   36.70
  -3  -3  -2  803.82   33.40
  -3  -3  -2  865.61   36.30
  -4  -3  -2    3.20    5.00
  -4  -3  -2   -0.60    4.60
  -4  -3  -2    6.20    5.30
  -4  -3  -2    8.20    5.60
  -5  -3  -2   76.89   11.80
  -5  -3  -2   53.39   11.40
  -5  -3  -2   78.39   13.00
  -5  -3  -2   57.59   14.00
  -6  -3  -2    5.60    6.10
  -6  -3  -2   27.60   12.90
  -6  -3  -2   17.90    9.30
  -6  -3  -2   32.30    9.90
  -5   4   2  173.38   21.20
  -5   4   2  156.28   23.40
  -4   4   2  204.68   19.60
  -4   4   2  216.58   22.80
  -4   4   2  219.98   18.60
   3  -4  -2  185.18   19.20
   3  -4  -2  195.08   16.80
  -3   4   2  219.28   20.80
  -3   4   2  199.98   17.30
  -3   4   2  185.28   16.20
   2  -4  -2 1327.57   54.09
   2  -4  -2 1379.66   44.20
   2  -4  -2 1306.57   51.99
   2  -4  -2 1325.47   50.49
  -2   4   2 1524.95   52.39
  -2   4   2 1426.56   53.89
  -2   4   2 1352.16   50.89
   1  -4  -2  801.72   31.10
   1  -4  -2  797.12   34.00
   1  -4  -2  848.72   34.00
   1  -4  -2  886.81   34.00
  -1   4   2  811.32   36.90
  -1   4   2  781.12   32.60
   0  -4  -2  257.17   14.10
   0  -4  -2  262.87   16.20
   0  -4  -2  260.77   15.10
   0  -4  -2  239.28   15.70
   0   4   2  276.97   15.50
   0   4   2  273.77   13.70
  -1  -4  -2  400.36   16.00
  -1  -4  -2  392.46   21.50
  -1  -4  -2  392.46   18.70
   1   4   2  442.96   19.60
   1   4   2  404.36   16.00
  -2  -4  -2 1533.25   51.09
  -2  -4  -2 1568.34   56.29
   2   4   2 1513.55   52.49
  -3  -4  -2   31.50    8.50
  -3  -4  -2   22.20    7.50
  -3  -4  -2   12.50    5.70
  -3  -4  -2   23.50    7.70
  -4  -4  -2  633.84   31.90
  -4  -4  -2  600.54   32.00
  -4  -4  -2  573.64   31.60
  -4  -4  -2  600.34   28.50
  -5  -4  -2   10.70    8.40
  -5  -4  -2    5.00    6.90
  -5  -4  -2   -0.40    5.70
  -5  -4  -2   -3.50    5.20
  -6  -4  -2   35.60   12.50
  -6  -4  -2   36.60   10.40
  -6  -4  -2   32.90   13.30
  -6  -4  -2   39.50   11.10
  -5   5   2   -2.10   10.30
  -5   5   2   -0.60   10.40
   4  -5  -2   49.00   13.10
  -4   5   2   26.50   12.60
  -4   5   2   44.50   12.80
   3  -5  -2   18.50    8.40
   3  -5  -2   26.10   10.70
   3  -5  -2   12.80    4.00
   3  -5  -2   15.40    8.40
  -3   5   2    3.90    7.70
  -3   5   2   15.00    9.30
  -3   5   2    6.10    6.50
   2  -5  -2  279.97   15.60
   2  -5  -2  334.07   22.20
   2  -5  -2  270.37   21.40
   2  -5  -2  303.77   20.40
  -2   5   2  312.07   20.30
  -2   5   2  308.07   21.70
  -2   5   2  319.57   21.40
   1  -5  -2  534.25   27.70
   1  -5  -2  574.74   26.10
   1  -5  -2  538.35   26.90
   1  -5  -2  560.74   28.00
  -1   5   2  599.14   27.70
  -1   5   2  588.44   27.40
   0  -5  -2  740.93   37.10
   0  -5  -2  774.02   30.90
   0  -5  -2  764.82   33.50
   0  -5  -2  812.02   33.10
   0   5   2  764.42   32.00
   0   5   2  776.82   33.80
   0   5   2  835.02   30.10
  -1  -5  -2  226.78   17.50
  -1  -5  -2  235.48   12.50
  -1  -5  -2  225.08   14.50
   1   5   2  240.78   14.80
  -2  -5  -2 3666.13  118.29
  -2  -5  -2 3745.73  107.99
   2   5   2 3784.42  113.59
  -3  -5  -2  353.06   23.80
  -3  -5  -2  376.16   24.00
  -3  -5  -2  333.27   18.70
   3   5   2  363.96   21.40
  -4  -5  -2    4.00    6.10
  -4  -5  -2    1.30    6.20
  -4  -5  -2    5.50    4.40
  -4  -5  -2    7.30    7.10
  -5  -5  -2   68.89   11.40
  -5  -5  -2   59.39   12.90
  -5  -5  -2   56.39   13.50
  -5  -5  -2   79.99   15.20
  -6  -5  -2   66.69   16.30
  -6  -5  -2  104.09   14.10
  -6  -5  -2   72.59   15.60
  -6  -5  -2  100.69   16.10
  -5   6   2  180.18   27.30
  -5   6   2  274.67   27.50
  -4   6   2   28.00   13.10
   3  -6  -2   38.00   11.00
   3  -6  -2   58.89   17.00
   3  -6  -2   49.60    6.70
  -3   6   2   60.69   14.60
  -3   6   2   14.40    9.20
   2  -6  -2  117.29   13.70
   2  -6  -2  109.19   11.10
   2  -6  -2  107.59   15.70
  -2   6   2  119.09   13.70
  -2   6   2  133.09   15.60
  -2   6   2  104.79   15.40
   1  -6  -2   43.30    9.60
   1  -6  -2   47.10   10.50
   1  -6  -2   51.39    9.60
   1  -6  -2   57.49   11.40
  -1   6   2   52.99   10.30
  -1   6   2   49.60    9.80
   0  -6  -2    5.90    5.10
   0  -6  -2    6.10    6.00
   0  -6  -2    6.20    4.80
   0  -6  -2   12.90    5.80
   0   6   2    7.80    5.10
   0   6   2    7.70    5.10
   0   6   2   15.70    5.60
  -1  -6  -2 1498.85   55.29
  -1  -6  -2 1515.95   59.49
  -1  -6  -2 1472.25   51.49
   1   6   2 1572.84   60.19
   1   6   2 1806.32   52.59
   1   6   2 1588.44   55.79
  -2  -6  -2  112.19   10.90
  -2  -6  -2  103.99    8.60
  -2  -6  -2  104.59   15.30
   2   6   2  107.79   10.90
  -3  -6  -2   30.30    7.40
  -3  -6  -2   33.80    6.70
  -3  -6  -2   48.60   11.70
   3   6   2   38.50    9.00
  -4  -6  -2  963.60   40.40
  -4  -6  -2 1102.89   49.90
  -4  -6  -2 1074.39   50.09
  -4  -6  -2 1015.90   45.50
  -5  -6  -2   -1.70    4.90
  -5  -6  -2  -17.50    9.50
  -5  -6  -2    8.80    9.00
  -5  -6  -2   -1.50    7.00
  -6  -6  -2   81.39   12.60
  -6  -6  -2   77.79   16.00
  -6  -6  -2   60.39   15.30
  -6  -6  -2   79.79   15.70
  -4   7   2  137.99   22.20
   3  -7  -2  154.18   23.00
   3  -7  -2  132.79   11.40
   3  -7  -2  143.39   23.10
  -3   7   2   88.69   16.80
   2  -7  -2   12.60    9.30
   2  -7  -2    6.00    8.00
   2  -7  -2    4.80    8.20
   2  -7  -2   -1.50    4.80
  -2   7   2    8.20    8.80
   1  -7  -2  474.35   28.80
   1  -7  -2  432.06   27.00
   1  -7  -2  460.25   26.20
   1  -7  -2  447.36   27.00
  -1   7   2  423.36   24.90
  -1   7   2  445.66   26.70
   0  -7  -2 1785.02   66.09
   0  -7  -2 1823.82   67.59
   0  -7  -2 1792.62   63.59
   0  -7  -2 1797.22   67.09
   0   7   2 1869.11   61.49
   0   7   2 1779.12   67.49
   0   7   2 1734.13   64.59
  -1  -7  -2  910.31   37.10
  -1  -7  -2  991.00   41.20
  -1  -7  -2  994.40   45.20
   1   7   2 1104.19   37.90
   1   7   2  919.11   40.10
   1   7   2  960.20   45.00
  -2  -7  -2    8.10    5.30
  -2  -7  -2    8.80    4.60
  -2  -7  -2   10.90    6.40
   2   7   2    6.30    4.90
  -3  -7  -2  257.57   17.60
  -3  -7  -2  296.27   16.70
  -3  -7  -2  233.88   22.10
   3   7   2  257.67   19.20
  -4  -7  -2  292.17   18.10
  -4  -7  -2  300.17   28.90
  -4  -7  -2  269.17   18.40
  -4  -7  -2  295.07   29.40
  -5  -7  -2    2.00    7.70
  -5  -7  -2   13.10    6.20
  -5  -7  -2    5.30    8.60
  -5  -7  -2    4.20    7.90
  -6  -7  -2   -4.30    8.70
  -6  -7  -2   18.60    9.90
  -6  -7  -2    5.80    9.30
  -6  -7  -2   -2.00    6.80
  -4   8   2  151.78   25.60
   3  -8  -2   61.99   17.70
   3  -8  -2   71.39   10.90
  -3   8   2   60.29   15.00
   2  -8  -2   72.09   12.20
   2  -8  -2   74.79   16.90
  -2   8   2   66.59   15.10
   1  -8  -2  228.18   21.80
   1  -8  -2  297.07   27.20
   1  -8  -2  246.68   21.90
   1  -8  -2  290.07   21.60
  -1   8   2  255.87   19.80
   0  -8  -2  154.78   20.20
   0  -8  -2  107.79   15.60
   0  -8  -2  144.49   16.90
   0  -8  -2  134.09   14.80
   0   8   2  146.69   18.30
   0   8   2  140.49   13.20
  -1  -8  -2   60.09   14.10
  -1  -8  -2   48.10   11.90
  -1  -8  -2   58.79   10.40
  -1  -8  -2   37.60    9.90
   1   8   2   59.99    9.60
   1   8   2   44.00   10.00
  -2  -8  -2  179.58   13.50
  -2  -8  -2  162.08   15.30
  -2  -8  -2  158.98   18.10
   2   8   2  130.89   14.50
  -3  -8  -2  128.69   20.60
  -3  -8  -2  123.69   11.70
  -3  -8  -2  125.59   12.90
   3   8   2  103.79   15.00
  -4  -8  -2  193.58   21.10
  -4  -8  -2  154.78   23.70
  -4  -8  -2  160.08   14.40
  -4  -8  -2  171.68   15.20
  -5  -8  -2  122.09   20.40
  -5  -8  -2   85.29   12.00
  -5  -8  -2   83.89   17.60
  -5  -8  -2   80.09   15.40
  -5  -8  -2  101.79   20.50
   3  -9  -2   43.00   13.60
   3  -9  -2   47.80   10.70
  -3   9   2   58.69   14.90
   2  -9  -2  519.35   36.40
   2  -9  -2  513.45   30.50
  -2   9   2  472.25   32.30
   1  -9  -2    6.50    7.90
   1  -9  -2   18.80    9.00
   0  -9  -2   55.39   12.20
   0  -9  -2   52.59   12.00
   0  -9  -2   58.79   12.90
   0   9   2   83.09   12.90
  -1  -9  -2   59.69   12.40
  -1  -9  -2   66.19   13.00
  -1  -9  -2   69.09   26.30
   1   9   2   69.79   13.50
   1   9   2   93.69   11.40
  -2  -9  -2    6.50    8.00
  -2  -9  -2   13.10    7.70
  -2  -9  -2   26.00    8.00
   2   9   2   12.00    8.40
  -3  -9  -2   33.40    8.60
  -3  -9  -2   31.80   12.50
  -3  -9  -2   36.10    9.50
   3   9   2   25.70    9.90
  -4  -9  -2   50.19   14.50
  -4  -9  -2   67.49   11.40
  -4  -9  -2   56.19   15.20
  -4  -9  -2   67.99   12.20
   4   9   2   86.09   16.40
  -5  -9  -2   87.89   16.20
  -5  -9  -2   93.89   18.60
  -5  -9  -2   90.99   13.30
  -5  -9  -2   92.49   20.60
   3 -10  -2  277.57   22.00
  -3  10   2  288.17   28.80
   2 -10  -2    8.80    9.70
   2 -10  -2    0.50    8.30
  -2  10   2    2.30    8.00
   1 -10  -2    9.70   11.70
   1 -10  -2    5.30    8.30
  -1  10   2   10.40    7.80
   0 -10  -2   93.59   17.30
   0 -10  -2  125.49   19.70
   0  10   2  103.49   15.30
  -1 -10  -2   -3.70    6.00
  -1 -10  -2   -0.80    7.90
  -1 -10  -2   12.30    6.50
   1  10   2    8.10    6.80
  -2 -10  -2   11.50    8.10
  -2 -10  -2    5.70    8.20
  -3 -10  -2   18.20    7.90
  -3 -10  -2   15.50    9.70
  -3 -10  -2    4.70    8.10
  -4 -10  -2   94.99   19.80
  -4 -10  -2  106.69   15.70
  -4 -10  -2   66.09   11.70
  -4 -10  -2   64.59   17.00
   2 -11  -2  368.26   33.10
   2 -11  -2  339.07   28.60
   1 -11  -2   28.30   13.00
   1 -11  -2    0.60    9.20
  -1  11   2   12.30    9.50
   0 -11  -2    7.50    8.80
   0 -11  -2   31.10   13.40
   0  11   2   40.60   11.10
  -1 -11  -2   45.70   12.00
  -1 -11  -2   87.69   19.50
   1  11   2  137.69   25.40
  -2 -11  -2   19.50    9.50
  -2 -11  -2   56.19   15.90
  -2 -11  -2   11.40   10.70
  -3 -11  -2   62.19   16.60
  -3 -11  -2   54.79   12.60
  -3 -11  -2   65.29   14.10
  -4 -11  -2   58.49   12.70
  -4 -11  -2   77.29   18.40
  -4 -11  -2   46.10   15.40
   1 -12  -2    6.30    9.10
   1 -12  -2   45.90   15.90
  -1  12   2   15.60    9.20
   0 -12  -2   48.40   15.20
   0  12   2   37.90   11.60
  -1 -12  -2   46.70   12.70
  -1 -12  -2   58.99   15.90
  -2 -12  -2   -3.70    7.10
  -2 -12  -2   -6.10    7.10
  -3 -12  -2   44.90   16.10
  -3 -12  -2   58.69   13.70
  -3 -12   3  103.09   16.50
  -3 -12   3   93.89   20.80
  -3 -12   3  100.99   23.80
  -2 -12   3    4.50    7.80
  -2 -12   3    0.80   10.20
  -1 -12   3  192.18   21.70
   0  12  -3   -4.50    8.20
   0 -12   3   -5.60    8.50
   0 -12   3   11.30   10.70
  -1  12  -3    1.60    8.70
   1 -12   3    2.60    9.80
  -4 -11   3   11.70    9.80
  -4 -11   3   29.50    9.30
  -4 -11   3    3.70   11.50
   3  11  -3   -7.00    9.20
  -3 -11   3   11.80    8.20
  -2 -11   3  225.78   20.90
  -2 -11   3  178.78   26.20
  -1 -11   3   58.89   14.80
  -1 -11   3   56.19   13.70
   0  11  -3   11.40    8.50
   0 -11   3   10.60    7.90
   0 -11   3   -5.60    8.30
  -1  11  -3   70.29   15.30
   1 -11   3   40.60   14.20
  -2  11  -3    5.00    8.70
   2 -11   3  -18.90    9.30
   4  10  -3   -6.10    9.40
  -4 -10   3  -12.70    7.50
  -4 -10   3   13.50    6.00
   3  10  -3    1.40    7.70
  -3 -10   3   -0.90    5.20
  -3 -10   3    9.90    9.20
  -3 -10   3   -7.60    6.10
   2  10  -3  150.78   16.30
  -2 -10   3  163.08   16.50
  -2 -10   3  140.89   22.40
  -1 -10   3  216.18   23.10
  -1 -10   3  208.68   27.80
   0  10  -3    0.30    6.60
   0 -10   3   -5.80    6.00
   0 -10   3   12.50    8.90
  -1  10  -3   96.59   15.40
   1 -10   3  127.89   20.00
  -2  10  -3   63.19   14.60
   2 -10   3   37.90   12.90
  -3  10  -3   90.29   17.60
   3 -10   3   55.99   14.80
  -5  -9   3  191.88   23.10
  -5  -9   3  213.68   33.20
  -4  -9   3   18.10    6.20
  -4  -9   3   22.30   11.40
  -4  -9   3   13.60   12.10
   3   9  -3  339.57   21.10
  -3  -9   3  369.46   21.20
  -3  -9   3  329.37   29.40
  -3  -9   3  318.97   28.00
   2   9  -3  666.03   32.10
  -2  -9   3  679.63   33.10
  -2  -9   3  696.13   40.80
  -2  -9   3  632.44   33.90
   1   9  -3    6.50    6.90
  -1  -9   3    0.50    6.90
  -1  -9   3    0.50    7.10
  -1  -9   3    1.80    6.50
   0   9  -3    6.00    7.00
   0  -9   3    8.20    6.90
   0  -9   3   12.40   10.40
  -1   9  -3   31.80   10.30
  -1   9  -3   27.20   12.30
   1  -9   3   20.30    8.90
   1  -9   3   37.70   12.70
   1  -9   3   47.00   13.50
  -2   9  -3   -3.70    7.30
  -2   9  -3   -2.00    9.10
   2  -9   3   12.30   10.50
   2  -9   3    9.60    7.90
  -3   9  -3   14.40   12.80
  -3   9  -3    2.40   10.60
   3  -9   3    6.00    9.00
  -5  -8   3  318.87   27.40
  -5  -8   3  258.87   28.90
  -4  -8   3  702.33   44.60
  -4  -8   3  670.53   40.80
  -4  -8   3  724.43   28.20
   3   8  -3  216.48   15.40
  -3  -8   3  181.28   16.40
  -3  -8   3  243.98   24.10
  -3  -8   3  198.28   14.30
  -3  -8   3  228.58   22.60
   2   8  -3  371.56   21.10
   2   8  -3  405.16   33.10
  -2  -8   3  394.06   23.70
  -2  -8   3  381.26   27.80
  -2  -8   3  362.76   21.40
  -2  -8   3  377.86   28.40
   1   8  -3  281.67   23.80
   1   8  -3  306.97   20.30
   1   8  -3  248.88   18.20
  -1  -8   3  260.87   22.90
  -1  -8   3  300.57   20.30
   0   8  -3  277.67   36.30
   0   8  -3  232.88   21.60
   0   8  -3  241.38   18.50
   0  -8   3  218.58   19.00
   0  -8   3  232.78   20.60
   0  -8   3  236.08   19.70
  -1   8  -3  493.15   29.20
  -1   8  -3  481.45   29.80
  -1   8  -3  513.15   44.60
   1  -8   3  461.35   34.30
   1  -8   3  469.35   30.90
   1  -8   3  521.25   30.10
   1  -8   3  499.55   30.00
  -2   8  -3   46.80   12.40
  -2   8  -3   63.39   14.20
   2  -8   3   67.29   12.60
   2  -8   3   61.09   12.40
  -3   8  -3  161.28   19.20
  -3   8  -3  139.09   16.30
   3  -8   3  159.98   16.30
   3  -8   3  131.69   18.90
  -4   8  -3  124.49   21.00
   4  -8   3   89.19   19.50
   4  -8   3  101.59   18.90
  -5  -7   3    6.30    8.90
  -5  -7   3   15.50    8.70
  -5  -7   3    5.60    9.10
  -4  -7   3  414.86   17.80
  -4  -7   3  408.96   32.10
   3   7  -3  821.32   44.30
   3   7  -3  868.11   33.60
  -3  -7   3  876.41   32.60
  -3  -7   3  878.41   43.90
  -3  -7   3  801.42   45.10
  -3  -7   3  901.11   38.50
   2   7  -3  587.94   38.60
   2   7  -3  578.84   25.90
  -2  -7   3  589.14   26.80
  -2  -7   3  593.74   28.70
  -2  -7   3  630.94   35.20
  -2  -7   3  615.84   34.50
   1   7  -3  114.99   11.10
   1   7  -3  124.79   18.00
  -1  -7   3  132.89   18.10
  -1  -7   3  120.59   12.10
  -1  -7   3  126.19   12.20
   0   7  -3  658.03   34.90
   0   7  -3  727.43   31.90
   0   7  -3  691.73   32.10
   0  -7   3  586.54   30.80
   0  -7   3  612.34   33.70
   0  -7   3  647.44   32.80
  -1   7  -3  561.04   30.90
  -1   7  -3  561.54   29.60
   1  -7   3  562.04   29.50
   1  -7   3  522.65   29.50
   1  -7   3  532.45   30.90
   1  -7   3  498.35   30.70
  -2   7  -3   28.40    8.80
   2  -7   3   28.60    9.40
   2  -7   3   48.80   10.50
  -3   7  -3   84.09   16.20
  -3   7  -3   93.99   13.40
   3  -7   3   75.69   12.00
   3  -7   3   63.19   12.50
  -4   7  -3    3.00    8.20
   4  -7   3    4.60   10.30
  -6  -6   3   64.19   25.70
  -6  -6   3   81.49   15.20
  -5  -6   3   91.89   17.40
  -5  -6   3   96.59   19.00
  -5  -6   3   97.09   16.00
   4   6  -3   10.90    7.20
  -4  -6   3   14.30   10.10
  -4  -6   3    5.40    6.70
   3   6  -3   27.60   10.10
   3   6  -3   30.30    6.10
  -3  -6   3   25.80    9.00
  -3  -6   3   40.90    5.70
  -3  -6   3   32.40    7.80
  -3  -6   3   31.50   11.60
   2   6  -3   18.90    4.80
   2   6  -3   22.80    9.40
  -2  -6   3   15.90    8.20
  -2  -6   3   20.60    6.80
  -2  -6   3   21.20    7.80
  -2  -6   3   23.00    5.70
   1   6  -3   89.29   14.20
   1   6  -3   77.89    8.80
  -1  -6   3   77.89    9.20
  -1  -6   3   86.59   13.70
   0   6  -3  219.58   15.50
   0   6  -3  225.68   15.30
   0   6  -3  193.38   16.70
   0  -6   3  209.78   17.10
   0  -6   3  200.28   16.00
   0  -6   3  192.48   15.10
  -1   6  -3  485.25   27.10
  -1   6  -3  529.35   26.50
  -1   6  -3  479.95   26.30
   1  -6   3  471.05   28.00
   1  -6   3  482.85   25.20
   1  -6   3  502.95   26.80
   1  -6   3  511.55   28.00
  -2   6  -3 1067.59   43.60
  -2   6  -3 1199.28   47.90
  -2   6  -3 1015.70   46.90
   2  -6   3 1016.00   42.60
   2  -6   3 1120.49   49.80
   2  -6   3 1078.49   42.30
  -3   6  -3  197.38   15.30
  -3   6  -3  192.08   20.40
   3  -6   3  171.58   15.80
   3  -6   3  218.08   17.00
  -4   6  -3  167.68   12.00
  -4   6  -3  213.78   22.60
   4  -6   3  201.68   18.30
  -5   6  -3  134.89   23.20
   5  -6   3  103.89   21.30
  -6  -5   3    4.10    7.60
  -6  -5   3   -2.20   10.50
  -6  -5   3    6.40    8.00
  -5  -5   3   -3.10    5.40
  -5  -5   3    2.20    8.40
  -5  -5   3    4.20    8.00
   4   5  -3    9.60    7.40
  -4  -5   3    3.80    3.00
  -4  -5   3    6.80    6.60
  -4  -5   3    5.90    7.80
   3   5  -3  117.39   16.70
  -3  -5   3  118.79   16.00
  -3  -5   3   84.69   14.80
   2   5  -3    6.40    3.00
   2   5  -3    7.00    6.50
  -2  -5   3    5.40    6.70
  -2  -5   3    7.70    5.20
  -2  -5   3   10.80    3.50
  -2  -5   3    6.20    4.50
   1   5  -3   26.00    5.60
   1   5  -3   32.20    8.20
  -1  -5   3   12.20    5.40
  -1  -5   3   25.60    5.70
  -1  -5   3   21.20    7.30
   0   5  -3  151.28   11.80
   0   5  -3  163.18   13.60
   0   5  -3  135.59   11.60
   0  -5   3  147.49   13.10
   0  -5   3  140.99   14.40
   0  -5   3  133.99   11.60
  -1   5  -3  358.76   20.90
  -1   5  -3  314.27   19.40
  -1   5  -3  323.17   19.30
   1  -5   3  340.37   20.00
   1  -5   3  335.27   20.70
  -2   5  -3   10.50    5.60
  -2   5  -3    8.50    6.70
  -2   5  -3   -2.50    4.50
   2  -5   3    3.40    4.60
   2  -5   3   11.70    7.10
  -3   5  -3   84.09    9.40
  -3   5  -3   85.59   15.00
  -3   5  -3   70.59   13.40
   3  -5   3   83.19   16.30
   3  -5   3  100.79   10.30
   3  -5   3   72.69   10.70
  -4   5  -3   37.00   12.40
  -4   5  -3   43.10    6.30
   4  -5   3   36.60    9.10
  -5   5  -3  201.48   30.20
   5  -5   3  158.68   19.40
  -6  -4   3   18.00    9.60
  -6  -4   3    2.60    6.90
  -6  -4   3    8.80    9.60
  -5  -4   3   15.50    6.70
  -5  -4   3   17.10    3.70
  -5  -4   3   17.10   10.40
  -5  -4   3   26.10   11.20
   4   4  -3   76.99   13.10
  -4  -4   3   71.89    5.80
  -4  -4   3   61.39    5.40
  -4  -4   3   76.19   14.70
  -4  -4   3   89.09   17.40
  -4  -4   3   76.39   12.00
   3   4  -3  303.57   20.00
  -3  -4   3  304.87   19.60
  -3  -4   3  302.07   22.50
  -3  -4   3  292.87   11.10
   2   4  -3 1596.84   57.59
   2   4  -3 1655.93   48.00
  -2  -4   3 1597.14   59.49
  -2  -4   3 1585.34   47.50
  -2  -4   3 1553.74   56.89
   1   4  -3  291.57   17.90
   1   4  -3  268.97   12.90
  -1  -4   3  277.57   19.80
  -1  -4   3  278.67   13.70
   0   4  -3  253.67   14.60
   0   4  -3  267.07   14.70
   0   4  -3  231.98   15.60
   0  -4   3  235.78   14.80
   0  -4   3  267.77   16.80
   0  -4   3  225.08   15.40
  -1   4  -3 4130.09  118.59
  -1   4  -3 3872.11  119.89
  -1   4  -3 4054.69  118.59
   1  -4   3 3934.31  115.59
   1  -4   3 3725.93  118.79
   1  -4   3 3995.40  118.29
  -2   4  -3   34.40    6.90
  -2   4  -3   28.10    8.70
  -2   4  -3   13.10    6.30
   2  -4   3   29.30    8.20
   2  -4   3   25.70    6.70
   2  -4   3   27.40    6.20
  -3   4  -3  516.15   29.70
  -3   4  -3  498.05   42.10
  -3   4  -3  500.35   21.60
   3  -4   3  461.95   30.40
   3  -4   3  466.95   21.90
   3  -4   3  473.25   22.50
  -4   4  -3   84.49    6.10
  -4   4  -3   60.09   14.10
   4  -4   3   71.69   10.50
  -5   4  -3   20.70   11.90
   5  -4   3   -1.10    8.40
  -6  -3   3    2.20   11.40
  -6  -3   3   19.20    8.40
  -6  -3   3   24.60    5.70
  -6  -3   3   47.70   13.00
  -5  -3   3   80.39   11.40
  -5  -3   3   77.99   16.30
  -5  -3   3   74.29   16.70
  -5  -3   3   64.79    7.90
  -5  -3   3   81.99    7.60
   4   3  -3   27.40    7.20
  -4  -3   3   30.40    7.70
  -4  -3   3   32.30    4.70
  -4  -3   3   18.00    8.80
  -4  -3   3   30.90   11.40
   3   3  -3    4.30    4.20
   3   3  -3    2.30    5.40
  -3  -3   3    6.90    4.70
  -3  -3   3    2.00    1.60
  -3  -3   3    9.30    5.80
   2   3  -3 1579.24   54.19
  -2  -3   3 1499.65   53.19
  -2  -3   3 1515.05   43.90
  -2  -3   3 1660.63   57.39
   1   3  -3   35.90    4.00
   1   3  -3   29.70    6.80
  -1  -3   3   32.80    4.50
  -1  -3   3   34.40    7.30
  -1  -3   3   31.90    5.90
  -1  -3   3   33.40    7.40
   0   3  -3   26.70    5.30
   0   3  -3   30.20    5.70
   0   3  -3   17.20    5.80
   0  -3   3   16.90    5.60
   0  -3   3   16.60    4.50
  -1   3  -3 3681.53  109.59
  -1   3  -3 3820.22  112.09
  -1   3  -3 3775.12  109.59
   1  -3   3 3605.14  106.09
   1  -3   3 3660.53  110.59
   1  -3   3 3731.13  109.39
  -2   3  -3  323.27   16.00
  -2   3  -3  318.97   19.90
  -2   3  -3  303.57   19.30
   2  -3   3  326.87   16.40
   2  -3   3  328.47   20.30
   2  -3   3  289.47   14.20
  -3   3  -3 1496.25   59.49
  -3   3  -3 1556.74   49.40
  -3   3  -3 1590.44   59.79
  -3   3  -3 1545.35   49.99
   3  -3   3 1496.35   61.09
   3  -3   3 1530.15   50.19
  -4   3  -3  247.78   21.50
  -4   3  -3  235.78   15.50
  -4   3  -3  238.38   10.10
   4  -3   3  224.38   15.70
  -5   3  -3   -4.00    8.40
  -5   3  -3   12.60    7.50
   5  -3   3  -10.20    6.90
  -6   3  -3   23.20   14.60
  -6   3  -3   -2.20    9.10
  -6  -2   3  209.88   23.50
  -6  -2   3  169.28   27.30
  -6  -2   3  220.28   16.00
  -6  -2   3  199.68   15.40
  -5  -2   3   79.49   17.30
  -5  -2   3   59.79    8.50
  -5  -2   3   62.39    9.90
  -5  -2   3   72.29    8.40
   4   2  -3    5.50    7.10
  -4  -2   3   -0.50    3.40
  -4  -2   3   10.10    8.50
  -4  -2   3    4.80    6.60
  -4  -2   3    1.70    3.70
  -4  -2   3    7.30    3.10
   3   2  -3    7.80    4.70
   3   2  -3    4.80    5.80
  -3  -2   3    1.80    3.50
  -3  -2   3   -0.80    5.20
  -3  -2   3    2.00    2.30
  -3  -2   3    1.90    2.10
  -3  -2   3    9.70    6.00
   2   2  -3   68.39    9.00
   2   2  -3   52.89   10.40
  -2  -2   3   71.29   11.20
  -2  -2   3   72.79    8.10
   1   2  -3  457.85   20.20
   1   2  -3  438.66   14.00
   1   2  -3  450.95   20.80
  -1  -2   3  481.95   21.50
  -1  -2   3  466.65   20.10
   0   2  -3  447.46   17.40
   0   2  -3  425.36   18.80
   0   2  -3  422.96   17.20
   0  -2   3  417.06   16.90
   0  -2   3  421.26   18.60
  -1   2  -3 2683.13   78.89
  -1   2  -3 2564.24   78.79
   1  -2   3 2637.54   74.99
   1  -2   3 2682.63   79.89
   1  -2   3 2652.93   79.09
  -2   2  -3  985.20   42.50
  -2   2  -3 1042.60   34.60
   2  -2   3 1020.60   35.40
   2  -2   3  976.00   39.60
   2  -2   3 1026.40   32.20
  -3   2  -3   10.90    5.90
  -3   2  -3    5.40    3.50
  -3   2  -3   10.10    6.30
   3  -2   3    2.70    5.80
  -4   2  -3   35.60   11.10
  -4   2  -3   40.40    4.60
  -4   2  -3   33.90    7.50
  -4   2  -3   47.10   10.90
   4  -2   3   36.90    7.40
   4  -2   3   19.70    9.90
  -5   2  -3   -0.90    8.90
  -5   2  -3    8.80    7.20
   5  -2   3   20.70    7.50
  -6   2  -3   24.50    9.70
  -6  -1   3  176.38   15.60
  -6  -1   3  161.08   22.60
  -6  -1   3  193.38   17.60
   5   1  -3  273.37   25.60
  -5  -1   3  301.87   24.10
  -5  -1   3  311.17   17.60
  -5  -1   3  309.77   28.60
   4   1  -3   -1.60    7.00
  -4  -1   3    3.00    7.10
  -4  -1   3   -3.70    5.60
  -4  -1   3    4.50    3.90
   3   1  -3  629.64   24.30
   3   1  -3  726.13   32.90
  -3  -1   3  630.14   30.60
  -3  -1   3  641.04   23.30
  -3  -1   3  640.74   33.60
  -3  -1   3  605.94   23.80
   2   1  -3 1338.57   43.70
   2   1  -3 1332.57   48.90
  -2  -1   3 1425.86   44.80
  -2  -1   3 1401.56   49.20
  -2  -1   3 1351.76   39.80
   1   1  -3  118.79    8.50
   1   1  -3  129.89   10.00
  -1  -1   3  128.29   10.10
   0   1  -3 1117.09   37.10
   0   1  -3 1193.28   36.20
   0   1  -3 1126.79   35.40
   0  -1   3 1175.78   35.40
   0  -1   3 1193.18   36.20
  -1   1  -3 9289.67  261.07
  -1   1  -3 9440.46  261.87
   1  -1   3 9999.00  256.07
   1  -1   3 9288.37  261.57
  -2   1  -3 3149.68   94.19
  -2   1  -3 3048.79   90.29
  -2   1  -3 3107.09   86.09
   2  -1   3 3053.39   94.89
   2  -1   3 3076.19   86.59
  -3   1  -3   97.59   13.80
  -3   1  -3   91.79    8.10
  -3   1  -3   94.59    7.60
   3  -1   3   82.69   13.50
   3  -1   3   95.89    7.90
  -4   1  -3 1717.03   67.09
  -4   1  -3 1842.62   58.19
  -4   1  -3 1824.02   69.09
  -4   1  -3 1790.42   54.79
   4  -1   3 1759.42   58.99
  -5   1  -3   59.59    9.40
  -5   1  -3   56.89   13.70
  -6   1  -3   -9.40    7.20
  -6   1  -3    2.40   12.00
  -6   0   3   38.70   12.60
  -6   0   3   17.40   15.70
   5   0  -3   -7.50    8.40
  -5   0   3   -2.10    7.10
  -5   0   3    7.40    5.70
  -5   0   3    8.10    8.90
   4   0  -3  694.13   36.30
  -4   0   3  647.84   39.00
  -4   0   3  744.73   30.10
  -4   0   3  759.72   36.50
   3   0  -3  257.87   18.70
  -3   0   3  280.67   18.70
  -3   0   3  299.67   14.80
  -3   0   3  274.17   11.20
  -3   0   3  268.87   21.20
   2   0  -3   33.60    7.30
   2   0  -3   27.40    4.10
  -2   0   3   27.60    4.20
  -2   0   3   35.70    7.60
  -2   0   3   32.10    4.70
  -2   0   3   22.10    8.20
   1   0  -3  847.52   30.90
   1   0  -3  887.81   27.90
   1   0  -3  848.72   26.10
  -1   0   3  831.62   25.90
  -1   0   3  829.42   27.90
  -1   0   3  873.21   30.90
   0   0  -3 4121.69  112.79
   0   0  -3 4024.90  112.79
   0   0  -3 4032.30  114.39
   0   0   3 4099.19  112.69
   0   0   3 3989.80  114.39
   0   0   3 3954.50  112.89
  -1   0  -3  869.41   27.50
  -1   0  -3  860.91   24.40
  -1   0  -3  856.31   30.10
   1   0   3  871.11   27.90
  -2   0  -3   20.30    5.50
  -2   0  -3   10.60    2.90
   2   0   3    3.70    4.50
  -3   0  -3  462.05   24.50
  -3   0  -3  447.76   20.30
  -3   0  -3  442.56   18.70
   3   0   3  437.26   24.30
  -4   0  -3    2.50    4.10
  -4   0  -3   10.90    4.80
  -4   0  -3    8.40    4.20
  -4   0  -3   13.70    8.60
   4   0   3   -9.60    6.00
  -5   0  -3   66.59   10.30
  -5   0  -3   88.69    7.70
  -5   0  -3   85.49   15.50
  -5   0  -3   80.09   16.20
  -6   0  -3    4.90   11.50
  -6   0  -3    5.40    7.40
  -6   1   3   31.60   15.10
  -6   1   3    5.70   12.30
  -6   1   3   13.50   12.40
   5  -1  -3  238.38   24.10
  -5   1   3  283.67   27.60
  -5   1   3  255.87   22.60
  -5   1   3  255.47   19.20
   4  -1  -3  589.34   32.90
  -4   1   3  591.94   32.00
  -4   1   3  622.74   28.50
  -4   1   3  573.44   36.40
   3  -1  -3  188.98   16.10
  -3   1   3  218.28   19.10
  -3   1   3  220.48   16.40
  -3   1   3  183.08   13.00
   2  -1  -3 1259.57   37.40
   2  -1  -3 1306.77   47.20
   2  -1  -3 1274.77   48.80
   2  -1  -3 1277.67   43.20
  -2   1   3 1264.57   42.20
  -2   1   3 1368.06   47.00
  -2   1   3 1292.07   49.00
   1  -1  -3 4133.69  116.49
   1  -1  -3 3866.41  116.39
   1  -1  -3 4213.88  112.39
  -1   1   3 3990.60  116.89
  -1   1   3 3871.51  112.49
  -1   1   3 3891.11  115.79
   0  -1  -3  214.48   10.50
   0  -1  -3  243.28   11.20
   0   1   3  223.18   10.60
   0   1   3  221.48   11.20
   0   1   3  216.58    9.40
  -1  -1  -3 1059.19   31.00
  -1  -1  -3 1059.39   36.10
   1   1   3 1057.59   31.30
  -2  -1  -3   34.70    6.30
  -2  -1  -3   39.80    5.40
   2   1   3   38.20    6.60
  -3  -1  -3  409.16   25.50
  -3  -1  -3  389.16   18.10
   3   1   3  387.66   22.00
  -4  -1  -3  123.19   10.70
  -4  -1  -3  116.69   16.30
  -4  -1  -3  115.09   10.90
  -5  -1  -3   10.60    8.00
  -5  -1  -3   18.90    6.70
  -5  -1  -3   10.70    5.90
  -5  -1  -3    8.70    5.40
  -6  -1  -3    9.60   11.10
  -6  -1  -3   14.90   10.70
  -6  -1  -3   18.50    8.70
  -6   2   3   -1.10   11.90
  -6   2   3   -0.40   10.50
  -5   2   3  997.70   54.69
  -5   2   3  966.50   43.70
   4  -2  -3 1817.72   69.39
  -4   2   3 1791.22   68.09
  -4   2   3 1927.51   85.39
  -4   2   3 1763.42   64.39
   3  -2  -3   34.90    9.20
   3  -2  -3   48.00   11.80
  -3   2   3   34.20    7.30
  -3   2   3   30.70   10.00
  -3   2   3   33.50    9.20
   2  -2  -3  263.47   18.20
   2  -2  -3  269.67   10.00
   2  -2  -3  253.37   16.40
   2  -2  -3  262.07   10.10
   2  -2  -3  252.97   15.50
  -2   2   3  238.48   14.20
  -2   2   3  244.28   17.90
   1  -2  -3  181.78   12.40
   1  -2  -3  180.28   12.60
   1  -2  -3  197.68   11.80
  -1   2   3  188.98   11.00
  -1   2   3  204.98   13.10
  -1   2   3  188.28   12.80
   0  -2  -3 1534.75   48.50
   0  -2  -3 1508.35   45.80
   0  -2  -3 1587.44   48.10
   0   2   3 1462.05   48.40
   0   2   3 1548.95   45.60
   0   2   3 1571.34   48.10
  -1  -2  -3 1221.38   40.70
   1   2   3 1221.48   41.10
  -2  -2  -3 1181.78   41.70
  -2  -2  -3 1132.89   38.70
  -3  -2  -3  341.67   18.10
  -3  -2  -3  313.77   18.80
  -3  -2  -3  333.47   19.00
  -3  -2  -3  380.76   21.10
  -4  -2  -3  746.13   35.60
  -4  -2  -3  760.02   36.10
  -4  -2  -3  749.73   33.00
  -4  -2  -3  667.93   31.20
  -5  -2  -3   12.40    8.60
  -5  -2  -3   14.50    9.40
  -5  -2  -3    8.00    6.60
  -5  -2  -3   15.90    6.40
  -6  -2  -3   23.30   12.90
  -6  -2  -3   33.80   11.80
  -6  -2  -3   11.80    9.60
  -6  -2  -3   10.30    8.20
  -5   3   3  240.58   26.50
  -5   3   3  199.08   22.30
   4  -3  -3  223.18   34.90
  -4   3   3  239.08   20.40
  -4   3   3  243.28   25.30
  -4   3   3  211.78   18.00
   3  -3  -3 1956.60   68.19
   3  -3  -3 1806.32   72.69
  -3   3   3 1933.01   72.39
  -3   3   3 1805.02   64.69
  -3   3   3 1809.42   66.49
   2  -3  -3   62.39   10.50
   2  -3  -3   33.10    4.80
   2  -3  -3   39.00    9.60
   2  -3  -3   31.70    7.70
  -2   3   3   31.30    6.90
  -2   3   3   50.19    9.60
  -2   3   3   43.40    9.90
   1  -3  -3 1319.57   45.60
   1  -3  -3 1298.27   46.70
   1  -3  -3 1242.78   45.70
   1  -3  -3 1303.77   43.10
  -1   3   3 1223.88   44.30
  -1   3   3 1378.06   46.70
  -1   3   3 1427.86   47.30
   0  -3  -3 1652.63   50.89
   0  -3  -3 1599.34   53.69
   0  -3  -3 1635.14   52.99
   0  -3  -3 1676.23   54.29
   0   3   3 1757.12   54.79
   0   3   3 1619.54   52.89
  -1  -3  -3  952.40   36.00
  -1  -3  -3  956.40   33.70
  -1  -3  -3  901.41   27.90
   1   3   3  951.70   34.30
  -2  -3  -3  312.97   16.90
  -2  -3  -3  313.87   18.50
  -2  -3  -3  316.47   16.60
   2   3   3  288.17   17.40
  -3  -3  -3   65.19   10.70
  -3  -3  -3   68.89   11.60
  -3  -3  -3   43.90    8.30
  -3  -3  -3   59.49    9.10
  -4  -3  -3   47.90   10.20
  -4  -3  -3   44.10    9.70
  -4  -3  -3   39.80    9.80
  -4  -3  -3   45.50    9.00
  -5  -3  -3  439.16   26.80
  -5  -3  -3  452.35   25.80
  -5  -3  -3  446.16   30.10
  -5  -3  -3  453.45   28.30
  -6  -3  -3  223.68   24.80
  -6  -3  -3  217.08   20.80
  -6  -3  -3  237.88   17.80
  -5   4   3  457.45   36.90
  -5   4   3  417.46   31.20
   4  -4  -3   12.10    8.90
  -4   4   3    7.00   10.40
  -4   4   3   11.10    7.80
  -4   4   3   30.30   10.70
   3  -4  -3  305.67   25.40
   3  -4  -3  353.86   23.60
   3  -4  -3  317.47   23.30
  -3   4   3  367.66   23.80
  -3   4   3  365.86   26.50
  -3   4   3  365.36   22.40
   2  -4  -3   31.30    7.10
   2  -4  -3   21.40    6.40
   2  -4  -3   23.30    8.60
   2  -4  -3   21.40    4.60
  -2   4   3   24.90    8.30
  -2   4   3   24.30    6.40
  -2   4   3   17.40    7.10
   1  -4  -3  221.68   13.70
   1  -4  -3  225.78   15.20
   1  -4  -3  217.18   15.90
   1  -4  -3  242.18   15.90
  -1   4   3  237.48   17.20
  -1   4   3  207.98   17.30
  -1   4   3  220.88   14.60
   0  -4  -3  194.18   14.20
   0  -4  -3  200.48   13.50
   0  -4  -3  196.48   12.10
   0   4   3  227.88   12.20
  -1  -4  -3  153.78   11.40
  -1  -4  -3  134.99    7.90
  -1  -4  -3  133.89   15.00
   1   4   3  137.69   11.10
  -2  -4  -3  502.95   26.30
  -2  -4  -3  547.55   24.20
  -2  -4  -3  497.85   18.70
   2   4   3  484.95   24.40
  -3  -4  -3  271.37   16.90
  -3  -4  -3  273.57   17.00
  -3  -4  -3  284.27   19.60
  -3  -4  -3  269.47   18.50
  -4  -4  -3 1190.68   49.60
  -4  -4  -3 1243.88   50.79
  -4  -4  -3 1259.97   51.29
  -5  -4  -3   41.00    9.60
  -5  -4  -3   38.90   10.60
  -5  -4  -3   41.00   11.30
  -5  -4  -3   55.49   11.50
  -6  -4  -3   27.40    9.40
  -6  -4  -3   20.60    9.60
  -6  -4  -3   24.20   11.80
  -5   5   3  149.29   21.90
  -5   5   3  129.79   23.10
   4  -5  -3  633.44   43.80
  -4   5   3  588.14   39.00
  -4   5   3  617.34   35.70
   3  -5  -3  305.27   13.80
   3  -5  -3  286.77   22.50
   3  -5  -3  298.87   23.50
   3  -5  -3  280.27   41.10
  -3   5   3  279.27   21.10
  -3   5   3  295.17   24.40
  -3   5   3  327.47   24.00
   2  -5  -3   -4.60    5.20
   2  -5  -3    1.00    5.60
   2  -5  -3   -5.40    3.20
   2  -5  -3    8.10    5.80
  -2   5   3   15.10    8.00
  -2   5   3   -0.80    6.30
  -2   5   3    1.40    4.90
   1  -5  -3   62.09   10.70
   1  -5  -3   73.09   10.50
   1  -5  -3   63.69   10.30
   1  -5  -3   48.30    9.40
  -1   5   3   46.00    9.70
  -1   5   3   73.69   10.90
  -1   5   3   80.19   11.70
   0  -5  -3   24.50    7.10
   0  -5  -3   13.80    6.70
   0  -5  -3   20.90    6.10
   0  -5  -3   20.60    7.40
   0   5   3   19.70    6.20
   0   5   3   23.60    5.60
  -1  -5  -3   25.00    5.30
  -1  -5  -3   38.40    9.10
  -1  -5  -3   25.70    7.00
   1   5   3   36.40    7.20
   1   5   3   44.00    6.00
  -2  -5  -3   24.50    6.30
  -2  -5  -3   34.70    9.40
  -2  -5  -3   30.90    5.10
   2   5   3   31.00    7.30
  -3  -5  -3  264.77   20.60
  -3  -5  -3  258.07   16.80
   3   5   3  255.47   18.70
  -4  -5  -3   15.90    7.60
  -4  -5  -3   30.20    9.10
  -4  -5  -3    8.00    7.00
  -4  -5  -3   22.70    6.80
  -5  -5  -3  782.92   40.70
  -5  -5  -3  782.82   40.90
  -5  -5  -3  813.22   37.40
  -5  -5  -3  757.82   40.70
  -6  -5  -3   -0.80    7.90
  -6  -5  -3   -4.70    8.70
  -6  -5  -3    8.40    9.40
  -6  -5  -3   15.10    8.80
  -5   6   3  239.98   28.10
  -5   6   3  250.87   28.00
  -4   6   3   37.10   14.50
  -4   6   3   52.29   15.60
   3  -6  -3   29.50    5.60
   3  -6  -3   24.00    9.40
   3  -6  -3   31.20   11.10
  -3   6   3   14.80   11.40
  -3   6   3   34.40   12.30
   2  -6  -3 2432.16   85.29
   2  -6  -3 2483.65   78.69
   2  -6  -3 2169.08   81.29
  -2   6   3 2346.67   83.39
  -2   6   3 2242.38   81.49
   1  -6  -3  295.87   21.10
   1  -6  -3  313.87   19.70
   1  -6  -3  299.17   20.90
   1  -6  -3  283.17   20.10
  -1   6   3  302.07   19.40
  -1   6   3  288.17   19.50
   0  -6  -3   42.40    9.00
   0  -6  -3   36.10    8.20
   0  -6  -3   48.50   10.60
   0  -6  -3   39.20    9.80
   0   6   3   61.89    9.10
   0   6   3   46.60    8.70
  -1  -6  -3 1036.90   45.60
  -1  -6  -3 1072.09   38.00
  -1  -6  -3 1093.09   42.40
  -1  -6  -3 1146.99   45.30
   1   6   3 1024.00   36.70
   1   6   3 1097.29   42.50
  -2  -6  -3 1138.29   44.90
  -2  -6  -3 1227.08   40.20
  -2  -6  -3 1198.58   51.09
   2   6   3 1229.08   47.10
  -3  -6  -3  649.93   35.80
  -3  -6  -3  588.54   25.30
  -3  -6  -3  671.33   30.10
   3   6   3  673.63   32.80
  -4  -6  -3  490.15   25.70
  -4  -6  -3  490.15   27.60
  -4  -6  -3  443.76   30.20
  -4  -6  -3  482.15   31.40
  -5  -6  -3   -5.20    7.30
  -5  -6  -3   11.10    9.60
  -5  -6  -3   -4.80    6.70
  -5  -6  -3   -0.80    5.70
  -6  -6  -3   75.99   13.20
  -6  -6  -3   81.29   16.90
  -6  -6  -3   74.69   15.10
  -6  -6  -3   90.69   17.20
  -4   7   3  136.59   21.50
  -4   7   3  154.48   24.40
   3  -7  -3  119.09   10.70
   3  -7  -3  113.19   19.30
  -3   7   3  115.99   20.30
  -3   7   3   99.49   17.70
   2  -7  -3  401.66   29.60
   2  -7  -3  448.76   24.30
   2  -7  -3  438.66   28.80
  -2   7   3  404.36   28.00
   1  -7  -3  488.95   26.90
   1  -7  -3  425.36   26.90
   1  -7  -3  431.76   27.60
  -1   7   3  495.45   28.20
  -1   7   3  466.65   26.00
   0  -7  -3   57.99   10.80
   0  -7  -3   37.40    8.90
   0  -7  -3   65.19   12.70
   0  -7  -3   70.89   13.10
   0   7   3   47.50    9.00
   0   7   3   58.69   11.50
  -1  -7  -3   50.29    8.60
  -1  -7  -3   42.00    9.20
  -1  -7  -3   50.99   11.60
  -1  -7  -3   53.29   12.00
   1   7   3   46.20    9.40
   1   7   3   53.79    8.20
  -2  -7  -3  527.85   24.50
  -2  -7  -3  517.05   27.30
  -2  -7  -3  610.74   34.30
   2   7   3  550.14   29.00
  -3  -7  -3  160.08   14.40
  -3  -7  -3  141.59   11.00
  -3  -7  -3  159.08   18.10
   3   7   3  156.38   15.60
  -4  -7  -3  471.25   26.20
  -4  -7  -3  521.55   24.20
  -4  -7  -3  466.45   27.60
  -4  -7  -3  473.25   32.50
  -5  -7  -3   38.70   10.50
  -5  -7  -3   33.10   12.40
  -5  -7  -3   44.70   10.80
  -5  -7  -3   39.20   11.60
  -6  -7  -3   -6.80    8.00
  -6  -7  -3    7.20    9.50
  -6  -7  -3    5.60    9.30
  -4   8   3    3.00   11.60
   3  -8  -3  298.87   28.20
   3  -8  -3  293.97   18.60
  -3   8   3  280.87   27.30
   2  -8  -3    7.50    6.60
   2  -8  -3    3.60    6.80
  -2   8   3    2.80    7.90
   1  -8  -3  516.05   32.50
   1  -8  -3  545.85   31.20
   1  -8  -3  536.35   32.50
   1  -8  -3  532.95   46.00
  -1   8   3  534.05   29.30
   0  -8  -3  911.31   44.00
   0  -8  -3  926.41   43.50
   0  -8  -3  943.21   44.60
   0  -8  -3  880.91   40.50
   0   8   3  963.90   38.60
   0   8   3  911.01   42.30
  -1  -8  -3  749.62   40.00
  -1  -8  -3  727.63   32.40
  -1  -8  -3  775.82   39.30
  -1  -8  -3  684.03   35.40
   1   8   3  699.93   35.90
   1   8   3  737.73   31.00
  -2  -8  -3    4.50    7.90
  -2  -8  -3    4.90    5.00
  -2  -8  -3    2.40    4.90
   2   8   3   -4.10    4.90
  -3  -8  -3  232.98   17.90
  -3  -8  -3  199.28   21.70
  -3  -8  -3  177.28   13.60
  -4  -8  -3   88.99   13.10
  -4  -8  -3   91.49   17.80
  -4  -8  -3   89.09   11.70
  -4  -8  -3  112.69   20.80
  -5  -8  -3   -6.10    8.00
  -5  -8  -3   -9.10    6.50
  -5  -8  -3   13.90    9.20
  -5  -8  -3    2.90   10.00
  -5  -8  -3   11.60    7.60
   3  -9  -3   25.50    8.60
   3  -9  -3   32.00   13.90
  -3   9   3   25.20   13.80
   2  -9  -3  519.05   30.60
   2  -9  -3  475.55   35.60
  -2   9   3  529.25   33.10
   1  -9  -3  343.27   27.80
   1  -9  -3  359.26   26.10
  -1   9   3  328.47   24.30
   0  -9  -3  140.19   16.60
   0  -9  -3  154.78   17.70
   0   9   3  144.89   14.60
  -1  -9  -3   -3.10    6.90
  -1  -9  -3   -2.60    5.80
  -1  -9  -3    2.80    6.50
   1   9   3   -1.50    4.80
  -2  -9  -3  229.78   23.70
  -2  -9  -3  270.77   20.90
  -2  -9  -3  237.18   17.10
   2   9   3  273.37   21.60
  -3  -9  -3  328.37   22.80
  -3  -9  -3  314.47   28.30
  -3  -9  -3  336.47   19.60
   3   9   3  275.97   23.60
  -4  -9  -3   40.40    9.10
  -4  -9  -3   40.70   10.60
  -4  -9  -3   34.20   12.90
  -4  -9  -3   36.10   13.20
   4   9   3   66.39   16.40
  -5  -9  -3  277.67   24.20
  -5  -9  -3  332.77   22.90
  -5  -9  -3  326.37   30.90
  -5  -9  -3  287.17   28.80
  -5  -9  -3  235.08   19.00
   3 -10  -3   27.40   14.80
   3 -10  -3   13.80   10.50
  -3  10   3   -3.50   11.30
   2 -10  -3   79.69   17.70
   2 -10  -3  109.39   17.80
  -2  10   3   79.89   16.60
   1 -10  -3  734.73   42.00
   1 -10  -3  867.91   47.30
  -1  10   3  744.93   39.20
   0 -10  -3  599.84   36.30
   0 -10  -3  459.95   31.40
   0 -10  -3  566.04   36.30
  -1 -10  -3   42.40   11.60
  -1 -10  -3   67.19   16.50
   1  10   3   66.59   11.70
  -2 -10  -3   81.89   14.70
  -2 -10  -3  105.89   19.90
  -2 -10  -3   79.59   13.80
  -3 -10  -3   25.10   12.00
  -3 -10  -3   36.60    9.80
  -3 -10  -3   30.80   10.30
  -4 -10  -3    5.30    7.60
  -4 -10  -3   29.80    9.30
  -4 -10  -3   14.70   11.50
  -4 -10  -3   12.90   10.30
   2 -11  -3  402.96   31.10
   2 -11  -3  523.45   39.90
   1 -11  -3   30.20   14.20
   1 -11  -3    2.00    8.90
  -1  11   3    3.90   10.50
   0 -11  -3    9.90    8.60
   0 -11  -3    8.90    8.80
   0  11   3   17.80    9.20
  -1 -11  -3  220.38   24.70
  -1 -11  -3  229.18   22.30
   1  11   3  220.38   18.90
  -2 -11  -3  122.99   19.20
  -2 -11  -3  105.89   17.00
  -2 -11  -3  127.19   21.90
  -3 -11  -3   25.70    9.80
  -3 -11  -3   18.20   12.00
  -3 -11  -3   18.30    9.60
  -4 -11  -3   19.40   12.10
  -4 -11  -3   28.70    8.90
  -4 -11  -3    4.30   10.70
   1 -12  -3  144.59   24.80
   1 -12  -3  172.28   26.60
  -1  12   3  154.18   18.20
   0 -12  -3  -12.50    7.60
   0 -12  -3   10.80    9.30
   0  12   3    2.60    8.30
  -1 -12  -3   19.10    9.60
  -1 -12  -3   36.40   13.10
   1  12   3   25.70    9.20
  -2 -12  -3   28.10   12.20
  -2 -12  -3    9.20    7.90
  -3 -12  -3   88.39   22.00
  -3 -12  -3   55.39   13.50
  -3 -12   4   -2.00   14.70
  -3 -12   4   -7.30    8.00
  -2 -12   4  -12.40    7.40
  -2 -12   4   20.00   10.40
  -2 -12   4   -3.80    7.80
  -1 -12   4    3.40   10.30
  -1 -12   4    3.20    9.30
   0 -12   4   27.80   15.50
  -1  12  -4   16.30    9.50
   1 -12   4   44.00   13.80
  -4 -11   4  120.09   13.60
  -4 -11   4  118.39   22.80
  -4 -11   4   76.19   32.70
   3  11  -4   48.00   14.20
  -3 -11   4   38.80   14.40
  -3 -11   4   83.19   13.70
  -2 -11   4   22.50   10.40
  -2 -11   4   36.20   13.40
  -2 -11   4   29.80   12.40
  -1 -11   4  130.99   20.00
  -1 -11   4  135.19   23.60
   0 -11   4   39.60   14.40
  -1  11  -4    0.00    7.70
   1 -11   4   20.70   11.10
  -2  11  -4    6.60   10.90
   2 -11   4   23.40   12.90
  -4 -10   4    5.20   10.30
  -4 -10   4    3.50    8.10
  -4 -10   4   -3.80    5.40
   3  10  -4   23.80    8.70
  -3 -10   4   43.80    9.40
  -3 -10   4   -2.30    8.30
   2  10  -4   50.69   10.90
  -2 -10   4   61.49   12.30
  -2 -10   4   50.19   13.00
  -2 -10   4   50.09   14.20
   1  10  -4  425.56   31.50
  -1 -10   4  371.76   27.30
  -1 -10   4  441.26   33.20
   0  10  -4  420.36   28.40
   0 -10   4  414.46   30.70
   0 -10   4  394.76   31.40
  -1  10  -4  287.67   24.10
   1 -10   4  351.26   28.50
  -2  10  -4    5.10    8.30
   2 -10   4   10.70   10.30
  -3  10  -4   -1.90    8.30
   3 -10   4   14.90   12.10
  -5  -9   4   24.80   12.90
  -5  -9   4   61.79   15.00
  -4  -9   4   95.59   20.90
  -4  -9   4   95.29   12.10
  -4  -9   4  102.59   20.20
   3   9  -4    2.90    6.10
  -3  -9   4   10.60    5.30
  -3  -9   4    9.70    9.20
  -3  -9   4    0.80    7.40
   2   9  -4  288.17   19.40
  -2  -9   4  288.17   20.30
  -2  -9   4  285.27   26.50
  -2  -9   4  301.47   26.00
  -1  -9   4   70.19   15.60
  -1  -9   4   61.79   12.10
   0   9  -4    7.00    6.70
   0   9  -4  -10.70    6.00
   0  -9   4    0.30    7.00
   0  -9   4    7.40    7.80
  -1   9  -4  693.43   36.60
   1  -9   4  606.84   36.30
   1  -9   4  706.53   39.30
  -2   9  -4   78.29   16.50
  -2   9  -4   80.69   16.40
   2  -9   4  108.99   16.70
   2  -9   4   89.99   16.20
  -3   9  -4   -2.90    9.30
  -3   9  -4   -3.70   14.70
   3  -9   4    7.60    9.20
   3  -9   4   -9.70   12.40
  -5  -8   4   11.60    9.50
  -4  -8   4  158.88   10.10
  -4  -8   4  167.58   25.90
  -4  -8   4  171.08   20.60
   3   8  -4  446.16   28.30
  -3  -8   4  358.06   28.80
  -3  -8   4  350.86   29.90
   2   8  -4 1146.59   43.10
  -2  -8   4 1124.49   73.89
  -2  -8   4 1102.69   46.30
  -2  -8   4 1172.18   44.70
  -2  -8   4 1053.09   71.19
   1   8  -4  540.35   27.30
   1   8  -4  489.25   32.50
  -1  -8   4  547.55   29.00
  -1  -8   4  527.65   28.90
  -1  -8   4  522.25   32.50
   0   8  -4   30.60   10.90
   0   8  -4   29.00    9.20
   0   8  -4   44.30   14.70
   0  -8   4   38.10   11.90
   0  -8   4   41.10   10.30
   0  -8   4   41.40   11.00
  -1   8  -4   91.59   16.80
  -1   8  -4   94.59   17.30
   1  -8   4  114.29   16.20
   1  -8   4   97.79   14.90
  -2   8  -4    1.00    7.00
  -2   8  -4   -0.20    6.60
   2  -8   4   -6.60    8.00
   2  -8   4    6.50    7.60
  -3   8  -4   -8.70    7.20
  -3   8  -4    9.30    8.80
   3  -8   4   -3.10    7.50
   3  -8   4    0.50    9.70
  -4   8  -4   47.50   14.90
   4  -8   4   -0.60    8.70
  -5  -7   4   42.50   15.30
  -5  -7   4   37.20   12.10
  -5  -7   4   76.99   15.90
  -4  -7   4   -0.50    9.20
  -4  -7   4   -8.10    6.20
   3   7  -4  286.47   25.10
   3   7  -4  289.67   15.50
  -3  -7   4  294.77   14.90
  -3  -7   4  245.98   18.90
  -3  -7   4  271.47   27.80
  -3  -7   4  263.97   23.30
   2   7  -4  208.18   14.10
   2   7  -4  196.08   19.90
  -2  -7   4  182.28   19.20
  -2  -7   4  199.98   16.20
  -2  -7   4  159.88   17.50
   1   7  -4   23.30    8.70
   1   7  -4   16.20    5.70
  -1  -7   4   19.20    6.30
  -1  -7   4   14.70    7.80
  -1  -7   4   15.30    6.10
   0   7  -4  226.08   17.40
   0   7  -4  207.08   18.90
   0   7  -4  229.58   17.10
   0  -7   4  205.58   17.40
   0  -7   4  231.78   18.00
   0  -7   4  241.68   20.30
  -1   7  -4  337.27   23.70
  -1   7  -4  360.36   22.90
  -1   7  -4  367.26   26.80
   1  -7   4  333.27   22.10
   1  -7   4  307.07   22.80
   1  -7   4  335.57   23.90
  -2   7  -4  895.11   40.70
  -2   7  -4  860.81   44.90
   2  -7   4  843.42   38.00
   2  -7   4  896.71   40.20
  -3   7  -4  210.18   17.60
  -3   7  -4  212.28   20.80
   3  -7   4  192.48   17.20
   3  -7   4  168.48   17.00
  -4   7  -4   43.10   13.90
  -4   7  -4   37.50    9.60
   4  -7   4   22.10   11.40
  -6  -6   4   -2.00    7.20
  -6  -6   4   15.40   10.20
  -6  -6   4  -20.90    9.20
  -5  -6   4   28.60    9.50
  -5  -6   4   14.50   11.10
  -5  -6   4    4.10    9.70
   4   6  -4  299.07   24.90
  -4  -6   4  298.27   27.30
  -4  -6   4  330.87   24.50
   3   6  -4   98.29    7.90
   3   6  -4   80.49   14.30
  -3  -6   4  104.09   15.50
  -3  -6   4   99.89   14.90
  -3  -6   4   80.29   15.50
   2   6  -4   18.10    8.10
   2   6  -4   29.80    5.50
  -2  -6   4   18.80    5.20
  -2  -6   4   33.90   10.40
  -2  -6   4   26.20    9.30
  -2  -6   4   22.30    6.90
   1   6  -4   10.60    7.20
   1   6  -4   11.50    4.30
  -1  -6   4   11.30    6.30
  -1  -6   4   21.60    7.00
   0   6  -4  445.26   27.00
   0   6  -4  522.25   25.60
   0   6  -4  547.35   26.00
   0  -6   4  521.35   26.90
   0  -6   4  474.55   25.10
   0  -6   4  459.75   26.90
  -1   6  -4   32.60    8.90
  -1   6  -4   16.80    6.80
  -1   6  -4   24.80    7.50
   1  -6   4   15.90    7.70
   1  -6   4   30.60    7.50
   1  -6   4   17.50    7.60
  -2   6  -4   30.40    8.00
  -2   6  -4   25.60    8.80
  -2   6  -4   19.90    8.60
   2  -6   4   31.30    7.90
   2  -6   4   26.50    7.20
   2  -6   4   14.40    8.30
  -3   6  -4   88.69   12.20
  -3   6  -4   90.09   15.50
   3  -6   4   86.19   12.20
   3  -6   4  124.29   12.80
  -4   6  -4   41.60   12.70
   4  -6   4   34.50    9.60
  -5   6  -4   45.30   16.50
  -6  -5   4  294.17   22.90
  -6  -5   4  201.08   46.30
  -6  -5   4  257.27   27.50
  -5  -5   4   75.09   16.50
  -5  -5   4   89.99   19.00
   4   5  -4   12.80    7.70
  -4  -5   4   16.40    6.50
   3   5  -4  323.47   22.80
  -3  -5   4  341.47   22.60
  -3  -5   4  303.37   11.30
  -3  -5   4  302.47   24.30
   2   5  -4  363.06   23.00
   2   5  -4  343.97   14.40
  -2  -5   4  315.67   22.40
  -2  -5   4  353.86   22.30
  -2  -5   4  334.77   18.90
  -2  -5   4  319.17   14.80
   1   5  -4   74.79   12.60
   1   5  -4   63.89    8.30
  -1  -5   4   41.60    8.90
  -1  -5   4   42.70    7.80
  -1  -5   4   46.30    7.50
  -1  -5   4   47.70    9.80
   0   5  -4  120.29   11.00
   0   5  -4  120.59   12.70
   0   5  -4  133.39   11.60
   0  -5   4  116.59   11.00
   0  -5   4  127.59   12.90
  -1   5  -4  544.05   28.10
  -1   5  -4  594.84   27.30
  -1   5  -4  564.24   27.80
   1  -5   4  581.24   27.90
   1  -5   4  537.15   27.70
  -2   5  -4    5.80    6.10
  -2   5  -4   -0.90    4.60
  -2   5  -4    6.90    6.10
   2  -5   4    7.00    5.60
   2  -5   4   12.60    5.10
   2  -5   4    2.70    6.70
  -3   5  -4  158.88   14.20
  -3   5  -4  151.78   21.80
  -3   5  -4  154.28   17.10
   3  -5   4  133.69   20.70
   3  -5   4  111.49   21.10
  -4   5  -4  269.27   15.40
  -4   5  -4  301.77   25.20
   4  -5   4  266.87   17.70
  -5   5  -4   47.10   23.00
   5  -5   4   27.20   11.30
  -6  -4   4   57.79   14.10
  -6  -4   4   36.40    9.20
  -5  -4   4   83.09   17.00
  -5  -4   4  104.59   19.60
  -5  -4   4  101.29   13.90
   4   4  -4  111.29   13.20
  -4  -4   4  127.49   13.00
  -4  -4   4  114.49   19.40
  -4  -4   4  108.49   18.10
   3   4  -4    6.10    5.50
  -3  -4   4    3.00    4.70
  -3  -4   4    2.50    5.20
   2   4  -4  373.56   13.70
   2   4  -4  381.46   22.50
  -2  -4   4  406.86   22.50
  -2  -4   4  373.86   23.40
   1   4  -4  310.27   19.10
   1   4  -4  325.97   14.40
  -1  -4   4  330.47   19.60
  -1  -4   4  313.37   16.90
  -1  -4   4  304.87   19.00
   0   4  -4  349.47   19.90
   0   4  -4  300.67   18.50
   0   4  -4  298.37   16.30
   0  -4   4  330.57   17.20
   0  -4   4  294.67   20.70
  -1   4  -4   69.59   10.00
  -1   4  -4   63.69   10.10
  -1   4  -4   67.29   11.00
   1  -4   4   86.89   10.10
   1  -4   4   58.69    9.90
  -2   4  -4  853.71   39.90
  -2   4  -4  964.70   39.40
  -2   4  -4  906.21   36.00
   2  -4   4  875.11   40.00
   2  -4   4  952.30   33.10
   2  -4   4  991.60   37.20
  -3   4  -4   16.70    8.00
  -3   4  -4    7.20    7.90
  -3   4  -4   -0.90    3.80
   3  -4   4    2.60    4.90
   3  -4   4    0.10    3.80
   3  -4   4    6.70    8.10
  -4   4  -4   46.30   12.50
  -4   4  -4   62.09    7.40
   4  -4   4   58.19    8.70
  -5   4  -4   47.70   14.50
  -6  -3   4  439.96   29.80
  -6  -3   4  453.75   34.20
  -5  -3   4  156.18   13.70
  -5  -3   4  135.39    6.80
  -5  -3   4   99.59   19.30
  -5  -3   4   82.49   16.70
   4   3  -4   61.59   13.70
   4   3  -4   63.69   10.70
  -4  -3   4   63.59   10.10
  -4  -3   4   58.89   13.50
  -4  -3   4   53.69   13.20
   3   3  -4  256.37   20.20
   3   3  -4  289.37   18.20
  -3  -3   4  264.97   17.10
  -3  -3   4  251.87   20.20
   2   3  -4   25.70    7.50
   2   3  -4   23.70    7.50
  -2  -3   4   24.70    7.50
  -2  -3   4   22.40    6.60
   1   3  -4  127.69   11.60
   1   3  -4  123.29    7.10
  -1  -3   4  113.79   11.60
  -1  -3   4  134.79   11.80
  -1  -3   4  117.89    9.40
   0   3  -4    4.00    3.80
   0   3  -4    2.30    3.80
   0   3  -4   -3.50    3.20
   0  -3   4    1.80    4.60
   0  -3   4    0.00    3.50
   0  -3   4   -0.30    3.10
  -1   3  -4 1293.57   43.70
  -1   3  -4 1220.88   43.80
   1  -3   4 1235.38   44.10
  -2   3  -4  135.29   13.20
  -2   3  -4  137.99   10.70
  -2   3  -4  159.28   13.30
   2  -3   4  134.19    8.30
   2  -3   4  131.89   11.30
   2  -3   4  122.29   12.50
  -3   3  -4  385.96   25.20
  -3   3  -4  363.56   18.00
  -3   3  -4  390.16   24.20
   3  -3   4  339.37   24.40
   3  -3   4  380.96   16.80
  -4   3  -4 1565.84   50.99
  -4   3  -4 1661.03   86.09
  -4   3  -4 1663.33   72.29
   4  -3   4 1610.44   53.19
  -5   3  -4   -1.40   10.60
   5  -3   4    0.40    7.80
  -6   3  -4    5.80   12.40
  -6  -2   4   58.09   14.10
  -6  -2   4   82.79   12.40
  -5  -2   4  120.39   18.40
  -5  -2   4  135.79    9.30
  -5  -2   4  140.79   24.00
  -5  -2   4  128.89   10.50
  -5  -2   4  123.99   10.70
   4   2  -4   15.70    5.80
   4   2  -4   12.60   10.20
  -4  -2   4   20.70    3.80
  -4  -2   4    7.20    9.10
  -4  -2   4   14.00    7.80
  -4  -2   4   26.00    6.00
   3   2  -4    7.50    5.80
   3   2  -4    1.20    3.90
  -3  -2   4    2.30    3.70
  -3  -2   4   -1.40    5.30
  -3  -2   4   -0.10    1.50
  -3  -2   4    3.50    5.10
  -3  -2   4    1.80    1.40
   2   2  -4  150.58   11.30
   2   2  -4  154.98   14.20
  -2  -2   4  148.59   11.40
  -2  -2   4  171.28   14.10
   1   2  -4  425.06   19.50
   1   2  -4  396.26   20.10
   1   2  -4  413.96   13.60
  -1  -2   4  404.46   19.30
  -1  -2   4  410.86   20.40
   0   2  -4  331.07   16.70
   0   2  -4  318.37   14.80
   0  -2   4  320.47   16.70
   0  -2   4  362.76   16.10
   0  -2   4  314.87   14.50
  -1   2  -4 2276.67   68.99
  -1   2  -4 2192.48   67.59
   1  -2   4 2159.18   68.29
   1  -2   4 2251.07   69.49
  -2   2  -4  300.87   17.60
  -2   2  -4  302.37   15.40
   2  -2   4  268.27   15.70
   2  -2   4  289.37   11.00
   2  -2   4  283.67   17.90
  -3   2  -4 1081.69   35.30
  -3   2  -4 1112.99   44.60
  -3   2  -4 1041.00   37.20
   3  -2   4 1033.40   34.30
   3  -2   4 1052.39   45.80
  -4   2  -4  702.03   26.00
  -4   2  -4  722.63   37.40
  -4   2  -4  644.34   35.60
  -4   2  -4  668.03   25.70
   4  -2   4  655.73   38.20
   4  -2   4  687.23   26.70
  -5   2  -4  127.59   11.80
  -5   2  -4  158.18   22.20
  -6  -1   4   -0.70    9.30
  -6  -1   4    2.90    7.00
  -6  -1   4    2.20   10.90
  -5  -1   4   15.30    6.30
  -5  -1   4   -9.10    8.50
  -5  -1   4    4.00    9.50
   4   1  -4  176.78   20.50
  -4  -1   4  174.78   19.80
  -4  -1   4  176.48   10.80
  -4  -1   4  135.69   16.60
  -4  -1   4  158.38   10.50
   3   1  -4  224.88   12.80
   3   1  -4  222.18   17.90
  -3  -1   4  224.88   12.80
  -3  -1   4  240.58   18.40
  -3  -1   4  239.18   10.80
  -3  -1   4  236.58   19.80
   2   1  -4  103.89   11.50
   2   1  -4  114.39    8.80
  -2  -1   4  121.69   13.70
  -2  -1   4   92.99    8.30
  -2  -1   4   99.29    4.90
   1   1  -4  886.81   26.40
   1   1  -4  900.31   34.00
   1   1  -4  952.20   32.30
  -1  -1   4  908.61   32.10
  -1  -1   4  900.01   33.80
   0   1  -4 1049.59   35.10
   0   1  -4 1011.30   33.20
   0  -1   4 1019.20   32.20
   0  -1   4  982.70   35.10
   0  -1   4 1002.20   33.10
  -1   1  -4 1289.57   42.80
  -1   1  -4 1299.57   40.40
   1  -1   4 1260.47   35.90
   1  -1   4 1218.78   42.90
   1  -1   4 1302.27   41.10
  -2   1  -4  208.38   12.70
  -2   1  -4  211.38   13.90
   2  -1   4  204.88   14.40
  -3   1  -4  354.86   21.50
  -3   1  -4  360.16   13.80
  -3   1  -4  332.87   17.20
   3  -1   4  333.37   21.70
  -4   1  -4   15.20    8.40
  -4   1  -4   34.70    6.30
  -4   1  -4   30.60    5.70
   4  -1   4   24.00   10.00
  -5   1  -4   -2.60    4.90
  -5   1  -4   12.00    9.00
  -5   1  -4    0.90    3.10
  -6   1  -4   28.10   12.80
  -6   0   4  133.49   23.80
  -6   0   4   92.99   18.90
  -5   0   4  515.85   33.60
  -5   0   4  529.75   25.30
  -5   0   4  481.25   36.60
   4   0  -4  102.69   16.00
  -4   0   4  108.79   16.10
  -4   0   4  100.29   18.30
   3   0  -4  443.26   25.70
   3   0  -4  427.06   16.60
  -3   0   4  443.16   17.20
  -3   0   4  431.56   27.90
  -3   0   4  463.95   19.00
  -3   0   4  421.46   25.20
   2   0  -4  867.51   29.00
   2   0  -4  843.82   35.30
  -2   0   4  862.41   36.70
  -2   0   4  876.91   28.10
  -2   0   4  831.72   36.70
   1   0  -4  796.62   27.70
   1   0  -4  779.22   25.00
   1   0  -4  771.52   30.20
  -1   0   4  823.42   30.70
  -1   0   4  797.82   25.20
   0   0  -4 7484.05  207.78
   0   0  -4 7476.95  205.78
   0   0  -4 7457.05  205.58
   0   0   4 7215.68  205.78
   0   0   4 7596.14  208.48
  -1   0  -4  372.86   17.90
  -1   0  -4  391.86   12.40
  -1   0  -4  374.56   14.10
   1   0   4  364.86   12.30
   1   0   4  371.86   14.60
  -2   0  -4 2258.47   62.29
  -2   0  -4 2166.88   69.79
  -2   0  -4 2276.37   68.89
   2   0   4 2203.98   69.69
  -3   0  -4  114.09   10.70
  -3   0  -4  132.19   12.40
  -3   0  -4  113.19   10.40
   3   0   4  113.39   12.30
  -4   0  -4  676.23   28.80
  -4   0  -4  677.53   34.50
  -4   0  -4  681.23   26.40
   4   0   4  678.53   36.10
  -5   0  -4  518.85   29.30
  -5   0  -4  513.35   49.70
  -5   0  -4  516.65   22.90
  -5   0  -4  539.65   23.30
  -6   0  -4   36.20    8.70
  -6   0  -4   28.50   12.80
  -6   1   4   67.99   15.50
  -6   1   4   87.19   21.60
  -5   1   4   -3.20    6.10
  -5   1   4    8.20    9.40
  -5   1   4   -2.90    9.10
   4  -1  -4   -2.10   11.70
  -4   1   4    6.10    5.30
  -4   1   4    5.10    7.80
  -4   1   4    5.40    9.90
   3  -1  -4  264.17   19.70
  -3   1   4  257.17   14.70
  -3   1   4  253.77   18.70
  -3   1   4  225.88   20.10
   2  -1  -4  292.77   15.00
   2  -1  -4  291.67   12.20
   2  -1  -4  316.27   18.70
  -2   1   4  304.07   18.80
  -2   1   4  257.17   18.70
  -2   1   4  298.97   14.30
   1  -1  -4 2698.23   79.89
   1  -1  -4 2712.13   84.09
   1  -1  -4 2875.71   81.09
  -1   1   4 2809.22   84.39
  -1   1   4 2771.72   84.49
  -1   1   4 2651.73   79.69
   0  -1  -4  130.29    8.90
   0  -1  -4  131.19    8.50
   0   1   4  127.49    8.60
   0   1   4  125.59    9.10
  -1  -1  -4  614.34   18.50
  -1  -1  -4  607.14   20.90
  -1  -1  -4  629.04   25.10
   1   1   4  614.64   19.20
  -2  -1  -4   16.50    5.70
  -2  -1  -4   15.70    4.60
   2   1   4    9.70    4.30
  -3  -1  -4  205.68   14.80
  -3  -1  -4  189.08   11.40
   3   1   4  206.68   17.50
  -4  -1  -4  299.77   16.70
  -4  -1  -4  297.07   18.40
  -4  -1  -4  335.07   22.50
  -5  -1  -4   30.60   10.40
  -5  -1  -4   10.50    5.70
  -5  -1  -4   30.90    8.10
  -6  -1  -4   63.69   11.40
  -6  -1  -4   61.59   16.20
  -6  -1  -4   55.59    8.90
  -6  -1  -4   84.59    8.80
  -6  -1  -4   44.90   13.60
  -6   2   4   43.40   13.10
  -5   2   4  595.24   36.50
  -5   2   4  616.64   43.20
  -5   2   4  642.04   32.40
   4  -2  -4   86.19   14.80
  -4   2   4   89.69   12.30
  -4   2   4   69.49   16.10
  -4   2   4   69.59   13.70
   3  -2  -4   43.30   11.60
   3  -2  -4   49.50   10.60
  -3   2   4   39.30    9.60
  -3   2   4   35.40   10.90
  -3   2   4   54.79    8.50
   2  -2  -4  957.70   35.70
   2  -2  -4  961.30   30.10
   2  -2  -4  908.71   37.90
   2  -2  -4  887.31   39.30
  -2   2   4  913.01   39.90
  -2   2   4  944.51   34.50
  -2   2   4  923.91   38.00
   1  -2  -4 3879.51  118.39
   1  -2  -4 3998.90  115.99
   1  -2  -4 4085.59  118.99
  -1   2   4 3904.11  118.49
  -1   2   4 4149.28  119.09
  -1   2   4 3985.50  115.69
   0  -2  -4 1498.85   49.50
   0  -2  -4 1525.95   49.00
   0  -2  -4 1509.75   46.50
   0   2   4 1692.03   50.69
   0   2   4 1507.45   46.40
   0   2   4 1539.75   49.30
  -1  -2  -4  207.88   13.00
  -1  -2  -4  221.88   12.30
   1   2   4  237.38   14.00
  -2  -2  -4   57.39    9.50
  -3  -2  -4  329.87   17.40
  -3  -2  -4  318.47   20.50
  -3  -2  -4  321.87   18.20
  -4  -2  -4  573.44   28.50
  -4  -2  -4  559.34   30.00
  -4  -2  -4  550.14   30.90
  -4  -2  -4  592.64   28.80
  -5  -2  -4  -10.00    6.30
  -5  -2  -4    3.80    5.20
  -5  -2  -4   14.50    9.00
  -5  -2  -4    5.90    6.20
  -6  -2  -4  107.09   14.30
  -6  -2  -4   92.49   13.80
  -6  -2  -4   61.99   14.60
  -6  -2  -4  116.99   20.10
  -6  -2  -4  115.09   12.30
  -5   3   4   20.20   12.50
  -5   3   4   25.40   12.90
   4  -3  -4  170.28   17.90
  -4   3   4  176.28   18.00
  -4   3   4  166.78   15.50
  -4   3   4  151.38   22.40
   3  -3  -4   92.59   13.90
   3  -3  -4   91.99   13.80
  -3   3   4   82.69   14.40
  -3   3   4   80.79   11.60
  -3   3   4   97.69   15.10
   2  -3  -4  596.34   27.80
   2  -3  -4  582.64   30.70
   2  -3  -4  565.34   28.50
  -2   3   4  619.94   29.50
  -2   3   4  630.34   31.00
  -2   3   4  591.04   26.50
   1  -3  -4  322.87   18.80
   1  -3  -4  356.46   18.10
  -1   3   4  389.66   19.90
  -1   3   4  302.17   16.90
   0  -3  -4   44.00    7.40
   0  -3  -4   45.50    6.40
   0  -3  -4   56.29    8.90
   0   3   4   42.30    8.40
   0   3   4   61.09    8.60
  -1  -3  -4   32.50    7.00
  -1  -3  -4   26.90    6.90
  -1  -3  -4   26.80    2.80
   1   3   4   31.60    6.70
  -2  -3  -4  185.48   13.70
  -2  -3  -4  180.98    9.90
   2   3   4  176.48   14.30
  -3  -3  -4   -0.90    3.20
  -3  -3  -4    6.50    5.30
  -3  -3  -4   -5.30    3.30
  -3  -3  -4   -2.30    3.60
  -4  -3  -4   92.19   13.40
  -4  -3  -4   83.99   12.00
  -4  -3  -4  106.89   14.60
  -4  -3  -4  110.49   15.50
  -5  -3  -4  967.10   42.60
  -5  -3  -4  965.70   45.60
  -5  -3  -4  963.80   41.80
  -5  -3  -4  915.51   44.60
  -6  -3  -4    8.10    7.80
  -6  -3  -4    1.00    9.30
  -6  -3  -4    1.60    7.50
  -6  -3  -4    5.10    8.90
  -5   4   4  245.58   25.40
  -5   4   4  197.68   31.20
   4  -4  -4  183.98   20.20
  -4   4   4  199.28   22.70
  -4   4   4  202.88   20.90
  -4   4   4  193.38   17.30
   3  -4  -4  424.56   30.20
   3  -4  -4  422.86   27.40
   3  -4  -4  493.65   28.40
  -3   4   4  469.75   28.60
  -3   4   4  472.65   31.50
  -3   4   4  434.76   25.30
   2  -4  -4  383.06   23.30
   2  -4  -4  368.06   24.60
   2  -4  -4  392.86   23.00
   2  -4  -4  396.66   18.10
  -2   4   4  405.06   22.00
  -2   4   4  405.56   24.70
  -2   4   4  389.66   23.70
   1  -4  -4    4.20    4.30
   1  -4  -4    1.00    3.60
   1  -4  -4    5.80    4.60
   1  -4  -4    5.50    4.90
  -1   4   4   13.30    4.80
  -1   4   4    5.00    6.20
   0  -4  -4 1275.07   43.30
   0  -4  -4 1095.99   45.40
   0  -4  -4 1353.46   46.70
   0  -4  -4 1311.97   47.30
   0   4   4 1260.57   45.70
   0   4   4 1405.06   42.70
   0   4   4 1375.56   48.70
  -1  -4  -4  973.30   32.10
  -1  -4  -4 1153.78   44.50
  -1  -4  -4 1060.59   41.80
   1   4   4 1026.80   31.60
   1   4   4 1024.70   39.20
  -2  -4  -4  953.10   40.60
  -2  -4  -4  944.11   29.90
  -2  -4  -4  938.21   36.90
   2   4   4  979.50   39.10
  -3  -4  -4   48.00    8.00
  -3  -4  -4   40.40    8.50
  -3  -4  -4   55.79   11.00
  -4  -4  -4  415.46   25.40
  -4  -4  -4  431.16   25.20
  -4  -4  -4  411.36   26.30
  -4  -4  -4  438.46   24.90
  -5  -4  -4   13.80    7.40
  -5  -4  -4    0.10    5.40
  -5  -4  -4    5.30    7.40
  -5  -4  -4   -8.90    6.00
  -6  -4  -4  116.29   17.00
  -6  -4  -4  166.68   20.40
  -6  -4  -4  106.49   17.10
  -6  -4  -4  142.49   19.40
  -5   5   4    7.30   13.10
  -5   5   4   -4.00   10.30
  -4   5   4  270.37   27.00
  -4   5   4  299.77   25.80
   3  -5  -4  134.49   15.40
   3  -5  -4  138.79   19.10
  -3   5   4  111.69   13.20
  -3   5   4  133.89   24.30
  -3   5   4  118.89   17.40
   2  -5  -4 1680.03   63.69
   2  -5  -4 1736.03   56.69
   2  -5  -4 1698.33   66.19
   2  -5  -4 1655.83   63.29
  -2   5   4 1615.54   61.39
  -2   5   4 1724.23   64.69
  -2   5   4 1733.03   64.99
   1  -5  -4  434.66   24.20
   1  -5  -4  426.56   24.30
   1  -5  -4  464.75   23.80
   1  -5  -4  440.16   24.60
  -1   5   4  475.25   24.30
  -1   5   4  468.85   24.00
  -1   5   4  402.56   24.80
   0  -5  -4 2422.26   80.99
   0  -5  -4 2484.55   79.69
   0  -5  -4 2305.47   79.79
   0  -5  -4 2446.96   76.39
   0   5   4 2494.95   74.69
   0   5   4 2454.55   79.39
  -1  -5  -4  348.57   21.80
  -1  -5  -4  334.27   19.30
  -1  -5  -4  353.26   15.40
  -1  -5  -4  326.07   20.20
   1   5   4  356.16   20.20
   1   5   4  331.47   14.20
  -2  -5  -4   69.49    5.90
  -2  -5  -4   71.09   13.20
  -2  -5  -4   79.69   11.10
   2   5   4   69.69   11.10
  -3  -5  -4   66.29   13.40
  -3  -5  -4   75.19   11.60
  -3  -5  -4   68.19    9.80
   3   5   4   65.19   11.60
  -4  -5  -4    9.00    6.20
  -4  -5  -4    1.10    5.10
  -4  -5  -4   -3.50    6.20
  -4  -5  -4   -4.10    5.10
  -5  -5  -4  354.56   25.70
  -5  -5  -4  396.56   25.10
  -5  -5  -4  361.86   26.80
  -5  -5  -4  379.96   26.80
  -6  -5  -4   92.19   17.00
  -6  -5  -4   73.59   14.50
  -6  -5  -4   73.09   16.40
  -6  -5  -4  101.49   17.50
  -5   6   4  -10.10   11.60
  -4   6   4   15.60   11.70
  -4   6   4   -1.00    9.70
   3  -6  -4   80.29   15.50
   3  -6  -4   86.29    8.10
   3  -6  -4   87.49   17.70
  -3   6   4   64.09   15.50
  -3   6   4   69.69   16.40
   2  -6  -4  355.26   28.60
   2  -6  -4  334.87   24.10
   2  -6  -4  310.77   26.90
  -2   6   4  366.66   23.50
  -2   6   4  314.77   24.10
  -2   6   4  343.07   24.50
   1  -6  -4  151.38   15.30
   1  -6  -4  147.89   14.40
   1  -6  -4  165.38   14.20
   1  -6  -4  143.79   14.30
  -1   6   4  159.78   14.50
  -1   6   4  125.79   15.50
  -1   6   4  166.38   15.20
   0  -6  -4  503.85   24.90
   0  -6  -4  532.25   28.70
   0  -6  -4  573.14   28.30
   0  -6  -4  553.74   29.20
   0   6   4  500.45   26.90
  -1  -6  -4    4.10    6.60
  -1  -6  -4    2.50    3.50
  -1  -6  -4    1.00    3.80
  -1  -6  -4    6.00    5.70
   1   6   4   -0.80    3.80
   1   6   4   -1.70    2.80
  -2  -6  -4   87.49   15.50
  -2  -6  -4   76.99    7.00
  -2  -6  -4   77.39   11.80
   2   6   4   69.59   11.20
  -3  -6  -4   11.90    5.40
  -3  -6  -4    7.30    3.80
  -3  -6  -4   13.10    8.30
   3   6   4    4.30    6.50
  -4  -6  -4   25.40   10.00
  -4  -6  -4   22.00    7.60
  -4  -6  -4   13.70    9.60
  -4  -6  -4   23.60    8.00
  -5  -6  -4  137.89   21.10
  -5  -6  -4   82.69   14.10
  -5  -6  -4   68.19   12.70
  -6  -6  -4  173.08   23.70
  -6  -6  -4  203.48   19.80
  -6  -6  -4  204.38   22.40
  -6  -6  -4  188.08   21.80
  -4   7   4  144.89   22.90
  -4   7   4  168.78   24.60
   3  -7  -4   28.30   12.80
   3  -7  -4   41.90    7.60
  -3   7   4   25.90   11.20
  -3   7   4   41.90   14.70
   2  -7  -4    1.80    7.90
   2  -7  -4    3.80    5.50
   2  -7  -4    8.50    8.40
   2  -7  -4   -0.50    8.30
  -2   7   4   10.80    8.50
  -2   7   4   19.80   10.60
   1  -7  -4  438.66   27.10
   1  -7  -4  371.86   25.50
   1  -7  -4  353.86   25.10
   1  -7  -4  381.76   24.10
  -1   7   4  383.56   24.90
  -1   7   4  423.06   24.30
   0  -7  -4   36.50   11.10
   0  -7  -4   63.99   12.00
   0  -7  -4   44.70   11.80
   0  -7  -4   37.30    8.60
   0   7   4   43.70    8.40
   0   7   4   43.20   10.00
  -1  -7  -4  157.78   17.30
  -1  -7  -4  162.38   14.80
  -1  -7  -4  189.38   18.60
   1   7   4  157.48   11.60
   1   7   4  163.68   15.30
  -2  -7  -4  374.06   27.20
  -2  -7  -4  345.67   17.30
  -2  -7  -4  368.06   22.70
   2   7   4  373.36   23.60
  -3  -7  -4  401.86   29.20
  -3  -7  -4  470.55   25.80
  -3  -7  -4  433.36   25.10
   3   7   4  390.86   26.30
  -4  -7  -4  113.69   20.20
  -4  -7  -4  115.29   10.80
  -4  -7  -4  121.19   13.90
  -4  -7  -4  110.59   13.20
  -4  -7  -4  116.69   18.70
  -5  -7  -4    2.70    8.50
  -5  -7  -4   14.30    6.50
  -5  -7  -4    1.20    5.50
  -5  -7  -4   10.30    9.20
  -5  -7  -4   -1.50    8.00
  -6  -7  -4  144.29   21.80
  -4   8   4  135.09   23.40
   3  -8  -4   -1.40    5.70
   3  -8  -4    6.40    8.90
  -3   8   4  -15.50    8.10
   2  -8  -4    2.80    6.10
   2  -8  -4    3.90    7.00
  -2   8   4   17.10   10.70
   1  -8  -4   81.09   15.70
   1  -8  -4   80.29   13.80
   1  -8  -4   85.09   15.50
  -1   8   4   97.69   14.80
   0  -8  -4  183.78   17.00
   0  -8  -4  191.28   19.40
   0  -8  -4  179.08   18.90
   0  -8  -4  190.58   18.10
   0   8   4  201.48   18.10
   0   8   4  192.58   15.20
  -1  -8  -4  124.09   12.60
  -1  -8  -4  137.89   18.30
  -1  -8  -4  143.69   20.50
  -1  -8  -4  123.59   18.30
   1   8   4  169.38   12.80
   1   8   4  135.49   14.90
  -2  -8  -4   14.20    8.30
  -2  -8  -4    0.50    7.80
  -2  -8  -4    4.30    5.30
  -2  -8  -4    1.40    4.50
   2   8   4   10.00    7.00
  -3  -8  -4  399.66   19.70
  -3  -8  -4  398.46   29.90
  -3  -8  -4  407.26   24.80
   3   8   4  339.47   25.60
  -4  -8  -4    3.90    6.00
  -4  -8  -4    5.30    9.40
  -4  -8  -4   14.70    5.10
  -4  -8  -4   12.10    6.70
  -4  -8  -4   15.00   11.00
   4   8   4   -5.60    7.70
  -5  -8  -4   31.40   13.40
  -5  -8  -4   42.70   11.30
  -5  -8  -4   24.70   12.20
  -5  -8  -4   58.69   13.20
  -5  -8  -4   33.60   10.30
   3  -9  -4   86.59   13.40
   3  -9  -4   50.59   16.80
  -3   9   4   65.19   16.40
   2  -9  -4  369.96   26.00
   2  -9  -4  353.86   29.80
  -2   9   4  384.46   29.10
   1  -9  -4  254.47   27.10
   1  -9  -4  259.77   22.90
   1  -9  -4  251.97   24.20
  -1   9   4  242.38   20.80
   0  -9  -4  212.08   20.50
   0  -9  -4  185.08   20.20
   0  -9  -4  202.78   19.10
   0   9   4  200.68   17.00
  -1  -9  -4  536.65   33.00
  -1  -9  -4  559.34   29.20
  -1  -9  -4  613.24   37.50
   1   9   4  591.54   27.70
  -2  -9  -4  292.37   18.60
  -2  -9  -4  329.77   35.10
  -2  -9  -4  235.18   23.90
  -3  -9  -4   19.00   10.40
  -3  -9  -4   14.70    6.00
  -4  -9  -4    9.30    6.00
  -4  -9  -4    4.70    5.80
  -4  -9  -4    6.30    9.40
  -5  -9  -4   15.90    9.10
  -5  -9  -4  -10.80   10.10
  -5  -9  -4   22.80    8.50
  -5  -9  -4   -8.10    7.60
   3 -10  -4   24.30   11.70
   3 -10  -4   29.10   11.90
  -3  10   4   15.50   11.70
   2 -10  -4   24.80   10.90
   2 -10  -4   19.50   10.20
  -2  10   4   51.79   13.60
   1 -10  -4  503.15   33.30
   1 -10  -4  425.96   33.20
  -1  10   4  464.75   29.50
   0 -10  -4    9.30    9.30
   0 -10  -4   13.00    7.80
   0 -10  -4   14.60   10.20
   0  10   4   15.30    8.00
  -1 -10  -4   88.79   18.20
  -1 -10  -4   69.89   14.50
  -1 -10  -4   89.89   14.00
   1  10   4   82.89   12.10
  -2 -10  -4  294.37   27.10
  -2 -10  -4  261.97   19.80
  -2 -10  -4  311.27   24.50
  -3 -10  -4  147.09   16.90
  -3 -10  -4  174.78   26.30
  -3 -10  -4  130.49   14.20
  -4 -10  -4   27.50    8.90
  -4 -10  -4    8.10    9.30
  -4 -10  -4   19.40    8.80
   2 -11  -4   85.19   17.90
   2 -11  -4   59.19   17.70
   1 -11  -4  138.89   22.40
  -1  11   4  133.09   19.50
   0 -11  -4   68.69   17.40
   0 -11  -4   73.19   15.80
   0  11   4   44.80   11.00
  -1 -11  -4  162.18   24.40
  -1 -11  -4  127.19   19.60
  -1 -11  -4  153.48   20.60
   1  11   4  148.39   15.30
  -2 -11  -4    7.20   10.10
  -2 -11  -4   25.50   12.60
  -2 -11  -4    9.50    8.50
  -3 -11  -4   -7.10    6.60
  -4 -11  -4  -18.80    8.50
  -4 -11  -4    5.50    6.80
   1 -12  -4   82.89   17.90
  -1  12   4   70.19   14.40
   0 -12  -4   12.10   11.20
   0 -12  -4   14.70   10.60
   0  12   4   27.30   10.50
  -1 -12  -4    7.00   10.10
  -1 -12  -4  -16.70   10.70
   1  12   4    1.60    7.10
  -2 -12  -4  571.44   42.80
  -3 -12  -4  118.69   19.30
  -3 -12  -4   83.69   20.40
  -2 -12   5   44.10   15.30
  -2 -12   5   16.90   12.70
  -1 -12   5   18.40   11.70
   0  12  -5   33.00   12.00
  -1  12  -5    6.60   10.00
   1 -12   5   24.70   14.00
  -3 -11   5    7.30    9.80
  -3 -11   5   21.00   11.20
  -2 -11   5  242.08   26.00
  -2 -11   5  211.98   24.30
  -2 -11   5  241.28   27.10
  -1 -11   5  106.89   20.20
   0  11  -5   12.70    8.30
   0 -11   5    1.90    9.80
  -1  11  -5   84.49   16.30
   1 -11   5   62.19   14.10
  -2  11  -5   15.20    9.50
   2 -11   5   17.10   11.70
  -4 -10   5   52.89   25.30
  -4 -10   5   61.59   17.30
   3  10  -5    9.30    7.70
  -3 -10   5    1.70    7.80
  -3 -10   5   -9.80    9.70
  -2 -10   5  130.79   15.20
  -2 -10   5  109.89   19.90
  -2 -10   5   92.49   19.20
   1  10  -5  274.47   22.00
  -1 -10   5  233.78   25.10
  -1 -10   5  273.97   22.30
   0  10  -5  111.39   17.60
   0 -10   5  139.39   23.10
  -1  10  -5   46.30   12.90
   1 -10   5   57.69   14.30
  -2  10  -5  114.79   18.80
   2 -10   5  120.69   20.20
  -3  10  -5   40.10   13.60
   3 -10   5   31.20   14.10
  -5  -9   5   47.20   15.10
  -5  -9   5   39.60   13.40
  -4  -9   5  378.66   31.70
  -4  -9   5  349.57   32.10
   3   9  -5   -2.50    5.40
  -3  -9   5    4.50    8.50
  -3  -9   5   14.70    5.70
  -3  -9   5   -2.90    6.70
   2   9  -5  177.28   15.60
  -2  -9   5  198.18   16.50
  -2  -9   5  206.68   21.50
  -2  -9   5  222.38   23.70
   1   9  -5  939.51   46.70
  -1  -9   5  943.61   43.70
  -1  -9   5  919.21   49.10
   0   9  -5  451.55   28.40
   0   9  -5  469.65   28.80
   0  -9   5  438.56   31.40
  -1   9  -5  561.04   33.30
   1  -9   5  531.95   39.60
   1  -9   5  572.54   34.20
   2  -9   5   42.90   13.50
   2  -9   5   25.70   11.30
  -3   9  -5    4.30   11.90
   3  -9   5   33.50   12.40
   3  -9   5   -4.40   13.10
  -5  -8   5   34.70   12.10
  -5  -8   5   28.50   12.80
  -4  -8   5   25.80   11.80
  -4  -8   5    3.40    9.10
   3   8  -5    9.40    4.80
  -3  -8   5    5.70    9.40
  -3  -8   5   15.40    9.20
   2   8  -5   -4.40    3.80
  -2  -8   5    3.10    5.70
  -2  -8   5    5.50    4.90
  -2  -8   5    0.90    6.10
  -2  -8   5   -6.70    8.00
   1   8  -5  230.08   22.40
   1   8  -5  212.98   16.50
  -1  -8   5  211.38   18.20
  -1  -8   5  229.58   18.20
  -1  -8   5  206.38   21.10
   0   8  -5   10.70    7.20
   0   8  -5   19.60    9.60
   0  -8   5    5.10    8.10
   0  -8   5    1.60    6.80
  -1   8  -5  684.83   35.10
  -1   8  -5  604.24   36.20
   1  -8   5  656.73   34.60
   1  -8   5  674.73   36.90
  -2   8  -5 1608.44   64.79
  -2   8  -5 1567.24   64.39
   2  -8   5 1531.45   60.39
   2  -8   5 1635.04   64.49
  -3   8  -5   80.49   15.80
  -3   8  -5   80.59   22.50
   3  -8   5   65.39   14.30
   3  -8   5   70.69   15.10
  -4   8  -5   -3.00    9.20
   4  -8   5  -24.00   15.40
   4  -8   5  -14.40    9.70
  -5  -7   5   49.70   13.30
  -5  -7   5   48.80   15.00
  -4  -7   5   36.90   12.70
  -4  -7   5   43.80   12.60
   3   7  -5  156.58   10.60
   3   7  -5  140.09   20.30
  -3  -7   5  136.99   17.20
  -3  -7   5  164.78   22.10
  -3  -7   5  200.88   21.40
   2   7  -5  692.63   38.80
   2   7  -5  684.83   34.10
  -2  -7   5  702.03   33.40
  -2  -7   5  718.63   39.60
  -2  -7   5  757.02   30.30
  -2  -7   5  721.53   38.60
   1   7  -5  595.14   27.10
   1   7  -5  544.25   36.60
  -1  -7   5  562.84   33.50
  -1  -7   5  580.74   33.00
  -1  -7   5  578.94   29.50
  -1  -7   5  576.44   28.40
   0   7  -5   -9.70    4.40
   0   7  -5    2.90    6.20
   0   7  -5   -3.60    4.30
   0  -7   5   -5.40    5.10
  -1   7  -5  157.38   16.10
  -1   7  -5  133.89   14.90
  -1   7  -5  128.99   15.50
   1  -7   5  163.28   15.80
   1  -7   5  180.48   17.20
   1  -7   5  127.59   15.90
  -2   7  -5   13.60    8.90
  -2   7  -5   -0.40    6.40
   2  -7   5    7.50    7.20
   2  -7   5    2.40    7.20
  -3   7  -5   -4.00    6.90
  -3   7  -5   -5.80    6.50
   3  -7   5    9.90    6.90
   3  -7   5  -11.70    6.30
  -4   7  -5   38.60   10.20
  -4   7  -5   36.30   11.70
   4  -7   5   24.80   11.00
  -5  -6   5   40.60   13.80
  -5  -6   5   17.70   10.70
   4   6  -5  279.77   24.10
  -4  -6   5  276.57   26.50
  -4  -6   5  271.77   23.10
   3   6  -5  650.43   41.30
  -3  -6   5  720.63   39.60
  -3  -6   5  615.14   31.50
  -3  -6   5  674.63   36.20
   2   6  -5  123.99   17.70
   2   6  -5  116.19    8.50
  -2  -6   5  128.19   17.90
  -2  -6   5  137.99   12.90
  -2  -6   5  142.09   15.70
   1   6  -5   36.70    7.20
   1   6  -5   43.90   10.00
  -1  -6   5   45.10   11.10
  -1  -6   5   33.50    9.80
  -1  -6   5   37.80    8.50
   0   6  -5 2017.90   73.39
   0   6  -5 1995.80   68.69
   0   6  -5 2038.90   68.99
   0  -6   5 1995.70   69.29
   0  -6   5 2036.00   73.39
  -1   6  -5 1560.44   59.79
  -1   6  -5 1602.04   58.29
  -1   6  -5 1580.74   60.29
   1  -6   5 1532.35   59.69
   1  -6   5 1600.54   60.29
  -2   6  -5  192.78   18.80
  -2   6  -5  224.38   18.10
  -2   6  -5  269.37   20.60
   2  -6   5  260.87   21.90
   2  -6   5  206.98   15.90
   2  -6   5  225.78   18.40
  -3   6  -5   88.29   15.70
  -3   6  -5  129.29   13.30
   3  -6   5  139.19   13.20
   3  -6   5  109.29   15.00
  -4   6  -5   18.10   12.20
  -4   6  -5   17.70    7.80
   4  -6   5    4.20    7.20
  -5   6  -5    4.50   12.30
  -6  -5   5    1.20   11.60
  -6  -5   5   15.90   12.10
  -6  -5   5   23.50   10.70
   5   5  -5   31.10   12.50
  -5  -5   5   51.49   14.90
  -5  -5   5   28.70   12.50
  -5  -5   5   40.10   10.80
   4   5  -5  243.38   20.80
  -4  -5   5  285.97   21.60
  -4  -5   5  240.98   23.10
   3   5  -5 1945.81   73.29
  -3  -5   5 2023.40   73.29
  -3  -5   5 2001.70   77.29
   2   5  -5  557.44   30.30
   2   5  -5  566.44   20.10
  -2  -5   5  557.14   30.00
  -2  -5   5  554.94   26.80
  -2  -5   5  593.94   32.10
   1   5  -5  205.48   16.80
   1   5  -5  205.58   12.20
  -1  -5   5  219.28   17.60
  -1  -5   5  218.68   17.20
  -1  -5   5  178.88   13.50
   0   5  -5  389.06   20.80
   0   5  -5  400.66   23.40
   0   5  -5  404.96   21.30
   0  -5   5  412.66   21.30
   0  -5   5  376.06   23.00
  -1   5  -5  314.77   20.00
  -1   5  -5  280.47   18.30
  -1   5  -5  295.67   19.60
   1  -5   5  280.67   19.30
   1  -5   5  297.57   19.60
  -2   5  -5  234.48   19.20
  -2   5  -5  253.37   18.70
  -2   5  -5  244.48   17.30
   2  -5   5  244.28   20.10
   2  -5   5  240.18   14.70
   2  -5   5  255.77   17.80
  -3   5  -5  273.37   17.80
  -3   5  -5  254.57   21.70
   3  -5   5  255.17   18.40
   3  -5   5  249.58   15.20
  -4   5  -5    3.30    9.30
   4  -5   5   10.30    6.10
   5  -5   5   -6.30    7.90
  -6  -4   5   81.29   16.80
  -6  -4   5   79.29   13.00
  -6  -4   5   49.20   18.00
  -5  -4   5  237.38   25.70
  -5  -4   5  280.87   20.30
  -5  -4   5  256.97   27.10
   4   4  -5    9.30    6.80
  -4  -4   5    4.10    7.90
  -4  -4   5   17.60    6.40
   3   4  -5   16.30    7.40
  -3  -4   5   12.90    8.50
  -3  -4   5   33.70    8.90
   2   4  -5   11.40    2.00
   2   4  -5    2.40    4.90
  -2  -4   5    4.30    5.50
  -2  -4   5   10.10    5.50
   1   4  -5  994.60   33.30
   1   4  -5  989.80   40.50
  -1  -4   5  949.51   36.80
  -1  -4   5 1021.10   40.90
  -1  -4   5 1002.60   40.90
   0   4  -5   25.60    6.60
   0   4  -5   28.90    8.20
   0   4  -5   19.80    5.90
   0  -4   5   24.00    7.30
   0  -4   5   29.40    6.50
   0  -4   5   24.60    6.30
  -1   4  -5   33.60    7.70
  -1   4  -5   42.50    8.00
  -1   4  -5   56.59   10.20
   1  -4   5   53.19    9.90
   1  -4   5   57.79    9.90
  -2   4  -5 1533.05   58.89
  -2   4  -5 1534.95   54.29
  -2   4  -5 1552.54   56.09
   2  -4   5 1498.25   55.29
   2  -4   5 1490.15   48.30
   2  -4   5 1537.55   58.09
  -3   4  -5  172.38   17.40
  -3   4  -5  180.28   13.90
  -3   4  -5  170.18   18.50
   3  -4   5  169.88   10.90
   3  -4   5  145.59   17.40
  -4   4  -5   10.00    5.30
  -4   4  -5    3.40    8.80
   4  -4   5    5.20    4.50
  -5   4  -5    5.40    8.80
   5  -4   5   18.40    7.20
  -6  -3   5  176.78   20.50
  -6  -3   5  116.59   19.60
  -6  -3   5  101.49   21.80
  -5  -3   5   14.90   11.00
  -5  -3   5    1.30    7.20
  -5  -3   5   21.30    6.90
   4   3  -5  306.97   26.30
   4   3  -5  296.77   19.70
  -4  -3   5  307.47   26.20
  -4  -3   5  304.67   24.50
  -4  -3   5  324.17   19.90
   3   3  -5   67.89   10.90
   3   3  -5   57.59   12.30
  -3  -3   5   61.79   12.40
  -3  -3   5   69.09   10.80
   2   3  -5  208.28   16.20
   2   3  -5  148.89   12.80
  -2  -3   5  163.98   14.70
  -2  -3   5  155.28   15.10
   1   3  -5 1282.67   39.70
  -1  -3   5 1338.97   48.10
  -1  -3   5 1302.77   47.40
  -1  -3   5 1255.27   44.10
   0   3  -5   69.29    8.90
   0   3  -5   69.69    9.90
   0   3  -5   62.39    8.70
   0  -3   5   59.59    9.40
   0  -3   5   60.29    8.60
   0  -3   5   58.19    7.10
  -1   3  -5 1826.92   61.49
   1  -3   5 1804.02   60.39
   1  -3   5 1890.21   62.19
  -2   3  -5 2564.54   81.69
  -2   3  -5 2421.96   79.59
  -2   3  -5 2448.06   84.59
   2  -3   5 2448.26   82.99
   2  -3   5 2558.44   72.69
   2  -3   5 2681.23   81.69
  -3   3  -5  712.33   36.50
  -3   3  -5  745.53   35.40
  -3   3  -5  701.33   29.50
   3  -3   5  726.33   36.80
   3  -3   5  703.33   24.40
  -4   3  -5  429.86   21.00
  -4   3  -5  518.05   42.90
   4  -3   5  445.76   18.20
  -5   3  -5  239.68   23.70
  -6  -2   5   12.80   11.20
  -6  -2   5  -11.00   12.50
  -5  -2   5  103.89    9.90
  -5  -2   5   59.49   16.30
  -5  -2   5   85.49   17.40
  -5  -2   5   91.89    6.30
   4   2  -5   49.50    8.70
   4   2  -5   44.80   12.40
  -4  -2   5   50.99    8.50
  -4  -2   5   40.30    4.10
  -4  -2   5   30.70   11.70
  -4  -2   5   47.40   11.90
   3   2  -5  136.89   18.20
   3   2  -5   94.49   10.00
  -3  -2   5   90.69   15.60
  -3  -2   5  123.99   14.10
  -3  -2   5  120.79   11.00
   2   2  -5  477.85   22.90
   2   2  -5  486.75   26.40
  -2  -2   5  525.15   23.50
  -2  -2   5  462.75   25.60
   1   2  -5  516.85   24.10
   1   2  -5  500.15   22.90
  -1  -2   5  510.95   23.90
  -1  -2   5  475.15   22.60
   0   2  -5  542.85   22.00
   0   2  -5  508.45   23.40
   0   2  -5  527.25   21.40
   0  -2   5  537.95   21.30
   0  -2   5  575.74   22.60
   0  -2   5  560.54   24.60
  -1   2  -5  847.12   33.10
  -1   2  -5  908.01   31.60
   1  -2   5  821.72   27.70
   1  -2   5  878.61   33.80
   1  -2   5  873.31   32.00
  -2   2  -5  993.60   36.70
  -2   2  -5  961.90   37.10
   2  -2   5 1006.50   37.90
   2  -2   5  949.80   38.60
  -3   2  -5   61.79   10.90
  -3   2  -5   61.19    8.80
   3  -2   5   81.09   13.10
   3  -2   5   58.89    4.00
  -4   2  -5   19.20    5.30
  -4   2  -5   38.50   11.20
  -4   2  -5   10.00    8.60
   4  -2   5   17.60    9.70
  -5   2  -5  164.08   19.90
  -5   2  -5  175.48   10.30
  -6  -1   5   32.70   15.00
  -6  -1   5   20.10   11.90
  -5  -1   5   -4.60    8.20
  -5  -1   5   -2.40    3.50
  -5  -1   5   -3.50    8.70
   4   1  -5  557.54   22.90
   4   1  -5  564.94   34.10
  -4  -1   5  559.94   21.40
  -4  -1   5  591.04   23.50
  -4  -1   5  564.54   36.00
  -4  -1   5  525.05   32.40
   3   1  -5  113.59    9.50
   3   1  -5  129.99   14.10
  -3  -1   5  107.59    6.40
  -3  -1   5  119.79    9.90
  -3  -1   5  121.99   18.10
  -3  -1   5  125.29   13.60
   2   1  -5  309.67   15.70
   2   1  -5  272.87   18.90
  -2  -1   5  280.67   15.50
  -2  -1   5  269.57   18.30
  -2  -1   5  277.97   10.10
   1   1  -5    2.30    2.00
   1   1  -5    0.50    4.30
   1   1  -5   -1.30    3.30
  -1  -1   5   -0.20    4.30
  -1  -1   5   -6.60    3.70
   0   1  -5  209.68   11.80
   0   1  -5  220.28   13.40
   0  -1   5  205.38   12.00
   0  -1   5  209.38   10.70
   0  -1   5  226.08   14.10
  -1   1  -5  134.89   11.30
  -1   1  -5  140.09    8.90
   1  -1   5  125.89    6.20
   1  -1   5  122.09   11.10
   1  -1   5  129.89    9.20
  -2   1  -5  231.18   14.30
  -2   1  -5  196.78   13.20
   2  -1   5  191.48   13.90
  -3   1  -5  731.43   30.50
  -3   1  -5  775.32   33.70
   3  -1   5  741.03   34.80
  -4   1  -5  426.66   26.60
  -4   1  -5  394.56   20.20
   4  -1   5  346.37   26.20
  -5   1  -5  214.38   13.50
  -5   1  -5  227.58   13.70
  -5   1  -5  215.38   13.70
  -5   1  -5  225.78   22.00
  -6   1  -5  -11.20    9.90
  -6   0   5    0.90   11.50
  -6   0   5   39.50   14.60
  -5   0   5 1017.30   49.99
  -5   0   5  985.00   38.20
  -5   0   5 1031.10   56.19
   4   0  -5  253.57   22.70
  -4   0   5  276.67   22.30
  -4   0   5  266.37   14.80
   3   0  -5  640.34   23.80
   3   0  -5  662.63   33.60
  -3   0   5  658.43   35.70
  -3   0   5  637.54   24.20
  -3   0   5  687.43   33.70
   2   0  -5   25.00    5.20
   2   0  -5   20.30    6.90
  -2   0   5   36.90    6.20
  -2   0   5   23.40    4.10
  -2   0   5   23.60    8.00
  -2   0   5   28.20    8.30
   1   0  -5 1799.72   57.89
   1   0  -5 1892.81   61.29
   1   0  -5 1850.21   54.39
  -1   0   5 1935.21   61.09
  -1   0   5 1817.32   54.89
  -1   0   5 1811.92   58.69
   0   0  -5 1347.07   44.50
   0   0  -5 1261.27   41.90
   0   0  -5 1310.57   42.10
   0   0   5 1288.17   44.70
   0   0   5 1282.57   41.80
  -1   0  -5  340.07   18.30
  -1   0  -5  352.56   13.40
  -1   0  -5  345.67   12.60
   1   0   5  335.77   12.40
   1   0   5  318.47   13.60
  -2   0  -5   53.39    9.00
  -2   0  -5   47.90    6.90
   2   0   5   41.20    7.30
  -3   0  -5  538.15   25.80
  -3   0  -5  540.45   26.00
  -3   0  -5  566.74   18.60
   3   0   5  539.45   27.30
  -4   0  -5  198.08   13.30
  -4   0  -5  224.18   18.50
  -4   0  -5  180.78   21.00
   4   0   5  181.98   18.40
  -5   0  -5    6.30    5.20
  -5   0  -5   13.00    6.90
  -6   0  -5   17.30    7.50
  -6   0  -5    6.40    5.60
  -6   0  -5   17.90   13.10
  -6   1   5   83.59   17.90
  -6   1   5   62.29   20.70
  -5   1   5   47.60    9.40
  -5   1   5   60.39   16.80
  -5   1   5   46.30   13.10
   4  -1  -5  797.92   41.10
  -4   1   5  712.53   43.10
  -4   1   5  767.62   40.00
  -4   1   5  850.21   33.00
   3  -1  -5  100.79    6.10
   3  -1  -5  105.29   15.90
  -3   1   5   99.79   14.30
  -3   1   5  106.39    9.30
  -3   1   5  101.19   16.10
   2  -1  -5   23.20    7.80
   2  -1  -5    2.70    3.20
   2  -1  -5   10.70    3.70
  -2   1   5    4.30    5.60
  -2   1   5    9.00    5.40
  -2   1   5    5.60    3.20
   1  -1  -5 3109.39   92.79
   1  -1  -5 3209.58   95.99
   1  -1  -5 3049.50   90.49
  -1   1   5 3060.99   90.69
  -1   1   5 3188.08   95.69
  -1   1   5 3159.98   95.59
   0  -1  -5 2349.46   70.99
   0  -1  -5 2363.56   70.59
   0   1   5 2318.07   71.09
   0   1   5 2341.17   70.79
  -1  -1  -5 2360.86   64.09
  -1  -1  -5 2282.07   67.09
  -1  -1  -5 2298.47   72.49
   1   1   5 2233.68   67.19
   1   1   5 2328.27   64.59
  -2  -1  -5 2304.97   67.69
  -2  -1  -5 2432.36   69.99
   2   1   5 2304.47   70.79
  -3  -1  -5  205.28   14.20
   3   1   5  205.18   17.70
  -4  -1  -5  120.89    9.50
  -4  -1  -5  106.59   15.00
   4   1   5  112.89   14.30
  -5  -1  -5 1300.67   48.30
  -5  -1  -5 1261.47   54.99
  -5  -1  -5 1218.28   44.30
  -5  -1  -5 1210.78   48.20
  -5  -1  -5 1222.98   58.09
  -6  -1  -5    0.90   10.70
  -6  -1  -5    4.10    6.70
  -6  -1  -5    7.10   12.10
  -6  -1  -5    9.80   10.70
  -5   2   5  -13.30    9.90
  -5   2   5   -5.90    9.10
   4  -2  -5   29.20   11.20
  -4   2   5   35.90    8.30
  -4   2   5   29.10   13.40
  -4   2   5   28.50    9.80
   3  -2  -5    6.60    7.10
   3  -2  -5    4.90    4.10
  -3   2   5    0.30    6.10
  -3   2   5   10.30    7.20
  -3   2   5    3.00    4.00
   2  -2  -5  383.86   19.70
   2  -2  -5  408.96   24.00
   2  -2  -5  412.36   17.10
   2  -2  -5  376.06   22.30
  -2   2   5  393.96   19.00
  -2   2   5  398.16   24.10
  -2   2   5  447.66   24.40
   1  -2  -5  155.88   10.80
   1  -2  -5  139.99   12.10
  -1   2   5  144.49   12.10
  -1   2   5  168.68   13.30
  -1   2   5  163.78   10.80
   0  -2  -5    7.40    4.40
   0  -2  -5    8.10    4.40
   0   2   5    2.70    3.40
   0   2   5    6.30    5.10
   0   2   5    3.60    3.60
  -1  -2  -5  450.35   21.10
  -1  -2  -5  437.26   19.00
   1   2   5  452.85   21.80
  -2  -2  -5   49.60    5.20
  -2  -2  -5   67.69   10.20
  -3  -2  -5  115.69   15.20
  -3  -2  -5   94.29    9.00
  -3  -2  -5   91.09    9.40
  -4  -2  -5  412.76   20.90
  -4  -2  -5  422.96   27.40
  -4  -2  -5  395.26   23.80
  -4  -2  -5  434.36   24.50
  -5  -2  -5   36.10    9.60
  -5  -2  -5   45.10    8.50
  -5  -2  -5   23.30   11.10
  -5  -2  -5   30.60    9.90
  -6  -2  -5   24.10   11.40
  -6  -2  -5   21.90   11.90
  -6  -2  -5   14.60    7.70
  -6  -2  -5   20.50   10.00
  -6  -2  -5   20.10    8.10
  -5   3   5    9.60   11.00
   4  -3  -5 1327.47   59.49
  -4   3   5 1300.67   56.69
  -4   3   5 1299.77   61.89
  -4   3   5 1239.88   50.49
   3  -3  -5   -6.90    6.20
   3  -3  -5   17.50    8.10
   3  -3  -5    9.90    5.40
  -3   3   5   12.20    9.20
  -3   3   5    7.40    5.80
  -3   3   5   14.00    6.80
   2  -3  -5   30.00    7.30
   2  -3  -5   26.40    7.80
   2  -3  -5   19.00    7.00
  -2   3   5   18.60    7.70
  -2   3   5   16.40    5.10
  -2   3   5   38.00    8.90
   1  -3  -5 2439.76   79.29
   1  -3  -5 2310.77   76.79
   1  -3  -5 2310.37   77.49
  -1   3   5 2645.94   79.49
  -1   3   5 2327.27   75.39
  -1   3   5 2334.97   76.49
   0  -3  -5  859.21   34.50
   0  -3  -5  898.71   34.10
   0  -3  -5  881.21   31.20
   0   3   5 1042.70   36.80
   0   3   5  898.61   34.30
  -1  -3  -5   -2.40    3.00
  -1  -3  -5    1.60    4.50
  -2  -3  -5   13.70    5.30
  -2  -3  -5   18.10    3.30
   2   3   5   11.60    5.60
  -3  -3  -5  359.96   18.10
  -3  -3  -5  365.96   22.20
  -4  -3  -5  106.99   15.60
  -4  -3  -5   85.99   13.80
  -4  -3  -5   89.29   12.80
  -4  -3  -5   95.39   11.10
  -5  -3  -5    3.00    7.20
  -5  -3  -5   12.40    7.60
  -5  -3  -5    7.90    6.10
  -5  -3  -5    1.40    7.10
  -6  -3  -5  287.07   21.70
  -6  -3  -5  310.87   27.30
  -6  -3  -5  338.07   23.90
  -6  -3  -5  304.27   26.70
  -5   4   5   22.90   13.20
  -4   4   5   41.20   13.60
  -4   4   5   43.90   12.80
  -4   4   5   52.19   11.10
   3  -4  -5  751.92   23.80
   3  -4  -5  663.23   37.40
   3  -4  -5  773.12   41.90
   3  -4  -5  719.33   23.40
   3  -4  -5  776.52   37.20
  -3   4   5  734.13   38.10
  -3   4   5  723.13   34.30
  -3   4   5  737.33   40.50
   2  -4  -5   37.20    8.80
   2  -4  -5   43.00    9.70
   2  -4  -5   44.00   10.50
   2  -4  -5   46.50    7.60
  -2   4   5   29.20    9.40
  -2   4   5   29.40    7.50
  -2   4   5   33.70    9.20
   1  -4  -5  870.41   35.10
   1  -4  -5  853.71   36.80
   1  -4  -5  888.01   37.90
   1  -4  -5  900.91   36.70
  -1   4   5  931.31   38.80
  -1   4   5  940.21   40.80
  -1   4   5  934.11   36.50
   0  -4  -5  177.48   13.50
   0  -4  -5  190.48   14.60
   0  -4  -5  216.98   12.50
   0   4   5  224.98   12.20
   0   4   5  207.38   14.20
   0   4   5  231.18   16.50
  -1  -4  -5   63.09    9.80
  -1  -4  -5   63.49    4.80
  -1  -4  -5   95.89   12.20
   1   4   5   55.39    9.40
   1   4   5   54.39    4.10
  -2  -4  -5   23.40    3.00
  -2  -4  -5   27.60    6.80
  -2  -4  -5   24.60    4.10
  -2  -4  -5   29.30    9.30
   2   4   5   17.70    6.60
  -3  -4  -5  623.44   30.70
  -3  -4  -5  627.84   25.90
  -3  -4  -5  654.73   33.70
  -4  -4  -5  646.84   34.20
  -4  -4  -5  597.54   30.50
  -4  -4  -5  505.95   29.90
  -4  -4  -5  600.74   29.10
  -5  -4  -5   45.80   11.60
  -5  -4  -5   55.09   11.00
  -5  -4  -5   53.59   11.70
  -5  -4  -5   51.49   13.20
  -6  -4  -5  207.48   20.50
  -6  -4  -5  128.29   19.20
  -6  -4  -5  164.98   20.60
  -6  -4  -5  141.39   18.80
  -5   5   5   17.90   13.10
  -5   5   5   15.30   13.20
  -4   5   5    3.60   10.10
  -4   5   5   11.00   10.00
   3  -5  -5  376.76   26.80
   3  -5  -5  406.06   27.60
   3  -5  -5  388.26   16.90
  -3   5   5  402.86   28.50
  -3   5   5  435.16   26.10
   2  -5  -5    6.40    4.50
   2  -5  -5    6.30    5.90
   2  -5  -5    6.10    6.70
   2  -5  -5    9.00    6.40
  -2   5   5   13.90    8.10
  -2   5   5   10.10    5.80
  -2   5   5    9.40    7.10
   1  -5  -5  233.28   17.30
   1  -5  -5  217.58   16.70
   1  -5  -5  230.78   16.40
   1  -5  -5  253.47   18.60
  -1   5   5  225.98   16.70
  -1   5   5  237.58   16.80
  -1   5   5  244.48   19.20
   0  -5  -5  130.09   13.30
   0  -5  -5  102.09   11.00
   0  -5  -5  102.59   11.70
   0  -5  -5  108.59   10.00
   0   5   5  112.99   11.10
   0   5   5  126.99    9.90
  -1  -5  -5   11.40    3.60
  -1  -5  -5   13.50    5.70
  -1  -5  -5    9.40    6.40
  -1  -5  -5   14.00    7.70
   1   5   5    8.20    5.30
  -2  -5  -5   18.80    6.40
  -2  -5  -5   21.40    3.60
  -2  -5  -5   41.50   10.80
   2   5   5   27.40    7.70
  -3  -5  -5  231.08   20.40
  -3  -5  -5  250.37   12.00
  -3  -5  -5  258.57   18.30
  -3  -5  -5  257.77   14.70
   3   5   5  242.98   19.90
  -4  -5  -5   -5.30    4.00
  -4  -5  -5    0.30    5.70
  -4  -5  -5    1.00    5.90
  -4  -5  -5    6.50    5.40
  -5  -5  -5  108.89   16.00
  -5  -5  -5   95.49   15.30
  -5  -5  -5   74.59   14.10
  -5  -5  -5   87.19   16.80
  -6  -5  -5   64.49   14.90
  -6  -5  -5   51.49   12.20
  -6  -5  -5   47.60   13.00
  -4   6   5  229.38   26.10
  -4   6   5  273.47   27.10
   3  -6  -5  222.08   21.90
   3  -6  -5  208.28   12.90
  -3   6   5  190.48   20.70
  -3   6   5  214.38   22.50
   2  -6  -5    7.60    5.50
   2  -6  -5   22.60    8.90
   2  -6  -5    3.60    7.10
   2  -6  -5   12.90    8.40
  -2   6   5    8.50    7.20
  -2   6   5    8.20    8.30
  -2   6   5   12.30    9.40
   1  -6  -5    3.40    7.20
   1  -6  -5    3.80    4.80
   1  -6  -5    6.60    6.40
   1  -6  -5   -4.20    5.30
  -1   6   5   -1.90    5.50
  -1   6   5    0.20    4.90
  -1   6   5   15.40    7.70
   0  -6  -5  841.82   38.10
   0  -6  -5  924.71   39.30
   0  -6  -5  872.21   39.50
   0  -6  -5  829.32   39.00
   0   6   5  867.81   38.00
   0   6   5  861.61   33.90
  -1  -6  -5   74.39   11.50
  -1  -6  -5   58.39   11.90
  -1  -6  -5   66.29    7.40
  -1  -6  -5   92.19   15.60
   1   6   5   66.29    6.70
   1   6   5   60.39   10.50
  -2  -6  -5    0.70    2.80
  -2  -6  -5   -2.40    5.60
  -2  -6  -5    1.10    6.50
  -2  -6  -5   -6.10    3.60
   2   6   5    2.20    4.80
  -3  -6  -5  235.28   12.20
  -3  -6  -5  266.97   19.30
  -3  -6  -5  254.47   15.00
  -3  -6  -5  245.08   22.30
   3   6   5  233.58   20.10
  -4  -6  -5  161.88   14.40
  -4  -6  -5  169.78   20.20
  -4  -6  -5  214.38   20.10
  -4  -6  -5  210.88   17.90
  -5  -6  -5  150.68   21.10
  -5  -6  -5  138.69   22.30
  -5  -6  -5  137.79   15.80
  -5  -6  -5  177.88   19.30
  -6  -6  -5   85.29   17.40
  -6  -6  -5   98.59   17.50
  -6  -6  -5   53.89   16.30
  -6  -6  -5   70.89   14.20
  -4   7   5    9.40   13.30
   3  -7  -5   87.79   10.10
   3  -7  -5  104.99   18.50
  -3   7   5   96.59   18.70
  -3   7   5  100.09   20.10
   2  -7  -5  674.73   32.10
   2  -7  -5  648.04   38.00
   2  -7  -5  672.43   37.80
  -2   7   5  658.43   36.30
   1  -7  -5  218.38   20.80
   1  -7  -5  256.77   19.90
   1  -7  -5  240.98   20.30
   1  -7  -5  234.18   19.80
  -1   7   5  277.67   21.00
  -1   7   5  252.07   18.90
   0  -7  -5  527.15   29.80
   0  -7  -5  542.25   32.10
   0  -7  -5  519.25   30.80
   0  -7  -5  526.25   27.40
   0   7   5  515.35   29.80
   0   7   5  640.14   26.50
  -1  -7  -5    7.10    6.50
  -1  -7  -5    3.60    4.70
  -1  -7  -5    4.90    4.40
   1   7   5   11.10    4.10
   1   7   5    1.40    4.90
  -2  -7  -5   97.29    8.90
  -2  -7  -5  116.39   18.80
  -2  -7  -5  127.79   13.80
   2   7   5   96.19   14.60
  -3  -7  -5   11.90    4.10
  -3  -7  -5    2.40    7.30
  -3  -7  -5   16.30    7.00
   3   7   5   19.60    9.60
  -4  -7  -5   19.40   10.10
  -4  -7  -5   42.80    7.20
  -4  -7  -5   46.50   10.60
  -4  -7  -5   44.80   13.10
  -4  -7  -5   45.10    9.00
  -5  -7  -5   97.89   20.30
  -5  -7  -5  106.89   15.80
  -5  -7  -5  116.59   11.50
  -5  -7  -5   92.89   14.90
  -5  -7  -5   97.69   18.70
   3  -8  -5   41.50   13.30
   3  -8  -5   20.80    7.20
  -3   8   5   16.30   12.00
   2  -8  -5    5.10    6.10
   2  -8  -5   15.00    9.60
  -2   8   5   17.70    9.50
   1  -8  -5 2249.07   84.19
   1  -8  -5 2156.68   87.49
   1  -8  -5 2229.28   81.29
   0  -8  -5   10.90    9.50
   0  -8  -5   26.30    8.20
   0  -8  -5   23.70    8.70
   0  -8  -5   20.30   17.10
   0   8   5   19.90    7.00
   0   8   5   15.40   12.60
  -1  -8  -5   66.69   10.50
  -1  -8  -5   51.39   13.50
  -1  -8  -5   73.79   12.90
  -1  -8  -5   65.29   15.30
   1   8   5   67.99   12.90
   1   8   5   81.49    9.40
  -2  -8  -5  821.52   48.50
  -2  -8  -5  886.91   40.80
   2   8   5  879.01   42.50
  -3  -8  -5  128.79   21.20
  -3  -8  -5  122.69   14.50
   3   8   5  107.89   16.70
  -4  -8  -5   77.59   17.90
  -4  -8  -5   82.69    9.30
  -4  -8  -5   95.49   12.10
  -5  -8  -5   78.59   11.00
  -5  -8  -5  127.59   22.40
  -5  -8  -5   91.79   18.40
  -5  -8  -5   97.09   14.20
  -5  -8  -5  107.89   16.40
   3  -9  -5   52.59   10.90
  -3   9   5   19.70   12.40
   2  -9  -5   21.90    9.20
   2  -9  -5   47.00   12.00
  -2   9   5   31.70   13.10
   1  -9  -5   98.99   19.50
   1  -9  -5  113.59   19.30
   1  -9  -5  106.59   17.80
  -1   9   5   78.89   13.60
   0  -9  -5    8.40   12.90
   0  -9  -5    3.90    6.80
   0  -9  -5   20.20    8.90
   0   9   5   10.20    7.00
  -1  -9  -5  197.08   16.70
  -1  -9  -5  258.67   21.20
  -1  -9  -5  265.97   24.20
   1   9   5  190.28   14.60
  -2  -9  -5   38.30    8.40
  -2  -9  -5   42.90   11.20
  -2  -9  -5   37.80   13.50
  -3  -9  -5  204.48   14.40
  -3  -9  -5  200.68   19.00
  -3  -9  -5  198.48   22.90
  -4  -9  -5    6.40    7.10
  -4  -9  -5   20.30   12.20
  -4  -9  -5   -4.20    5.20
  -4  -9  -5    4.80    6.90
  -5  -9  -5   20.60    8.50
  -5  -9  -5    9.80   10.50
  -5  -9  -5   22.60   19.70
  -5  -9  -5   24.10    9.70
   2 -10  -5   -4.10    9.60
  -2  10   5   -8.60    9.20
   1 -10  -5   28.30   12.30
   1 -10  -5   13.60    8.70
  -1  10   5   26.30    9.80
   0 -10  -5  190.88   21.10
   0 -10  -5  166.08   19.20
   0 -10  -5  150.08   18.70
   0  10   5  177.28   16.20
  -1 -10  -5   74.19   17.40
  -1 -10  -5   65.59   13.80
  -1 -10  -5   86.69   16.20
   1  10   5   72.79   11.40
  -2 -10  -5  255.27   26.40
  -2 -10  -5  239.78   18.90
  -2 -10  -5  264.37   23.10
  -3 -10  -5   35.50    9.50
  -3 -10  -5   35.00   13.40
  -3 -10  -5   53.99   13.40
  -4 -10  -5    0.40    6.80
  -4 -10  -5   13.30    8.40
   2 -11  -5   -3.30    9.60
   1 -11  -5  148.79   23.40
   1 -11  -5  138.19   21.90
  -1  11   5  119.29   17.80
   0 -11  -5  274.87   26.60
   0 -11  -5  268.37   26.30
   0  11   5  331.17   23.40
  -1 -11  -5   -9.60    8.50
  -1 -11  -5   -4.80    7.90
  -1 -11  -5    7.20    6.90
   1  11   5    9.40    6.80
  -2 -11  -5   11.40    9.90
  -2 -11  -5   -0.60    8.00
  -2 -11  -5  -16.70    7.70
  -3 -11  -5  109.59   20.60
  -3 -11  -5  130.19   16.20
  -3 -11  -5  149.29   17.50
  -4 -11  -5   31.10   10.40
  -4 -11  -5   48.70   16.70
   0 -12  -5   11.90   12.20
   0 -12  -5   12.90   11.10
   0  12   5   15.30    9.10
  -1 -12  -5  -10.20    9.40
   1  12   5    9.30    8.50
  -2 -12  -5   31.20   19.90
  -2 -12  -5   25.00   14.10
  -2 -12  -5   28.40   18.80
  -3 -12  -5    5.40   10.30
  -2 -12   6   25.20   14.30
  -2 -12   6   61.19   17.80
  -1 -12   6  530.75   41.50
  -1 -12   6  520.15   44.80
   0  12  -6   99.59   17.00
   0 -12   6  107.99   21.60
   3  11  -6  -14.10   10.90
  -3 -11   6  -15.70    8.30
  -3 -11   6    9.90    8.50
   2  11  -6  257.87   22.60
  -2 -11   6  292.87   32.10
  -2 -11   6  255.37   28.00
  -1 -11   6   67.19   17.20
  -1 -11   6   57.89   16.00
   0  11  -6   21.90   10.30
   0 -11   6   15.90   10.70
  -1  11  -6  -17.60   12.40
   1 -11   6   -8.20    9.20
  -2  11  -6   30.70   11.10
   2 -11   6   33.40   15.40
  -4 -10   6   42.30   16.60
  -4 -10   6   56.59   20.30
   3  10  -6  115.69   14.30
  -3 -10   6  103.79   21.80
  -3 -10   6  142.79   24.00
   2  10  -6  138.19   14.70
  -2 -10   6  111.29   20.10
  -2 -10   6  118.39   21.80
   1  10  -6  518.85   30.80
  -1 -10   6  518.65   36.60
  -1 -10   6  531.65   37.30
   0  10  -6  122.69   19.00
   0 -10   6  138.39   22.60
  -1  10  -6   28.50    9.90
   1 -10   6    6.30    9.30
   2 -10   6   26.80   13.60
   3 -10   6  -15.70   11.40
  -4  -9   6  175.68   26.70
  -4  -9   6  158.98   28.60
   3   9  -6   86.09   11.30
  -3  -9   6   61.79   15.10
  -3  -9   6   85.99   18.20
   2   9  -6  372.36   21.50
  -2  -9   6  364.16   29.10
  -2  -9   6  320.87   28.90
   1   9  -6   -0.70    7.20
  -1  -9   6    7.20    7.00
  -1  -9   6    3.50    7.50
   0   9  -6  206.18   21.20
   0   9  -6  227.08   20.80
   0  -9   6  196.08   21.40
  -1   9  -6   63.09   13.70
   1  -9   6   34.00   14.00
   1  -9   6   61.29   13.90
  -2   9  -6  150.48   17.80
   2  -9   6  136.59   19.70
   2  -9   6  158.38   22.90
  -3   9  -6  120.39   19.90
   3  -9   6  128.29   19.40
  -5  -8   6  -17.60   10.30
  -5  -8   6   -0.80    8.40
  -4  -8   6   -7.40    6.50
  -4  -8   6  -15.60    8.50
   3   8  -6   69.09    8.10
  -3  -8   6   97.29   18.10
  -3  -8   6   75.99   17.90
   2   8  -6    3.80    4.60
  -2  -8   6  -10.00    6.90
  -2  -8   6    0.40    6.00
   1   8  -6  325.47   20.30
  -1  -8   6  322.47   26.10
  -1  -8   6  324.17   26.20
   0   8  -6  132.09   27.10
   0   8  -6  107.49   17.60
   0   8  -6  151.38   26.90
   0  -8   6  111.99   17.70
  -1   8  -6   61.89   12.80
  -1   8  -6   63.99   14.50
   1  -8   6   64.59   13.20
   1  -8   6   72.39   14.70
  -2   8  -6   41.40   11.70
  -2   8  -6   20.40    9.90
   2  -8   6   35.00   10.80
   2  -8   6   24.20    9.90
  -3   8  -6   21.30   10.00
  -3   8  -6   19.70    9.00
   3  -8   6   -3.50    8.10
   3  -8   6   -8.90    8.70
  -4   8  -6   37.60   12.30
   4  -8   6   14.50   12.70
  -5  -7   6   52.39   14.00
  -5  -7   6   30.20   14.90
  -4  -7   6   17.90   10.10
  -4  -7   6   34.70   12.20
   3   7  -6   -1.10    2.80
  -3  -7   6    9.90    8.50
   2   7  -6  115.49    9.90
   2   7  -6  104.89   17.20
  -2  -7   6  133.19   19.70
  -2  -7   6  138.39   19.90
  -2  -7   6  149.09   14.60
   1   7  -6  238.88   21.50
   1   7  -6  251.87   16.50
  -1  -7   6  259.47   21.40
  -1  -7   6  255.57   21.90
  -1  -7   6  283.97   19.60
   0   7  -6    3.60    7.30
   0   7  -6   16.40    5.90
   0   7  -6   10.70    6.70
   0  -7   6    5.40    6.30
   0  -7   6    7.40    6.40
  -1   7  -6  627.74   32.40
  -1   7  -6  567.84   32.30
  -1   7  -6  617.14   36.80
   1  -7   6  595.44   33.90
   1  -7   6  606.84   33.90
  -2   7  -6  137.19   15.80
  -2   7  -6  116.99   16.70
   2  -7   6  132.59   18.20
   2  -7   6  123.19   14.00
  -3   7  -6   15.00    8.30
  -3   7  -6   15.40    8.20
   3  -7   6   -8.30    6.70
   3  -7   6   -4.10    6.70
  -4   7  -6  -10.40    7.30
  -4   7  -6    1.60   10.40
   4  -7   6  -24.40    8.30
  -5  -6   6  334.67   27.00
  -5  -6   6  346.67   31.60
  -5  -6   6  365.66   31.30
   4   6  -6   12.30   10.10
  -4  -6   6   -0.40    9.50
  -4  -6   6   14.30    8.00
   3   6  -6  851.21   42.90
  -3  -6   6  802.12   37.90
  -3  -6   6  842.52   42.10
   2   6  -6  323.87   23.80
   2   6  -6  298.87   14.30
  -2  -6   6  291.47   22.40
  -2  -6   6  277.57   22.50
   1   6  -6  509.85   23.70
   1   6  -6  509.45   30.00
  -1  -6   6  545.05   27.00
  -1  -6   6  502.75   29.70
  -1  -6   6  485.05   29.80
   0   6  -6   29.00    8.40
   0   6  -6   26.00    6.50
   0   6  -6   32.90    7.80
   0  -6   6   26.10    7.90
   0  -6   6   30.60    7.90
   0  -6   6   28.80    7.80
  -1   6  -6   22.60    8.40
  -1   6  -6   12.00    6.40
  -1   6  -6   22.50    7.50
   1  -6   6    9.80    9.30
   1  -6   6   32.70    9.10
  -2   6  -6  384.76   27.00
  -2   6  -6  376.76   24.30
  -2   6  -6  387.96   24.90
   2  -6   6  370.26   24.80
   2  -6   6  363.06   20.60
   2  -6   6  362.86   26.50
  -3   6  -6    9.50    8.50
  -3   6  -6   17.60    8.10
   3  -6   6   23.90    9.60
  -4   6  -6   18.60   10.80
  -4   6  -6    6.30    7.80
   4  -6   6   27.60    8.80
  -5   6  -6   15.80   11.30
   5   5  -6   21.40   10.80
  -5  -5   6   38.00   12.30
  -5  -5   6   38.70   10.90
  -5  -5   6   17.10   12.10
   4   5  -6  481.55   35.30
  -4  -5   6  500.55   34.40
  -4  -5   6  542.55   30.90
   3   5  -6   54.69   12.20
  -3  -5   6   73.89   13.10
  -3  -5   6   72.19   15.00
   2   5  -6   12.60    3.00
   2   5  -6   20.30    8.40
  -2  -5   6   14.90    8.10
  -2  -5   6   27.80   10.30
  -2  -5   6   16.30    6.60
   1   5  -6  312.87   21.40
   1   5  -6  276.37   15.00
  -1  -5   6  285.67   20.20
  -1  -5   6  283.27   17.90
  -1  -5   6  276.97   20.30
   0   5  -6 1295.87   51.49
   0   5  -6 1337.07   47.90
   0   5  -6 1320.87   48.10
   0  -5   6 1237.58   50.79
   0  -5   6 1289.17   47.80
   0  -5   6 1266.07   48.80
  -1   5  -6 1169.98   47.70
  -1   5  -6 1179.58   47.90
  -1   5  -6 1181.98   45.50
   1  -5   6 1235.58   48.50
   1  -5   6 1151.68   46.70
  -2   5  -6  505.65   27.10
  -2   5  -6  523.65   27.90
  -2   5  -6  496.85   43.10
   2  -5   6  549.85   28.70
   2  -5   6  495.45   22.50
   2  -5   6  496.85   33.50
  -3   5  -6 1272.27   49.99
   3  -5   6 1293.87   43.40
   3  -5   6 1290.57   51.39
  -4   5  -6    5.30    5.60
  -4   5  -6   10.00    8.80
   4  -5   6   27.50    6.00
  -6  -4   6   20.50   11.40
  -6  -4   6   18.50    8.20
  -6  -4   6   19.40   13.80
   5   4  -6    9.70    8.80
  -5  -4   6   23.20    8.80
  -5  -4   6    3.50    9.20
  -5  -4   6    9.00    9.40
   4   4  -6  464.25   27.50
  -4  -4   6  415.46   25.50
  -4  -4   6  428.66   30.90
   3   4  -6  534.55   32.10
   3   4  -6  487.95   27.50
  -3  -4   6  455.45   29.80
  -3  -4   6  496.85   27.50
   2   4  -6   81.49   13.30
  -2  -4   6   54.79   11.50
  -2  -4   6   75.39   12.50
   1   4  -6   24.30    7.90
   1   4  -6   23.60    4.40
  -1  -4   6   15.80    6.50
  -1  -4   6   19.50    6.10
  -1  -4   6   23.70    7.70
   0   4  -6   15.30    5.20
   0   4  -6   21.40    6.90
   0   4  -6   12.90    5.20
   0  -4   6   16.90    6.90
   0  -4   6   17.90    5.40
   0  -4   6   18.60    5.70
  -1   4  -6  997.50   41.80
  -1   4  -6 1091.09   40.30
  -1   4  -6 1019.70   41.50
   1  -4   6 1059.09   41.00
   1  -4   6 1021.60   37.20
   1  -4   6 1019.00   41.90
  -2   4  -6 1018.50   45.60
  -2   4  -6 1155.58   43.70
  -2   4  -6 1025.90   42.00
   2  -4   6 1022.40   42.70
   2  -4   6 1069.29   45.10
   2  -4   6 1079.79   35.60
  -3   4  -6  161.58   17.70
  -3   4  -6  178.18   14.20
  -3   4  -6  184.98   17.30
   3  -4   6  168.98    9.40
   3  -4   6  169.78   15.60
   3  -4   6  177.58   18.80
  -4   4  -6   29.20   11.20
  -4   4  -6   33.10    7.80
   4  -4   6   37.90    4.60
  -5   4  -6   98.59    9.30
  -5   4  -6   81.49   17.70
  -6  -3   6    4.00   11.30
  -6  -3   6    1.30    9.10
  -5  -3   6    6.30    6.40
  -5  -3   6    5.40    9.40
  -5  -3   6    4.50    9.90
   4   3  -6  494.65   26.20
  -4  -3   6  444.06   24.70
  -4  -3   6  414.46   43.50
  -4  -3   6  416.86   32.00
   3   3  -6    8.70    5.00
   3   3  -6    4.60    6.70
  -3  -3   6   15.30    5.90
  -3  -3   6    3.20    6.20
   2   3  -6   44.80    8.60
   2   3  -6   54.39   10.90
  -2  -3   6   45.90    9.10
  -2  -3   6   52.99   10.50
   1   3  -6   63.29    6.00
   1   3  -6   52.19    9.60
   1   3  -6   72.59   10.80
  -1  -3   6   63.89   10.20
  -1  -3   6   45.80    8.10
  -1  -3   6   66.39   10.70
   0   3  -6 1419.36   51.59
   0  -3   6 1478.95   55.39
   0  -3   6 1402.16   48.90
   0  -3   6 1421.56   48.00
  -1   3  -6  124.19   12.10
  -1   3  -6  163.48   12.20
   1  -3   6  141.79   15.50
   1  -3   6  153.88    9.90
   1  -3   6  142.79   11.80
  -2   3  -6  227.58   15.70
  -2   3  -6  245.68   16.10
   2  -3   6  221.38    9.60
   2  -3   6  216.58   16.80
   2  -3   6  199.08   16.10
  -3   3  -6   22.00    6.20
  -3   3  -6   27.60    9.30
  -3   3  -6   26.70    8.10
   3  -3   6   22.10    9.00
  -4   3  -6  298.77   18.30
  -5   3  -6   74.39   16.30
  -5   3  -6   75.09    9.10
  -6  -2   6  427.26   38.70
  -6  -2   6  322.07   30.40
  -5  -2   6   24.80   10.00
  -5  -2   6   23.00   12.70
  -5  -2   6   45.70    8.30
   4   2  -6  101.79   15.30
   4   2  -6  105.59   16.80
  -4  -2   6   83.59   14.90
  -4  -2   6   91.99   20.10
   3   2  -6 1389.56   53.29
   3   2  -6 1368.46   57.59
  -3  -2   6 1428.76   55.69
  -3  -2   6 1380.96   56.69
   2   2  -6  152.38   14.20
   2   2  -6  126.49   13.30
  -2  -2   6  143.49   12.30
  -2  -2   6  122.09   14.00
   1   2  -6   20.10    3.90
   1   2  -6   15.60    5.80
  -1  -2   6   25.70    7.50
  -1  -2   6   22.50    7.20
   0   2  -6 1538.15   50.49
   0   2  -6 1575.04   53.39
   0  -2   6 1564.94   53.99
   0  -2   6 1492.95   50.19
   0  -2   6 1503.05   49.20
  -1   2  -6 1119.69   41.20
  -1   2  -6 1102.09   37.70
   1  -2   6 1074.59   38.40
   1  -2   6 1097.99   41.80
   1  -2   6 1050.69   34.40
  -2   2  -6 2558.94   77.59
   2  -2   6 2293.27   78.29
   2  -2   6 2434.16   79.49
  -3   2  -6   22.60    7.60
  -3   2  -6   24.90    7.00
   3  -2   6   29.50    9.40
  -4   2  -6  648.84   29.40
  -4   2  -6  694.13   36.10
   4  -2   6  663.33   37.20
  -5   2  -6  195.88   20.90
  -5   2  -6  168.78   12.50
  -6   2  -6   12.00   16.80
  -6  -1   6   54.69   15.60
  -6  -1   6  118.49   24.10
  -5  -1   6   96.99    7.70
  -5  -1   6   99.59   18.50
  -5  -1   6   93.49   20.00
   4   1  -6   22.70    5.80
   4   1  -6   23.20    9.30
  -4  -1   6   -1.30    7.10
  -4  -1   6   19.30    5.40
  -4  -1   6   23.00    3.90
  -4  -1   6   27.40   10.60
   3   1  -6  383.56   19.10
   3   1  -6  398.96   26.00
  -3  -1   6  375.96   13.80
  -3  -1   6  377.86   19.50
  -3  -1   6  348.17   24.50
  -3  -1   6  382.86   27.40
   2   1  -6 3159.88   95.89
   2   1  -6 3171.48  102.09
   2   1  -6 3173.08   88.09
  -2  -1   6 3118.39   88.19
  -2  -1   6 3124.09  100.99
  -2  -1   6 3189.98   96.49
   1   1  -6  558.64   24.50
   1   1  -6  555.84   25.70
   1   1  -6  543.05   19.30
  -1  -1   6  557.34   25.60
  -1  -1   6  551.94   25.00
   0   1  -6  270.27   14.50
   0   1  -6  276.87   16.40
   0  -1   6  294.57   14.90
   0  -1   6  279.77   13.40
   0  -1   6  260.67   16.70
  -1   1  -6  108.19    6.60
  -1   1  -6  104.89   10.60
  -1   1  -6  118.19    8.40
   1  -1   6  116.99   12.10
   1  -1   6  105.59    6.50
   1  -1   6  112.19    8.70
  -2   1  -6  471.35   23.10
  -2   1  -6  465.65   20.70
   2  -1   6  422.46   21.40
  -3   1  -6   13.20    5.50
  -3   1  -6   20.50    6.40
   3  -1   6   12.40    6.60
  -4   1  -6   97.89   15.40
  -4   1  -6   95.49   11.40
   4  -1   6  107.99   16.20
  -5   1  -6   27.70   12.50
  -5   1  -6   54.59   12.90
  -6   1  -6   11.10   11.00
  -6   0   6   30.30   13.90
  -6   0   6   12.90   12.90
  -5   0   6   96.59    9.70
  -5   0   6  123.19   20.70
  -5   0   6   69.69   17.80
   4   0  -6  588.84   20.70
   4   0  -6  577.94   35.80
  -4   0   6  576.04   34.30
  -4   0   6  564.34   38.00
  -4   0   6  561.64   23.50
   3   0  -6  322.87   15.80
   3   0  -6  324.77   23.80
  -3   0   6  319.67   14.90
  -3   0   6  348.87   25.70
  -3   0   6  336.47   23.70
   2   0  -6   41.50    9.60
   2   0  -6   30.90    6.20
   2   0  -6   35.10    5.60
  -2   0   6   27.70    8.10
  -2   0   6   30.00    6.90
  -2   0   6   16.60    7.00
  -2   0   6   30.60    4.60
   1   0  -6   75.59   10.90
   1   0  -6   72.39    9.80
   1   0  -6   70.49    7.00
  -1   0   6   91.89   10.10
  -1   0   6   84.39   10.70
  -1   0   6   68.69    6.50
   0   0  -6 1090.69   39.90
   0   0  -6 1093.39   37.40
   0   0  -6 1081.19   37.40
   0   0   6 1050.19   40.20
   0   0   6 1077.39   37.20
  -1   0  -6 2768.92   80.59
  -1   0  -6 2834.42   88.59
  -1   0  -6 2768.32   88.09
   1   0   6 2901.21   81.29
   1   0   6 2835.32   80.39
  -2   0  -6  135.69    9.70
  -2   0  -6  124.89   12.00
   2   0   6  112.69   10.10
  -3   0  -6 3017.30   95.89
  -3   0  -6 3051.49   93.79
   3   0   6 2938.31   95.59
  -4   0  -6 1121.19   33.40
  -4   0  -6 1136.49   46.70
  -4   0  -6 1062.69   43.70
   4   0   6 1102.29   48.60
  -5   0  -6   -1.00    7.80
  -5   0  -6   -1.10    5.80
  -5   0  -6    8.30    6.50
  -6   0  -6   44.60   12.80
  -6   0  -6   54.69   15.40
  -5   1   6   94.79   19.60
  -5   1   6  125.29   12.00
  -5   1   6   74.09   16.20
   4  -1  -6  480.45   31.00
  -4   1   6  457.05   22.10
  -4   1   6  475.75   34.30
  -4   1   6  398.26   28.90
   3  -1  -6 1073.89   47.40
   3  -1  -6  977.50   33.80
   3  -1  -6 1044.20   38.90
  -3   1   6 1088.89   46.80
  -3   1   6 1048.30   37.30
  -3   1   6 1026.00   48.80
   2  -1  -6 1225.78   49.00
   2  -1  -6 1242.98   42.30
   2  -1  -6 1243.08   42.00
  -2   1   6 1302.77   42.00
  -2   1   6 1265.37   50.49
  -2   1   6 1259.67   49.00
   1  -1  -6 2076.29   66.89
   1  -1  -6 2089.69   64.09
   1  -1  -6 2166.78   74.19
  -1   1   6 2149.19   70.09
  -1   1   6 2124.49   68.89
  -1   1   6 2044.60   64.39
   0  -1  -6 1585.24   50.59
   0  -1  -6 1562.04   53.39
   0  -1  -6 1537.65   50.89
   0   1   6 1546.25   50.69
   0   1   6 1538.55   51.19
  -1  -1  -6  235.38   12.00
  -1  -1  -6  217.18   14.90
   1   1   6  249.38    9.70
   1   1   6  246.68   14.00
  -2  -1  -6  309.97   12.90
  -2  -1  -6  332.27   14.20
  -2  -1  -6  293.47   19.90
   2   1   6  312.07   15.00
  -3  -1  -6   25.30    4.40
  -3  -1  -6   29.20    9.20
  -3  -1  -6   10.90    4.80
   3   1   6   19.00    6.50
  -4  -1  -6  716.33   34.00
  -4  -1  -6  726.33   26.70
  -4  -1  -6  692.53   38.80
  -4  -1  -6  786.32   35.80
   4   1   6  759.42   36.50
  -5  -1  -6  966.30   34.90
  -5  -1  -6 1023.00   51.89
  -5  -1  -6 1016.70   46.50
  -5  -1  -6  989.40   42.10
  -5  -1  -6  942.81   42.10
  -6  -1  -6   10.60   12.10
  -6  -1  -6    3.10   10.10
  -6  -1  -6   18.30    7.70
  -6  -1  -6    3.30   10.40
  -6  -1  -6   10.10    6.10
  -5   2   6   68.49   18.20
  -5   2   6  101.69   20.40
  -5   2   6   83.19   17.70
  -4   2   6 2087.19   68.79
  -4   2   6 2095.29   84.09
  -4   2   6 1792.72   82.99
   3  -2  -6   85.69   12.00
   3  -2  -6   88.89    6.40
   3  -2  -6  102.19   15.50
  -3   2   6   97.69   15.80
  -3   2   6  135.29   19.90
  -3   2   6   98.49    9.90
   2  -2  -6   14.50    4.40
   2  -2  -6    6.70    5.90
   2  -2  -6    8.40    4.40
  -2   2   6    5.00    5.90
  -2   2   6   16.30    7.20
   1  -2  -6 2581.24   84.39
   1  -2  -6 2576.44   80.19
  -1   2   6 2632.54   80.59
  -1   2   6 2633.64   83.49
  -1   2   6 2763.22   85.09
   0  -2  -6  590.44   25.70
   0  -2  -6  606.64   25.40
   0   2   6  610.04   25.90
   0   2   6  661.03   26.60
  -1  -2  -6  206.18   12.60
  -1  -2  -6  226.38   14.90
   1   2   6  254.47   14.00
  -2  -2  -6  120.19    6.60
  -2  -2  -6  126.59   12.30
  -2  -2  -6  114.39    9.10
  -3  -2  -6  508.25   21.40
  -3  -2  -6  463.75   21.20
  -3  -2  -6  472.75   27.40
  -4  -2  -6   -2.00    3.70
  -4  -2  -6   -6.20    4.60
  -4  -2  -6   -8.00    5.60
  -5  -2  -6    5.90   10.40
  -5  -2  -6    8.50    6.80
  -5  -2  -6   -8.30    6.90
  -6  -2  -6  497.25   28.30
  -6  -2  -6  386.76   28.00
  -6  -2  -6  493.85   33.40
  -6  -2  -6  493.05   24.50
  -6  -2  -6  540.95   37.10
  -5   3   6    6.60    9.50
  -5   3   6    1.00   10.90
  -4   3   6   94.59   13.00
  -4   3   6   64.79   14.20
  -4   3   6   61.79   15.80
   3  -3  -6  338.47   21.80
   3  -3  -6  349.07   25.70
   3  -3  -6  334.67   14.00
   3  -3  -6  334.57   13.40
  -3   3   6  331.57   20.20
  -3   3   6  359.06   25.50
  -3   3   6  294.57   25.80
   2  -3  -6   40.10   10.20
   2  -3  -6   69.59    9.00
   2  -3  -6   44.10    9.60
   2  -3  -6   42.60    7.90
  -2   3   6   30.30    8.80
  -2   3   6   37.40    9.70
  -2   3   6   57.99    9.10
   1  -3  -6 1816.12   64.69
   1  -3  -6 1929.71   67.59
   1  -3  -6 1913.11   62.39
  -1   3   6 2043.20   66.39
  -1   3   6 1859.31   62.09
  -1   3   6 1738.13   62.69
   0  -3  -6  697.53   29.90
   0   3   6  684.33   29.30
   0   3   6  716.73   26.10
  -1  -3  -6   11.40    5.20
  -1  -3  -6    9.60    5.50
   1   3   6   12.40    5.70
  -2  -3  -6  895.71   24.70
  -2  -3  -6  810.72   32.40
  -2  -3  -6  806.42   35.60
   2   3   6  871.51   37.80
  -3  -3  -6    3.40    3.50
  -3  -3  -6    3.00    4.70
  -4  -3  -6  277.87   21.10
  -4  -3  -6  285.07   18.30
  -4  -3  -6  251.07   18.50
  -4  -3  -6  230.38   20.80
  -5  -3  -6 1311.07   54.09
  -5  -3  -6 1321.67   50.29
  -5  -3  -6 1322.97   55.89
  -6  -3  -6   83.59   15.00
  -6  -3  -6   67.29   16.30
  -6  -3  -6  116.79   18.60
  -6  -3  -6  102.39   13.40
  -5   4   6   55.89   14.70
  -5   4   6   85.39   19.80
  -4   4   6   -2.50    9.90
  -4   4   6    6.00    6.80
  -4   4   6   -2.00   10.00
   3  -4  -6    6.80    6.20
   3  -4  -6    4.00    3.30
   3  -4  -6    1.80    8.80
   3  -4  -6   -2.70    7.90
  -3   4   6   -5.10    4.70
  -3   4   6   -6.50    6.90
  -3   4   6   10.10    9.10
   2  -4  -6  255.37   20.30
   2  -4  -6  232.48   17.50
   2  -4  -6  248.48   15.30
   2  -4  -6  265.77   20.70
  -2   4   6  247.48   20.30
  -2   4   6  239.38   19.50
  -2   4   6  250.57   17.50
   1  -4  -6   32.80    8.10
   1  -4  -6   48.80    9.50
   1  -4  -6   58.59    9.70
  -1   4   6   71.79   11.20
  -1   4   6   62.59    9.90
  -1   4   6   41.70   10.00
   0  -4  -6 1362.76   51.09
   0  -4  -6 1444.06   50.89
   0  -4  -6 1427.46   47.00
   0   4   6 1385.16   50.69
   0   4   6 1450.55   46.00
   0   4   6 1383.66   52.19
  -1  -4  -6   65.99   10.30
  -1  -4  -6   98.79   12.70
  -1  -4  -6   60.59    4.10
   1   4   6   72.39   11.40
   1   4   6   57.39    3.60
  -2  -4  -6   -0.70    3.90
  -2  -4  -6    9.50    5.80
   2   4   6    9.50    6.90
  -3  -4  -6   39.20    9.40
  -3  -4  -6   54.49   12.10
  -3  -4  -6   45.90    6.60
  -4  -4  -6   76.79   14.20
  -4  -4  -6   71.39   13.80
  -4  -4  -6   72.79   12.00
  -5  -4  -6   54.59   13.80
  -5  -4  -6   44.90   11.00
  -5  -4  -6   44.90    9.90
  -6  -4  -6  146.79   21.30
  -6  -4  -6  155.78   17.40
  -6  -4  -6  176.48   21.50
  -5   5   6  -17.40   10.90
  -5   5   6  -26.80    9.40
  -4   5   6   30.90   11.90
  -4   5   6   -5.50    9.00
   3  -5  -6  408.56   27.30
   3  -5  -6  357.66   17.30
   3  -5  -6  362.16   16.80
  -3   5   6  372.46   24.40
  -3   5   6  381.26   29.60
   2  -5  -6   56.29   11.90
   2  -5  -6   70.19   10.40
   2  -5  -6   68.39   11.90
   2  -5  -6   76.29   14.40
  -2   5   6   55.39   10.30
  -2   5   6   70.29   13.30
  -2   5   6   59.39   13.60
   1  -5  -6  277.47   18.40
   1  -5  -6  253.67   18.40
   1  -5  -6  241.58   19.80
   1  -5  -6  253.77   18.70
  -1   5   6  304.67   21.70
  -1   5   6  249.28   17.90
  -1   5   6  272.57   18.50
   0  -5  -6  389.36   22.00
   0  -5  -6  397.96   19.60
   0  -5  -6  383.76   23.30
   0  -5  -6  385.96   23.20
   0   5   6  334.37   22.50
   0   5   6  367.26   21.80
   0   5   6  397.26   18.50
  -1  -5  -6   44.00    5.10
  -1  -5  -6   42.70    8.90
  -1  -5  -6   45.70    9.20
  -1  -5  -6   42.10   10.00
   1   5   6   36.80    8.90
   1   5   6   37.30    4.50
  -2  -5  -6  231.78   17.20
  -2  -5  -6  222.68   19.40
  -2  -5  -6  216.88    8.60
  -2  -5  -6  228.18   17.40
   2   5   6  226.38   18.10
  -3  -5  -6  571.74   20.30
  -3  -5  -6  604.54   34.50
  -3  -5  -6  566.74   23.30
  -3  -5  -6  617.94   30.90
   3   5   6  567.94   32.70
  -4  -5  -6  821.62   39.30
  -4  -5  -6  763.92   41.90
  -4  -5  -6  761.22   37.60
  -4  -5  -6  808.62   33.30
  -5  -5  -6   21.40    8.40
  -5  -5  -6   22.40    9.50
  -5  -5  -6   35.20   10.30
  -5  -5  -6    7.70   14.80
  -6  -5  -6  380.86   27.80
  -6  -5  -6  307.57   25.50
  -6  -5  -6  327.57   28.90
  -6  -5  -6  304.97   27.60
  -4   6   6   37.60   14.10
  -4   6   6    5.30   13.20
   3  -6  -6   16.50    9.50
   3  -6  -6   24.10    5.90
  -3   6   6   41.40   13.30
  -3   6   6    7.70   11.20
   2  -6  -6  197.58   15.40
   2  -6  -6  180.18   19.00
   2  -6  -6  168.38   19.20
   2  -6  -6  185.58   18.70
  -2   6   6  168.78   16.40
  -2   6   6  163.98   19.50
  -2   6   6  212.88   20.50
   1  -6  -6  796.22   52.79
   1  -6  -6  758.92   36.70
   1  -6  -6  756.72   37.50
   1  -6  -6  804.52   36.80
  -1   6   6  816.12   40.50
  -1   6   6  807.32   35.80
   0  -6  -6 1016.10   43.70
   0  -6  -6 1097.79   46.40
   0  -6  -6  946.81   43.90
   0   6   6 1038.00   44.10
   0   6   6 1131.09   39.00
  -1  -6  -6  956.70   41.40
  -1  -6  -6  920.91   43.50
  -1  -6  -6  881.61   32.40
  -1  -6  -6  936.91   40.10
   1   6   6  960.10   41.30
   1   6   6  897.01   30.60
  -2  -6  -6   99.59   15.30
  -2  -6  -6   75.49    6.10
  -2  -6  -6   78.89   15.00
  -2  -6  -6   96.89   13.70
   2   6   6   82.09   14.40
  -3  -6  -6   16.40    9.60
  -3  -6  -6   14.00    6.80
  -3  -6  -6   12.50    3.20
  -3  -6  -6   17.00    4.40
   3   6   6    2.70    9.80
  -4  -6  -6   -1.80    5.70
  -4  -6  -6   -6.00    5.20
  -4  -6  -6   -5.80    4.40
  -4  -6  -6    6.90    3.70
  -5  -6  -6   35.90   11.30
  -5  -6  -6   33.80    9.30
  -5  -6  -6   19.10   11.60
  -5  -6  -6   31.50    9.90
  -6  -6  -6   -4.20    9.20
  -6  -6  -6    3.70    8.40
  -6  -6  -6    3.70    8.70
  -6  -6  -6    6.80   11.10
  -4   7   6   36.70   16.00
  -4   7   6   39.10   17.70
   3  -7  -6  503.15   34.20
  -3   7   6  500.45   36.20
  -3   7   6  534.05   37.60
   2  -7  -6  105.59   18.40
   2  -7  -6  115.79   17.50
   2  -7  -6  121.39   15.60
  -2   7   6   88.59   15.50
  -2   7   6  110.89   18.30
   1  -7  -6   10.20    8.00
   1  -7  -6    5.90    6.20
   1  -7  -6    0.90    5.80
   1  -7  -6   11.80    7.30
  -1   7   6    7.90    6.90
  -1   7   6   16.30    7.50
   0  -7  -6  798.32   39.40
   0  -7  -6  967.00   42.90
   0  -7  -6  829.42   41.00
   0  -7  -6  791.12   35.70
   0   7   6  873.81   34.00
   0   7   6  808.32   39.50
  -1  -7  -6 1192.58   49.10
  -1  -7  -6 1126.39   52.19
  -1  -7  -6 1132.29   41.60
  -1  -7  -6 1338.07   52.99
   1   7   6 1119.09   49.10
   1   7   6 1134.69   39.20
  -2  -7  -6  170.28   15.90
  -2  -7  -6  162.08   18.90
  -2  -7  -6  163.18   18.50
  -2  -7  -6  145.89    9.80
   2   7   6  162.08   16.50
  -3  -7  -6    7.30    3.40
  -3  -7  -6    8.00    9.20
  -3  -7  -6    2.10    6.40
  -3  -7  -6   11.00    9.00
   3   7   6    3.60    7.10
  -4  -7  -6   30.00   12.90
  -4  -7  -6   38.30   15.30
  -4  -7  -6   19.60    6.10
  -4  -7  -6   23.50    6.70
  -5  -7  -6   78.89    9.80
  -5  -7  -6   93.49   13.40
  -5  -7  -6   78.39   15.50
  -5  -7  -6   96.39   16.40
  -5  -7  -6   77.99   16.00
   3  -8  -6   38.40    9.60
   3  -8  -6   32.20   12.00
  -3   8   6   40.10   16.00
  -3   8   6   29.50   12.30
   2  -8  -6   33.20   11.80
   2  -8  -6   57.49   11.30
  -2   8   6   30.30   12.20
   1  -8  -6 1346.17   59.69
   1  -8  -6 1356.46   64.49
   1  -8  -6 1439.76   58.89
  -1   8   6 1334.87   54.09
   0  -8  -6  551.94   34.00
   0  -8  -6  586.44   37.30
   0  -8  -6  551.34   29.40
   0   8   6  558.44   26.80
  -1  -8  -6   31.40   10.00
  -1  -8  -6   35.30   12.50
  -1  -8  -6   33.30    8.30
   1   8   6   44.10    7.50
   1   8   6   30.80   10.70
  -2  -8  -6  408.66   19.90
  -2  -8  -6  448.36   27.30
  -2  -8  -6  445.06   32.30
   2   8   6  424.96   28.70
  -3  -8  -6   33.20   13.40
  -3  -8  -6   14.90    4.70
  -4  -8  -6    8.00    8.40
  -4  -8  -6    8.60   10.50
  -5  -8  -6   47.00   12.00
  -5  -8  -6   46.90   13.90
  -5  -8  -6   52.69    8.60
  -5  -8  -6   49.10   10.10
  -5  -8  -6   52.69   14.70
   3  -9  -6   17.60   12.20
   3  -9  -6  -11.80    7.10
  -3   9   6   -6.50    9.20
   2  -9  -6  632.24   40.80
   1  -9  -6  157.78   19.40
   1  -9  -6  149.29   21.70
   1  -9  -6  140.79   19.70
  -1   9   6  156.08   16.70
   0  -9  -6  710.03   37.30
   0  -9  -6  753.02   41.30
   0  -9  -6  713.63   42.40
   0   9   6  832.22   35.30
  -1  -9  -6   -5.70    5.60
  -1  -9  -6    9.30    9.10
  -1  -9  -6   -4.00    5.30
   1   9   6   -4.40    4.50
  -2  -9  -6    9.80    9.30
  -2  -9  -6    6.10    6.60
  -2  -9  -6    5.00    5.20
  -3  -9  -6  264.87   22.10
  -3  -9  -6  321.97   28.50
  -4  -9  -6   10.00    6.60
  -4  -9  -6   29.00   12.70
  -4  -9  -6    9.40    7.20
  -4  -9  -6   19.40   11.20
  -5  -9  -6   -2.50   12.00
  -5  -9  -6   10.10    8.00
  -5  -9  -6   34.60    9.70
  -5  -9  -6    5.10   10.80
   2 -10  -6   23.50   13.40
   2 -10  -6   17.80   10.20
  -2  10   6    7.40   11.00
   1 -10  -6    7.90    9.40
   1 -10  -6    3.50    7.80
  -1  10   6    3.80    8.40
   0 -10  -6   56.69   15.70
   0 -10  -6   41.80   11.90
   0 -10  -6   54.99   13.20
   0  10   6   73.69   12.50
  -1 -10  -6   63.69   15.80
  -1 -10  -6   67.79   12.90
  -1 -10  -6   87.49   16.40
   1  10   6   53.59    9.50
  -2 -10  -6   87.29   12.90
  -2 -10  -6   96.19   16.10
  -2 -10  -6  101.39   20.80
  -3 -10  -6    5.70    7.60
  -3 -10  -6    3.70    8.90
  -3 -10  -6  -15.00    5.10
  -4 -10  -6   87.99   12.40
  -4 -10  -6   69.89   19.40
  -4 -10  -6   62.89   13.20
   1 -11  -6    5.30   10.00
   1 -11  -6   19.80   11.30
  -1  11   6    8.60    9.20
   0 -11  -6   -0.80    7.00
   0 -11  -6  -20.90    7.10
   0  11   6    4.80    7.60
  -1 -11  -6   40.20   13.20
  -1 -11  -6   72.29   16.80
  -1 -11  -6   50.89   16.70
   1  11   6   57.59   10.80
  -2 -11  -6    3.80    8.00
  -2 -11  -6  -18.30    7.30
  -2 -11  -6   -3.50    9.20
  -3 -11  -6   75.69   14.20
  -3 -11  -6  108.29   21.20
  -3 -11  -6   77.99   14.10
  -4 -11  -6   59.39   23.00
  -4 -11  -6   37.50   11.60
   0 -12  -6   27.80   14.00
   0 -12  -6   46.40   14.00
   0  12   6   64.49   13.70
  -1 -12  -6  117.69   20.60
  -1 -12  -6  109.29   22.00
  -2 -12  -6    2.00    9.00
  -2 -12  -6   -2.90    8.60
  -2 -12   7   72.19   20.60
  -1 -12   7  242.98   30.00
  -1 -12   7  322.47   30.90
   0  12  -7  250.27   25.10
   0 -12   7  241.98   26.50
   0 -12   7  150.88   23.70
  -3 -11   7   60.39   16.30
  -3 -11   7   80.79   20.00
   2  11  -7  163.78   19.80
  -2 -11   7  163.58   30.30
  -2 -11   7  163.78   28.50
  -1 -11   7  201.88   24.60
  -1 -11   7  203.68   24.50
   0  11  -7  571.14   36.40
   0 -11   7  619.84   42.50
   0 -11   7  680.83   42.20
  -1  11  -7    6.30    8.50
   1 -11   7    6.60    9.90
  -4 -10   7   19.20   13.20
  -4 -10   7   -3.60    8.80
   3  10  -7  -14.70    7.00
  -3 -10   7   12.60    9.20
  -3 -10   7   -6.60    6.60
   2  10  -7    5.00    7.30
  -2 -10   7   -5.90    8.50
  -2 -10   7  -22.10    7.70
   1  10  -7  352.36   24.70
  -1 -10   7  365.86   30.80
  -1 -10   7  384.06   31.90
   0  10  -7   81.99   14.40
   0 -10   7   93.39   17.80
   0 -10   7   90.59   18.20
  -1  10  -7   70.89   15.50
   1 -10   7  116.09   19.60
  -2  10  -7  105.99   17.60
   2 -10   7  129.29   22.00
  -4  -9   7  -17.20    5.60
  -4  -9   7   -0.60    8.70
   3   9  -7   26.60    9.80
  -3  -9   7   38.00   12.70
  -3  -9   7   25.40   12.60
   2   9  -7  305.67   19.10
  -2  -9   7  284.97   27.10
  -2  -9   7  309.17   28.10
   1   9  -7   85.09   15.70
  -1  -9   7   71.89   15.20
  -1  -9   7   64.49   14.80
   0   9  -7  110.99   17.10
   0  -9   7  106.39   27.20
   0  -9   7  116.89   19.40
  -1   9  -7  105.49   17.40
   1  -9   7   95.49   18.50
   1  -9   7   76.49   16.50
  -2   9  -7   11.20    7.40
   2  -9   7  -21.60    8.50
   2  -9   7    1.30    9.20
  -3   9  -7   67.09   15.40
   3  -9   7   49.40   14.90
  -5  -8   7  116.49   20.40
  -5  -8   7  150.28   26.30
  -4  -8   7  153.38   22.90
  -4  -8   7  207.68   25.40
   3   8  -7   21.80    4.80
  -3  -8   7   18.90   10.50
  -3  -8   7    8.60   10.00
   2   8  -7  306.07   17.80
  -2  -8   7  306.07   26.80
  -2  -8   7  303.67   27.80
   1   8  -7   38.10    8.50
  -1  -8   7   39.20   12.20
  -1  -8   7   32.30   11.60
   0   8  -7  213.78   18.40
   0   8  -7  140.59   16.70
   0  -8   7  156.38   17.90
  -1   8  -7   53.39   11.70
   1  -8   7   81.69   16.40
  -2   8  -7   37.40   11.30
  -2   8  -7   34.80   12.30
   2  -8   7   31.00   11.00
   2  -8   7   47.10   12.80
  -3   8  -7   24.30   10.90
  -3   8  -7   23.90   10.80
   3  -8   7   57.59   14.40
   3  -8   7   31.80   11.10
  -4   8  -7   59.39   14.70
   4  -8   7   50.99   16.20
  -5  -7   7   85.79   18.60
  -5  -7   7   98.49   20.70
  -4  -7   7  537.75   39.00
  -4  -7   7  613.64   37.80
  -3  -7   7  561.44   35.80
  -3  -7   7  603.34   38.90
   2   7  -7    4.60    4.20
   2   7  -7   15.70   10.60
  -2  -7   7    2.60    6.70
  -2  -7   7   10.80    6.90
  -2  -7   7    4.60    7.10
   1   7  -7   -0.90    4.60
   1   7  -7    2.50    6.90
  -1  -7   7   -6.20    5.10
  -1  -7   7    5.00    6.70
  -1  -7   7    3.30    6.40
   0   7  -7  534.75   32.20
   0   7  -7  535.95   29.20
   0   7  -7  509.15   27.80
   0  -7   7  516.15   31.90
   0  -7   7  511.95   30.20
   0  -7   7  471.05   28.20
  -1   7  -7   90.29   14.50
  -1   7  -7  114.39   16.80
  -1   7  -7  129.59   14.80
   1  -7   7  110.49   17.90
  -2   7  -7  764.72   38.40
  -2   7  -7  649.54   37.00
   2  -7   7  693.93   32.20
   2  -7   7  740.33   39.00
  -3   7  -7   19.60   10.40
   3  -7   7   14.90    8.20
   3  -7   7   21.00   10.40
  -4   7  -7  -11.20    8.30
  -5  -6   7  145.49   20.30
  -5  -6   7  155.88   24.20
  -5  -6   7  108.59   22.00
  -4  -6   7    2.90    8.20
  -4  -6   7   27.30   11.80
   3   6  -7   -4.80    6.80
  -3  -6   7   -3.70    4.80
  -3  -6   7    7.00    8.00
   2   6  -7   25.50    9.70
   2   6  -7   38.20    5.80
  -2  -6   7   24.80    7.80
  -2  -6   7   30.60   10.30
  -2  -6   7   45.70   11.80
   1   6  -7  427.16   28.50
   1   6  -7  445.26   21.80
  -1  -6   7  449.36   28.20
  -1  -6   7  460.55   28.50
  -1  -6   7  458.05   24.80
   0   6  -7    7.80    6.30
   0   6  -7    6.70    5.50
   0   6  -7   11.90    6.30
   0  -6   7    5.90    5.30
   0  -6   7   10.30    6.50
   0  -6   7    8.60    6.30
  -1   6  -7  506.65   27.40
  -1   6  -7  496.15   28.60
  -1   6  -7  519.15   30.00
   1  -6   7  470.85   29.40
   1  -6   7  524.25   29.30
  -2   6  -7  989.80   51.79
  -2   6  -7 1122.59   46.80
  -2   6  -7 1061.99   46.60
   2  -6   7 1050.79   40.30
   2  -6   7  997.50   46.30
   2  -6   7 1014.30   51.99
  -3   6  -7  106.69   15.50
  -3   6  -7   65.99   14.40
   3  -6   7   44.50   11.80
   3  -6   7   84.19    9.80
  -4   6  -7    9.40    8.30
  -4   6  -7   12.10    8.80
   4  -6   7   10.60    5.80
   5   5  -7   63.49   14.30
  -5  -5   7   80.09   14.40
  -5  -5   7   64.19   14.90
  -5  -5   7   81.09   20.20
   4   5  -7  353.06   25.90
  -4  -5   7  324.97   24.20
  -4  -5   7  354.16   29.30
   3   5  -7  217.68   19.60
  -3  -5   7  244.38   22.80
  -3  -5   7  280.57   21.50
   2   5  -7  347.87   24.20
   2   5  -7  336.17   13.20
  -2  -5   7  350.46   21.30
  -2  -5   7  336.77   25.00
  -2  -5   7  349.77   24.10
   1   5  -7  352.66   17.40
   1   5  -7  369.06   24.00
  -1  -5   7  346.17   20.40
  -1  -5   7  340.07   22.80
  -1  -5   7  369.76   24.40
   0   5  -7  177.28   14.70
   0   5  -7  190.08   16.70
   0   5  -7  196.98   15.00
   0  -5   7  192.98   15.70
   0  -5   7  206.18   15.40
   0  -5   7  213.38   17.80
  -1   5  -7   51.99   11.60
  -1   5  -7   49.00   10.40
  -1   5  -7   56.39   10.10
   1  -5   7   49.10    8.80
   1  -5   7   79.69   13.50
   1  -5   7   36.50    8.80
  -2   5  -7  238.38   20.50
  -2   5  -7  252.37   19.30
  -2   5  -7  262.97   19.30
   2  -5   7  237.28   14.50
   2  -5   7  265.57   20.30
   2  -5   7  244.88   21.00
  -3   5  -7  934.81   41.20
  -3   5  -7  907.91   48.40
   3  -5   7 1014.90   43.80
   3  -5   7  914.51   32.20
  -4   5  -7   88.29   15.90
  -4   5  -7  115.39   14.60
   5   4  -7  172.88   18.70
  -5  -4   7  164.98   27.20
  -5  -4   7  168.98   24.40
  -5  -4   7  173.98   17.30
   4   4  -7  116.79   16.60
  -4  -4   7  105.59   15.10
  -4  -4   7   74.99   16.00
   3   4  -7  713.13   39.70
   3   4  -7  693.03   35.40
  -3  -4   7  727.63   35.60
  -3  -4   7  797.22   41.40
   2   4  -7  321.37   23.10
   2   4  -7  308.07   21.20
  -2  -4   7  314.57   22.50
  -2  -4   7  319.27   21.40
   1   4  -7  686.33   32.60
   1   4  -7  654.23   24.90
  -1  -4   7  651.03   32.20
  -1  -4   7  595.44   27.80
  -1  -4   7  633.84   31.40
   0   4  -7   76.79   12.50
   0   4  -7   70.49   11.90
   0   4  -7   74.09   10.40
   0  -4   7   74.69   10.60
   0  -4   7   90.49   13.40
   0  -4   7   72.89   12.10
  -1   4  -7 1150.88   47.40
  -1   4  -7 1257.57   45.50
  -1   4  -7 1238.98   48.50
   1  -4   7 1195.48   42.50
   1  -4   7 1230.68   49.10
   1  -4   7 1186.18   46.00
  -2   4  -7    1.80    5.90
  -2   4  -7    1.30    4.90
  -2   4  -7    2.80    4.60
   2  -4   7    4.40    6.20
   2  -4   7    4.70    3.60
   2  -4   7    9.90    3.90
   2  -4   7    2.60    6.10
  -3   4  -7  214.68   18.20
  -3   4  -7  212.48   24.40
  -3   4  -7  220.78   17.10
   3  -4   7  211.88   18.20
   3  -4   7  180.28   20.20
  -4   4  -7   59.49   10.20
  -4   4  -7   49.00   12.90
  -5   4  -7   48.10   14.30
  -6  -3   7   12.20   10.70
  -6  -3   7   13.60    8.80
   5   3  -7    3.30    7.10
  -5  -3   7   16.10    7.50
  -5  -3   7    9.70   10.50
  -5  -3   7   19.70   10.00
   4   3  -7   31.00    8.40
  -4  -3   7   12.70   10.20
  -4  -3   7   17.40    9.80
  -4  -3   7   15.50    6.90
   3   3  -7   14.50    9.00
   3   3  -7    4.00    5.30
  -3  -3   7    9.30    5.80
  -3  -3   7    9.90    7.90
   2   3  -7  157.38   14.10
   2   3  -7  164.58   16.40
  -2  -3   7  146.69   14.20
  -2  -3   7  171.18   16.20
   1   3  -7 1359.76   50.59
   1   3  -7 1306.97   50.09
  -1  -3   7 1314.87   46.90
  -1  -3   7 1305.27   50.29
  -1  -3   7 1346.27   50.49
   0   3  -7    3.60    4.40
   0  -3   7    2.10    5.50
   0  -3   7   11.80    5.40
   0  -3   7   -0.10    3.00
  -1   3  -7   28.80    7.90
  -1   3  -7   30.60    7.00
   1  -3   7   31.60    8.80
   1  -3   7   28.90    7.30
   1  -3   7   30.60    5.60
  -2   3  -7  229.18   15.80
  -2   3  -7  229.18   16.40
   2  -3   7  210.78   17.00
   2  -3   7  218.68    9.10
   2  -3   7  226.58    9.50
   2  -3   7  215.28   17.20
  -3   3  -7  230.18   18.40
  -3   3  -7  226.38   17.00
   3  -3   7  200.88   18.90
  -4   3  -7  290.37   18.90
  -5   3  -7   80.29   16.30
  -5   3  -7  134.39   15.80
  -6  -2   7   25.60   14.00
  -6  -2   7   30.60   14.00
  -5  -2   7   31.20   13.40
  -5  -2   7   30.90   10.60
   4   2  -7  257.87   18.00
  -4  -2   7  290.27   27.50
  -4  -2   7  298.37   25.80
  -4  -2   7  287.27   18.70
   3   2  -7  305.27   27.50
   3   2  -7  279.87   18.20
  -3  -2   7  283.77   18.50
  -3  -2   7  282.77   22.30
   2   2  -7  310.97   21.60
   2   2  -7  315.57   19.00
  -2  -2   7  349.87   22.20
  -2  -2   7  325.17   19.90
   1   2  -7  426.06   22.30
   1   2  -7  389.26   22.30
  -1  -2   7  385.46   21.90
  -1  -2   7  419.56   23.30
   0   2  -7  345.07   17.80
   0   2  -7  334.57   19.40
   0  -2   7  322.37   17.50
   0  -2   7  314.87   16.20
   0  -2   7  337.07   22.00
  -1   2  -7  847.82   35.50
  -1   2  -7  857.71   31.60
   1  -2   7  806.02   32.00
   1  -2   7  881.71   37.10
  -2   2  -7  143.89   12.80
  -2   2  -7  124.59   10.90
   2  -2   7  119.19   11.80
   2  -2   7  115.69   12.90
  -3   2  -7  287.07   19.00
  -3   2  -7  287.87   19.50
   3  -2   7  321.77   22.20
  -4   2  -7    0.60    5.00
  -4   2  -7    8.20    7.80
   4  -2   7   -8.30    7.80
  -5   2  -7   30.60   10.60
  -5   2  -7   43.80    9.00
  -6   2  -7   44.80   21.00
  -6  -1   7    0.90   19.40
  -5  -1   7   19.40   12.10
  -5  -1   7   14.40   10.80
  -5  -1   7   22.70    3.90
   4   1  -7    8.40    5.10
  -4  -1   7   -2.00    7.30
  -4  -1   7   16.70    3.30
  -4  -1   7   14.30    5.40
   3   1  -7   85.29   15.20
   3   1  -7   76.59   10.60
  -3  -1   7   76.59   13.60
  -3  -1   7   74.29    5.20
  -3  -1   7   71.19   14.70
  -3  -1   7   94.19   10.40
   2   1  -7  104.69   12.30
   2   1  -7   92.99    9.60
   2   1  -7   94.29    5.70
  -2  -1   7   88.59   10.30
  -2  -1   7   98.19    6.40
  -2  -1   7   96.29   13.60
   1   1  -7    0.20    4.30
   1   1  -7   -0.40    4.00
  -1  -1   7   -0.70    4.70
  -1  -1   7    1.30    5.20
   0   1  -7  258.07   18.90
   0   1  -7  285.57   15.50
   0   1  -7  279.77   15.70
   0  -1   7  265.37   13.70
   0  -1   7  273.97   15.30
   0  -1   7  257.37   17.80
  -1   1  -7  673.03   23.50
  -1   1  -7  683.73   25.20
  -1   1  -7  661.13   30.50
   1  -1   7  681.73   23.20
   1  -1   7  666.13   34.90
   1  -1   7  655.73   25.40
  -2   1  -7 3316.77  104.79
  -2   1  -7 3499.15  100.09
   2  -1   7 3213.38  101.39
  -3   1  -7   94.09   11.20
   3  -1   7   96.49   14.10
  -4   1  -7  353.16   21.70
  -4   1  -7  383.36   24.10
   4  -1   7  317.37   25.10
  -5   1  -7  336.27   26.30
  -5   1  -7  338.67   20.90
  -6   1  -7    5.20   10.10
  -5   0   7  116.09   20.50
  -5   0   7  126.49   22.50
   4   0  -7  290.87   14.60
  -4   0   7  319.37   37.30
  -4   0   7  373.76   30.20
  -4   0   7  304.87   15.40
   3   0  -7  415.86   20.00
   3   0  -7  388.36   27.30
  -3   0   7  473.95   30.90
  -3   0   7  476.45   28.80
  -3   0   7  409.86   17.70
   2   0  -7  160.88    9.50
   2   0  -7  175.58   15.40
   2   0  -7  165.68   11.80
  -2   0   7  138.79    9.20
  -2   0   7  173.98   13.20
  -2   0   7  153.18   14.80
  -2   0   7  163.48   15.70
   1   0  -7 1258.37   45.30
   1   0  -7 1240.18   40.40
   1   0  -7 1264.57   47.00
  -1   0   7 1220.28   41.40
  -1   0   7 1192.68   45.60
  -1   0   7 1362.96   48.00
   0   0  -7  363.06   17.90
   0   0  -7  369.56   18.40
   0   0  -7  339.57   19.70
   0   0   7  367.16   18.20
  -1   0  -7  119.19   14.10
  -1   0  -7  123.59   12.40
  -1   0  -7  123.29    7.90
  -1   0  -7  119.49    8.20
   1   0   7  119.89    8.00
  -2   0  -7  735.13   26.60
  -2   0  -7  720.93   32.90
   2   0   7  696.93   27.90
  -3   0  -7   84.59    9.50
  -3   0  -7   59.39   11.60
   3   0   7   85.09   10.50
  -4   0  -7   27.10    8.70
  -4   0  -7   49.20   10.80
   4   0   7   34.40   11.00
  -5   0  -7  202.68   20.10
  -5   0  -7  248.38   18.60
   5   0   7  192.18   22.90
  -6   0  -7  258.07   28.20
  -6   0  -7  227.98   24.00
  -6   0  -7  261.67   18.20
  -5   1   7  114.29   11.60
  -5   1   7  105.49   18.80
  -5   1   7   72.29   18.00
  -4   1   7  384.36   19.80
  -4   1   7  397.96   28.90
  -4   1   7  327.47   29.00
   3  -1  -7 1671.43   53.79
   3  -1  -7 1673.13   56.89
  -3   1   7 1759.02   66.59
  -3   1   7 1672.53   68.79
  -3   1   7 1674.83   55.39
   2  -1  -7  235.88   14.20
   2  -1  -7  211.98   12.80
   2  -1  -7  211.08   17.40
  -2   1   7  185.58   16.40
  -2   1   7  224.18   12.80
  -2   1   7  215.28   18.60
   1  -1  -7  326.27   18.90
   1  -1  -7  361.26   16.80
   1  -1  -7  350.96   20.30
  -1   1   7  360.46   20.40
  -1   1   7  349.87   20.10
  -1   1   7  348.97   17.30
   0  -1  -7 1416.66   48.90
   0  -1  -7 1399.46   48.30
   0  -1  -7 1426.86   51.49
   0   1   7 1472.15   49.70
   0   1   7 1448.96   48.90
  -1  -1  -7  159.08   22.60
  -1  -1  -7  178.98   10.90
   1   1   7  189.98    8.50
   1   1   7  167.28   10.80
  -2  -1  -7   60.49    5.70
  -2  -1  -7   65.09    5.60
  -2  -1  -7   54.69   10.10
   2   1   7   49.40    6.30
  -3  -1  -7  909.21   42.70
  -3  -1  -7  950.80   34.70
  -3  -1  -7  903.41   29.30
  -3  -1  -7  925.81   28.90
   3   1   7  892.21   36.20
  -4  -1  -7   13.20    3.80
  -4  -1  -7   11.00    7.40
  -4  -1  -7   20.20    5.40
  -4  -1  -7   19.10   10.80
  -4  -1  -7   22.10    7.80
   4   1   7   12.60    7.60
  -5  -1  -7   35.40   13.70
  -5  -1  -7    1.60    8.50
  -5  -1  -7   21.80   10.00
  -5  -1  -7   17.30    7.60
  -6  -1  -7  -19.20    8.40
  -6  -1  -7   -6.80    7.10
  -6  -1  -7   17.50   11.60
  -5   2   7  243.38   27.60
  -5   2   7  152.08   16.20
  -5   2   7  204.58   23.00
  -4   2   7   22.70   11.80
  -4   2   7    7.50    8.60
  -4   2   7   18.60    6.90
   3  -2  -7  886.21   37.40
   3  -2  -7  924.41   44.50
   3  -2  -7  874.61   31.30
  -3   2   7  882.81   35.60
  -3   2   7  911.91   45.90
  -3   2   7  966.10   44.70
   2  -2  -7  252.57   14.90
   2  -2  -7  230.98   19.00
  -2   2   7  244.78   19.20
  -2   2   7  235.18   14.50
  -2   2   7  252.97   20.00
   1  -2  -7   81.09   11.80
   1  -2  -7   83.89   11.30
   1  -2  -7   75.49    8.10
  -1   2   7   74.79    8.40
  -1   2   7   82.09   11.60
  -1   2   7   78.29   12.10
   0  -2  -7 1852.21   61.59
   0  -2  -7 1934.41   67.09
   0   2   7 1875.21   58.99
   0   2   7 1976.20   76.09
   0   2   7 1873.41   62.59
  -1  -2  -7  554.74   25.90
  -1  -2  -7  508.25   22.40
   1   2   7  525.95   23.20
   1   2   7  566.64   16.10
   1   2   7  519.85   26.30
  -2  -2  -7  667.53   31.30
  -2  -2  -7  598.44   24.00
  -2  -2  -7  643.84   19.80
   2   2   7  599.24   21.00
  -3  -2  -7  520.75   21.50
  -3  -2  -7  490.95   20.90
  -3  -2  -7  513.25   29.30
  -4  -2  -7   25.60    5.70
  -4  -2  -7    7.80    8.90
  -4  -2  -7   18.30    6.80
  -5  -2  -7   59.59   12.80
  -5  -2  -7   63.69   14.30
  -5  -2  -7   53.69   13.60
  -5  -2  -7   31.30    9.80
  -5  -2  -7   48.40    8.00
  -6  -2  -7  201.48   22.80
  -6  -2  -7  222.48   14.10
  -6  -2  -7  218.48   24.20
  -6  -2  -7  158.38   18.30
  -5   3   7   68.29   14.00
  -5   3   7   98.69   19.20
  -4   3   7  185.78   16.50
  -4   3   7  145.79   22.40
  -4   3   7  179.78   21.00
   3  -3  -7  359.86   22.80
   3  -3  -7  396.96   17.30
   3  -3  -7  376.66   16.60
   3  -3  -7  357.36   26.20
  -3   3   7  363.06   28.00
  -3   3   7  348.57   25.80
  -3   3   7  376.06   21.70
   2  -3  -7   60.69    9.70
   2  -3  -7   77.79   13.00
   2  -3  -7   59.89    8.90
  -2   3   7   68.29   12.50
  -2   3   7   58.29   11.50
  -2   3   7   77.39   11.00
   1  -3  -7    8.50    4.40
   1  -3  -7   11.80    5.90
  -1   3   7   14.70    5.60
  -1   3   7   18.70    7.50
  -1   3   7    7.50    6.40
   0  -3  -7  411.96   21.50
   0  -3  -7  453.65   22.90
   0   3   7  413.06   18.50
   0   3   7  423.16   22.40
   0   3   7  476.15   23.90
  -1  -3  -7   89.89   10.00
  -1  -3  -7   88.29   10.90
   1   3   7  105.89   13.50
   1   3   7   98.19   11.10
  -2  -3  -7  660.23   30.80
  -2  -3  -7  587.94   25.70
   2   3   7  602.14   31.20
  -3  -3  -7   87.69   14.10
  -3  -3  -7   75.99    9.60
  -3  -3  -7   65.59    6.60
  -4  -3  -7   -0.20    6.60
  -4  -3  -7    2.30    6.00
  -4  -3  -7   -8.10    4.30
  -5  -3  -7   13.20    8.90
  -5  -3  -7    4.00    7.20
  -5  -3  -7    8.70    9.10
  -5  -3  -7    1.40    5.60
  -6  -3  -7   31.10    8.50
  -6  -3  -7   23.30   11.30
  -6  -3  -7    5.30   14.10
  -6  -3  -7   13.60   10.60
  -6  -3  -7    5.80   10.40
  -5   4   7  261.57   30.20
  -5   4   7  326.47   29.60
  -4   4   7   31.80   14.10
  -4   4   7   33.40   10.20
  -4   4   7   16.50   11.20
   3  -4  -7    6.20    4.40
   3  -4  -7    3.60    3.80
   3  -4  -7    6.90    6.70
  -3   4   7    7.40    6.50
  -3   4   7    7.90    9.20
  -3   4   7   10.00    8.60
   2  -4  -7   25.60   10.40
   2  -4  -7   18.70    7.90
   2  -4  -7   15.40    6.50
  -2   4   7   22.00    6.50
  -2   4   7   12.20    7.50
  -2   4   7   12.50    7.30
   1  -4  -7   -0.80    4.50
   1  -4  -7    5.50    6.00
   1  -4  -7    3.40    3.50
  -1   4   7   -0.70    3.30
  -1   4   7   -0.80    5.60
  -1   4   7    4.30    4.90
   0  -4  -7  227.98   13.30
   0  -4  -7  197.38   15.00
   0  -4  -7  226.58   16.60
   0   4   7  202.98   15.50
   0   4   7  228.58   12.90
   0   4   7  212.48   17.00
  -1  -4  -7   -1.30    4.30
  -1  -4  -7    3.90    4.80
   1   4   7    3.40    4.60
  -2  -4  -7   26.80    7.00
  -2  -4  -7   30.50    8.30
   2   4   7   17.80    6.80
  -3  -4  -7  230.08   19.10
  -3  -4  -7  210.28   16.10
  -3  -4  -7  254.27   15.60
  -4  -4  -7  585.14   33.90
  -4  -4  -7  646.24   26.90
  -4  -4  -7  595.74   35.00
  -4  -4  -7  538.35   29.10
  -5  -4  -7   10.10    8.90
  -5  -4  -7   10.00    8.70
  -5  -4  -7    5.80    6.30
  -5  -4  -7    4.10    6.30
  -6  -4  -7   34.90   10.50
  -6  -4  -7   21.50    9.90
  -6  -4  -7   30.70   12.20
  -6  -4  -7   34.40   11.80
  -5   5   7   32.30   17.00
  -5   5   7   50.49   26.00
  -4   5   7    2.90   10.90
  -4   5   7    2.00   10.30
   3  -5  -7   44.50    7.40
   3  -5  -7   51.79   12.00
   3  -5  -7   50.19    7.80
  -3   5   7   51.69   14.00
  -3   5   7   34.90   12.30
  -3   5   7   36.60   10.50
   2  -5  -7   45.50   11.50
   2  -5  -7   45.40   10.10
   2  -5  -7   44.50   11.10
   2  -5  -7   57.29    9.80
  -2   5   7   56.89   14.00
  -2   5   7   57.39   16.80
  -2   5   7   47.40   11.90
   1  -5  -7  174.18   15.30
   1  -5  -7  196.98   16.60
   1  -5  -7  219.58   17.00
   1  -5  -7  171.18   17.00
  -1   5   7  215.08   19.20
  -1   5   7  207.48   16.30
  -1   5   7  204.68   16.40
   0  -5  -7   92.39   13.50
   0  -5  -7   88.79    9.20
   0  -5  -7   98.29   11.50
   0   5   7  100.69   11.50
   0   5   7  101.69   14.70
   0   5   7   94.99    9.20
  -1  -5  -7  170.48   15.30
  -1  -5  -7  211.98   16.30
  -1  -5  -7  191.08    9.50
   1   5   7  217.38   17.20
   1   5   7  202.18    8.60
  -2  -5  -7   69.09   12.30
  -2  -5  -7   43.90    9.20
   2   5   7   69.09   12.10
  -3  -5  -7   85.29    5.80
  -3  -5  -7   76.79    4.50
  -3  -5  -7  111.39   15.90
  -3  -5  -7   88.39   14.00
  -3  -5  -7   73.19   14.50
  -4  -5  -7    6.60    4.70
  -4  -5  -7    7.10    8.10
  -4  -5  -7    6.60    7.10
  -4  -5  -7   14.60    7.30
  -5  -5  -7   41.40   13.70
  -5  -5  -7   25.10    9.40
  -5  -5  -7   22.00    7.80
  -5  -5  -7   16.50    9.40
  -6  -5  -7   -4.40    8.90
  -6  -5  -7   -3.30    7.80
  -6  -5  -7    9.30   10.10
  -6  -5  -7   -1.20    8.70
   4  -6  -7  313.47   28.50
  -4   6   7  283.57   30.50
  -4   6   7  304.17   29.50
   3  -6  -7  246.88   16.10
   3  -6  -7  231.78   22.00
   3  -6  -7  229.08   14.30
  -3   6   7  140.49   21.40
  -3   6   7  197.28   23.70
   2  -6  -7    2.90    7.80
   2  -6  -7   -2.20    6.30
   2  -6  -7    1.60    5.90
  -2   6   7    2.60    7.90
  -2   6   7   -1.50    6.30
   1  -6  -7  374.56   23.90
   1  -6  -7  374.36   23.80
   1  -6  -7  325.67   24.30
   1  -6  -7  333.27   23.60
  -1   6   7  376.86   24.10
  -1   6   7  356.36   26.10
  -1   6   7  374.86   22.80
   0  -6  -7  445.46   26.30
   0  -6  -7  428.46   26.40
   0  -6  -7  416.76   27.20
   0  -6  -7  381.66   30.10
   0   6   7  453.85   26.20
   0   6   7  487.95   21.70
  -1  -6  -7   -5.50    4.90
  -1  -6  -7   -4.30    5.00
  -1  -6  -7   -1.00    5.20
  -1  -6  -7    0.80    3.10
   1   6   7    2.10    2.60
   1   6   7    2.90    5.20
  -2  -6  -7  590.14   35.10
  -2  -6  -7  593.24   30.80
  -2  -6  -7  564.94   31.20
   2   6   7  592.14   36.90
  -3  -6  -7  996.50   30.60
  -3  -6  -7 1036.50   44.60
  -3  -6  -7 1027.50   44.70
  -3  -6  -7  878.71   47.20
  -3  -6  -7  911.41   29.10
   3   6   7 1038.60   48.50
  -4  -6  -7  481.15   21.10
  -4  -6  -7  425.36   17.90
  -4  -6  -7  510.05   34.10
  -4  -6  -7  435.96   40.60
  -5  -6  -7  113.79   13.00
  -5  -6  -7  133.99   22.20
  -5  -6  -7  104.99   17.50
  -5  -6  -7  115.49   17.00
  -6  -6  -7   23.40   10.60
   4  -7  -7   77.79   18.40
  -4   7   7   47.80   16.40
  -4   7   7   66.89   18.10
   3  -7  -7  207.28   22.60
   3  -7  -7  190.78   14.60
  -3   7   7  184.98   23.20
  -3   7   7  141.29   23.20
   2  -7  -7   82.39   15.60
   2  -7  -7   65.99   12.30
  -2   7   7   93.39   19.00
  -2   7   7   55.69   14.20
   1  -7  -7  374.26   26.00
   1  -7  -7  325.77   24.10
   1  -7  -7  383.36   29.60
  -1   7   7  438.46   25.30
   0  -7  -7 1489.65   55.69
   0  -7  -7 1581.14   63.29
   0  -7  -7 1497.55   61.69
   0  -7  -7 1555.74   61.39
   0   7   7 1570.74   61.49
   0   7   7 1496.15   52.59
  -1  -7  -7   37.00   10.30
  -1  -7  -7   28.30    6.40
  -1  -7  -7   33.60   10.60
  -1  -7  -7   16.00   10.50
   1   7   7   24.20    8.20
   1   7   7   37.60    5.80
  -2  -7  -7  119.39   17.10
  -2  -7  -7  121.79    7.80
  -2  -7  -7  101.59   16.00
  -2  -7  -7  112.09   18.70
   2   7   7  128.89   18.60
  -3  -7  -7   40.30    4.40
  -3  -7  -7   23.60   10.40
  -3  -7  -7   29.00   11.40
  -3  -7  -7   35.20    9.80
   3   7   7   20.60   10.40
  -4  -7  -7  113.59   17.40
  -4  -7  -7  111.39    9.70
  -4  -7  -7   96.49    7.40
  -4  -7  -7  100.69   18.70
  -5  -7  -7    9.50   10.30
  -5  -7  -7    6.50    6.50
  -5  -7  -7    7.00    8.50
  -5  -7  -7    2.00    7.00
  -5  -7  -7    3.20    4.60
   3  -8  -7  140.69   14.80
   3  -8  -7  124.59   23.00
  -3   8   7   99.59   19.50
  -3   8   7   90.69   17.30
   2  -8  -7   52.09   13.70
   2  -8  -7   78.79   14.30
  -2   8   7   69.59   15.00
  -2   8   7   71.79   17.70
   1  -8  -7    4.20    8.90
   1  -8  -7    0.80    6.80
   1  -8  -7    2.60    9.30
  -1   8   7   -3.50    7.10
   0  -8  -7   83.19   16.70
   0  -8  -7   85.49   13.00
   0  -8  -7   74.29   14.00
   0   8   7   95.99   11.00
  -1  -8  -7  650.93   35.10
   1   8   7  561.34   24.90
  -2  -8  -7  627.04   38.60
  -2  -8  -7  559.04   23.20
  -2  -8  -7  584.64   33.50
  -3  -8  -7  456.45   35.00
  -3  -8  -7  453.25   29.20
  -3  -8  -7  424.96   17.40
  -4  -8  -7   25.30    6.00
  -4  -8  -7   15.70    8.40
  -4  -8  -7   25.20   11.30
  -4  -8  -7   16.90    4.60
  -5  -8  -7   35.00   13.50
  -5  -8  -7   57.39   15.10
  -5  -8  -7   35.60   12.40
   3  -9  -7   -3.00    9.40
   3  -9  -7    3.40    9.10
  -3   9   7  -17.20   16.50
   2  -9  -7   48.50   12.00
   2  -9  -7   43.40   13.70
  -2   9   7   31.20   12.30
   1  -9  -7   65.49   17.20
   1  -9  -7   52.39   13.80
   1  -9  -7   58.39   15.50
  -1   9   7   48.40   12.20
   0  -9  -7  597.94   37.80
   0  -9  -7  611.34   37.00
   0  -9  -7  549.65   32.00
   0   9   7  632.94   29.80
  -1  -9  -7    2.30    5.80
  -1  -9  -7   -0.90    5.20
  -1  -9  -7    6.90    9.40
   1   9   7   -0.50    4.50
  -2  -9  -7    0.30    7.00
  -2  -9  -7    4.40    5.90
  -2  -9  -7   -6.60    4.40
  -3  -9  -7  401.86   27.50
  -3  -9  -7  332.87   16.40
  -3  -9  -7  413.56   33.20
  -4  -9  -7   67.49    8.00
  -4  -9  -7   39.80    6.60
  -4  -9  -7   57.19   12.70
  -4  -9  -7   26.50   11.90
  -5  -9  -7    6.90   10.10
  -5  -9  -7    4.70    7.20
  -5  -9  -7  -12.00    7.30
   2 -10  -7   27.70   11.70
   2 -10  -7   21.30   12.20
  -2  10   7    5.40   11.50
   1 -10  -7   66.49   15.20
   1 -10  -7   75.39   15.80
  -1  10   7   55.79   12.30
   0 -10  -7   68.59   14.60
   0 -10  -7   74.09   17.00
   0 -10  -7  116.39   19.60
   0  10   7   81.69   12.80
  -1 -10  -7   12.80   10.10
  -1 -10  -7    3.50    8.40
  -1 -10  -7   -3.80    8.40
   1  10   7   12.50    5.60
  -2 -10  -7    5.70   10.20
  -2 -10  -7   -8.60    5.10
  -2 -10  -7   -8.00    5.90
  -3 -10  -7    3.30    8.00
  -3 -10  -7   -5.90    7.60
  -3 -10  -7   -0.60    8.80
  -4 -10  -7    5.70    7.40
  -4 -10  -7   -8.60    9.20
  -4 -10  -7   -6.00    4.40
   1 -11  -7  214.18   24.30
   1 -11  -7  269.87   27.70
  -1  11   7  222.38   21.60
   0 -11  -7    9.60    8.00
   0  11   7    0.00   11.90
  -1 -11  -7    4.20    9.20
  -1 -11  -7   28.00    9.90
  -1 -11  -7   27.00   13.20
   1  11   7   14.70    7.10
  -2 -11  -7  183.38   20.50
  -2 -11  -7  146.79   33.70
  -2 -11  -7  114.69   15.00
  -3 -11  -7   52.69   15.50
  -3 -11  -7   30.80   10.50
   0 -12  -7  381.96   57.39
   0  12   7  258.77   22.40
  -1 -12  -7   78.59   17.00
  -1 -12  -7   87.29   18.70
   1  12   7   56.79   11.40
  -2 -12  -7   16.00    8.80
  -2 -12  -7   32.90   12.90
  -1 -12   8   57.09   17.40
  -1 -12   8  142.99   27.20
  -3 -11   8   32.00   12.40
  -3 -11   8   28.70   12.30
   2  11  -8   43.90   12.30
  -2 -11   8   51.59   15.90
  -1 -11   8  -13.10    6.90
   0  11  -8  126.49   28.90
   0 -11   8   80.09   18.20
   0 -11   8  129.29   22.80
  -1  11  -8  108.69   18.20
   1 -11   8  115.39   21.60
   1 -11   8  130.79   21.00
  -4 -10   8   38.00   12.70
   3  10  -8   -3.30    7.40
  -3 -10   8   15.50   20.10
   2  10  -8  105.39   14.20
  -2 -10   8   96.39   21.30
  -2 -10   8   58.69   15.00
   1  10  -8   31.20   12.10
  -1 -10   8   33.70   13.50
  -1 -10   8   29.70   11.80
   0  10  -8   16.70    8.60
   0 -10   8   -0.90    8.60
   0 -10   8   -0.10    8.90
  -1  10  -8   94.39   17.90
   1 -10   8   83.99   17.20
   1 -10   8   48.80   13.70
  -2  10  -8  216.28   22.30
   2 -10   8  192.08   23.10
  -4  -9   8   13.40    8.50
  -4  -9   8   20.10   11.30
   3   9  -8   -4.20    4.40
  -3  -9   8    6.10    8.70
  -3  -9   8    5.90    9.90
   2   9  -8  149.88   13.80
  -2  -9   8  182.78   25.50
  -2  -9   8  154.28   24.40
  -1  -9   8  365.26   29.50
  -1  -9   8  328.77   28.70
   0   9  -8    1.00    6.30
   0  -9   8   -5.50    7.40
  -1   9  -8   26.60   10.90
   1  -9   8   36.70   13.40
   1  -9   8   37.20   11.30
  -2   9  -8    4.30    7.90
   2  -9   8   19.80   12.10
   2  -9   8  -24.30   10.90
  -3   9  -8   59.69   14.30
   3  -9   8   30.50   13.20
   3  -9   8   11.30   16.50
  -4  -8   8   34.20   14.20
  -4  -8   8   43.20   11.20
   3   8  -8   73.89    6.10
  -3  -8   8  102.89   19.90
  -3  -8   8   79.69   17.40
   2   8  -8  286.27   16.90
  -2  -8   8  311.47   27.40
  -2  -8   8  270.17   25.30
   1   8  -8  422.46   24.30
  -1  -8   8  421.96   33.60
  -1  -8   8  451.25   32.10
   0   8  -8  141.49   19.60
   0   8  -8  124.99   16.60
   0  -8   8  166.98   23.20
   0  -8   8  112.59   17.50
  -1   8  -8    8.00    7.00
   1  -8   8   -7.30    6.00
   1  -8   8   -6.40    8.30
  -2   8  -8   19.90    9.60
   2  -8   8    6.50    9.40
   2  -8   8   24.60   11.00
  -3   8  -8   72.49   15.50
   3  -8   8   35.40   11.90
   3  -8   8   59.79   18.50
  -4   8  -8   35.10   12.60
  -5  -7   8  103.59   19.00
  -5  -7   8   99.29   20.90
  -4  -7   8  206.68   22.90
  -4  -7   8  206.88   24.20
  -3  -7   8  203.08   27.90
  -3  -7   8  197.48   20.80
   2   7  -8  475.45   21.00
  -2  -7   8  519.25   37.40
  -2  -7   8  452.05   47.70
   1   7  -8  201.38   15.30
   1   7  -8  189.68   22.10
  -1  -7   8  182.68   20.10
  -1  -7   8  205.98   18.00
  -1  -7   8  191.88   20.00
   0   7  -8  839.12   38.10
   0   7  -8  855.61   39.70
   0   7  -8  744.53   41.50
   0  -7   8  778.92   38.80
   0  -7   8  805.92   42.80
   0  -7   8  823.42   40.20
  -1   7  -8  104.29   16.00
  -1   7  -8  156.28   18.10
  -1   7  -8  166.88   18.80
   1  -7   8  135.19   19.40
   1  -7   8  164.48   16.10
  -2   7  -8   85.69   14.50
  -2   7  -8   79.49   15.20
   2  -7   8   60.99   13.50
   2  -7   8  115.59   13.10
  -3   7  -8  147.59   17.70
  -3   7  -8  145.59   19.60
   3  -7   8  114.49   19.00
   3  -7   8  123.39   16.60
  -4   7  -8   96.69   18.50
  -4   7  -8   82.49   14.70
   4  -7   8   57.29    8.90
  -5  -6   8   10.70    9.70
  -4  -6   8  108.79   20.30
  -4  -6   8  103.29   18.00
   3   6  -8  563.04   35.20
  -3  -6   8  611.44   38.10
  -3  -6   8  569.44   34.70
   2   6  -8  503.15   20.10
   2   6  -8  540.55   32.90
  -2  -6   8  516.45   28.50
  -2  -6   8  524.95   33.20
  -2  -6   8  542.85   32.60
   1   6  -8    1.20    6.10
   1   6  -8    2.40    4.30
  -1  -6   8   -0.30    5.20
  -1  -6   8    5.50    5.80
  -1  -6   8   -0.90    5.80
   0   6  -8  288.57   19.40
   0   6  -8  286.17   20.00
   0  -6   8  297.37   20.60
   0  -6   8  259.47   20.00
   0  -6   8  294.57   22.90
  -1   6  -8 1207.28   58.79
  -1   6  -8 1407.46   53.09
  -1   6  -8 1120.69   68.79
   1  -6   8 1370.56   56.49
   1  -6   8 1283.37   53.29
   1  -6   8 1308.57   49.90
  -2   6  -8   24.40    9.80
   2  -6   8   25.20   10.50
   2  -6   8   24.60    9.70
  -3   6  -8  259.67   22.20
  -3   6  -8  260.27   21.70
   3  -6   8  235.78   21.90
   3  -6   8  252.07   14.50
   3  -6   8  270.27   14.70
  -4   6  -8  235.18   23.00
  -4   6  -8  186.48   19.10
   5   5  -8  253.97   25.10
  -5  -5   8  246.28   27.80
  -5  -5   8  262.07   27.90
  -5  -5   8  284.17   23.80
   4   5  -8  136.49   19.10
  -4  -5   8  179.28   18.80
  -4  -5   8  158.58   23.80
   3   5  -8   -7.00    7.30
  -3  -5   8    8.40    6.50
  -3  -5   8    4.80    7.70
   2   5  -8   76.39    5.30
   2   5  -8   86.09   14.30
  -2  -5   8   79.39   11.90
  -2  -5   8   78.49   14.60
  -2  -5   8   86.39   15.10
   1   5  -8  209.88   13.20
   1   5  -8  200.78   18.40
  -1  -5   8  214.88   18.90
  -1  -5   8  205.28   18.00
  -1  -5   8  212.68   16.00
   0   5  -8  115.99   16.60
   0   5  -8  101.39   11.20
   0   5  -8  115.59   12.20
   0  -5   8  100.69   15.30
   0  -5   8  101.69   12.00
   0  -5   8  106.49   14.30
  -1   5  -8  299.77   19.60
  -1   5  -8  286.67   21.30
  -1   5  -8  304.67   21.50
   1  -5   8  272.07   19.90
   1  -5   8  290.67   18.00
   1  -5   8  305.87   22.80
  -2   5  -8   27.30    9.00
  -2   5  -8   38.50   11.40
  -2   5  -8   30.60    9.50
   2  -5   8   23.50    9.50
   2  -5   8   11.60    8.80
   2  -5   8   19.50    5.90
   2  -5   8   17.00    5.20
  -3   5  -8    8.20    7.80
  -3   5  -8    0.10    6.70
   3  -5   8    2.10    7.60
   3  -5   8    8.20    3.00
  -4   5  -8   -4.20    7.80
  -4   5  -8   10.10    7.50
  -5   5  -8   19.30   13.50
   5   4  -8   17.50   10.90
  -5  -4   8   52.29   13.00
  -5  -4   8   -3.00    8.30
  -5  -4   8   50.59   11.30
   4   4  -8  286.87   22.30
  -4  -4   8  311.27   22.80
  -4  -4   8  280.07   25.90
   3   4  -8  194.78   20.90
   3   4  -8  179.38   17.30
  -3  -4   8  192.08   20.20
  -3  -4   8  164.48   16.80
   2   4  -8  138.79   18.60
   2   4  -8  132.39   14.30
  -2  -4   8  129.49   14.20
  -2  -4   8  121.99   14.80
   1   4  -8  250.87   19.30
   1   4  -8  284.07   14.90
  -1  -4   8  264.77   17.30
  -1  -4   8  258.27   19.10
  -1  -4   8  306.87   21.70
   0   4  -8  188.28   16.70
   0   4  -8  196.58   14.70
   0  -4   8  183.48   16.80
   0  -4   8  146.49   13.10
   0  -4   8  183.08   14.60
  -1   4  -8  307.67   19.00
  -1   4  -8  315.57   21.50
   1  -4   8  321.67   22.60
   1  -4   8  305.37   17.00
   1  -4   8  305.47   19.40
  -2   4  -8   34.30    8.70
  -2   4  -8   44.60   10.30
  -2   4  -8   39.60   15.80
   2  -4   8   32.30   10.20
   2  -4   8   40.00    5.70
   2  -4   8   45.60   10.80
  -3   4  -8   29.50    8.70
  -3   4  -8   34.40    9.80
   3  -4   8   42.50   10.60
   3  -4   8   29.80   11.90
  -4   4  -8  212.08   18.10
  -4   4  -8  262.87   22.70
  -5   4  -8   52.49   10.70
  -5   4  -8   63.19   16.50
   5   3  -8   11.10    9.30
  -5  -3   8   36.50   14.20
  -5  -3   8   41.70    9.70
  -5  -3   8   13.90   11.20
   4   3  -8   10.60    7.80
  -4  -3   8    5.70    8.90
  -4  -3   8   -9.10    6.00
  -4  -3   8    6.00    6.40
   3   3  -8  670.83   38.00
   3   3  -8  678.33   33.10
  -3  -3   8  660.43   32.90
  -3  -3   8  626.24   37.00
   2   3  -8  871.11   38.50
   2   3  -8  874.31   41.50
  -2  -3   8  811.92   38.10
  -2  -3   8  914.11   41.90
   1   3  -8  217.28   17.30
   1   3  -8  233.48   17.40
  -1  -3   8  248.68   17.90
  -1  -3   8  217.68   17.60
  -1  -3   8  219.38   14.90
   0   3  -8  280.97   19.60
   0  -3   8  281.97   17.30
   0  -3   8  299.47   16.70
   0  -3   8  301.17   20.60
  -1   3  -8   83.79    9.60
  -1   3  -8   76.79   12.10
   1  -3   8  118.09   16.00
   1  -3   8   74.69    7.80
   1  -3   8   82.39    9.60
  -2   3  -8  161.78   13.90
  -2   3  -8  171.38   15.20
   2  -3   8  163.98    7.40
   2  -3   8  165.38    7.40
   2  -3   8  185.48   17.00
   2  -3   8  178.18   15.40
  -3   3  -8   13.30    6.70
  -3   3  -8   11.60    7.70
   3  -3   8   -3.60    7.10
  -4   3  -8   22.50   11.10
  -4   3  -8   14.00    7.90
  -5   3  -8  -15.60    6.10
  -5   3  -8    8.30    9.20
   5   2  -8    5.50    7.60
  -5  -2   8   18.40    8.50
  -5  -2   8   12.30   10.40
  -5  -2   8   17.50   11.80
   4   2  -8   -9.90    5.20
  -4  -2   8   -3.20    7.70
  -4  -2   8   -4.20    7.30
  -4  -2   8   11.40    6.70
   3   2  -8  189.58   15.30
   3   2  -8  201.48   20.10
  -3  -2   8  203.18   19.40
  -3  -2   8  183.88   15.90
   2   2  -8  616.64   29.10
   2   2  -8  567.54   31.40
   2   2  -8  568.74   17.80
  -2  -2   8  623.54   29.80
  -2  -2   8  560.44   31.20
   1   2  -8  340.27   15.70
   1   2  -8  343.47   21.10
   1   2  -8  345.97   21.00
  -1  -2   8  345.67   21.50
  -1  -2   8  342.67   20.90
   0   2  -8 1431.26   53.99
   0   2  -8 1499.45   51.49
   0  -2   8 1483.25   51.09
   0  -2   8 1566.64   56.19
   0  -2   8 1414.16   49.00
  -1   2  -8  291.07   19.50
   1  -2   8  298.87   16.70
   1  -2   8  314.47   14.50
   1  -2   8  310.17   21.20
  -2   2  -8  333.77   20.90
  -2   2  -8  372.56   19.40
   2  -2   8  351.36   20.80
  -3   2  -8 2231.68   76.59
  -3   2  -8 2275.07   75.29
   3  -2   8 2151.08   78.19
  -4   2  -8   83.69   13.20
  -4   2  -8   80.99   12.40
   4  -2   8   70.69   15.00
  -5   2  -8  184.28   19.90
  -5   2  -8  143.89   14.70
  -5  -1   8   26.90   12.20
  -5  -1   8   27.10   14.30
  -4  -1   8  457.05   31.90
  -4  -1   8  492.75   35.50
  -4  -1   8  475.95   30.30
   3   1  -8 2310.07   73.19
   3   1  -8 2057.99   81.49
  -3  -1   8 2152.38   81.39
  -3  -1   8 2192.18   62.99
  -3  -1   8 2137.69   74.09
  -3  -1   8 2287.67   84.99
   2   1  -8  212.98   15.30
   2   1  -8  214.68    9.90
   2   1  -8  206.88   18.20
  -2  -1   8  192.28   15.40
  -2  -1   8  225.68   18.10
   1   1  -8 1965.60   67.99
   1   1  -8 2037.10   69.59
   1   1  -8 2011.30   61.59
  -1  -1   8 2084.69   70.09
  -1  -1   8 2000.60   68.99
   0   1  -8 1275.97   47.70
   0   1  -8 1267.77   44.50
   0   1  -8 1250.27   44.70
   0  -1   8 1291.27   48.90
   0  -1   8 1237.08   44.00
   0  -1   8 1158.88   41.30
  -1   1  -8  837.62   36.60
  -1   1  -8  851.61   30.50
  -1   1  -8  854.81   29.50
   1  -1   8  818.72   30.70
   1  -1   8  838.92   37.60
   1  -1   8  841.62   30.70
  -2   1  -8  468.35   25.80
  -2   1  -8  520.35   22.30
  -3   1  -8  133.99   14.50
  -3   1  -8  161.48   13.50
   3  -1   8  136.79   14.40
  -4   1  -8  643.74   32.60
  -4   1  -8  658.23   33.20
   4  -1   8  688.83   37.00
  -5   1  -8  165.18   16.50
  -5   1  -8  181.68   19.60
  -6   1  -8  -10.60    7.60
  -6   1  -8    8.00   10.90
  -5   0   8  241.78   28.10
  -5   0   8  229.08   25.50
  -5   0   8  246.48   17.30
   4   0  -8  476.65   21.00
  -4   0   8  519.15   33.20
  -4   0   8  439.36   19.60
  -4   0   8  447.66   34.60
   3   0  -8   52.39    7.50
   3   0  -8   43.30    7.80
   3   0  -8   40.60   11.90
  -3   0   8   51.69   12.50
  -3   0   8   59.29    6.60
  -3   0   8   53.49   14.00
   2   0  -8 1049.00   45.80
   2   0  -8 1049.49   35.40
  -2   0   8 1090.89   41.90
  -2   0   8 1031.20   45.80
  -2   0   8 1045.60   35.90
  -2   0   8 1043.50   45.30
   1   0  -8 1676.93   52.99
   1   0  -8 1706.23   60.19
   1   0  -8 1648.54   58.19
  -1   0   8 1650.33   59.29
  -1   0   8 1678.03   54.49
   0   0  -8  164.28   12.60
   0   0  -8  171.68   12.60
   0   0  -8  169.48   14.40
   0   0   8  175.98   12.60
  -1   0  -8  879.81   37.50
  -1   0  -8  857.61   36.40
  -1   0  -8  848.42   29.90
   1   0   8  808.22   28.70
   1   0   8  819.62   29.30
  -2   0  -8 1122.39   37.50
  -2   0  -8 1144.39   46.30
  -2   0  -8 1120.29   33.00
   2   0   8 1104.49   39.40
  -3   0  -8  476.75   27.50
  -3   0  -8  504.25   23.10
   3   0   8  478.05   25.30
  -4   0  -8  173.08   15.40
  -4   0  -8  166.98   16.90
   4   0   8  161.98   17.00
  -5   0  -8   21.80    9.50
  -5   0  -8   16.90    9.30
   5   0   8   15.00   11.20
  -6   0  -8  269.67   25.80
  -6   0  -8  248.08   27.80
  -6   0  -8  260.37   19.70
  -5   1   8  207.18   15.40
  -5   1   8  275.77   26.80
  -5   1   8  209.18   26.60
   4  -1  -8   -0.10    3.00
  -4   1   8   17.50   10.40
  -4   1   8    2.30    4.60
  -4   1   8   -2.60    9.10
   3  -1  -8   68.59    9.30
   3  -1  -8   31.10   11.50
   3  -1  -8   66.99    9.50
  -3   1   8   39.70   11.20
  -3   1   8   69.69   15.80
   2  -1  -8 2223.28   71.89
   2  -1  -8 2439.26   74.99
   2  -1  -8 2262.07   81.59
  -2   1   8 2307.37   72.29
  -2   1   8 2370.26   81.89
  -2   1   8 2341.87   82.49
   1  -1  -8  463.05   25.20
   1  -1  -8  486.15   21.40
   1  -1  -8  458.15   32.80
  -1   1   8  487.65   25.50
  -1   1   8  501.35   22.30
  -1   1   8  508.65   28.60
   0  -1  -8 1131.79   44.60
   0  -1  -8 1143.49   42.10
   0  -1  -8 1171.18   41.70
   0   1   8 1136.89   41.80
   0   1   8 1087.19   42.50
  -1  -1  -8 1897.81   68.89
  -1  -1  -8 1966.40   67.49
  -1  -1  -8 1985.10   61.99
   1   1   8 2037.30   57.79
   1   1   8 1989.10   61.89
  -2  -1  -8  166.98    8.90
  -2  -1  -8  168.78   16.10
  -2  -1  -8  155.98    9.10
  -2  -1  -8  175.78   16.40
   2   1   8  162.58   10.30
  -3  -1  -8   15.60    6.90
  -3  -1  -8    3.70    7.60
  -3  -1  -8   10.00    2.70
  -3  -1  -8    9.40    4.40
  -3  -1  -8   18.00    3.10
   3   1   8   -0.10    5.00
  -4  -1  -8 1454.95   52.79
  -4  -1  -8 1451.05   58.29
  -4  -1  -8 1476.75   63.79
   4   1   8 1375.06   55.19
  -5  -1  -8  111.59   17.20
  -5  -1  -8   95.39   19.60
  -5  -1  -8  124.29   15.30
  -6  -1  -8  121.09   19.20
  -6  -1  -8  161.18   18.00
  -6  -1  -8   94.49   19.40
  -5   2   8   91.39   18.80
  -5   2   8   85.09   12.30
  -4   2   8   59.59   15.00
  -4   2   8   64.89   10.70
  -4   2   8   40.30   14.30
   3  -2  -8  470.45   30.70
   3  -2  -8  495.75   25.20
   3  -2  -8  486.55   21.20
  -3   2   8  471.85   23.40
  -3   2   8  459.05   31.60
  -3   2   8  430.46   29.50
   2  -2  -8  260.47   20.40
   2  -2  -8  285.77   16.80
   2  -2  -8  276.87   16.90
  -2   2   8  291.57   22.10
  -2   2   8  246.38   15.80
  -2   2   8  261.17   20.60
   1  -2  -8  731.53   32.70
   1  -2  -8  761.52   34.40
  -1   2   8  712.53   30.40
  -1   2   8  774.12   34.70
   0  -2  -8 1701.83   56.79
   0  -2  -8 1640.44   57.29
   0   2   8 1666.93   53.39
   0   2   8 1654.73   57.39
   0   2   8 1636.74   57.69
  -1  -2  -8 1033.80   40.80
  -1  -2  -8 1019.20   37.30
   1   2   8 1033.20   29.80
   1   2   8  971.30   41.60
   1   2   8 1015.10   37.60
  -2  -2  -8  140.59   10.20
  -2  -2  -8  143.29    6.40
  -2  -2  -8  151.88   14.40
   2   2   8  155.28    7.80
  -3  -2  -8  345.07   15.20
  -3  -2  -8  276.27   14.60
  -3  -2  -8  332.17   23.60
  -4  -2  -8  591.04   26.40
  -4  -2  -8  538.85   22.20
  -4  -2  -8  543.75   34.60
  -4  -2  -8  542.15   21.80
  -5  -2  -8   88.69    9.00
  -5  -2  -8   64.09    7.80
  -5  -2  -8  111.09   19.20
  -5  -2  -8   70.39   12.50
  -5  -2  -8   89.89   16.90
  -5  -2  -8   71.09   14.00
  -6  -2  -8    6.10    9.40
  -6  -2  -8   -9.50    7.90
  -6  -2  -8   -1.70    8.80
  -5   3   8   55.89   15.70
  -5   3   8   44.10   16.70
  -5   3   8   42.70   12.30
  -4   3   8  105.89   18.70
  -4   3   8   78.29   12.10
  -4   3   8   63.29   16.50
   3  -3  -8    5.20    4.50
   3  -3  -8    3.80    5.30
  -3   3   8    4.50    7.70
  -3   3   8   16.80    9.70
  -3   3   8   18.60    6.40
   2  -3  -8  178.88   14.20
   2  -3  -8  172.28   14.20
   2  -3  -8  172.08   17.10
  -2   3   8  161.18   17.10
  -2   3   8  183.78   14.20
  -2   3   8  171.98   17.40
   1  -3  -8    0.70    4.90
   1  -3  -8    3.90    3.60
  -1   3   8    7.50    6.00
  -1   3   8    3.50    5.20
  -1   3   8   -1.70    3.30
   0  -3  -8  101.89   10.40
   0  -3  -8   92.79   10.60
   0   3   8   87.09   10.20
   0   3   8   99.09   11.50
   0   3   8   75.89    8.00
  -1  -3  -8   91.69   12.30
  -1  -3  -8   75.69   10.30
   1   3   8   85.89   12.40
   1   3   8   96.19   13.50
  -2  -3  -8   27.40    7.20
  -2  -3  -8   33.80    8.60
  -3  -3  -8  276.67   21.10
  -3  -3  -8  255.07   15.70
  -4  -3  -8  112.69   17.20
  -4  -3  -8  115.29   11.50
  -4  -3  -8  140.29   20.80
  -4  -3  -8   97.29   10.40
  -5  -3  -8  365.76   27.20
  -5  -3  -8  387.16   23.00
  -5  -3  -8  284.27   26.20
  -5  -3  -8  375.26   29.50
  -6  -3  -8   23.90   12.20
  -6  -3  -8   25.40   13.20
  -5   4   8   58.89   24.40
  -5   4   8   74.39   18.10
   4  -4  -8   26.10   10.80
  -4   4   8   33.10   10.20
  -4   4   8   27.90   13.50
  -4   4   8   23.70   14.10
   3  -4  -8  165.38   12.00
   3  -4  -8  147.69   11.80
   3  -4  -8  172.78   16.90
  -3   4   8  146.29   21.50
  -3   4   8  152.58   26.60
   2  -4  -8   45.10    9.50
   2  -4  -8   44.10    9.80
   2  -4  -8   52.79   12.00
  -2   4   8   57.29   12.80
  -2   4   8   48.10   11.30
  -2   4   8   67.69   11.50
   1  -4  -8  496.85   25.60
   1  -4  -8  507.85   28.40
  -1   4   8  514.35   26.40
  -1   4   8  476.55   25.50
  -1   4   8  438.56   27.40
   0  -4  -8  810.82   36.20
   0  -4  -8  794.22   34.80
   0   4   8  777.92   36.30
   0   4   8  814.42   30.10
   0   4   8  815.72   36.30
  -1  -4  -8   -1.10    3.50
  -1  -4  -8    0.30    4.40
   1   4   8   -7.20    4.90
  -2  -4  -8    6.60    5.60
  -2  -4  -8    8.70    5.60
   2   4   8    5.20    6.00
  -3  -4  -8    3.60    6.00
  -3  -4  -8   -3.00    4.70
  -4  -4  -8   12.00    6.40
  -4  -4  -8   15.20    9.30
  -4  -4  -8   12.70    7.10
  -4  -4  -8    3.50    6.30
  -4  -4  -8    6.70    4.30
  -5  -4  -8   -0.10    5.90
  -5  -4  -8   12.20    9.30
  -5  -4  -8  -12.00    6.60
  -5  -4  -8    5.20    9.90
  -5  -4  -8   12.90    6.80
  -6  -4  -8   14.20   10.40
  -6  -4  -8   -8.50   10.30
  -6  -4  -8    0.60    6.40
  -6  -4  -8  -17.60    8.20
   4  -5  -8   52.29   13.70
  -4   5   8   19.20   12.70
  -4   5   8   37.50   15.20
   3  -5  -8  330.37   18.10
   3  -5  -8  363.56   25.80
   3  -5  -8  323.87   18.20
  -3   5   8  337.37   23.80
  -3   5   8  230.58   24.30
  -3   5   8  296.17   26.50
   2  -5  -8    6.60    7.40
   2  -5  -8   -7.20    3.80
   2  -5  -8    3.60    5.80
  -2   5   8   -1.30    6.70
  -2   5   8    0.30    8.10
  -2   5   8    6.10    6.20
   1  -5  -8   87.19   14.00
   1  -5  -8   76.79   12.40
   1  -5  -8   66.09   18.90
  -1   5   8   81.99   12.60
  -1   5   8   53.19   12.60
  -1   5   8   91.99   13.60
   0  -5  -8  484.75   27.70
   0  -5  -8  520.05   23.40
   0  -5  -8  540.25   28.00
   0   5   8  485.75   27.50
   0   5   8  504.55   29.40
   0   5   8  490.85   22.00
  -1  -5  -8  130.79   13.70
  -1  -5  -8  134.39   14.20
   1   5   8  131.39    6.20
   1   5   8  162.38   15.60
  -2  -5  -8  112.19   14.70
  -2  -5  -8  115.79   13.00
   2   5   8  110.39   16.80
  -3  -5  -8  144.89   15.40
  -3  -5  -8  132.99   14.60
  -3  -5  -8  142.39   20.90
  -4  -5  -8  340.07   22.80
  -4  -5  -8  355.06   16.10
  -5  -5  -8  176.58   17.50
  -5  -5  -8  153.58   13.90
  -5  -5  -8  153.48   18.20
  -5  -5  -8  161.78   23.50
  -5  -5  -8  141.39   20.50
  -6  -5  -8  123.39   19.30
  -6  -5  -8  158.98   17.70
  -6  -5  -8  148.89   22.60
  -6  -5  -8  179.38   18.70
   4  -6  -8   23.50   12.50
  -4   6   8   10.50   13.10
   3  -6  -8   90.89   16.00
  -3   6   8   68.19   17.10
  -3   6   8   73.59   16.20
   2  -6  -8  295.27   20.50
   2  -6  -8  283.27   24.30
   2  -6  -8  272.57   22.50
  -2   6   8  306.27   26.00
  -2   6   8  291.97   24.40
   1  -6  -8  720.33   36.10
   1  -6  -8  774.02   37.90
   1  -6  -8  769.82   37.40
   1  -6  -8  701.83   38.60
  -1   6   8  768.72   40.90
  -1   6   8  821.32   36.10
  -1   6   8  704.23   36.60
   0  -6  -8  760.22   38.60
   0  -6  -8  713.23   34.90
   0  -6  -8  745.43   36.40
   0  -6  -8  813.82   39.40
   0   6   8  791.02   37.80
   0   6   8  768.22   39.10
   0   6   8  727.03   30.00
  -1  -6  -8  273.77   22.60
  -1  -6  -8  280.07   20.50
  -1  -6  -8  262.97   21.00
  -1  -6  -8  273.37   13.00
   1   6   8  265.37   23.10
  -2  -6  -8   39.60    9.50
  -2  -6  -8   27.60    8.90
  -2  -6  -8   39.30   12.00
   2   6   8   28.40   10.10
  -3  -6  -8   37.80   10.90
  -3  -6  -8   39.10   10.60
  -3  -6  -8   17.10   16.00
   3   6   8   17.40    9.70
  -4  -6  -8   89.29   14.90
  -4  -6  -8   92.99   19.00
  -4  -6  -8   99.29   18.50
  -4  -6  -8   97.79    5.70
  -5  -6  -8   -1.90    7.50
  -5  -6  -8   30.60   10.80
  -5  -6  -8   18.10   11.00
  -5  -6  -8  -21.90   10.10
   4  -7  -8    6.20   10.70
  -4   7   8   -9.20   10.70
  -4   7   8   -8.80   14.60
   3  -7  -8   -9.80    8.00
   3  -7  -8   -0.90    8.80
   3  -7  -8   -9.40    4.80
  -3   7   8   -2.10    8.50
  -3   7   8   -0.20   10.70
   2  -7  -8   45.40   11.10
   2  -7  -8   32.80   10.90
  -2   7   8   60.59   17.20
   1  -7  -8    6.00    7.10
   1  -7  -8    5.00    7.70
   1  -7  -8    2.20    6.70
  -1   7   8    2.90    6.70
  -1   7   8    5.90    9.00
   0  -7  -8  673.13   37.70
   0  -7  -8  668.43   35.40
   0  -7  -8  655.43   41.20
   0  -7  -8  631.44   30.40
   0   7   8  652.33   39.10
   0   7   8  664.63   28.50
  -1  -7  -8  171.68   16.80
  -1  -7  -8  177.18   18.70
  -1  -7  -8  178.28   11.80
  -1  -7  -8  207.18   21.00
   1   7   8  166.68   18.50
   1   7   8  184.18   10.50
  -2  -7  -8   52.79   11.10
  -2  -7  -8   34.30   11.60
   2   7   8   43.00   13.40
  -3  -7  -8 1228.98   54.99
  -3  -7  -8 1312.87   55.29
  -3  -7  -8 1313.87   62.09
  -4  -7  -8  429.36   29.20
  -4  -7  -8  439.16   33.90
  -5  -7  -8    3.30    7.90
  -5  -7  -8   14.20    8.90
  -5  -7  -8    6.20    3.90
  -5  -7  -8   -1.90   10.80
  -5  -7  -8    2.00    4.90
   3  -8  -8   -1.80    9.20
   3  -8  -8   24.70    9.00
  -3   8   8    7.90    9.60
  -3   8   8   18.30   14.20
   2  -8  -8    4.90    7.70
   2  -8  -8    6.30    9.20
  -2   8   8   -6.90    9.10
  -2   8   8   -2.70   10.40
   1  -8  -8  289.87   25.00
   1  -8  -8  301.27   24.80
   1  -8  -8  273.17   25.40
  -1   8   8  300.27   22.50
   0  -8  -8    5.90    8.10
   0  -8  -8    9.60    7.60
   0  -8  -8    5.10    6.80
   0   8   8    1.60    5.20
  -1  -8  -8  153.68   18.00
  -1  -8  -8  133.79   21.10
  -1  -8  -8  138.09   12.00
   1   8   8  149.59   10.60
  -2  -8  -8  131.19   15.60
  -2  -8  -8  130.69   21.60
  -2  -8  -8  136.39    8.30
  -3  -8  -8   -0.10    7.00
  -3  -8  -8   -0.10    8.80
  -4  -8  -8   -6.30    8.30
  -4  -8  -8    1.60    6.60
  -5  -8  -8   73.59   18.60
  -5  -8  -8   86.89   16.50
  -5  -8  -8   90.79   18.60
   3  -9  -8   -8.10   10.70
   3  -9  -8  -11.40   10.40
   2  -9  -8   25.40   11.00
   2  -9  -8   30.40   11.90
  -2   9   8   22.70   12.00
   1  -9  -8   -0.10    9.00
   1  -9  -8  -20.80    8.20
  -1   9   8    0.20    8.30
   0  -9  -8   80.19   15.50
   0  -9  -8   55.69   13.90
   0  -9  -8   95.69   14.20
   0   9   8  105.49   12.10
  -1  -9  -8  199.18   15.40
  -1  -9  -8  198.38   22.80
  -1  -9  -8  158.08   18.80
   1   9   8  200.58   13.40
  -2  -9  -8  310.27   24.50
  -2  -9  -8  258.27   26.70
  -2  -9  -8  289.97   15.30
  -3  -9  -8   39.80   11.70
  -3  -9  -8   40.90   13.90
  -4  -9  -8   10.30   11.00
  -4  -9  -8   24.70    9.50
   2 -10  -8   56.49   14.90
   2 -10  -8   75.79   18.80
  -2  10   8   82.79   17.20
   1 -10  -8  108.39   20.10
   1 -10  -8  107.29   20.00
  -1  10   8   78.19   14.80
   0 -10  -8  111.39   19.70
   0 -10  -8  101.29   19.50
   0 -10  -8   81.79   16.30
   0  10   8  152.78   15.10
  -1 -10  -8   22.60    8.10
  -1 -10  -8   24.00    8.40
  -1 -10  -8   21.30   11.90
   1  10   8    7.00    5.40
  -2 -10  -8   21.40    9.40
  -2 -10  -8   -1.20   11.00
  -3 -10  -8    0.70    3.50
  -3 -10  -8   -1.50    6.50
  -3 -10  -8  -11.30   10.20
  -4 -10  -8  -10.00    8.10
  -4 -10  -8   -6.10    5.70
   1 -11  -8   71.79   17.80
   1 -11  -8  103.09   20.70
  -1  11   8   81.29   15.80
   0 -11  -8   10.00   11.20
   0 -11  -8   -3.30    6.10
   0  11   8   25.10   10.30
  -1 -11  -8  206.78   20.30
  -1 -11  -8  280.87   28.90
   1  11   8  290.47   18.90
  -2 -11  -8   58.49   15.80
  -2 -11  -8   45.20   10.00
  -2 -11  -8   38.40   15.10
  -3 -11  -8    4.40   12.50
  -1 -12  -8   91.79   18.80
  -1 -12  -8  147.49   23.20
   2  11  -9   -6.50   11.70
  -2 -11   9   11.00   10.30
  -2 -11   9    9.20   11.70
  -1 -11   9   22.60   14.40
  -1 -11   9   19.10   12.10
   0 -11   9   18.90   14.50
   0 -11   9  -14.10    8.20
  -1  11  -9   36.50   12.70
   1 -11   9    5.10   12.10
  -3 -10   9   -9.10    9.50
  -3 -10   9   22.50   12.40
   2  10  -9   17.30    8.90
  -2 -10   9   32.70   13.40
  -2 -10   9   27.90   11.10
  -1 -10   9   -0.50   10.00
  -1 -10   9  -12.40    7.90
   0  10  -9   29.80   10.70
   0 -10   9   48.60   15.00
   0 -10   9   36.60   13.20
  -1  10  -9    3.60    9.10
   1 -10   9   22.00   10.60
   1 -10   9  -13.10    7.60
  -2  10  -9    0.00    7.40
   2 -10   9   -3.70   10.00
  -4  -9   9   -6.80   10.00
  -3  -9   9    7.10    7.80
  -3  -9   9    7.20   11.50
   2   9  -9   36.80    8.20
  -2  -9   9   34.90   13.30
  -2  -9   9   31.60   10.80
   1   9  -9   -1.30    7.00
  -1  -9   9    3.40    9.30
  -1  -9   9   -6.70    7.70
   0   9  -9  170.68   19.60
   0  -9   9  168.28   23.80
   0  -9   9  184.28   25.70
  -1   9  -9  254.57   22.50
   1  -9   9  224.18   21.80
   1  -9   9  224.48   24.60
  -2   9  -9  253.57   23.20
   2  -9   9  191.18   27.00
   2  -9   9  228.28   21.20
   2  -9   9  223.68   28.30
  -3   9  -9   19.90    8.90
   3  -9   9   20.00   12.70
   3  -9   9    6.70   10.40
  -4  -8   9   12.00   10.00
  -4  -8   9   10.50   12.50
  -3  -8   9    6.90    8.50
  -3  -8   9   17.70   10.40
   2   8  -9   92.59   10.00
  -2  -8   9  106.89   19.20
  -2  -8   9  105.69   19.20
   1   8  -9   69.69   11.50
  -1  -8   9   65.09   16.60
  -1  -8   9   71.39   16.10
   0   8  -9  538.65   32.00
   0   8  -9  577.74   32.00
   0  -8   9  595.44   37.40
   0  -8   9  464.15   31.50
  -1   8  -9  452.65   29.00
   1  -8   9  446.56   28.40
   1  -8   9  458.35   32.40
  -2   8  -9   40.80   11.80
   2  -8   9   52.29   10.90
   2  -8   9   48.40   12.40
   2  -8   9   34.30   13.50
  -3   8  -9  460.05   35.60
   3  -8   9  454.75   25.10
   3  -8   9  502.55   34.50
   3  -8   9  393.26   25.20
  -5  -7   9  309.17   28.50
  -5  -7   9  237.28   28.60
  -4  -7   9   21.30   10.80
  -4  -7   9   10.90   10.50
  -3  -7   9  104.19   18.10
  -3  -7   9  121.69   20.60
   2   7  -9  123.29    9.80
  -2  -7   9  125.19   19.70
  -2  -7   9  127.09   20.80
   1   7  -9  266.77   18.00
  -1  -7   9  277.77   25.20
  -1  -7   9  257.87   22.70
   0   7  -9  312.67   32.80
   0   7  -9  369.16   23.60
   0  -7   9  348.17   48.40
   0  -7   9  329.17   24.40
  -1   7  -9  276.97   22.30
  -1   7  -9  290.47   23.70
   1  -7   9  292.97   25.30
   1  -7   9  278.37   20.80
  -2   7  -9   39.70   11.80
   2  -7   9   20.30   12.60
   2  -7   9   28.70    8.10
   2  -7   9   21.00    8.40
  -3   7  -9  332.97   26.90
   3  -7   9  314.77   18.10
   3  -7   9  311.57   27.60
   3  -7   9  319.77   24.70
  -4   7  -9  160.78   19.80
  -4   7  -9  143.89   23.40
  -5  -6   9  114.19   24.00
  -5  -6   9  112.69   19.30
  -5  -6   9  130.29   22.70
  -4  -6   9    9.30    9.00
  -4  -6   9   -9.30    7.60
  -3  -6   9 1112.99   56.99
  -3  -6   9  987.50   52.59
   2   6  -9  112.59    8.10
   2   6  -9  102.69   17.00
  -2  -6   9  145.39   20.10
  -2  -6   9   95.19   16.40
   1   6  -9   45.20   11.60
   1   6  -9   23.40    6.50
  -1  -6   9   28.20    9.80
  -1  -6   9   53.49   11.20
  -1  -6   9   59.39   13.00
   0   6  -9  114.59   17.20
   0   6  -9  107.79   13.70
   0   6  -9  112.49   13.10
   0  -6   9  118.89   14.20
   0  -6   9  134.49   14.70
   0  -6   9  136.79   20.20
  -1   6  -9  410.76   28.20
  -1   6  -9  425.26   25.60
  -1   6  -9  411.86   26.80
   1  -6   9  455.35   24.80
   1  -6   9  396.96   28.70
   1  -6   9  375.26   25.80
  -2   6  -9   43.40   12.00
  -2   6  -9   35.20    9.20
   2  -6   9   31.30    7.30
   2  -6   9   31.30   10.30
  -3   6  -9  552.54   33.10
  -3   6  -9  532.65   32.10
   3  -6   9  536.25   34.30
   3  -6   9  529.35   21.10
   3  -6   9  546.15   24.90
  -4   6  -9  237.98   22.50
  -4   6  -9  250.87   22.10
  -5  -5   9   55.89   19.10
  -5  -5   9   51.79   12.90
   4   5  -9   11.40    9.30
  -4  -5   9   19.00   10.30
  -4  -5   9    0.20    8.60
   3   5  -9  127.09   18.20
  -3  -5   9   85.99   16.80
  -3  -5   9  124.39   18.30
   2   5  -9    1.10    6.10
   2   5  -9    0.10    2.90
   2   5  -9    3.60    2.30
  -2  -5   9    7.80    7.20
  -2  -5   9    1.30    6.40
  -2  -5   9    8.50    6.80
   1   5  -9    2.90    7.30
   1   5  -9   -0.70    3.50
  -1  -5   9   10.30    6.40
  -1  -5   9   -4.50    6.40
   0   5  -9   13.30    5.70
   0   5  -9   17.70    8.00
   0  -5   9    8.20    5.50
   0  -5   9    6.50    5.00
   0  -5   9    3.70    6.50
  -1   5  -9  122.89   14.80
  -1   5  -9  113.39   12.70
  -1   5  -9  118.19   16.30
   1  -5   9  132.29   16.20
   1  -5   9  142.09   20.30
  -2   5  -9   10.60    6.80
  -2   5  -9    7.00    8.00
  -2   5  -9   22.20    8.50
   2  -5   9   15.40    7.70
   2  -5   9   22.80    6.00
   2  -5   9   21.20    9.60
   2  -5   9   13.70    4.50
  -3   5  -9   19.90    8.80
  -3   5  -9    8.90    7.70
   3  -5   9   12.10    9.90
  -4   5  -9   45.30   13.80
  -4   5  -9   66.49   13.50
  -5   5  -9  -20.70    8.20
   5   4  -9  174.68   22.00
  -5  -4   9  168.78   31.40
  -5  -4   9  165.68   24.70
  -5  -4   9  176.48   19.80
  -4  -4   9  204.88   24.20
  -4  -4   9  225.78   20.50
   3   4  -9   30.50    9.70
  -3  -4   9   44.70   11.00
   2   4  -9    9.00    2.10
   2   4  -9    7.10    6.70
  -2  -4   9   -1.50    6.60
  -2  -4   9   19.90    8.50
   1   4  -9   -4.00    3.90
   1   4  -9    6.00    4.00
   1   4  -9   11.60    7.20
  -1  -4   9    6.80    4.70
  -1  -4   9   -3.10    4.80
  -1  -4   9   -1.40    5.40
   0   4  -9  196.48   17.40
   0  -4   9  197.18   18.40
   0  -4   9  190.78   14.80
   0  -4   9  217.18   16.30
  -1   4  -9   44.50    9.90
  -1   4  -9   53.09    9.80
   1  -4   9   52.19   10.00
   1  -4   9   59.09    8.80
   1  -4   9   52.49   12.10
  -2   4  -9  810.12   35.50
  -2   4  -9  785.52   37.90
   2  -4   9  738.53   38.70
   2  -4   9  734.43   36.50
   2  -4   9  733.93   26.30
  -3   4  -9   62.49   12.10
  -3   4  -9   94.89   14.90
   3  -4   9   75.59   16.50
  -4   4  -9   -3.00    7.40
  -4   4  -9   35.70   10.30
  -5   4  -9   93.49   16.80
   5   3  -9   -0.70    9.30
  -5  -3   9   34.50    9.70
  -5  -3   9   25.00   12.00
  -5  -3   9   26.20   11.30
   4   3  -9   16.50    8.40
  -4  -3   9   35.50   13.60
  -4  -3   9   32.90   12.50
  -4  -3   9   18.30    9.50
   3   3  -9   71.29   14.60
   3   3  -9   74.39   12.90
  -3  -3   9   93.79   17.10
  -3  -3   9   84.59   14.20
   2   3  -9   54.79   10.90
   2   3  -9   62.99   12.80
  -2  -3   9   67.59   12.70
  -2  -3   9   54.39   11.70
   1   3  -9   91.89   13.70
   1   3  -9   80.79    8.00
   1   3  -9  107.99   12.40
  -1  -3   9   87.99    9.80
  -1  -3   9   94.39   13.80
  -1  -3   9  106.09   15.30
   0   3  -9  146.69   14.40
   0   3  -9  126.09   12.50
   0  -3   9  127.59   14.40
   0  -3   9  165.98   15.70
   0  -3   9  148.49   11.80
  -1   3  -9  372.46   20.30
  -1   3  -9  398.36   24.00
   1  -3   9  354.36   18.00
   1  -3   9  394.06   25.10
   1  -3   9  386.16   20.90
  -2   3  -9  168.58   16.00
  -2   3  -9  149.69   13.60
   2  -3   9  176.58    7.60
   2  -3   9  159.68   17.30
   2  -3   9  184.88   16.00
  -3   3  -9   16.80    7.70
  -3   3  -9   25.40    8.60
  -4   3  -9   31.00   11.00
  -4   3  -9   52.99   11.60
  -5   3  -9  203.48   21.40
  -5   3  -9  174.88   17.20
   5   2  -9  123.39   15.30
  -5  -2   9  163.28   15.10
  -5  -2   9  115.39   20.00
  -5  -2   9  120.89   23.00
   4   2  -9   55.79   10.80
  -4  -2   9   22.10   10.70
  -4  -2   9   39.80   14.60
  -4  -2   9   71.09   11.80
   3   2  -9    6.30    6.10
   3   2  -9   11.40    8.90
  -3  -2   9    3.10    7.00
  -3  -2   9   12.40    6.00
   2   2  -9  267.67   19.10
   2   2  -9  296.87   22.20
   2   2  -9  275.17   10.70
  -2  -2   9  284.47   21.50
  -2  -2   9  264.17   20.00
   1   2  -9    1.70    4.20
   1   2  -9    5.40    3.40
   1   2  -9    2.30    4.40
  -1  -2   9   10.00    5.90
  -1  -2   9    8.10    5.50
   0   2  -9  294.97   19.60
   0  -2   9  267.97   16.80
   0  -2   9  269.47   15.50
   0  -2   9  266.67   20.10
  -1   2  -9    4.20    3.60
  -1   2  -9    5.20    5.60
  -1   2  -9    0.30    4.20
   1  -2   9    7.10    3.60
   1  -2   9    2.10    6.40
   1  -2   9   -1.40    3.60
  -2   2  -9   62.29   11.50
  -2   2  -9   44.30    8.20
   2  -2   9   44.90    8.50
  -3   2  -9   13.90    6.40
  -3   2  -9   17.70    7.70
   3  -2   9   10.80    7.50
  -4   2  -9   29.00   10.90
  -4   2  -9   43.20   10.60
   4  -2   9   20.10   11.60
  -5   2  -9    2.20    8.50
  -5   2  -9   -1.70    8.00
   5   1  -9   28.20    7.90
  -5  -1   9   44.20   15.50
  -5  -1   9   68.69   18.80
   4   1  -9  162.48   13.80
  -4  -1   9  133.49   22.30
  -4  -1   9  167.18   20.00
   3   1  -9 1700.83   61.19
   3   1  -9 1786.82   71.69
  -3  -1   9 1783.22   63.19
  -3  -1   9 1659.03   68.89
  -3  -1   9 1728.53   72.19
   2   1  -9  364.46   17.70
   2   1  -9  349.96   21.30
   2   1  -9  363.06   24.70
  -2  -1   9  378.56   23.30
  -2  -1   9  351.06   24.10
   1   1  -9  554.24   28.40
   1   1  -9  555.24   22.60
   1   1  -9  508.95   27.00
  -1  -1   9  552.04   29.30
  -1  -1   9  585.94   28.80
   0   1  -9  107.29   10.80
   0   1  -9  100.49   10.60
   0   1  -9  119.49   12.60
   0  -1   9  126.09   14.00
   0  -1   9  124.59   11.20
  -1   1  -9  423.46   25.10
  -1   1  -9  473.35   20.00
  -1   1  -9  461.05   20.20
   1  -1   9  454.95   19.30
   1  -1   9  454.95   20.30
  -2   1  -9  129.79   12.50
  -2   1  -9  140.89   14.30
   2  -1   9  126.59   11.80
  -3   1  -9  174.28   14.00
  -3   1  -9  190.18   17.40
   3  -1   9  171.48   15.70
  -4   1  -9  355.96   24.80
  -4   1  -9  410.56   24.60
   4  -1   9  389.26   27.20
  -5   1  -9   63.39   13.30
  -5   1  -9   82.39   15.00
  -5   0   9   61.29    7.40
  -5   0   9   45.70   15.70
  -5   0   9   53.69   14.10
   4   0  -9   22.30    6.30
  -4   0   9   21.10    5.30
  -4   0   9   32.20   11.90
  -4   0   9   21.30   11.90
   3   0  -9  981.40   48.60
   3   0  -9 1023.80   35.20
   3   0  -9 1049.30   39.70
  -3   0   9  964.50   34.30
  -3   0   9  951.80   48.90
  -3   0   9  884.51   45.80
   2   0  -9  708.23   26.10
   2   0  -9  679.53   30.80
   2   0  -9  696.03   36.20
  -2   0   9  698.23   27.10
  -2   0   9  655.63   34.70
  -2   0   9  686.03   36.10
   1   0  -9  791.12   35.10
   1   0  -9  809.72   30.30
   1   0  -9  837.72   36.90
  -1   0   9  802.92   31.70
  -1   0   9  779.02   35.80
   0   0  -9  523.55   27.50
   0   0  -9  536.35   25.00
   0   0   9  545.05   25.20
  -1   0  -9  132.59   10.10
  -1   0  -9  146.49   14.60
  -1   0  -9  158.68   14.80
   1   0   9  159.58    9.80
   1   0   9  141.69   10.50
  -2   0  -9  468.45   27.70
  -2   0  -9  441.86   16.20
  -2   0  -9  440.56   26.50
  -2   0  -9  462.35   19.20
   2   0   9  442.86   20.70
  -3   0  -9  175.68   13.00
  -3   0  -9  179.58   17.90
   3   0   9  172.08   15.10
  -4   0  -9  158.18   14.40
  -4   0  -9  151.08   17.20
   4   0   9  179.28   17.70
  -5   0  -9   70.89   18.40
  -5   0  -9   92.29   16.90
  -5   0  -9   82.49   14.10
   5   0   9   73.79   16.30
  -6   0  -9  124.99   19.30
  -6   0  -9  163.28   18.00
  -6   0  -9  103.99   21.80
  -5   1   9    8.20   10.50
  -5   1   9  -11.10    5.90
   4  -1  -9    7.00    4.60
  -4   1   9    8.90    8.20
  -4   1   9    7.40    5.30
  -4   1   9   -3.90    8.60
   3  -1  -9 1420.56   61.19
   3  -1  -9 1318.67   60.79
   3  -1  -9 1413.16   52.49
  -3   1   9 1292.77   58.39
  -3   1   9 1375.56   61.49
  -3   1   9 1363.26   49.50
   2  -1  -9    9.10    7.40
   2  -1  -9    9.30    4.90
   2  -1  -9    4.60    3.50
  -2   1   9    2.00    4.00
  -2   1   9    0.40    5.80
  -2   1   9   -0.60    6.00
   1  -1  -9  245.78   18.10
   1  -1  -9  264.27   18.00
   1  -1  -9  221.38   14.00
  -1   1   9  250.77   18.50
  -1   1   9  243.18   17.40
  -1   1   9  228.18   17.00
   0  -1  -9 1449.35   51.89
   0  -1  -9 1459.75   55.39
   0  -1  -9 1461.05   51.29
   0   1   9 1443.56   52.59
   0   1   9 1429.76   51.49
  -1  -1  -9 1336.27   46.00
  -1  -1  -9 1352.16   51.19
  -1  -1  -9 1268.27   52.39
   1   1   9 1385.16   41.60
   1   1   9 1370.66   46.10
  -2  -1  -9  743.33   24.70
  -2  -1  -9  682.63   25.50
  -2  -1  -9  681.43   35.00
  -2  -1  -9  708.03   35.40
   2   1   9  715.93   26.30
  -3  -1  -9   97.89   15.00
  -3  -1  -9   86.09   15.60
  -3  -1  -9   83.79    5.20
  -3  -1  -9   98.79    8.30
  -3  -1  -9   82.39    5.30
   3   1   9   82.59   10.50
  -4  -1  -9   86.09   15.30
  -4  -1  -9   95.69   17.80
  -4  -1  -9  101.69   11.70
   4   1   9   88.99   14.10
  -5  -1  -9    7.40    7.90
  -5  -1  -9   11.00   10.80
  -5  -1  -9  -11.20    9.50
  -6  -1  -9   25.10   11.80
  -6  -1  -9   29.50   12.10
  -5   2   9   85.29   12.80
  -5   2   9   69.09   16.70
  -5   2   9  105.19   22.40
   4  -2  -9   49.80    5.50
  -4   2   9   63.89   16.20
  -4   2   9   75.29   18.70
  -4   2   9   63.09   10.60
   3  -2  -9   44.40    9.40
   3  -2  -9   54.29    8.60
  -3   2   9   37.80    8.40
  -3   2   9   39.80   12.90
   2  -2  -9  490.85   33.30
   2  -2  -9  475.85   23.10
   2  -2  -9  431.86   23.60
  -2   2   9  472.25   28.80
  -2   2   9  464.85   28.50
  -2   2   9  466.55   23.30
   1  -2  -9   57.59    8.90
   1  -2  -9   57.99   11.50
   1  -2  -9   58.69   10.40
  -1   2   9   49.10   10.40
  -1   2   9   60.09   11.20
  -1   2   9   58.59    9.30
   0  -2  -9    4.90    4.90
   0  -2  -9   12.60    6.60
   0  -2  -9    8.60    4.70
   0   2   9    7.60    5.40
   0   2   9    7.60    6.00
   0   2   9    3.30    3.80
  -1  -2  -9  224.58   15.00
  -1  -2  -9  230.28   17.00
   1   2   9  233.28    9.40
   1   2   9  228.68   15.30
   1   2   9  223.08   17.50
  -2  -2  -9   79.09    8.60
  -2  -2  -9  101.59   14.60
   2   2   9   87.79    5.80
  -3  -2  -9  380.46   17.20
  -3  -2  -9  404.46   16.30
  -3  -2  -9  378.16   26.30
   3   2   9  385.06   18.60
  -4  -2  -9   81.59    7.10
  -4  -2  -9   70.89   17.80
  -4  -2  -9   62.59   23.60
  -4  -2  -9   89.09    9.80
  -5  -2  -9    5.60   10.90
  -5  -2  -9   13.90    9.80
  -5  -2  -9   -0.20    6.40
  -6  -2  -9   -4.40   10.10
  -6  -2  -9    1.00    9.20
  -5   3   9   12.70   13.30
  -4   3   9   46.00   14.90
  -4   3   9   48.10   15.40
   3  -3  -9  311.57   18.20
   3  -3  -9  379.86   23.00
  -3   3   9  350.56   27.10
  -3   3   9  359.76   21.60
   2  -3  -9  602.84   34.30
   2  -3  -9  592.24   29.00
   2  -3  -9  615.54   29.30
  -2   3   9  567.64   28.60
  -2   3   9  645.54   35.00
  -2   3   9  641.24   34.80
   1  -3  -9  246.08   18.10
   1  -3  -9  230.08   16.10
   1  -3  -9  233.98   18.60
  -1   3   9  208.88   15.60
  -1   3   9  243.98   19.60
  -1   3   9  218.08   17.10
   0  -3  -9 2699.13   90.09
   0  -3  -9 2812.92   89.39
   0   3   9 2720.93   83.89
   0   3   9 2797.32   90.89
   0   3   9 2799.82   90.89
  -1  -3  -9  275.47   18.70
  -1  -3  -9  276.07   17.30
   1   3   9  273.17   18.10
   1   3   9  251.37   19.30
  -2  -3  -9  195.58   14.20
  -2  -3  -9  192.18   16.80
  -3  -3  -9   30.30    7.00
  -3  -3  -9   42.80    3.60
  -3  -3  -9   44.40   11.10
  -4  -3  -9   20.90    6.30
  -4  -3  -9   37.40   13.30
  -4  -3  -9   34.10    7.40
  -4  -3  -9   26.50    5.40
  -5  -3  -9  272.87   18.20
  -5  -3  -9  234.58   23.90
  -5  -3  -9  201.38   14.50
  -5  -3  -9  237.38   15.00
  -6  -3  -9  -17.50    8.70
  -6  -3  -9   11.60   10.20
  -6  -3  -9  -10.90    7.90
  -5   4   9   24.10   13.20
   4  -4  -9   22.70   10.40
  -4   4   9   -9.50   11.30
  -4   4   9   -3.30   10.30
   3  -4  -9   36.80    8.00
   3  -4  -9   34.50   10.00
   3  -4  -9   46.50    8.30
  -3   4   9   33.60   13.70
  -3   4   9   48.70   14.60
  -3   4   9   29.40    9.30
   2  -4  -9   38.20    9.30
   2  -4  -9   15.60    8.70
   2  -4  -9   17.00    7.20
  -2   4   9   26.20   10.10
  -2   4   9   34.10    8.70
  -2   4   9   30.30   11.40
   1  -4  -9   99.59   13.50
   1  -4  -9   81.29   13.30
  -1   4   9   74.19   11.40
  -1   4   9   87.79   13.40
  -1   4   9   81.99   15.00
   0  -4  -9  885.01   37.40
   0  -4  -9  864.11   38.60
   0   4   9  765.72   37.40
   0   4   9  798.62   31.10
   0   4   9  867.81   38.50
  -1  -4  -9   71.29   10.90
  -1  -4  -9   71.69   11.80
   1   4   9   56.39   11.10
   1   4   9   46.70   10.40
  -2  -4  -9   74.49   11.40
  -2  -4  -9   75.59   12.50
   2   4   9   82.99   14.70
  -3  -4  -9  467.45   29.30
  -3  -4  -9  497.25   25.00
  -4  -4  -9  224.98   21.60
  -4  -4  -9  267.47   18.30
  -4  -4  -9  262.87   18.00
  -4  -4  -9  265.47   12.80
  -5  -4  -9   38.00   10.30
  -5  -4  -9   52.19    9.40
  -5  -4  -9   25.90   12.70
  -5  -4  -9   74.89   15.20
  -5  -4  -9   63.39   10.90
  -6  -4  -9   -0.40    7.40
  -6  -4  -9    9.40    8.40
  -6  -4  -9    8.60   10.70
   4  -5  -9  366.26   29.30
  -4   5   9  395.66   34.90
  -4   5   9  396.16   33.50
   3  -5  -9  103.79   18.00
  -3   5   9   86.59   18.00
  -3   5   9  101.59   18.90
   2  -5  -9   82.29   14.20
   2  -5  -9   98.49   13.70
  -2   5   9   85.99   15.10
  -2   5   9   89.09   16.30
  -2   5   9   94.99   14.10
   1  -5  -9  417.26   25.20
   1  -5  -9  409.56   27.10
  -1   5   9  417.46   28.40
  -1   5   9  419.36   24.60
   0  -5  -9  605.74   32.60
   0  -5  -9  662.53   32.30
   0   5   9  689.83   34.00
   0   5   9  618.34   26.00
   0   5   9  586.74   33.10
  -1  -5  -9  570.34   29.90
  -1  -5  -9  526.95   28.80
   1   5   9  610.54   32.30
   1   5   9  545.25   16.90
  -2  -5  -9  264.17   20.40
  -2  -5  -9  308.67   21.20
   2   5   9  279.17   23.40
  -3  -5  -9   12.00    7.20
  -3  -5  -9   19.50    8.70
  -4  -5  -9   43.90   10.50
  -4  -5  -9   14.20    9.30
  -4  -5  -9   31.30    9.50
  -5  -5  -9   -1.00    8.30
  -5  -5  -9   -7.40    9.10
  -5  -5  -9    6.00    9.30
  -5  -5  -9   10.70    8.10
   4  -6  -9  110.89   18.70
   3  -6  -9   -2.70    5.80
   3  -6  -9  -10.80    5.80
   3  -6  -9    8.30    8.50
  -3   6   9    1.10   10.90
  -3   6   9    8.40   10.50
   2  -6  -9  479.55   32.00
   2  -6  -9  525.65   34.80
   2  -6  -9  534.35   29.80
  -2   6   9  552.44   36.00
  -2   6   9  547.25   33.30
   1  -6  -9  271.87   21.70
   1  -6  -9  279.37   21.00
   1  -6  -9  307.27   22.70
  -1   6   9  270.07   43.50
  -1   6   9  268.07   20.20
  -1   6   9  256.67   21.10
   0  -6  -9  328.57   24.30
   0  -6  -9  368.26   23.00
   0  -6  -9  347.07   24.10
   0   6   9  333.27   18.20
   0   6   9  385.06   28.20
   0   6   9  362.26   24.70
  -1  -6  -9 1019.60   44.70
   1   6   9  919.61   30.70
   1   6   9 1019.60   46.30
  -2  -6  -9  608.74   33.40
  -2  -6  -9  673.93   34.80
  -2  -6  -9  678.23   38.90
   2   6   9  598.24   35.40
  -3  -6  -9  276.37   25.70
  -3  -6  -9  271.27   25.90
  -3  -6  -9  244.38   21.40
  -4  -6  -9   89.19   19.20
  -4  -6  -9  119.49   17.80
  -4  -6  -9  109.19   17.30
  -5  -6  -9  283.47   25.20
  -5  -6  -9  332.97   30.00
  -5  -6  -9  291.47   14.50
  -5  -6  -9  311.47   13.00
  -5  -6  -9  334.37   25.30
   3  -7  -9    4.00   10.30
   3  -7  -9    2.90    8.80
   3  -7  -9   -5.80    6.00
  -3   7   9   -1.70   10.10
  -3   7   9    2.70   11.30
   2  -7  -9   37.60   11.40
   2  -7  -9   50.29   13.60
  -2   7   9   71.89   16.10
  -2   7   9   64.29   15.70
   1  -7  -9  546.75   31.50
   1  -7  -9  547.05   33.20
   1  -7  -9  559.14   33.70
  -1   7   9  567.54   30.00
  -1   7   9  492.05   34.90
   0  -7  -9  428.36   23.90
   0  -7  -9  402.16   29.60
   0  -7  -9  419.36   30.60
   0   7   9  468.65   22.40
  -1  -7  -9  208.08   20.10
  -1  -7  -9  234.08   12.90
  -1  -7  -9  250.87   23.50
   1   7   9  224.88   11.10
  -2  -7  -9  225.88   21.60
  -2  -7  -9  234.08   20.50
  -2  -7  -9  241.28   24.00
  -3  -7  -9  234.78   21.40
  -3  -7  -9  212.38   24.30
  -3  -7  -9  186.68   20.60
  -4  -7  -9  177.88   19.20
  -4  -7  -9  138.49   23.10
  -5  -7  -9    9.60   10.40
  -5  -7  -9    2.40    8.30
  -5  -7  -9    5.20    9.10
   3  -8  -9   50.29   14.00
   3  -8  -9  106.49   20.30
   3  -8  -9  139.89   15.50
  -3   8   9   93.59   19.00
  -3   8   9   81.69   23.00
   2  -8  -9   14.60    9.30
   2  -8  -9   10.80    9.80
  -2   8   9    0.60   11.60
  -2   8   9   36.50   13.50
   1  -8  -9   29.80   10.80
   1  -8  -9    1.60    8.70
   1  -8  -9    9.40    7.10
  -1   8   9   33.40   10.50
   0  -8  -9   23.30    9.40
   0  -8  -9    8.70    9.20
   0  -8  -9    9.90    6.90
   0   8   9   28.20    7.20
  -1  -8  -9   92.79   15.70
  -1  -8  -9   99.09   18.40
  -1  -8  -9   70.09    9.30
   1   8   9   89.89    7.90
  -2  -8  -9   22.40   11.40
  -2  -8  -9   60.49   13.20
  -3  -8  -9   72.29   18.90
  -3  -8  -9   53.39   13.30
  -4  -8  -9  385.66   29.00
  -4  -8  -9  348.37   32.10
  -5  -8  -9   -7.70    8.60
  -5  -8  -9    0.10   11.20
  -5  -8  -9    0.20    9.10
   2  -9  -9  313.07   28.70
   2  -9  -9  297.17   28.40
  -2   9   9  287.87   26.70
   1  -9  -9   25.00   12.50
   1  -9  -9   11.10    8.70
   1  -9  -9   19.80   11.60
  -1   9   9    7.30    9.90
   0  -9  -9   -4.40    6.20
   0  -9  -9   -2.80    7.30
   0  -9  -9  -12.40    6.40
   0   9   9    1.00    6.20
  -1  -9  -9   60.89   15.50
  -1  -9  -9   49.30   12.60
  -2  -9  -9  -14.10    4.80
  -2  -9  -9   -1.30    2.60
  -2  -9  -9   30.10   12.60
  -3  -9  -9  183.98   20.00
  -3  -9  -9  138.59   24.20
  -4  -9  -9   78.19   16.30
   2 -10  -9   39.80   14.20
   2 -10  -9   12.30   13.40
  -2  10   9  -12.50   10.00
   1 -10  -9   61.29   16.30
   1 -10  -9   58.79   23.70
  -1  10   9   28.00   11.30
   0 -10  -9  254.67   24.50
   0 -10  -9  249.28   26.30
   0  10   9  242.78   18.50
  -1 -10  -9   -1.00    7.30
  -1 -10  -9  -14.20    6.10
  -1 -10  -9    6.70    8.70
   1  10   9   -2.80    4.50
  -2 -10  -9  330.07   16.20
  -2 -10  -9  338.97   27.50
  -2 -10  -9  378.66   33.90
  -3 -10  -9  508.45   44.70
  -3 -10  -9  560.14   35.50
  -4 -10  -9   46.50   17.40
  -4 -10  -9   87.69   25.70
   1 -11  -9   -0.50    9.50
  -1  11   9   -8.90    9.80
   0 -11  -9   20.70    9.70
   0 -11  -9    9.30   11.80
   0 -11  -9  -20.80   10.10
   0  11   9   23.20    9.10
  -1 -11  -9  115.39   20.00
  -1 -11  -9  136.79   22.90
  -1 -11  -9  128.59   34.70
   1  11   9  122.79   12.90
  -2 -11  -9    2.90    9.90
  -2 -11  -9    3.80    7.90
  -3 -11  -9   29.40   15.60
  -3 -11  -9   21.20   11.90
  -2 -11  10   72.29   20.50
  -2 -11  10   53.59   16.90
  -1 -11  10   16.40   10.80
  -1 -11  10   -4.80    8.80
   0 -11  10   13.60   11.40
   0 -11  10   33.60   12.60
  -3 -10  10   21.10   12.10
  -3 -10  10   20.90   13.30
   2  10 -10   39.50   10.70
  -2 -10  10   50.79   25.20
  -2 -10  10   49.20   15.00
  -1 -10  10   24.20   11.50
  -1 -10  10    6.00    9.50
   0 -10  10  161.18   25.00
   0 -10  10  124.39   21.80
  -1  10 -10    4.40    8.60
   1 -10  10   -3.10    8.20
   1 -10  10    6.60   10.00
  -2  10 -10   10.30   11.00
   2 -10  10  -18.50   10.20
  -4  -9  10   87.19   18.00
  -3  -9  10  135.49   36.30
  -3  -9  10   81.19   17.90
   2   9 -10   32.60    8.30
  -2  -9  10   15.80   10.90
  -2  -9  10   31.40   12.80
   1   9 -10    9.60    8.30
  -1  -9  10   30.10   13.10
  -1  -9  10   46.60   15.70
   0  -9  10   52.89   16.30
   0  -9  10   56.29   13.40
  -1   9 -10    9.30    8.50
   1  -9  10   25.00   11.60
   1  -9  10   14.60    9.10
   2  -9  10   35.20   14.10
   2  -9  10   56.59   12.90
  -3   9 -10   -1.50    9.20
   3  -9  10   -4.70   11.10
   3  -9  10  -29.20   10.40
  -4  -8  10    9.20   11.80
  -4  -8  10   10.30    9.50
  -3  -8  10  381.66   32.20
  -3  -8  10  392.66   31.60
   2   8 -10  133.89   11.30
  -2  -8  10  128.29   20.40
  -2  -8  10  136.69   22.50
   1   8 -10  127.99   14.20
  -1  -8  10  105.99   18.90
  -1  -8  10  119.69   18.70
   0   8 -10  282.17   21.90
   0  -8  10  317.87   27.70
   0  -8  10  251.07   23.80
  -1   8 -10  590.44   34.70
   1  -8  10  534.45   32.30
   1  -8  10  565.54   38.30
  -2   8 -10  148.19   17.10
   2  -8  10  136.69   15.30
   2  -8  10  145.29   17.60
   2  -8  10   97.69   18.30
  -3   8 -10  205.78   33.20
   3  -8  10  163.78   19.10
   3  -8  10  263.67   26.70
   3  -8  10  169.48   19.30
  -4  -7  10   31.40   10.40
  -4  -7  10    9.80   11.50
  -3  -7  10    9.00    9.10
  -3  -7  10  -12.00    7.40
   2   7 -10  237.28   13.50
  -2  -7  10  228.98   23.60
  -2  -7  10  206.08   22.20
   1   7 -10  100.09   11.70
  -1  -7  10   86.89   16.80
  -1  -7  10   98.99   18.50
   0   7 -10  129.49   17.60
   0  -7  10  116.69   20.00
   0  -7  10  124.29   17.90
  -1   7 -10    9.30    7.90
   1  -7  10   10.10    6.70
   1  -7  10    7.40   10.10
  -2   7 -10   81.99   14.60
   2  -7  10   77.39   12.10
   2  -7  10   89.79   16.50
   2  -7  10  101.09   13.90
  -3   7 -10   52.89   12.30
   3  -7  10   41.40   14.00
   3  -7  10   55.29    8.60
   3  -7  10   66.79    9.30
  -4   7 -10  270.27   26.10
  -5  -6  10   55.49   19.70
  -5  -6  10   52.79   16.30
  -5  -6  10  100.69   18.40
  -4  -6  10   69.09   15.60
  -4  -6  10   52.29   15.20
  -3  -6  10   55.89   14.60
  -3  -6  10   59.29   14.80
   2   6 -10   41.70    5.80
  -2  -6  10   34.20   12.90
  -2  -6  10   28.10   12.10
   1   6 -10  270.37   17.40
   1   6 -10  243.48   26.70
  -1  -6  10  272.37   23.20
  -1  -6  10  260.27   22.70
  -1  -6  10  288.77   24.70
   0   6 -10  258.27   23.00
   0   6 -10  250.87   19.20
   0  -6  10  239.58   20.00
   0  -6  10  273.57   24.30
   0  -6  10  239.38   19.40
  -1   6 -10  141.19   17.10
  -1   6 -10  151.28   17.90
  -1   6 -10  156.18   17.50
   1  -6  10  177.48   20.10
   1  -6  10  163.78   15.30
  -2   6 -10    0.00    8.10
  -2   6 -10   15.70    7.90
   2  -6  10    6.60    5.40
   2  -6  10    8.10    7.90
  -3   6 -10   13.80   11.20
  -3   6 -10    1.20   10.00
   3  -6  10    5.60    3.20
   3  -6  10    4.70    9.70
  -4   6 -10   34.00   12.50
  -5  -5  10   81.89   17.80
  -5  -5  10  104.49   20.00
  -5  -5  10  145.99   27.40
  -4  -5  10  117.59   20.90
  -4  -5  10  163.28   23.80
   3   5 -10   94.99   17.00
  -3  -5  10  120.59   18.00
  -3  -5  10  166.38   24.80
   2   5 -10 1360.36   59.49
   2   5 -10 1367.46   42.20
  -2  -5  10 1427.66   60.49
  -2  -5  10 1403.96   60.79
   1   5 -10   76.39   12.10
   1   5 -10   49.10   12.10
  -1  -5  10   67.19   12.50
  -1  -5  10   67.99   11.50
  -1  -5  10   57.59   12.50
   0   5 -10  179.88   15.60
   0   5 -10  186.38   18.00
   0  -5  10  166.98   18.00
   0  -5  10  160.08   15.50
   0  -5  10  199.68   29.90
  -1   5 -10  718.43   38.60
  -1   5 -10  759.82   35.40
  -1   5 -10  768.32   38.50
   1  -5  10  722.23   39.50
   1  -5  10  762.42   32.90
   1  -5  10  733.83   36.10
  -2   5 -10  151.88   16.00
  -2   5 -10  138.79   19.20
   2  -5  10  151.98   11.00
   2  -5  10   92.99   15.90
   2  -5  10  175.28   11.80
   2  -5  10  168.78   19.00
  -3   5 -10   23.90   10.00
  -3   5 -10   35.70   10.50
   3  -5  10   35.60   11.70
  -4   5 -10   78.09   15.20
  -4   5 -10   77.59   14.60
   5   4 -10   -3.40   12.20
  -5  -4  10   -0.50   11.20
  -5  -4  10   27.00   11.10
  -5  -4  10    4.10   12.10
   4   4 -10  611.54   35.00
  -4  -4  10  621.14   40.40
  -4  -4  10  640.34   36.10
   3   4 -10  136.79   18.70
  -3  -4  10  164.48   20.00
  -3  -4  10  186.68   19.10
   2   4 -10    5.20    8.10
   2   4 -10   13.00    9.10
   2   4 -10   14.30    2.90
   2   4 -10   17.00    2.90
  -2  -4  10   19.50    8.30
  -2  -4  10   14.40    8.80
   1   4 -10  180.38   17.30
   1   4 -10  186.18   17.10
   1   4 -10  213.68   13.70
  -1  -4  10  206.48   16.30
  -1  -4  10  185.48   17.30
  -1  -4  10  220.08   20.10
   0   4 -10    6.00    7.30
   0  -4  10    8.20    7.80
   0  -4  10   -4.00    4.60
   0  -4  10    7.50    5.00
  -1   4 -10  197.68   18.00
  -1   4 -10  169.58   14.90
   1  -4  10  199.98   14.00
   1  -4  10  208.28   16.60
   1  -4  10  171.08   18.40
  -2   4 -10  469.15   29.30
  -2   4 -10  513.25   27.30
   2  -4  10  540.15   32.80
   3  -4  10   17.90   12.00
  -4   4 -10   -3.30    8.50
  -4   4 -10   -2.70    8.50
  -5   4 -10    2.10    7.70
   5   3 -10   21.80   12.20
  -5  -3  10   54.79   12.80
  -5  -3  10   24.50   14.30
   4   3 -10  507.45   30.60
  -4  -3  10  635.44   41.90
  -4  -3  10  500.65   35.70
  -4  -3  10  549.95   32.00
   3   3 -10  288.07   21.90
  -3  -3  10  316.67   23.60
  -3  -3  10  278.97   25.30
   2   3 -10  170.98    8.40
   2   3 -10  178.28   18.80
   2   3 -10  173.28    7.80
   2   3 -10  168.48   16.90
  -2  -3  10  195.18   19.60
  -2  -3  10  165.58   17.60
   1   3 -10  545.85   24.10
   1   3 -10  582.44   30.80
   1   3 -10  540.15   30.30
  -1  -3  10  521.55   26.40
  -1  -3  10  533.95   29.70
  -1  -3  10  537.35   31.00
   0   3 -10  505.15   29.10
   0   3 -10  535.35   26.90
   0  -3  10  573.64   31.80
   0  -3  10  554.04   27.30
   0  -3  10  519.95   25.20
  -1   3 -10  294.07   21.50
  -1   3 -10  315.67   18.80
   1  -3  10  287.47   18.30
   1  -3  10  309.97   23.40
   1  -3  10  297.67   16.40
  -2   3 -10  180.08   17.40
  -2   3 -10  213.88   16.00
   2  -3  10  201.98    8.70
   2  -3  10  184.38   17.00
   2  -3  10  193.68   19.50
  -3   3 -10   15.40    7.40
  -3   3 -10    8.60    7.80
   3  -3  10   24.30   11.10
  -4   3 -10  246.18   20.30
  -5   3 -10   -6.60    8.00
   5   2 -10   40.80   12.00
  -5  -2  10   28.40   13.60
   4   2 -10    6.90    7.10
  -4  -2  10   18.20   11.00
  -4  -2  10   15.80    7.30
  -4  -2  10   -4.10    8.60
   3   2 -10   62.29   11.80
  -3  -2  10   83.29   13.50
   2   2 -10 1132.19   57.89
   2   2 -10 1181.28   48.10
  -2  -2  10 1081.99   49.80
  -2  -2  10 1220.08   49.99
   1   2 -10  592.84   31.00
   1   2 -10  564.14   30.20
   1   2 -10  585.74   24.50
  -1  -2  10  580.64   31.90
  -1  -2  10  577.84   30.10
   0   2 -10   39.00    8.80
   0   2 -10   50.69   10.80
   0   2 -10   38.80    8.40
   0  -2  10   36.00    8.00
   0  -2  10   35.50    7.80
   0  -2  10   20.40    9.90
  -1   2 -10  492.95   22.40
  -1   2 -10  524.35   29.30
  -1   2 -10  556.04   24.60
   1  -2  10  505.95   22.30
   1  -2  10  522.45   24.20
   1  -2  10  569.84   31.70
  -2   2 -10   59.19   11.90
  -2   2 -10   66.29    9.80
   2  -2  10   65.29   11.30
  -3   2 -10  244.08   17.50
  -3   2 -10  203.48   18.90
   3  -2  10  219.98   19.70
  -4   2 -10   54.19   12.60
  -4   2 -10   28.30    9.80
   4  -2  10   29.30   12.70
  -5   2 -10   59.69   13.70
  -5   2 -10   62.69   19.50
  -5  -1  10  113.29   36.20
  -5  -1  10  127.49   22.30
   4   1 -10   18.00    7.70
  -4  -1  10    4.10    8.90
  -4  -1  10    4.00    9.50
   3   1 -10    4.60    5.50
  -3  -1  10   -4.90    5.70
  -3  -1  10    6.80    8.30
   2   1 -10  270.17   19.40
   2   1 -10  267.97   22.00
   2   1 -10  306.67   13.70
  -2  -1  10  295.67   22.40
  -2  -1  10  325.27   22.20
   1   1 -10    7.00    5.80
   1   1 -10   -5.20    4.60
   1   1 -10   -0.30    3.20
  -1  -1  10   -1.40    5.10
  -1  -1  10    1.10    5.10
   0   1 -10 3061.09  102.49
   0   1 -10 3182.38   98.89
   0   1 -10 3138.69   98.69
   0  -1  10 3219.58  104.99
   0  -1  10 3065.39   94.39
   0  -1  10 3140.49   98.09
  -1   1 -10  222.98   18.60
  -1   1 -10  211.08   13.10
  -1   1 -10  174.28   16.60
   1  -1  10  201.78   15.30
   1  -1  10  201.98   12.50
  -2   1 -10   18.40    5.60
  -2   1 -10   16.90    8.00
   2  -1  10   13.90    5.60
  -3   1 -10  216.98   19.80
  -3   1 -10  231.98   15.80
   3  -1  10  238.08   18.90
  -4   1 -10  191.18   16.10
  -4   1 -10  197.78   20.40
   4  -1  10  175.48   21.00
  -5   1 -10   35.20   12.10
  -5   1 -10    7.90    9.20
  -5   0  10   22.40    5.10
  -5   0  10   -0.50   10.40
  -5   0  10   19.60   12.40
   4   0 -10  277.87   18.10
  -4   0  10  325.67   29.50
  -4   0  10  289.77   26.50
  -4   0  10  285.37   14.70
   3   0 -10  507.45   26.50
   3   0 -10  511.35   21.70
  -3   0  10  505.75   34.80
  -3   0  10  481.55   21.60
   2   0 -10 1129.59   46.00
   2   0 -10 1124.59   39.80
   2   0 -10 1203.98   57.69
  -2   0  10 1157.08   41.70
  -2   0  10 1250.47   52.89
  -2   0  10 1220.58   51.69
   1   0 -10   84.79   13.80
   1   0 -10   69.79   11.70
   1   0 -10   54.99    7.90
  -1   0  10   52.49    8.90
  -1   0  10   50.69   10.50
   0   0 -10  294.07   20.80
   0   0 -10  321.57   19.60
   0   0 -10  315.67   18.60
   0   0  10  341.37   19.50
   0   0  10  289.27   15.50
  -1   0 -10 2624.24   81.29
  -1   0 -10 2658.53   88.69
  -1   0 -10 2618.24   90.29
   1   0  10 2638.74   78.79
   1   0  10 2614.14   80.49
  -2   0 -10   10.20    7.10
  -2   0 -10    9.50    4.00
  -2   0 -10    5.00    2.90
  -2   0 -10    0.30    6.10
   2   0  10   11.20    5.20
  -3   0 -10  914.71   46.30
  -3   0 -10  899.31   43.30
  -3   0 -10  913.51   34.20
   3   0  10  846.82   37.00
  -4   0 -10  282.87   19.20
  -4   0 -10  410.06   41.50
  -4   0 -10  299.17   27.90
   4   0  10  319.07   24.00
  -5   0 -10  385.46   24.90
  -5   0 -10  291.47   29.30
  -5   0 -10  301.17   24.80
   5   0  10  340.57   28.80
  -5   1  10  -16.20   10.10
   4  -1 -10  160.88   12.70
  -4   1  10  111.89   20.50
  -4   1  10  172.28   13.40
  -4   1  10  175.78   21.40
   3  -1 -10  133.59   19.40
   3  -1 -10  101.69   12.20
  -3   1  10  126.09   11.40
  -3   1  10  151.58   18.50
  -3   1  10  116.39   18.80
   2  -1 -10  106.99   18.10
   2  -1 -10  147.09   13.70
  -2   1  10  128.09   11.30
  -2   1  10  101.49   15.70
  -2   1  10  131.69   18.80
   1  -1 -10   66.29   11.40
   1  -1 -10   62.49    9.10
   1  -1 -10   68.99   12.20
  -1   1  10   69.29   10.50
  -1   1  10   53.49   10.40
  -1   1  10   91.49   13.70
   0  -1 -10   52.59    8.80
   0  -1 -10   49.80    9.40
   0  -1 -10   33.00    9.00
   0   1  10   50.19    9.10
   0   1  10   36.30    8.20
  -1  -1 -10  237.18   20.10
  -1  -1 -10  257.47   15.70
  -1  -1 -10  284.07   19.30
   1   1  10  249.38   15.70
   1   1  10  262.07   12.30
  -2  -1 -10  359.06   24.80
  -2  -1 -10  366.66   16.80
  -2  -1 -10  369.16   24.70
   2   1  10  370.56   16.90
  -3  -1 -10    1.70    1.90
  -3  -1 -10   -1.60    8.40
  -3  -1 -10   12.40    7.80
  -3  -1 -10    3.20    3.50
   3   1  10   12.80    5.80
  -4  -1 -10  870.31   44.40
  -4  -1 -10  897.41   35.10
  -4  -1 -10  853.11   47.70
   4   1  10  814.22   38.20
  -5  -1 -10   23.00   13.00
  -5  -1 -10   20.70   11.40
  -5  -1 -10   27.00    8.70
  -6  -1 -10  -10.80    8.10
  -5   2  10   62.29   18.30
  -5   2  10   53.99   17.80
   4  -2 -10  255.67   14.30
  -4   2  10  259.67   27.30
  -4   2  10  254.07   18.10
  -4   2  10  312.37   28.00
   3  -2 -10    0.70    4.90
   3  -2 -10    7.40    5.90
  -3   2  10    8.80    8.40
  -3   2  10    0.40    5.20
   2  -2 -10    9.50    6.10
   2  -2 -10   20.50    8.80
   2  -2 -10   18.90    5.90
  -2   2  10   19.60    9.20
  -2   2  10   14.80    9.70
  -2   2  10   14.20    6.40
   1  -2 -10  269.57   20.90
   1  -2 -10  250.47   19.40
   1  -2 -10  279.57   17.30
  -1   2  10  282.17   20.70
  -1   2  10  264.47   17.80
  -1   2  10  273.37   19.20
   0  -2 -10   -1.20    4.50
   0  -2 -10    6.80    5.90
   0  -2 -10   -2.00    4.00
   0   2  10   -1.50    5.00
   0   2  10    2.70    3.70
   0   2  10   -3.10    3.80
  -1  -2 -10   58.99   11.20
  -1  -2 -10   35.10    7.60
  -1  -2 -10   36.30    9.60
   1   2  10   46.10    4.40
   1   2  10   50.79    9.10
   1   2  10   47.60   11.00
  -2  -2 -10  336.07   17.30
  -2  -2 -10  326.67   22.90
   2   2  10  324.17   12.80
  -3  -2 -10  111.29    9.00
  -3  -2 -10  124.79    7.80
  -3  -2 -10  119.19   18.10
   3   2  10  120.49    9.90
  -4  -2 -10   11.00   10.20
  -4  -2 -10   25.00   12.60
  -4  -2 -10   24.00    4.20
  -5  -2 -10    3.50    6.00
  -5  -2 -10  -10.30    7.50
  -6  -2 -10    2.80   11.60
  -6  -2 -10  -13.80    9.60
  -6  -2 -10   -0.90   11.20
  -5   3  10  -17.70   10.90
  -5   3  10    2.90   12.60
   4  -3 -10  188.08   10.10
   4  -3 -10  213.48   19.40
  -4   3  10  215.68   26.80
  -4   3  10  157.08   18.30
  -4   3  10  205.78   24.20
   3  -3 -10   -9.10    5.00
   3  -3 -10   10.40    6.50
  -3   3  10   -4.90    7.70
  -3   3  10   14.60   10.50
  -3   3  10   -2.40    6.20
   2  -3 -10  164.98   14.70
   2  -3 -10  196.88   19.30
   2  -3 -10  199.58   16.90
  -2   3  10  172.98   18.90
  -2   3  10  191.28   16.00
  -2   3  10  189.78   19.70
   1  -3 -10  410.86   26.80
   1  -3 -10  473.45   24.40
   1  -3 -10  413.46   25.70
  -1   3  10  426.86   24.60
  -1   3  10  470.35   27.80
  -1   3  10  441.66   25.10
   0  -3 -10  245.48   18.50
   0  -3 -10  280.17   18.70
   0   3  10  240.48   18.60
   0   3  10  284.97   20.30
   0   3  10  243.78   14.90
  -1  -3 -10    3.20    5.20
  -1  -3 -10   -0.80    3.90
   1   3  10    1.80    1.60
   1   3  10   -2.60    5.10
   1   3  10    4.70    2.00
   1   3  10   -1.80    4.50
  -2  -3 -10  257.77   16.30
  -2  -3 -10  198.98   17.90
  -3  -3 -10  197.68   19.10
  -4  -3 -10  256.47   15.70
  -4  -3 -10  262.97   13.20
  -4  -3 -10  256.77   24.00
  -4  -3 -10  261.77   15.40
  -5  -3 -10  143.29   10.90
  -5  -3 -10  129.59   20.20
  -5  -3 -10  150.78   24.40
  -5  -3 -10  178.48   11.30
  -5  -3 -10  182.28   14.30
  -4   4  10   18.40   13.70
  -4   4  10    8.10   12.40
   3  -4 -10   30.20    9.90
   3  -4 -10   15.30    7.70
  -3   4  10   12.30   10.40
  -3   4  10   24.00    8.80
   2  -4 -10  550.34   29.20
   2  -4 -10  503.05   28.30
  -2   4  10  511.15   28.20
  -2   4  10  497.15   31.60
   1  -4 -10   50.19   11.50
   1  -4 -10   49.99    9.60
  -1   4  10   35.10   10.70
  -1   4  10   60.09   11.50
  -1   4  10   48.80    9.70
   0  -4 -10   18.50    8.10
   0  -4 -10   20.00    7.60
   0   4  10    8.70    7.50
   0   4  10    9.30    6.80
   0   4  10   13.40    5.20
  -1  -4 -10  137.89   14.30
  -1  -4 -10  124.39   14.10
   1   4  10  103.69   15.00
   1   4  10  117.99   16.30
  -2  -4 -10   -4.80    3.60
  -2  -4 -10    5.80    5.90
   2   4  10   -0.20    5.60
  -3  -4 -10  114.09   17.60
  -3  -4 -10  118.69   12.80
  -4  -4 -10   53.69   10.20
  -4  -4 -10   73.99   16.30
  -5  -4 -10   21.70    9.30
  -5  -4 -10   79.09   15.60
  -5  -4 -10   46.80   14.00
  -5  -4 -10   50.99    9.30
   4  -5 -10   39.10   12.60
  -4   5  10   11.10   12.40
  -4   5  10   16.20   11.90
   3  -5 -10   -4.10    7.10
   3  -5 -10    2.40    6.00
   3  -5 -10    2.00    7.50
  -3   5  10   14.40   11.90
  -3   5  10   20.40   11.00
   2  -5 -10  225.78   19.20
   2  -5 -10  260.97   20.90
  -2   5  10  249.78   22.20
  -2   5  10  243.08   24.00
  -2   5  10  221.68   19.90
   1  -5 -10   -7.00    5.60
   1  -5 -10   14.70    8.60
  -1   5  10    6.60    7.20
  -1   5  10    7.60    9.00
  -1   5  10   16.30    8.20
   0  -5 -10  425.76   30.70
   0  -5 -10  482.55   27.40
   0   5  10  426.36   27.30
   0   5  10  450.35   21.40
   0   5  10  499.65   30.30
  -1  -5 -10 2176.18   77.39
  -1  -5 -10 2171.78   77.89
   1   5  10 2172.48   80.59
  -2  -5 -10   75.29   13.40
  -2  -5 -10   76.29   13.10
   2   5  10   51.89   12.70
  -3  -5 -10  895.21   39.70
  -3  -5 -10  893.91   44.70
  -4  -5 -10  834.92   43.40
  -4  -5 -10  758.72   36.20
  -4  -5 -10  763.02   44.70
  -5  -5 -10   42.60   11.70
  -5  -5 -10   44.50   15.90
  -5  -5 -10   43.60    9.90
  -5  -5 -10   37.70    6.60
   4  -6 -10   21.80   12.10
  -4   6  10    1.50   13.40
  -4   6  10    6.00   13.60
   3  -6 -10   55.79   12.40
   3  -6 -10   59.49   11.40
   3  -6 -10   62.99   14.80
  -3   6  10   25.50   12.50
  -3   6  10   78.89   17.60
   2  -6 -10   33.00   10.50
   2  -6 -10   62.49   13.10
  -2   6  10   36.70   11.80
  -2   6  10   43.60   14.40
   1  -6 -10 1028.40   47.60
   1  -6 -10 1002.00   51.59
  -1   6  10 1041.60   44.30
  -1   6  10 1042.30   51.39
   0  -6 -10    2.30    6.10
   0  -6 -10   -0.80    7.00
   0   6  10    0.70    6.80
   0   6  10    7.10    9.70
   0   6  10   -0.80    4.80
  -1  -6 -10    1.00    7.80
  -1  -6 -10   -3.90    4.80
   1   6  10   13.70    8.30
   1   6  10    0.70    1.70
  -2  -6 -10   28.20   10.70
  -3  -6 -10  626.74   36.10
  -3  -6 -10  627.04   39.70
  -4  -6 -10  106.39   18.00
  -4  -6 -10   90.69   19.60
  -4  -6 -10   91.69   15.60
  -5  -6 -10   42.80   16.20
  -5  -6 -10   16.60   10.70
  -5  -6 -10   -1.90   11.60
  -5  -6 -10   55.59   13.20
   3  -7 -10   -5.00   11.70
   3  -7 -10    9.40    8.00
   3  -7 -10   19.00   11.10
  -3   7  10  -12.60   11.10
  -3   7  10   -4.30   13.50
   2  -7 -10   36.40   10.70
   2  -7 -10   61.29   14.30
  -2   7  10   44.00   13.10
  -2   7  10   37.10   13.60
   1  -7 -10  237.48   21.60
   1  -7 -10  311.17   24.90
   1  -7 -10  293.87   24.00
  -1   7  10  266.97   26.40
  -1   7  10  292.77   21.90
   0  -7 -10   -1.50    6.80
   0  -7 -10   12.30    8.60
   0   7  10    2.10    5.30
  -1  -7 -10   18.20    7.50
  -1  -7 -10    9.10    9.80
  -2  -7 -10   -4.40    7.50
  -2  -7 -10    2.30    7.40
  -3  -7 -10    7.70    8.60
  -3  -7 -10    5.20    7.30
  -4  -7 -10   81.09   16.40
  -4  -7 -10   66.99   15.70
  -5  -7 -10   93.69   19.30
  -5  -7 -10    1.00    9.50
  -5  -7 -10   28.30   12.30
   3  -8 -10  -18.40    9.10
  -3   8  10  -10.10   10.90
  -3   8  10  -11.10   14.10
   2  -8 -10  186.78   20.80
   2  -8 -10  175.48   24.40
  -2   8  10  167.48   26.10
  -2   8  10  197.58   22.40
   1  -8 -10  282.27   24.80
   1  -8 -10  344.87   27.60
  -1   8  10  384.76   25.30
   0  -8 -10  138.39   20.10
   0  -8 -10  123.69   13.60
   0   8  10  137.59   12.90
  -1  -8 -10  150.78   23.20
  -1  -8 -10  146.39   20.10
   1   8  10  134.89    9.10
  -2  -8 -10  118.99   21.30
  -2  -8 -10  142.09   20.30
  -3  -8 -10   10.00   10.60
  -3  -8 -10   11.50    7.90
  -4  -8 -10  129.69   20.10
  -4  -8 -10  109.79   22.50
  -5  -8 -10   -3.00   10.80
  -5  -8 -10   35.40   14.80
   2  -9 -10   18.70   11.90
   2  -9 -10    0.30   14.80
  -2   9  10   -6.20   10.90
   1  -9 -10    2.30   10.10
   1  -9 -10    9.70    8.30
   1  -9 -10   19.10   12.70
  -1   9  10  -11.50    7.70
   0  -9 -10  362.96   29.90
   0  -9 -10  338.87   28.50
   0  -9 -10  313.67   22.70
   0   9  10  392.96   21.60
  -1  -9 -10   20.90    6.70
  -1  -9 -10   21.10   10.60
  -1  -9 -10   29.80   13.50
   1   9  10   22.60    5.00
  -2  -9 -10    3.50    6.10
  -2  -9 -10   22.60   11.70
  -3  -9 -10    3.60    9.70
  -3  -9 -10  -11.30    6.00
  -4  -9 -10   15.00   11.00
  -4  -9 -10   -2.10   13.30
   1 -10 -10  204.28   24.00
   1 -10 -10  208.68   24.50
  -1  10  10  181.68   19.80
   0 -10 -10   -5.30    9.80
   0 -10 -10    3.60    9.40
   0  10  10   -2.80    6.90
  -1 -10 -10    1.40    6.70
  -1 -10 -10   16.10    8.30
  -1 -10 -10   16.50   12.90
   1  10  10   18.20    6.00
  -2 -10 -10   96.79   17.60
  -2 -10 -10   70.39   18.60
  -3 -10 -10   -2.10    9.20
   0 -11 -10   26.90   10.10
   0 -11 -10   25.80   13.00
   0  11  10   11.00    8.70
  -1 -11 -10   40.70   13.40
  -1 -11 -10   28.20   15.20
  -2 -11 -10    6.70   12.10
  -2 -11 -10   15.80    9.40
  -1 -11  11   14.40   14.10
   0 -11  11   58.09   16.20
   0 -11  11   63.69   16.20
  -3 -10  11   58.29   17.30
  -3 -10  11   24.10   11.20
   2  10 -11   -0.60   10.70
  -2 -10  11   26.00   12.20
  -1 -10  11  399.76   45.80
  -1 -10  11  319.07   30.90
   0 -10  11    6.70   10.00
  -1  10 -11   10.80    9.20
   1 -10  11    3.80   15.10
   1 -10  11   -3.00    9.90
  -3  -9  11   -3.30    9.80
   2   9 -11  129.09   13.20
  -2  -9  11  145.59   23.40
  -2  -9  11  138.59   22.80
   1   9 -11  194.18   18.40
  -1  -9  11  210.58   24.60
  -1  -9  11  215.28   24.50
   0  -9  11  135.69   21.00
   0  -9  11   92.89   18.50
  -1   9 -11  176.68   19.50
   1  -9  11  161.28   19.50
   1  -9  11  115.69   21.00
  -2   9 -11  170.88   24.00
   2  -9  11  195.38   20.40
   2  -9  11  149.39   22.60
  -4  -8  11   48.90   15.10
  -4  -8  11   29.00   14.60
  -3  -8  11  313.47   28.50
  -3  -8  11  334.17   31.30
   2   8 -11  318.47   18.10
  -2  -8  11  382.56   32.10
  -2  -8  11  344.17   30.00
   1   8 -11   -8.20    6.30
  -1  -8  11    8.30    9.00
  -1  -8  11   -2.40    8.30
   0   8 -11    3.90    8.20
   0  -8  11   15.00    7.90
   0  -8  11   11.10    9.60
  -1   8 -11   10.30    7.70
   1  -8  11    5.40    7.50
   1  -8  11    5.30    9.70
  -2   8 -11  373.76   28.40
   2  -8  11  368.86   31.70
   2  -8  11  368.76   23.30
   2  -8  11  348.27   24.40
  -3   8 -11   41.70   13.40
   3  -8  11   24.70   14.20
  -4  -7  11   12.80    9.30
  -4  -7  11   -1.40    8.00
  -3  -7  11  235.58   24.70
  -3  -7  11  189.48   23.40
   2   7 -11  452.85   19.90
  -2  -7  11  394.66   31.80
  -2  -7  11  450.05   33.10
   1   7 -11  202.48   16.30
  -1  -7  11  216.48   23.40
   0   7 -11   73.79   13.50
   0  -7  11  110.09   17.00
   0  -7  11  115.69   19.70
  -1   7 -11   96.19   15.30
   1  -7  11  111.89   19.40
   1  -7  11  103.99   15.00
  -2   7 -11  228.28   21.40
   2  -7  11  238.68   24.60
   2  -7  11  167.38   16.70
   2  -7  11  206.88   16.50
  -3   7 -11   -3.10    7.30
   3  -7  11   -2.80   10.20
   3  -7  11    0.90    6.10
  -4  -6  11  105.49   19.30
  -4  -6  11  126.19   23.40
  -3  -6  11   57.99   14.80
  -3  -6  11   48.10   15.90
   2   6 -11   71.09    7.70
   2   6 -11   68.69    6.90
  -2  -6  11   67.99   15.10
  -2  -6  11   64.09   14.60
   1   6 -11  131.99   12.80
  -1  -6  11  145.99   22.30
  -1  -6  11  149.39   20.60
   0   6 -11   58.49   11.40
   0  -6  11   85.79   18.70
   0  -6  11   70.39   13.10
  -1   6 -11  611.84   33.50
  -1   6 -11  595.54   34.90
   1  -6  11  749.62   46.70
   1  -6  11  645.04   31.70
  -2   6 -11   60.19   12.10
   2  -6  11   58.59    9.00
   2  -6  11   61.09   15.20
  -3   6 -11   91.59   14.80
   3  -6  11   76.59   17.10
  -4   6 -11  257.17   26.40
  -5  -5  11    0.90   10.60
  -5  -5  11   -9.50   10.30
  -5  -5  11   21.20   12.80
  -4  -5  11   46.80   15.20
  -4  -5  11   62.19   14.30
  -3  -5  11   30.00   12.00
  -3  -5  11   25.60   11.80
   2   5 -11  120.19    7.70
   2   5 -11  126.39   21.70
  -2  -5  11  112.99   18.70
   1   5 -11   44.80    8.90
   1   5 -11   36.10   11.80
  -1  -5  11   55.49   13.00
  -1  -5  11   15.70    9.00
  -1  -5  11   33.80    9.50
   0   5 -11  590.64   30.70
   0   5 -11  540.15   33.40
   0  -5  11  566.44   30.90
   0  -5  11  593.14   35.80
   0  -5  11  582.74   30.20
  -1   5 -11  343.87   26.20
  -1   5 -11  354.46   25.30
  -1   5 -11  364.06   23.10
   1  -5  11  337.17   20.70
   1  -5  11  304.07   26.20
   1  -5  11  327.87   23.60
  -2   5 -11    5.40    8.70
   2  -5  11    7.30    4.40
   2  -5  11   21.40   10.20
  -3   5 -11   14.80    8.00
   3  -5  11    7.50    9.50
  -4   5 -11  104.09   16.90
  -5  -4  11   54.59   17.60
  -5  -4  11   73.09   16.60
   4   4 -11    0.70    9.40
  -4  -4  11    9.20    9.80
  -4  -4  11    0.90    7.40
   3   4 -11  105.19   17.60
  -3  -4  11  112.59   20.40
  -3  -4  11   94.19   16.60
   2   4 -11   88.59   16.10
   2   4 -11   88.19    6.30
   2   4 -11   96.49   16.50
  -2  -4  11   92.59   14.00
  -2  -4  11   93.39   16.90
  -2  -4  11   81.89   15.30
   1   4 -11    5.10    6.10
   1   4 -11   -1.80    3.90
   1   4 -11    0.70    7.00
  -1  -4  11   -4.40    6.80
  -1  -4  11   -1.40    6.00
  -1  -4  11    3.40    5.50
   0   4 -11   13.70    8.20
   0  -4  11    9.10    5.30
   0  -4  11    0.20    5.10
   0  -4  11   -0.70    6.90
  -1   4 -11  211.48   16.80
  -1   4 -11  192.48   19.20
   1  -4  11  224.88   21.30
   1  -4  11  234.28   16.70
   1  -4  11  237.98   18.60
  -2   4 -11  416.56   28.60
  -2   4 -11  429.66   25.40
   2  -4  11  450.35   31.00
   2  -4  11  441.56   27.50
  -3   4 -11   73.99   14.30
  -4   4 -11   22.20    9.80
  -4   4 -11   28.80   11.80
  -5   4 -11  108.09   17.50
   5   3 -11   70.19   26.40
  -5  -3  11  107.09   17.20
  -5  -3  11  104.39   22.80
  -5  -3  11   82.29   20.10
   4   3 -11    5.50    9.30
  -4  -3  11   -3.60    9.00
  -4  -3  11    1.50    9.30
  -4  -3  11   10.20    9.30
  -3  -3  11   29.50   10.90
  -3  -3  11   35.70   12.50
   2   3 -11   -0.50    4.90
   2   3 -11   11.90    9.10
  -2  -3  11    0.30    7.30
  -2  -3  11    3.90    7.80
   1   3 -11  342.67   24.50
   1   3 -11  346.97   18.70
   1   3 -11  322.27   23.10
  -1  -3  11  323.87   20.70
  -1  -3  11  360.76   26.00
  -1  -3  11  363.46   24.30
   0   3 -11   45.20    9.40
   0   3 -11   31.70   10.50
   0  -3  11   32.90    7.50
   0  -3  11   23.10    7.40
   0  -3  11   50.89   12.50
  -1   3 -11   51.89   11.60
  -1   3 -11   46.90    9.30
   1  -3  11   51.29   10.00
   1  -3  11   48.20   12.50
   1  -3  11   54.59    8.60
  -2   3 -11  732.43   32.70
   2  -3  11  727.93   23.60
   2  -3  11  704.23   39.80
   2  -3  11  671.33   34.20
  -3   3 -11  108.89   13.20
  -3   3 -11   96.89   15.70
   3  -3  11   87.59   15.90
  -4   3 -11  122.39   17.80
  -4   3 -11  131.49   15.90
  -5   3 -11  243.18   23.10
  -5   3 -11  297.97   24.00
   5   2 -11  224.98   23.40
  -5  -2  11  259.67   28.70
  -5  -2  11  249.38   29.10
   4   2 -11  285.97   22.50
  -4  -2  11  323.47   30.50
  -4  -2  11  357.26   25.60
  -4  -2  11  331.37   28.60
   3   2 -11  199.78   18.90
  -3  -2  11  157.78   19.20
  -3  -2  11  217.18   20.30
   2   2 -11  499.85   19.20
   2   2 -11  500.45   32.10
   2   2 -11  513.15   29.40
  -2  -2  11  531.55   31.70
  -2  -2  11  512.55   31.50
   1   2 -11   87.79   14.50
   1   2 -11   70.09   12.50
   1   2 -11   93.79    9.10
  -1  -2  11   63.89   13.30
  -1  -2  11  104.99   15.00
   0   2 -11  161.18   14.30
   0   2 -11  162.08   16.70
   0   2 -11  160.08   14.40
   0  -2  11  145.19   19.90
   0  -2  11  147.79   12.10
   0  -2  11  181.38   14.80
  -1   2 -11 2312.27   73.99
  -1   2 -11 2291.57   83.29
   1  -2  11 2331.17   73.29
   1  -2  11 2394.26   75.79
   1  -2  11 2333.17   85.69
  -2   2 -11  653.43   28.80
  -2   2 -11  614.24   33.90
   2  -2  11  642.14   30.50
   2  -2  11  600.24   20.30
  -3   2 -11  361.06   26.60
  -3   2 -11  369.76   21.70
   3  -2  11  329.97   24.30
  -4   2 -11   80.89   13.00
  -4   2 -11   49.50   12.50
   4  -2  11   72.29   17.00
  -5   2 -11  345.37   25.60
  -5   2 -11  260.47   24.70
  -5  -1  11   -3.60   10.00
  -5  -1  11  -18.80    9.20
   4   1 -11   65.59   12.30
  -4  -1  11   66.69   16.70
  -4  -1  11   65.99   14.90
   3   1 -11  250.67   19.50
  -3  -1  11  236.18   23.30
  -3  -1  11  280.57   25.90
  -3  -1  11  241.38   20.50
   2   1 -11    9.90    6.90
   2   1 -11   26.30   10.10
   2   1 -11   22.40    4.80
  -2  -1  11   23.70    9.20
  -2  -1  11   24.10    9.80
   1   1 -11 1193.18   42.40
   1   1 -11 1210.58   50.09
   1   1 -11 1170.38   49.30
  -1  -1  11 1127.49   48.40
  -1  -1  11 1188.78   51.09
   0   1 -11  818.72   39.90
   0   1 -11  872.91   36.90
   0   1 -11  867.21   37.10
   0  -1  11  898.21   36.90
   0  -1  11  839.62   41.90
   0  -1  11  840.62   33.20
  -1   1 -11   20.20    7.70
  -1   1 -11   21.60    8.50
  -1   1 -11   17.80    5.70
   1  -1  11   17.10    5.30
   1  -1  11   22.60    6.00
  -2   1 -11  453.75   21.40
  -2   1 -11  427.06   27.50
   2  -1  11  408.66   16.10
   2  -1  11  435.36   22.60
  -3   1 -11  356.26   19.60
  -3   1 -11  325.47   36.60
   3  -1  11  352.26   22.70
  -4   1 -11   46.40    9.80
  -4   1 -11   27.60   11.00
   4  -1  11    6.10   13.50
  -5   1 -11   57.09   15.70
  -5   1 -11   56.19   12.80
   5   0 -11   90.59   11.80
  -5   0  11   68.99   18.70
  -5   0  11  129.69   24.30
   4   0 -11  400.56   23.60
  -4   0  11  433.76   35.50
  -4   0  11  411.26   32.30
  -4   0  11  437.56   18.90
   3   0 -11  565.74   23.80
   3   0 -11  539.45   28.90
  -3   0  11  590.44   38.20
  -3   0  11  560.14   24.40
  -3   0  11  578.94   36.10
   2   0 -11    2.50    5.90
   2   0 -11    5.90    7.60
   2   0 -11    0.30    3.20
  -2   0  11    5.80    4.60
  -2   0  11   13.00    7.90
  -2   0  11    4.00    6.50
   1   0 -11  423.96   26.10
   1   0 -11  462.95   22.30
   1   0 -11  418.26   26.90
  -1   0  11  443.16   26.70
   0   0 -11   37.50    8.20
   0   0 -11   51.29   10.30
   0   0 -11   60.99   12.50
   0   0  11   40.80    6.90
   0   0  11   35.60    8.30
  -1   0 -11 2166.28   79.49
  -1   0 -11 2229.78   77.79
  -1   0 -11 2207.98   70.89
   1   0  11 2135.59   67.39
   1   0  11 2200.68   69.89
  -2   0 -11   11.40    4.00
  -2   0 -11   15.30    4.00
  -2   0 -11   20.50    9.60
  -2   0 -11    9.60    7.00
   2   0  11   10.70    5.60
  -3   0 -11   28.80    6.60
  -3   0 -11   23.60   11.20
  -3   0 -11   38.70   12.40
   3   0  11   25.30    8.30
  -4   0 -11   81.49   11.40
  -4   0 -11   56.69   15.70
  -4   0 -11   79.59   14.30
   4   0  11   81.99   14.00
  -5   0 -11   52.59   10.70
  -5   0 -11   19.60   14.20
   5   0  11   40.60   15.50
  -5   1  11   30.10   14.00
  -5   1  11    8.90   11.10
   4  -1 -11  290.57   19.00
  -4   1  11  316.47   29.10
  -4   1  11  349.27   31.00
  -4   1  11  294.37   18.00
   3  -1 -11 1731.93   63.09
   3  -1 -11 1788.22   60.19
  -3   1  11 1746.43   59.99
  -3   1  11 1761.52   75.29
  -3   1  11 1780.62   73.39
   2  -1 -11  523.35   28.20
   2  -1 -11  507.75   32.30
   2  -1 -11  542.05   24.60
  -2   1  11  539.05   32.40
  -2   1  11  540.35   32.60
  -2   1  11  527.45   25.80
   1  -1 -11  322.87   18.50
   1  -1 -11  317.47   22.20
   1  -1 -11  324.37   23.00
  -1   1  11  351.86   20.60
  -1   1  11  332.27   21.90
  -1   1  11  318.87   22.70
   0  -1 -11 1012.70   40.60
   0  -1 -11 1023.90   41.60
   0  -1 -11  967.20   44.40
   0   1  11  976.10   40.70
   0   1  11  926.21   41.20
  -1  -1 -11  106.29   16.50
  -1  -1 -11  106.69   10.90
  -1  -1 -11  100.59   14.90
   1   1  11   97.09    7.70
  -2  -1 -11   31.40    9.60
  -2  -1 -11   43.60    6.90
  -2  -1 -11   47.60   11.80
   2   1  11   32.60    6.20
  -3  -1 -11  220.68   12.30
  -3  -1 -11  209.28    9.00
  -3  -1 -11  195.78   20.70
  -3  -1 -11  222.98   21.40
   3   1  11  190.28   14.40
  -4  -1 -11    4.40    9.60
  -4  -1 -11   24.70   10.40
  -4  -1 -11   25.10    6.20
   4   1  11   -4.30    7.80
  -5  -1 -11   58.89   16.90
  -5  -1 -11   54.79   10.50
  -5   2  11    2.70   12.90
  -5   2  11  -17.10   10.60
   4  -2 -11   41.00   12.00
  -4   2  11   36.90   13.50
  -4   2  11   33.90   15.30
  -4   2  11   29.70    9.50
   3  -2 -11   32.90    8.90
   3  -2 -11   47.10    9.60
  -3   2  11   41.60   12.70
  -3   2  11   20.10   10.20
  -3   2  11   51.49    9.60
   2  -2 -11   41.20   10.40
   2  -2 -11   27.40    6.50
   2  -2 -11    9.90    8.90
  -2   2  11   43.90   12.20
  -2   2  11   18.20    6.70
  -2   2  11   31.50   11.40
   1  -2 -11   27.90    9.10
   1  -2 -11   16.30    8.10
   1  -2 -11   21.10    6.30
  -1   2  11   23.70    9.60
  -1   2  11    9.60    6.50
  -1   2  11   10.10    6.30
   0  -2 -11    9.10    5.80
   0  -2 -11   17.30    7.60
   0  -2 -11    9.90    6.20
   0   2  11   12.40    6.60
   0   2  11   12.50    5.00
   0   2  11   12.30    6.80
  -1  -2 -11    8.70    8.40
  -1  -2 -11    0.30    4.90
  -1  -2 -11   -4.40    4.10
   1   2  11    8.60    2.90
   1   2  11    1.00    5.20
  -2  -2 -11  169.88   13.10
  -2  -2 -11  215.18   23.10
  -2  -2 -11  197.48   18.30
   2   2  11  195.88    9.30
  -3  -2 -11   37.10    6.30
  -3  -2 -11   28.90   11.00
  -3  -2 -11   34.60    5.10
  -3  -2 -11   45.60   12.90
   3   2  11   37.10    6.60
  -4  -2 -11    4.90    2.10
  -4  -2 -11   -7.40    8.60
  -4  -2 -11   -0.30    3.80
  -5  -2 -11    9.10    9.60
  -5  -2 -11    7.70    5.40
   4  -3 -11  631.74   25.60
   4  -3 -11  727.03   36.30
  -4   3  11  620.94   41.10
  -4   3  11  616.34   32.70
  -4   3  11  583.04   42.30
   3  -3 -11  486.05   26.00
   3  -3 -11  497.05   28.10
  -3   3  11  502.15   35.40
  -3   3  11  473.15   27.20
  -3   3  11  525.05   36.30
   2  -3 -11   15.80    7.60
   2  -3 -11   16.50    6.80
  -2   3  11   22.30    7.50
  -2   3  11   13.50    8.90
   1  -3 -11  314.37   24.60
   1  -3 -11  358.96   24.50
   1  -3 -11  338.47   21.20
  -1   3  11  341.27   22.40
  -1   3  11  355.96   25.20
  -1   3  11  378.26   23.50
   0  -3 -11  143.79   14.30
   0  -3 -11  172.28   18.70
   0  -3 -11  159.78   16.10
   0   3  11  157.68   12.50
   0   3  11  170.88   16.70
   0   3  11  183.58   16.70
  -1  -3 -11  535.25   29.20
  -1  -3 -11  500.15   26.60
   1   3  11  471.05   30.10
   1   3  11  536.65   28.10
   1   3  11  536.65   17.10
   1   3  11  508.25   17.90
  -2  -3 -11    5.70    7.10
  -2  -3 -11    2.80    5.30
  -4  -3 -11  135.99   11.40
  -4  -3 -11  149.69    8.70
  -4  -3 -11  147.69   11.70
  -4  -3 -11   97.59   17.60
  -5  -3 -11   45.30   15.40
  -5  -3 -11   48.90    6.00
  -5  -3 -11   58.79    8.40
   4  -4 -11   32.60   11.30
   4  -4 -11  -10.00    6.40
  -4   4  11  -17.60   10.90
  -4   4  11   14.40   14.20
   3  -4 -11   88.49   12.70
   3  -4 -11   87.19   14.60
  -3   4  11   79.89   17.50
  -3   4  11   82.39   18.10
  -3   4  11   71.99   13.60
   2  -4 -11  231.08   20.50
   2  -4 -11  256.87   19.60
  -2   4  11  230.68   24.20
  -2   4  11  259.97   20.20
  -2   4  11  277.47   23.60
   1  -4 -11   15.50    8.30
   1  -4 -11    7.40    7.80
   1  -4 -11   14.40    5.90
  -1   4  11    7.40    8.10
  -1   4  11   15.10    7.20
  -1   4  11   24.40    8.10
   0  -4 -11    3.20    5.80
   0  -4 -11    4.90    6.60
   0   4  11   -1.30    5.80
   0   4  11    2.90    4.70
   0   4  11    4.90    7.20
  -1  -4 -11  573.74   30.10
  -1  -4 -11  559.44   30.70
   1   4  11  582.64   31.00
   1   4  11  519.45   32.30
  -2  -4 -11   70.69   13.30
  -2  -4 -11   73.79   11.30
   2   4  11   78.29   15.00
  -3  -4 -11  -12.90    4.70
  -3  -4 -11    4.10    7.30
  -4  -4 -11  417.66   31.10
  -4  -4 -11  467.65   24.10
  -5  -4 -11    1.40    3.40
  -5  -4 -11   10.00    8.70
  -5  -4 -11   16.80   10.20
  -5  -4 -11   -0.90    8.40
  -5  -4 -11   -2.60    6.80
   4  -5 -11   52.59   14.00
  -4   5  11   48.40   14.80
   3  -5 -11   -9.70    6.30
   3  -5 -11    4.20    8.30
   3  -5 -11    4.10    8.70
  -3   5  11   -8.20   10.90
  -3   5  11   20.00   10.80
   2  -5 -11   37.30   10.80
   2  -5 -11   37.60   10.10
  -2   5  11   11.50   10.00
  -2   5  11    1.80   10.50
   1  -5 -11  281.77   22.10
  -1   5  11  303.37   21.60
  -1   5  11  332.57   23.90
  -1   5  11  365.46   31.20
   0  -5 -11   49.20   11.00
   0  -5 -11   54.39   11.90
   0   5  11   59.49   12.10
   0   5  11   74.99    9.10
   0   5  11   66.89   15.30
  -1  -5 -11   29.20    9.00
  -1  -5 -11   14.10    6.70
   1   5  11   26.40   10.80
  -2  -5 -11  387.96   29.80
  -2  -5 -11  385.26   24.70
  -3  -5 -11  153.38   16.20
  -3  -5 -11  151.38   17.40
  -4  -5 -11  271.77   21.20
  -4  -5 -11  309.67   26.20
  -5  -5 -11   31.90   13.60
  -5  -5 -11   45.00   11.70
  -5  -5 -11   46.20   13.30
  -5  -5 -11   58.19   11.20
   3  -6 -11  164.78   19.10
   3  -6 -11  108.09   14.80
   3  -6 -11  154.68   22.90
  -3   6  11   98.69   18.90
  -3   6  11   89.39   20.30
   2  -6 -11   73.49   14.60
   2  -6 -11   80.29   14.50
   2  -6 -11   97.29   15.50
  -2   6  11   51.69   14.40
  -2   6  11   58.39   16.80
   1  -6 -11    0.90    6.30
  -1   6  11   14.60    8.60
  -1   6  11   -3.50    9.60
   0  -6 -11   18.20    9.70
   0   6  11   20.10    6.20
  -1  -6 -11   49.60   12.10
  -1  -6 -11   35.50   11.30
  -2  -6 -11    3.50    6.50
  -2  -6 -11   12.90    9.00
  -3  -6 -11  278.87   24.30
  -3  -6 -11  324.47   23.60
  -4  -6 -11  382.46   31.90
  -4  -6 -11  360.26   28.30
  -4  -6 -11  350.56   25.70
  -5  -6 -11   57.79   15.80
  -5  -6 -11   49.00   12.20
  -5  -6 -11   38.00   12.00
  -5  -6 -11   59.89   17.00
   3  -7 -11  226.58   24.30
   3  -7 -11  187.08   19.60
   3  -7 -11  171.88   23.10
  -3   7  11  227.78   27.80
  -3   7  11  191.28   23.70
   2  -7 -11   82.09   16.30
   2  -7 -11   45.50   13.10
  -2   7  11   73.19   15.60
  -2   7  11   73.59   20.40
   1  -7 -11    0.00    8.60
   1  -7 -11   17.30    7.20
  -1   7  11    3.20   11.80
  -1   7  11   -5.10    7.30
   0  -7 -11  910.91   48.70
   0  -7 -11  925.11   45.90
   0   7  11  911.61   35.60
  -1  -7 -11    4.80    5.80
  -1  -7 -11    7.80    8.90
   1   7  11    5.10    3.60
  -2  -7 -11  286.77   28.50
  -2  -7 -11  308.97   24.40
  -3  -7 -11  132.69   22.50
  -3  -7 -11  125.49   20.10
  -4  -7 -11   38.00   12.00
  -4  -7 -11   56.39   16.20
  -5  -7 -11   70.29   20.60
  -5  -7 -11   35.30   12.30
  -5  -7 -11   32.90   19.00
   2  -8 -11   13.60   10.60
   2  -8 -11  -15.40    8.90
  -2   8  11   -8.20    9.60
  -2   8  11    9.20   23.60
   1  -8 -11  902.21   48.20
   1  -8 -11  841.02   46.80
  -1   8  11  962.80   42.90
  -1   8  11  856.21   50.29
   0  -8 -11  393.66   32.00
   0  -8 -11  383.16   29.00
   0   8  11  379.46   20.90
  -1  -8 -11  253.17   27.20
  -1  -8 -11  248.38   22.90
   1   8  11  275.97   16.70
  -2  -8 -11 1309.77   59.09
  -2  -8 -11 1296.97   65.39
  -3  -8 -11  568.74   41.50
  -3  -8 -11  613.74   37.60
  -4  -8 -11    2.70    8.90
   2  -9 -11  132.49   20.80
   2  -9 -11  135.39   22.40
  -2   9  11   84.19   17.40
   1  -9 -11  149.19   22.80
   1  -9 -11  138.89   21.20
  -1   9  11  152.58   18.50
   0  -9 -11   77.69   15.70
   0  -9 -11   97.99   20.40
   0   9  11   84.29   11.40
  -1  -9 -11  170.08   20.00
  -1  -9 -11  107.09   21.50
   1   9  11  160.08   10.00
  -2  -9 -11   22.30   13.50
  -2  -9 -11   58.29   13.60
  -3  -9 -11  220.68   22.20
  -4  -9 -11  408.76   36.70
   1 -10 -11    6.40    9.50
   1 -10 -11   -7.10   10.70
  -1  10  11  -16.60    9.20
   0 -10 -11   66.29   13.80
   0 -10 -11   77.19   18.60
   0 -10 -11   85.09   18.20
   0  10  11   79.29   11.80
  -1 -10 -11    0.20   11.40
  -1 -10 -11  -11.20    7.20
  -2 -10 -11   -1.30    7.90
  -2 -10 -11    1.40   11.10
  -3 -10 -11   19.10    9.90
  -3 -10 -11    0.90   14.90
  -1 -11 -11  101.99   21.70
  -1 -11 -11   67.19   16.70
  -2 -11 -11   34.40   19.50
  -2 -11 -11   42.80   13.30
  -2 -10  12   70.79   17.60
  -2 -10  12   72.09   19.30
  -1 -10  12   43.10   17.60
  -1 -10  12   63.79   16.40
   0 -10  12   45.50   16.50
   0 -10  12   69.49   17.20
  -1  10 -12   88.89   16.20
   1 -10  12   77.89   20.20
   1 -10  12   60.39   15.40
  -3  -9  12   22.70   13.50
  -3  -9  12   14.40   11.60
   2   9 -12  129.49   14.00
  -2  -9  12  169.68   26.30
   1   9 -12   74.19   13.30
  -1  -9  12  106.49   21.00
  -1  -9  12   79.79   19.10
   0  -9  12   25.50   12.00
   0  -9  12   10.30   10.90
   1  -9  12  206.38   25.10
   1  -9  12  141.99   24.80
  -2   9 -12   25.90   12.20
   2  -9  12    8.90   10.50
   2  -9  12   -9.70    9.30
  -3  -8  12   34.00   14.00
   2   8 -12  -12.30    4.70
  -2  -8  12    5.70   10.00
   1   8 -12  353.16   23.40
  -1  -8  12  365.46   30.00
  -1  -8  12  339.97   30.60
   0  -8  12  107.69   21.10
  -1   8 -12    6.10    8.10
   1  -8  12    6.20    8.70
   1  -8  12    0.10    9.90
  -2   8 -12   79.69   16.70
   2  -8  12   77.99   12.50
   2  -8  12   74.49   18.60
  -3   8 -12  -13.40    6.60
   3  -8  12    1.30   11.60
  -4  -7  12  -18.50    7.90
  -4  -7  12  -14.60    8.70
  -3  -7  12   94.19   18.40
  -3  -7  12  124.49   21.30
   2   7 -12  876.31   31.80
  -2  -7  12  780.52   47.10
  -2  -7  12  861.81   48.80
   1   7 -12  291.97   20.00
  -1  -7  12  304.37   27.40
  -1  -7  12  284.77   25.10
   0   7 -12    4.50    8.30
   0  -7  12   15.90    9.00
   0  -7  12   29.80   12.60
  -1   7 -12   41.50   11.90
   1  -7  12   35.80   12.50
   1  -7  12   49.20   11.50
  -2   7 -12  150.38   17.50
   2  -7  12  156.98   14.40
   2  -7  12  122.19   20.60
   2  -7  12  155.48   15.50
  -3   7 -12  254.77   23.30
   3  -7  12  243.38   27.20
  -4  -6  12    8.30    9.40
  -4  -6  12   38.60   13.50
  -3  -6  12  209.88   23.80
  -3  -6  12  255.47   25.50
   2   6 -12  183.98   11.00
   2   6 -12  165.28   11.30
  -2  -6  12  176.18   20.60
  -2  -6  12  181.38   25.60
   1   6 -12  190.68   15.90
  -1  -6  12  224.68   21.00
  -1  -6  12  197.08   22.20
   0   6 -12   82.19   13.40
   0  -6  12   91.99   15.70
   0  -6  12   84.59   16.90
  -1   6 -12  531.75   30.80
   1  -6  12  525.25   28.20
   1  -6  12  483.65   34.60
  -2   6 -12   67.69   14.20
   2  -6  12   68.29    9.80
   2  -6  12   78.79   17.50
  -3   6 -12   14.00    8.80
   3  -6  12   23.80   13.20
  -4  -5  12  120.79   22.00
  -4  -5  12  130.39   21.80
  -3  -5  12  108.69   19.40
  -3  -5  12  102.29   18.80
   2   5 -12  104.99    7.60
   2   5 -12   92.99    9.70
  -2  -5  12   89.69   16.90
  -2  -5  12  107.09   18.80
   1   5 -12  114.39   12.50
  -1  -5  12  113.89   20.90
  -1  -5  12  133.59   19.20
   0   5 -12   89.49   13.90
   0  -5  12   92.19   14.70
   0  -5  12   99.99   15.20
  -1   5 -12  421.56   26.00
  -1   5 -12  410.36   27.50
   1  -5  12  383.96   22.90
   1  -5  12  371.66   25.70
  -2   5 -12    2.00    7.20
   2  -5  12    9.00   10.00
   2  -5  12    9.00    4.40
  -3   5 -12   38.90   10.60
  -4   5 -12   14.50    9.10
  -5  -4  12  109.39   19.60
  -5  -4  12   89.99   27.30
  -4  -4  12   88.29   17.70
  -4  -4  12   56.59   14.20
  -3  -4  12   54.29   15.70
   2   4 -12  685.03   24.30
   2   4 -12  682.43   38.70
  -2  -4  12  682.73   39.70
   1   4 -12    8.90    7.90
   1   4 -12  -10.30    3.50
  -1  -4  12   -7.90    6.30
  -1  -4  12    4.20    5.60
  -1  -4  12    1.70    7.00
   0   4 -12  208.48   20.40
   0  -4  12  227.78   18.30
   0  -4  12  222.28   17.60
   0  -4  12  232.08   22.20
  -1   4 -12   89.79   17.20
  -1   4 -12   84.99   12.80
   1  -4  12   66.49   10.60
   1  -4  12   75.89   16.30
   1  -4  12   83.69   13.70
  -2   4 -12  572.44   36.70
  -2   4 -12  695.73   33.60
   2  -4  12  646.84   35.30
   2  -4  12  658.43   39.40
   2  -4  12  664.43   28.30
  -3   4 -12   24.40    8.30
  -4   4 -12   71.99   13.90
  -5  -3  12   -2.40   10.10
  -5  -3  12    6.60   13.70
  -5  -3  12  -10.10    9.30
   4   3 -12  -10.60    8.90
  -4  -3  12    8.50   11.60
  -4  -3  12  -10.80    9.10
  -4  -3  12   16.90   10.30
   3   3 -12   -2.70    7.30
  -3  -3  12   10.50    9.50
  -3  -3  12   14.30    9.30
   2   3 -12  155.58   24.50
   2   3 -12  120.79    8.30
   2   3 -12  107.49   16.20
  -2  -3  12  172.28   19.30
  -2  -3  12   92.69   16.30
   1   3 -12  522.55   31.20
   1   3 -12  552.14   32.30
  -1  -3  12  508.65   33.10
  -1  -3  12  528.75   31.10
   0   3 -12  167.38   15.90
   0   3 -12  154.98   15.10
   0   3 -12  139.99   16.80
   0  -3  12  123.19   19.60
   0  -3  12  171.08   14.60
   0  -3  12  184.08   15.60
  -1   3 -12    5.60    7.10
   1  -3  12   -2.50    3.80
   1  -3  12   -0.20    7.60
   1  -3  12    6.80    5.00
  -2   3 -12  375.66   27.70
  -2   3 -12  459.45   24.60
   2  -3  12  374.76   25.00
   2  -3  12  402.46   30.20
  -3   3 -12  109.89   16.80
  -3   3 -12  126.49   14.30
   3  -3  12  147.69   18.50
  -4   3 -12    2.60    8.00
  -5   3 -12  159.78   19.00
  -5  -2  12   23.90   13.90
  -5  -2  12   66.79   19.10
  -4  -2  12  125.99   22.80
  -4  -2  12  140.09   19.00
  -4  -2  12  114.99   20.90
  -3  -2  12   14.40    9.20
  -3  -2  12   14.50    8.90
   2   2 -12 1944.81   76.69
   2   2 -12 1880.51   58.09
   2   2 -12 1781.02   78.69
  -2  -2  12 1983.40   75.29
  -2  -2  12 1878.01   74.69
   1   2 -12    1.70    6.90
   1   2 -12   -2.60    6.50
  -1  -2  12   -7.40    4.70
  -1  -2  12    6.60    8.50
  -1  -2  12    0.10    4.50
   0   2 -12    1.40    5.30
   0   2 -12    1.10   10.30
   0   2 -12   -1.40    5.00
   0  -2  12    1.10    7.30
   0  -2  12    0.70    4.30
   0  -2  12    2.80    5.20
  -1   2 -12  434.66   22.50
  -1   2 -12  413.16   30.90
  -1   2 -12  454.85   28.50
   1  -2  12  444.06   30.30
   1  -2  12  431.56   21.70
   1  -2  12  413.66   22.20
  -2   2 -12   31.80    9.70
  -2   2 -12   34.30    8.50
   2  -2  12   21.00    8.40
   2  -2  12   41.20    7.40
  -3   2 -12   15.90    9.70
  -3   2 -12   33.80    8.00
   3  -2  12   13.90    9.00
   4  -2  12   19.50   14.00
  -5   2 -12  513.85   31.30
  -5  -1  12   34.80   15.10
  -5  -1  12   -4.50   12.80
   4   1 -12    5.20    9.20
  -4  -1  12  -11.50    8.40
  -4  -1  12  -17.20    7.30
   3   1 -12  233.08   19.80
  -3  -1  12  240.08   24.60
  -3  -1  12  236.98   25.80
   2   1 -12   -4.50    5.30
   2   1 -12   -2.90    6.70
   2   1 -12    2.20    3.20
  -2  -1  12    5.80    6.60
  -2  -1  12    4.20    7.50
   1   1 -12  646.64   28.20
   1   1 -12  694.73   35.70
   1   1 -12  655.23   34.40
  -1  -1  12  611.74   33.30
  -1  -1  12  605.54   35.40
   0   1 -12  522.65   31.30
   0   1 -12  572.84   28.60
   0   1 -12  528.55   28.20
   0  -1  12  583.94   34.00
   0  -1  12  496.05   24.10
   0  -1  12  499.45   27.00
  -1   1 -12 1150.98   56.39
  -1   1 -12 1049.89   45.60
  -1   1 -12 1090.59   48.50
   1  -1  12 1180.88   41.60
   1  -1  12 1087.89   40.60
  -2   1 -12 1122.89   41.90
  -2   1 -12 1150.78   37.40
  -2   1 -12 1159.48   53.69
  -2   1 -12 1180.08   52.89
   2  -1  12 1175.78   44.60
  -3   1 -12  408.96   21.80
  -3   1 -12  418.46   31.30
  -3   1 -12  369.36   28.20
   3  -1  12  379.86   24.90
  -4   1 -12    5.80    9.00
  -4   1 -12   -2.80    5.40
   4  -1  12  -31.90   18.00
  -5   1 -12    7.90    7.20
  -5   0  12  -14.60   11.90
  -5   0  12   32.20   14.30
   4   0 -12    6.30    8.20
  -4   0  12   -4.20    7.90
  -4   0  12    4.00    9.50
   3   0 -12    5.10    7.10
   3   0 -12   -1.80    3.90
  -3   0  12   -3.80    8.50
  -3   0  12   11.20    5.30
  -3   0  12   -5.20    7.50
   2   0 -12   29.60    9.20
   2   0 -12   26.10    9.70
  -2   0  12   34.20   11.80
  -2   0  12   34.70   11.30
   1   0 -12   28.90    9.10
   1   0 -12   51.69   12.40
   1   0 -12   41.70    8.30
  -1   0  12   41.60   10.90
   0   0 -12  356.26   25.40
   0   0 -12  378.26   23.30
   0   0 -12  369.76   22.40
   0   0  12  357.76   18.60
   0   0  12  389.46   23.20
  -1   0 -12  285.57   21.60
  -1   0 -12  261.77   17.20
  -1   0 -12  277.47   22.10
  -2   0 -12   39.40   11.50
  -2   0 -12   57.49    7.40
  -2   0 -12   64.59   14.60
   2   0  12   54.79    7.60
  -3   0 -12  262.47   15.10
  -3   0 -12  235.48   24.50
  -3   0 -12  213.88   21.10
   3   0  12  216.38   17.40
  -4   0 -12  134.89   23.10
  -4   0 -12  122.79   11.80
   4   0  12   80.89   14.70
  -5   0 -12   12.10    7.20
  -5   0 -12  -15.90   10.80
   5   0  12  -11.50   13.60
   4  -1 -12  124.39   14.60
  -4   1  12  122.39   21.70
  -4   1  12  102.99   19.70
  -4   1  12   93.89   12.40
   3  -1 -12   24.20    8.90
   3  -1 -12   25.10    6.60
  -3   1  12   16.60   11.20
  -3   1  12   16.50    7.20
  -3   1  12    6.40   10.00
   2  -1 -12  280.77   17.10
   2  -1 -12  242.68   20.60
  -2   1  12  270.37   24.10
  -2   1  12  306.97   25.00
  -2   1  12  267.37   18.30
   1  -1 -12   -3.60    6.70
   1  -1 -12   11.80    5.10
   1  -1 -12    1.40    7.20
  -1   1  12    0.00    4.90
  -1   1  12    5.70    6.40
  -1   1  12    0.50    6.20
   0  -1 -12  289.17   20.80
   0  -1 -12  277.87   19.20
   0  -1 -12  291.87   23.10
   0   1  12  278.07   19.90
  -1  -1 -12  554.54   34.60
  -1  -1 -12  665.63   33.70
  -1  -1 -12  616.54   28.70
   1   1  12  633.94   23.90
   1   1  12  613.34   28.40
  -2  -1 -12    4.30    4.20
  -2  -1 -12    6.50    6.80
  -2  -1 -12    9.70    8.30
   2   1  12    1.00    3.90
  -3  -1 -12   71.59   16.40
  -3  -1 -12   59.89    7.20
  -3  -1 -12   63.49   14.80
  -3  -1 -12   58.29    5.00
   3   1  12   77.99   10.50
  -4  -1 -12   84.69    9.60
  -4  -1 -12   70.19   16.00
   4   1  12   94.99   14.30
  -5  -1 -12   96.89   20.60
  -5  -1 -12  132.39   13.60
   4  -2 -12    2.50    8.40
   4  -2 -12   -0.80    6.80
  -4   2  12   13.50   10.80
  -4   2  12   -0.90    7.80
  -4   2  12   -5.60    8.50
   3  -2 -12  412.56   24.80
   3  -2 -12  440.36   24.20
  -3   2  12  408.26   32.00
  -3   2  12  402.76   24.00
  -3   2  12  358.36   29.80
   2  -2 -12 1002.50   40.90
   2  -2 -12 1002.80   45.00
  -2   2  12 1045.60   49.30
  -2   2  12 1064.09   51.59
  -2   2  12  984.10   42.50
   1  -2 -12  144.79   16.40
   1  -2 -12  128.79   15.80
   1  -2 -12  132.89   13.00
  -1   2  12  122.59   13.70
  -1   2  12  133.99   14.80
  -1   2  12  144.29   16.30
   0  -2 -12   60.89   13.00
   0  -2 -12   62.89   11.60
   0  -2 -12   71.39   11.80
   0   2  12   61.59   12.20
   0   2  12   61.69   12.10
   0   2  12   60.29    9.70
  -1  -2 -12  556.34   30.60
  -1  -2 -12  533.65   27.50
   1   2  12  547.95   27.80
   1   2  12  566.64   20.60
  -2  -2 -12  348.77   25.50
  -2  -2 -12  330.57   19.20
  -2  -2 -12  412.16   29.40
   2   2  12  355.26   14.30
  -3  -2 -12   26.40    5.70
  -3  -2 -12   28.90   11.70
  -3  -2 -12   24.10   11.50
   3   2  12   26.90    5.80
  -4  -2 -12  210.18   23.20
  -4  -2 -12  218.38   12.30
  -5  -2 -12   -0.80    5.10
   4  -3 -12   25.50    9.70
  -4   3  12   31.30   15.50
  -4   3  12   12.40    8.90
  -4   3  12   22.60   18.20
   3  -3 -12   38.90    9.60
   3  -3 -12   29.20    9.40
  -3   3  12   49.90   15.20
  -3   3  12   23.80   11.80
  -3   3  12   45.40   12.30
   2  -3 -12  200.18   18.00
   2  -3 -12  155.98   15.30
  -2   3  12  181.18   20.00
  -2   3  12  180.48   20.70
  -2   3  12  170.98   16.10
   1  -3 -12  103.69   13.90
   1  -3 -12  107.99   16.80
   1  -3 -12  103.89   17.20
  -1   3  12   92.09   15.00
  -1   3  12  113.79   15.90
  -1   3  12  102.69   17.40
   0  -3 -12  644.04   36.80
   0  -3 -12  605.64   32.80
   0  -3 -12  581.04   30.80
   0   3  12  636.24   27.90
   0   3  12  611.64   33.40
   0   3  12  621.04   33.00
  -1  -3 -12 1908.21   67.29
  -1  -3 -12 1748.13   73.29
  -1  -3 -12 1916.81   69.99
   1   3  12 1776.92   55.19
   1   3  12 1884.51   73.49
   1   3  12 1877.81   53.99
   1   3  12 1947.61   68.09
  -2  -3 -12  229.48   16.80
  -2  -3 -12  204.78   19.80
  -3  -3 -12  275.67   24.20
  -3  -3 -12  292.77   17.60
  -4  -3 -12  321.97   28.50
  -4  -3 -12  311.67   16.30
  -4  -3 -12  297.37   16.50
  -5  -3 -12    6.80    9.20
   4  -4 -12  530.15   30.40
   4  -4 -12  527.85   33.80
   4  -4 -12  536.45   25.40
  -4   4  12  435.06   38.10
   3  -4 -12  298.37   22.50
   3  -4 -12  247.68   20.40
  -3   4  12  224.18   26.80
  -3   4  12  239.48   26.50
  -3   4  12  248.08   21.90
   2  -4 -12  268.87   22.90
   2  -4 -12  274.97   21.00
  -2   4  12  294.77   22.70
  -2   4  12  236.38   24.20
  -2   4  12  262.37   23.80
   1  -4 -12  129.79   14.30
   1  -4 -12  115.49   17.70
  -1   4  12   98.99   26.60
  -1   4  12  121.39   17.00
  -1   4  12  115.89   15.80
   0  -4 -12   12.70    7.70
   0  -4 -12    0.00    6.00
   0   4  12    5.10    7.10
   0   4  12   13.00    8.20
   0   4  12    8.30    4.80
  -1  -4 -12   18.30    8.80
  -1  -4 -12   14.80    7.90
   1   4  12   16.00    9.20
   1   4  12   -2.00    7.20
  -2  -4 -12 1009.00   42.50
  -2  -4 -12  980.50   62.29
  -3  -4 -12   -3.60    5.60
  -4  -4 -12   74.59   16.80
  -4  -4 -12   52.29   10.70
  -5  -4 -12  113.99   20.10
  -5  -4 -12  112.29   20.70
   4  -5 -12   50.49   15.50
   4  -5 -12   28.30   12.40
  -4   5  12   53.09   18.80
  -4   5  12   65.29   17.00
   3  -5 -12    6.20    7.40
   3  -5 -12   -6.90   10.00
   3  -5 -12   28.80   10.30
  -3   5  12   16.50   11.30
  -3   5  12   16.50   11.00
   2  -5 -12    8.40    7.10
   2  -5 -12   -3.90    9.90
  -2   5  12   12.00   10.30
  -2   5  12   -4.70    8.80
   1  -5 -12  338.87   27.60
   1  -5 -12  406.36   26.70
  -1   5  12  416.56   25.70
  -1   5  12  379.56   29.90
   0  -5 -12    7.60    6.30
   0   5  12    5.30    8.80
   0   5  12    4.10    4.60
   0   5  12    7.60    8.50
  -1  -5 -12 1300.77   72.19
  -1  -5 -12 1290.57   54.39
   1   5  12 1256.67   54.89
  -2  -5 -12    7.60    7.70
  -2  -5 -12   17.40    9.00
  -3  -5 -12  -17.30    6.20
  -3  -5 -12   10.70    8.20
  -4  -5 -12   63.59   11.90
  -4  -5 -12   71.39   16.60
  -5  -5 -12    2.40   13.50
  -5  -5 -12   12.70   12.20
  -5  -5 -12    8.40    7.50
   3  -6 -12   -7.10   12.00
   3  -6 -12   14.70    9.80
   3  -6 -12   15.20   10.10
  -3   6  12   -0.50   12.10
   2  -6 -12   49.70   12.70
   2  -6 -12   39.00   13.20
   2  -6 -12   18.10    9.00
  -2   6  12   12.00   12.80
  -2   6  12    8.70   12.60
   1  -6 -12   34.90   10.30
  -1   6  12   30.90   10.50
  -1   6  12   14.00   12.10
   0  -6 -12  320.87   24.30
   0   6  12  319.27   24.40
   0   6  12  335.57   27.70
  -1  -6 -12  349.17   26.10
  -2  -6 -12  628.94   35.50
  -2  -6 -12  539.65   32.20
  -3  -6 -12  329.67   24.40
  -3  -6 -12  362.96   28.10
  -4  -6 -12  223.58   22.80
  -4  -6 -12  212.78   20.60
  -4  -6 -12  246.58   27.40
  -5  -6 -12  131.89   18.80
  -5  -6 -12  132.79   34.90
  -5  -6 -12  118.39   19.90
   3  -7 -12  373.16   26.30
  -3   7  12  330.77   32.10
  -3   7  12  342.67   34.90
   2  -7 -12  234.08   23.00
   2  -7 -12  244.28   26.90
   2  -7 -12  244.28   23.70
  -2   7  12  261.57   24.60
  -2   7  12  220.68   25.60
   1  -7 -12   70.29   15.20
   1  -7 -12  102.49   18.50
  -1   7  12   36.30   14.70
  -1   7  12   45.80   12.10
   0  -7 -12  148.39   17.00
   0  -7 -12  135.79   20.80
   0   7  12  114.49   20.30
   0   7  12  122.09   12.00
  -1  -7 -12   18.00    8.30
  -2  -7 -12   37.10   14.30
  -2  -7 -12   32.90   11.10
  -3  -7 -12   38.70   13.80
  -3  -7 -12   42.80   12.40
  -4  -7 -12  144.99   25.30
  -4  -7 -12  203.88   22.00
   2  -8 -12  301.77   27.30
   2  -8 -12  305.97   27.10
  -2   8  12  242.78   28.60
  -2   8  12  262.17   26.10
   1  -8 -12   -9.30   10.00
   1  -8 -12   11.10    8.90
  -1   8  12   -4.20    8.50
  -1   8  12   26.20   14.20
   0  -8 -12  120.49   19.00
   0  -8 -12   61.19   15.30
   0   8  12   57.69    9.30
  -1  -8 -12  102.19   17.20
  -1  -8 -12   80.59   18.30
  -2  -8 -12   51.29   18.10
  -2  -8 -12   80.79   17.00
  -3  -8 -12   24.10   12.70
  -3  -8 -12   64.19   14.40
  -4  -8 -12   14.80   13.80
  -4  -8 -12   47.00   15.30
   1  -9 -12  292.37   27.60
   1  -9 -12  266.57   47.70
  -1   9  12  218.68   27.30
   0  -9 -12   17.50   12.10
   0  -9 -12   52.09   13.30
   0   9  12   59.89   10.20
  -1  -9 -12   -4.80    5.70
  -1  -9 -12   -6.60   10.40
  -2  -9 -12   42.00   11.60
  -2  -9 -12   41.70   16.40
  -3  -9 -12  -24.80    9.60
  -3  -9 -12  -12.70    9.80
   0 -10 -12   12.60   12.30
   0 -10 -12   28.80   12.70
   0  10  12   25.70    9.30
  -1 -10 -12   41.40   12.70
  -2 -10 -12   62.89   17.80
  -2 -10 -12   50.39   14.20
  -3 -10 -12   63.69   15.10
  -1 -10  13  238.78   26.70
  -1 -10  13  251.27   28.90
   0 -10  13   11.20   12.10
   0 -10  13   19.20   13.40
   2   9 -13  202.18   17.60
  -2  -9  13  210.68   31.30
  -2  -9  13  214.98   25.20
   1   9 -13  287.37   25.20
  -1  -9  13  405.66   32.20
  -1  -9  13  470.55   48.20
   0  -9  13   22.60   11.90
  -1   9 -13   71.39   15.40
   1  -9  13   87.29   19.50
  -2   9 -13  126.29   20.70
   2  -9  13  134.99   18.10
   2  -9  13  134.69   39.70
  -3  -8  13    6.40   10.20
   2   8 -13   -7.00    6.30
  -2  -8  13   15.70   11.80
  -2  -8  13   12.40   10.20
   1   8 -13  230.68   22.20
  -1  -8  13  231.98   25.00
  -1  -8  13  241.78   26.90
   0  -8  13  496.55   33.40
   0  -8  13  437.16   35.40
  -1   8 -13  191.88   20.10
   1  -8  13  202.68   23.50
   1  -8  13  169.08   19.30
   2  -8  13   13.40    9.00
   2  -8  13  -11.30   13.50
   2  -8  13   35.20   15.70
  -4  -7  13   15.10   12.70
  -3  -7  13  439.76   34.70
  -3  -7  13  405.46   34.90
   2   7 -13   35.60    7.60
   2   7 -13   62.39    9.50
  -2  -7  13   57.89   15.80
  -2  -7  13   80.89   17.90
   1   7 -13  263.87   19.70
  -1  -7  13  227.48   24.80
  -1  -7  13  303.67   26.40
   0   7 -13 1187.28   52.49
   0  -7  13 1227.48   54.99
   0  -7  13 1192.38   61.69
  -1   7 -13   59.39   12.80
   1  -7  13   56.89   12.30
   1  -7  13   46.80   14.90
  -2   7 -13   34.50   11.20
   2  -7  13   25.10   10.60
   2  -7  13   23.80   10.80
   2  -7  13   18.70    8.10
   3  -7  13   45.20   16.20
  -4  -6  13   45.10   16.10
  -4  -6  13   76.99   17.80
  -3  -6  13   10.60    9.00
  -3  -6  13   24.30   12.00
   2   6 -13  245.08   13.50
   2   6 -13  251.87   14.00
  -2  -6  13  271.67   26.10
  -2  -6  13  238.68   25.10
   1   6 -13  432.96   24.40
  -1  -6  13  464.35   34.30
  -1  -6  13  393.66   35.00
   0   6 -13   21.00    9.50
   0  -6  13    9.70    9.40
   0  -6  13   11.80    9.60
  -1   6 -13  489.25   30.20
   1  -6  13  507.35   37.40
   1  -6  13  548.35   29.20
  -2   6 -13  401.66   27.70
   2  -6  13  411.36   23.50
   2  -6  13  354.56   31.30
  -3   6 -13  121.29   17.80
   3  -6  13  106.59   20.30
  -4  -5  13   13.70   13.10
  -4  -5  13   48.10   13.80
  -3  -5  13  104.39   19.60
  -3  -5  13   72.29   15.60
   2   5 -13   31.50    5.50
   2   5 -13   28.70    5.20
  -2  -5  13   29.70   12.00
  -2  -5  13   48.10   15.30
   1   5 -13  267.57   18.50
   1   5 -13  286.37   19.70
  -1  -5  13  261.67   26.00
  -1  -5  13  282.57   24.10
   0   5 -13  104.79   16.00
   0  -5  13  100.09   18.80
   0  -5  13  130.29   17.50
   1  -5  13   59.19   10.50
   1  -5  13   55.79   15.50
  -2   5 -13   25.90    9.60
   2  -5  13   17.60   11.90
   2  -5  13   15.40    5.10
  -3   5 -13    4.90    7.50
  -4   5 -13    6.10    8.60
  -4  -4  13  103.79   19.60
  -3  -4  13    0.50    8.60
  -3  -4  13    3.00    9.30
   2   4 -13 1014.40   33.80
   2   4 -13  999.10   33.00
  -2  -4  13  947.61   49.20
  -2  -4  13  928.11   49.40
   1   4 -13    1.20    7.50
   1   4 -13    2.60    5.20
  -1  -4  13   16.20   10.50
  -1  -4  13    0.00    6.60
   0  -4  13  520.95   48.20
   0  -4  13  490.15   28.40
   0  -4  13  492.85   27.80
   1  -4  13  996.80   52.59
   1  -4  13 1024.40   44.20
   1  -4  13  981.40   40.10
  -2   4 -13  223.88   18.10
   2  -4  13  150.88   22.90
   2  -4  13  176.08   20.00
   2  -4  13  209.58   11.60
  -3   4 -13    4.10    7.00
  -4   4 -13   20.40    9.20
  -4  -3  13   46.70   16.30
  -4  -3  13   45.30   13.40
  -4  -3  13   24.70   12.90
  -3  -3  13  112.69   23.30
  -3  -3  13   57.29   16.50
   2   3 -13   78.59    6.90
   2   3 -13   89.79   17.30
  -2  -3  13   97.19   17.40
  -2  -3  13  102.49   18.10
   1   3 -13 1359.66   49.30
   1   3 -13 1323.97   57.29
   1   3 -13 1361.16   59.19
  -1  -3  13 1273.27   51.69
  -1  -3  13 1295.77   55.89
  -1  -3  13 1320.17   60.29
   0   3 -13   11.10    6.60
   0   3 -13   16.50    8.90
   0   3 -13   17.90    8.00
   0  -3  13   24.50   10.70
   0  -3  13   17.50    7.00
   0  -3  13   22.80    6.80
  -1   3 -13   35.30   11.30
   1  -3  13   34.40    8.10
   1  -3  13   18.50   11.10
   1  -3  13   39.60    9.70
  -2   3 -13  531.95   27.90
  -3   3 -13    6.50    6.70
   3  -3  13   -2.30   10.30
  -4   3 -13   24.20    9.50
   4   2 -13    4.80   10.60
  -4  -2  13   16.30   10.90
  -4  -2  13   22.30   12.60
   3   2 -13    7.60    9.00
  -3  -2  13   27.30   11.50
  -3  -2  13    3.70    8.40
   2   2 -13    3.10    3.30
   2   2 -13    6.60    7.40
  -2  -2  13    5.20    9.00
  -2  -2  13   18.50   10.10
   1   2 -13   48.40    9.00
   1   2 -13   57.49   13.70
  -1  -2  13   71.69   16.40
  -1  -2  13   49.40   11.60
   0   2 -13  311.47   25.10
   0   2 -13  302.87   22.20
   0   2 -13  345.47   22.30
   0  -2  13  342.57   22.00
   0  -2  13  297.47   19.10
   0  -2  13  331.07   27.50
  -1   2 -13  200.88   20.50
  -1   2 -13  219.98   15.90
  -1   2 -13  239.98   20.90
   1  -2  13  217.58   15.80
   1  -2  13  237.98   17.10
  -2   2 -13   18.80    6.30
  -2   2 -13   16.80   10.60
   2  -2  13   11.30    8.20
  -3   2 -13  190.38   15.60
   3  -2  13  150.08   18.40
  -4   2 -13   62.99   12.40
  -5   2 -13   19.10   10.10
  -4  -1  13  201.58   25.50
  -4  -1  13  185.88   22.90
   3   1 -13  502.05   23.30
   3   1 -13  472.75   30.80
  -3  -1  13  432.76   32.70
  -3  -1  13  467.65   35.90
   2   1 -13   92.39   15.10
   2   1 -13   88.79    8.40
  -2  -1  13   90.69   17.00
  -2  -1  13   78.79   17.70
   1   1 -13  121.29   11.70
   1   1 -13  124.39   17.50
  -1  -1  13   92.09   15.00
  -1  -1  13  128.29   19.70
   0   1 -13   45.20   10.30
   0   1 -13   57.89   10.70
   0   1 -13   51.39   12.30
   0  -1  13   61.59    9.80
   0  -1  13   37.60    9.90
  -1   1 -13   10.60    7.70
  -1   1 -13    1.00    5.10
  -1   1 -13    9.70    7.50
   1  -1  13    0.40    4.70
   1  -1  13    1.20    4.90
  -2   1 -13  104.29   18.60
  -2   1 -13  107.99   18.10
  -2   1 -13   92.59    8.30
   2  -1  13   88.09   12.50
   2  -1  13   86.19    8.30
  -3   1 -13  156.88   13.30
  -3   1 -13  152.28   23.10
   3  -1  13  139.29   17.30
  -4   1 -13  110.39   12.80
  -4   1 -13   88.19   20.80
   4  -1  13   67.59   18.20
  -5   1 -13  317.57   23.30
  -5   1 -13  341.97   35.20
   4   0 -13   -6.90    9.30
  -4   0  13    3.60    9.80
  -4   0  13  -14.40    7.20
   3   0 -13   62.79    8.50
   3   0 -13   75.39   14.60
  -3   0  13   75.79   17.10
  -3   0  13   58.19   16.50
   2   0 -13   44.20   12.60
   2   0 -13   41.80    7.70
  -2   0  13   60.29   13.60
  -2   0  13   63.79   14.70
   1   0 -13   90.79   15.50
   1   0 -13   96.19   11.00
  -1   0  13   77.69   14.00
   0   0 -13   16.60    6.90
   0   0 -13   18.70    7.70
   0   0 -13   20.40    9.30
   0   0  13   14.80    5.40
   0   0  13   17.30    7.30
  -1   0 -13  887.81   45.40
  -1   0 -13  960.20   44.20
  -1   0 -13  906.91   38.40
   1   0  13  956.50   38.00
   1   0  13  980.80   35.60
  -2   0 -13  314.37   16.50
  -2   0 -13  336.07   26.10
  -2   0 -13  297.77   24.70
   2   0  13  301.57   16.30
   2   0  13  313.77   18.50
  -3   0 -13   16.90    5.50
  -3   0 -13    3.40    8.70
   3   0  13    9.10    8.00
  -4   0 -13  104.69   11.20
  -4   0 -13   90.29   20.80
   4   0  13   75.99   14.90
  -5   0 -13    2.00   10.00
  -5   0 -13   13.10    6.90
   5   0  13    0.00   16.60
   4  -1 -13  467.15   28.40
  -4   1  13  564.54   41.50
  -4   1  13  578.14   41.00
  -4   1  13  525.15   25.90
   3  -1 -13   27.90    7.30
   3  -1 -13   23.40   10.50
  -3   1  13   24.70    8.00
  -3   1  13   40.60   13.50
  -3   1  13   50.79   13.70
   2  -1 -13   -0.60    7.70
   2  -1 -13    3.00    4.90
  -2   1  13    1.30    6.90
  -2   1  13   10.90    6.90
  -2   1  13    5.40    8.80
   1  -1 -13  124.39   18.10
   1  -1 -13  124.19   12.40
   1  -1 -13  129.99   22.90
  -1   1  13   98.89   16.40
  -1   1  13  125.89   16.50
  -1   1  13  117.19   14.60
   0  -1 -13  143.99   14.90
   0  -1 -13  140.19   15.80
   0  -1 -13  151.38   17.30
   0   1  13  131.99   10.80
   0   1  13  145.19   15.20
  -1  -1 -13  595.64   33.20
  -1  -1 -13  570.14   35.30
  -1  -1 -13  650.43   30.50
   1   1  13  652.83   24.90
   1   1  13  613.54   29.60
  -2  -1 -13    4.40    6.60
  -2  -1 -13   -2.70    8.00
  -2  -1 -13    9.20    5.20
   2   1  13   -3.10    4.20
   2   1  13   -2.20    5.20
  -3  -1 -13  172.58   20.40
  -3  -1 -13  178.78    8.90
   3   1  13  162.38   14.10
  -4  -1 -13  629.04   41.50
  -4  -1 -13  581.34   25.10
   4   1  13  554.74   29.70
  -5  -1 -13    6.50    5.70
  -5  -1 -13    9.70   18.70
   4  -2 -13  273.87   22.60
   4  -2 -13  336.27   23.10
  -4   2  13  335.37   32.60
  -4   2  13  288.97   21.50
  -4   2  13  306.37   45.10
   3  -2 -13  396.46   26.20
   3  -2 -13  477.95   25.70
  -3   2  13  360.96   24.50
  -3   2  13  415.16   33.90
  -3   2  13  401.36   33.00
   2  -2 -13  126.99   12.50
   2  -2 -13  119.59   17.70
  -2   2  13  127.49   14.60
  -2   2  13  145.19   21.10
  -2   2  13  142.19   20.30
   1  -2 -13  316.47   24.90
   1  -2 -13  297.47   20.00
  -1   2  13  302.67   22.20
  -1   2  13  297.87   24.70
  -1   2  13  266.77   21.10
   0  -2 -13 1480.75   59.89
   0  -2 -13 1584.04   65.09
   0  -2 -13 1596.04   59.39
   0   2  13 1468.95   61.19
   0   2  13 1565.24   60.49
  -1  -2 -13  214.88   18.70
  -1  -2 -13  195.28   16.60
  -1  -2 -13  192.28   20.40
   1   2  13  209.88   17.50
   1   2  13  181.78   10.70
  -2  -2 -13  154.98   33.90
  -2  -2 -13  121.69   19.20
  -2  -2 -13  186.88   14.20
   2   2  13  142.99    8.70
  -3  -2 -13  462.25   20.90
  -3  -2 -13  421.86   31.30
   3   2  13  446.66   18.40
  -4  -2 -13   11.10    3.90
  -4  -2 -13   -5.10    6.90
  -5  -2 -13   89.29    9.40
   4  -3 -13   13.80   10.70
   4  -3 -13  -32.00   10.40
  -4   3  13   -3.70    9.60
  -4   3  13    2.10    9.90
   3  -3 -13  257.97   21.40
   3  -3 -13  278.97   21.60
  -3   3  13  213.58   24.90
  -3   3  13  286.97   27.30
  -3   3  13  251.17   20.90
   2  -3 -13  139.99   18.70
   2  -3 -13  145.99   14.90
  -2   3  13  125.59   19.40
  -2   3  13  116.99   19.00
   1  -3 -13  -18.40    6.50
   1  -3 -13   -0.50    4.70
  -1   3  13  -10.10    8.70
  -1   3  13   -3.50    5.20
   0  -3 -13  448.76   31.60
   0  -3 -13  574.34   32.60
   0  -3 -13  487.95   28.90
   0   3  13  529.35   31.00
   0   3  13  497.85   31.20
   0   3  13  522.75   25.60
  -1  -3 -13    6.60    6.90
  -1  -3 -13   14.80    8.40
  -1  -3 -13    0.80    5.90
   1   3  13   -1.80    6.90
   1   3  13    7.90    3.00
   1   3  13    0.60    6.80
  -2  -3 -13  552.24   38.20
  -2  -3 -13  575.44   28.60
  -3  -3 -13  117.39   19.80
  -3  -3 -13  126.99   12.20
  -4  -3 -13  -15.70    6.80
  -4  -3 -13    5.60    4.90
  -5  -3 -13    8.50   14.50
  -5  -3 -13   11.90    3.90
   4  -4 -13   44.60   17.20
   4  -4 -13   84.69   16.70
  -4   4  13   48.80   17.60
  -4   4  13   72.99   18.80
   3  -4 -13   18.30   11.20
  -3   4  13   -5.60    9.10
  -3   4  13   -1.40   10.50
   2  -4 -13   13.70   16.80
   2  -4 -13   22.90    9.00
  -2   4  13   14.00   10.10
  -2   4  13   17.30   10.40
  -2   4  13   13.80    8.50
   1  -4 -13   61.49   14.30
   1  -4 -13   71.79   12.60
  -1   4  13   54.29   14.00
  -1   4  13   40.10   10.40
  -1   4  13   73.09   14.30
   0  -4 -13   29.90   12.10
   0  -4 -13   29.30    8.50
   0  -4 -13   36.80   11.40
   0   4  13   48.70   12.30
   0   4  13   28.40    7.20
   0   4  13   24.50   10.80
  -1  -4 -13   86.69   15.90
  -1  -4 -13   75.09   15.00
   1   4  13   88.49   15.10
  -2  -4 -13  750.42   40.60
  -2  -4 -13  803.52   37.00
  -3  -4 -13   56.39   13.60
  -3  -4 -13   84.99   12.60
  -4  -4 -13   18.90    9.90
  -4  -4 -13   -0.10    6.30
  -5  -4 -13  374.26   18.60
   3  -5 -13  340.07   26.90
   3  -5 -13  344.17   26.80
   3  -5 -13  345.87   24.70
  -3   5  13  302.57   30.40
   2  -5 -13   99.69   16.30
   2  -5 -13   87.39   16.70
  -2   5  13  125.59   22.40
   1  -5 -13  515.35   31.00
   1  -5 -13  500.45   33.90
  -1   5  13  526.65   35.90
  -1   5  13  499.75   29.40
   0  -5 -13  134.69   18.50
   0   5  13   91.39   18.20
   0   5  13   87.29   10.50
  -1  -5 -13   94.99   16.20
  -1  -5 -13   95.89   16.10
   1   5  13   86.59   16.10
  -2  -5 -13   36.70   11.30
  -2  -5 -13   20.30   10.20
  -3  -5 -13   97.89   17.50
  -3  -5 -13  104.99   15.30
  -4  -5 -13   32.20    9.90
  -4  -5 -13   29.80   10.30
  -5  -5 -13   12.70    8.20
  -5  -5 -13    3.80    9.40
  -5  -5 -13   29.60   12.40
   3  -6 -13  178.38   21.20
   3  -6 -13  211.68   21.90
  -3   6  13  178.48   28.50
   2  -6 -13  271.07   24.20
   2  -6 -13  238.28   25.50
  -2   6  13  248.98   24.60
  -2   6  13  229.18   25.70
   1  -6 -13  862.01   43.80
  -1   6  13  832.12   39.80
  -1   6  13  789.72   46.70
   0  -6 -13  278.27   23.50
   0   6  13  246.28   26.40
  -1  -6 -13  307.37   24.50
  -2  -6 -13  176.88   19.40
  -3  -6 -13  121.09   17.80
  -3  -6 -13  130.19   20.70
  -4  -6 -13   -7.10    6.20
  -4  -6 -13  -21.10    7.50
   2  -7 -13   59.49   13.60
   2  -7 -13   41.70   14.30
  -2   7  13   61.59   15.50
  -2   7  13   49.60   26.40
   1  -7 -13  162.98   23.40
   1  -7 -13  226.88   22.40
  -1   7  13  144.69   18.20
  -1   7  13  219.58   25.50
   0  -7 -13  253.07   23.50
   0   7  13  217.68   26.70
   0   7  13  207.68   15.10
  -1  -7 -13  287.67   25.30
  -2  -7 -13   32.70   11.30
  -3  -7 -13  210.88   24.70
  -3  -7 -13  166.38   24.20
  -4  -7 -13  312.57   35.70
  -4  -7 -13  257.77   46.40
   2  -8 -13  559.84   36.70
  -2   8  13  497.55   39.50
   1  -8 -13    0.40   10.40
   1  -8 -13   -2.50    8.40
  -1   8  13   -1.90    9.60
   0  -8 -13  204.98   21.50
   0  -8 -13  167.78   24.40
   0   8  13  177.38   14.10
  -1  -8 -13   19.90   10.30
  -1  -8 -13    5.50   10.10
  -2  -8 -13   11.20   11.10
  -2  -8 -13   -2.50    7.20
  -3  -8 -13    3.70    8.30
  -4  -8 -13  -14.70    9.90
  -4  -8 -13    3.70    8.00
   1  -9 -13  132.29   21.40
   1  -9 -13  150.38   24.30
   0  -9 -13  132.89   24.90
   0  -9 -13  153.58   24.70
   0   9  13  118.29   13.60
  -1  -9 -13   55.29   16.90
  -2  -9 -13   -4.90   10.60
  -2  -9 -13    0.50    7.80
  -3  -9 -13  192.48   30.80
  -3  -9 -13  204.48   22.80
   0 -10 -13   36.20   19.80
   0 -10 -13   42.70   15.40
   0  10  13   33.50   10.50
  -1 -10 -13    3.00   11.10
  -1 -10 -13    5.20    8.30
  -2 -10 -13   -0.20    7.70
  -2 -10 -13  -12.10   10.30
  -2  -9  14   41.60   17.60
  -2  -9  14   58.39   16.10
   1   9 -14  236.08   25.50
  -1  -9  14  252.77   27.20
  -1  -9  14  264.57   30.70
   0  -9  14   -6.40   10.80
   0  -9  14   11.20   11.60
   1  -9  14   44.40   15.10
   1  -9  14   34.40   14.10
  -3  -8  14   -9.20   10.70
  -3  -8  14   12.10   12.60
   2   8 -14   -5.10    7.90
  -2  -8  14   10.90   11.10
   1   8 -14   59.39   14.50
  -1  -8  14   58.79   16.80
  -1  -8  14   40.00   14.30
   0  -8  14  -12.40    8.40
   0  -8  14   27.40   11.90
   1  -8  14   -2.60   11.10
   1  -8  14   34.90   11.60
  -2   8 -14   96.39   17.00
   2  -8  14  108.19   16.00
   2  -8  14  116.49   24.60
  -3  -7  14   19.30   13.40
  -3  -7  14   -6.20   10.20
   2   7 -14   40.10    7.60
  -2  -7  14   63.49   16.80
  -2  -7  14   69.99   15.60
   1   7 -14   10.80    9.00
  -1  -7  14   27.50   13.50
  -1  -7  14   27.20   11.40
   0  -7  14  133.99   23.00
   1  -7  14   35.30   11.40
   1  -7  14   47.10   15.10
  -2   7 -14    6.50    7.50
   2  -7  14   -0.20    6.90
   2  -7  14   20.70   13.60
  -3   7 -14   -2.90    8.40
   3  -7  14   -3.60   12.00
  -4  -6  14    9.40   12.10
  -3  -6  14  275.97   27.70
  -3  -6  14  240.98   26.50
   2   6 -14  350.36   17.50
   2   6 -14  387.46   17.80
  -2  -6  14  374.86   31.40
  -2  -6  14  383.06   32.60
   1   6 -14  108.29   14.30
  -1  -6  14  137.39   24.10
  -1  -6  14  113.29   19.40
   0   6 -14  196.68   20.30
   0  -6  14  214.38   24.40
   0  -6  14  218.78   21.90
   1  -6  14   13.60   12.10
   1  -6  14   16.40    7.90
  -2   6 -14   21.80    9.80
   2  -6  14   -0.10   10.00
  -3   6 -14   12.30   10.10
  -4  -5  14   63.79   16.60
  -4  -5  14   64.49   14.90
  -3  -5  14   37.90   12.40
  -3  -5  14   25.30   12.70
   2   5 -14   -4.10    3.20
   2   5 -14    0.30    4.20
  -2  -5  14   -5.70    7.80
  -2  -5  14    9.90    9.00
   1   5 -14  927.81   39.50
   1   5 -14  913.41   40.10
  -1  -5  14  863.01   49.70
   0  -5  14   37.00   10.30
   0  -5  14   48.10   15.10
   1  -5  14    8.30    9.50
   1  -5  14    0.90    6.20
  -2   5 -14  639.54   34.60
   2  -5  14  641.94   43.20
   2  -5  14  628.84   25.60
  -3   5 -14  154.18   17.20
  -4   5 -14   48.10   12.90
  -4  -4  14   12.30   12.30
  -4  -4  14   21.10   12.30
  -3  -4  14  419.26   34.10
  -3  -4  14  430.56   33.60
   2   4 -14   80.49    8.60
   2   4 -14   80.69    7.40
  -2  -4  14   93.59   18.80
  -2  -4  14   73.09   17.00
   1   4 -14   -4.60    7.60
   1   4 -14   -8.50    4.80
  -1  -4  14    0.50    7.90
  -1  -4  14   -0.20    6.90
   0   4 -14   64.39   13.00
   0  -4  14   42.20   10.60
   0  -4  14   70.09   17.80
   0  -4  14   47.20   12.40
   1  -4  14   45.60   15.20
   1  -4  14   70.79   14.10
   1  -4  14   72.29   11.60
   2  -4  14  222.08   29.50
   2  -4  14  198.68   11.90
  -3   4 -14   10.00    7.60
  -4   4 -14   54.49   12.30
  -4  -3  14  -20.20    8.60
  -4  -3  14   -0.60   10.10
  -4  -3  14    2.40    9.90
  -3  -3  14  199.98   23.10
  -3  -3  14  216.08   23.60
   2   3 -14  217.78   12.50
  -2  -3  14  292.47   27.00
  -2  -3  14  239.18   24.40
   1   3 -14  563.84   34.90
   1   3 -14  574.44   27.80
  -1  -3  14  644.34   39.10
  -1  -3  14  534.85   33.50
  -1  -3  14  536.55   29.90
   0   3 -14  720.63   36.80
   0   3 -14  773.12   37.90
   0  -3  14  720.43   34.00
   0  -3  14  700.23   42.60
   0  -3  14  710.13   35.80
  -1   3 -14  637.94   37.30
   1  -3  14  605.74   39.60
   1  -3  14  632.54   35.40
   1  -3  14  642.34   29.60
  -2   3 -14  104.89   12.80
   2  -3  14   71.99   14.20
   2  -3  14   83.19    7.80
  -3   3 -14   29.70    9.80
  -4   3 -14   13.60    8.30
  -4  -2  14   26.70   13.20
  -3  -2  14    1.00    9.10
   2   2 -14   61.99    8.00
  -2  -2  14   66.89   17.30
  -2  -2  14   57.49   13.90
   1   2 -14   90.79   12.20
   1   2 -14   71.99   14.30
   1   2 -14  114.79   28.70
  -1  -2  14  108.69   19.90
  -1  -2  14  103.49   12.00
  -1  -2  14  122.19   18.50
   0   2 -14  644.44   33.80
   0   2 -14  642.04   34.20
   0  -2  14  639.84   30.70
   0  -2  14  706.13   34.50
   0  -2  14  724.63   47.50
  -1   2 -14  146.09   13.70
  -1   2 -14  108.59   17.60
   1  -2  14  130.79   12.90
   1  -2  14  111.39   13.00
  -2   2 -14  211.98   23.50
   2  -2  14  169.08   10.80
   2  -2  14  157.68   17.10
  -3   2 -14  316.87   21.00
  -3   2 -14  278.97   27.90
   3  -2  14  285.87   24.30
  -4   2 -14   89.89   16.80
  -4   2 -14  114.59   22.60
   4   1 -14   79.29   17.30
  -4  -1  14   95.69   23.40
  -4  -1  14  132.99   22.60
   3   1 -14  104.09   17.00
   3   1 -14  115.49    8.70
  -3  -1  14  119.99   22.00
  -3  -1  14   92.49   17.90
   2   1 -14  252.07   16.60
   2   1 -14  225.58   21.50
  -2  -1  14  252.17   24.60
   1   1 -14   65.99   14.50
   1   1 -14   71.39   16.10
   1   1 -14   95.79   10.90
  -1  -1  14   70.09   14.40
   0   1 -14  353.06   24.50
   0   1 -14  372.76   23.80
   0   1 -14  340.77   26.20
   0  -1  14  387.26   21.20
   0  -1  14  361.96   23.90
  -1   1 -14   56.39   13.10
  -1   1 -14   37.40    8.80
   1  -1  14   32.70    8.50
   1  -1  14   34.20    7.90
  -2   1 -14    7.70    8.00
  -2   1 -14   14.30    4.60
   2  -1  14   14.80    7.50
   2  -1  14   11.00    4.90
  -3   1 -14   18.20   11.10
  -3   1 -14    6.60    5.40
   3  -1  14   -3.30    8.00
  -4   1 -14  108.39   20.20
   4  -1  14  129.79   20.90
  -5   1 -14  200.88   17.70
  -5   1 -14  107.59   23.20
   4   0 -14   17.40   22.00
  -4   0  14   49.90   15.30
  -4   0  14   32.10   12.90
   3   0 -14  709.13   37.60
  -3   0  14  628.34   41.70
  -3   0  14  671.83   44.30
   2   0 -14  755.82   41.10
   2   0 -14  876.21   34.20
  -2   0  14  809.02   44.90
  -2   0  14  854.61   46.30
   1   0 -14 1885.81   64.49
   1   0 -14 1799.52   72.09
   1   0 -14 1697.33   70.99
  -1   0  14 1870.31   71.69
   0   0 -14   18.70    8.30
   0   0 -14   17.60    9.90
   0   0 -14   33.40    9.60
   0   0  14   21.00    6.70
   0   0  14   24.40    8.60
  -1   0 -14  528.85   37.50
  -1   0 -14  475.45   29.90
  -1   0 -14  486.95   26.30
   1   0  14  482.45   22.90
   1   0  14  474.45   25.30
  -2   0 -14  637.14   27.50
  -2   0 -14  622.24   38.80
   2   0  14  648.34   27.20
   2   0  14  668.63   29.50
  -3   0 -14   32.70    6.90
  -3   0 -14   37.40   12.30
   3   0  14   29.80   10.60
  -4   0 -14   13.40    6.10
  -4   0 -14    5.40    8.90
   4   0  14   -0.50    9.40
  -5   0 -14  199.88   16.10
  -5   0 -14  147.39   26.50
   5   0  14   82.99   26.60
   4  -1 -14   37.80   15.40
  -4   1  14   46.40   15.00
   3  -1 -14   -8.00    8.50
   3  -1 -14   13.30    5.90
  -3   1  14   10.00   11.70
  -3   1  14    0.60    8.80
  -3   1  14   -7.20    6.40
   2  -1 -14   84.89   11.50
   2  -1 -14   64.59   14.90
  -2   1  14   72.79   16.70
  -2   1  14   63.99   11.90
  -2   1  14   50.09   13.40
   1  -1 -14  548.05   34.00
   1  -1 -14  567.94   28.60
   1  -1 -14  605.84   35.70
  -1   1  14  561.34   33.80
  -1   1  14  536.25   32.10
   0  -1 -14  336.97   22.70
   0  -1 -14  319.67   23.60
   0  -1 -14  317.47   26.30
   0   1  14  354.56   23.70
   0   1  14  316.77   18.00
  -1  -1 -14   -6.20   12.60
  -1  -1 -14    1.70    5.80
  -1  -1 -14   -4.90    5.70
   1   1  14   -6.20    5.50
  -2  -1 -14  554.44   35.20
  -2  -1 -14  547.65   26.20
   2   1  14  564.44   24.40
   2   1  14  612.84   35.60
  -3  -1 -14  368.06   30.60
  -3  -1 -14  352.86   14.80
   3   1  14  344.57   21.40
  -4  -1 -14    8.80    9.10
  -4  -1 -14   15.00    5.60
   4   1  14   16.70    9.20
  -5  -1 -14   34.80   12.90
  -5  -1 -14   64.89    9.80
   4  -2 -14  583.54   31.30
   4  -2 -14  521.95   34.00
  -4   2  14  554.04   48.30
   3  -2 -14  105.89   14.40
  -3   2  14  106.89   15.80
  -3   2  14  146.19   22.80
  -3   2  14  111.49   21.20
   2  -2 -14    8.30    9.80
   2  -2 -14   11.80    6.40
  -2   2  14    6.70    9.20
  -2   2  14    3.20    7.60
  -2   2  14    6.80    7.70
   1  -2 -14   54.79   11.20
   1  -2 -14   75.19   14.10
  -1   2  14   43.60   11.80
  -1   2  14   35.20   11.20
   0  -2 -14  373.16   25.00
   0  -2 -14  380.36   28.70
   0  -2 -14  414.26   27.80
   0   2  14  399.86   23.10
   0   2  14  377.96   27.20
   0   2  14  408.06   27.10
  -1  -2 -14   98.69   15.50
  -1  -2 -14   76.89   12.90
   1   2  14   89.29   13.60
   1   2  14   85.59    8.10
  -2  -2 -14  556.24   27.60
  -2  -2 -14  563.24   34.80
   2   2  14  550.44   20.50
  -3  -2 -14  345.17   28.80
  -3  -2 -14  374.06   18.70
   3   2  14  335.87   15.10
  -4  -2 -14  147.99   22.50
  -5  -2 -14  582.24   26.10
   4  -3 -14    4.80   10.80
  -4   3  14    3.10   14.20
  -4   3  14  -12.70   11.60
   3  -3 -14   10.00    8.00
  -3   3  14   13.70   13.30
  -3   3  14   38.60   12.00
  -3   3  14   17.20   11.50
   2  -3 -14   77.79   13.30
   2  -3 -14   53.29   14.10
  -2   3  14   54.39   12.30
  -2   3  14   61.69   14.70
  -2   3  14   50.39   15.10
   1  -3 -14   93.39   16.50
   1  -3 -14  126.69   14.70
  -1   3  14  136.39   16.30
  -1   3  14  129.79   18.40
  -1   3  14  134.39   21.40
   0  -3 -14  205.58   19.90
   0  -3 -14  232.18   33.50
   0  -3 -14  264.67   20.70
   0   3  14  198.28   18.50
   0   3  14  253.37   22.30
   0   3  14  226.18   21.60
  -1  -3 -14   47.80   12.60
  -1  -3 -14   51.69   10.70
   1   3  14   61.69    6.10
   1   3  14   53.99   12.20
  -2  -3 -14  166.38   15.80
  -2  -3 -14  170.18   19.00
  -3  -3 -14   27.80   10.40
  -3  -3 -14    9.40    6.90
  -4  -3 -14    0.70    4.80
  -4  -3 -14  -13.00    7.20
  -5  -3 -14   10.90    9.30
   3  -4 -14    2.20    8.20
   3  -4 -14   12.40   21.70
  -3   4  14   -1.00   10.40
   2  -4 -14    7.80   10.20
  -2   4  14    5.10    8.70
   1  -4 -14   16.10   14.20
   1  -4 -14   23.80   10.00
  -1   4  14   42.80   13.20
  -1   4  14   18.10    9.00
  -1  -4 -14  188.48   18.80
  -1  -4 -14  226.48   20.40
   1   4  14  213.28    8.00
   1   4  14  181.28   20.00
  -2  -4 -14   17.40    8.80
  -2  -4 -14    2.00    7.40
  -3  -4 -14  625.74   38.50
  -3  -4 -14  558.64   30.00
  -4  -4 -14  111.79   19.60
  -4  -4 -14  121.39   13.70
  -5  -4 -14    0.10   10.10
   3  -5 -14  228.08   22.90
   3  -5 -14  188.58   25.00
  -3   5  14  173.48   27.30
  -3   5  14  175.88   27.30
   2  -5 -14  -14.30   11.00
   2  -5 -14   17.30    8.60
  -2   5  14   24.50   13.10
  -2   5  14    8.50   11.50
   1  -5 -14   31.10    9.70
  -1   5  14   38.20   10.90
  -1   5  14    7.80   11.50
   0  -5 -14   51.79   12.80
   0   5  14   59.99   15.90
  -1  -5 -14  416.26   29.40
   1   5  14  452.45   32.20
  -2  -5 -14  -12.30    7.30
  -2  -5 -14   -1.70    7.80
  -3  -5 -14    2.00    8.10
  -4  -5 -14  354.66   29.40
  -4  -5 -14  241.48   21.10
   3  -6 -14  196.38   22.50
  -3   6  14  181.08   26.70
  -3   6  14   93.89   32.40
   2  -6 -14   50.29   13.30
  -2   6  14   31.50   13.00
  -2   6  14   49.80   18.60
   1  -6 -14   -7.40    5.60
  -1   6  14   -9.10    8.40
  -1   6  14   -5.40    7.70
   0  -6 -14  105.59   17.00
   0   6  14  124.49   21.30
  -1  -6 -14  143.79   20.30
  -2  -6 -14  374.76   28.60
  -3  -6 -14   28.60   11.30
  -4  -6 -14   -8.20   11.00
  -4  -6 -14   27.80   13.20
   2  -7 -14   28.60   14.20
   2  -7 -14   61.49   14.60
  -2   7  14   45.60   14.10
  -2   7  14   43.20   17.60
   1  -7 -14  357.86   30.30
   1  -7 -14  336.37   27.20
  -1   7  14  306.97   24.50
  -1   7  14  350.46   33.40
   0  -7 -14  385.06   28.80
   0   7  14  385.46   31.80
   0   7  14  290.27   18.90
  -1  -7 -14   28.10    9.60
  -2  -7 -14   79.89   16.40
  -3  -7 -14  681.93   42.80
  -4  -7 -14   84.59   18.20
  -4  -7 -14   91.29   19.50
   1  -8 -14  110.19   20.70
  -1   8  14  120.69   17.30
  -1   8  14   94.39   23.80
   0  -8 -14  137.19   21.20
   0  -8 -14   85.19   17.90
   0   8  14   71.39   10.70
  -1  -8 -14   37.60   12.30
  -1  -8 -14   54.59   16.40
  -2  -8 -14  124.69   31.60
  -2  -8 -14  110.09   21.00
  -3  -8 -14    8.80   10.00
  -3  -8 -14   -2.70   13.30
   0  -9 -14   43.10   13.20
   0  -9 -14   35.90   15.30
   0   9  14   20.80    8.80
  -1  -9 -14   31.80   22.60
  -1  -9 -14    9.50    9.30
  -2  -9 -14   35.70   16.10
  -2  -9 -14   26.60   11.20
  -3  -9 -14   57.79   17.40
  -1  -9  15   85.99   19.90
  -1  -9  15   87.49   24.30
   0  -9  15  101.59   21.90
   0  -9  15  117.79   20.70
  -2  -8  15  127.99   23.60
   1   8 -15   62.59   14.60
  -1  -8  15   81.69   19.70
  -1  -8  15  118.79   21.00
   0  -8  15   -4.30    8.90
   0  -8  15    8.40   11.20
   1  -8  15   42.70   13.10
   1  -8  15   58.99   16.10
  -3  -7  15   -4.90   11.50
  -3  -7  15    3.00   10.10
   2   7 -15   62.09   14.00
  -2  -7  15   46.20   18.20
  -2  -7  15   81.99   18.80
   1   7 -15   80.99   14.20
  -1  -7  15   80.99   17.90
  -1  -7  15   84.69   17.60
   0  -7  15    3.70   10.20
   0  -7  15   17.80   10.70
   1  -7  15    1.60   11.80
  -2   7 -15   32.20   12.00
   2  -7  15    1.80   12.20
   2  -7  15   20.90    8.30
  -3  -6  15  495.55   40.60
  -3  -6  15  570.04   41.00
   2   6 -15   34.40    6.90
   2   6 -15   33.70    7.10
  -2  -6  15   40.00   14.30
  -2  -6  15   25.10   10.90
   1   6 -15    2.90    7.90
   1   6 -15   -3.90    6.00
  -1  -6  15   -8.80    7.20
  -1  -6  15   -1.20   10.40
   0   6 -15  660.53   37.30
   0  -6  15  654.83   37.30
   0  -6  15  654.23   44.20
   1  -6  15  146.99   24.30
   1  -6  15  143.79   16.20
  -2   6 -15   14.20    8.40
   2  -6  15    8.70   11.10
  -3   6 -15   77.79   15.50
  -3  -5  15   37.20   13.40
  -3  -5  15    5.30   10.50
   2   5 -15  159.58   10.80
   2   5 -15  165.88   11.80
  -2  -5  15  149.69   22.40
  -2  -5  15  177.98   26.30
   1   5 -15  371.16   23.90
   1   5 -15  377.36   23.70
  -1  -5  15  414.56   34.10
  -1  -5  15  376.36   29.60
   0  -5  15   16.60    9.50
   0  -5  15   36.80   14.30
   1  -5  15  210.68   18.10
   1  -5  15  216.88   25.40
  -2   5 -15   89.99   15.00
   2  -5  15  102.89   21.00
   2  -5  15   80.89    9.60
  -3   5 -15   15.50    8.60
  -4  -4  15   58.99   16.90
  -4  -4  15   44.10   14.80
  -3  -4  15   13.40   10.60
  -3  -4  15   -0.80    9.60
   2   4 -15   24.60    5.50
   2   4 -15   34.30    7.10
  -2  -4  15   39.10   13.50
  -2  -4  15   32.90   12.60
   1   4 -15  101.69   14.00
  -1  -4  15  130.69   20.70
  -1  -4  15  130.29   24.30
   0   4 -15  449.16   29.20
   0  -4  15  450.35   29.00
   0  -4  15  408.66   34.60
   1  -4  15   12.10   10.60
   1  -4  15   29.00    7.80
   2  -4  15   -1.20    4.20
  -3   4 -15  221.78   20.50
  -4   4 -15   17.50    9.40
  -4  -3  15   45.10   18.10
  -4  -3  15   28.50   13.60
  -4  -3  15    8.90   11.90
  -3  -3  15  110.59   20.60
  -3  -3  15  166.88   25.20
   2   3 -15   33.20    6.20
  -2  -3  15   23.10   10.60
  -2  -3  15   19.50   11.60
   1   3 -15    4.30    5.70
  -1  -3  15   12.70    9.90
  -1  -3  15  -10.10    8.80
   0   3 -15   89.39   15.30
   0   3 -15   90.69   14.70
   0  -3  15   95.29   19.60
   0  -3  15  100.69   15.30
   0  -3  15  102.79   14.80
  -1   3 -15   45.40   13.10
   1  -3  15   46.40   10.40
   1  -3  15   59.09   17.50
   1  -3  15   44.10   10.90
  -2   3 -15  343.47   29.00
   2  -3  15  301.17   24.80
   2  -3  15  334.67   15.90
  -3   3 -15  125.79   14.80
  -4   3 -15   37.10   11.00
  -4  -2  15   -1.50   11.30
  -4  -2  15   -6.00   10.00
  -3  -2  15   19.20   11.60
  -2  -2  15   10.30    9.20
  -2  -2  15   25.20   12.40
   1   2 -15   73.19   23.90
   1   2 -15  107.89   12.60
  -1  -2  15  102.99   20.70
  -1  -2  15  100.59   14.50
  -1  -2  15   80.59   15.80
   0   2 -15   62.79   12.50
   0   2 -15   71.49   13.60
   0  -2  15   50.99   14.90
   0  -2  15   58.79   13.30
   0  -2  15   88.99   12.80
  -1   2 -15  355.66   27.70
  -1   2 -15  407.56   23.90
   1  -2  15  401.86   23.70
   1  -2  15  414.16   23.40
  -2   2 -15  117.79   21.70
   2  -2  15  119.99   17.20
   2  -2  15  121.79   10.40
  -3   2 -15    5.10    9.60
  -3   2 -15   -3.70    5.40
   3  -2  15   -3.50   10.80
  -4   2 -15   -7.80    7.00
  -4   2 -15   18.50   13.60
  -4  -1  15   -1.40   11.10
  -4  -1  15    9.30   11.10
   3   1 -15    3.80    4.40
  -3  -1  15    0.70    9.90
  -3  -1  15    5.40    9.60
   2   1 -15    7.30    5.00
  -2  -1  15    8.30    9.10
   1   1 -15    5.80    5.00
   1   1 -15  -21.70   12.40
  -1  -1  15   -3.40    8.20
  -1  -1  15    4.70    5.70
   0   1 -15  265.47   21.80
   0   1 -15  251.57   20.40
   0  -1  15  285.67   21.60
   0  -1  15  272.47   18.20
  -1   1 -15  993.80   47.00
  -1   1 -15  887.81   39.50
   1  -1  15  902.91   37.50
   1  -1  15  878.61   38.20
  -2   1 -15  200.98   22.10
  -2   1 -15  204.28   13.70
   2  -1  15  151.38   15.80
   2  -1  15  201.58   13.50
  -3   1 -15  143.09   13.40
  -3   1 -15  127.49   24.00
   3  -1  15  143.89   18.30
  -4   1 -15   50.89   10.40
   4  -1  15   43.30   17.00
   4   0 -15  211.08   27.00
  -4   0  15  313.17   30.60
  -4   0  15  346.87   34.40
   3   0 -15  173.08   13.50
  -3   0  15  131.29   22.70
  -3   0  15  140.29   23.50
   2   0 -15    7.80    5.50
  -2   0  15   20.80   11.20
  -2   0  15   24.50   10.70
   1   0 -15  204.08   16.70
  -1   0  15  177.48   34.50
   0   0 -15 1163.68   49.99
   0   0 -15 1122.49   68.99
   0   0  15 1223.88   45.20
   0   0  15 1201.18   50.99
  -1   0 -15  116.29   15.30
  -1   0 -15  115.59   18.40
   1   0  15  117.09   12.20
   1   0  15  136.79   14.70
  -2   0 -15   44.70   13.80
   2   0  15   46.60    9.40
   2   0  15   33.30    8.80
  -3   0 -15    0.00    8.60
   3   0  15  -20.20    7.10
  -4   0 -15    3.50    5.40
  -4   0 -15    4.70   10.10
   4   0  15  -15.00   11.10
  -4   1  15   35.50   13.00
  -4   1  15   68.99   19.10
   3  -1 -15  258.77   17.40
   3  -1 -15  247.18   24.30
  -3   1  15  238.08   26.40
  -3   1  15  244.98   26.50
   2  -1 -15  166.38   25.80
   2  -1 -15  191.48   15.40
  -2   1  15  151.68   22.80
  -2   1  15  160.98   24.10
   1  -1 -15   75.39   12.00
  -1   1  15   70.49   14.20
  -1   1  15   89.19   17.20
   0  -1 -15  396.96   27.70
   0  -1 -15  459.75   27.40
   0   1  15  410.46   26.80
   0   1  15  410.06   21.50
  -1  -1 -15  442.26   29.40
  -1  -1 -15  422.76   25.90
   1   1  15  427.86   25.40
   1   1  15  428.16   20.60
  -2  -1 -15   98.89   11.70
  -2  -1 -15   83.99   16.30
   2   1  15   87.39   12.30
   2   1  15   95.29   10.60
  -3  -1 -15  274.47   26.50
  -3  -1 -15  219.78   11.90
   3   1  15  252.87   22.50
  -4  -1 -15  124.19   21.10
   4   1  15   77.49   14.40
   3  -2 -15    0.00   11.90
   3  -2 -15   -2.00    6.60
  -3   2  15    8.90   11.40
  -3   2  15   -4.30   10.70
  -3   2  15   20.70   12.40
   2  -2 -15   25.10    9.30
   2  -2 -15   26.70   14.20
  -2   2  15   22.50   11.10
  -2   2  15   57.09   16.70
   1  -2 -15   -3.60    5.70
  -1   2  15   15.40    8.60
  -1   2  15   13.70    9.00
  -1   2  15    1.30    6.90
   0  -2 -15  149.59   18.00
   0  -2 -15   71.29   13.00
   0   2  15  103.69   10.50
   0   2  15  134.79   13.60
   0   2  15  104.79   16.00
  -1  -2 -15    8.70    7.80
  -1  -2 -15    0.90   11.60
   1   2  15   12.90    5.10
   1   2  15    8.60    8.50
  -2  -2 -15  370.66   22.40
  -2  -2 -15  371.46   28.80
   2   2  15  371.46   15.90
  -3  -2 -15   53.49   11.90
  -3  -2 -15   59.19   15.00
   3   2  15   49.00    6.10
  -4  -2 -15  167.08   25.60
   3  -3 -15  431.86   28.20
   3  -3 -15  454.45   32.30
  -3   3  15  446.66   35.70
  -3   3  15  471.55   33.30
   2  -3 -15   13.00    8.00
  -2   3  15   12.90   11.00
  -2   3  15   11.90   13.20
  -2   3  15   57.49   15.30
   1  -3 -15   18.90    8.20
  -1   3  15    6.00    8.40
  -1   3  15   18.00   11.80
  -1   3  15   13.00    9.60
   0   3  15   71.69   15.30
   0   3  15   65.59   11.20
  -1  -3 -15  420.26   28.50
  -1  -3 -15  357.86   26.30
   1   3  15  383.96   16.00
   1   3  15  388.96   26.90
   1   3  15  376.76   17.70
  -2  -3 -15  137.99   15.50
  -2  -3 -15  123.99   20.20
  -3  -3 -15  173.48   20.60
  -3  -3 -15  176.28   15.60
  -4  -3 -15   10.30    5.30
  -4  -3 -15   16.90   12.00
   3  -4 -15  -24.70   14.90
   3  -4 -15    2.20    9.00
  -3   4  15   25.40   14.40
  -3   4  15   32.20   15.20
   2  -4 -15  101.49   16.60
  -2   4  15   59.99   15.20
  -2   4  15   89.99   17.70
   1  -4 -15   26.30    9.20
  -1   4  15   43.10   14.50
  -1   4  15   31.70   10.80
   0  -4 -15   34.80   10.50
   0   4  15   12.50    9.40
   0   4  15   26.40    7.90
  -1  -4 -15   14.90    8.40
  -1  -4 -15    0.10    7.80
   1   4  15   -0.10    2.20
   1   4  15    4.50   10.10
  -2  -4 -15    1.40    7.30
  -2  -4 -15   11.30   14.60
  -3  -4 -15   28.30    9.70
  -3  -4 -15   26.00   10.20
  -4  -4 -15  -17.00    7.10
   3  -5 -15  109.79   18.50
  -3   5  15  120.89   22.40
  -3   5  15   59.79   16.80
   2  -5 -15    5.30    8.10
  -2   5  15    7.20   10.60
  -2   5  15   32.60   13.10
   1  -5 -15   77.29   15.50
  -1   5  15   57.69   17.60
  -1   5  15   79.39   14.60
   0  -5 -15  257.47   23.50
   0   5  15  279.37   27.30
  -1  -5 -15   24.80   10.00
   1   5  15    4.40   10.00
  -2  -5 -15    1.60    7.10
  -2  -5 -15  -15.50    7.70
  -3  -5 -15  214.48   20.80
  -3  -5 -15  282.87   25.50
  -4  -5 -15  100.99   18.90
  -4  -5 -15   52.79   13.30
   2  -6 -15  146.79   21.70
  -2   6  15  108.79   21.20
  -2   6  15   92.39   18.90
   1  -6 -15   -8.90    6.70
  -1   6  15   -4.30    8.90
  -1   6  15   14.70   14.10
   0  -6 -15    9.20    8.20
   0   6  15    3.30   11.10
  -1  -6 -15   31.80   11.00
  -2  -6 -15   49.99   13.10
  -3  -6 -15   61.19   15.20
  -4  -6 -15    0.40    9.00
   2  -7 -15   -8.70   11.60
   2  -7 -15   -3.90   14.80
  -2   7  15  -16.60   12.00
  -2   7  15   -9.80   14.30
   1  -7 -15  265.07   24.90
  -1   7  15  236.08   44.30
  -1   7  15  192.88   20.80
   0  -7 -15    3.70    8.00
   0   7  15   -6.90   11.70
   0   7  15    0.60   10.20
  -1  -7 -15   95.19   16.70
  -2  -7 -15  125.79   19.90
  -3  -7 -15  238.58   25.60
   1  -8 -15   61.09   15.70
   1  -8 -15   52.89   17.60
  -1   8  15   74.99   20.60
  -1   8  15   60.69   15.30
   0  -8 -15  351.96   33.10
   0  -8 -15  364.46   31.70
   0   8  15  347.07   20.10
  -1  -8 -15  262.17   31.00
  -1  -8 -15  262.57   25.50
  -2  -8 -15   38.60   15.10
  -2  -8 -15   24.40   11.10
  -3  -8 -15    0.40    9.30
  -3  -8 -15    0.20   10.10
   0  -9 -15   46.90   18.40
   0  -9 -15   64.19   16.50
   0   9  15   52.29   11.20
  -1  -9 -15  159.88   27.80
  -1  -9 -15   95.29   18.60
  -2  -9 -15   38.60   25.00
   1   8 -16  -19.70   14.70
  -1  -8  16   18.00   13.30
  -1  -8  16   29.80   11.70
   0  -8  16    5.50   11.20
   0  -8  16   17.10   12.60
   1  -8  16  164.08   25.30
  -2  -7  16  137.49   24.40
  -2  -7  16   99.59   23.40
   1   7 -16  309.97   36.40
   1   7 -16  316.97   24.90
  -1  -7  16  339.17   35.10
  -1  -7  16  327.77   28.90
   0  -7  16  186.78   21.40
   1  -7  16   39.40   12.70
   1  -7  16   52.39   24.40
   2  -7  16  318.57   34.80
   2  -7  16  325.17   21.40
  -3  -6  16   91.59   21.50
  -3  -6  16   98.79   19.60
   2   6 -16  146.99   11.60
  -2  -6  16  196.58   29.30
  -2  -6  16  152.68   24.20
   1   6 -16    0.20    7.90
   1   6 -16   -1.90    8.40
  -1  -6  16    3.10   10.10
  -1  -6  16   -9.50    7.20
   0  -6  16  128.99   24.90
   0  -6  16  157.68   24.90
   1  -6  16  -12.60    7.90
   1  -6  16  -16.50    9.90
   2  -6  16    3.70   13.70
  -3  -5  16  113.59   23.30
  -3  -5  16   90.69   18.50
   2   5 -16  362.26   21.30
   2   5 -16  385.16   18.30
  -2  -5  16  421.96   33.60
  -2  -5  16  409.46   32.80
   1   5 -16   21.10   10.40
   1   5 -16   19.10    7.90
  -1  -5  16    8.70    8.70
  -1  -5  16    8.80    9.80
   0   5 -16   51.69   13.70
   0  -5  16   48.40   12.70
   0  -5  16   61.49   16.70
   1  -5  16  167.28   25.90
   1  -5  16  237.18   18.90
   2  -5  16  260.97   15.60
   2  -5  16  248.98   34.70
  -3   5 -16   18.50    8.20
  -3  -4  16  254.67   27.90
   2   4 -16   38.70    6.50
   2   4 -16   20.90   11.50
  -2  -4  16   52.79   15.20
  -2  -4  16   28.20   11.30
   1   4 -16   35.30    9.60
  -1  -4  16   37.70   15.20
  -1  -4  16   12.00   10.20
   0   4 -16   25.10   10.00
   0  -4  16   33.60   14.20
   0  -4  16   12.60    9.30
  -1   4 -16    4.70    9.10
   1  -4  16   16.10    8.00
   1  -4  16   22.50   11.70
   2  -4  16   13.80    5.70
  -3   4 -16  361.96   25.90
  -3  -3  16  233.98   26.10
  -3  -3  16  244.08   27.10
  -2  -3  16    6.00    8.80
  -2  -3  16    7.40    9.90
   1   3 -16  118.19   14.90
  -1  -3  16   97.39   17.50
  -1  -3  16   79.59   20.10
   0   3 -16   73.99   14.60
   0   3 -16   61.79   13.50
   0  -3  16   83.69   15.20
   0  -3  16   92.29   18.60
  -1   3 -16    1.70    9.00
   1  -3  16   -9.40    7.30
   1  -3  16    8.80    7.30
  -2   3 -16   14.00   10.00
   2  -3  16   -2.00    4.30
  -3   3 -16    9.40    7.90
  -3   3 -16   13.60   13.50
  -4   3 -16  139.89   29.80
  -4   3 -16  179.48   18.90
  -3  -2  16  162.98   26.00
  -3  -2  16  187.38   26.50
   2   2 -16  823.12   32.60
  -2  -2  16  794.72   46.80
   1   2 -16   59.69   10.00
  -1  -2  16   77.99   17.00
   0   2 -16   48.10   12.50
   0   2 -16   49.40   11.60
   0  -2  16   53.79   12.50
   0  -2  16   60.69   11.20
  -1   2 -16  143.59   15.90
  -1   2 -16  172.38   19.70
   1  -2  16  176.38   16.30
   1  -2  16  192.68   17.80
  -2   2 -16  121.69   21.00
   2  -2  16  100.19   10.40
   2  -2  16  106.59   17.10
  -3   2 -16   73.49   19.50
   3  -2  16   53.69   15.60
  -4   2 -16   23.30   14.10
  -4   2 -16   65.09   11.50
   3   1 -16    4.60    4.90
  -3  -1  16   24.00   11.00
  -3  -1  16   17.10   10.40
   2   1 -16  693.53   30.10
  -2  -1  16  665.33   41.60
   1   1 -16  153.98   15.30
  -1  -1  16  184.68   18.00
  -1  -1  16  191.88   21.10
   0   1 -16   74.19   13.20
   0   1 -16   75.79   15.00
   0  -1  16   61.19   12.60
  -1   1 -16  688.13   39.60
  -1   1 -16  667.33   33.70
   1  -1  16  662.23   32.70
   1  -1  16  684.63   31.50
  -2   1 -16  287.77   24.90
  -2   1 -16  243.38   23.90
   2  -1  16  191.48   14.60
   2  -1  16  189.18   18.60
  -3   1 -16  426.96   36.60
   3  -1  16  461.65   29.90
  -4   1 -16  169.68   29.60
  -4   1 -16  164.08   15.30
   4  -1  16  122.19   22.50
   3   0 -16   70.09   10.30
  -3   0  16   62.09   16.10
  -3   0  16   48.00   16.30
   2   0 -16   54.79    9.00
  -2   0  16   47.50   15.00
  -2   0  16   22.50   12.50
   1   0 -16  101.59   14.20
  -1   0  16   86.09   16.50
   0   0 -16  194.08   20.00
   0   0 -16  199.98   18.70
   0   0  16  183.68   15.20
   0   0  16  198.78   19.80
  -1   0 -16  470.75   27.80
  -1   0 -16  482.35   31.90
   1   0  16  479.65   24.10
   1   0  16  482.75   27.40
  -2   0 -16  111.99   19.60
  -2   0 -16  119.29   12.40
   2   0  16  113.29   14.30
   2   0  16  113.49   12.70
  -3   0 -16   21.60   10.00
   3   0  16   18.10   10.00
  -4   0 -16  848.82   53.29
   4   0  16  876.91   43.30
   3  -1 -16  337.07   21.70
  -3   1  16  406.86   33.20
   2  -1 -16   83.59   12.70
  -2   1  16   55.99   15.00
  -2   1  16  115.29   20.50
   1  -1 -16   -2.40    5.60
  -1   1  16    1.70    8.40
  -1   1  16   -0.60   10.10
   0  -1 -16  249.68   23.70
   0  -1 -16  344.67   24.20
   0   1  16  308.17   18.90
   0   1  16  283.47   22.90
  -1  -1 -16  340.57   26.40
  -1  -1 -16  327.57   23.90
   1   1  16  338.87   18.60
   1   1  16  393.46   25.80
  -2  -1 -16  207.98   23.00
  -2  -1 -16  201.98   16.70
   2   1  16  205.28   17.00
  -3  -1 -16  219.28   24.40
  -3  -1 -16  223.08   12.30
  -4  -1 -16   22.90   14.30
   4   1  16   -1.00   12.00
   3  -2 -16    5.90    8.10
  -3   2  16   -2.40   10.20
  -3   2  16   24.20   11.60
  -3   2  16   -5.90   10.00
   2  -2 -16   53.79   12.00
  -2   2  16   65.29   13.80
  -2   2  16   55.69   15.10
  -2   2  16   40.50   11.70
   1  -2 -16  571.74   31.60
  -1   2  16  500.85   32.10
  -1   2  16  571.74   36.30
   0   2  16  285.87   21.20
   0   2  16  245.28   27.80
   0   2  16  323.77   18.20
  -1  -2 -16   23.60   16.30
  -1  -2 -16    5.40    7.20
   1   2  16    5.70    8.70
   1   2  16    7.10    7.00
  -2  -2 -16  482.95   27.30
  -2  -2 -16  464.75   32.80
   2   2  16  467.05   19.00
  -3  -2 -16   16.90   10.30
  -4  -2 -16   45.70   15.20
   3  -3 -16  102.49   17.70
  -3   3  16   42.70   15.30
  -3   3  16   50.79   15.90
   2  -3 -16   -0.90   10.20
  -2   3  16   12.10   11.20
  -2   3  16   -3.30    9.30
   1  -3 -16   69.19   13.60
  -1   3  16   48.60   15.90
  -1   3  16   56.79   13.70
   0  -3 -16  262.77   22.70
   0   3  16  276.67   16.50
   0   3  16  315.57   26.80
   0   3  16  265.07   19.60
  -1  -3 -16    2.30    8.20
  -1  -3 -16   -3.90    6.70
   1   3  16   -6.60    3.70
   1   3  16    4.70    4.30
   1   3  16   -4.50    8.40
  -2  -3 -16   10.10    8.20
  -2  -3 -16    1.40    8.00
  -3  -3 -16   11.70    8.00
  -3  -3 -16   15.60    9.10
  -4  -3 -16   47.60   14.30
   3  -4 -16   30.20   12.70
  -3   4  16   25.40   13.10
  -3   4  16   53.49   16.80
   2  -4 -16   63.79   13.90
  -2   4  16   48.00   15.20
  -2   4  16   58.89   16.10
   1  -4 -16    5.60    6.80
  -1   4  16    5.40    8.80
  -1   4  16    3.70    9.00
   0  -4 -16   58.99   13.30
   0   4  16   44.30    9.80
   0   4  16   64.19   16.20
  -1  -4 -16  595.84   36.60
   1   4  16  663.03   51.29
  -2  -4 -16   45.50   12.10
  -2  -4 -16   19.00    8.70
  -3  -4 -16  132.09   20.40
  -3  -4 -16  160.38   18.00
  -4  -4 -16    4.30   10.70
   2  -5 -16    1.60    8.30
  -2   5  16    0.20   11.40
  -2   5  16   14.80   12.50
   1  -5 -16   25.10   10.60
  -1   5  16   29.10   11.80
  -1   5  16   19.30   13.40
   0  -5 -16  114.19   18.40
   0   5  16   94.29   13.30
   0   5  16  131.39   22.60
  -1  -5 -16  528.05   33.90
   1   5  16  475.25   34.20
  -2  -5 -16  -20.40    7.50
  -3  -5 -16  172.08   33.30
  -3  -5 -16  168.68   20.40
  -4  -5 -16   20.60   11.40
   2  -6 -16   17.30   10.60
  -2   6  16   -1.80   13.20
  -2   6  16    4.60   12.40
   1  -6 -16   -1.30    6.80
  -1   6  16  -12.30    8.80
  -1   6  16   -0.70   11.90
   0  -6 -16  120.09   18.70
   0   6  16   30.30   14.10
  -1  -6 -16  265.67   25.20
  -2  -6 -16   48.70   13.60
  -3  -6 -16   -7.70    8.00
  -1   7  16  136.09   27.00
  -1   7  16  109.29   18.20
   0  -7 -16   99.59   18.70
   0   7  16   69.09   18.80
  -1  -7 -16   -0.80    6.90
  -2  -7 -16  104.99   19.20
  -3  -7 -16   57.79   15.10
   0  -8 -16  109.29   20.20
  -1  -8 -16   22.80   10.30
  -1  -8 -16   -0.70   12.20
  -2  -8 -16  103.99   20.70
  -2  -8 -16   95.49   21.70
  -2  -7  17  516.05   42.10
   1   7 -17   20.10   16.20
   1   7 -17   55.89   14.20
  -1  -7  17   87.79   20.50
  -1  -7  17   58.19   14.70
   0  -7  17   56.19   18.90
   1  -7  17  168.28   21.60
   1  -7  17  136.09   27.40
   2   6 -17   11.00   10.60
  -2  -6  17   42.80   15.70
  -2  -6  17   41.00   23.10
   1   6 -17   63.49   13.10
  -1  -6  17   94.79   17.40
  -1  -6  17   49.90   22.00
   0   6 -17  223.98   23.90
   0  -6  17  215.38   22.80
   1  -6  17   27.50   10.90
   1  -6  17   25.60   20.10
   2  -6  17   -5.90   11.10
  -3  -5  17  -25.40   16.80
  -3  -5  17    5.10   12.40
  -2  -5  17   10.80   12.20
  -2  -5  17    4.80    8.90
   1   5 -17   92.79   15.90
   1   5 -17   65.29   12.90
  -1  -5  17   62.69   16.10
  -1  -5  17   58.09   16.50
   0   5 -17  209.68   22.30
   0  -5  17  180.18   27.30
   0  -5  17  177.88   27.30
  -1   5 -17  211.98   24.40
   1  -5  17  170.08   17.70
   1  -5  17  227.98   26.40
   2  -5  17   -1.80    7.10
  -3  -4  17    5.40   12.40
  -3  -4  17   -2.60   11.10
  -2  -4  17  283.67   31.10
  -2  -4  17  334.57   30.40
   1   4 -17   -9.60    6.40
  -1  -4  17   41.60   13.80
  -1  -4  17    3.20   10.90
   0   4 -17   -7.00    6.60
   0  -4  17   -8.40    7.30
   0  -4  17   -5.20   11.70
  -1   4 -17   27.50   12.00
   1  -4  17   26.70   15.40
   1  -4  17   26.00    9.80
  -2   4 -17   13.30   10.10
   2  -4  17   12.80    6.70
  -3   4 -17   24.90   12.20
  -3  -3  17   11.80   13.40
  -3  -3  17  -14.70   10.00
   2   3 -17    1.70    5.40
  -2  -3  17   11.70    9.90
  -2  -3  17    4.30   11.00
   1   3 -17   -0.70    6.40
  -1  -3  17   47.70   13.40
  -1  -3  17   21.00   12.80
   0   3 -17  110.59   18.50
   0   3 -17  168.38   18.30
   0  -3  17  122.19   22.70
   0  -3  17  174.18   19.10
  -1   3 -17  201.88   22.60
   1  -3  17  222.18   18.50
  -2   3 -17   45.10   15.30
   2  -3  17   55.39    9.20
  -3   3 -17   -1.40   21.00
  -3  -2  17  191.48   33.80
  -3  -2  17  126.89   22.90
   2   2 -17  141.29   12.50
  -2  -2  17  128.99   22.50
   1   2 -17   93.99   13.70
  -1  -2  17   87.29   17.10
   0   2 -17   40.70   12.00
   0   2 -17   41.60   13.00
   0  -2  17   47.00   12.50
  -1   2 -17   53.89   13.80
  -1   2 -17   50.39   11.70
   1  -2  17   71.89   13.30
   1  -2  17   52.19   11.70
  -2   2 -17   27.70   12.30
   2  -2  17   60.69   10.00
   2  -2  17   26.20   12.10
  -3   2 -17   74.39   18.70
   3  -2  17   57.39   20.70
   3   1 -17   49.30    9.20
  -3  -1  17    9.30   11.70
  -3  -1  17   70.29   18.40
   2   1 -17   -9.40    4.70
  -2  -1  17   -5.80    9.90
   1   1 -17  423.66   25.30
  -1  -1  17  345.47   28.00
   0   1 -17   55.49   12.40
   0   1 -17   86.09   16.70
   0  -1  17   78.59   12.40
   0  -1  17   62.79   13.30
  -1   1 -17   76.89   14.40
  -1   1 -17  111.89   18.40
   1  -1  17  108.69   15.60
   1  -1  17  102.59   13.90
  -2   1 -17   81.99   11.90
  -2   1 -17   77.09   18.50
   2  -1  17   86.29   15.00
   2  -1  17  102.99   19.20
  -3   1 -17  357.16   31.90
   3  -1  17  239.18   27.90
  -4   1 -17   60.09   18.40
   3   0 -17   91.39   11.30
  -3   0  17  100.89   21.80
  -3   0  17   70.99   19.20
   2   0 -17    0.30    6.00
  -2   0  17   10.40   10.70
  -2   0  17    3.10   10.40
   1   0 -17   10.10    6.90
  -1   0  17    0.20    9.70
   0   0 -17    6.00    7.50
   0   0 -17   -1.30   10.60
   0   0  17   10.00    8.80
   0   0  17    4.70    6.50
  -1   0 -17  109.19   17.50
  -1   0 -17  121.09   17.00
   1   0  17  101.79   15.30
   1   0  17  116.19   13.00
  -2   0 -17   28.40   12.00
  -2   0 -17   16.60    7.40
   2   0  17    9.90    7.30
   2   0  17    9.50    8.70
  -3   0 -17    0.50    9.10
  -4   0 -17  285.97   32.20
   3  -1 -17   93.99   13.50
  -3   1  17  125.29   21.30
  -3   1  17  104.99   21.60
   2  -1 -17  326.37   22.10
  -2   1  17  311.27   29.90
  -2   1  17  307.07   29.80
   1  -1 -17   16.00    8.30
  -1   1  17   20.20   11.10
  -1   1  17   13.80   10.40
   0  -1 -17  576.74   33.50
   0   1  17  636.74   50.99
   0   1  17  520.35   26.60
  -1  -1 -17  222.08   22.20
  -1  -1 -17  251.17   24.50
   1   1  17  216.08   15.70
   1   1  17  183.38   19.50
  -2  -1 -17   52.09   10.30
  -2  -1 -17   41.00   12.80
   2   1  17   55.49   11.20
   2   1  17   38.70   14.80
  -3  -1 -17   32.20   12.40
  -3  -1 -17   35.50    6.60
  -4  -1 -17   -6.50    9.60
   3  -2 -17   15.50    9.30
  -3   2  17   39.00   14.00
  -3   2  17   -3.70   11.30
   2  -2 -17   93.69   14.80
  -2   2  17   71.39   17.10
  -2   2  17  108.69   20.60
   1  -2 -17   25.50   14.70
  -1   2  17   16.50   10.60
  -1   2  17   11.10   10.80
   0  -2 -17  107.79   17.30
   0   2  17   81.19   16.30
   0   2  17   64.49   10.70
   0   2  17   80.29   14.10
  -1  -2 -17  152.68   18.50
  -1  -2 -17  130.19   19.80
   1   2  17  147.29   19.00
   1   2  17  139.39   16.30
  -2  -2 -17   44.20   11.20
  -2  -2 -17   54.19   14.80
  -3  -2 -17  125.89   14.60
  -3  -2 -17  128.79   21.40
  -4  -2 -17   23.90   12.70
   2  -3 -17   33.80   10.30
  -2   3  17    3.70   11.30
  -2   3  17   31.60   14.10
   1  -3 -17  324.17   24.40
  -1   3  17  289.07   28.10
  -1   3  17  228.78   22.90
   0  -3 -17   63.99   13.70
   0   3  17   98.69   10.70
   0   3  17   66.09   15.80
   0   3  17   86.59   14.00
  -1  -3 -17   78.39   15.30
   1   3  17   78.99    8.60
   1   3  17   86.69   21.70
   1   3  17   75.29    9.30
  -2  -3 -17  188.28   21.10
  -2  -3 -17  145.29   21.40
  -3  -3 -17   80.89   12.30
  -3  -3 -17   80.29   17.70
  -4  -3 -17   71.79   15.20
   2  -4 -17   -2.40    8.00
  -2   4  17    1.30   11.60
  -2   4  17    8.90   10.70
   1  -4 -17   27.80   10.10
  -1   4  17   18.80   10.80
  -1   4  17   26.30   13.10
   0  -4 -17   27.60    9.50
   0   4  17   18.90    6.30
   0   4  17   21.30   11.40
   0   4  17    4.10    7.60
  -1  -4 -17  185.48   20.80
   1   4  17  181.78   22.40
  -2  -4 -17   97.59   18.50
  -2  -4 -17  113.19   17.20
  -3  -4 -17   93.49   22.40
  -4  -4 -17   12.10   18.90
   2  -5 -17   89.49   17.40
  -2   5  17   53.09   16.40
  -2   5  17   56.49   16.60
   1  -5 -17   26.00   11.70
  -1   5  17   28.90   14.20
  -1   5  17   36.80   12.80
   0  -5 -17   20.70   10.30
   0   5  17  -11.80    7.00
   0   5  17    7.50   12.20
  -1  -5 -17  158.18   23.40
   1   5  17  133.69   22.10
  -2  -5 -17  362.86   29.20
  -3  -5 -17   12.50    9.00
  -3  -5 -17   -6.50   13.30
   1  -6 -17   31.70   11.50
  -1   6  17   20.60   15.70
  -1   6  17   14.70   12.70
   0  -6 -17  821.72   46.10
   0   6  17  876.91   51.19
  -1  -6 -17  378.26   30.00
  -2  -6 -17   84.59   16.40
  -3  -6 -17   71.99   17.70
   0  -7 -17   91.59   18.10
   0   7  17   77.29   18.30
  -1  -7 -17  475.65   35.70
  -2  -7 -17   21.20    9.80
   1   6 -18  -41.00   14.90
   1   6 -18   -0.70    9.50
  -1  -6  18   -2.10    9.90
  -1  -6  18   -6.40   11.70
   0   6 -18  -11.60    8.70
   0  -6  18   -7.40    9.90
   0  -6  18  -17.00   13.20
  -1   6 -18    2.00   10.30
   1  -6  18   24.50   16.00
   1  -6  18    6.90   10.90
  -2  -5  18   12.80   14.40
   1   5 -18   26.20   10.30
   1   5 -18    3.20   15.40
  -1  -5  18   12.30   11.90
  -1  -5  18   38.70   13.20
   0   5 -18   76.29   16.00
   0  -5  18   77.79   21.80
   0  -5  18  104.19   17.40
  -1   5 -18   -7.80    9.70
   1  -5  18    7.50    9.80
   1  -5  18   15.10   14.30
   2   4 -18  -14.80   10.60
   2   4 -18    5.50    7.40
  -2  -4  18   12.20   15.20
  -2  -4  18    1.50   12.20
   1   4 -18   30.50   10.30
  -1  -4  18   36.70   16.00
  -1  -4  18   54.39   15.60
   0   4 -18   60.69   14.70
   0  -4  18  103.69   18.20
   0  -4  18   71.19   19.10
  -1   4 -18   19.10   11.80
   1  -4  18    5.50    8.80
  -2   4 -18   76.19   19.10
   2  -4  18   34.20   14.10
  -3  -3  18  296.57   32.70
   2   3 -18  171.88   14.10
  -2  -3  18  193.28   22.80
   1   3 -18  110.09   15.00
  -1  -3  18   93.39   18.20
  -1  -3  18   58.89   17.50
   0   3 -18  113.49   17.50
   0  -3  18  108.39   18.10
  -1   3 -18   53.29   15.30
   1  -3  18   89.29   14.70
  -2   3 -18  150.68   26.10
  -3   3 -18  416.86   38.20
  -3  -2  18    5.30   13.70
  -3  -2  18   22.90   16.00
   2   2 -18   33.30    8.50
  -2  -2  18   53.89   16.30
   1   2 -18    1.00    5.80
  -1  -2  18   12.70   11.10
   0   2 -18    8.10    9.20
   0  -2  18   -0.50   10.30
  -1   2 -18  203.98   22.70
  -1   2 -18  157.48   19.50
   1  -2  18  166.98   20.50
   1  -2  18  161.08   17.80
  -2   2 -18   36.20   13.70
   2  -2  18   49.99   15.80
  -3   2 -18    3.20   11.70
  -3  -1  18  247.98   30.30
  -3  -1  18  176.18   26.60
   2   1 -18  458.15   24.50
  -2  -1  18  397.46   33.30
   1   1 -18   -4.10    7.00
  -1  -1  18   -9.40   10.40
   0   1 -18   93.29   16.50
   0  -1  18   69.69   16.60
   0  -1  18   74.39   12.40
  -1   1 -18  -16.50    8.30
  -1   1 -18    3.70    8.40
   1  -1  18   -6.90    7.70
   1  -1  18   11.50    8.70
  -2   1 -18  106.49   21.30
  -2   1 -18  120.59   13.70
   2  -1  18   97.49   13.30
   2  -1  18   98.79   19.30
  -3   1 -18   66.29   17.30
  -3   0  18  124.19   37.60
  -3   0  18   71.49   19.80
   2   0 -18  349.07   22.40
  -2   0  18  336.77   30.50
  -2   0  18  328.07   30.80
   1   0 -18  472.25   28.40
  -1   0  18  467.15   34.20
   0   0 -18   33.30   10.80
   0   0  18   26.70    9.80
   0   0  18   30.80   11.60
  -1   0 -18   16.10   11.80
  -1   0 -18   28.50   11.40
   1   0  18   24.40   10.40
   1   0  18   23.80    8.90
  -2   0 -18  171.28   16.00
  -2   0 -18  197.18   23.10
   2   0  18  163.38   18.40
   2   0  18  184.18   16.40
  -3   0 -18  -11.70   17.10
   2  -1 -18   62.79   12.20
  -2   1  18   68.49   17.70
  -2   1  18   31.50   11.80
   1  -1 -18  291.97   26.80
  -1   1  18  229.78   24.00
   0  -1 -18   10.40    8.90
   0   1  18   -2.40    6.30
   0   1  18  -22.00    7.60
  -1  -1 -18    3.00    9.50
  -1  -1 -18   -6.10    7.50
   1   1  18   -7.70    5.90
   1   1  18   -6.10    8.50
  -2  -1 -18   -7.70    7.50
  -2  -1 -18   -6.30    6.30
   2   1  18   -8.60    7.40
  -3  -1 -18  -10.10   12.30
   2  -2 -18  310.07   23.90
  -2   2  18  260.77   29.00
  -2   2  18  298.37   33.30
   1  -2 -18   46.70   12.10
  -1   2  18   23.70   12.00
  -1   2  18   57.49   15.10
   0  -2 -18  357.86   26.70
   0   2  18  330.77   20.00
   0   2  18  286.97   22.80
   0   2  18  345.07   28.30
  -1  -2 -18  220.78   21.70
   1   2  18  229.48   15.50
   1   2  18  205.38   23.20
  -2  -2 -18   16.50   10.30
  -2  -2 -18  -14.90    8.60
   2   2  18  -12.50    5.30
  -3  -2 -18   24.60    9.00
  -3  -2 -18   32.50   12.90
   2  -3 -18    1.90    8.70
  -2   3  18  -31.70   10.60
  -2   3  18   -8.60   11.80
   1  -3 -18   12.00    9.70
  -1   3  18   -3.50   10.00
  -1   3  18    2.00   10.70
   0  -3 -18   32.40   11.60
   0   3  18   25.40   14.40
   0   3  18   23.40    9.30
   0   3  18   30.30    8.60
  -1  -3 -18   -2.60    7.10
   1   3  18    3.90   10.80
   1   3  18   -8.30    5.20
  -2  -3 -18   38.70   12.20
  -2  -3 -18   15.50   10.70
  -3  -3 -18    1.70   14.60
  -3  -3 -18    9.00   11.40
   2  -4 -18   89.59   16.50
  -2   4  18   38.70   15.90
  -2   4  18   80.19   19.80
   1  -4 -18    9.70    8.90
  -1   4  18  -12.70   10.20
  -1   4  18   11.50   10.90
   0  -4 -18  358.56   27.80
   0   4  18  288.87   21.40
   0   4  18  318.17   18.90
   0   4  18  314.67   30.00
  -1  -4 -18   11.80    9.40
   1   4  18  -12.70   10.90
  -2  -4 -18   25.50   11.10
  -3  -4 -18   26.50   13.00
   1  -5 -18  217.78   22.60
  -1   5  18   96.19   20.20
  -1   5  18  143.89   19.90
   0  -5 -18  222.18   22.10
   0   5  18  188.78   15.40
   0   5  18  148.99   23.30
   0   5  18  152.78   16.40
  -1  -5 -18  100.99   18.00
   1   5  18   93.79   19.10
  -2  -5 -18   14.60    8.40
  -3  -5 -18   19.60   10.50
   0  -6 -18   49.90   18.40
  -1  -6 -18   15.60   10.30
  -2  -6 -18   64.89   15.90
  -1  -7 -18  534.05   38.60
   1   5 -19  271.37   22.50
   1   5 -19  220.58   46.10
  -1  -5  19  267.87   27.60
   0   5 -19  -11.90    9.80
   0  -5  19    4.60   13.60
   0  -5  19  -13.20   10.10
  -1   5 -19   -2.00   11.20
   1  -5  19  -13.70    9.90
   2   4 -19  -19.40    6.40
  -2  -4  19   -1.20   11.80
  -2  -4  19  -12.40   10.90
   1   4 -19    3.90    9.50
  -1  -4  19  -24.60   11.80
  -1  -4  19   17.30   11.90
   0   4 -19   46.50   13.70
   0  -4  19   42.60   13.40
  -1   4 -19   20.10   12.20
   1  -4  19   26.60   12.10
  -2   4 -19   25.40   14.20
   2   3 -19  119.59   14.10
  -2  -3  19  119.59   24.20
   1   3 -19   -3.00    7.50
  -1  -3  19  -23.80    8.80
   0   3 -19    1.50    8.20
   0  -3  19    9.20   10.10
  -1   3 -19   33.10   13.50
   1  -3  19   11.60    9.70
  -2   3 -19  231.98   35.20
   2   2 -19   44.50    9.90
  -2  -2  19   -4.70   20.00
   1   2 -19  125.59   17.00
  -1  -2  19  120.59   20.80
   0   2 -19   -8.90    8.10
   0  -2  19   15.60   11.10
  -1   2 -19   47.30   13.80
  -1   2 -19   61.99   13.90
   1  -2  19  102.29   16.40
  -2   2 -19   18.80   12.80
   2  -2  19   19.80    9.70
  -3   2 -19    5.40   10.90
   2   1 -19  371.56   23.10
  -2  -1  19  413.26   49.50
  -2  -1  19  352.86   33.80
   1   1 -19   75.89   13.30
  -1  -1  19   93.59   18.80
   0   1 -19  190.88   20.30
   0  -1  19  186.78   21.50
  -1   1 -19  150.68   20.10
  -1   1 -19  139.69   21.20
   1  -1  19  193.78   20.00
   1  -1  19  144.39   18.20
  -2   1 -19  131.29   15.20
  -2   1 -19  159.68   23.80
   2  -1  19  123.19   15.10
   2  -1  19  109.79   19.80
  -3   1 -19   18.60   12.40
   2   0 -19  263.37   20.80
  -2   0  19  272.37   30.10
  -2   0  19  282.57   29.10
   1   0 -19   92.49   15.10
  -1   0  19   58.39   17.40
   0   0 -19  159.18   18.30
   0   0  19  102.89   14.60
   0   0  19  114.39   18.50
  -1   0 -19   91.79   17.10
  -1   0 -19   81.49   16.80
   1   0  19   92.29   16.00
   1   0  19   91.79   14.30
  -2   0 -19   68.89   16.30
  -2   0 -19   41.20   11.10
   2   0  19   31.40   13.50
   2   0  19   62.69   12.50
  -3   0 -19   -8.70    9.40
  -2   1  19   25.60   13.90
  -2   1  19   29.80   15.00
   1  -1 -19  314.77   24.40
  -1   1  19  275.87   26.40
   0  -1 -19  387.56   28.50
   0   1  19  323.67   21.90
   0   1  19  367.26   27.00
   0   1  19  298.97   28.10
  -1  -1 -19   23.80    9.60
   1   1  19   28.20    9.80
   1   1  19   10.20   12.70
  -2  -1 -19   24.00   11.40
  -2  -1 -19   -5.40    9.10
   2   1  19  -22.30    9.70
   2   1  19   -6.60    9.70
  -3  -1 -19  107.59   21.90
   2  -2 -19   -5.50    8.10
  -2   2  19  -13.60   11.60
  -2   2  19  -22.60    9.40
   1  -2 -19    5.70    9.50
  -1   2  19    6.00   10.70
  -1   2  19  -10.50    9.80
   0  -2 -19  433.46   30.70
   0   2  19  364.66   22.50
   0   2  19  366.26   26.60
   0   2  19  358.76   31.10
  -1  -2 -19  173.98   20.00
   1   2  19  123.99   15.10
   1   2  19  149.79   21.10
   1   2  19  117.69   14.40
  -2  -2 -19   40.60   11.70
  -2  -2 -19   67.59   13.70
   2   2  19   36.10    8.30
   1  -3 -19   28.20   12.00
  -1   3  19   22.90   14.70
   0  -3 -19   30.10   11.90
   0   3  19   36.20   12.10
   0   3  19   27.90   10.00
   0   3  19   44.90   15.80
  -1  -3 -19  523.75   35.20
   1   3  19  446.66   22.30
   1   3  19  529.45   36.10
   1   3  19  504.65   21.80
  -3  -3 -19  -21.80    7.80
   1  -4 -19   59.79   14.20
  -1   4  19   52.09   17.90
  -1   4  19    8.70   12.60
   0  -4 -19  184.08   20.80
   0   4  19  144.99   17.00
   0   4  19   93.19   19.20
  -1  -4 -19  215.08   22.80
   1   4  19  181.68   25.90
  -2  -4 -19  -12.80    8.60
   0   5  19   26.00   11.40
  -1  -5 -19  243.38   26.00
   1   5  19  314.07   30.00
  -2  -5 -19   26.40   13.30
   0   4 -20   -0.90    9.70
   0  -4  20   11.90   12.00
  -1   4 -20   26.00   13.60
   1  -4  20    8.70   11.90
  -1  -3  20   18.60   13.20
   0   3 -20    8.30   10.30
   0  -3  20   28.00   13.10
  -1   3 -20    8.90   11.90
   1  -3  20   38.90   13.00
   1   2 -20   30.80   13.40
  -1  -2  20   26.50   13.50
   0   2 -20    6.50    9.70
   0  -2  20   26.90   13.30
  -1   2 -20  -25.90   11.10
  -1   2 -20  -17.80    8.80
   1  -2  20    7.00   10.40
  -2   2 -20   -2.90    9.30
   2  -2  20  -23.20   10.30
   1   1 -20   10.30    9.30
  -1  -1  20    5.90   11.60
   0   1 -20   93.99   17.20
   0  -1  20   94.59   17.50
  -1   1 -20    4.80    9.20
   1  -1  20  -17.90   10.70
  -2   1 -20   37.20   14.00
   2  -1  20   42.50   13.10
   2  -1  20   -4.30   19.50
   1   0 -20   63.29   14.10
  -1   0  20   61.99   15.90
  -1   0  20   55.89   16.70
   0   0 -20   51.99   12.90
   0   0  20   24.90   13.60
  -1   0 -20  146.09   22.70
   1   0  20  118.89   18.70
   1   0  20  172.78   25.90
  -2   0 -20  264.47   27.20
   2   0  20  251.07   30.80
   2   0  20  214.78   21.60
   1  -1 -20   68.99   14.90
  -1   1  20   50.39   16.20
  -1   1  20   49.00   16.30
   0  -1 -20    8.00    8.90
   0   1  20   -0.50    9.90
   0   1  20    1.00   11.10
   0   1  20   -1.70   10.40
  -1  -1 -20   57.69   15.30
   1   1  20   44.50   13.50
   1   1  20   54.19   15.40
  -2  -1 -20   64.89   16.50
   2   1  20   53.89   14.00
   1  -2 -20  186.98   21.50
  -1   2  20  197.88   24.30
  -1   2  20  160.38   35.90
   0  -2 -20   83.39   17.50
   0   2  20   15.80   21.40
   0   2  20   53.79   15.80
   0   2  20  101.49   19.10
  -1  -2 -20   15.10    9.60
   1   2  20   -8.50   10.70
   1   2  20   14.10    9.80
   1   2  20   24.50   13.10
  -2  -2 -20    8.10   10.40
   1  -3 -20   51.89   14.00
  -1   3  20   76.59   18.20
   0  -3 -20   -5.50    8.00
   0   3  20  -22.60   10.20
   0   3  20  -35.10   15.70
   0   3  20  -29.20   10.10
   1   3  20   -6.10    8.30
   1   3  20   -4.70   11.90
  -2  -3 -20   71.79   15.70
   0   4  20  -11.50   24.50
   0   4  20  -26.80   10.60
  -1  -4 -20   59.59   14.00
   1   4  20   50.09   16.90
   0   2 -21  -10.60    8.80
   0  -2  21   15.40   12.70
   0   1 -21   -4.00    8.80
   0  -1  21   13.20   11.00
  -1   1 -21   13.30   11.40
   1  -1  21  -22.00   11.30
   0   0 -21  265.57   24.60
   0   0  21  209.68   25.40
  -1   0 -21  152.68   24.40
   1   0  21  169.78   23.10
   0  -1 -21  157.08   22.00
   0   1  21  151.68   22.10
   0   1  21  154.58   26.50
   1   1  21   34.60   15.70
   0   2  21   17.80   14.00
  -1  -2 -21   13.80   12.00
   1   2  21  -31.60   11.00
   1   2  21    4.60   13.80
   0   0   0    0.00    0.00

_computing_structure_solution     'SHELXT 2014/5 (Sheldrick, 2014)'
;
_shelx_hkl_checksum              45117
loop_
_space_group_symop_operation_xyz
'x, y, z'
'-x, -y, -z'
loop_
_atom_site_label
_atom_site_type_symbol
_atom_site_fract_x
_atom_site_fract_y
_atom_site_fract_z
_atom_site_U_iso_or_equiv
_atom_site_adp_type
_atom_site_occupancy
_atom_site_site_symmetry_order
_atom_site_calc_flag
_atom_site_refinement_flags_posn
_atom_site_refinement_flags_adp
S1 S 0.87870(9) 0.17233(5) 0.40778(3) 0.01405(12) Uani 1 1 d . .
O1 O 0.8551(3) 0.03182(14) 0.40810(9) 0.0194(3) Uani 1 1 d . .
F1 F -0.2437(2) 0.63874(13) 0.79516(8) 0.0256(3) Uani 1 1 d . .
N1 N 0.2377(3) 0.49018(16) 0.74096(10) 0.0146(3) Uani 1 1 d . .
C1 C -0.0527(4) 0.6185(2) 0.84819(12) 0.0170(4) Uani 1 1 d . .
N2 N 0.4535(3) 0.38910(16) 0.73766(10) 0.0133(3) Uani 1 1 d . .
O2 O 1.1368(3) 0.21248(16) 0.39083(9) 0.0217(3) Uani 1 1 d . .
F2 F -0.1715(3) 0.58826(13) 0.92028(8) 0.0269(3) Uani 1 1 d . .
C2 C 0.1724(4) 0.50987(19) 0.82070(12) 0.0145(4) Uani 1 1 d . .
N3 N 0.6885(4) 0.24486(18) 0.34113(10) 0.0159(4) Uani 1 1 d . .
H3A H 0.526(5) 0.232(2) 0.3472(15) 0.025(7) Uiso 1 1 d . .
H3 H 0.331(5) 0.417(2) 0.9264(15) 0.020(6) Uiso 1 1 d . .
C3 C 0.3414(4) 0.4240(2) 0.86843(12) 0.0159(4) Uani 1 1 d . .
F3 F 0.0268(3) 0.73742(12) 0.85907(9) 0.0291(3) Uani 1 1 d . .
C4 C 0.5233(4) 0.34554(19) 0.81364(12) 0.0141(4) Uani 1 1 d . .
H4B H 0.717(5) 0.329(3) 0.3302(15) 0.030(7) Uiso 1 1 d . .
C5 C 0.7515(4) 0.24048(19) 0.83120(12) 0.0141(4) Uani 1 1 d . .
C6 C 0.8836(4) 0.1441(2) 0.77494(13) 0.0184(4) Uani 1 1 d . .
H6 H 0.833(5) 0.141(2) 0.7212(15) 0.021(6) Uiso 1 1 d . .
C7 C 1.0995(4) 0.0491(2) 0.79631(13) 0.0179(4) Uani 1 1 d . .
H7 H 1.188(4) -0.018(2) 0.7558(14) 0.018(6) Uiso 1 1 d . .
C8 C 1.1904(4) 0.0465(2) 0.87435(12) 0.0160(4) Uani 1 1 d . .
C9 C 1.0550(4) 0.1416(2) 0.93104(13) 0.0179(4) Uani 1 1 d . .
H9 H 1.118(4) 0.143(2) 0.9858(14) 0.017(6) Uiso 1 1 d . .
C10 C 0.8417(4) 0.2371(2) 0.91050(13) 0.0176(4) Uani 1 1 d . .
H10 H 0.756(4) 0.308(2) 0.9524(14) 0.018(6) Uiso 1 1 d . .
C11 C 1.4290(4) -0.0552(2) 0.89545(13) 0.0193(4) Uani 1 1 d . .
H11A H 1.5836 -0.0091 0.9005 0.029 Uiso 1 1 calc R U
H11B H 1.4719 -0.1243 0.8522 0.029 Uiso 1 1 calc R U
H11C H 1.3867 -0.0982 0.9474 0.029 Uiso 1 1 calc R U
C12 C 0.5582(4) 0.33864(19) 0.65757(12) 0.0138(4) Uani 1 1 d . .
C13 C 0.4469(4) 0.2361(2) 0.62362(12) 0.0152(4) Uani 1 1 d . .
H13 H 0.308(5) 0.201(2) 0.6547(14) 0.017(6) Uiso 1 1 d . .
C14 C 0.5454(4) 0.1850(2) 0.54699(12) 0.0162(4) Uani 1 1 d . .
H14 H 0.469(4) 0.113(2) 0.5237(14) 0.018(6) Uiso 1 1 d . .
C15 C 0.7522(4) 0.23950(19) 0.50577(12) 0.0136(4) Uani 1 1 d . .
C17 C 0.7619(4) 0.3944(2) 0.61643(13) 0.0169(4) Uani 1 1 d . .
H17 H 0.833(5) 0.463(2) 0.6431(14) 0.021(6) Uiso 1 1 d . .
C16 C 0.8603(4) 0.3436(2) 0.53941(13) 0.0170(4) Uani 1 1 d . .
H16 H 1.000(5) 0.377(2) 0.5092(14) 0.022(6) Uiso 1 1 d . .
loop_
_atom_site_aniso_label
_atom_site_aniso_U_11
_atom_site_aniso_U_22
_atom_site_aniso_U_33
_atom_site_aniso_U_23
_atom_site_aniso_U_13
_atom_site_aniso_U_12
S1 0.0129(2) 0.0163(2) 0.0124(2) -0.00108(18) 0.00053(17) -0.00162(18)
O1 0.0266(8) 0.0137(7) 0.0168(7) -0.0009(6) 0.0010(6) -0.0009(6)
F1 0.0213(6) 0.0281(7) 0.0247(7) -0.0035(5) -0.0058(5) 0.0053(5)
N1 0.0149(8) 0.0110(8) 0.0170(8) 0.0003(6) -0.0012(7) 0.0001(6)
C1 0.0192(10) 0.0157(10) 0.0161(10) -0.0005(8) 0.0000(8) -0.0029(8)
N2 0.0154(8) 0.0123(8) 0.0111(8) 0.0002(6) -0.0005(6) 0.0008(6)
O2 0.0129(7) 0.0324(9) 0.0201(8) -0.0044(7) 0.0023(6) -0.0060(6)
F2 0.0274(7) 0.0291(7) 0.0199(6) 0.0014(5) 0.0089(5) 0.0030(6)
C2 0.0154(9) 0.0131(9) 0.0149(10) -0.0001(8) 0.0008(8) -0.0025(8)
N3 0.0145(9) 0.0180(9) 0.0154(9) 0.0033(7) -0.0014(7) -0.0028(7)
C3 0.0193(10) 0.0159(10) 0.0124(10) 0.0014(8) 0.0000(8) -0.0027(8)
F3 0.0268(7) 0.0151(6) 0.0441(8) -0.0089(6) 0.0043(6) -0.0029(5)
C4 0.0167(9) 0.0134(9) 0.0125(9) 0.0010(7) 0.0001(8) -0.0034(8)
C5 0.0158(9) 0.0137(9) 0.0129(9) 0.0019(7) -0.0002(7) -0.0023(8)
C6 0.0230(11) 0.0177(10) 0.0139(10) 0.0006(8) -0.0013(8) -0.0016(8)
C7 0.0197(10) 0.0163(10) 0.0163(10) -0.0017(8) 0.0009(8) 0.0006(8)
C8 0.0163(9) 0.0137(10) 0.0184(10) 0.0022(8) -0.0013(8) -0.0040(8)
C9 0.0216(10) 0.0175(10) 0.0150(10) 0.0000(8) -0.0047(8) -0.0031(8)
C10 0.0206(10) 0.0146(10) 0.0169(10) -0.0002(8) -0.0005(8) -0.0010(8)
C11 0.0182(10) 0.0173(10) 0.0216(11) 0.0008(8) -0.0027(8) 0.0001(8)
C12 0.0159(9) 0.0130(9) 0.0111(9) 0.0000(7) -0.0010(7) 0.0017(7)
C13 0.0154(9) 0.0160(10) 0.0139(10) 0.0015(8) 0.0016(8) -0.0029(8)
C14 0.0177(10) 0.0153(10) 0.0163(10) 0.0001(8) -0.0023(8) -0.0042(8)
C15 0.0136(9) 0.0148(9) 0.0116(9) 0.0008(7) -0.0016(7) 0.0008(7)
C17 0.0198(10) 0.0155(10) 0.0162(10) -0.0012(8) -0.0015(8) -0.0049(8)
C16 0.0163(10) 0.0176(10) 0.0178(10) 0.0004(8) 0.0013(8) -0.0058(8)
loop_
_atom_type_symbol
_atom_type_description
_atom_type_scat_dispersion_real
_atom_type_scat_dispersion_imag
_atom_type_scat_source
C C 0.0033 0.0016 'International Tables Vol C Tables 4.2.6.8 and 6.1.1.4'
H H 0.0000 0.0000 'International Tables Vol C Tables 4.2.6.8 and 6.1.1.4'
F F 0.0171 0.0103 'International Tables Vol C Tables 4.2.6.8 and 6.1.1.4'
N N 0.0061 0.0033 'International Tables Vol C Tables 4.2.6.8 and 6.1.1.4'
O O 0.0106 0.0060 'International Tables Vol C Tables 4.2.6.8 and 6.1.1.4'
S S 0.1246 0.1234 'International Tables Vol C Tables 4.2.6.8 and 6.1.1.4'
loop_
_geom_angle_atom_site_label_1
_geom_angle_atom_site_label_2
_geom_angle_atom_site_label_3
_geom_angle
O1 S1 O2 120.03(9)
O1 S1 N3 107.55(10)
O2 S1 N3 106.53(10)
O1 S1 C15 107.03(9)
O2 S1 C15 106.97(9)
N3 S1 C15 108.29(9)
C2 N1 N2 104.04(15)
F3 C1 F1 106.94(16)
F3 C1 F2 106.21(16)
F1 C1 F2 106.92(16)
F3 C1 C2 112.72(17)
F1 C1 C2 112.41(17)
F2 C1 C2 111.24(16)
N1 N2 C4 112.62(15)
N1 N2 C12 116.69(15)
C4 N2 C12 130.50(16)
N1 C2 C3 112.38(17)
N1 C2 C1 119.33(17)
C3 C2 C1 128.24(18)
S1 N3 H3A 114.6(17)
S1 N3 H4B 112.7(17)
H3A N3 H4B 117(2)
C4 C3 C2 105.54(18)
C4 C3 H3 126.6(14)
C2 C3 H3 127.8(14)
N2 C4 C3 105.43(17)
N2 C4 C5 126.09(17)
C3 C4 C5 128.44(18)
C6 C5 C10 117.66(18)
C6 C5 C4 124.55(18)
C10 C5 C4 117.78(17)
C7 C6 C5 120.90(19)
C7 C6 H6 117.3(14)
C5 C6 H6 121.8(14)
C8 C7 C6 121.50(19)
C8 C7 H7 119.1(13)
C6 C7 H7 119.4(13)
C7 C8 C9 117.54(18)
C7 C8 C11 120.52(18)
C9 C8 C11 121.93(18)
C10 C9 C8 121.59(19)
C10 C9 H9 119.6(13)
C8 C9 H9 118.8(13)
C9 C10 C5 120.79(19)
C9 C10 H10 119.0(13)
C5 C10 H10 120.1(13)
C8 C11 H11A 109.5
C8 C11 H11B 109.5
H11A C11 H11B 109.5
C8 C11 H11C 109.5
H11A C11 H11C 109.5
H11B C11 H11C 109.5
C17 C12 C13 122.04(18)
C17 C12 N2 119.72(17)
C13 C12 N2 118.23(17)
C14 C13 C12 119.41(18)
C14 C13 H13 121.8(14)
C12 C13 H13 118.7(13)
C13 C14 C15 118.81(18)
C13 C14 H14 119.4(13)
C15 C14 H14 121.8(13)
C16 C15 C14 121.63(18)
C16 C15 S1 119.92(15)
C14 C15 S1 118.45(15)
C12 C17 C16 118.62(19)
C12 C17 H17 118.4(14)
C16 C17 H17 123.0(14)
C15 C16 C17 119.47(18)
C15 C16 H16 118.6(14)
C17 C16 H16 121.9(14)
loop_
_geom_bond_atom_site_label_1
_geom_bond_atom_site_label_2
_geom_bond_distance
S1 O1 1.4315(15)
S1 O2 1.4374(14)
S1 N3 1.6023(18)
S1 C15 1.7774(19)
F1 C1 1.337(2)
N1 C2 1.332(2)
N1 N2 1.360(2)
C1 F3 1.334(2)
C1 F2 1.344(2)
C1 C2 1.486(3)
N2 C4 1.370(2)
N2 C12 1.441(2)
C2 C3 1.391(3)
N3 H3A 0.85(3)
N3 H4B 0.90(3)
C3 C4 1.385(3)
C3 H3 0.95(2)
C4 C5 1.474(3)
C5 C6 1.390(3)
C5 C10 1.407(3)
C6 C7 1.390(3)
C6 H6 0.94(2)
C7 C8 1.390(3)
C7 H7 0.98(2)
C8 C9 1.392(3)
C8 C11 1.506(3)
C9 C10 1.381(3)
C9 H9 0.98(2)
C10 H10 1.01(2)
C11 H11A 0.9800
C11 H11B 0.9800
C11 H11C 0.9800
C12 C17 1.385(3)
C12 C13 1.385(3)
C13 C14 1.385(3)
C13 H13 0.95(2)
C14 C15 1.391(3)
C14 H14 0.96(2)
C15 C16 1.388(3)
C17 C16 1.390(3)
C17 H17 0.95(2)
C16 H16 0.94(2)
loop_
_geom_hbond_atom_site_label_D
_geom_hbond_atom_site_label_H
_geom_hbond_atom_site_label_A
_geom_hbond_distance_DH
_geom_hbond_distance_HA
_geom_hbond_distance_DA
_geom_hbond_angle_DHA
_geom_hbond_site_symmetry_A
N3 H3A O2 0.85(3) 2.09(3) 2.922(2) 166(2) 1_455
C3 H3 F2 0.95(2) 2.59(2) 3.516(2) 165.2(19) 2_567
N3 H4B N1 0.90(3) 2.19(3) 3.038(2) 159(2) 2_666
C14 H14 O1 0.96(2) 2.56(2) 3.255(3) 129.0(17) 2_656
loop_
_geom_torsion_atom_site_label_1
_geom_torsion_atom_site_label_2
_geom_torsion_atom_site_label_3
_geom_torsion_atom_site_label_4
_geom_torsion
C2 N1 N2 C4 0.1(2)
C2 N1 N2 C12 175.68(16)
N2 N1 C2 C3 0.1(2)
N2 N1 C2 C1 177.71(17)
F3 C1 C2 N1 -89.4(2)
F1 C1 C2 N1 31.6(3)
F2 C1 C2 N1 151.46(18)
F3 C1 C2 C3 87.8(3)
F1 C1 C2 C3 -151.2(2)
F2 C1 C2 C3 -31.3(3)
N1 C2 C3 C4 -0.2(2)
C1 C2 C3 C4 -177.59(19)
N1 N2 C4 C3 -0.2(2)
C12 N2 C4 C3 -175.05(19)
N1 N2 C4 C5 -178.17(18)
C12 N2 C4 C5 7.0(3)
C2 C3 C4 N2 0.3(2)
C2 C3 C4 C5 178.14(19)
N2 C4 C5 C6 -19.1(3)
C3 C4 C5 C6 163.4(2)
N2 C4 C5 C10 161.11(19)
C3 C4 C5 C10 -16.4(3)
C10 C5 C6 C7 -0.8(3)
C4 C5 C6 C7 179.35(19)
C5 C6 C7 C8 0.3(3)
C6 C7 C8 C9 0.8(3)
C6 C7 C8 C11 -178.49(19)
C7 C8 C9 C10 -1.4(3)
C11 C8 C9 C10 177.96(19)
C8 C9 C10 C5 0.8(3)
C6 C5 C10 C9 0.3(3)
C4 C5 C10 C9 -179.84(18)
N1 N2 C12 C17 92.0(2)
C4 N2 C12 C17 -93.3(3)
N1 N2 C12 C13 -87.0(2)
C4 N2 C12 C13 87.6(3)
C17 C12 C13 C14 1.5(3)
N2 C12 C13 C14 -179.47(17)
C12 C13 C14 C15 -0.7(3)
C13 C14 C15 C16 -0.3(3)
C13 C14 C15 S1 179.55(15)
O1 S1 C15 C16 147.79(16)
O2 S1 C15 C16 17.94(19)
N3 S1 C15 C16 -96.53(18)
O1 S1 C15 C14 -32.03(18)
O2 S1 C15 C14 -161.88(15)
N3 S1 C15 C14 83.65(17)
C13 C12 C17 C16 -1.3(3)
N2 C12 C17 C16 179.72(18)
C14 C15 C16 C17 0.5(3)
S1 C15 C16 C17 -179.31(16)
C12 C17 C16 C15 0.3(3)
