#------------------------------------------------------------------------------
#$Date: 2019-11-04 17:50:46 +0200 (Mon, 04 Nov 2019) $
#$Revision: 223186 $
#$URL: file:///home/coder/svn-repositories/cod/cif/4/00/29/4002920.cif $
#------------------------------------------------------------------------------
#
# This file is available in the Crystallography Open Database (COD),
# http://www.crystallography.net/
#
# All data on this site have been placed in the public domain by the
# contributors.
#
data_4002920
loop_
_publ_author_name
'Yin, Jinlin'
'Yang, Huimin'
'Fei, Honghan'
_publ_section_title
;
 Robust, Cationic Lead Halide Layered Materials with Efficient Broadband
 White-Light Emission
;
_journal_issue                   11
_journal_name_full               'Chemistry of Materials'
_journal_page_first              3909
_journal_paper_doi               10.1021/acs.chemmater.8b05345
_journal_volume                  31
_journal_year                    2019
_chemical_formula_moiety         'C4 H5 Br O2 Pb'
_chemical_formula_sum            'C4 H5 Br O2 Pb'
_chemical_formula_weight         372.18
_space_group_crystal_system      monoclinic
_space_group_IT_number           14
_space_group_name_Hall           '-P 2ybc'
_space_group_name_H-M_alt        'P 1 21/c 1'
_symmetry_space_group_name_Hall  '-P 2ybc'
_symmetry_space_group_name_H-M   'P 1 21/c 1'
_atom_sites_solution_hydrogens   geom
_audit_creation_date             2018-04-07
_audit_creation_method
;
  Olex2 1.2-ac2
  (compiled Nov  7 2012 10:32:32, GUI svn.r4372)
;
_cell_angle_alpha                90
_cell_angle_beta                 98.128(9)
_cell_angle_gamma                90
_cell_formula_units_Z            4
_cell_length_a                   11.936(3)
_cell_length_b                   6.0077(13)
_cell_length_c                   9.478(2)
_cell_measurement_reflns_used    4306
_cell_measurement_temperature    295(2)
_cell_measurement_theta_max      27.46
_cell_measurement_theta_min      3.45
_cell_volume                     672.8(3)
_computing_molecular_graphics
;
O. V. Dolomanov, L. J. Bourhis, R. J. Gildea, J. A. K. Howard and H. Puschmann,
OLEX2: a complete structure solution, refinement and analysis program.
J. Appl. Cryst. (2009). 42, 339-341.
;
_computing_publication_material
;
O. V. Dolomanov, L. J. Bourhis, R. J. Gildea, J. A. K. Howard and H. Puschmann,
OLEX2: a complete structure solution, refinement and analysis program.
J. Appl. Cryst. (2009). 42, 339-341.
;
_computing_structure_refinement  'SHELXL-2016/6 (Sheldrick, 2016)'
_computing_structure_solution    'SHELXT 2014/5 (Sheldrick, 2014)'
_diffrn_ambient_temperature      295(2)
_diffrn_measured_fraction_theta_full 0.999
_diffrn_measured_fraction_theta_max 0.996
_diffrn_measurement_device_type  'Bruker APEX-III CMOS'
_diffrn_measurement_method       '\f and \w scans'
_diffrn_radiation_type           MoK\a
_diffrn_radiation_wavelength     0.71073
_diffrn_reflns_av_R_equivalents  0.0587
_diffrn_reflns_av_unetI/netI     0.0364
_diffrn_reflns_Laue_measured_fraction_full 0.999
_diffrn_reflns_Laue_measured_fraction_max 0.996
_diffrn_reflns_limit_h_max       15
_diffrn_reflns_limit_h_min       -15
_diffrn_reflns_limit_k_max       8
_diffrn_reflns_limit_k_min       -7
_diffrn_reflns_limit_l_max       11
_diffrn_reflns_limit_l_min       -12
_diffrn_reflns_number            10407
_diffrn_reflns_point_group_measured_fraction_full 0.999
_diffrn_reflns_point_group_measured_fraction_max 0.996
_diffrn_reflns_theta_full        25.242
_diffrn_reflns_theta_max         28.339
_diffrn_reflns_theta_min         3.448
_diffrn_standards_number         0
_exptl_absorpt_coefficient_mu    30.923
_exptl_absorpt_correction_T_max  0.7456
_exptl_absorpt_correction_T_min  0.3580
_exptl_absorpt_correction_type   multi-scan
_exptl_absorpt_process_details
;
? was used for absorption correction.
wR2(int) was 0.1699 before and 0.0776 after correction.
The Ratio of minimum to maximum transmission is 0.4802.
The \l/2 correction factor is Not present.
;
_exptl_crystal_colour            colourless
_exptl_crystal_colour_primary    colourless
_exptl_crystal_density_diffrn    3.674
_exptl_crystal_description       sheet
_exptl_crystal_F_000             648
_refine_diff_density_max         2.385
_refine_diff_density_min         -1.168
_refine_diff_density_rms         0.314
_refine_ls_extinction_method     none
_refine_ls_goodness_of_fit_ref   1.051
_refine_ls_hydrogen_treatment    constr
_refine_ls_matrix_type           full
_refine_ls_number_parameters     73
_refine_ls_number_reflns         1666
_refine_ls_number_restraints     0
_refine_ls_restrained_S_all      1.051
_refine_ls_R_factor_all          0.0780
_refine_ls_R_factor_gt           0.0497
_refine_ls_shift/su_max          0.000
_refine_ls_shift/su_mean         0.000
_refine_ls_structure_factor_coef Fsqd
_refine_ls_weighting_details
'w=1/[\s^2^(Fo^2^)+(0.0697P)^2^+5.4723P] where P=(Fo^2^+2Fc^2^)/3'
_refine_ls_weighting_scheme      calc
_refine_ls_wR_factor_gt          0.1251
_refine_ls_wR_factor_ref         0.1431
_reflns_Friedel_coverage         0.000
_reflns_number_gt                1014
_reflns_number_total             1666
_reflns_threshold_expression     'I > 2\s(I)'
_cod_data_source_file            cm8b05345_si_003.cif
_cod_data_source_block           P21c_b
_cod_depositor_comments
'Adding full bibliography for 4002920--4002921.cif.'
_cod_database_code               4002920
_olex2_refinement_description
;
1. Others
 Fixed Uiso: H2(0.069) H3A(0.076) H3AB(0.076) H4A(0.071) H4AB(0.071)
 Fixed X: H2(0.396874) H3A(0.386914) H3AB(0.32356) H4A(0.492935) H4AB(0.49528)
 Fixed Y: H2(0.288623) H3A(0.700569) H3AB(0.657096) H4A(0.861396) H4AB(0.635116)
 Fixed Z: H2(-0.442848) H3A(-0.598544) H3AB(-0.466761) H4A(-0.398329) H4AB(-
 0.315055)
;
_shelx_res_file
;
TITL P21c_d   P21/c
    P21c_b.res
    created by SHELXL-2016/6 at 16:04:05 on 26-Jan-2018
CELL  0.71073   11.9360    6.0077    9.4780    90.000    98.128    90.000
ZERR        4    0.0030    0.0013    0.0020     0.000     0.009     0.000
LATT   1
SYMM             - X ,    0.50000 + Y ,    0.50000 - Z
SFAC  C  H Br  O Pb
UNIT 16 20 4 8 4
LIST 4
TEMP  22.00
L.S. 5
FMAP 2
PLAN 20
ACTA
BOND $H
CONF
WGHT    0.069700    5.472300
FVAR       0.21981
PB1   5    0.108185    0.253820   -0.365457    11.00000    0.04323    0.04424 =
         0.04255    0.00159    0.00410    0.00033
BR1   3    0.102442    0.748558   -0.337082    11.00000    0.05569    0.04997 =
         0.07989   -0.00379    0.01425   -0.00004
O1    4    0.198627    0.273594   -0.585766    11.00000    0.03936    0.09017 =
         0.04255   -0.00055    0.00282   -0.00393
O2    4    0.295290    0.269379   -0.761227    11.00000    0.04954    0.11419 =
         0.04290   -0.02073    0.00507   -0.00047
C1    1    0.291758    0.294787   -0.634492    11.00000    0.03418    0.07704 =
         0.05757   -0.01358    0.01174   -0.00356
C2    1    0.397669    0.364321   -0.534291    11.00000    0.04288    0.08040 =
         0.05127    0.00278    0.01151   -0.01928
AFIX  13
H2    2    0.396874    0.288623   -0.442848    11.00000   -1.20000
AFIX   0
C3    1    0.391268    0.622653   -0.508296    11.00000    0.03995    0.07521 =
         0.07449   -0.02126    0.00959   -0.00304
AFIX  23
H3A   2    0.386914    0.700569   -0.598544    11.00000   -1.20000
H3AB  2    0.323560    0.657096   -0.466761    11.00000   -1.20000
AFIX   0
C4    1    0.495446    0.700882   -0.408493    11.00000    0.05190    0.08127 =
         0.04764   -0.00068    0.01611    0.01157
AFIX  23
H4A   2    0.492935    0.861396   -0.398329    11.00000   -1.20000
H4AB  2    0.495280    0.635116   -0.315055    11.00000   -1.20000
REM #####
AFIX   0
HKLF 4 1 -1.000  0.0000  0.0000  0.0000  1.0000  0.0000  0.0000  0.0000 -1.0000




REM  P21c_d   P21/c
REM R1 =  0.0497 for    1014 Fo > 4sig(Fo)  and  0.0780 for all    1666 data
REM     73 parameters refined using      0 restraints

END 
 
WGHT      0.0696      5.4773 

REM Highest difference peak  2.385,  deepest hole -1.168,  1-sigma level  0.314
;
_shelx_shelxl_version_number     2016/6
_shelx_space_group_comment
;
The symmetry employed for this shelxl refinement is uniquely defined
by the following loop, which should always be used as a source of
symmetry information in preference to the above space-group names.
They are only intended as comments.
;
loop_
_space_group_symop_operation_xyz
'x, y, z'
'-x, y+1/2, -z+1/2'
'-x, -y, -z'
'x, -y-1/2, z-1/2'
loop_
_atom_site_label
_atom_site_type_symbol
_atom_site_fract_x
_atom_site_fract_y
_atom_site_fract_z
_atom_site_U_iso_or_equiv
_atom_site_adp_type
_atom_site_occupancy
_atom_site_site_symmetry_order
_atom_site_calc_flag
_atom_site_refinement_flags_posn
_atom_site_refinement_flags_adp
Pb1 Pb 0.10818(4) 0.25382(7) -0.36546(5) 0.0435(2) Uani 1 1 d . .
Br1 Br 0.10244(13) 0.7486(2) -0.3371(2) 0.0614(4) Uani 1 1 d . .
O1 O 0.1986(8) 0.2736(17) -0.5858(10) 0.058(3) Uani 1 1 d . .
O2 O 0.2953(9) 0.2694(19) -0.7612(11) 0.069(3) Uani 1 1 d . .
C1 C 0.2918(12) 0.295(3) -0.6345(18) 0.056(4) Uani 1 1 d . .
C2 C 0.3977(13) 0.364(3) -0.5343(16) 0.058(4) Uani 1 1 d . .
H2 H 0.396874 0.288623 -0.442848 0.069 Uiso 1 1 calc R U
C3 C 0.3913(13) 0.623(3) -0.5083(18) 0.063(4) Uani 1 1 d . .
H3A H 0.386914 0.700569 -0.598544 0.076 Uiso 1 1 calc R U
H3AB H 0.323560 0.657096 -0.466761 0.076 Uiso 1 1 calc R U
C4 C 0.4954(14) 0.701(3) -0.4085(17) 0.059(4) Uani 1 1 d . .
H4A H 0.492935 0.861396 -0.398329 0.071 Uiso 1 1 calc R U
H4AB H 0.495280 0.635116 -0.315055 0.071 Uiso 1 1 calc R U
loop_
_atom_site_aniso_label
_atom_site_aniso_U_11
_atom_site_aniso_U_22
_atom_site_aniso_U_33
_atom_site_aniso_U_23
_atom_site_aniso_U_13
_atom_site_aniso_U_12
Pb1 0.0432(3) 0.0442(3) 0.0425(3) 0.0016(3) 0.00410(19) 0.0003(3)
Br1 0.0557(8) 0.0500(8) 0.0799(10) -0.0038(8) 0.0142(7) 0.0000(8)
O1 0.039(5) 0.090(8) 0.043(5) -0.001(5) 0.003(4) -0.004(5)
O2 0.050(6) 0.114(10) 0.043(5) -0.021(6) 0.005(4) 0.000(6)
C1 0.034(6) 0.077(10) 0.058(9) -0.014(8) 0.012(6) -0.004(7)
C2 0.043(8) 0.080(10) 0.051(8) 0.003(8) 0.012(6) -0.019(8)
C3 0.040(8) 0.075(11) 0.074(11) -0.021(9) 0.010(7) -0.003(8)
C4 0.052(8) 0.081(11) 0.048(8) -0.001(7) 0.016(6) 0.012(8)
loop_
_atom_type_symbol
_atom_type_description
_atom_type_scat_dispersion_real
_atom_type_scat_dispersion_imag
_atom_type_scat_source
C C 0.0033 0.0016 'International Tables Vol C Tables 4.2.6.8 and 6.1.1.4'
H H 0.0000 0.0000 'International Tables Vol C Tables 4.2.6.8 and 6.1.1.4'
Br Br -0.2901 2.4595 'International Tables Vol C Tables 4.2.6.8 and 6.1.1.4'
O O 0.0106 0.0060 'International Tables Vol C Tables 4.2.6.8 and 6.1.1.4'
Pb Pb -3.3944 10.1111 'International Tables Vol C Tables 4.2.6.8 and 6.1.1.4'
loop_
_geom_angle_atom_site_label_1
_geom_angle_atom_site_label_2
_geom_angle_atom_site_label_3
_geom_angle
_geom_angle_site_symmetry_1
_geom_angle_site_symmetry_3
Br1 Pb1 Br1 169.09(8) . 1_545
O1 Pb1 Br1 92.7(2) . .
O1 Pb1 Br1 82.2(2) 4_566 1_545
O1 Pb1 Br1 89.1(2) 4_566 .
O1 Pb1 Br1 98.0(2) . 1_545
O1 Pb1 O1 131.4(4) . 4_566
O2 Pb1 Br1 86.3(3) 4_566 1_545
O2 Pb1 Br1 93.1(3) 4_566 .
O2 Pb1 O1 49.8(3) 4_566 4_566
O2 Pb1 O1 81.6(3) 4_566 .
Pb1 Br1 Pb1 169.09(8) . 1_565
Pb1 O1 Pb1 131.0(4) . 4_565
C1 O1 Pb1 84.2(9) . 4_565
C1 O1 Pb1 144.8(10) . .
C1 O2 Pb1 105.2(10) . 4_565
O1 C1 C2 119.4(14) . .
O2 C1 O1 120.1(14) . .
O2 C1 C2 120.4(13) . .
C1 C2 H2 108.2 . .
C1 C2 C3 108.2(13) . .
C3 C2 H2 108.2 . .
C4 C2 C1 111.9(13) 3_664 .
C4 C2 H2 108.2 3_664 .
C4 C2 C3 112.0(12) 3_664 .
C2 C3 H3A 109.6 . .
C2 C3 H3AB 109.6 . .
H3A C3 H3AB 108.1 . .
C4 C3 C2 110.3(13) . .
C4 C3 H3A 109.6 . .
C4 C3 H3AB 109.6 . .
C2 C4 C3 110.7(13) 3_664 .
C2 C4 H4A 109.5 3_664 .
C2 C4 H4AB 109.5 3_664 .
C3 C4 H4A 109.5 . .
C3 C4 H4AB 109.5 . .
H4A C4 H4AB 108.1 . .
loop_
_geom_bond_atom_site_label_1
_geom_bond_atom_site_label_2
_geom_bond_distance
_geom_bond_site_symmetry_2
Pb1 Br1 2.9860(15) .
Pb1 Br1 3.0490(15) 1_545
Pb1 O1 2.485(10) .
Pb1 O1 2.722(9) 4_566
Pb1 O2 2.315(11) 4_566
O1 C1 1.269(17) .
O2 C1 1.217(18) .
C1 C2 1.53(2) .
C2 H2 0.9800 .
C2 C3 1.57(2) .
C2 C4 1.51(2) 3_664
C3 H3A 0.9700 .
C3 H3AB 0.9700 .
C3 C4 1.53(2) .
C4 H4A 0.9700 .
C4 H4AB 0.9700 .
loop_
_geom_torsion_atom_site_label_1
_geom_torsion_atom_site_label_2
_geom_torsion_atom_site_label_3
_geom_torsion_atom_site_label_4
_geom_torsion
_geom_torsion_site_symmetry_1
_geom_torsion_site_symmetry_4
Pb1 O1 C1 O2 171.7(11) . .
Pb1 O1 C1 O2 -7.7(15) 4_565 .
Pb1 O1 C1 C2 169.1(14) 4_565 .
Pb1 O1 C1 C2 -12(3) . .
Pb1 O2 C1 O1 9.3(18) 4_565 .
Pb1 O2 C1 C2 -167.4(12) 4_565 .
O1 C1 C2 C3 -77.7(17) . .
O1 C1 C2 C4 158.4(15) . 3_664
O2 C1 C2 C3 99.1(18) . .
O2 C1 C2 C4 -25(2) . 3_664
C1 C2 C3 C4 180.0(13) . .
C2 C3 C4 C2 55.4(19) . 3_664
C4 C2 C3 C4 -56.2(19) 3_664 .
loop_
_refln_index_h
_refln_index_k
_refln_index_l
_refln_F_squared_meas
_refln_F_squared_sigma
0 0 2 194.88 12.4
0 0 2 185.68 11.4
0 0 3 1.3 2.1
0 0 3 0.3 1.2
0 0 4 3483.35 190.08
0 0 4 3327.47 188.38
0 0 4 3391.56 190.48
0 0 5 1.4 1.5
0 0 5 2.5 2.6
0 0 5 2.6 2.6
0 0 6 353.56 23.3
0 0 6 366.26 21.4
0 0 6 357.16 23.3
0 0 7 -2.3 1.7
0 0 7 2.4 2.7
0 0 7 2.4 3
0 0 8 431.46 27
0 0 8 438.16 25.1
0 0 8 416.96 25
0 0 8 413.86 27.3
0 0 9 1 3.5
0 0 9 -2.9 1.8
0 0 9 -2.4 3.4
0 0 9 -1.8 2
0 0 10 108.09 8.3
0 0 10 90.49 12.4
0 0 10 108.19 11.4
0 0 10 103.39 8.1
0 0 10 113.59 11.3
0 0 11 1.4 2.3
0 0 11 -1.3 4
0 0 11 2.3 2.6
0 0 12 2 4.9
0 1 0 9.8 1.9
0 1 0 5.7 1.3
0 1 0 6.5 1.5
0 -1 0 11.9 2.3
0 -1 0 6.3 1.5
0 1 -1 84.29 5.4
0 1 -1 84.29 6.3
0 1 1 84.89 5.4
0 1 1 72.19 6.1
0 1 -1 82.79 6.4
0 -1 -1 78.49 5.2
0 -1 1 77.99 5.3
0 -1 -1 89.29 9.2
0 -1 1 86.69 6.5
0 -1 1 80.69 6.3
0 1 2 808.22 47.1
0 1 -2 831.42 47.5
0 1 2 829.32 46.8
0 -1 2 822.02 47.4
0 -1 -2 820.02 47.2
0 -1 2 823.72 47.7
0 1 3 2.3 1.9
0 1 -3 3.9 2.5
0 -1 3 -1.2 1.7
0 -1 3 1.6 2
0 1 -4 11.2 3.2
0 1 4 14.9 2.7
0 -1 4 8.8 3
0 -1 4 12.3 3.5
0 1 5 -0.7 2.5
0 1 5 -0.9 2.3
0 1 5 -0.2 1.8
0 1 -5 -1.2 2.1
0 -1 5 -0.3 2.2
0 -1 5 -3.2 2.3
0 1 -6 816.52 48.4
0 1 6 817.22 47.9
0 1 6 855.91 48
0 1 6 822.32 46.9
0 -1 6 788.32 48.5
0 -1 6 762.22 51.79
0 1 7 3.1 2.3
0 1 7 -0.4 2.8
0 1 7 -2.4 2.1
0 -1 7 0.3 2.9
0 -1 7 1.9 3.2
0 1 8 29.8 4.2
0 1 8 30.5 5.3
0 1 8 33.5 5.7
0 1 8 35.7 6.2
0 -1 8 32.2 6.1
0 -1 8 24.8 5.1
0 1 9 -1 3.1
0 1 9 -1.7 3.6
0 1 9 -1.6 3.7
0 -1 9 -1.4 3.9
0 1 10 208.18 13.6
0 1 10 223.18 16.3
0 1 10 191.78 15.5
0 1 10 209.88 15.4
0 1 10 202.98 13.4
0 -1 10 188.38 17.8
0 -1 10 190.08 16.5
0 1 11 1.3 2.4
0 1 11 2.2 3.2
0 1 11 3.5 4.7
0 -1 11 -0.4 4.5
0 1 12 42.4 6
0 1 12 34.2 4.9
0 1 12 52.79 8.9
0 -1 12 31.5 6.2
0 2 0 9704.33 520.15
0 2 0 9999 519.65
0 -2 0 8915.71 519.95
0 -2 0 8929.21 520.65
0 -2 0 9506.65 519.65
0 2 -1 5.2 2.5
0 2 -1 4.6 1.8
0 2 -1 5.8 2.2
0 2 1 5.5 2.3
0 -2 1 3.5 1.7
0 -2 -1 5.3 2
0 -2 1 2.8 2.6
0 -2 -1 -5 5.1
0 -2 1 7.6 2.6
0 2 -2 299.97 19
0 2 -2 283.57 17.5
0 2 2 293.17 18.9
0 -2 -2 311.67 21.4
0 -2 2 303.37 19.5
0 -2 2 292.77 19
0 2 3 1.3 2.1
0 2 3 0.6 4.8
0 2 -3 0.5 2.1
0 2 3 2.1 1.9
0 -2 3 1.4 3
0 -2 3 -0.7 2.4
0 2 -4 2565.24 149.99
0 2 4 2798.52 152.38
0 2 4 2691.23 148.99
0 2 4 2639.64 149.49
0 -2 4 2630.84 150.58
0 -2 4 2686.93 149.99
0 2 5 6.2 2.6
0 2 -5 7.6 3.6
0 2 5 2.8 4.6
0 2 5 11.2 3
0 -2 5 7.3 3.8
0 -2 5 0.1 3.2
0 2 6 251.67 16.4
0 2 -6 241.18 17
0 2 6 223.18 15.8
0 2 6 263.17 18.6
0 2 6 241.78 16.3
0 -2 6 234.48 16.9
0 -2 6 244.18 18
0 2 7 2.6 2.9
0 2 7 0 2.4
0 2 7 2.5 3.7
0 2 -7 3.8 3.1
0 2 7 -0.4 2.2
0 -2 7 -2.5 3.7
0 -2 7 2.8 3.3
0 2 8 320.07 21
0 2 8 341.07 22.4
0 2 8 301.57 20.6
0 2 8 321.97 20.4
0 2 8 321.67 21
0 2 -8 314.57 21.7
0 2 9 5.1 3.6
0 2 9 2.5 3.6
0 2 9 1 3.2
0 2 9 -1.2 3.1
0 2 9 2.4 3.8
0 -2 9 4.5 4.2
0 2 10 81.39 9.8
0 2 10 81.09 9
0 2 10 90.59 10.1
0 2 10 68.79 10.4
0 2 10 82.09 8.8
0 -2 10 100.99 10.4
0 2 11 -2.9 3.6
0 2 11 -4.6 4.4
0 2 11 -2.5 5.1
0 2 11 -1.2 3.8
0 -2 11 4 4.4
0 2 12 32.5 5.6
0 2 12 25.8 5.4
0 2 12 36.8 5.9
0 -2 12 32.1 6.3
0 3 0 -1.4 1.6
0 3 0 1.2 2.6
0 3 0 2.1 2.1
0 -3 0 -0.2 3
0 -3 0 2.2 2.7
0 3 1 73.29 7.5
0 3 -1 61.59 6.1
0 3 1 68.69 6.8
0 3 -1 68.49 6.9
0 -3 1 59.59 6.7
0 -3 -1 42.1 9.2
0 -3 1 77.69 7.4
0 3 -2 633.14 38.8
0 3 2 687.23 39.2
0 3 -2 668.73 37.9
0 3 2 635.04 39.9
0 -3 2 634.54 38.9
0 -3 2 678.43 39.3
0 3 -3 5.8 3.1
0 3 3 3.2 2.3
0 3 3 2.4 5.2
0 3 -3 2.2 1.7
0 -3 3 4.1 2.7
0 -3 -3 6.2 4.3
0 -3 3 1.9 2.7
0 3 4 1 8.4
0 3 -4 0.4 2.3
0 3 4 1 2.2
0 -3 4 0.6 3.1
0 -3 4 -2.1 2.7
0 3 5 -0.8 2
0 3 5 1.8 2.7
0 3 5 1.5 1.9
0 3 5 -0.2 7.5
0 3 -5 4 3.3
0 -3 5 3.4 3.3
0 -3 5 2.3 3.6
0 3 6 437.76 27.1
0 3 6 460.55 32.5
0 3 -6 447.06 28.8
0 3 6 458.75 28.2
0 3 6 459.85 27.5
0 -3 6 471.25 28.9
0 -3 6 465.85 29.7
0 3 7 0.6 5.7
0 3 7 5.6 3.3
0 3 7 2.9 2.3
0 3 7 4.1 2.9
0 3 -7 4.3 3.2
0 -3 7 3.9 3.8
0 -3 7 3.8 3.7
0 3 -8 23.8 4.3
0 3 8 27.1 4.9
0 3 8 15.4 3.7
0 3 8 25.6 8.3
0 3 8 29 5.1
0 3 8 13.5 4.4
0 -3 8 25.3 5.2
0 3 9 -3.5 3.6
0 3 9 4.9 3.6
0 3 9 1.3 3.2
0 3 9 -4.9 5.7
0 3 9 -2.8 3.8
0 3 -9 4.7 5.9
0 -3 9 5.1 5.8
0 -3 9 11.1 6.3
0 3 10 141.79 11.9
0 3 10 140.99 12.8
0 3 10 129.99 11
0 3 10 115.69 15.6
0 3 10 119.59 11.9
0 -3 10 131.19 12.5
0 3 11 5.6 8.3
0 3 11 9.8 3.6
0 3 11 -0.7 5
0 -3 11 6.9 4.8
0 4 0 2363.76 127.69
0 4 0 2150.88 127.39
0 -4 0 2288.67 129.39
0 4 -1 1.7 2.4
0 4 1 0.5 2.3
0 4 -1 2.6 2.6
0 -4 1 2.5 3.4
0 -4 1 3.8 3.5
0 -4 -1 -6.4 6.4
0 4 2 116.99 10.6
0 4 -2 125.79 9.2
0 4 2 135.49 11
0 4 -2 125.89 9.9
0 -4 2 122.39 10.3
0 -4 2 127.89 10.8
0 4 -3 0.8 2
0 4 -3 -0.1 2.7
0 4 3 -0.3 2.4
0 4 3 0 3
0 -4 -3 0 5.3
0 -4 3 -1.8 3.4
0 4 -4 1069.39 58.39
0 4 4 978.2 62.09
0 4 4 1111.89 60.39
0 4 -4 1009.3 60.09
0 -4 4 1052.59 60.39
0 -4 4 983.1 60.29
0 4 -5 7.7 3.2
0 4 5 2.6 3
0 4 5 7.8 5.8
0 -4 5 5.5 3.4
0 -4 5 4.5 3.5
0 4 6 75.49 13.4
0 4 -6 103.69 10.4
0 4 6 127.19 10.6
0 -4 6 110.19 10.6
0 -4 6 114.79 10.9
0 4 7 -0.6 10.9
0 4 7 -3.8 3.3
0 4 -7 -2.2 3
0 4 7 0.7 3.8
0 4 7 6.9 2.5
0 4 8 135.79 9.4
0 4 -8 131.29 11.7
0 4 8 76.89 16.8
0 4 8 105.29 10.6
0 4 8 132.49 11.8
0 -4 8 118.19 11.5
0 -4 8 114.69 12.2
0 4 9 3.6 4.1
0 4 9 0 9.7
0 4 -9 9.1 4.2
0 4 9 7.9 2.8
0 4 9 5.6 4.3
0 -4 9 -2 4.2
0 4 10 38.3 15.6
0 4 10 47.4 6.9
0 4 10 53.29 9.8
0 -4 10 30.1 6.5
0 5 0 1.5 2.9
0 5 0 0.2 2.1
0 -5 0 -7.2 6.3
0 5 -1 1.8 3.1
0 5 1 5.3 3.1
0 5 1 2.5 3.1
0 5 -1 5.2 3
0 -5 1 8.4 3.7
0 -5 -1 -8.8 8.6
0 5 2 238.98 16
0 5 -2 225.18 15.5
0 5 -2 233.28 15.9
0 5 2 260.87 17
0 -5 2 228.28 16.6
0 -5 2 245.58 17.9
0 5 -3 16.5 4.2
0 5 3 16.6 4.1
0 5 3 15.1 4.3
0 5 -3 12.4 3.1
0 -5 3 16.6 3.8
0 -5 3 11.6 4.3
0 -5 -3 2.6 7.7
0 5 -4 3.1 2.3
0 5 -4 -0.1 2.8
0 5 4 -1.8 3
0 -5 4 1.8 3.8
0 -5 4 7.6 3.9
0 5 5 2.8 3.9
0 5 -5 0.5 2.4
0 -5 5 3.2 4.3
0 -5 5 3.4 4.2
0 5 6 184.98 17.4
0 5 6 202.48 15
0 5 -6 187.08 14
0 -5 6 182.38 16.2
0 -5 6 170.88 14.7
0 5 7 2.5 7.2
0 -5 7 7.3 4.8
0 -5 7 4.1 5.1
0 5 8 -8.8 6.4
0 5 -8 12.7 4
0 -5 8 6.9 5.1
0 5 9 7.2 8.5
0 5 9 13.7 5.2
0 5 -9 1.9 3.6
0 6 0 506.55 29.5
0 6 0 478.65 29.1
0 -6 0 444.86 34.1
0 6 -1 2.5 2.7
0 6 1 -0.2 2.3
0 6 1 4.2 3.7
0 6 -1 -1.4 2.9
0 -6 1 8.5 6.1
0 -6 1 7.6 6.5
0 -6 -1 4 11
0 6 -2 15.9 3.6
0 6 2 17.1 3.9
0 6 -2 15.6 3.8
0 -6 2 27.7 5.1
0 -6 2 20.3 6.1
0 -6 -2 19.8 9.9
0 6 3 -2.6 4.1
0 6 3 2.6 2.7
0 6 -3 2.1 3.2
0 6 -3 0 3.2
0 -6 3 6.9 4.1
0 -6 -3 -5.4 7.1
0 -6 3 3 5.3
0 6 -4 234.08 16.8
0 6 4 232.38 19.8
0 6 -4 243.68 16.2
0 6 4 253.47 16.9
0 -6 -4 283.67 19.8
0 -6 4 265.97 17.9
0 6 -5 5.7 3
0 6 5 3.9 4.1
0 -6 5 5.8 5
0 -6 5 12.8 3.7
0 6 -6 31.4 5.6
0 6 6 34.4 5.8
0 -6 6 45.1 7.4
0 6 -7 -2.2 3.9
0 -6 7 4 4.3
0 6 -8 52.89 8.2
0 6 8 50.09 7.8
0 -6 8 56.29 10.2
0 7 0 2.9 2.9
0 7 0 2 4.1
0 -7 0 -3.3 13.1
0 7 1 7.6 5.8
0 7 -1 0.9 2.4
0 7 1 0.2 2.9
0 -7 -1 7.1 14.9
0 7 -2 59.39 7.3
0 7 2 62.09 6.8
0 7 -2 71.19 9.3
0 -7 2 74.59 7.3
0 -7 2 61.99 9.8
0 -7 -2 74.39 13.5
0 -7 2 52.19 13.2
0 7 -3 8.6 3.5
0 7 -3 2.3 4.1
0 7 3 6.5 3.4
0 -7 3 -1.2 5.2
0 -7 3 14.9 7.6
0 -7 -3 3.8 9
0 7 4 3.2 3.3
0 7 -4 -4.4 2.7
0 7 -4 -2.7 4.1
0 -7 -4 1.9 6.9
0 -7 4 0.8 4.4
0 7 -5 3.1 2.4
0 7 5 3.8 3.1
0 7 -5 0.7 3.4
0 -7 5 9.5 4.8
0 7 -6 45 6.8
0 7 6 59.79 7.2
0 -7 6 49.4 7.5
0 8 0 64.19 7.2
-1 0 12 48.1 7.9
-1 0 11 -4 2.4
-1 0 11 0.7 2.5
-1 0 11 0.6 4
-1 0 10 7.1 2.6
-1 0 10 4.7 4.9
-1 0 10 5.3 3.6
-1 0 10 0.7 4.3
-1 0 10 1.5 2.2
-1 0 9 -1.3 2.8
-1 0 9 -3.2 2.2
-1 0 9 -2.5 3.8
-1 0 9 2.5 2.3
-1 0 9 -2.2 3.4
-1 0 8 555.24 34.1
-1 0 8 603.24 36.7
-1 0 8 603.14 35.7
-1 0 8 583.34 33.9
-1 0 8 586.64 36.1
-1 0 7 3 3.3
-1 0 7 0.5 3.4
-1 0 7 -1.1 1.8
-1 0 7 2.2 2.9
-1 0 7 -0.2 1.9
-1 0 6 -0.8 2.5
-1 0 6 4.1 1.8
-1 0 6 2.1 1.9
-1 0 5 0.2 2.2
-1 0 5 -0.4 1.4
-1 0 5 -0.3 1.5
-1 0 4 4389.56 264.87
1 0 -4 4950.9 265.67
-1 0 4 4980.7 265.47
-1 0 3 0.1 1.9
-1 0 3 3.2 1.5
1 0 -3 1 1.9
-1 0 2 627.94 36.3
-1 0 2 644.54 36.9
-1 0 2 619.64 36
-1 0 -1 4.9 2.2
-1 0 -1 3.7 1.3
1 0 2 4409.66 241.88
-1 0 -2 4583.34 243.18
-1 0 -2 4665.43 241.98
1 0 2 3831.12 244.48
1 0 3 1.3 2.5
-1 0 -3 0.6 1.5
1 0 3 2.4 2.4
1 0 3 1.6 1.3
1 0 4 749.23 43.9
1 0 4 722.23 44
1 0 4 749.53 42.2
1 0 5 1.6 1.5
1 0 5 -3.6 2.5
1 0 5 2.4 3
1 0 6 1325.67 78.39
1 0 6 1387.46 76.19
1 0 7 0 1.8
1 0 7 0.9 3.3
1 0 7 -2.6 3
1 0 8 16.1 4.6
1 0 8 14.4 4.6
1 0 8 21.9 3.2
1 0 9 6.5 3.5
1 0 9 -0.5 1.7
1 0 9 1.1 3.8
1 0 9 -3.1 2.2
1 0 10 194.98 16.2
1 0 10 226.18 15.8
1 0 10 196.38 13
1 0 10 213.68 13.3
1 0 11 -3.4 3.7
1 0 11 7.3 2.7
1 0 11 2.9 2.7
1 0 12 -6.2 4.4
-1 1 12 0.1 4.9
-1 1 12 -1.5 3.6
-1 1 12 -1.1 3.1
-1 -1 12 -3.9 5
-1 1 11 0.7 2.8
-1 1 11 -3.8 3.2
-1 1 11 5 4.7
-1 -1 11 7.8 5.1
-1 1 10 252.77 18.7
-1 1 10 254.47 18
-1 1 10 261.27 17.7
-1 1 10 271.47 16.6
-1 1 10 248.58 16.2
-1 -1 10 235.18 18.4
-1 -1 10 261.47 19.8
-1 -1 10 231.08 18.7
-1 1 9 1.6 1.9
-1 1 9 -2.9 3.3
-1 1 9 -5.1 2.6
-1 1 9 1.7 4
-1 1 9 -3.9 2.7
-1 -1 9 -2.1 4.6
-1 -1 9 1.8 4.2
-1 1 8 110.79 10.7
-1 1 8 114.49 9.1
-1 1 8 119.89 10.5
-1 1 8 108.99 9.9
-1 -1 8 103.29 10.2
-1 -1 8 120.19 10.9
1 1 -7 2.9 3.2
-1 1 7 2 2.3
-1 -1 7 1.1 2.7
-1 -1 7 2.2 3.1
-1 1 6 498.35 29.8
-1 1 6 534.55 30.6
-1 1 6 502.55 29.1
1 1 -6 469.55 30.1
-1 -1 6 442.76 31.9
-1 -1 6 466.75 30.9
-1 1 5 5.9 2.3
-1 1 5 5.1 2.7
-1 1 5 5.2 2.9
1 1 -5 8 3.1
-1 -1 5 1.7 2.9
1 1 -4 804.32 49
-1 1 4 859.41 48.4
-1 1 4 814.92 48.1
-1 1 4 846.82 48.8
-1 -1 4 845.42 48.9
-1 1 3 16.9 3
-1 1 3 17.4 3.2
1 1 -3 17.2 3.5
1 1 -3 18.4 2.7
-1 -1 3 15.4 3.3
-1 -1 3 14.6 3.6
1 1 -2 1206.08 70.09
-1 1 2 1221.48 69.79
1 -1 -2 1246.18 69.79
-1 -1 2 1306.67 69.29
-1 -1 2 1188.38 70.09
1 1 -1 37.2 3.8
-1 1 1 42.6 5.5
1 1 -1 28.5 4.6
-1 -1 1 36.6 3.5
-1 -1 1 28.6 4.2
1 -1 -1 39.1 4.5
-1 1 0 2051.39 108.79
-1 1 0 1860.51 107.39
1 1 0 1968.8 109.19
1 1 0 1944.41 108.19
1 1 0 1921.01 107.29
-1 -1 0 1846.52 107.29
-1 -1 0 1959.8 109.29
1 -1 0 2027.9 109.29
1 -1 0 1920.91 107.49
-1 -1 0 1884.51 108.09
-1 1 -1 8.6 2
1 1 1 7.3 2
-1 1 -1 7.6 2.3
1 1 1 4.8 6.5
-1 1 -1 7.1 1.5
-1 -1 -1 3.1 4.9
-1 -1 -1 9.9 2.9
1 -1 1 5.7 2.5
1 -1 1 7.2 1.9
-1 1 -2 1140.99 64.59
1 1 2 1142.29 63.89
-1 1 -2 1134.89 64.99
1 1 2 1124.39 64.39
1 1 2 1173.08 66.79
1 -1 2 1099.59 64.39
-1 -1 -2 1111.79 64.39
1 1 3 3.7 2.3
-1 1 -3 4.4 2.6
-1 1 -3 8.4 2.8
1 1 3 5.3 3
1 1 3 4.8 2.4
-1 -1 -3 5.3 2.6
1 -1 3 5.1 2.4
1 -1 3 4.6 3.1
-1 1 -4 443.06 28
1 1 4 456.85 27
1 1 4 431.16 27.3
1 -1 4 455.35 28.7
1 -1 4 457.95 27.9
-1 -1 -4 446.26 27
1 1 5 1.1 2.4
1 1 5 1.2 2.2
1 -1 5 -1.5 3
1 -1 5 -0.6 2.6
1 1 6 637.94 39.4
1 1 6 600.44 38.4
1 1 6 673.43 37.6
1 -1 6 654.23 39.6
1 -1 6 641.44 38.9
1 1 7 -0.5 3.1
1 1 7 -1.9 2.2
1 1 7 -1.7 2.8
1 -1 7 -3.1 3.4
1 -1 7 -4.2 2.9
1 1 8 334.07 22.8
1 1 8 344.77 22.9
1 1 8 355.36 21.4
1 -1 8 355.36 23.7
1 1 9 -1.4 3.2
1 1 9 3 3.8
1 -1 9 -1.7 3.1
1 1 10 43.9 6.8
1 1 10 25.3 6.3
1 1 10 33.9 6.2
1 1 10 44.2 6.3
1 -1 10 25.7 8.9
1 1 11 -2.4 2.3
1 1 11 2.3 3.6
1 1 11 -0.7 3.5
1 1 11 5.9 4.5
1 -1 11 -0.4 4
1 1 12 72.79 7.6
1 1 12 77.59 10.1
1 1 12 92.59 10.2
1 -1 12 83.39 10.9
-1 2 12 91.39 10.7
-1 2 12 81.29 9.7
-1 2 12 69.69 11.1
-1 2 12 53.69 7.6
-1 -2 12 70.19 11.5
-1 2 11 -2.3 2.3
-1 2 11 0.1 5.3
-1 2 11 -3.8 3.9
-1 2 11 -6.2 4.1
-1 -2 11 9.5 5.1
-1 2 10 -1.3 3.4
-1 2 10 1.4 2.5
-1 2 10 11 3.8
-1 2 10 4.1 4.2
-1 2 10 -3.6 4.2
-1 2 10 -3.9 2.7
-1 -2 10 -5.1 4.2
-1 2 9 0.7 2.7
-1 2 9 1.5 3.7
1 2 -9 1.9 3.6
-1 2 9 -0.2 3
-1 2 9 1.4 3.9
-1 2 9 5.5 3.9
-1 -2 9 -1.3 3.9
-1 2 8 494.65 31.2
-1 2 8 494.65 30
1 2 -8 491.85 30.5
-1 2 8 487.85 29.8
-1 2 8 493.15 29.4
-1 2 8 481.05 30.2
-1 -2 8 461.05 31
-1 2 7 5.6 2.6
-1 2 7 0.4 3.4
1 2 -7 1.5 2.6
-1 2 7 -3.1 3.3
-1 -2 7 -0.5 2.9
-1 -2 7 -0.6 3.3
-1 2 6 4.8 3.7
-1 2 6 1.4 2.7
1 2 -6 1.5 3.1
-1 2 6 3.9 2.7
-1 2 6 3.9 3.1
-1 -2 6 -3.1 2.5
-1 -2 6 2.3 2.7
-1 2 5 3 3.6
1 2 -5 3.6 2.9
-1 2 5 6.9 3
-1 2 5 0.1 2.1
-1 -2 5 -4.8 2.9
-1 -2 5 0.4 2.5
-1 2 4 3192.18 173.78
-1 2 4 3146.59 171.98
1 2 -4 3019.5 172.48
-1 2 4 3026.5 171.58
-1 -2 4 3002.4 172.98
-1 -2 4 3065.39 172.38
-1 2 3 16.4 3.2
1 2 -3 12.9 3.6
-1 2 3 14 3.2
-1 2 3 6.3 4.5
1 2 -3 13.7 3.5
-1 -2 3 17 2.7
-1 -2 3 13 3.5
-1 -2 3 14.2 3.7
1 -2 -3 19.1 3.4
-1 2 2 791.52 45.2
-1 2 2 783.42 44.9
1 2 -2 733.93 45
1 2 -2 779.32 43.9
-1 -2 2 689.13 44.5
-1 -2 2 772.42 45.1
1 -2 -2 753.82 43.9
-1 -2 2 755.22 44.9
1 -2 -2 858.91 45.3
1 2 -1 1.6 2.2
-1 2 1 2.2 1.9
1 2 -1 -0.1 1.6
-1 2 1 -2.9 3.4
-1 2 1 1.2 1.9
1 -2 -1 5.6 4.5
-1 -2 1 2.1 1.6
-1 -2 1 -0.7 1.9
1 -2 -1 6.2 3.4
-1 2 0 3795.92 211.48
-1 2 0 3574.34 211.08
-1 2 0 3850.21 211.58
1 2 0 3703.43 212.48
1 2 0 3944.71 211.88
1 -2 0 3855.51 211.58
-1 -2 0 3934.61 213.18
-1 -2 0 3728.13 211.78
1 -2 0 3876.61 213.08
1 2 1 28.2 6.1
1 2 1 21.3 3.7
-1 2 -1 23.6 4.1
-1 2 -1 25.1 4.5
-1 -2 -1 21.9 8.7
-1 -2 -1 29.9 5
1 -2 1 25.3 4.7
1 -2 1 24 4.2
-1 2 -2 2735.43 148.19
-1 2 -2 2685.93 149.49
-1 2 -2 2892.01 150.28
1 2 2 2697.93 149.79
1 -2 2 2641.44 150.18
-1 -2 -2 2725.33 149.88
-1 -2 -2 2346.17 152.68
1 -2 2 2634.24 149.39
1 2 3 0.5 2.2
-1 2 -3 -2.1 2.4
1 2 3 -1.6 1.6
-1 2 -3 1.5 2.7
1 2 3 2.1 6.3
-1 -2 -3 2.5 2.4
1 -2 3 -1.9 2.1
1 -2 3 2.1 2.6
-1 -2 -3 -4.3 3.9
1 2 4 486.65 29.6
1 2 4 504.35 30.4
1 2 4 528.45 34.7
-1 2 -4 503.85 30.9
1 -2 4 506.05 30.8
1 -2 4 490.55 31.5
-1 -2 -4 496.95 30.5
1 2 5 3.3 2.6
-1 2 -5 9.1 3
1 2 5 4.3 2.6
1 2 5 5.9 5.5
1 -2 5 3.2 3.8
1 -2 5 6.8 3.5
1 2 6 1018.1 60.69
-1 2 -6 1044 61.39
1 2 6 1135.19 63.49
1 2 6 1003 60.39
1 -2 6 1091.19 61.49
1 -2 6 1017.3 61.99
1 2 7 2.9 4.6
1 2 7 1.8 2.6
1 2 7 3.7 3.1
1 -2 7 -3.7 3
1 -2 7 -1.1 3.4
1 2 8 13.9 5.3
1 2 8 14.4 4.4
1 2 8 17.2 4.2
1 2 8 12.5 3.4
1 2 8 14.1 3.8
1 -2 8 13.4 4
1 2 9 -0.6 3.1
1 2 9 -1.8 3.5
1 2 9 5.7 4.2
1 2 9 4.7 3.1
1 -2 9 -0.7 3.4
1 2 10 178.18 12.7
1 2 10 153.58 14.2
1 2 10 154.98 15.6
1 2 10 165.68 12.5
1 2 10 172.98 13.6
1 -2 10 156.88 13.7
1 2 11 12.1 6.1
1 2 11 -2.9 4.1
1 2 11 -5.8 4.7
1 2 12 8.3 4.5
1 -2 12 -1.1 5.3
-1 3 11 3.1 4.9
-1 3 11 3.3 7.1
-1 3 11 -1.2 2.9
-1 3 11 4.5 3.8
-1 -3 11 -3 4.3
-1 3 10 143.19 12.9
-1 3 10 154.58 16.9
-1 3 10 142.19 13
-1 3 10 151.38 12.7
-1 3 10 143.79 11.7
1 3 -10 149.29 13.3
-1 -3 10 152.28 14.2
-1 3 9 1.4 3.8
-1 3 9 -2.8 6.4
-1 3 9 -2.9 3.5
-1 3 9 1.9 2.9
-1 3 9 -5.3 3.7
-1 -3 9 0.3 4.6
-1 -3 9 -9 7
-1 3 8 71.89 11
-1 3 8 63.99 8
-1 3 8 73.59 8.1
1 3 -8 71.39 7.7
-1 3 8 83.89 8.1
-1 3 8 64.09 6.9
-1 -3 8 65.49 9.6
-1 3 7 -0.3 2.9
-1 3 7 -2.4 6
1 3 -7 4.3 3.7
-1 3 7 -1.3 2.7
-1 3 7 -0.7 2.9
-1 -3 7 -3 3.8
-1 3 6 336.77 21.2
-1 3 6 338.57 21.6
1 3 -6 330.27 22.3
-1 3 6 306.37 25.1
-1 -3 6 347.97 22.3
-1 -3 6 343.77 23
-1 3 5 1.9 2.6
-1 3 5 -1.7 2.4
1 3 -5 2.6 2.5
-1 3 5 8.8 7.8
-1 -3 5 4.8 3.6
-1 -3 5 6 3.3
-1 3 4 272.17 25.3
1 3 -4 310.87 21.5
1 3 -4 336.27 20.6
-1 3 4 353.56 21
-1 -3 4 327.77 21.7
-1 -3 4 336.57 21.9
-1 3 3 21 5.6
1 3 -3 9.6 3.1
1 3 -3 14.4 2.8
-1 3 3 10.9 3.3
-1 3 3 12.4 5.3
-1 -3 3 14.1 4
-1 -3 3 16.1 3.9
1 -3 -3 14.8 3.9
-1 -3 3 12.5 2.6
1 3 -2 401.06 26.5
1 3 -2 427.66 25.5
-1 3 2 430.36 26.5
-1 3 2 432.16 26.1
-1 -3 2 446.86 27
-1 -3 2 415.76 25.4
1 -3 -2 431.96 28.8
-1 -3 2 423.06 26.3
-1 3 1 2.5 1.9
-1 3 1 0.9 2
1 3 -1 0.1 1.8
-1 3 1 3.2 2.5
1 3 -1 2.9 2.4
1 -3 -1 2.9 5.1
-1 -3 1 3.3 2.5
-1 -3 1 4.4 3.2
1 -3 -1 13.5 4.7
-1 -3 1 5.7 2.2
-1 3 0 586.94 35.2
-1 3 0 593.44 34.8
1 3 0 609.24 35.6
-1 3 0 589.94 34.9
1 3 0 597.34 36
1 -3 0 593.64 35.9
-1 -3 0 567.54 35.5
1 -3 0 612.84 37
-1 -3 0 612.94 37.4
-1 3 -1 0.1 1.7
-1 3 -1 0.1 1.8
1 3 1 -1 3.4
1 3 1 -0.2 2.4
-1 3 -1 0.9 2.1
1 -3 1 0.7 3.4
-1 -3 -1 -0.2 2.3
-1 -3 -1 5.9 6.5
1 -3 1 -0.6 2.2
1 3 2 467.25 31.7
1 3 2 485.95 29.4
-1 3 -2 489.85 29.2
-1 3 -2 462.35 29
-1 3 -2 488.45 28
1 -3 2 460.85 29.5
1 -3 2 487.35 29.2
-1 -3 -2 473.45 29.4
1 3 3 -0.1 5.4
-1 3 -3 7.3 1.8
-1 3 -3 7 2.5
1 3 3 5.9 2.8
1 -3 3 3.9 2.9
-1 -3 -3 4.7 2.5
1 -3 3 5.3 4
-1 -3 -3 2.5 5.9
1 3 4 168.78 24
-1 3 -4 242.98 16.4
1 3 4 212.78 17.8
-1 -3 -4 249.18 16.3
1 -3 4 247.18 17.1
1 -3 4 237.28 16.3
1 3 5 4.2 2.1
1 3 5 4.2 3
1 3 5 7.1 2.4
1 3 5 -4.6 8.4
-1 3 -5 4.2 3.2
1 -3 5 6 3.5
1 -3 5 2.3 3.3
1 3 6 325.07 26.2
1 3 6 306.27 19.7
1 3 6 318.77 20
-1 3 -6 324.67 21.3
1 3 6 328.07 20.9
1 -3 6 320.97 21.4
1 -3 6 325.77 22
1 3 7 2.6 2.5
1 3 7 -4.5 5.4
-1 3 -7 -2.8 2.6
1 3 7 3.7 2.9
1 3 7 4.8 3.2
1 -3 7 -3.3 3.4
1 -3 7 1.4 3.6
1 3 8 195.38 18.5
-1 3 -8 192.48 15
1 3 8 204.18 14.3
1 3 8 171.88 14.2
1 3 8 183.78 13.4
1 -3 8 212.08 15.5
1 -3 8 230.18 17.6
1 3 9 -2.2 2.7
1 3 9 1.6 3.5
1 3 9 -1.4 5.6
1 3 9 -0.7 3.6
1 3 9 4.2 4.5
1 -3 9 0 3.8
1 3 10 27.3 8
1 3 10 29.8 5.1
1 3 10 23.1 4.5
1 3 10 23.2 5.4
1 -3 10 22.2 5.7
1 3 11 4 3.7
1 3 11 8.4 7.7
1 3 11 -2 5.2
1 -3 11 -0.1 5.3
-1 4 10 -0.3 5.2
1 4 -10 0 3.8
-1 4 10 -2.1 9.8
-1 4 10 -1.4 3.3
-1 4 10 5.4 4.8
1 4 -9 4.7 3.7
-1 4 9 0.7 4.2
-1 4 9 -2.3 2.8
-1 4 9 22.6 10.5
-1 4 8 254.27 17
-1 4 8 268.77 17.9
-1 4 8 268.07 22
1 4 -8 228.68 18.9
-1 4 8 250.87 16
-1 -4 8 212.98 18.4
-1 -4 8 256.67 18.3
-1 4 7 5.2 4
-1 4 7 3.8 2.1
-1 4 7 9 4.1
1 4 -7 8.5 3.8
-1 4 7 1.4 10.5
-1 -4 7 8.9 3.9
-1 4 6 6.7 7
-1 4 6 0.1 3.1
1 4 -6 0.4 2.8
-1 4 6 4.9 4
-1 -4 6 -0.5 3.7
-1 -4 6 1.5 3.7
-1 4 5 -2 4.7
1 4 -5 1 2.7
-1 4 5 -1.1 2.9
-1 -4 5 0.5 3.4
-1 -4 5 1.4 3.4
-1 4 4 1054.59 60.29
1 4 -4 1061.09 58.89
1 4 -4 1014.3 60.39
-1 4 4 1051.89 60.89
-1 -4 4 989 60.29
-1 -4 4 1039.2 60.49
-1 4 3 11.4 3.4
-1 4 3 11.3 3.4
1 4 -3 14.5 3.4
1 4 -3 12.4 2.8
-1 -4 3 6.7 4.2
1 -4 -3 10.3 5.1
-1 -4 3 13.1 3.3
-1 4 2 369.56 23.8
1 4 -2 371.66 23.7
1 4 -2 394.06 22.9
-1 4 2 363.66 22.7
-1 -4 2 380.06 22.5
-1 -4 2 371.96 23
-1 -4 2 348.27 24.2
1 -4 -2 352.86 27.6
-1 4 1 -3.2 2.6
-1 4 1 1.2 2.4
1 4 -1 0.4 2.3
-1 4 1 1.9 1.8
1 4 -1 0.6 2.2
-1 -4 1 -1.7 3.4
-1 -4 1 1.5 2.3
-1 -4 1 3.6 1.9
1 -4 -1 -1.9 6
-1 4 0 1524.35 82.99
1 4 0 1498.15 83.89
1 4 0 1369.96 83.99
-1 4 0 1575.24 83.89
-1 4 0 1442.76 83.29
-1 -4 0 1404.56 83.69
1 -4 0 1368.36 85.69
1 -4 0 1529.25 85.19
-1 -4 0 1545.75 86.49
-1 4 -1 14.6 3.2
-1 4 -1 28.3 4.8
1 4 1 16.2 4.1
-1 4 -1 17.6 3.3
1 -4 1 20.8 4.7
1 -4 1 26.1 4.8
-1 -4 -1 19.2 8.7
-1 -4 -1 16.5 3.5
-1 4 -2 944.81 53.19
1 4 2 916.61 55.09
1 4 2 942.01 54.39
-1 4 -2 919.01 53.79
1 -4 2 971.4 54.39
-1 -4 -2 925.41 54.29
1 -4 2 878.61 54.19
-1 4 -3 -0.2 2.4
1 4 3 -0.1 3.8
1 4 3 0.5 2.7
-1 4 -3 1.4 1.6
1 -4 3 -1.9 3.1
1 -4 3 -6.4 3
-1 -4 -3 1.1 6.4
-1 4 -4 210.28 12.8
1 4 4 210.38 15.2
1 4 4 186.58 19
-1 4 -4 214.88 14.8
1 -4 4 208.78 15.1
-1 -4 -4 230.48 18.6
1 -4 4 206.88 16.1
1 4 5 10 3.8
1 4 5 12.4 6.4
-1 4 -5 9.9 3.8
1 -4 5 10.8 4.8
1 -4 5 14.5 4.1
1 4 6 407.96 34.2
-1 4 -6 467.75 28.5
1 4 6 459.15 28.3
1 -4 6 459.85 28.7
1 -4 6 445.16 29.3
1 4 7 3.6 10.4
1 4 7 3.7 3.1
1 4 7 1.9 2.4
-1 4 -7 -2.6 2.5
1 4 7 2.9 3.7
1 -4 7 3.7 4.1
1 4 8 11.6 4.2
1 4 8 3 10.5
1 4 8 8.6 3.6
-1 4 -8 4.1 4.2
1 4 8 1.4 2.7
1 -4 8 9 5.5
1 -4 8 -10.7 6.3
1 4 9 -1.9 2.9
1 4 9 8.6 5.1
1 4 9 2.9 3.9
1 4 9 9.1 11
1 -4 9 2.2 5
1 4 10 85.09 15.8
1 4 10 85.39 9
1 4 10 81.89 10.5
1 -4 10 106.49 12.8
-1 5 9 5.5 4.5
1 5 -9 -4.7 3.4
-1 5 9 -7.3 7.1
-1 -5 9 7.2 4.9
1 5 -8 23.1 5.6
-1 5 8 21.6 4.9
-1 5 8 19 7.4
-1 -5 8 20.4 5.1
-1 5 7 1 5.8
1 5 -7 2.4 5.1
-1 -5 7 10 4.1
-1 5 6 138.09 12.8
1 5 -6 114.49 10.2
-1 5 6 132.79 11.7
-1 -5 6 128.29 11.2
-1 -5 6 115.89 12.1
-1 5 5 -0.5 3.1
1 5 -5 6.3 2.9
1 5 -5 2.4 3.6
-1 -5 5 1.3 4.5
-1 -5 5 -1.9 3.6
1 5 -4 94.09 9.6
-1 5 4 103.79 9.4
1 5 -4 91.99 8.4
-1 -5 4 109.79 10.5
-1 -5 4 93.79 9.9
1 5 -3 4.2 2.8
1 5 -3 3.3 2.6
-1 5 3 1.8 2.2
-1 5 3 4.1 3.4
1 -5 -3 -1.9 5
-1 -5 3 -0.2 3.6
-1 -5 3 2.6 4
-1 5 2 116.99 10.3
1 5 -2 117.69 9.9
-1 5 2 114.29 9.1
1 5 -2 99.29 9.5
-1 -5 2 128.69 11.6
-1 -5 2 116.09 9.1
1 -5 -2 87.19 13.5
1 5 -1 4.5 3
-1 5 1 7.3 2.3
1 5 -1 7.6 3
-1 5 1 1.9 3
-1 -5 1 5.1 3.4
-1 -5 1 -0.9 4.5
1 -5 -1 0.4 8.4
-1 5 0 109.39 9.8
-1 5 0 113.99 9.1
1 5 0 119.09 9.7
1 5 0 113.79 9.5
-1 -5 0 85.89 15.1
1 -5 0 117.89 13.9
1 5 1 4 2.9
-1 5 -1 0.7 2.1
1 5 1 -2.4 2.8
1 -5 1 0.4 4.4
-1 5 -2 134.29 10.3
-1 5 -2 144.29 10.9
1 5 2 148.99 11.6
1 5 2 144.09 11.2
1 -5 2 110.19 12.6
1 -5 2 144.69 12.3
1 5 3 4.2 4.1
-1 5 -3 4.9 3.1
1 5 3 3.5 3.6
-1 5 -3 3.7 2.3
-1 -5 -3 1 7.8
1 -5 3 9.6 4.1
1 -5 3 2.8 3.9
-1 5 -4 90.39 7.2
-1 5 -4 87.79 8.2
1 5 4 87.59 10.2
-1 5 -4 90.19 6.6
-1 -5 -4 110.79 13.3
1 -5 4 91.89 9.9
1 -5 4 86.59 9.1
-1 5 -5 3.6 3.1
1 5 5 5.9 5.2
1 -5 5 2.9 3.8
1 -5 5 3.7 4.3
1 5 6 92.99 10.3
-1 5 -6 100.39 9.3
1 5 6 84.29 14.7
-1 5 -7 -2.9 4
1 5 7 11.9 7.3
1 -5 7 1.8 4.9
1 5 8 69.89 11.4
-1 5 -8 97.49 9.2
1 -5 8 82.69 11.9
-1 5 -9 -1.9 4
1 5 9 -10.7 8.1
1 -5 9 -9.8 5.3
1 6 -8 98.99 10.8
-1 6 8 74.09 8.6
-1 -6 8 91.49 11.9
1 6 -7 3.9 4.3
-1 6 7 -2.4 4
-1 -6 7 -3.1 4.6
-1 -6 7 5 9.1
-1 6 6 3.6 3.9
1 6 -6 6.2 3.1
-1 -6 6 10.3 4.5
1 6 -5 -4.5 2.7
1 6 -5 -1.1 4
-1 6 5 0.3 3.1
-1 -6 5 3.7 4
-1 -6 5 -4.3 5.1
1 6 -4 311.17 20.3
-1 6 4 296.67 18.6
-1 6 4 280.37 21
1 6 -4 297.27 19.7
-1 -6 4 310.87 24.1
-1 -6 4 282.77 19.5
-1 6 3 4.7 4.4
-1 6 3 0.5 2.7
1 6 -3 0.8 3.1
-1 -6 3 4.8 6
-1 -6 3 -1.6 3.4
-1 -6 3 -0.3 3.6
1 -6 -3 -8.7 6.4
1 6 -2 85.09 8.1
1 6 -2 99.99 8.8
-1 6 2 80.49 7.2
-1 -6 2 86.99 9.1
1 -6 -2 53.39 11.8
-1 -6 2 88.39 11.9
-1 -6 2 86.09 7.6
1 6 -1 -3.4 2.8
1 6 -1 -0.4 3.4
-1 6 1 -2.1 2.2
-1 6 1 -4.4 3.5
-1 -6 1 -0.4 6.8
1 6 0 316.47 20.2
1 6 0 324.77 20.5
-1 6 0 342.97 20.8
-1 6 0 317.87 19.6
1 -6 0 256.77 24.9
-1 -6 0 287.37 26.7
1 6 1 7.9 3.6
-1 6 -1 6.7 3.4
-1 6 -1 11.1 2.9
1 -6 1 -5.8 6.7
-1 -6 -1 20.2 12.9
1 -6 1 10.2 6.3
1 6 2 258.57 17.7
-1 6 -2 252.27 17.2
-1 6 -2 259.37 16.7
1 -6 2 271.57 19.9
1 -6 2 252.37 18.9
1 6 3 5.8 3.8
1 6 3 0.7 2.9
-1 6 -3 0.9 2.7
1 -6 3 -2.2 3.8
-1 -6 -3 -2.7 8.8
1 -6 3 4.7 5.5
-1 6 -4 72.59 7.1
-1 6 -4 75.69 6.1
-1 6 -4 67.39 7
1 6 4 74.49 9.3
1 -6 4 68.79 9.8
-1 -6 -4 65.39 10.1
-1 6 -5 9.9 3.6
1 6 5 13.1 5.3
1 -6 5 6.7 5.5
1 6 6 107.19 11.5
-1 6 -6 132.19 10.9
1 -6 6 108.09 10.9
1 6 7 15.8 5.4
-1 6 -7 -0.2 3.3
1 -6 7 -4.5 4
-1 6 -8 0.8 3.7
1 6 8 1.1 6.7
1 -6 8 1 4.4
1 7 -6 20.5 4.7
-1 7 6 35.5 6.1
-1 -7 6 19.8 8.1
-1 7 5 3.9 3.4
1 7 -5 0.7 3.4
-1 -7 5 -11.2 7.5
1 7 -4 23.1 4.6
1 7 -4 21.5 5.3
-1 7 4 23 4.1
-1 -7 4 24.6 5.9
-1 -7 4 20.8 4.6
-1 7 3 2.9 2.6
1 7 -3 -2.4 4.3
1 7 -3 1.6 4
-1 -7 3 5.9 4.3
1 -7 -3 8.8 7.2
-1 -7 3 -6.4 7.4
-1 7 2 39.8 5.8
1 7 -2 39.5 5.7
-1 -7 2 19.1 10.1
1 -7 -2 33.9 10.1
-1 7 1 0.8 5
-1 7 1 3 2.8
1 7 -1 9.7 3
1 7 -1 4.9 4.8
1 -7 -1 -11.3 13.5
-1 -7 1 5.8 10.4
1 7 0 23.8 5.2
1 7 0 13.8 3.8
-1 7 0 20.7 3.5
-1 7 0 17.8 4.6
1 -7 0 16.8 13.2
1 7 1 -4.8 2.4
-1 7 -1 3.2 3
1 -7 1 -3.4 9.7
-1 7 -2 40.6 5.4
-1 7 -2 32.7 5.6
1 7 2 32.9 4.6
1 -7 2 13.9 8.1
-1 7 -3 4.1 2.8
-1 7 -3 11.5 4.4
-1 7 -3 4.9 2.8
1 -7 3 9.1 6.7
1 -7 3 -0.1 7.7
-1 7 -4 27.6 3.7
1 7 4 20.2 4.2
-1 7 -4 16.6 5.6
-1 7 -4 26.9 4.6
1 -7 4 25.4 9.6
1 7 5 6.6 3.8
1 -7 5 10.6 4.7
-2 0 12 43.2 6
-2 0 12 40.8 5.5
-2 0 12 30.7 6.3
-2 0 11 1 3.5
-2 0 11 6.9 3.8
-2 0 11 3.8 3.2
-2 0 10 100.99 8.2
-2 0 10 81.59 11.7
-2 0 10 95.09 7.9
-2 0 10 104.79 9.6
-2 0 10 101.99 10.8
-2 0 9 3.1 3.6
-2 0 9 5.1 4.2
-2 0 9 -3.7 2.2
-2 0 9 -0.5 1.9
-2 0 9 0 3.6
-2 0 8 449.36 26.3
-2 0 8 457.95 28
-2 0 8 432.86 26.5
-2 0 8 436.66 28.7
-2 0 7 -0.7 2.3
-2 0 7 0.8 1.9
-2 0 7 -0.2 2.8
-2 0 7 -1.3 3.3
2 0 -6 637.44 39.2
-2 0 6 655.83 39.8
-2 0 6 673.23 38.9
-2 0 6 634.84 38
-2 0 5 1.6 2.8
-2 0 5 -1.5 2.3
-2 0 5 -0.2 2.3
2 0 -5 -1.4 2
-2 0 4 1648.44 92.09
-2 0 4 1658.03 91.29
2 0 -4 1555.64 91.29
-2 0 4 1580.84 90.69
2 0 -3 0.9 1.7
2 0 -3 1 1.9
-2 0 3 1.1 1.8
-2 0 3 1.2 1.8
-2 0 3 1.8 2.4
2 0 -2 6178.78 367.36
2 0 -2 6877.51 366.46
-2 0 2 7081.39 366.96
2 0 -2 6198.08 366.06
-2 0 2 6764.72 365.96
-2 0 1 2.1 2.1
2 0 -1 -1.5 1.8
2 0 -1 2 2.5
2 0 -1 0.5 1.3
-2 0 1 3.9 2.3
-2 0 1 1.1 1.2
2 0 0 239.88 17.2
-2 0 0 214.58 16.8
2 0 0 206.48 16.6
2 0 0 203.58 18.9
-2 0 0 218.18 19.2
2 0 1 0.1 2.3
-2 0 -1 2.1 2.3
-2 0 -1 0.5 2.6
2 0 1 2.3 2.4
2 0 1 1.1 2.5
-2 0 -2 6405.06 327.17
2 0 2 6068.09 327.07
2 0 2 6060.79 325.87
-2 0 -2 5023.6 325.87
-2 0 -3 -1.2 2.1
-2 0 -3 0.6 2.2
2 0 3 -4.1 2.5
2 0 3 1.5 1.6
-2 0 -4 113.49 10.2
-2 0 -4 114.59 8.2
2 0 4 123.29 8.4
2 0 4 111.49 9.9
2 0 5 -1.1 1.8
2 0 5 1.3 2.7
-2 0 -5 -0.2 1.9
2 0 5 2.3 2.6
2 0 6 1505.55 83.09
2 0 6 1501.45 85.09
2 0 6 1428.26 85.09
2 0 7 -0.8 3.2
2 0 7 1.4 2
2 0 7 -1.1 2.9
2 0 8 179.98 14.4
2 0 8 200.28 12.5
2 0 8 188.68 15.1
2 0 9 1.3 2.2
2 0 9 -4.7 4
2 0 10 149.49 9.6
2 0 10 130.29 11.9
2 0 10 144.39 10.1
2 0 11 2 4.3
2 0 12 13.8 5.4
-2 1 12 48.6 7.7
-2 1 12 42.4 6
-2 1 12 33.3 6
-2 -1 12 23.7 6.6
-2 1 11 -4.2 3.4
-2 1 11 2.3 3.4
-2 1 11 0.4 2.9
-2 -1 11 2.6 3.9
-2 1 10 62.99 10.3
-2 1 10 63.79 7.3
-2 1 10 73.99 7.7
-2 1 10 68.69 8.9
-2 1 10 64.79 7
-2 -1 10 50.39 9
-2 -1 10 46.1 8
-2 -1 10 51.79 10.2
-2 1 9 1.9 2.4
-2 1 9 5.2 2.8
-2 1 9 3.2 3.7
-2 1 9 0.6 3.8
-2 -1 9 -2.6 1.6
-2 -1 9 -0.5 3.5
-2 -1 9 3 5
-2 1 8 413.46 25.3
-2 1 8 381.16 24.4
-2 1 8 386.46 24.8
2 1 -8 380.16 25.9
-2 1 8 416.96 26.1
-2 -1 8 410.66 25.7
-2 -1 8 372.96 24.6
-2 -1 8 415.76 23.3
-2 -1 8 410.46 26.7
-2 -1 8 418.66 26.9
-2 1 7 3 2
-2 1 7 -1 2.9
-2 1 7 -1.7 2.2
-2 1 7 12.2 4.2
2 1 -7 -0.2 2.6
-2 -1 7 3 2.9
-2 -1 7 6 3.2
-2 -1 7 0.9 3.4
-2 -1 7 -0.5 1.5
-2 1 6 102.29 8.2
2 1 -6 97.59 9.3
-2 1 6 91.49 7.9
-2 1 6 101.39 9.5
-2 1 6 101.19 8.6
-2 -1 6 96.79 8.7
-2 -1 6 88.69 9.4
-2 -1 6 75.89 12.1
-2 1 5 4.9 2.5
-2 1 5 0.3 3
2 1 -5 -1.2 2.5
-2 1 5 1.3 2.1
-2 -1 5 2.6 3
-2 -1 5 -1.9 2.4
2 1 -4 1697.63 98.99
-2 1 4 1757.22 98.69
2 1 -4 1705.93 97.49
-2 1 4 1780.02 98.19
-2 1 4 1751.02 99.09
-2 -1 4 1792.02 99.59
-2 -1 4 1728.93 98.89
2 1 -3 -1.1 2.4
-2 1 3 1.6 2
2 1 -3 3.2 2.2
-2 1 3 2.9 1.8
-2 1 3 2.4 2.3
-2 -1 3 0.8 2.4
-2 -1 3 2.8 2.3
2 -1 -3 0.2 2
-2 -1 3 2.9 3.9
2 1 -2 2.7 2.4
-2 1 2 6.4 2.7
2 1 -2 3.5 4.9
-2 1 2 2.1 1.6
2 -1 -2 4.8 3
-2 -1 2 1.8 2.9
-2 -1 2 3.9 2.3
-2 -1 2 1.5 2.1
2 1 -1 12.5 3.1
-2 1 1 13.2 5.5
2 1 -1 9.8 3
2 1 -1 7.9 2.4
-2 1 1 9.5 2.6
-2 -1 1 12.9 4
-2 -1 1 10.7 2.4
-2 -1 1 14.2 3
2 -1 -1 15.5 7.9
2 1 0 1469.25 81.79
2 1 0 1492.45 81.59
-2 1 0 1499.15 84.29
-2 1 0 1256.17 81.69
-2 -1 0 1420.66 83.19
-2 -1 0 1514.45 82.19
-2 -1 0 1515.95 83.89
2 -1 0 1428.36 81.49
-2 1 -1 1.6 2
2 1 1 0.9 6.7
2 1 1 3.8 3.4
-2 1 -1 1.9 2.6
2 1 1 0.2 1.8
-2 -1 -1 5.4 2.6
-2 -1 -1 -0.9 5
2 -1 1 0.6 1.7
2 -1 1 4.3 1.8
-2 -1 -1 3.3 1.9
2 -1 1 1.5 3
-2 1 -2 303.07 20.3
2 1 2 303.87 23
2 1 2 300.67 19.5
2 1 2 306.67 19.3
-2 -1 -2 302.87 19.6
2 -1 2 303.87 20.5
2 -1 2 349.47 19
-2 -1 -2 309.37 19.1
2 -1 2 311.37 19.6
-2 -1 -2 324.67 22.4
-2 1 -3 -0.6 2.3
2 1 3 -0.3 1.8
2 1 3 -2.4 3.9
2 1 3 1.9 2.8
-2 1 -3 3 1.4
2 -1 3 1.2 2.3
-2 -1 -3 0.4 2
-2 -1 -3 1.9 1.7
2 -1 3 1.7 3.4
-2 1 -4 1190.88 68.49
2 1 4 1200.78 68.99
2 1 4 1149.48 67.49
2 1 4 1152.88 66.99
2 -1 4 1168.78 68.59
-2 -1 -4 1168.28 67.09
2 -1 4 1199.68 67.99
2 1 5 4.6 3.5
2 1 5 3.6 2.2
2 1 5 7.2 2.6
-2 -1 -5 2.5 2.3
2 -1 5 -0.4 2.7
2 -1 5 -0.3 2.6
2 1 6 29.8 5.5
2 1 6 27.9 5.8
2 1 6 21.3 3.5
2 -1 6 19.4 4.5
-2 -1 -6 22.8 3.5
2 -1 6 19.2 4.6
2 1 7 -1 3.6
2 1 7 0.4 2.6
2 1 7 4 2.5
2 -1 7 -2 3.1
2 -1 7 -3.2 2.8
2 1 8 425.86 26.9
2 1 8 399.36 25.2
2 1 8 420.86 26.2
2 -1 8 407.76 26.8
2 1 9 5.6 3.6
2 1 9 2.6 3.1
2 1 9 -0.5 2.9
2 1 9 1.3 4.1
2 -1 9 4.3 3.5
2 1 10 2.9 3.2
2 1 10 2.5 3.5
2 1 10 12.1 3.7
2 -1 10 5 3.9
2 1 11 0.4 4
2 1 11 -1.1 4.1
2 1 11 4.6 3.3
2 -1 11 6.2 4.6
2 1 12 56.69 6.5
2 1 12 53.49 9.8
2 1 12 51.09 7.7
2 -1 12 70.49 11.3
-2 2 12 47.5 6.7
-2 2 12 51.89 7.4
-2 2 12 59.99 9.1
-2 2 12 37.9 5.8
-2 -2 12 41 8.2
-2 2 11 -3.4 3.5
-2 2 11 -4.7 5.4
-2 2 11 -1.1 2.6
-2 2 11 1.6 4.2
-2 2 11 -1.9 4.9
-2 -2 11 10.1 5.2
-2 2 10 69.39 6.7
-2 2 10 45 7
-2 2 10 66.89 9.6
-2 2 10 56.79 8.7
-2 2 10 56.09 7.9
-2 -2 10 59.99 9.2
-2 2 9 2.8 3.1
2 2 -9 2.7 3
-2 2 9 0.9 2.2
-2 2 9 -3.4 3.8
-2 2 9 -3.5 3.2
-2 -2 9 5.8 3.3
-2 -2 9 -2.6 3.8
-2 2 8 317.77 19.8
2 2 -8 292.37 20.4
-2 2 8 286.17 19.7
-2 2 8 321.27 19.9
-2 2 8 299.97 20.4
-2 -2 8 314.17 20.9
-2 -2 8 297.97 20.7
2 2 -7 3.6 3.6
-2 2 7 -4 3
-2 2 7 1.8 2.9
-2 -2 7 0.7 3.1
-2 -2 7 4.9 3.5
-2 -2 7 7.7 4.1
-2 2 6 567.84 33.2
-2 2 6 573.94 33.8
2 2 -6 540.95 34.3
-2 -2 6 539.25 34
-2 2 5 0.8 2.4
-2 2 5 0.1 3.2
-2 2 5 0.5 2.2
-2 2 5 1.1 2.1
2 2 -5 1.8 2.3
-2 -2 5 -1.8 3.1
2 2 -4 1134.59 68.59
2 2 -4 1193.78 67.79
-2 2 4 1233.38 67.19
-2 2 4 1227.98 68.99
-2 2 4 1141.19 67.89
-2 -2 4 1197.38 68.59
2 -2 -4 1164.48 67.89
2 2 -3 0.1 3.9
-2 2 3 -3.5 4.4
-2 2 3 1.3 2.8
2 2 -3 3.8 2.5
-2 -2 3 1.1 2.3
-2 -2 3 -1.2 2.2
2 -2 -3 1.8 2.7
2 2 -2 4142.29 236.38
-2 2 2 4380.96 238.28
2 2 -2 4529.75 235.88
-2 -2 2 4262.47 236.38
2 -2 -2 4112.69 235.88
-2 -2 2 4025.1 235.08
-2 -2 2 4221.08 235.68
2 2 -1 2.9 2
2 2 -1 1.6 2.8
-2 2 1 4.1 5.3
-2 -2 1 -1.4 1.5
-2 -2 1 0.9 1.8
-2 -2 1 0.8 2.6
2 -2 -1 5.1 6.4
-2 2 0 149.79 9.6
2 2 0 152.98 13.3
2 2 0 152.78 11.1
-2 2 0 166.58 12.5
-2 -2 0 146.19 13.2
-2 -2 0 145.79 9.7
-2 -2 0 149.49 11.1
2 -2 0 141.69 9.9
2 -2 0 148.89 14.9
-2 2 -1 13.1 2.6
2 2 1 12.4 2.9
-2 2 -1 15.7 3.7
2 2 1 10 6
-2 2 -1 9.4 3.1
2 -2 1 13.7 4.1
-2 -2 -1 15 7.9
-2 -2 -1 10.3 3.1
2 -2 1 13.6 2.6
-2 2 -2 4246.67 231.78
2 2 2 3451.15 237.18
-2 2 -2 4279.97 231.08
2 2 2 4293.07 232.28
-2 2 -2 4376.16 233.08
2 -2 2 4169.68 231.68
2 -2 2 4247.48 233.08
-2 -2 -2 4252.87 232.48
-2 2 -3 -1.9 2.6
2 2 3 6.9 7.6
2 2 3 8.2 2.9
2 2 3 0.3 2.1
-2 2 -3 0.7 2.1
2 -2 3 1.6 3.8
-2 -2 -3 1.6 2.5
-2 -2 -3 1.8 5
2 -2 3 -0.2 2.4
-2 2 -4 100.19 8.9
-2 2 -4 102.89 9.8
2 2 4 85.19 8.4
2 2 4 105.69 12.4
2 2 4 101.69 8.3
-2 -2 -4 98.69 9.2
2 -2 4 103.69 10.7
2 -2 4 100.29 9.1
2 2 5 1.5 2.1
2 2 5 3.4 5.3
-2 2 -5 0.8 3
2 2 5 2.8 2.4
-2 -2 -5 0.3 2.5
2 -2 5 -2.5 3.3
2 -2 5 -2.2 3.2
2 2 6 967 64.19
2 2 6 1129.49 65.99
2 2 6 1070.19 62.59
-2 -2 -6 1111.79 62.89
2 -2 6 1089.99 64.29
2 -2 6 1171.98 63.69
2 2 7 6.3 5.6
2 2 7 0.3 2.4
2 2 7 4.2 2.7
2 -2 7 -3.8 3.3
2 -2 7 -2.5 3.2
2 2 8 112.59 11.4
2 2 8 103.99 9.7
2 2 8 131.99 13.5
2 2 8 117.19 9.5
2 -2 8 97.29 10.4
2 2 9 1.2 3.3
2 2 9 4.9 3.4
2 2 9 1.7 3.9
2 2 9 4.9 4.5
2 2 9 4.6 5.1
2 -2 9 0.5 5.1
2 2 10 90.49 13.4
2 2 10 124.29 11.1
2 2 10 123.89 11.8
2 -2 10 114.59 12.1
2 2 11 3.8 4.3
2 2 11 -0.9 7
2 2 11 2 5.7
2 -2 11 3 5.1
-2 3 11 6.5 3.6
-2 3 11 -7.7 5.6
-2 3 11 1.9 2.7
-2 3 11 1.4 5.4
-2 -3 11 -6.2 5
2 3 -10 67.79 8.8
-2 3 10 56.09 6.7
-2 3 10 65.99 9.3
-2 3 10 65.69 7.2
-2 3 10 54.49 9.9
-2 3 10 48.2 8.7
-2 -3 10 78.29 11.2
-2 3 9 6.2 3.7
-2 3 9 6.6 7.1
-2 3 9 0.8 4.1
-2 3 9 1.3 2.7
-2 3 9 6.1 3.6
-2 3 9 4.4 3.9
-2 -3 9 2.7 5.1
-2 -3 9 3.9 4.9
-2 -3 9 -1.4 4.8
2 3 -8 227.48 16.6
-2 3 8 226.28 20.4
-2 3 8 223.18 16.1
-2 3 8 233.88 15.5
-2 3 8 229.18 16
-2 -3 8 215.88 16.6
-2 3 7 10.5 6.7
-2 3 7 -0.6 2.8
-2 3 7 -0.4 2.9
2 3 -7 1.1 3.1
-2 -3 7 -3.4 2.8
-2 3 6 41.2 5.8
-2 3 6 28.1 7.2
2 3 -6 45.8 6.4
-2 3 6 35.6 6.7
-2 3 6 36.3 6.5
-2 -3 6 45.5 7.2
-2 -3 6 47.4 6.6
-2 3 5 4.1 2.8
-2 3 5 0.1 3
-2 3 5 -2.5 6
2 3 -5 2.1 3.1
-2 -3 5 2.7 3.1
-2 -3 5 0.5 2.7
-2 3 4 757.02 50.39
2 3 -4 824.52 49.2
-2 3 4 860.21 49.2
2 3 -4 868.81 49.6
-2 -3 4 841.52 49.3
-2 -3 4 831.42 47.2
2 -3 -4 832.82 48
2 3 -3 2.7 2.5
-2 3 3 -3 6.2
-2 3 3 1.1 2.3
2 3 -3 4.6 3
-2 -3 3 -2.3 1.8
2 -3 -3 2.3 2.6
-2 -3 3 2.1 2.4
-2 -3 3 1.9 2.7
-2 3 2 8.9 5.6
2 3 -2 9.3 3.2
2 3 -2 10.6 2.6
-2 3 2 8.2 3
-2 -3 2 7.2 2.6
-2 -3 2 7 3.3
2 -3 -2 7.6 3.1
-2 -3 2 6.9 2.4
-2 -3 2 10.4 2.9
2 3 -1 19 4.7
-2 3 1 14.8 3.5
-2 3 1 25.3 4.8
2 3 -1 20.5 3.9
-2 -3 1 21.7 3.6
-2 -3 1 14.5 2.9
-2 -3 1 20.5 4.4
-2 -3 1 25.4 3.7
2 -3 -1 13.1 5.8
-2 3 0 695.53 41.6
-2 3 0 696.23 40.6
2 3 0 704.83 43
2 3 0 724.03 41.9
-2 3 0 722.03 41.5
-2 -3 0 734.73 44.5
2 -3 0 681.03 44.8
-2 -3 0 693.83 41.7
2 -3 0 725.03 41.6
2 3 1 10.2 3
-2 3 -1 8.8 2.3
2 3 1 11.2 4.7
-2 3 -1 5.2 2.9
-2 3 -1 9.2 2.7
-2 -3 -1 5.7 7.2
2 -3 1 7.9 3.9
-2 -3 -1 9.1 3.2
2 -3 1 8 2.7
2 3 2 95.89 8.4
-2 3 -2 93.79 7.7
-2 3 -2 90.69 8.9
-2 3 -2 84.49 6.7
2 3 2 64.29 10.8
-2 3 -2 97.19 7
2 -3 2 100.49 8.2
2 -3 2 87.69 9.4
-2 -3 -2 94.29 9
-2 -3 -2 73.29 13.1
2 3 3 -3.1 2.3
-2 3 -3 2.2 3
-2 3 -3 0.6 1.5
-2 3 -3 2.3 2
2 3 3 -10.5 4.8
-2 3 -3 -1.2 2.4
-2 -3 -3 -3.7 5.7
2 -3 3 2.5 2.7
2 -3 3 3 3.2
-2 -3 -3 1.4 3.1
2 3 4 609.64 36.2
2 3 4 527.45 43.8
-2 3 -4 601.64 36.2
-2 3 -4 536.75 38.4
-2 -3 -4 609.44 36.5
-2 -3 -4 658.03 39.6
2 -3 4 619.34 36.3
2 -3 4 626.04 37.5
-2 3 -5 1.8 2.4
2 3 5 6.6 2.2
2 3 5 1.1 9.3
2 3 5 5.2 2.9
2 3 5 6.1 2.7
-2 -3 -5 1.7 2.3
2 -3 5 5.8 4.5
2 -3 5 6.2 3.2
2 3 6 15.3 3.5
-2 3 -6 6.6 3.6
2 3 6 12.3 3.4
2 3 6 12.9 3
2 3 6 6.2 7.5
2 -3 6 7.9 3.8
2 -3 6 8.9 5.1
2 3 7 7.6 2.8
2 3 7 2.8 3
2 3 7 -0.6 2.8
2 3 7 2.6 6.4
2 -3 7 9.7 4.7
2 -3 7 -2.6 3.7
2 3 8 201.28 14.7
2 3 8 215.78 15.2
2 3 8 200.08 15
2 3 8 226.18 18.7
2 -3 8 218.78 16.6
2 -3 8 235.98 17.2
2 3 9 3.2 3.8
2 3 9 8 3.6
2 3 9 -1.4 5.4
2 3 9 0.8 3.5
2 3 9 11 5.3
2 -3 9 4 4.7
2 3 10 -2.3 4.6
2 3 10 7.1 4.3
2 3 10 9.2 3.9
2 3 10 3.8 6
2 -3 10 12.8 5.7
2 3 11 15.5 5.6
2 3 11 7.2 4.2
2 -3 11 5.2 6
-2 4 10 30.8 6.6
-2 4 10 21.1 4.8
-2 4 10 26.6 5.6
2 4 -10 24.3 4.7
-2 4 10 22.3 4.2
-2 4 10 24.2 10.1
-2 4 9 0.7 3.9
-2 4 9 1.6 4.6
-2 4 9 7.5 10.7
2 4 -9 11.3 4.4
-2 4 9 -3.9 2.4
-2 -4 9 -2.5 4.7
-2 4 8 122.19 9.9
-2 4 8 121.19 10.9
-2 4 8 93.49 11.6
-2 -4 8 112.79 11.9
-2 -4 8 123.59 12.7
-2 -4 8 105.09 11.8
-2 4 7 -3.5 3.1
2 4 -7 2.5 3.1
-2 4 7 -4.6 4.1
-2 4 7 -12.8 8.8
-2 4 7 0.9 3.5
-2 -4 7 0.3 5.1
-2 -4 7 4.8 4.2
-2 -4 7 3.6 4
-2 4 6 285.97 19.4
2 4 -6 257.67 18.3
-2 4 6 236.08 20.9
-2 4 6 272.27 18.4
-2 -4 6 271.17 19.3
-2 -4 6 271.17 19
-2 4 5 3 4.5
2 4 -5 0.6 3.3
-2 4 5 11.3 6.3
2 4 -5 8.8 5.5
-2 4 5 -0.4 3.1
-2 -4 5 0.2 3.9
-2 -4 5 -0.6 3.4
-2 -4 5 0.1 1.4
2 4 -4 398.06 27.3
2 4 -4 470.35 26.9
-2 4 4 465.55 27.7
-2 -4 4 428.16 27.8
-2 -4 4 439.36 25.8
-2 -4 4 434.56 27.6
2 -4 -4 430.96 26
2 4 -3 5.2 3.2
2 4 -3 6.5 2.8
-2 4 3 4.2 4.4
-2 4 3 7.4 2.8
-2 4 3 8 3.1
-2 -4 3 6.4 2.6
2 -4 -3 5.8 2.8
-2 -4 3 1.9 3.1
-2 -4 3 7.1 3.6
-2 -4 3 6.8 2.9
2 4 -2 1397.36 75.99
2 4 -2 1269.97 76.59
-2 4 2 1294.17 74.99
-2 4 2 1383.66 76.59
-2 4 2 1455.45 75.79
-2 -4 2 1333.57 75.79
-2 -4 2 1302.17 75.29
-2 -4 2 1182.58 79.09
-2 -4 2 1338.57 75.69
2 -4 -2 1357.76 75.49
2 4 -1 4.7 2.7
-2 4 1 -1.6 2.5
2 4 -1 2.8 2.9
-2 4 1 -4.2 2.8
-2 4 1 2 1.8
-2 -4 1 -0.2 2.6
2 -4 -1 -1 4.6
-2 -4 1 1 1.9
-2 -4 1 -1.2 1.9
2 -4 -1 -4.6 5.2
-2 4 0 64.39 6.8
-2 4 0 59.89 5.5
2 4 0 57.29 7.5
-2 4 0 50.69 6.2
2 4 0 59.59 7
-2 -4 0 62.79 7.3
-2 -4 0 52.49 9
2 -4 0 55.29 9.7
2 -4 0 58.09 8.1
2 4 1 10.2 4.5
2 4 1 7.1 3.6
-2 4 -1 10.7 3.1
-2 4 -1 8 3.1
-2 4 -1 8.5 2.9
2 -4 1 18.2 4.8
-2 -4 -1 5.9 3.2
2 -4 1 10.5 3.5
-2 -4 -1 15 8.5
-2 4 -2 1585.54 88.49
2 4 2 1588.14 88.69
-2 4 -2 1635.74 87.49
2 4 2 1576.34 90.39
-2 4 -2 1537.15 87.59
-2 4 -2 1536.65 87.79
2 -4 2 1661.73 88.59
-2 -4 -2 1303.07 94.39
2 -4 2 1520.35 89.09
-2 -4 -2 1558.74 88.89
2 4 3 0.4 5
-2 4 -3 3.2 1.9
-2 4 -3 1.3 3.4
-2 4 -3 3.8 2.7
2 4 3 0.4 2.6
-2 4 -3 1.8 1.8
2 -4 3 0.8 2.8
-2 -4 -3 4.1 2.7
2 -4 3 5.8 3.7
-2 4 -4 31.9 3.6
-2 4 -4 35.7 6.2
2 4 4 29.7 8.9
2 4 4 44 6.4
-2 -4 -4 30.1 7.8
-2 -4 -4 38.8 5.9
2 -4 4 48 6.9
2 -4 4 31.4 5.5
2 4 5 4.7 3.2
-2 4 -5 3.1 2.8
2 4 5 -7.1 5.7
2 -4 5 6.8 3.6
2 -4 5 2.1 4.3
2 4 6 499.25 37.3
-2 4 -6 500.45 30.6
2 4 6 468.45 30.3
2 -4 6 516.45 31.2
2 -4 6 498.85 31.9
2 4 7 5.1 2.7
-2 4 -7 3.4 3
2 4 7 6.4 3.7
2 4 7 -3.5 9.4
2 -4 7 4.8 4.7
2 4 8 35.1 5.5
2 4 8 48.3 13.4
2 4 8 31.7 5.2
2 -4 8 32.7 8.2
2 -4 8 35.2 7
2 4 9 2.6 12.7
2 4 9 -2.8 3.5
2 -4 9 1 5.5
2 4 10 63.29 7.4
2 4 10 46.7 14.9
2 4 10 54.59 7.8
2 -4 10 64.89 9.3
-2 5 9 -3.6 8.1
2 5 -9 5.6 4.4
-2 5 9 3 4.3
-2 5 9 18 7.3
-2 -5 9 14 4.5
-2 5 8 105.59 13.8
-2 5 8 117.89 9.6
2 5 -8 101.29 11
-2 5 8 98.99 7.8
-2 -5 8 90.29 10.6
-2 5 7 4.2 10.2
2 5 -7 3.6 3
-2 5 7 4.6 5.2
-2 -5 7 0.1 4.5
-2 -5 7 6.3 3.7
2 5 -6 11.5 3.6
-2 5 6 19.2 3.9
-2 5 6 13.2 4.3
-2 -5 6 17 4.1
-2 -5 6 11.4 4.6
-2 -5 6 12.2 5.1
2 5 -5 6.3 4.8
2 5 -5 1.3 3.4
-2 -5 5 8.2 3.6
-2 -5 5 4.5 3.6
2 5 -4 272.67 16.8
2 5 -4 239.28 17.1
-2 5 4 245.18 15.9
-2 -5 4 221.88 16.9
-2 -5 4 256.27 16.9
-2 -5 4 254.57 18.1
-2 5 3 -5.3 3.2
2 5 -3 -1 2.6
2 5 -3 -1.9 2.7
-2 -5 3 6 3.1
-2 -5 3 1.2 2
-2 -5 3 2.8 2.8
-2 -5 3 2.3 4.1
2 -5 -3 -2.5 3.6
2 5 -2 1.5 3.2
2 5 -2 -4.5 3.6
-2 5 2 3.4 2
-2 5 2 3.4 3.3
-2 5 2 4.3 2.2
-2 -5 2 4.7 3.1
-2 -5 2 6.4 2.4
2 -5 -2 2 6
-2 -5 2 -0.7 2
-2 -5 2 6.8 4.6
-2 5 1 6.4 3.3
-2 5 1 6.6 2.5
-2 5 1 11.7 2.8
2 5 -1 3.6 3.3
2 5 -1 12.6 3.4
-2 -5 1 9.6 2.7
2 -5 -1 -7.1 7.4
2 -5 -1 6.2 5
-2 -5 1 12 5.3
2 5 0 220.18 15.8
-2 5 0 235.58 15.7
-2 5 0 235.58 14.9
-2 5 0 224.58 14.5
2 5 0 209.98 16.3
-2 -5 0 246.88 20.7
-2 -5 0 227.98 15.5
2 -5 0 217.28 18.5
-2 5 -1 -2.2 3.5
-2 5 -1 6.4 3
-2 5 -1 7.9 2.9
2 5 1 4.2 3.2
2 5 1 7.9 3.3
2 -5 1 7.4 6.1
-2 -5 -1 7.3 2.9
2 -5 1 9.6 4.7
-2 -5 -1 4.7 9.4
2 5 2 12.2 3.9
-2 5 -2 13.7 3.1
-2 5 -2 6 3.9
2 5 2 20.8 5.3
-2 5 -2 15.2 3.4
-2 -5 -2 18 3.8
2 -5 2 23.5 8.4
-2 -5 -2 26.2 11.5
2 -5 2 15.2 4.4
2 5 3 3.9 3.4
2 5 3 -3.2 4.4
-2 5 -3 3.4 2.4
-2 5 -3 0.2 1.6
-2 5 -3 -1.3 2.2
2 -5 3 4.7 4.4
2 -5 3 4 3.7
-2 -5 -3 0.7 2.6
-2 -5 -3 2.2 8.6
-2 5 -4 200.78 14.4
-2 5 -4 198.28 12.9
-2 5 -4 195.88 12.5
2 5 4 202.08 16.6
2 -5 4 196.28 15.8
2 -5 4 205.18 15.2
-2 -5 -4 206.58 19.8
-2 5 -5 3 3.2
2 5 5 9.4 6.4
2 -5 5 8 4.4
2 -5 5 9.8 4.1
2 5 6 10.8 7.5
2 5 6 -4.2 3.7
-2 5 -6 3.4 2.7
2 -5 6 6.3 3.5
-2 5 -7 -4.6 4.5
2 5 7 20.7 7.9
2 -5 7 -3.4 5.2
2 -5 7 -2 5.3
2 5 8 61.99 14.2
-2 5 -8 117.79 10.6
2 -5 8 92.49 10.7
2 5 9 0.6 9.5
2 -5 9 5 4.4
-2 6 8 52.99 8.1
2 6 -8 38 6.7
-2 -6 8 40.1 7
-2 6 7 -0.8 3.5
2 6 -7 1.5 3.3
-2 -6 7 -4.2 5.1
-2 -6 7 6.2 4.7
2 6 -6 73.39 8.5
-2 -6 6 90.49 9.7
2 6 -5 -4.8 4.9
-2 -6 5 0.3 6
-2 -6 5 0.1 3.8
-2 -6 5 -3.1 4.1
-2 6 4 92.49 11.6
2 6 -4 103.59 9.9
2 6 -4 109.39 9.7
-2 -6 4 99.59 10.3
-2 -6 4 80.29 12.3
-2 -6 4 107.39 9.3
-2 6 3 3.1 4.1
-2 6 3 5.9 2.3
2 6 -3 2.7 3.6
-2 -6 3 -1.7 2.8
-2 -6 3 4.9 3.1
-2 6 2 343.97 21.1
2 6 -2 359.16 22.3
2 6 -2 332.17 22.4
-2 -6 2 370.16 25.5
-2 -6 2 352.56 22.1
-2 -6 2 335.67 21
2 -6 -2 356.46 25.4
2 6 -1 2.5 3
-2 6 1 0.4 2.1
2 6 -1 -4 3.5
-2 6 1 -1.8 3.6
-2 -6 1 6.1 7.1
-2 6 0 18 3.3
-2 6 0 18.6 4.5
2 6 0 23.6 5
2 6 0 18.3 4.1
2 -6 0 25.5 7.1
-2 -6 0 8.7 9.2
2 6 1 6.1 3.9
-2 6 -1 2.8 2.6
-2 6 -1 9.1 3.6
-2 -6 -1 -0.6 12.9
2 -6 1 13.2 8
2 -6 1 -3.4 6
2 6 2 441.06 26.6
-2 6 -2 403.46 25.2
-2 6 -2 420.76 25.3
-2 6 -2 416.86 25.2
2 6 2 412.26 26.5
2 -6 2 418.76 27.7
2 -6 2 443.86 28.8
-2 -6 -2 328.87 34.8
-2 6 -3 -5.5 2.7
2 6 3 -1.6 3.3
-2 6 -3 1.3 2.6
2 6 3 7.6 4.2
-2 6 -3 5.9 2.3
-2 -6 -3 7.5 9.9
2 -6 3 3 5.1
2 -6 3 0.2 4
-2 6 -4 9.8 3.1
-2 6 -4 13.1 3.1
2 6 4 12.3 5.1
-2 6 -4 14.9 3.7
2 -6 4 5.5 5.2
-2 -6 -4 10 8.2
2 -6 4 8.7 4.6
-2 6 -5 5.3 3.3
2 -6 5 9.5 4.6
2 -6 5 3.3 5.1
2 6 6 173.38 14.6
-2 6 -6 138.69 12.1
2 6 7 4.3 7
-2 6 -7 -0.2 3.3
2 -6 7 3.9 4.8
2 7 -6 6.3 3.7
-2 -7 6 4.8 5
2 7 -5 1 3.7
-2 -7 5 7.1 4.6
2 7 -4 58.19 8.6
2 7 -4 66.69 10.2
-2 -7 4 42.7 8.2
-2 -7 4 54.69 9.6
2 7 -3 1.6 4.8
2 7 -3 -0.2 3.1
-2 -7 3 6.2 4.3
-2 -7 2 -5.7 8.8
2 -7 -2 0.2 7.6
-2 7 1 1.6 5.7
-2 7 1 3.1 2.5
2 7 -1 8.6 3.6
2 -7 -1 3.2 11.6
-2 -7 1 11 10.4
2 7 0 64.69 7.2
-2 7 0 60.59 9.4
-2 7 0 62.19 6.7
2 7 0 45.7 7.3
-2 -7 0 33.8 16.3
2 -7 0 51.19 13.5
2 7 1 6.3 3.1
-2 7 -1 1.8 2.7
-2 7 -1 5.3 2.9
-2 -7 -1 25.6 16.9
2 -7 1 14 10
2 -7 1 11.5 9.1
-2 7 -2 5.9 3.8
2 7 2 8.5 3.9
-2 7 -2 5.9 2.7
-2 7 -2 6.2 2.5
-2 -7 -2 -0.9 12.6
2 -7 2 9.2 8.6
2 -7 2 3 8.4
-2 7 -3 4.8 3.9
-2 7 -3 2.1 2.7
2 7 3 5.9 3.7
-2 7 -3 2.4 2.6
2 -7 3 5.3 7.5
-2 -7 -3 -12.2 11.7
-2 7 -4 48.4 6.6
-2 7 -4 49.2 7.3
-2 7 -4 41.2 5.5
2 7 4 44.1 6
2 -7 4 27.6 9.1
2 -7 4 33 6.9
-2 -7 -4 58.29 11.6
2 7 5 6.4 5.5
-2 7 -5 8.4 3.8
-3 0 12 9.8 3.6
-3 0 12 9 3.9
-3 0 12 -5.3 4.3
-3 0 11 1 2.8
-3 0 11 -2.5 3.4
-3 0 11 3.1 3.3
-3 0 10 140.39 12.7
-3 0 10 135.19 12
-3 0 10 136.29 10.8
-3 0 10 143.49 14.4
-3 0 10 129.39 11.5
-3 0 9 -2.3 4.1
-3 0 9 -3.7 3.1
-3 0 9 1.5 2.8
-3 0 9 -3.2 2.2
-3 0 8 49 8.3
-3 0 8 46.6 5.8
-3 0 8 48.2 7
-3 0 8 43.9 5.5
-3 0 7 -0.5 2
-3 0 7 3.2 3.2
3 0 -7 -0.4 3
3 0 -6 1532.95 91.29
-3 0 6 1598.64 90.79
-3 0 6 1693.33 91.19
-3 0 6 1592.84 92.89
-3 0 5 0.3 2.3
-3 0 5 -0.4 2
-3 0 5 -2.3 2.9
3 0 -5 1.8 2.6
-3 0 4 59.99 7.6
3 0 -4 68.29 6.2
3 0 -4 51.59 6.2
-3 0 4 66.29 6.1
-3 0 4 64.29 6.9
3 0 -4 55.09 7.8
3 0 -3 -1.1 2.1
3 0 -3 -2.5 2
-3 0 3 -0.5 2.1
3 0 -3 0.5 2.2
-3 0 3 -0.9 1.7
-3 0 3 2.7 2.8
-3 0 2 5890.11 332.47
-3 0 2 6177.38 332.47
-3 0 2 6084.59 330.97
3 0 -2 5773.02 332.27
-3 0 1 2 2
3 0 -1 2.8 3.4
-3 0 1 -1.6 2.8
-3 0 1 0.5 4.2
3 0 -1 4.9 3.5
3 0 -1 -1.1 2.1
3 0 0 1404.76 83.39
-3 0 0 1426.66 82.89
3 0 0 1378.46 82.99
-3 0 0 1419.56 85.79
3 0 1 -0.5 3.6
-3 0 -1 7.6 4.4
3 0 1 2.9 3.9
3 0 1 1 3.9
-3 0 -1 -0.7 3.4
-3 0 -1 3.9 2.9
-3 0 -2 4885.81 267.77
3 0 2 4644.14 266.87
3 0 2 4827.32 267.57
3 0 2 4690.93 267.67
-3 0 -2 4958.1 266.97
-3 0 -3 0.1 2.5
-3 0 -3 -0.4 2.2
3 0 3 0 2.5
3 0 3 -0.7 2.2
-3 0 -4 2396.76 132.09
-3 0 -4 2293.77 130.29
3 0 4 2304.57 130.49
3 0 4 2342.07 132.29
3 0 5 -3.4 3.1
-3 0 -5 0.6 3.1
3 0 5 -1.7 3.7
3 0 5 -0.5 1.9
-3 0 -5 0.9 1.6
3 0 6 549.25 35.3
3 0 6 578.94 33.4
3 0 6 595.04 35.6
-3 0 -6 565.14 33.4
3 0 7 1.7 3.8
3 0 7 -5.4 3.2
3 0 7 -1.7 2.1
3 0 8 298.87 18.3
3 0 8 286.87 20.3
3 0 9 0.6 2.7
3 0 9 -4.5 4.7
3 0 10 17.3 7.3
3 0 10 27 3.7
3 0 11 1.2 4.8
3 0 11 4.6 2.1
3 0 11 3.9 3.2
-3 1 12 122.89 10
-3 1 12 110.69 11
-3 1 12 135.79 11.7
-3 -1 12 124.39 12.5
-3 1 11 1.7 2.7
-3 1 11 -5 4.8
-3 1 11 1.9 3.4
-3 1 11 -3.5 3.4
-3 -1 11 2.8 3.7
-3 1 10 0.3 4.5
-3 1 10 3.4 3.1
-3 1 10 1.5 4.1
-3 1 10 2.3 2.7
-3 -1 10 -0.1 4.7
-3 -1 10 -0.6 4.3
-3 -1 10 4.6 5.2
-3 -1 10 6 2.2
-3 -1 10 -4.2 4.6
-3 1 9 1.7 4.1
-3 1 9 3.4 3.7
-3 1 9 -0.3 2.8
3 1 -9 6 3.6
-3 1 9 -2.3 2.7
-3 -1 9 0.7 2
-3 -1 9 0.3 3.6
-3 -1 9 -5.3 4.3
-3 1 8 571.94 33
-3 1 8 567.84 34.3
-3 1 8 537.55 32.7
3 1 -8 531.35 33.5
-3 1 8 544.45 32.6
-3 -1 8 554.64 33.5
-3 -1 8 503.55 33.5
3 1 -7 -3.4 2.8
-3 1 7 -0.6 3.5
-3 1 7 0.1 2.6
-3 1 7 -6 2.7
-3 -1 7 0.4 3.9
-3 -1 7 3.9 3.2
-3 -1 7 -1.1 2.9
-3 1 6 127.29 10.5
-3 1 6 133.19 11.5
3 1 -6 140.39 11.5
-3 1 6 148.29 10.4
-3 -1 6 141.69 11.7
-3 -1 6 106.69 11.7
-3 -1 6 134.19 12.8
-3 1 5 -1.1 2.1
-3 1 5 0.6 2
3 1 -5 0.7 1.9
3 1 -5 0.1 2.3
-3 1 5 3.6 2.8
-3 -1 5 0.7 2.9
-3 -1 5 -2.7 2.7
-3 -1 5 3.2 5.1
-3 1 4 1165.18 65.99
3 1 -4 1255.67 66.79
-3 1 4 1103.59 66.89
3 1 -4 1144.29 67.29
-3 1 4 1182.48 67.59
3 -1 -4 1111.09 67.29
-3 -1 4 1168.08 67.09
-3 -1 4 1191.18 67.69
-3 1 3 1.1 2.5
3 1 -3 1.7 2.1
-3 1 3 1.3 2.6
3 1 -3 3.7 3.5
-3 1 3 0.1 1.5
3 -1 -3 3.1 3
-3 -1 3 3.3 2.3
-3 -1 3 0.3 4.2
-3 -1 3 -1.5 2.4
3 -1 -3 4 2.1
-3 1 2 377.06 23.5
3 1 -2 371.46 23.5
3 1 -2 334.67 27
3 1 -2 379.16 23.6
-3 1 2 391.56 24.8
-3 -1 2 376.46 23.5
-3 -1 2 379.56 23.4
3 -1 -2 389.06 23.3
-3 -1 2 342.87 25.5
3 -1 -2 381.26 24.6
3 1 -1 6.7 3.1
-3 1 1 4.5 6.7
3 1 -1 7.8 4.5
3 1 -1 3.5 2.5
-3 1 1 8.1 2.3
3 -1 -1 3 5.3
3 -1 -1 5.3 2.6
-3 -1 1 9.6 2.9
-3 -1 1 9.8 3.4
-3 -1 1 4.3 3.3
-3 1 0 449.86 33.5
3 1 0 530.65 30.3
-3 1 0 531.35 30
3 1 0 497.65 33.4
3 1 0 423.06 32
-3 -1 0 486.65 32.9
3 -1 0 550.14 30
-3 -1 0 470.55 32.7
3 -1 0 466.25 35.5
3 1 1 2.4 2
-3 1 -1 -1.3 3.9
3 1 1 0.8 6.5
-3 -1 -1 0.5 2.4
3 -1 1 1.6 2.7
3 -1 1 6.6 3.7
-3 -1 -1 4.1 3.8
-3 -1 -1 11 6
3 1 2 57.09 6.2
3 1 2 44.1 8.4
3 1 2 67.39 7.1
-3 1 -2 47.2 9.1
-3 1 -2 71.39 8
-3 -1 -2 52.69 6.5
3 -1 2 52.99 7.9
3 -1 2 59.09 7.5
-3 -1 -2 60.59 6
3 -1 2 59.89 6.5
-3 -1 -2 41.2 7.8
-3 1 -3 4.3 3.2
3 1 3 8.6 5.6
3 1 3 -0.7 2.1
3 1 3 1.5 2.6
-3 -1 -3 4.5 2.7
3 -1 3 4.1 2.8
3 -1 3 2.4 3.8
3 -1 3 5.5 2.9
-3 -1 -3 4 2.7
3 1 4 703.63 43
3 1 4 693.23 40.4
-3 1 -4 699.93 41.8
3 1 4 679.23 40.8
3 -1 4 660.63 41.9
-3 -1 -4 676.53 40.5
3 -1 4 703.23 41.4
3 -1 4 711.13 41.3
-3 -1 -4 643.74 40.2
3 1 5 5.1 4
-3 1 -5 3.6 2.6
3 1 5 6.6 2.9
3 1 5 7.1 3.9
-3 1 -5 2.6 3.5
-3 -1 -5 6.1 2.6
3 -1 5 6.8 4.1
3 -1 5 6.1 4.4
3 -1 5 -1.7 3.3
3 1 6 264.97 18.3
3 1 6 261.27 18.9
3 1 6 270.37 17.1
3 -1 6 246.68 19.1
3 -1 6 272.87 18.7
-3 -1 -6 251.27 17.1
3 1 7 1.6 2.6
3 1 7 2.7 3.3
3 1 7 3.7 3.7
3 1 7 -1.1 3.6
3 -1 7 2.4 4.2
-3 -1 -7 2.3 2.1
3 -1 7 5.2 4
3 1 8 91.59 10.5
3 1 8 111.99 11.7
3 1 8 117.59 10.9
3 1 8 124.49 10.7
3 -1 8 123.19 11.6
3 1 9 2.2 3.7
3 1 9 0.3 2.8
3 1 9 -1.4 4.8
3 1 9 3.8 3.3
3 -1 9 6.6 4.4
3 1 10 120.09 10.1
3 1 10 130.29 11.8
3 1 10 133.29 11.7
3 -1 10 119.89 12.5
3 1 11 -0.5 4.5
3 1 11 1.8 3.8
3 -1 11 -7.9 4.8
-3 2 12 28.3 6.2
-3 2 12 9.7 5.6
-3 2 12 14.6 4.7
-3 -2 12 10.1 6.2
-3 2 11 5.3 4
-3 2 11 5.4 3.3
-3 2 11 6.1 4.8
-3 2 11 7.9 5.1
-3 2 11 -6.9 6
-3 -2 11 6.7 4.1
3 2 -10 111.19 11.4
-3 2 10 126.89 12.2
-3 2 10 132.49 11.4
-3 2 10 131.59 10.9
-3 2 10 136.59 10.5
-3 -2 10 114.19 11
-3 2 9 1.5 3.4
3 2 -9 4.3 3.2
-3 2 9 3.3 2.7
-3 2 9 1.6 3.9
-3 2 9 2.8 3.2
-3 -2 9 0.9 3.5
-3 -2 9 -2.4 4.1
-3 2 8 44.3 6.6
-3 2 8 39.9 5.6
-3 2 8 44.7 6.4
-3 2 8 46.5 7.4
3 2 -8 36.8 6
-3 -2 8 43.7 6.6
-3 2 7 0.8 3.1
-3 2 7 -4 2.2
-3 2 7 -0.4 2.1
3 2 -7 2.7 3.3
-3 2 7 0.9 2.6
-3 -2 7 -0.1 3.4
-3 -2 7 -2.9 3.1
-3 2 6 1158.98 65.09
-3 2 6 1132.79 66.09
-3 2 6 1173.28 66.39
3 2 -6 1089.19 66.29
3 2 -6 1103.89 64.29
-3 -2 6 1182.68 66.49
-3 -2 6 1160.18 64.89
-3 -2 6 1151.68 66.89
-3 2 5 3.7 2.1
-3 2 5 0.4 2.2
3 2 -5 -0.2 2.3
3 2 -5 2.8 3.4
-3 2 5 5.1 3.2
-3 -2 5 -1.9 2.9
3 -2 -5 -3.2 2.9
-3 -2 5 -1.3 2.8
-3 -2 5 1.4 3.5
-3 2 4 27.4 4.9
3 2 -4 19.2 5.3
-3 2 4 17.8 3.8
3 2 -4 20.6 4.1
-3 2 4 26.5 3.8
-3 2 4 25.4 4.6
-3 -2 4 25.6 4.2
-3 -2 4 26.7 4.7
3 -2 -4 21.8 4.3
-3 2 3 3.9 2.1
3 2 -3 3 5
3 2 -3 5 3.1
-3 2 3 10 4
3 -2 -3 2.8 2.5
-3 -2 3 2.4 2.2
-3 -2 3 5.3 2.8
-3 -2 3 5.5 3
-3 2 2 3806.22 227.88
3 2 -2 4255.37 224.58
-3 2 2 4020.7 224.38
3 2 -2 3831.42 224.48
-3 -2 2 3925.51 223.58
3 -2 -2 4164.18 225.28
-3 -2 2 4029.8 224.38
-3 -2 2 4098.59 223.68
3 2 -1 0.5 2.6
3 2 -1 0.4 2.5
-3 2 1 -2.7 6.2
3 2 -1 3.5 3.1
-3 2 1 2.4 1.9
-3 -2 1 3 2.8
3 -2 -1 -2 4.7
-3 -2 1 3.5 2.7
-3 -2 1 4.6 2.3
-3 2 0 1162.48 63.69
-3 2 0 1069.49 60.99
3 2 0 1065.69 63.59
3 2 0 1049.2 59.99
-3 -2 0 1048.9 63.89
-3 -2 0 1027.1 61.09
3 -2 0 1019.9 65.69
-3 -2 0 1051.09 60.99
3 2 1 -1.8 5.6
-3 2 -1 0.8 1.9
3 2 1 1 2.3
-3 2 -1 -4.1 2.9
3 2 1 -1 2.6
-3 2 -1 0 1.5
3 -2 1 2.6 2
-3 -2 -1 0 2.8
3 -2 1 -5.1 3.2
-3 -2 -1 6.9 8.7
-3 -2 -1 2.6 2.1
3 2 2 3582.64 185.68
3 2 2 3006.1 185.88
-3 2 -2 3387.36 186.18
-3 2 -2 3349.76 184.48
-3 2 -2 3423.66 184.58
3 2 2 3217.18 191.48
3 -2 2 3452.35 184.58
-3 -2 -2 3160.88 185.18
3 -2 2 3235.58 186.38
-3 -2 -2 3298.07 183.88
3 2 3 2.7 8.9
-3 2 -3 1.6 3.2
3 2 3 2 2.5
3 2 3 1.6 2.8
3 -2 3 0.6 2.5
3 -2 3 4.8 3
-3 -2 -3 -5.8 5.1
-3 -2 -3 1.1 1.8
-3 -2 -3 1.9 2.2
3 2 4 1407.86 85.19
-3 2 -4 1363.76 80.89
3 2 4 1420.76 79.99
3 2 4 1371.96 79.39
3 -2 4 1384.56 81.29
3 -2 4 1512.15 80.39
-3 -2 -4 1334.47 79.89
-3 2 -5 -1.3 3
3 2 5 1.1 4.6
3 2 5 -2.3 2.5
3 2 5 -2.1 2.7
-3 -2 -5 0.7 2.9
3 -2 5 2.3 4.4
3 2 6 335.47 22.1
3 2 6 342.37 22
3 2 6 343.67 26.3
3 -2 6 368.66 23.2
-3 -2 -6 330.67 22
3 -2 6 354.66 24.1
3 2 7 2.7 5.7
3 2 7 0.1 3.3
3 2 7 1.1 2.9
3 -2 7 3.7 4.5
-3 -2 -7 2 2.2
3 -2 7 1.5 4
3 2 8 269.47 21.3
3 2 8 279.87 18.3
3 2 8 280.07 18.7
3 -2 8 266.27 19.9
3 2 9 7.7 5.2
3 2 9 5.1 3.7
3 2 9 1.8 5
3 2 9 3.6 4
3 -2 9 -4 7.7
3 -2 9 2.5 5.1
3 2 10 15.5 7.3
3 2 10 21.2 4.7
3 2 10 13.6 4.3
3 -2 10 17.5 6.2
3 2 11 -0.6 4.3
3 2 11 0.1 4.3
3 2 11 -2.2 6.3
3 -2 11 3.7 5.4
-3 3 11 -2.9 3.1
-3 3 11 13.7 5
3 3 -11 -2.7 4
-3 3 11 10.4 6.9
-3 3 11 -0.7 5.9
-3 -3 11 -3.3 4.7
-3 3 10 -2.3 4.2
-3 3 10 4.4 6.4
-3 3 10 -0.4 4
3 3 -10 2.4 3.5
-3 3 10 -1.4 4.7
-3 3 10 -4.3 2.5
-3 -3 10 6.2 4.7
-3 3 9 2 3.8
3 3 -9 4.4 6.7
-3 3 9 6.4 3.4
-3 3 9 -2.3 6.5
-3 3 9 6.3 2.4
-3 3 9 1.6 4.3
-3 -3 9 0.3 5.4
-3 -3 9 2.4 4.6
3 3 -8 328.67 22.7
-3 3 8 315.57 25
-3 3 8 318.17 22.2
-3 3 8 360.26 21.9
-3 3 8 352.56 21.2
-3 3 8 349.17 22.1
-3 -3 8 327.57 22.3
-3 3 7 -0.7 2.5
-3 3 7 3.6 3
-3 3 7 0 3.2
-3 3 7 11.6 6.6
3 3 -7 0.7 2.6
-3 -3 7 -0.1 3.5
-3 -3 7 -1.2 3.2
-3 3 6 65.79 8.3
-3 3 6 77.39 7.9
3 3 -6 65.49 8.1
-3 3 6 50.99 8.9
-3 3 6 72.29 6.5
-3 -3 6 62.79 8.2
-3 -3 6 64.29 8.9
-3 -3 6 58.99 8.4
3 3 -5 2.4 4.3
3 3 -5 5.9 3.6
-3 3 5 8.7 4.2
-3 3 5 13.7 6.6
-3 3 5 5.5 2.9
-3 -3 5 3.1 1.7
-3 -3 5 -4.5 3.1
-3 -3 5 2 3.1
3 -3 -5 3.4 3.3
3 3 -4 519.55 33.4
3 3 -4 543.05 35.2
-3 3 4 559.94 34.7
-3 -3 4 565.94 33.8
-3 -3 4 549.95 33.1
3 -3 -4 543.05 32.7
-3 -3 4 540.15 31.7
3 3 -3 4.6 3.7
3 3 -3 4.5 3.2
-3 3 3 4.7 7.4
-3 -3 3 6.2 2.3
-3 -3 3 9.4 3
-3 -3 3 -0.9 3.3
3 -3 -3 5.2 2.7
3 3 -2 197.88 14.8
-3 3 2 151.88 18.1
3 3 -2 210.18 14.2
-3 -3 2 208.28 15.2
-3 -3 2 197.98 13.4
3 -3 -2 210.28 15.5
-3 -3 2 194.68 13.5
-3 3 1 3.2 2.3
3 3 -1 3.1 2.7
-3 3 1 8.7 4.7
3 3 -1 6.8 3.7
-3 -3 1 4.7 2.2
-3 -3 1 5.2 2.9
-3 -3 1 5.8 3.9
3 -3 -1 1.2 5.7
-3 3 0 394.06 24.3
-3 3 0 399.96 25.6
3 3 0 384.56 26.9
3 3 0 423.06 25.1
-3 -3 0 378.46 24.8
-3 -3 0 400.26 28.1
3 -3 0 367.46 29
3 -3 0 404.56 23.8
-3 3 -1 24.8 4.9
-3 3 -1 20.3 3.4
-3 3 -1 17.7 3.3
3 3 1 18.6 5.5
3 3 1 23.8 4.3
-3 -3 -1 20.6 4
3 -3 1 26.5 5.8
3 -3 1 28.8 4.4
-3 -3 -1 24.9 10.4
3 3 2 55.89 11.3
3 3 2 70.39 7.7
-3 3 -2 75.09 6.5
-3 3 -2 69.99 6.6
-3 3 -2 65.29 8.2
3 -3 2 70.39 9.1
-3 -3 -2 65.89 7.1
3 -3 2 69.69 6.8
-3 -3 -2 77.49 13.3
3 3 3 -1.9 3.4
-3 3 -3 2.2 2.6
3 3 3 5.8 6.7
-3 3 -3 1.3 2.3
-3 3 -3 -3.2 3
-3 -3 -3 -0.1 2.4
3 -3 3 4.1 2.6
3 -3 3 1 3.9
-3 3 -4 345.97 21.7
3 3 4 385.16 30.7
3 3 4 347.87 21.9
-3 3 -4 338.67 22.7
3 -3 4 316.47 21.8
-3 -3 -4 281.07 26.3
-3 -3 -4 327.37 22.1
3 -3 4 356.36 23
-3 3 -5 10 4.3
3 3 5 13 11.2
3 3 5 9.1 3.3
-3 3 -5 9 3.7
3 3 5 12.1 3.5
-3 -3 -5 10.6 3.8
3 -3 5 12 4.5
3 -3 5 7.2 3.7
3 3 6 162.68 20.9
3 3 6 166.58 12.3
3 3 6 140.39 11.1
3 -3 6 159.08 13
-3 -3 -6 150.08 11.8
3 -3 6 166.08 14.4
3 3 7 2 2.7
3 3 7 8.5 7
3 3 7 5.1 3.4
3 -3 7 2.3 4.2
3 -3 7 -5.6 3.8
3 3 8 110.09 10.2
3 3 8 103.09 9.2
3 3 8 81.59 8.5
3 3 8 113.59 13.9
3 -3 8 83.49 11.1
3 -3 8 99.29 11.4
3 3 9 -2.4 4.2
3 3 9 -2 3.6
3 3 9 -2.4 3.1
3 3 9 8.2 7.6
3 -3 9 -1.7 4.6
3 3 10 62.09 10.5
3 3 10 81.39 7.9
3 3 10 68.09 9.3
3 -3 10 55.99 11.1
3 3 11 11.1 6.4
3 3 11 8.2 3.8
3 3 11 10.5 7.5
3 -3 11 -3.5 5
-3 4 10 78.59 8.7
-3 4 10 111.99 18.8
3 4 -10 75.79 9.5
-3 4 10 83.09 9.7
-3 4 10 83.89 12.5
-3 4 10 97.29 8.5
3 4 -9 1 4
-3 4 9 2 2.8
-3 4 9 1.6 3.6
-3 4 9 4.7 5.6
-3 4 9 4.2 10.5
-3 -4 9 -1.8 4.6
-3 4 8 17.7 4.9
-3 4 8 30.9 10.7
-3 4 8 21.1 4.1
-3 4 8 18.5 5.9
3 4 -8 16.2 5.1
-3 4 8 13.5 4
-3 -4 8 18.5 4.8
-3 -4 8 8.7 4.9
-3 4 7 8.3 8.8
-3 4 7 -1.4 3.8
-3 4 7 6.4 8.6
3 4 -7 5.6 3
-3 -4 7 2 3.3
-3 -4 7 4.4 4
-3 4 6 483.35 29
3 4 -6 422.56 28.8
-3 4 6 428.46 29.4
-3 4 6 491.15 30.5
-3 4 6 483.35 27.2
-3 -4 6 481.25 29.2
-3 -4 6 472.25 29
-3 -4 6 389.56 34.9
3 4 -5 6.4 3.8
-3 4 5 -1.9 7.8
-3 4 5 1 3.9
3 4 -5 5.6 6.4
-3 -4 5 -1 3
-3 -4 5 1 2.7
-3 -4 5 3.3 3.5
-3 -4 5 3.7 1.8
-3 4 4 -0.6 7.6
3 4 -4 0.9 3.8
3 4 -4 2.6 2.7
-3 4 4 4.4 3.1
-3 -4 4 7 2
-3 -4 4 6.5 2.8
3 -4 -4 3.4 2.7
-3 -4 4 0.7 2.9
-3 -4 4 11.1 4.1
-3 4 3 -6.7 5.5
-3 4 3 3.5 2.8
3 4 -3 1.6 3.1
3 4 -3 0.3 3.4
-3 -4 3 2.8 2.3
3 -4 -3 5.4 2.5
-3 -4 3 6.6 3.7
-3 -4 3 1.4 1.9
-3 -4 3 1.1 2.6
-3 4 2 1552.24 83.99
-3 4 2 1491.25 83.49
3 4 -2 1444.76 84.19
3 4 -2 1494.75 83.09
-3 -4 2 1369.66 82.39
-3 -4 2 1406.16 82.69
3 -4 -2 1510.85 83.79
-3 -4 2 1435.06 84.29
-3 -4 2 1433.46 82.29
3 4 -1 2.5 3.8
3 4 -1 1.2 2.9
-3 4 1 8.8 3.3
-3 4 1 9.3 5.4
-3 -4 1 5.3 2.4
-3 -4 1 3.2 2.4
-3 -4 1 -7 4.3
-3 -4 1 7.7 2.4
3 -4 -1 2.9 5.3
-3 4 0 356.86 21.4
3 4 0 373.76 24.3
-3 4 0 384.36 22.6
-3 4 0 375.16 23
-3 4 0 353.36 22.5
3 -4 0 328.07 28.2
-3 -4 0 350.36 22.7
3 -4 0 366.56 23
-3 -4 0 306.17 29.7
3 4 1 0.1 3
-3 4 -1 0.4 1.7
-3 4 -1 1.5 1.8
3 4 1 -3.7 4.4
-3 4 -1 -1.3 2.9
-3 4 -1 -0.1 2.3
3 -4 1 4.8 3
3 -4 1 5 5.6
-3 -4 -1 1.8 2.7
-3 4 -2 1111.09 64.59
-3 4 -2 1159.08 65.99
3 4 2 1194.48 65.89
3 4 2 1066.89 68.09
-3 4 -2 1133.29 64.69
-3 4 -2 1155.28 64.49
3 -4 2 1095.89 66.59
3 -4 2 1178.38 65.29
-3 -4 -2 1162.38 73.29
-3 -4 -2 1096.49 65.79
3 4 3 4.5 6
-3 4 -3 0 2.6
3 4 3 0.5 2.9
-3 4 -3 -1.2 1.7
-3 4 -3 2.9 3.6
-3 4 -3 -2 1.9
3 -4 3 0.7 3.1
-3 -4 -3 0.3 7.8
3 -4 3 0.3 4.1
-3 -4 -3 -0.6 3
3 4 4 451.15 28.3
-3 4 -4 450.95 27.6
-3 4 -4 457.65 26
-3 4 -4 456.55 28.6
-3 -4 -4 375.06 31.7
3 -4 4 475.45 29.7
3 -4 4 476.45 28.4
-3 -4 -4 450.85 28.4
3 4 5 8.6 7.2
3 4 5 4.2 3.3
-3 4 -5 -2.2 2.3
3 -4 5 2.8 3.6
3 -4 5 4.3 3.7
-3 -4 -5 2.2 2.5
3 4 6 111.89 16.5
3 4 6 113.39 10.7
-3 4 -6 108.09 10
3 -4 6 116.89 11.4
3 -4 6 104.99 10.4
-3 -4 -6 97.29 9.1
3 4 7 0.5 3.6
3 4 7 3.8 2.8
3 -4 7 3.2 3.7
3 -4 7 0.7 5.2
3 4 8 154.38 18
3 4 8 158.58 11.4
3 4 8 129.89 19.1
3 4 8 149.99 11.3
3 -4 8 148.69 13.1
3 4 9 -0.6 3.5
3 4 9 3.3 4
3 4 9 -10.1 11.3
3 -4 9 4 4.2
3 4 10 -20.3 12.9
3 4 10 10.6 4.5
-3 5 9 -4.3 6.5
-3 5 9 -3.4 3.9
-3 5 9 -3.5 9.3
-3 5 9 -0.8 3.3
-3 5 9 2 2.7
3 5 -9 0.8 4.4
-3 -5 9 10.3 4.8
3 5 -8 122.59 11.7
-3 5 8 119.59 13
-3 5 8 127.89 11.9
-3 -5 8 108.39 12.2
3 5 -7 -2.7 2.7
-3 5 7 -15.7 10.4
-3 -5 7 6.6 4.1
-3 -5 7 -0.2 4.2
-3 5 6 22.1 8.9
-3 5 6 15.1 5.3
3 5 -6 20.8 4.7
-3 -5 6 27.2 5
-3 -5 6 18.6 5.1
-3 -5 6 34.8 6.4
-3 5 5 10.6 6.5
3 5 -5 -1.3 2.9
3 5 -5 -3.6 5.6
-3 -5 5 -1.4 3.1
-3 -5 5 -0.1 3.7
-3 -5 5 0.7 1.8
-3 5 4 216.28 14.3
3 5 -4 190.18 13.8
3 5 -4 173.58 13.8
-3 -5 4 185.28 13.9
-3 -5 4 181.48 12.5
3 -5 -4 185.18 12.2
-3 -5 4 176.08 15.1
3 5 -3 4.3 3.5
-3 5 3 10.2 3.7
-3 5 3 4.6 3.7
-3 -5 3 7.6 3.1
-3 -5 3 6.1 4.4
-3 -5 3 3.4 3
3 -5 -3 6.6 2.5
-3 -5 3 1.3 2.6
3 5 -2 56.99 7.4
-3 5 2 60.39 7
3 5 -2 61.79 7.7
-3 5 2 66.49 8.2
-3 -5 2 57.29 7.1
3 -5 -2 60.89 7.5
-3 -5 2 56.69 6.1
-3 -5 2 67.99 6.2
-3 -5 2 64.89 9.9
-3 5 1 -0.5 3
3 5 -1 1.1 3.2
-3 5 1 -1.3 2.8
3 5 -1 1.5 3
-3 -5 1 9.5 5.6
-3 -5 1 2.2 3
3 -5 -1 5.2 5.3
3 5 0 146.39 11.7
-3 5 0 124.49 10.8
3 5 0 149.69 12.9
-3 5 0 165.98 11.6
-3 5 0 140.49 10.9
-3 5 0 129.09 9.6
-3 -5 0 159.68 17.3
-3 -5 0 143.49 11.5
3 -5 0 118.99 13.3
3 -5 0 116.59 21.1
-3 5 -1 23.7 3.8
3 5 1 23.8 4.5
-3 5 -1 11.2 3.9
3 5 1 21.8 4.9
-3 5 -1 17.6 3
-3 5 -1 17.5 4.1
-3 -5 -1 26.1 11.5
-3 -5 -1 19.1 4.3
3 -5 1 15.6 5.2
3 -5 1 22.2 7.6
-3 5 -2 33.6 5.1
-3 5 -2 25.4 5.2
-3 5 -2 37.1 5
-3 5 -2 25 4.1
3 5 2 34.1 5.5
3 5 2 39 7.4
3 -5 2 27.7 6
-3 -5 -2 39 6.2
3 -5 2 36.5 6.8
-3 -5 -2 44.6 12.4
-3 5 -3 -1.9 3.4
3 5 3 7.2 5
-3 5 -3 -0.7 2.4
-3 5 -3 0.2 2.5
-3 5 -3 0.2 2.5
3 -5 3 5.8 4
3 -5 3 3 3.9
-3 -5 -3 8.4 10
-3 -5 -3 1 2.1
-3 5 -4 138.39 9.7
-3 5 -4 138.19 9.4
3 5 4 112.19 13.5
-3 5 -4 137.19 10.7
3 -5 4 155.48 12.2
-3 -5 -4 155.18 11.1
-3 -5 -4 102.09 18.1
3 -5 4 135.89 13.3
-3 5 -5 1.1 2.6
3 5 5 5.8 6.2
3 -5 5 4.7 4.4
3 -5 5 1.8 4.2
3 5 6 43.9 10.1
-3 5 -6 54.69 6.8
3 -5 6 50.99 9.7
3 -5 6 62.29 9.3
3 5 7 -5.6 7.1
3 -5 7 3.5 4.2
3 -5 7 1.4 6.4
3 5 8 50.09 10.7
3 -5 8 62.39 9.5
3 5 9 23.3 9.2
3 6 -8 0.8 4.2
-3 6 8 1.2 4.2
-3 -6 8 7 4.5
-3 -6 7 -1.5 5.1
-3 -6 7 5.8 4.7
3 6 -6 164.28 13.1
-3 -6 6 149.19 12.4
3 6 -5 -4.8 3.5
-3 -6 5 7.1 4.1
-3 -6 5 6.5 3.8
3 6 -4 6 4
-3 -6 4 -2.2 3.5
-3 -6 4 3.9 5.5
-3 -6 4 5.7 3.8
3 6 -3 8 4.2
-3 6 3 -2.3 3.8
3 6 -3 2.9 3.2
-3 -6 3 6.7 3
-3 -6 3 -1.6 3.4
-3 -6 3 4 5.4
-3 -6 3 0.5 2.4
3 6 -2 353.96 24.1
3 6 -2 392.76 24.1
-3 -6 2 382.46 23.3
-3 -6 2 376.36 22.8
-3 -6 2 374.06 22.3
-3 6 1 -2.2 4.1
3 6 -1 5.9 2.9
3 6 -1 -0.4 3.7
-3 6 1 4.5 2.7
3 -6 -1 2.9 5.2
-3 -6 1 3.9 2.5
-3 6 0 79.09 6.9
-3 6 0 79.19 7.9
3 6 0 88.79 9.2
-3 6 0 90.99 9
-3 6 0 78.29 7.9
-3 -6 0 86.19 7.6
-3 -6 0 84.79 14
3 -6 0 91.19 14.7
-3 6 -1 0 3.1
-3 6 -1 2.8 2.2
3 6 1 5.4 4
-3 6 -1 -5 3.4
-3 -6 -1 8.7 13.6
-3 -6 -1 3.2 2.3
3 -6 1 -9.2 6.8
3 -6 1 -15.3 7.9
3 6 2 260.77 18.6
-3 6 -2 239.18 16.3
-3 6 -2 252.07 16.5
3 6 2 290.37 18.5
-3 6 -2 251.77 17
-3 -6 -2 243.18 17.3
3 -6 2 267.57 19.4
-3 -6 -2 254.27 29.9
3 -6 2 248.28 21.8
-3 6 -3 1.5 3
-3 6 -3 2.2 2.9
3 6 3 -2.4 5.1
3 6 3 -0.5 4
-3 6 -3 5.9 3.1
3 -6 3 3.1 5.2
3 -6 3 1.4 5.2
3 6 4 135.49 13.9
-3 6 -4 134.19 10.7
-3 6 -4 143.29 9.7
-3 6 -4 139.69 9.8
3 -6 4 148.79 13.6
3 -6 4 130.49 12
3 6 5 -0.4 4.7
-3 6 -5 9.1 2.9
3 -6 5 5.1 4.4
3 -6 5 3.1 5.5
3 6 6 36.3 9.9
-3 6 -6 33.2 6.2
3 -6 6 36.6 6.7
3 6 7 -8.8 6.5
-3 6 -7 2.8 3.9
3 -6 7 5 5.6
-3 -7 5 9.2 6.9
-3 -7 5 13.3 4.1
3 7 -4 45.7 7.9
3 7 -4 66.29 10.5
-3 -7 4 37.3 5.3
-3 -7 4 56.89 8
-3 -7 3 6.5 4.7
-3 -7 3 15.3 3.6
3 7 -2 6.3 4.1
-3 7 2 6.8 4
3 7 -2 20.9 5.4
-3 7 1 5 3.4
3 7 -1 4.2 4.9
-3 7 0 43.4 5
3 7 0 34.1 5.6
-3 7 0 41.1 6.2
-3 7 0 40.9 5.6
3 -7 0 34.5 12.2
-3 -7 0 2.5 15.6
3 -7 0 44.9 7.9
-3 7 -1 10.4 2.7
3 7 1 -2.2 3.6
-3 7 -1 5.5 2.7
3 -7 1 13.6 9.2
3 -7 1 5.9 10.3
-3 -7 -1 -3.4 16.6
-3 7 -2 10.6 3.4
-3 7 -2 18.7 3.4
3 7 2 3.7 4.7
-3 7 -2 11.5 4.4
-3 -7 -2 5.2 13.4
3 -7 2 13.2 10.1
3 -7 2 14.8 8.7
3 7 3 3.9 5.5
-3 7 -3 -5.2 2.6
-3 7 -3 1.9 3.6
-3 7 -3 0.2 3.2
3 7 4 52.39 7.2
-3 7 -4 45.7 6.5
-3 7 -4 50.79 6
3 -7 4 53.69 10
3 -7 4 58.29 9
-3 7 -5 0.2 3
3 7 5 -2.1 5.5
3 -7 5 3.8 5.3
-4 0 12 20.7 3.9
-4 0 12 12.7 4.4
-4 0 12 10.8 4.5
-4 0 11 -2.3 3
-4 0 11 1.5 3.4
-4 0 10 167.48 12
-4 0 10 171.38 13.8
-4 0 10 179.08 13
-4 0 10 172.18 15.8
-4 0 9 0.9 3.3
-4 0 9 5 3.4
-4 0 9 4 4.2
4 0 -8 105.89 10.5
-4 0 8 105.49 9.9
-4 0 8 100.09 9.3
-4 0 8 114.39 11.6
4 0 -7 -0.6 2.5
-4 0 7 -0.4 3.3
-4 0 7 -0.4 3.1
-4 0 6 1070.59 63.29
-4 0 6 1068.79 62.29
-4 0 6 1124.99 61.99
4 0 -6 1035.7 62.19
-4 0 5 2.4 3.4
-4 0 5 0.5 3
4 0 -5 1.6 2.8
4 0 -5 1.9 2.3
-4 0 5 1.4 2.4
4 0 -4 1151.08 70.19
4 0 -4 1229.48 69.59
-4 0 4 1207.68 70.09
-4 0 4 1264.07 69.09
4 0 -4 1177.78 69.09
-4 0 4 1233.98 70.49
-4 0 3 4.4 2.9
4 0 -3 -1.4 2.6
-4 0 3 0.9 2.1
-4 0 3 0.1 2.3
4 0 -3 2 1.8
4 0 -3 0.2 3.1
4 0 -2 2097.39 115.29
-4 0 2 1956.4 112.59
-4 0 2 2034.4 114.59
4 0 -2 1943.31 112.99
4 0 -2 2076.09 114.99
-4 0 2 1955.2 115.09
-4 0 1 3.2 3.3
4 0 -1 5.1 4.4
4 0 -1 -3.9 4.4
-4 0 1 2.7 4.9
-4 0 1 1.8 4.1
-4 0 0 5681.83 299.27
4 0 0 5259.57 299.77
4 0 0 5196.18 298.87
-4 0 0 5693.63 302.87
-4 0 0 5002.5 299.27
4 0 0 5135.99 301.97
4 0 1 2.8 3.7
-4 0 -1 3.8 3.9
-4 0 -1 -1.2 4.1
4 0 1 1.3 4.7
-4 0 -1 1.6 4.2
4 0 1 7.4 5.6
-4 0 -2 711.83 42.1
4 0 2 663.63 42.2
-4 0 -2 723.93 42.6
4 0 2 671.73 42.1
4 0 2 682.03 42.4
4 0 3 -2.7 3.5
4 0 3 2.3 2.9
-4 0 -3 0.6 2.4
4 0 3 -0.2 2.7
-4 0 -3 -0.3 3.2
4 0 4 2105.59 119.59
-4 0 -4 2172.58 119.59
-4 0 -4 1995.4 117.59
4 0 4 2086.39 118.09
4 0 4 2129.89 119.69
4 0 5 -0.6 2.9
4 0 5 0.7 2.3
-4 0 -5 -2 2.8
-4 0 -5 -0.5 2.3
4 0 6 65.59 6.8
4 0 6 69.69 9.4
-4 0 -6 71.29 8.9
4 0 6 69.89 8.8
-4 0 -6 73.49 6.2
-4 0 -7 2.8 2.4
4 0 7 -0.2 2.5
4 0 7 -3.1 3.7
4 0 8 352.66 24.2
4 0 8 371.96 22.3
4 0 9 6 3.9
4 0 9 -5 5.2
4 0 9 3.8 3
4 0 10 8.9 3.8
4 0 10 22.3 4.9
4 0 10 10 4.4
4 0 11 6 4
4 0 11 -7.4 3.7
-4 1 12 53.99 6.6
-4 1 12 55.39 7.7
-4 1 12 72.69 8.6
-4 1 11 -3.6 3.6
-4 1 11 7.5 4.6
-4 1 11 1.3 3
-4 -1 11 3.3 4.2
-4 -1 11 2.9 5.5
-4 -1 11 3.7 2.5
-4 1 10 83.09 7.7
4 1 -10 77.69 9.7
-4 1 10 85.89 8.6
-4 1 10 86.29 9.2
-4 1 10 74.79 10.7
-4 -1 10 78.39 6.8
-4 -1 10 63.59 10
-4 1 9 -1.3 2.7
-4 1 9 -5 3.1
-4 1 9 0.6 4.1
-4 1 9 0.3 2.3
4 1 -9 4.6 2.9
-4 -1 9 0.9 5.3
-4 -1 9 0.2 3.5
4 1 -8 217.78 16
-4 1 8 229.08 16.8
-4 1 8 225.38 15.3
-4 1 8 218.78 15.2
-4 -1 8 225.58 16
-4 -1 8 209.28 17.7
-4 1 7 2.4 3.3
-4 1 7 -2.2 2.6
4 1 -7 -1 3.2
-4 1 7 2.4 2.7
-4 -1 7 1.1 3
-4 -1 7 3.6 3.7
-4 -1 7 3.3 5.2
-4 1 6 792.32 43.4
4 1 -6 763.42 44.5
-4 1 6 755.42 44.3
4 1 -6 793.22 43.3
-4 -1 6 677.43 46
-4 -1 6 616.54 48.2
-4 -1 6 796.82 45.3
4 1 -5 -3.5 2.3
4 1 -5 5.5 3.3
-4 1 5 3.4 2.7
-4 1 5 -0.3 1.8
-4 1 5 6.4 3.4
4 -1 -5 1.8 2.6
-4 -1 5 -0.3 2.7
-4 -1 5 4.3 2.8
-4 -1 5 1.3 5.3
4 -1 -5 3.4 3.4
-4 1 4 49.9 6.4
-4 1 4 44.9 7.3
-4 1 4 50.99 4.9
4 1 -4 65.59 7.7
4 1 -4 52.19 6
-4 -1 4 38.2 6.8
-4 -1 4 39.7 6.1
-4 -1 4 47.6 8.4
4 -1 -4 47.2 5
4 -1 -4 37 7.2
-4 1 3 1.8 1.9
4 1 -3 1.2 2.7
-4 1 3 5.8 3.4
4 1 -3 6.3 4.8
4 1 -3 3.1 2.5
-4 -1 3 -0.2 5.2
-4 -1 3 0.5 2.4
4 -1 -3 -2 2.3
4 -1 -3 -1 2.2
-4 -1 3 1.2 2.6
4 1 -2 1088.29 64.99
4 1 -2 1150.58 68.99
-4 1 2 1083.89 66.39
4 1 -2 1077.79 64.89
-4 1 2 1154.28 64.99
-4 -1 2 1118.59 64.89
-4 -1 2 1121.49 64.59
4 -1 -2 1161.88 66.89
4 1 -1 12.4 4.2
-4 1 1 15.7 8.4
-4 1 1 12.9 3.9
4 1 -1 6.2 4
4 1 -1 7.3 4.9
4 -1 -1 5.7 6.1
-4 -1 1 9.9 4
-4 -1 1 12.6 4.3
-4 -1 1 7.3 3.4
4 -1 -1 8.9 3.2
-4 1 0 176.48 12.2
4 1 0 139.79 15.3
4 1 0 156.38 12.8
-4 -1 0 126.99 17.2
4 -1 0 124.39 20
-4 -1 0 116.09 15.6
-4 -1 0 179.28 14.2
-4 1 -1 10.5 5.6
4 1 1 5 3
-4 1 -1 9.9 5.4
4 1 1 7.3 7.7
4 1 1 11.9 5.9
-4 -1 -1 12.9 3.3
-4 -1 -1 6 5.1
4 -1 1 7.6 4.2
4 -1 1 6.9 2.6
4 -1 1 8.5 5.8
-4 -1 -1 7.6 6
-4 1 -2 1709.23 91.29
-4 1 -2 1616.94 91.39
4 1 2 1450.85 94.19
4 1 2 1572.84 90.59
4 1 2 1614.24 89.29
-4 -1 -2 1613.44 89.79
-4 -1 -2 1570.94 89.49
4 -1 2 1538.35 90.59
4 -1 2 1393.16 89.89
4 1 3 3.5 2.6
4 1 3 1.9 4
-4 1 -3 6.5 3.6
-4 1 -3 4.5 3.7
4 1 3 3.4 3.7
-4 -1 -3 1.1 2.7
4 -1 3 8.8 3.6
-4 -1 -3 6.9 2.5
4 -1 3 8.9 4.6
4 -1 3 2.2 3.7
-4 1 -4 122.29 9.6
-4 1 -4 129.79 12
4 1 4 138.49 11.7
4 1 4 128.09 10.4
4 1 4 126.49 14.1
-4 -1 -4 115.09 10.6
4 -1 4 136.39 12.2
4 -1 4 148.89 13.3
4 -1 4 141.29 11.5
-4 -1 -4 133.99 11
-4 1 -5 1.3 1.7
4 1 5 1.5 3
-4 1 -5 -5.8 3.3
4 1 5 -1.7 2.4
4 1 5 4.6 5.2
4 -1 5 1.7 3.3
-4 -1 -5 -0.1 2.1
-4 -1 -5 -1 2.7
4 -1 5 3.3 4.5
4 1 6 651.73 37.1
4 1 6 590.74 37.7
-4 1 -6 628.84 38.7
4 1 6 622.34 39.5
-4 1 -6 600.74 35.6
4 -1 6 674.63 38.3
4 -1 6 649.24 38.6
4 -1 6 618.54 38.8
-4 -1 -6 592.14 36.9
4 1 7 -0.3 3.4
4 1 7 3.3 3.6
4 1 7 -0.5 3.9
-4 1 -7 1.6 1.6
4 -1 7 4.3 4.6
4 -1 7 1.4 4.3
4 -1 7 0.3 4
-4 -1 -7 0.6 2.6
4 1 8 25.5 4
4 1 8 16 4.8
4 1 8 19.8 4.8
4 1 8 10.7 5.6
4 -1 8 11.1 4.6
4 1 9 -5.1 5.1
4 1 9 -7.7 4.8
4 1 9 1.3 3.2
4 -1 9 -2.8 5
4 1 10 126.29 12.1
4 1 10 183.18 14.8
4 1 10 152.48 11.9
4 -1 10 148.39 13.4
4 1 11 9.1 4.5
4 1 11 -2.9 4.1
4 1 11 0.1 5.4
4 -1 11 2.2 4.3
-4 2 12 -1.6 5.5
-4 2 12 6.9 3.3
-4 2 12 12.1 4.6
-4 -2 12 0 4.6
4 2 -11 7.2 4.5
-4 2 11 6 3.1
-4 2 11 -3.6 4
-4 2 11 -3 4.6
-4 -2 11 -5.9 3.4
4 2 -10 116.49 11.2
-4 2 10 140.39 11.3
-4 2 10 121.19 13.2
-4 2 10 137.29 11.4
-4 2 10 100.89 10.3
-4 -2 10 141.29 12.4
-4 2 9 -2.1 4.2
-4 2 9 3.5 3.4
-4 2 9 1.2 3.2
-4 2 9 -2.4 3.1
4 2 -9 3.5 3.2
-4 -2 9 1.1 3.9
4 2 -8 74.29 9.3
-4 2 8 77.09 8.6
-4 2 8 72.29 8.1
-4 2 8 72.49 9.9
-4 -2 8 75.09 7.7
-4 -2 8 79.39 10.3
-4 -2 8 95.89 9.4
4 2 -7 -3 1.8
4 2 -7 -1.9 3
-4 2 7 -0.8 2.6
-4 2 7 1.9 3.7
-4 2 7 3.6 2.6
-4 -2 7 1.2 3.4
-4 -2 7 -0.9 3
-4 -2 7 -1.2 2.8
4 2 -6 737.63 45.9
-4 2 6 740.53 47.6
4 2 -6 803.92 44.4
-4 2 6 771.12 45.6
-4 2 6 784.82 44.2
-4 -2 6 725.13 45.2
-4 -2 6 804.52 45.9
-4 -2 6 773.22 46.1
-4 2 5 1.7 2.6
4 2 -5 6.8 4
-4 2 5 9.7 3.9
4 2 -5 0.3 2.8
-4 2 5 7.2 2.2
-4 -2 5 3.2 3.3
-4 -2 5 -0.3 3.2
4 -2 -5 1.8 2.7
-4 -2 5 7.9 4
-4 2 4 932.11 56.79
-4 2 4 1009.7 57.89
4 2 -4 918.71 56.89
-4 -2 4 1019.7 57.09
-4 -2 4 977.1 56.99
-4 -2 4 1008 57.19
4 -2 -4 941.81 56.99
4 2 -3 3.2 2.8
-4 2 3 1.7 4.4
4 2 -3 -7.8 5.2
-4 2 3 -0.3 2.4
-4 -2 3 3.2 3.5
4 -2 -3 -0.4 3.6
-4 -2 3 1 2.6
-4 -2 3 0.4 2.6
4 2 -2 1531.15 92.19
4 2 -2 1685.83 94.19
-4 2 2 1576.64 92.79
4 2 -2 1575.94 93.39
-4 -2 2 1711.83 93.09
-4 -2 2 1588.54 92.99
-4 -2 2 1660.73 92.49
4 -2 -2 1677.23 95.39
4 2 -1 7.6 3.3
4 2 -1 5.5 3
-4 2 1 6.4 7.3
4 2 -1 7.6 3.4
-4 2 1 6.7 3.2
-4 -2 1 7.6 3.2
4 -2 -1 6.8 6.2
-4 -2 1 8.3 3
-4 -2 1 3.7 3.5
4 2 0 3154.48 170.78
-4 2 0 3126.79 170.48
4 2 0 2757.22 173.08
4 2 0 2932.51 170.28
-4 2 0 3289.17 174.28
-4 -2 0 3053.59 173.78
-4 -2 0 2923.31 172.28
-4 -2 0 3010.9 170.78
4 -2 0 3125.29 170.48
-4 2 -1 8.7 3.4
4 2 1 5.5 2.9
-4 2 -1 5.7 4.6
4 2 1 5.8 7.1
-4 -2 -1 23.2 10.2
4 -2 1 8.3 2.7
4 -2 1 6.8 2.3
4 -2 1 10.6 5.5
-4 -2 -1 7.6 3
-4 -2 -1 11.6 4.5
4 2 2 265.47 22.8
-4 2 -2 255.87 17.4
4 2 2 205.88 20.9
-4 2 -2 265.47 19.1
4 2 2 277.87 17.7
4 -2 2 259.47 16.3
4 -2 2 257.37 16.5
-4 -2 -2 259.17 16.6
-4 -2 -2 240.98 17.2
-4 -2 -2 250.57 23.9
4 -2 2 246.78 18.6
-4 2 -3 2.3 3.4
4 2 3 5 10
-4 2 -3 7.7 4
4 2 3 8.8 4.4
4 2 3 5 2.7
4 -2 3 4.3 4.4
-4 -2 -3 -7.8 5.2
-4 -2 -3 3.3 3.1
4 -2 3 3.4 2.9
-4 -2 -3 5.8 2.5
4 -2 3 7.1 2.5
4 2 4 1685.03 98.49
4 2 4 1660.53 104.39
4 2 4 1783.62 98.99
-4 2 -4 1549.05 97.89
-4 2 -4 1759.22 100.89
-4 -2 -4 1725.13 98.09
4 -2 4 1870.51 99.19
4 -2 4 1847.72 97.49
-4 -2 -4 1729.43 98.89
4 -2 4 1783.42 100.59
-4 2 -5 4.3 3.6
4 2 5 3.4 3.6
4 2 5 -2.6 4.8
-4 -2 -5 1.5 2.2
4 -2 5 5.9 3.3
4 -2 5 4.8 3.6
4 2 6 23.4 6.8
-4 2 -6 18.8 5.1
4 2 6 30.6 4.9
4 2 6 23.2 4.4
-4 -2 -6 23.2 4.9
4 -2 6 31.7 5.3
4 -2 6 26.5 5.6
4 2 7 7.6 5.9
4 2 7 3.5 3.1
4 2 7 7.6 3.2
4 -2 7 5.8 3.6
4 -2 7 7.6 4.2
-4 -2 -7 8.1 3
4 2 8 294.87 18.7
4 2 8 276.37 18.8
4 2 8 283.57 22.5
4 -2 8 286.77 20.7
-4 -2 -8 259.67 18.2
4 -2 8 293.97 20.3
4 2 9 -6 3.3
4 2 9 -5.2 5.4
4 2 9 4.1 3.3
4 -2 9 -3.1 4
4 2 10 13.3 3.8
4 2 10 13.2 4.6
4 2 10 12.4 7.1
4 -2 10 12.1 4.7
4 2 11 7.8 3.9
4 2 11 -3.3 7.1
4 2 11 8.7 5
4 -2 11 -0.7 4.2
-4 3 11 -2.3 4
4 3 -11 5.6 4.2
-4 3 11 -3.1 4.8
-4 3 11 20.7 7.5
-4 -3 11 6.1 5.1
-4 3 10 50.49 7.8
-4 3 10 60.39 10.3
-4 3 10 44 9.2
-4 3 10 43.6 8.5
4 3 -10 45.1 8.1
-4 3 10 58.89 8.5
-4 -3 10 53.99 8
-4 3 9 2 6.3
-4 3 9 -1.3 3.1
4 3 -9 -0.6 3.8
-4 3 9 1.9 4.7
-4 3 9 2.6 2.9
-4 3 9 0.6 4
-4 -3 9 -3.5 4.6
-4 -3 9 7 5.5
4 3 -8 131.29 11.4
-4 3 8 95.89 14.1
-4 3 8 113.29 9.9
-4 3 8 136.29 12.1
-4 3 8 128.29 11.5
-4 3 8 142.29 11.1
-4 -3 8 134.89 11.9
-4 -3 8 101.59 11.4
-4 3 7 0.5 2.4
-4 3 7 -6.6 5.6
-4 3 7 0.6 2.9
-4 3 7 5.1 2.5
-4 3 7 -3.2 3.8
4 3 -7 6.9 2.8
-4 -3 7 2 3.7
-4 -3 7 2.4 2.1
-4 3 6 312.47 25.7
-4 3 6 416.66 26.2
4 3 -6 409.36 24
-4 3 6 381.86 24.3
-4 3 6 394.26 24.4
4 3 -6 379.06 25.1
-4 -3 6 358.96 22.7
-4 -3 6 396.16 24.9
-4 -3 6 372.26 24.6
4 3 -5 12.8 5.5
-4 3 5 3.2 4.2
-4 3 5 0.1 2.1
4 3 -5 1 3
-4 -3 5 0.6 2.4
-4 -3 5 1 3.3
4 -3 -5 1.8 2.7
-4 -3 5 -5.3 3.2
-4 3 4 35.1 5
-4 3 4 35 7.4
4 3 -4 25 5.1
4 3 -4 23 7.9
-4 -3 4 29.3 4.9
4 -3 -4 28.4 5
-4 -3 4 31.3 5.6
-4 -3 4 35.2 5.5
4 3 -3 7 4.3
-4 3 3 0 9
-4 3 3 5 2.3
4 3 -3 0.5 2.6
4 -3 -3 5.8 4.2
-4 -3 3 -1.5 3.9
-4 -3 3 4.9 2.8
-4 -3 3 2.1 2.6
4 3 -2 561.44 35.1
-4 3 2 534.95 33.5
4 3 -2 605.74 34.1
-4 3 2 500.95 38.4
-4 -3 2 547.35 34.6
4 -3 -2 560.64 36.6
-4 -3 2 566.54 33.1
-4 -3 2 545.15 33.1
4 3 -1 2.3 3.6
-4 3 1 4.5 2.6
4 3 -1 1.7 3.2
-4 3 1 14.2 6.2
-4 -3 1 5.8 2.6
-4 -3 1 -1.7 3.4
4 -3 -1 -3.1 5.7
-4 -3 1 5.6 2.4
-4 3 0 76.99 7.8
-4 3 0 69.39 10.9
4 3 0 52.89 9.2
4 3 0 76.09 8
-4 -3 0 71.59 7.7
4 -3 0 59.49 11.5
-4 -3 0 58.99 9.8
-4 -3 0 72.29 9.1
4 3 1 1.5 3
-4 3 -1 6.2 4.2
-4 3 -1 8.4 2.6
-4 3 -1 6.1 2.4
4 3 1 2.6 4.2
4 -3 1 13.3 6.6
-4 -3 -1 3.5 3.2
-4 -3 -1 -0.3 9.1
4 -3 1 4 2.4
-4 3 -2 625.34 37
-4 3 -2 613.64 38.7
-4 -3 -2 602.14 37.9
4 -3 2 640.04 36.9
4 -3 2 599.84 39.1
-4 -3 -2 710.73 46.2
-4 3 -3 -2.9 4.8
4 3 3 -2.8 6
4 3 3 2.4 3
-4 3 -3 -0.3 2.1
4 -3 3 1.9 2.7
4 -3 3 -1.4 3.8
-4 -3 -3 -14.3 7.5
-4 -3 -3 -0.1 2.1
-4 3 -4 71.19 8.7
4 3 4 76.49 12.8
4 3 4 74.79 8.3
4 3 4 63.89 9.1
-4 3 -4 85.49 9.5
4 -3 4 70.59 8.5
-4 -3 -4 66.69 7.7
-4 -3 -4 59.39 10.8
4 -3 4 77.89 10.5
4 3 5 12.8 10.7
-4 3 -5 -2.3 3.7
4 3 5 4.1 3.3
4 3 5 -0.6 2.8
-4 -3 -5 -1 3
4 -3 5 0 3.5
4 -3 5 -1.1 3.6
4 3 6 313.47 20.8
4 3 6 302.37 20
-4 3 -6 301.27 22.2
-4 -3 -6 312.17 20.9
4 -3 6 344.27 22.3
4 -3 6 319.37 21.7
4 3 7 -13.1 7.3
4 3 7 8.2 3.7
4 3 7 1.9 3.6
-4 -3 -7 3.2 2.5
4 -3 7 12.6 3.8
4 3 8 5.3 4.1
4 3 8 14.3 3.9
4 3 8 2.6 7
4 -3 8 8.4 4.6
4 -3 8 8.7 5.5
4 3 9 4.4 4.2
4 3 9 -1.7 3.7
4 3 9 -0.6 3.9
4 3 9 2.2 6.9
4 -3 9 4.6 3.8
4 3 10 103.19 11.6
4 3 10 120.89 10.4
4 -3 10 113.19 11.6
-4 4 10 65.79 9.5
4 4 -10 59.69 9.9
-4 4 10 56.19 8.6
-4 4 10 80.39 8.8
-4 4 10 73.09 13.1
-4 4 9 -1.5 6.2
-4 4 9 0.1 9.5
4 4 -9 5.8 4.8
-4 4 9 -2.5 2.9
-4 4 9 2.2 3.2
-4 -4 9 -4.1 3.6
-4 4 8 33.1 5.9
-4 4 8 29.3 6.5
4 4 -8 27.7 5.3
-4 4 8 52.89 8
-4 4 8 37.9 4.6
-4 -4 8 37.9 6.3
-4 -4 8 31.7 5.3
-4 4 7 2 5.4
4 4 -7 2 2.9
-4 4 7 3.7 3.8
-4 4 7 0.7 2.4
-4 -4 7 3.1 4.5
4 4 -6 270.77 20.9
-4 4 6 356.36 24.6
4 4 -6 307.17 21.3
-4 4 6 303.07 20.4
-4 -4 6 320.37 21.1
-4 -4 6 308.77 20.8
-4 -4 6 316.67 18.7
4 4 -5 5.9 3.2
4 4 -5 9 7.2
-4 4 5 8.5 2.9
-4 4 5 14.5 9.1
-4 -4 5 8.1 3.9
4 -4 -5 8.6 2.9
-4 -4 5 4.6 5.7
-4 -4 5 2.1 3.3
-4 -4 5 5.8 2.7
-4 4 4 417.16 31.6
4 4 -4 424.96 27.8
-4 4 4 437.86 26.3
-4 4 4 424.66 26.2
4 4 -4 394.76 26.7
4 -4 -4 405.36 25.7
-4 -4 4 383.66 25.8
-4 -4 4 410.66 25
-4 -4 4 433.26 27.1
4 4 -3 4.4 3.4
4 4 -3 3.4 3.3
-4 4 3 1.7 2.3
-4 4 3 0.7 2.8
-4 4 3 -0.2 6.7
4 -4 -3 0.7 3.9
-4 -4 3 2.6 2.8
-4 -4 3 2.7 2.6
-4 -4 3 1.1 3.7
4 4 -2 623.54 38.7
-4 4 2 584.74 37.3
4 4 -2 629.14 37.7
-4 4 2 644.64 39.4
-4 -4 2 640.74 36.6
4 -4 -2 610.74 39.4
-4 -4 2 611.14 37.1
-4 -4 2 647.14 39
-4 4 1 9.2 2.8
4 4 -1 3.2 4.9
4 4 -1 6.8 4.7
-4 4 1 8.1 5.1
4 -4 -1 -6.6 5.5
-4 -4 1 10.3 2.8
-4 -4 1 3.4 2.9
-4 -4 1 7.7 5.1
4 4 0 1177.68 65.39
-4 4 0 1163.48 65.59
4 4 0 1146.09 66.99
-4 4 0 1065.09 64.49
-4 -4 0 1072.49 64.79
-4 -4 0 1114.79 68.69
4 4 1 7 5.6
-4 4 -1 0.7 3.6
-4 4 -1 4.5 2
-4 4 -1 6.1 3.2
4 4 1 6.6 3.8
4 -4 1 3.2 2.9
-4 -4 -1 3.3 2.4
4 -4 1 3.4 6.2
-4 -4 -1 0.8 8.8
-4 4 -2 57.99 5.5
4 4 2 48.5 9.1
-4 4 -2 58.29 5.8
-4 4 -2 40.6 7
4 4 2 68.69 7.9
4 -4 2 57.39 6.8
4 -4 2 46.2 9.1
-4 -4 -2 62.89 7.2
-4 -4 -2 56.89 12.6
-4 4 -3 5.8 4
-4 4 -3 8.5 2.9
-4 4 -3 7.6 2.4
4 4 3 4.9 6.7
-4 4 -3 8.9 3.1
4 4 3 9.8 3.9
4 -4 3 12.1 4.7
-4 -4 -3 -3.3 8.1
-4 -4 -3 5.6 3.4
4 -4 3 6.9 3.6
-4 4 -4 825.62 46.9
-4 4 -4 824.92 47.5
-4 4 -4 827.92 48.8
-4 4 -4 805.02 46
4 4 4 753.02 52.99
4 -4 4 848.22 48
4 -4 4 802.52 49.5
-4 -4 -4 805.42 48.3
4 4 5 2.7 6.5
4 4 5 1.3 3.6
-4 4 -5 2.4 4.2
4 -4 5 2.9 4.7
4 -4 5 0.4 3.7
-4 -4 -5 4.6 3.1
4 4 6 5 4
4 4 6 1.3 6.2
4 -4 6 2.3 4.3
4 -4 6 7.7 4.2
-4 -4 -6 6.2 2.8
4 4 7 14.7 8
4 4 7 6.7 4.4
4 -4 7 -5 4.7
-4 -4 -7 2.3 2.6
4 -4 7 1.5 4.8
4 4 8 124.49 10.3
4 4 8 129.59 18.7
4 4 8 136.79 10.2
4 -4 8 130.09 12.5
4 4 9 -2.6 3.9
4 4 9 8.4 3.5
4 4 9 -9.8 11.2
4 -4 9 2.6 4.3
-4 5 9 8.3 11
4 5 -9 8.3 4.9
-4 5 9 1.5 3.1
-4 -5 9 10.5 5.8
4 5 -8 54.69 7.7
-4 5 8 63.19 7.5
-4 5 8 32.1 12.7
4 5 -7 2.5 3.5
-4 5 7 -1.1 2.9
-4 -5 7 0.2 4.3
-4 -5 7 4.5 4.2
-4 5 6 114.39 12
4 5 -6 122.59 12.7
4 5 -6 87.89 12.1
-4 -5 6 124.99 8.6
-4 -5 6 121.39 11.4
-4 -5 6 114.19 12.6
-4 -5 6 137.89 11.4
4 5 -5 -13.6 6.5
4 5 -5 3.9 3.3
-4 5 5 2.5 2.5
-4 5 5 13.6 7.9
-4 -5 5 1.1 2.5
4 -5 -5 0.5 2.7
-4 -5 5 1.9 4.4
-4 -5 5 -1.1 3.4
-4 -5 5 3.4 3.5
-4 5 4 12.4 3.4
4 5 -4 14.2 4.1
4 5 -4 12.8 7.1
-4 5 4 18 6.3
-4 -5 4 9.1 4
4 -5 -4 19.6 3.9
-4 -5 4 11.8 3.1
-4 -5 4 18.4 4
4 5 -3 11.1 4.4
4 5 -3 6.8 4.1
-4 5 3 8.7 3.9
-4 5 3 10.1 3
-4 5 3 8.4 5.3
-4 -5 3 11.6 5.1
-4 -5 3 11.7 3.5
-4 -5 3 10.3 3
-4 -5 3 12 3.1
4 -5 -3 8.2 3.6
-4 5 2 179.18 13.3
-4 5 2 182.28 14.2
4 5 -2 181.88 14.5
4 5 -2 191.28 14.2
-4 5 2 191.58 14
-4 -5 2 205.08 12.9
4 -5 -2 184.28 14.7
-4 -5 2 178.28 12.8
-4 -5 2 187.18 13.3
-4 -5 2 192.48 16.5
4 5 -1 0.5 4
-4 5 1 2 3.7
4 5 -1 4.2 3.5
-4 5 1 2.8 3.1
-4 5 1 -1.2 2
-4 -5 1 0.7 2.7
-4 -5 1 -1.8 5.6
4 -5 -1 3.1 6.1
4 5 0 22.2 4.6
4 5 0 22.7 5.5
-4 5 0 22.4 4.3
-4 5 0 17.7 3.5
-4 -5 0 19.9 4.4
-4 -5 0 30.5 9
4 -5 0 14.6 10.9
4 5 1 2.9 4
4 5 1 3.2 3.6
-4 5 -1 -4 2.8
-4 5 -1 6 2.9
-4 5 -1 2.6 2.1
4 -5 1 1.2 4
-4 -5 -1 -3.4 2.9
-4 -5 -1 -4.7 10.1
4 -5 1 -1.7 6.1
4 5 2 159.78 13.5
-4 5 -2 155.58 11.1
-4 5 -2 165.48 13.2
-4 5 -2 160.18 12
4 5 2 153.58 16
-4 5 -2 172.58 12.5
-4 -5 -2 192.28 23.7
4 -5 2 162.98 17
4 -5 2 165.48 13.1
-4 -5 -2 159.68 12.9
-4 5 -3 5.1 2.6
-4 5 -3 4.3 2.2
-4 5 -3 6 2.2
4 5 3 4.6 5
-4 5 -3 -2.5 3.7
4 -5 3 0.2 3.9
-4 -5 -3 8.4 10.4
4 -5 3 2.1 4.3
-4 -5 -3 0 3
4 5 4 15.3 5.5
-4 5 -4 15.6 2.8
-4 5 -4 17 5.2
-4 5 -4 15.8 3.6
-4 -5 -4 18 4.1
4 -5 4 24.4 5.1
-4 -5 -4 13.1 10
4 -5 4 22.2 5.4
4 5 5 0.3 4.5
-4 5 -5 -2.9 2.8
4 5 5 7.5 6.2
4 -5 5 6.8 4.4
4 -5 5 2.8 4.5
-4 -5 -5 -4.3 3.3
4 5 6 107.69 16.9
4 -5 6 98.59 14.4
-4 -5 -6 112.19 10
4 -5 6 121.09 12.8
4 5 7 -1 8.2
4 -5 7 3.3 5.5
4 5 8 -2.4 8.2
4 -5 8 -7.1 5.3
4 6 -8 10.7 4.5
-4 6 8 17 4.1
-4 -6 8 21.2 5.5
-4 6 7 1.1 2.9
4 6 -7 0.4 3.6
-4 -6 7 -4.4 5.3
-4 -6 7 0.9 4.2
4 6 -6 105.99 20.9
4 6 -6 100.39 11.5
-4 6 6 124.89 10.4
-4 -6 6 110.29 10.2
4 6 -5 6.8 7.3
4 6 -5 3.4 3.5
-4 6 5 9.6 3.5
-4 -6 5 6.5 4
-4 -6 5 2.1 2.3
-4 -6 5 0.2 3.6
-4 6 4 101.29 9.7
-4 6 4 109.49 9.4
4 6 -4 90.59 12
4 6 -4 128.19 11.7
4 -6 -4 96.99 8.2
-4 -6 4 102.79 9.3
-4 -6 4 107.89 9.5
-4 -6 4 106.69 8.5
4 6 -3 10.2 4.7
-4 6 3 3.4 2.5
-4 6 3 -1.9 3.4
4 6 -3 2.6 3.6
-4 6 3 3.9 4.3
-4 -6 3 5.5 3.2
4 -6 -3 -0.7 2.5
-4 -6 3 9.3 6.3
-4 -6 3 0.5 3.1
-4 -6 3 2.7 2.7
4 6 -2 149.09 12.4
-4 6 2 152.38 11.1
4 6 -2 132.89 12.7
-4 6 2 151.38 12.9
-4 6 2 139.49 10.9
4 -6 -2 148.09 12.1
-4 -6 2 138.79 11.3
-4 -6 2 151.68 16.9
4 6 -1 9.5 3.4
-4 -6 1 3.8 10.2
-4 -6 1 9.5 3.2
4 -6 -1 6.6 6.5
4 6 0 337.67 22.4
-4 6 0 331.37 21.2
-4 6 0 326.57 20.5
-4 -6 0 326.67 20.9
4 -6 0 280.27 25.2
-4 6 -1 0.2 3.6
-4 6 -1 2.6 2.9
4 6 1 4.4 4
-4 6 -1 0.6 3.4
4 6 1 -5.4 4.1
-4 -6 -1 3.2 2.8
4 -6 1 17.9 10.1
4 6 2 27.4 5.2
-4 6 -2 26.1 4.5
-4 6 -2 23.3 4.3
4 6 2 16.8 5.3
-4 6 -2 20.2 4.9
-4 6 -2 23 4.1
4 -6 2 21.2 7.7
-4 -6 -2 23 16.5
4 -6 2 18.8 6.7
-4 -6 -2 16.4 3.9
-4 6 -3 6.5 4.9
-4 6 -3 6.9 2.6
-4 6 -3 6.4 3.3
4 6 3 5.2 5.3
-4 6 -3 6.6 2.6
-4 -6 -3 3.2 2.9
4 -6 3 10.6 6.6
-4 -6 -3 4.9 11.9
4 -6 3 12.7 5.2
4 6 4 208.18 18.7
-4 6 -4 225.38 14.8
-4 6 -4 231.38 14.9
-4 6 -4 204.18 14.3
-4 -6 -4 234.98 16
4 -6 4 233.68 17.6
-4 -6 -4 166.18 24.2
4 -6 4 238.88 17.4
4 6 5 0.4 5.4
-4 6 -5 6.8 3.2
4 -6 5 -1.4 6.1
4 6 6 -12.1 6
4 -6 6 6 5
4 6 7 3.5 7.2
4 7 -5 -0.3 4.2
-4 -7 5 9.3 4.7
4 7 -4 8.4 3.9
-4 7 4 13.2 3.5
-4 -7 4 4.8 4.1
-4 -7 4 16.7 6.1
-4 7 3 7.3 3
4 7 -3 1 5.8
4 7 -3 4.8 4
4 7 -2 42.3 6.5
4 7 -2 65.99 11.2
-4 7 2 40.7 6.2
-4 7 1 -1.1 2.6
4 7 -1 2.9 3.7
-4 7 1 14.3 4.6
4 -7 -1 4.1 4.4
-4 7 0 -1.5 2.7
4 7 0 4.2 3.7
-4 7 0 -1.7 4.5
-4 7 0 12.5 4.1
4 -7 0 4.4 7.5
4 7 1 3.3 4.5
-4 7 -1 9.9 5
-4 7 -1 7.2 3.4
4 -7 1 1.1 9.7
-4 7 -2 30.8 4.8
-4 7 -2 31.4 4.1
4 7 2 39.3 6.7
4 -7 2 41.9 11.7
4 -7 2 25.9 9
-4 7 -3 4.6 2.7
-4 7 -3 6.9 3
-4 7 -3 -2.5 3.9
4 -7 3 24.1 7.3
4 -7 3 -5.7 8
-4 7 -4 0.7 3.5
-4 7 -4 9.4 3.2
4 7 4 15.8 5.5
4 -7 4 3.2 8.4
4 -7 4 9.7 12
-5 0 12 43.8 7.8
-5 0 12 43.5 6.9
-5 0 12 46.3 5.9
-5 0 11 -3.9 5.4
-5 0 11 2.5 3.6
-5 0 11 1.9 3.3
-5 0 10 46.3 6.9
-5 0 10 43.3 6.2
-5 0 10 49.8 7.9
-5 0 9 3.7 3
-5 0 9 -3.5 4
-5 0 9 -0.9 3.3
-5 0 8 468.95 28.8
-5 0 8 447.46 27.2
-5 0 8 418.26 27.4
5 0 -8 421.36 27.5
5 0 -7 -1.5 2.7
-5 0 7 2.7 3.4
-5 0 7 -1.5 3
-5 0 6 102.39 9.9
-5 0 6 95.69 10.4
-5 0 6 112.69 9
5 0 -6 99.19 9.8
5 0 -5 1.4 2.6
5 0 -5 0.3 2.2
-5 0 5 -2.9 2.2
-5 0 5 -4.2 3.2
-5 0 5 -0.5 2.5
5 0 -5 3.3 3.4
-5 0 4 2773.92 151.88
-5 0 4 2559.94 153.58
5 0 -4 2877.71 153.58
-5 0 4 2841.22 153.88
5 0 -4 2607.94 153.78
5 0 -4 2657.13 152.18
-5 0 3 -1.4 3.4
-5 0 3 -1.1 2.9
5 0 -3 -0.1 2.7
-5 0 3 0.3 2
5 0 -3 -1.6 2.5
5 0 -3 2.8 3.4
5 0 -2 144.99 14.3
5 0 -2 144.29 11.1
-5 0 2 132.19 12.6
-5 0 2 122.59 14.7
5 0 -2 132.79 14
-5 0 2 127.39 10.1
-5 0 1 -2.3 5.5
5 0 -1 4.6 6.6
-5 0 1 -0.6 4
5 0 -1 3.3 4.7
5 0 -1 -0.5 3.5
-5 0 1 -0.2 4.3
5 0 0 5599.24 313.57
5 0 0 5416.16 315.47
-5 0 0 5889.41 316.37
5 0 0 5465.65 312.17
-5 0 0 5229.88 312.77
-5 0 0 5804.02 312.37
5 0 1 4.6 6
-5 0 -1 -4.2 3.4
-5 0 -1 2.9 4.2
-5 0 -1 -2.5 5.3
5 0 1 -5.1 6.1
5 0 1 7.4 6.4
-5 0 -2 1134.09 71.39
5 0 2 1213.88 72.49
5 0 2 1162.68 71.99
5 0 2 1173.18 71.69
-5 0 -2 1371.16 72.99
5 0 3 -1.7 3.4
5 0 3 4.3 4.6
-5 0 -3 -0.9 2.4
-5 0 -3 2.4 4.1
5 0 3 -1.1 3.9
5 0 4 1475.95 86.49
5 0 4 1462.55 86.49
-5 0 -4 1572.44 86.79
5 0 4 1493.45 85.59
-5 0 -4 1455.15 84.99
5 0 5 -1.2 3.1
5 0 5 -1.7 4.1
5 0 5 -0.6 3.1
-5 0 -5 -0.1 2.3
-5 0 -6 425.16 26.4
5 0 6 453.25 28.7
5 0 6 414.06 28.2
-5 0 -6 453.45 28.3
5 0 6 444.36 27.2
-5 0 -7 -0.6 2.2
5 0 7 1.2 3.6
5 0 7 1.9 2.9
5 0 7 2.6 3.2
5 0 8 160.68 13
-5 0 -8 165.88 11.4
5 0 8 177.18 13.8
5 0 8 164.98 12.7
5 0 9 -4.4 3.2
5 0 9 -7.8 4.1
5 0 10 99.69 10.4
5 0 10 111.79 11
5 0 11 -7.3 4
5 0 11 1.5 4.7
-5 1 12 22.7 4.8
-5 1 12 12.1 4.7
-5 -1 12 11.6 5.3
-5 1 11 -1.3 4.4
-5 1 11 -2.4 3.2
-5 1 11 3.2 4
-5 -1 11 -11.4 5.6
-5 1 10 231.08 15
-5 1 10 204.08 15.3
5 1 -10 207.98 16
-5 1 10 211.98 17.4
-5 1 10 210.78 15.4
-5 -1 10 215.78 18
-5 -1 10 219.98 16.3
-5 1 9 -0.1 2.9
5 1 -9 -4 2.7
-5 1 9 2.9 3.1
-5 1 9 -1.6 4.4
-5 -1 9 0.4 3.6
-5 -1 9 -3.9 5.6
-5 1 8 2.2 2.8
-5 1 8 1.4 4
-5 1 8 1.5 2.6
5 1 -8 0 3.4
-5 -1 8 -2 5.5
-5 -1 8 -1.1 3.2
-5 1 7 -4.2 3.4
-5 1 7 -2.8 2.1
-5 1 7 -0.6 2.1
5 1 -7 3.7 3.5
-5 -1 7 -0.6 3.3
-5 -1 7 -3.3 2.8
-5 -1 7 -2.1 5.2
5 1 -6 602.64 37.5
-5 1 6 606.14 37.3
5 1 -6 662.53 37
-5 1 6 631.74 36.2
-5 1 6 639.54 38.5
-5 -1 6 529.35 39.6
5 -1 -6 616.74 38.3
5 -1 -6 634.04 36.9
-5 -1 6 622.64 37.7
-5 -1 6 635.64 38.1
-5 1 5 3.6 2
-5 1 5 3.1 2.5
-5 1 5 -4.6 3.4
5 1 -5 1.5 3.3
5 1 -5 1.7 3.4
-5 -1 5 4.5 5
-5 -1 5 2.9 2.9
5 -1 -5 3 2.2
5 -1 -5 3 2.9
-5 -1 5 13 5.4
5 1 -4 159.48 13.5
5 1 -4 160.68 12.9
-5 1 4 167.48 11.3
-5 1 4 194.08 14.8
-5 1 4 174.78 13.4
5 1 -4 203.78 15.7
5 -1 -4 165.38 14.7
5 -1 -4 178.28 13.2
5 -1 -4 168.88 11.8
-5 -1 4 185.48 14.1
-5 -1 4 166.18 16.3
-5 -1 4 174.18 12.9
5 1 -3 9.2 4.1
5 1 -3 0.9 5.2
5 1 -3 15.3 3.7
-5 1 3 16.6 5
-5 1 3 7.8 3.5
5 -1 -3 9 3.4
-5 -1 3 11.1 6.3
-5 -1 3 10.7 4.2
-5 -1 3 12.2 3.4
5 -1 -3 12.2 4.9
5 1 -2 980.9 56.09
-5 1 2 838.92 53.79
5 1 -2 837.42 51.09
-5 1 2 838.42 51.09
5 1 -2 868.01 51.39
-5 -1 2 869.71 50.69
5 -1 -2 881.91 53.89
-5 -1 2 726.23 53.19
-5 -1 2 888.11 51.39
5 1 -1 -3.2 3.6
-5 1 1 0.6 2.4
5 1 -1 2.1 6.1
-5 1 1 -11.5 7.1
5 1 -1 3 4.6
5 -1 -1 7.3 6.9
-5 -1 1 0.9 3.8
-5 -1 1 -1.9 3.2
5 -1 -1 0.8 3.2
-5 -1 1 2.9 4.2
5 1 0 127.29 12.8
-5 1 0 112.19 11.8
-5 1 0 85.99 16
5 1 0 73.19 13.7
5 -1 0 94.59 16.7
-5 -1 0 94.19 12.4
-5 -1 0 95.19 15.3
-5 -1 0 117.49 16.2
5 -1 0 130.59 11.9
5 1 1 5.5 3.5
5 1 1 9.8 5.2
-5 1 -1 -3.3 5.5
-5 1 -1 -3.2 4.2
5 1 1 3.9 8.4
5 -1 1 3.5 4.2
5 -1 1 3.8 5.2
-5 -1 -1 5.3 3.2
5 -1 1 1.3 3.6
-5 -1 -1 -2.4 5.4
-5 -1 -1 10.4 5.8
5 1 2 749.62 47.7
-5 1 -2 874.21 48.1
5 1 2 787.82 45.4
-5 1 -2 829.32 47.7
-5 -1 -2 814.62 46.8
5 -1 2 756.42 44.6
5 -1 2 618.14 45.8
5 -1 2 725.53 46.6
-5 -1 -2 613.64 47.7
-5 -1 -2 777.62 45.7
-5 1 -3 0.5 3.8
5 1 3 9.1 4.4
-5 1 -3 12.6 5
5 1 3 10.1 3.4
5 1 3 11.6 6
-5 -1 -3 10.4 3.9
-5 -1 -3 13 4.5
5 -1 3 12.3 4.7
5 -1 3 7.6 4.8
-5 1 -4 48.5 6.2
5 1 4 46.2 7.6
5 1 4 63.19 7.2
5 1 4 41.1 8.1
-5 -1 -4 44.8 6.3
5 -1 4 43 6.6
5 -1 4 71.59 10
5 -1 4 38 7.3
-5 -1 -4 54.19 7.5
-5 1 -5 2.5 3.8
5 1 5 0.3 2.8
-5 1 -5 1.1 2.4
5 1 5 2.2 5.5
5 1 5 -1.4 3.9
-5 -1 -5 0.8 3.2
5 -1 5 -3.6 3.6
5 -1 5 -3.5 4.5
5 -1 5 -1.5 4.2
-5 -1 -5 -0.4 3
-5 1 -6 345.07 23.6
5 1 6 347.77 23.2
5 1 6 329.17 24.4
5 1 6 320.27 24.7
-5 1 -6 323.87 20.7
5 -1 6 347.77 23.7
5 -1 6 364.96 23.6
-5 -1 -6 319.27 21.3
-5 -1 -6 346.87 22.7
5 -1 6 375.96 23.5
5 1 7 -4.9 4.6
5 1 7 -5.2 3.5
-5 1 -7 0 1.9
-5 1 -7 -1.6 4.3
5 1 7 6.7 3.3
5 -1 7 4.6 4.7
-5 -1 -7 1.4 2.8
5 -1 7 -2.6 4.5
5 -1 7 -1.9 3.2
5 1 8 52.29 8.1
5 1 8 63.79 10.6
-5 1 -8 50.59 4.8
5 1 8 58.19 7.6
5 -1 8 51.79 8
5 -1 8 54.19 9.4
-5 -1 -8 61.69 6.6
5 -1 8 70.69 7.9
5 1 9 2 5.1
5 1 9 2.6 3.3
5 1 9 1 3.6
5 -1 9 1.3 3.6
5 1 10 75.19 8.7
5 1 10 76.49 12.3
5 1 10 72.09 10.1
5 -1 10 52.79 9
5 1 11 7.6 7
5 1 11 -3.7 4.4
5 -1 11 8.9 4.7
5 -1 11 3.7 5
-5 2 12 36.9 5.6
-5 -2 12 34.3 6.2
-5 2 11 3.9 4.2
5 2 -11 5.3 4.2
-5 2 11 -4.8 4.5
-5 2 10 41.1 5.8
-5 2 10 47.5 7.7
5 2 -10 30 5.6
-5 2 10 51.19 6.3
-5 2 10 42.5 7.2
-5 2 9 0.7 4.6
-5 2 9 -1.8 3.3
-5 2 9 -1.2 2.8
-5 2 9 1.5 2.8
5 2 -9 5.9 4.1
-5 -2 9 3.4 5.1
-5 -2 9 -2.1 3.4
-5 -2 9 -4 3.8
-5 2 8 357.46 21.8
5 2 -8 360.56 23
-5 2 8 334.27 23.2
-5 2 8 343.57 22.5
-5 -2 8 289.47 21.8
-5 -2 8 369.76 22.9
-5 2 7 -0.8 3.1
-5 2 7 -1.8 3.6
5 2 -7 -2 2.5
5 2 -7 -3.1 2.6
-5 2 7 0.9 2.1
-5 -2 7 -5.5 3.4
-5 -2 7 0.4 3.4
-5 -2 7 2.1 3.7
5 2 -6 99.79 9.6
-5 2 6 104.49 10.3
-5 2 6 104.69 7.4
-5 2 6 105.19 10.5
5 2 -6 102.09 10.5
-5 -2 6 85.69 9.9
-5 -2 6 96.49 9.8
5 -2 -6 103.19 10.2
-5 -2 6 98.49 10.1
5 2 -5 -0.9 4.7
5 2 -5 0.1 2.6
-5 2 5 -4.9 4.1
-5 2 5 2.4 3.1
5 -2 -5 4 3.7
-5 -2 5 -5.4 3
-5 -2 5 2.2 3
-5 -2 5 0 3.6
-5 2 4 1659.03 95.99
5 2 -4 1516.55 98.09
-5 2 4 1767.12 97.19
5 2 -4 1623.34 95.99
5 -2 -4 1711.23 96.49
-5 -2 4 1785.42 96.19
-5 -2 4 1621.24 96.69
-5 -2 4 1738.03 95.99
5 2 -3 4.3 6.8
-5 2 3 0.9 5.5
5 2 -3 5.2 3.1
5 2 -3 6.9 3.5
-5 2 3 3.5 2.9
5 -2 -3 3.7 4.8
-5 -2 3 2.2 3.2
-5 -2 3 3.9 4.5
-5 -2 3 7.5 3.5
5 2 -2 6.1 3.3
-5 2 2 14 3.2
5 2 -2 9.5 4.7
-5 2 2 3.4 8.8
5 2 -2 9.7 6.1
-5 -2 2 18.2 3.9
-5 -2 2 10.9 4.2
-5 -2 2 10.2 4.5
5 -2 -2 9.7 6.5
5 2 -1 0.3 2.8
5 2 -1 0.7 3.5
-5 2 1 -6.9 7.2
5 2 -1 -1.3 4.3
-5 2 1 -0.4 2.4
-5 -2 1 1 3.1
-5 -2 1 3.8 2.9
-5 -2 1 1.8 4
5 -2 -1 0.8 6.3
5 -2 -1 -2.8 2.5
5 2 0 3658.43 193.68
-5 2 0 3570.34 193.48
-5 2 0 3157.08 197.08
5 2 0 3594.14 193.78
-5 -2 0 3576.54 193.98
-5 -2 0 2795.22 195.48
5 -2 0 3725.23 193.68
-5 -2 0 3516.75 197.58
5 2 1 2.3 3
-5 2 -1 -1 5.8
-5 2 -1 -0.5 2.4
5 2 1 2.9 5.5
5 2 1 -1.8 6.4
5 -2 1 3.9 3
5 -2 1 2.2 2.3
-5 -2 -1 -1.7 4.6
5 -2 1 -0.2 5.2
-5 -2 -1 -3.6 7.6
-5 -2 -1 -0.9 3.2
-5 2 -2 550.94 38.9
-5 2 -2 662.83 40.5
5 2 2 640.04 42.4
5 2 2 662.13 43.8
5 2 2 648.84 38.5
5 -2 2 578.14 39.7
5 -2 2 656.83 37.8
-5 -2 -2 608.34 38
5 -2 2 642.44 37.4
-5 -2 -2 605.64 38.1
-5 -2 -2 697.83 44.2
5 2 3 -2.1 7.4
5 2 3 -4.6 2.8
5 2 3 1.8 4.7
-5 2 -3 0.3 4.6
-5 -2 -3 -0.9 2.6
-5 -2 -3 4.4 2.7
5 -2 3 4 2.9
5 -2 3 -3 3.7
5 -2 3 -3 2.8
5 2 4 970.7 56.69
5 2 4 817.12 62.29
5 2 4 923.01 56.59
-5 2 -4 1022.7 58.29
5 -2 4 951 58.19
-5 -2 -4 979.3 55.99
5 -2 4 1035.5 55.59
5 -2 4 1017.5 56.99
-5 -2 -4 954 56.59
-5 2 -5 -0.7 2.1
5 2 5 -1.1 3
5 2 5 1.6 5.9
5 2 5 0.7 3.1
-5 2 -5 1.3 3.7
-5 -2 -5 3.2 2.8
-5 -2 -5 -0.6 2.2
5 -2 5 3.6 2.7
5 -2 5 0 4.8
5 -2 5 -0.2 3.7
5 2 6 351.66 22.7
5 2 6 350.06 23.1
5 2 6 330.97 26.2
-5 -2 -6 343.37 22.5
5 -2 6 390.06 24.1
5 -2 6 348.27 24.5
5 2 7 -2.2 3.9
5 2 7 -0.1 3.2
-5 -2 -7 1.2 3.3
5 -2 7 0.4 4.5
5 -2 7 -3.2 3.3
5 2 8 132.79 12
5 2 8 120.39 13.5
5 2 8 148.39 11.4
5 -2 8 112.09 11.9
-5 -2 -8 129.59 10.4
5 -2 8 133.49 13.5
5 2 9 3.6 4.1
5 2 9 8.7 4.1
5 2 9 -0.7 5.7
5 -2 9 -3.9 3.7
5 2 10 61.89 10.3
5 2 10 83.19 10.6
5 -2 10 52.99 9.6
-5 3 11 0.9 3.6
-5 3 11 5.7 4.4
5 3 -11 11.5 4.8
-5 -3 11 2.9 3.9
-5 3 10 108.29 11.5
-5 3 10 98.99 15.3
-5 3 10 151.28 14.1
5 3 -10 116.99 12.7
-5 3 10 135.89 10.5
-5 -3 10 134.89 12.5
-5 3 9 6.9 4.1
-5 3 9 0.2 3.3
-5 3 9 6.5 5.2
-5 3 9 12.4 6.7
5 3 -9 -1.1 3.9
-5 3 8 2.5 3.5
5 3 -8 2 2.8
-5 3 8 1.9 4.8
-5 3 8 7.1 6.2
-5 3 8 1.4 3
5 3 -8 0.8 2.1
-5 3 8 -2.4 2.3
-5 -3 8 -1.5 4.4
-5 -3 8 -1.3 2.2
-5 -3 8 -1.6 4.5
-5 3 7 4.2 3.1
-5 3 7 -3 4.4
5 3 -7 -4 2.8
5 3 -7 2.3 3
-5 -3 7 2.2 3.9
-5 -3 7 6.6 2.5
-5 -3 7 -3.6 4
-5 3 6 429.16 26.7
-5 3 6 413.96 27.7
5 3 -6 421.16 27.2
5 3 -6 404.86 27.1
-5 -3 6 417.26 26.8
5 -3 -6 405.76 26.3
-5 -3 6 424.06 25.3
-5 -3 6 404.76 26.6
-5 3 5 4.5 5.2
-5 3 5 1.1 3.2
5 3 -5 7.4 6.3
5 3 -5 0.9 2.9
-5 -3 5 5.1 3.6
-5 -3 5 1.3 3.1
5 -3 -5 6 3.9
-5 -3 5 -2.1 2.5
-5 3 4 57.99 10.5
5 3 -4 60.49 8.6
-5 3 4 63.49 7.7
5 3 -4 57.29 10.4
-5 -3 4 65.79 8.1
-5 -3 4 62.89 7.1
-5 -3 4 46.4 7.2
5 -3 -4 55.09 7.6
-5 3 3 20.1 4.2
5 3 -3 13.1 5.9
5 3 -3 16.2 4
-5 3 3 16.6 9.2
-5 -3 3 17.4 4
5 -3 -3 17.6 6.1
-5 -3 3 11.4 3.9
-5 -3 3 17.8 4.6
5 3 -2 486.85 29.3
-5 3 2 447.26 28.6
-5 3 2 488.25 34.9
5 3 -2 467.85 30.4
-5 -3 2 475.05 28.1
-5 -3 2 420.66 29.6
5 -3 -2 394.76 32.2
-5 -3 2 454.95 28.6
-5 3 1 -1.6 6.4
5 3 -1 4.5 2.6
5 3 -1 2.6 3.3
-5 3 1 -2.3 2.6
5 3 -1 -6.6 3.1
5 -3 -1 -2.9 5.9
-5 -3 1 2.7 3.1
-5 -3 1 1.9 3
5 3 0 47.4 8.1
5 3 0 51.49 6
5 3 0 41.6 9.2
-5 3 0 52.19 6.1
-5 -3 0 48.2 8.6
-5 -3 0 56.69 6.5
5 -3 0 41.2 12.2
-5 3 -1 -1.1 4.3
5 3 1 0.1 4.7
5 3 1 2.1 2.3
-5 3 -1 -1.8 2.5
-5 -3 -1 1.3 3.9
5 -3 1 1.8 2.1
-5 -3 -1 -19.2 9.2
5 -3 1 1.7 6
-5 -3 -1 -3.3 2.3
5 3 2 468.85 27.5
5 3 2 388.96 32.1
-5 3 -2 438.36 26.4
-5 3 -2 375.66 31
5 3 2 361.36 26.3
-5 -3 -2 509.15 34.5
5 -3 2 415.76 29.1
5 -3 2 455.75 26
-5 -3 -2 435.16 25.5
-5 -3 -2 423.96 27.3
5 3 3 4.4 4.8
5 3 3 15.1 7.5
5 3 3 11.4 3.4
-5 3 -3 7.2 4.4
-5 3 -3 15.4 4.8
5 -3 3 6.1 4.5
-5 -3 -3 14.2 4.2
5 -3 3 12.7 3.9
-5 -3 -3 13.3 7.7
-5 -3 -3 13.4 2.7
-5 3 -4 34.7 6.3
5 3 4 26.5 8.1
5 3 4 33.8 6.7
5 3 4 40.8 6.7
-5 3 -4 41.4 6.4
-5 -3 -4 23.8 8.7
-5 -3 -4 24.9 4.5
5 -3 4 33.7 6.7
5 3 5 0.5 3.1
5 3 5 7.4 9.8
5 3 5 -2.9 4.1
-5 3 -5 -2.4 3.9
5 -3 5 -3.4 4.8
-5 -3 -5 0.3 2.5
5 -3 5 -3.9 3.4
5 3 6 214.78 15.5
5 3 6 184.98 23.6
5 3 6 205.38 14.7
5 -3 6 197.98 17
5 -3 6 227.28 16.4
-5 -3 -6 211.08 15.6
-5 3 -7 -1 5
5 3 7 0.1 9.6
5 3 7 7.7 3.3
5 3 7 1.9 3.9
5 -3 7 -3.2 3.8
-5 -3 -7 -1.8 2.8
5 3 8 35.4 5.5
5 3 8 32.3 5.4
5 3 8 20.5 9.8
5 -3 8 34.7 6.2
5 -3 8 17.9 7.1
-5 -3 -8 40 5.9
5 3 9 0.4 5.3
5 3 9 2.1 4.1
5 3 9 -3.9 8.3
5 -3 9 4.6 4.4
5 3 10 52.49 11.4
5 3 10 39.6 6.7
5 -3 10 39.3 7.3
-5 4 10 7.7 5
-5 4 10 22.2 10.4
-5 4 10 32.7 8.3
5 4 -10 24.4 6.3
-5 -4 10 18.9 5.3
-5 4 9 6.3 3.9
5 4 -9 1.9 4.1
-5 4 9 1.3 6.6
-5 -4 9 5.7 4.1
-5 4 8 161.68 12.8
5 4 -8 166.78 12.8
-5 4 8 161.28 16.6
-5 -4 8 160.38 14.6
-5 -4 8 137.69 13.1
-5 4 7 -4.4 6.4
-5 4 7 4.1 2.8
-5 4 7 1.7 3.8
5 4 -7 -3 3.7
5 4 -7 -4.7 3
-5 -4 7 -2.1 2.1
-5 4 6 54.89 6.7
-5 4 6 52.59 10.6
5 4 -6 54.39 7.9
-5 -4 6 59.29 8.6
5 -4 -6 59.29 7.4
-5 -4 6 54.79 5.7
5 4 -5 -0.6 7.2
-5 4 5 2.1 2.3
5 4 -5 -0.6 2.8
5 -4 -5 -0.1 3.5
-5 -4 5 4.8 2.6
-5 -4 5 2.1 3
-5 4 4 695.93 44.1
5 4 -4 654.33 40.7
-5 4 4 604.24 38.3
5 4 -4 608.24 39.2
5 -4 -4 632.44 38.2
-5 -4 4 626.64 37.4
-5 -4 4 645.74 43.5
5 4 -3 0.7 3.5
5 4 -3 15.6 8.2
-5 4 3 3.6 2.9
-5 4 3 0.1 7.2
-5 -4 3 3.7 3.2
5 -4 -3 7.2 5.2
-5 -4 3 -2.2 4.1
-5 -4 3 1.1 2.5
-5 4 2 1.2 5.9
5 4 -2 3.7 4.1
-5 4 2 0 2.7
5 4 -2 -1.1 3.3
5 -4 -2 5.9 6.7
-5 -4 2 -2.2 2.6
-5 -4 2 0.8 3.9
-5 -4 2 0.9 2.9
5 4 -1 0 4.4
-5 4 1 1.3 3.1
-5 4 1 0.6 5.9
5 4 -1 -1 3.5
-5 -4 1 0.5 4.9
5 -4 -1 2.6 6.2
-5 -4 1 0.9 3.2
-5 -4 1 2.5 3
5 4 0 1356.16 81.19
5 4 0 1418.06 78.79
-5 4 0 1502.05 80.29
-5 4 0 1329.77 78.19
-5 -4 0 1314.97 78.59
-5 -4 0 1327.47 82.69
5 -4 0 1311.57 85.39
5 4 1 5.3 3.5
-5 4 -1 0.5 2
5 4 1 -2 5.3
-5 -4 -1 5.8 10.3
-5 -4 -1 0.9 3.1
5 -4 1 -0.2 5.7
-5 4 -2 168.28 14.6
-5 4 -2 179.38 12.9
5 4 2 185.08 14
5 -4 2 177.08 12.7
5 -4 2 154.98 17.1
-5 -4 -2 213.08 22.9
-5 -4 -2 163.08 13
5 4 3 6.4 6.5
-5 4 -3 5 2.5
-5 4 -3 0.2 4.1
5 -4 3 -3 3.1
5 -4 3 3.9 4.3
-5 -4 -3 11.3 9.7
5 4 4 394.66 30.1
-5 4 -4 380.86 25
-5 4 -4 356.16 23.8
-5 -4 -4 309.47 28.7
-5 -4 -4 364.96 23.8
5 -4 4 398.16 23.7
5 -4 4 346.47 25
5 4 5 0.2 3.5
-5 4 -5 7.1 4.7
5 -4 5 0 4
5 -4 5 0.7 4.2
-5 -4 -5 4.3 3.5
-5 4 -6 140.99 15.1
5 4 6 179.08 17.8
5 4 6 151.28 13.3
-5 -4 -6 169.78 13.1
5 -4 6 182.38 15.5
5 -4 6 169.18 14.2
5 4 7 5.3 4.5
5 4 7 17.7 9.6
5 4 7 -0.6 2.8
-5 -4 -7 2.2 2.8
5 -4 7 -4.4 5.2
5 -4 7 -1.4 4.7
5 4 8 75.09 13.7
5 4 8 79.19 9.6
5 -4 8 59.29 11.3
-5 -4 -8 71.69 8.4
5 4 9 -19.6 9.9
5 4 9 -0.4 4.2
5 -4 9 -0.4 5.9
5 5 -9 -3.3 4
-5 5 9 9.4 12.3
-5 5 9 5.9 4.4
5 5 -8 -1 3.6
-5 5 8 5 13
-5 5 8 4.3 3.5
-5 -5 8 0.6 4.2
5 5 -7 7.2 5.5
-5 5 7 -14 11.6
5 5 -7 6.7 4.8
-5 5 7 3.9 3.3
-5 -5 7 4.7 4.7
-5 -5 7 3.6 2.4
-5 -5 7 9.2 3.8
5 5 -6 152.48 19.3
-5 5 6 145.49 12.6
5 5 -6 179.48 14.2
-5 5 6 160.08 21.3
-5 -5 6 169.18 12.7
-5 -5 6 159.18 13.4
-5 -5 6 178.58 11.2
5 -5 -6 180.08 12.8
5 5 -5 1.6 7.7
-5 5 5 1 2.3
-5 5 5 -16.8 13.1
-5 5 5 4.9 5.3
5 5 -5 -1.1 3.1
-5 -5 5 6.6 5.4
-5 -5 5 2.9 2.2
-5 -5 5 2.5 3
-5 -5 5 7.5 3.4
5 -5 -5 -4.7 2.8
5 5 -4 21.1 5.3
-5 5 4 21 5.8
-5 5 4 8 7.5
-5 5 4 21.1 3.8
5 5 -4 23.8 6.2
-5 -5 4 20.3 7
-5 -5 4 16.7 3.7
5 -5 -4 17.8 4.1
-5 -5 4 17.4 3.3
-5 -5 4 14.1 3.8
5 5 -3 -1.5 3
5 5 -3 -4.2 4
-5 5 3 -7.8 6
-5 5 3 0.2 2.1
-5 -5 3 3.1 2.6
-5 -5 3 0.9 2.3
-5 -5 3 5.5 3.2
5 -5 -3 8.6 4.6
5 5 -2 185.18 14.2
5 5 -2 181.68 14.4
-5 5 2 182.28 13.5
-5 5 2 168.48 12.9
-5 -5 2 171.38 12.5
5 -5 -2 173.28 16.2
-5 -5 2 180.28 12.4
-5 -5 2 170.98 11.7
-5 -5 2 163.38 16.5
5 5 -1 14.2 4.8
-5 5 1 6.4 3.4
5 5 -1 12.6 5.5
-5 5 1 10.4 3.6
-5 5 1 -1.9 6.1
-5 -5 1 12.4 7.5
5 -5 -1 -1.8 6.7
-5 -5 1 7.4 2.9
5 5 0 23.3 5
-5 5 0 16 3.9
-5 5 0 14.2 4.9
-5 5 0 18.2 4.3
5 5 0 23.9 5.6
5 -5 0 31.6 11.2
-5 -5 0 15.7 3.6
-5 -5 0 10.3 8.8
-5 5 -1 1.8 2.8
5 5 1 1.7 3.9
-5 5 -1 4.3 3
-5 5 -1 1 4
5 5 1 9.1 5.3
-5 -5 -1 -9.1 10.7
5 -5 1 6.1 7.5
-5 -5 -1 1.8 2.7
-5 5 -2 146.89 13.3
-5 5 -2 152.98 10.8
-5 5 -2 127.19 11.2
5 5 2 140.89 15.8
-5 -5 -2 178.08 23.1
-5 -5 -2 143.09 11.9
5 -5 2 148.99 17.2
5 -5 2 160.88 12.2
-5 5 -3 5.9 3.2
-5 5 -3 5 4.7
5 5 3 -3.8 4.5
5 -5 3 8.1 4.2
-5 -5 -3 7.1 3.7
5 -5 3 11 6.2
5 5 4 18.1 5.7
-5 5 -4 13.5 5.3
-5 5 -4 6.2 3
-5 5 -4 11.9 2.8
5 -5 4 21.3 4.9
-5 -5 -4 10 4.2
-5 -5 -4 3.2 11.6
5 5 5 -2.5 6
-5 5 -5 -2 5.2
5 -5 5 -2.4 3.9
5 -5 5 6 4.8
-5 -5 -5 -5.3 2.8
-5 -5 -5 15.8 10.3
5 5 6 92.09 13.6
-5 -5 -6 100.99 9.1
5 -5 6 77.09 11.1
5 -5 6 84.49 12.1
5 5 7 17.9 9.2
-5 -5 -7 13.3 4
5 -5 7 4.8 5.5
5 5 8 15.1 9.6
5 -5 8 12.2 6.7
5 6 -7 5.6 4.5
-5 6 7 7.4 3.6
-5 -6 7 1.9 6
-5 -6 7 2.7 4.8
5 6 -6 26.5 10.8
-5 6 6 -3.9 7
5 6 -6 13.9 5.4
-5 6 6 0.1 3.3
-5 -6 6 20.7 4.9
-5 -6 6 8.9 2.8
5 6 -5 -2.4 8.4
5 6 -5 8 3.8
-5 6 5 2.6 2.8
-5 -6 5 4.4 3
-5 -6 5 -2.3 4
-5 -6 5 1.9 4
5 6 -4 196.78 17.6
-5 6 4 208.08 14.4
5 6 -4 210.78 15.5
5 -6 -4 189.88 14.1
-5 -6 4 192.08 13.9
-5 -6 4 202.98 14.5
-5 -6 4 198.78 14.4
5 6 -3 0.2 5.3
-5 6 3 -2.7 4.4
5 6 -3 4.5 4.6
-5 -6 3 3.3 3.3
-5 -6 3 0 3.2
-5 -6 3 2.2 2.9
5 6 -2 -6.5 3.1
-5 6 2 4 2.6
-5 6 2 0.7 4.4
-5 -6 2 2.1 7.5
-5 -6 2 -1.8 2.8
5 -6 -2 -2 4.4
5 6 -1 -0.9 3.7
-5 6 1 -0.9 2.8
-5 6 1 -2.5 4
5 -6 -1 4.5 7.5
-5 -6 1 8.9 8.5
-5 -6 1 1.6 3
5 6 0 334.67 22.2
-5 6 0 308.87 21.3
-5 6 0 328.57 21
5 6 0 348.17 23.3
-5 6 0 308.97 21.2
-5 -6 0 299.27 31.5
-5 -6 0 325.77 21.3
5 -6 0 315.67 26
5 6 1 -4.1 4.3
-5 6 -1 3.1 3.8
5 6 1 0.5 3.9
-5 6 -1 -2.7 4.5
-5 6 -1 0.6 3
-5 -6 -1 0.3 13.4
-5 -6 -1 -5.8 2.9
5 -6 1 -0.7 10.5
-5 6 -2 49.6 6
-5 6 -2 53.59 9.5
-5 6 -2 43.9 7.2
5 6 2 37.3 6.8
-5 -6 -2 41.6 7.4
-5 -6 -2 66.39 14
5 -6 2 39.9 8.9
-5 6 -3 2 3.1
-5 6 -3 -7.9 4.7
-5 6 -3 1 3.1
5 6 3 -16.5 7.9
-5 -6 -3 -8.3 11.4
-5 -6 -3 -2.8 3
5 -6 3 4.5 5.3
-5 6 -4 143.29 10.3
-5 6 -4 113.99 9.1
-5 6 -4 137.89 13.7
5 6 4 81.79 12.6
5 -6 4 135.39 13.4
-5 -6 -4 107.49 10.3
5 -6 4 100.09 14.2
5 6 5 -1.2 6
-5 -6 -5 -2.8 3
5 -6 5 2.2 6.6
5 -6 5 2.2 5.2
5 6 6 41.6 8.3
-5 7 5 2.7 3.6
5 7 -5 1.2 4.4
-5 7 4 5.5 3.3
5 7 -4 -0.6 7.8
5 7 -4 13.3 4.2
-5 -7 4 7.9 4.7
-5 -7 4 9.6 3
-5 7 3 5.6 3.3
5 7 -3 6.4 6.1
5 7 -3 7.7 4.9
-5 7 2 48 7.2
5 7 -2 45.7 7.1
-5 7 2 31.6 5.1
-5 -7 2 36.7 5.8
-5 7 1 3.4 3.7
-5 7 1 7.2 4.1
5 7 -1 10 4.2
5 -7 -1 11.9 6.3
-5 -7 1 3 3
-5 7 0 12.5 4.7
5 7 0 5.4 4.5
-5 7 0 4.2 5.8
-5 -7 0 12.5 3.6
5 -7 0 -1.8 8.1
5 7 1 1.8 5.2
-5 7 -1 4.7 3.4
-5 7 -1 0.7 4.7
-5 7 -1 -6.8 4.6
5 -7 1 12.7 9.3
-5 -7 -1 2.7 3.2
-5 7 -2 39.6 6.8
-5 7 -2 32.6 4.5
5 7 2 46.6 7.5
-5 -7 -2 38.6 5.6
5 -7 2 35 11.9
5 7 3 6.4 5.1
-5 7 -3 4.1 3.6
-5 -7 -3 8.3 3.9
-5 7 -4 4.6 3.3
5 -7 4 -5.5 7.9
-6 0 12 104.99 13
-6 0 11 0.2 3.3
-6 0 11 -2.3 4.3
-6 0 11 2.2 5.4
-6 0 10 0.6 3.9
-6 0 10 1 3.6
6 0 -9 -2 3.5
-6 0 9 3 3.3
-6 0 9 -1.9 3.4
-6 0 9 6.3 4.8
-6 0 8 383.46 25.1
-6 0 8 369.96 23.1
6 0 -8 365.86 23.6
-6 0 8 341.47 23.5
-6 0 7 2.5 4.2
-6 0 7 0.6 2.7
6 0 -7 2.1 3.2
6 0 -6 29.2 5.9
6 0 -6 16.4 4.4
-6 0 6 17.4 5.2
-6 0 6 17.7 3.8
6 0 -6 19.9 4.2
-6 0 6 28.3 4.8
6 0 -5 0.1 2.8
-6 0 5 1.4 3.3
6 0 -5 -0.6 3.2
6 0 -5 -0.5 2.8
-6 0 5 1 2.5
-6 0 4 1320.07 75.19
6 0 -4 1232.48 73.09
-6 0 4 1153.68 75.09
-6 0 4 1310.77 72.99
6 0 -4 1423.66 75.49
6 0 -4 1249.77 75.29
-6 0 3 -0.3 2.2
-6 0 3 1.4 3.8
6 0 -3 -1.5 4.7
-6 0 3 1 5.1
6 0 -3 0.7 2.5
6 0 -3 -1.2 3.5
-6 0 2 1577.64 87.29
6 0 -2 1576.84 87.59
-6 0 2 1599.14 89.99
6 0 -2 1597.74 90.89
6 0 -2 1377.06 90.09
-6 0 2 1422.26 90.69
6 0 -1 2.2 5.3
6 0 -1 -4.2 6.6
-6 0 1 7.1 4.5
-6 0 1 -3.1 5.2
6 0 -1 0 3.7
-6 0 1 -9.1 6.2
6 0 0 1591.94 100.79
-6 0 0 1548.05 98.69
6 0 0 1660.93 98.29
-6 0 0 1739.63 98.29
6 0 0 1794.72 99.99
-6 0 0 1725.03 101.89
6 0 1 -4.1 5.7
-6 0 -1 0.5 6
-6 0 -1 -1.6 4.9
-6 0 -1 7.1 4.5
6 0 1 4 7.6
6 0 1 5.2 7.7
-6 0 -2 1934.31 129.59
6 0 2 2215.48 130.79
6 0 2 2464.15 132.19
6 0 2 2245.08 131.69
-6 0 -2 2498.15 132.49
-6 0 -3 -0.7 3
6 0 3 -2.8 4.2
6 0 3 2 4.9
6 0 3 0.1 4.5
-6 0 -3 -0.5 4.4
-6 0 -4 151.08 12.2
6 0 4 122.79 12.7
6 0 4 109.69 11.7
6 0 4 117.39 12.8
-6 0 -5 0 2.3
6 0 5 -3 4
6 0 5 0.1 4.2
6 0 5 1.9 4.3
-6 0 -5 7.3 4.7
-6 0 -6 818.02 46.9
6 0 6 766.82 47.1
-6 0 -6 744.13 44.9
6 0 6 758.82 45.9
6 0 6 754.12 47
-6 0 -7 -1.5 4.3
-6 0 -7 2.7 2.3
6 0 7 -2.2 4.3
6 0 8 -3.7 3.6
6 0 8 2.2 4.2
6 0 8 2.5 5.8
-6 0 -8 -0.2 2.8
6 0 9 -2.7 4.1
-6 0 -9 4.1 2.2
6 0 9 -8.2 4.8
6 0 10 116.69 12.9
6 0 10 124.49 12.6
6 0 10 89.19 12.9
-6 1 12 8.4 5.1
-6 1 12 1.2 4.1
-6 -1 12 -0.9 6.5
6 1 -11 -0.8 4.5
-6 1 11 7.6 3.7
-6 1 11 -2 3.8
-6 -1 11 -1.3 5.8
6 1 -10 152.18 12.8
-6 1 10 163.88 13.2
-6 1 10 160.18 12.6
-6 -1 10 142.49 15.4
-6 -1 10 190.28 13.8
6 1 -9 -3.7 3.1
-6 1 9 5.1 5.2
-6 1 9 3 3.1
-6 1 9 -1.2 3.5
-6 -1 9 0.1 3.7
-6 -1 9 10.6 5.8
-6 1 8 263.47 18.5
-6 1 8 271.67 17.2
6 1 -8 276.17 19.1
-6 1 8 265.77 19.9
-6 -1 8 217.18 20.3
-6 -1 8 279.17 18.2
-6 1 7 0.6 2.4
6 1 -7 0.3 3
-6 1 7 -5.8 3.4
6 1 -7 -4.3 2.9
-6 1 7 3.5 3.4
-6 -1 7 0.8 5.3
-6 -1 7 -2.9 2.8
6 -1 -7 7.8 3.7
-6 -1 7 0.9 3.8
6 1 -6 333.37 21.1
-6 1 6 309.67 21.7
-6 1 6 300.27 21.1
-6 1 6 312.67 19.3
6 1 -6 309.77 21
6 -1 -6 307.77 19.6
6 -1 -6 300.57 21.3
-6 -1 6 320.67 20.4
-6 -1 6 293.67 23.5
-6 -1 6 311.37 21.6
6 1 -5 1.1 3.9
-6 1 5 -1.8 1.9
-6 1 5 0.4 4
6 1 -5 3.3 3.8
-6 1 5 0.6 3.7
6 1 -5 0.1 2.8
6 -1 -5 5.7 4.3
6 -1 -5 1.8 2.6
-6 -1 5 -1.1 2.6
-6 -1 5 3.2 5
-6 -1 5 2.9 3.5
6 1 -4 630.94 38.7
6 1 -4 633.64 39.4
-6 1 4 594.14 40
-6 1 4 658.73 36.8
-6 1 4 607.04 39.1
6 1 -4 610.14 41
6 -1 -4 631.24 36.8
6 -1 -4 659.93 39.1
-6 -1 4 643.64 39.4
-6 -1 4 652.23 42.1
-6 -1 4 671.93 38.4
6 -1 -4 642.94 40
6 1 -3 6.3 4.4
6 1 -3 3.7 5.9
6 1 -3 6.5 3.2
-6 1 3 1.2 4
-6 1 3 7.2 3.7
-6 -1 3 6 3.9
-6 -1 3 2.9 2.9
6 -1 -3 1.7 5
-6 -1 3 1.1 5.5
6 -1 -3 7.2 4.1
6 1 -2 432.06 28.2
6 1 -2 420.46 27.5
-6 1 2 403.16 26.8
-6 1 2 374.36 31.4
-6 -1 2 410.96 27.6
6 -1 -2 374.26 30.1
6 -1 -2 462.15 28.1
-6 -1 2 411.36 30
-6 -1 2 423.86 26.7
-6 1 1 5.4 4
6 1 -1 -1.1 3.9
-6 1 1 10.4 7.9
-6 1 1 1.2 3.4
6 1 -1 11.2 7
6 1 -1 4.2 5.4
6 -1 -1 2.3 3.8
-6 -1 1 9.5 4.5
6 -1 -1 2.6 3.9
-6 -1 1 3.8 5.5
6 -1 -1 2.9 6.8
-6 -1 1 1.5 4.4
-6 1 0 690.43 45.5
6 1 0 591.64 42.3
6 1 0 678.33 42.7
-6 1 0 596.94 41.5
-6 -1 0 526.55 41.1
6 -1 0 641.04 41.5
-6 -1 0 651.23 44.5
6 -1 0 732.73 48.2
6 -1 0 738.13 41.7
6 1 1 -1.2 6.8
6 1 1 -3.4 4.5
-6 1 -1 5.5 4.2
6 1 1 1.9 4.5
-6 1 -1 1.2 6.8
-6 -1 -1 -2.3 4.2
6 -1 1 6.2 6.1
6 -1 1 7.4 3.7
-6 -1 -1 1.3 6.1
6 -1 1 -0.8 4.5
-6 -1 -1 2.7 6.2
6 1 2 163.28 20.8
6 1 2 127.39 16.8
-6 1 -2 179.88 17.2
6 1 2 178.38 14.3
-6 1 -2 190.28 16.7
-6 -1 -2 170.48 17.3
-6 -1 -2 173.18 14.3
6 -1 2 170.78 13.8
6 -1 2 157.08 16.9
6 -1 2 176.38 15.9
-6 -1 -2 139.59 16
-6 1 -3 -0.5 3.9
6 1 3 1.6 2.9
6 1 3 -8.8 5.9
6 1 3 2.4 4.9
6 -1 3 -5.8 3.8
6 -1 3 7.5 5.1
-6 -1 -3 -1.4 3.9
6 -1 3 1.9 3.4
-6 -1 -3 1.7 4.1
-6 1 -4 264.57 19.2
-6 1 -4 287.87 21.3
6 1 4 287.17 20.3
6 1 4 257.27 19.3
6 1 4 257.57 21.6
-6 -1 -4 308.47 19.2
6 -1 4 275.67 19.2
6 -1 4 271.57 20.6
-6 -1 -4 305.47 20.2
6 1 5 0.3 4.6
-6 1 -5 6 3.6
-6 1 -5 -2.3 4.7
6 1 5 -6.3 3
6 -1 5 -4.4 3.2
-6 -1 -5 0 3
6 -1 5 2.7 4.8
-6 -1 -5 -7 4.8
6 -1 5 -1.4 3.9
6 -1 5 5.2 4.8
-6 1 -6 80.19 10.9
-6 1 -6 76.69 6.9
6 1 6 82.29 12.3
6 1 6 58.29 8.2
6 1 6 84.89 10.1
6 -1 6 83.99 11.3
6 -1 6 80.49 11.2
-6 -1 -6 82.29 8.5
6 -1 6 74.99 9.4
6 -1 6 71.39 10.6
-6 -1 -6 78.19 9.3
6 1 7 6.7 4.6
-6 1 -7 1.3 2.1
6 1 7 4.7 4.9
6 1 7 -0.7 3.3
6 -1 7 -5.9 4.5
-6 -1 -7 3.6 2.7
6 1 8 148.09 20.3
6 1 8 218.88 16.3
6 1 8 217.08 15
-6 1 -8 202.88 13.2
6 1 8 189.28 20.1
6 -1 8 188.28 17.7
6 -1 8 206.98 15.9
6 -1 8 201.98 16.5
6 -1 8 235.18 16.2
-6 -1 -8 217.58 14.7
6 1 9 5.3 4.2
6 1 9 -1.1 5.8
6 1 9 1.5 4.3
6 -1 9 9.2 5.1
6 -1 9 3.7 4.3
-6 -1 -9 2.1 2.7
6 1 10 6.2 6.2
6 1 10 -4.4 4.7
6 1 10 0.7 4.7
6 -1 10 -9.4 4.9
6 -1 10 2.4 3.8
-6 2 11 -0.9 4
-6 2 11 -1.3 3.3
6 2 -11 5.6 3.9
-6 2 10 -1.7 8.5
-6 2 10 3.9 3.4
6 2 -10 7.1 4
-6 2 10 -3.5 3.8
-6 2 10 3.5 3.1
-6 -2 10 -3.6 3.7
-6 2 9 5.6 5.2
6 2 -9 -6.7 3.9
-6 2 9 -0.4 2.8
-6 2 9 -4.9 2.3
-6 -2 9 -3.8 4.2
-6 -2 9 2.6 4.3
-6 -2 9 -0.9 4.5
-6 2 8 249.97 18.8
-6 2 8 262.87 17.1
-6 2 8 240.58 15.7
6 2 -8 232.88 17.3
6 2 -8 249.88 16.1
-6 -2 8 253.17 17.9
6 2 -7 10.9 4.3
-6 2 7 8.7 3.2
6 2 -7 5.3 3.8
-6 2 7 7.7 4.8
-6 2 7 9.4 2.6
6 -2 -7 8.3 4.9
-6 -2 7 4.4 3.9
-6 -2 7 5.7 3.9
-6 -2 7 7.5 4.4
-6 2 6 39.7 6.8
6 2 -6 43.2 6.9
-6 2 6 41.8 6.3
6 2 -6 33.3 6
-6 -2 6 35.1 6.4
6 -2 -6 41.1 7.1
-6 -2 6 48.1 7.2
-6 -2 6 38.7 6.1
6 2 -5 7.3 5.8
-6 2 5 -0.6 4.3
-6 2 5 1.5 2.5
6 2 -5 -3.5 2.7
6 -2 -5 2.1 4.4
-6 -2 5 2 3.7
-6 -2 5 3.7 3.1
-6 -2 5 1.6 3.5
-6 2 4 1076.99 62.99
6 2 -4 1020.2 62.99
6 2 -4 1046.5 63.29
6 2 -4 1150.58 66.29
-6 2 4 1041.7 65.39
-6 -2 4 1071.99 62.99
6 -2 -4 1106.59 64.29
-6 -2 4 1106.59 63.29
-6 2 3 1.3 2.4
6 2 -3 6.3 3.7
6 2 -3 20.5 7.9
6 2 -3 4.2 3
-6 2 3 2.7 6.8
6 -2 -3 4 5.3
-6 -2 3 2.4 4.9
-6 -2 3 5.3 3.3
-6 2 2 980 63.79
-6 2 2 969.8 57.39
6 2 -2 967.9 60.59
6 2 -2 969.2 58.79
6 2 -2 981.2 57.29
-6 -2 2 913.41 58.59
-6 -2 2 974.9 57.59
6 -2 -2 985.1 57.39
-6 -2 2 991.8 57.49
6 2 -1 -1.1 2.9
-6 2 1 12.7 8.4
-6 2 1 1.2 3.6
6 2 -1 2 5.2
6 2 -1 5.5 4.9
6 -2 -1 7.4 6.6
-6 -2 1 -3.3 3.7
-6 -2 1 0 3.5
6 -2 -1 4.5 3.3
-6 -2 1 -1.1 4.1
6 2 0 897.71 55.79
6 2 0 953 55.69
-6 2 0 871.01 54.69
6 -2 0 899.91 62.99
-6 -2 0 804.62 58.89
-6 -2 0 976.5 56.29
-6 -2 0 1017.9 59.09
6 -2 0 1010 55.39
-6 2 -1 0.6 3.6
6 2 1 -1.6 3.6
6 2 1 1 6.1
6 2 1 -1.5 6.4
-6 2 -1 -2.6 6.3
6 -2 1 4.1 3.9
-6 -2 -1 9 4.9
6 -2 1 3.5 2.9
6 -2 1 2.6 2.5
6 -2 1 3.6 6.1
-6 -2 -1 6.1 5.4
-6 2 -2 1846.92 113.09
6 2 2 2000.5 112.49
-6 2 -2 1594.14 108.39
6 2 2 2112.29 110.89
6 -2 2 1919.71 106.49
6 -2 2 1976.1 107.59
-6 -2 -2 1839.62 107.89
6 -2 2 1731.53 109.89
-6 -2 -2 1779.82 108.19
-6 -2 -2 2081.69 113.79
-6 2 -3 1.9 4.9
6 2 3 1.5 5.6
6 2 3 2.8 3.3
-6 2 -3 0.3 4.8
6 2 3 4.9 7
6 -2 3 6.4 3.7
6 -2 3 -1.7 3.3
6 -2 3 -3.9 4.1
-6 -2 -3 -1.8 2.4
-6 -2 -3 -2 3.4
-6 -2 -3 -5.2 5.9
6 2 4 92.39 11.9
6 2 4 117.39 10.5
-6 2 -4 115.59 12.3
6 2 4 66.09 14.3
-6 -2 -4 94.49 10.5
6 -2 4 107.89 11.7
6 -2 4 116.49 10.1
-6 -2 -4 118.89 10.1
6 -2 4 72.89 13.2
-6 2 -5 1.3 4.8
6 2 5 1.6 3.4
-6 2 -5 0.5 2.6
6 2 5 1.4 7.3
6 2 5 4.2 4.1
6 -2 5 0.6 3.2
6 -2 5 4 4.3
6 -2 5 3 4.7
-6 -2 -5 -0.5 3.1
-6 -2 -5 1.9 3.6
6 2 6 583.14 35.2
-6 2 -6 588.34 33.2
6 2 6 580.44 35.3
6 2 6 550.44 39
6 -2 6 593.14 36.3
6 -2 6 598.14 37.1
-6 -2 -6 531.85 35
-6 -2 -6 563.64 34.8
6 -2 6 577.34 33.9
6 2 7 2.7 3.7
6 2 7 4.6 5
6 2 7 3.2 3.8
6 -2 7 6 4.8
-6 -2 -7 4.8 3.5
6 2 8 0.7 5
6 2 8 3.1 4.2
6 2 8 -3.4 4
6 -2 8 -1.8 5
-6 -2 -8 1.5 3.1
6 -2 8 3.9 5.7
6 2 9 -1.4 4.6
6 2 9 1 5.4
6 -2 9 1.6 5.4
-6 -2 -9 7.3 2.8
6 2 10 102.99 13.5
6 2 10 100.99 12.1
6 -2 10 110.99 13.3
6 3 -11 -1.5 4.6
-6 3 11 6.3 3.5
-6 -3 11 3 5
-6 3 10 113.49 10.3
-6 3 10 110.69 19.4
-6 3 10 115.19 9.5
6 3 -10 132.39 12.9
-6 3 10 86.09 14.5
6 3 -9 0 3.5
-6 3 9 1.9 4
-6 3 9 -2.5 6.1
-6 -3 9 -1.9 2.5
6 3 -8 104.89 10.4
6 3 -8 134.69 9.9
-6 3 8 123.69 11.2
-6 3 8 127.49 13.9
-6 -3 8 103.99 12
-6 -3 8 120.09 12
-6 -3 8 118.69 9.3
-6 3 7 9.8 5.4
6 3 -7 0.2 3.8
6 3 -7 1.8 3.8
-6 3 7 0.2 3
-6 -3 7 4.5 4
-6 -3 7 7.3 3
6 -3 -7 0.6 4
-6 -3 7 1 4
6 3 -6 131.29 14.7
-6 3 6 152.08 12.8
-6 3 6 133.89 14.6
6 3 -6 153.68 12.7
6 -3 -6 147.79 12.3
-6 -3 6 140.59 12.2
-6 -3 6 148.49 12.7
-6 -3 6 146.99 11.4
6 3 -5 -1.7 3.2
-6 3 5 2 3.4
-6 3 5 2.3 6.1
6 3 -5 -3.9 6.6
-6 -3 5 -0.7 2.9
-6 -3 5 -0.4 3.2
6 -3 -5 2.3 4.5
-6 -3 5 4.6 3.9
6 3 -4 378.86 25.7
-6 3 4 375.36 24.8
6 3 -4 397.96 29.9
-6 -3 4 369.86 24.6
-6 -3 4 381.56 25.1
6 -3 -4 380.86 25.8
6 3 -3 2.6 3.7
-6 3 3 1.3 2.7
-6 3 3 -13.8 7.9
6 3 -3 -10.5 6.2
-6 -3 3 2.8 3.2
-6 -3 3 -3 3.2
-6 -3 3 2.4 3.2
6 -3 -3 0.9 5.1
6 3 -2 168.58 13.1
6 3 -2 179.28 16.4
-6 3 2 178.48 13.3
6 3 -2 175.28 18.5
-6 -3 2 182.98 13.9
-6 -3 2 179.78 14.6
-6 -3 2 173.68 14.7
6 3 -1 1.6 2.8
6 3 -1 -1.5 4.2
-6 3 1 -13.8 7.3
6 3 -1 5.4 4.2
-6 3 1 1.6 2.5
6 -3 -1 5.7 6.3
-6 -3 1 8.9 4.2
-6 -3 1 1.1 4.8
-6 -3 1 -0.4 3.4
6 3 0 331.57 20.7
-6 3 0 329.17 31.1
6 3 0 356.76 22.3
-6 3 0 311.97 21.4
-6 -3 0 322.17 21.8
-6 -3 0 292.77 26.2
-6 -3 0 334.07 24.3
6 -3 0 274.87 30.1
6 3 1 -2.4 4.9
6 3 1 -0.6 3.7
-6 3 -1 -7.6 5.5
6 3 1 -3.4 3.3
-6 3 -1 1.4 3
-6 -3 -1 5.4 8.1
-6 -3 -1 -2 2.6
-6 -3 -1 -5.3 4.3
6 -3 1 -1.4 5.3
6 3 2 86.89 9.8
-6 3 -2 96.59 12.8
-6 3 -2 88.39 8.9
6 3 2 77.29 10.1
6 3 2 105.09 16
-6 -3 -2 119.29 17.1
6 -3 2 82.59 13.7
6 -3 2 99.89 8.5
-6 -3 -2 95.59 8.9
-6 -3 -2 81.49 9.5
-6 3 -3 1 4.4
6 3 3 7.5 7.9
6 3 3 9.8 4.1
-6 3 -3 4.2 5.5
6 3 3 0.9 4.6
6 -3 3 5.5 3.3
-6 -3 -3 2.1 7.5
-6 -3 -3 5.4 2.7
6 -3 3 6.4 5
-6 -3 -3 2.8 3.7
-6 3 -4 201.78 15.6
-6 3 -4 185.08 16.6
6 3 4 175.38 18.1
6 3 4 198.98 18.9
6 3 4 189.48 14.7
-6 -3 -4 165.48 20.1
-6 -3 -4 176.88 14.4
-6 -3 -4 185.28 12.7
6 -3 4 202.78 14.6
6 -3 4 178.08 15.8
6 3 5 10.1 6.9
-6 3 -5 4.1 5.3
6 3 5 1.5 4.7
-6 3 -5 -2.9 3.7
6 3 5 -1.1 3.5
6 -3 5 5.1 4.5
-6 -3 -5 6.4 2.9
6 -3 5 4.5 4
6 3 6 48.4 11.8
6 3 6 47.6 7.1
6 3 6 36.2 5.9
6 -3 6 57.59 9.9
6 -3 6 45.5 7
-6 -3 -6 30.2 5.3
6 3 7 -0.1 4.1
-6 3 -7 -0.8 6.7
6 3 7 4.7 4
6 3 7 -19.9 9.2
6 -3 7 9.1 7
6 -3 7 -0.7 5.4
-6 -3 -7 3.8 3.6
6 3 8 91.19 16.5
6 3 8 121.89 12.1
6 3 8 116.09 10.9
-6 -3 -8 121.39 11.5
6 -3 8 131.39 13.9
6 3 9 0.7 3.8
6 -3 9 0.6 5.5
-6 -3 -9 1.8 3.2
6 4 -10 -3 5.1
-6 4 10 2.3 4.1
-6 -4 10 0.2 4
-6 4 9 1.7 4.3
6 4 -9 10.4 4.4
-6 4 9 -1.9 7
-6 -4 9 -6.7 4.3
-6 4 8 140.69 12.2
6 4 -8 141.39 12
6 4 -8 140.69 10.8
-6 4 8 94.49 16.9
-6 -4 8 112.29 8.8
-6 4 7 1 4.4
-6 4 7 10.3 8.4
-6 4 7 10.5 4.3
-6 -4 7 8.9 4.8
6 -4 -7 8.5 4.4
-6 -4 7 5.2 2.3
6 4 -6 44.4 7.1
-6 4 6 33.4 10.4
6 4 -6 29.4 11.6
-6 4 6 44.5 7.7
6 -4 -6 33.9 5.4
-6 -4 6 32.1 5.5
-6 -4 6 29.2 4.8
-6 4 5 8.8 10.3
-6 4 5 -2.3 2.9
6 -4 -5 0 4.1
-6 -4 5 0.6 3.4
-6 -4 5 -1.3 2.2
6 4 -4 572.74 37.1
6 4 -4 520.45 34.6
-6 4 4 511.25 33.7
-6 4 4 617.94 39.7
-6 -4 4 519.65 32.7
6 -4 -4 566.34 34.5
-6 -4 4 540.45 33.4
-6 4 3 8.4 4
6 4 -3 7.4 5.7
6 4 -3 7.6 3.9
-6 -4 3 14.3 3.9
6 -4 -3 10.7 5.7
-6 -4 3 8.6 3.1
6 4 -2 362.46 23.4
-6 4 2 338.17 22.9
6 4 -2 341.87 25.3
-6 -4 2 351.36 24.9
-6 -4 2 343.87 22.5
-6 -4 2 351.26 22.5
-6 4 1 1.2 2.8
6 4 -1 2.2 3.6
-6 4 1 -9.3 6.7
6 4 -1 -1.1 4.1
-6 -4 1 -5.1 5.5
-6 -4 1 1.3 3.9
-6 -4 1 -2.4 2.9
6 -4 -1 6 6.4
6 4 0 392.26 25.3
-6 4 0 365.06 23.9
6 4 0 335.37 27.5
-6 4 0 394.26 27.3
-6 -4 0 442.26 25.9
-6 -4 0 347.87 30
6 -4 0 380.06 33.7
-6 -4 0 370.96 24.9
-6 4 -1 5.2 3.4
-6 4 -1 3.4 5.3
6 4 1 8.7 6.7
6 4 1 6.4 4.1
-6 -4 -1 1 9.6
6 -4 1 8.9 7.3
-6 -4 -1 6.6 3.9
-6 4 -2 768.12 46.3
-6 4 -2 719.23 44.1
-6 -4 -2 735.93 45
6 -4 2 745.23 48.4
6 -4 2 771.92 43.7
6 4 3 -1.6 6.2
-6 4 -3 3.5 3.3
-6 4 -3 0.9 4.6
6 -4 3 -1.6 5.8
-6 -4 -3 -6.6 8.4
-6 -4 -3 5.7 2.7
6 4 4 46.7 10.3
-6 4 -4 47.8 8.4
-6 4 -4 40.8 7.7
6 -4 4 57.19 8.6
-6 -4 -4 33.3 5.5
-6 4 -5 1.1 5.1
6 4 5 4 6.9
6 4 5 1.9 3.8
6 -4 5 1.7 4.5
6 -4 5 6.7 4.3
-6 -4 -5 1.3 3.1
-6 4 -6 269.97 21.6
6 4 6 261.37 18.8
6 4 6 260.57 32.2
6 4 7 -12.9 6.4
6 4 7 7.1 5.5
-6 -4 -7 4.1 3.7
6 -4 7 7.6 5.4
6 -4 7 -5.2 5.7
6 4 8 -6.4 4.8
6 4 8 3.8 4.1
6 4 8 21.5 7.5
6 -4 8 -6.8 5.5
-6 -4 -8 3.8 3.1
6 4 9 0.8 5.6
6 4 9 -0.4 9.3
6 -4 9 -0.6 6.5
6 5 -9 4.5 4.3
-6 5 9 40.6 18.1
-6 5 9 3.9 4.9
-6 5 8 34.1 14.8
-6 5 8 34.3 6.5
6 5 -8 29 5.8
-6 -5 8 33 5.6
-6 5 7 11.7 12
6 5 -7 1.7 4.8
-6 5 7 -2.3 3.9
-6 -5 7 -3.1 4.4
-6 5 6 57.19 8.3
6 5 -6 58.59 10.9
6 5 -6 69.59 8.6
-6 5 6 56.99 12
-6 -5 6 44 6.6
-6 -5 6 41.7 6.1
6 -5 -6 65.39 7.5
-6 -5 6 48.8 6.1
-6 5 5 -1.7 4
6 5 -5 1.6 9
-6 5 5 -8.5 8.4
6 -5 -5 4.6 4.1
-6 -5 5 7.7 5.3
-6 -5 5 4.2 4
-6 -5 5 0.2 3.5
-6 -5 5 -0.9 2.7
6 5 -4 137.59 15.4
-6 5 4 101.89 11.4
6 5 -4 132.39 12.5
-6 5 4 115.99 10.8
-6 -5 4 127.39 11
-6 -5 4 129.69 10.3
-6 -5 4 123.89 13
6 -5 -4 114.79 11
6 5 -3 1.7 3.3
-6 5 3 -9.2 6.3
6 5 -3 9.1 5.2
-6 5 3 3.2 3.2
-6 -5 3 -0.2 3.1
-6 -5 3 -3 3.3
-6 -5 3 -6.1 4.9
6 -5 -3 -4.7 5.1
6 5 -2 48.5 6.8
-6 5 2 50.09 8.7
6 5 -2 46 7.5
-6 5 2 54.29 7.4
-6 -5 2 38.8 6.7
6 -5 -2 31.5 8.5
-6 -5 2 36.6 5.5
6 5 -1 -0.5 4.3
6 5 -1 -7.7 4.3
-6 5 1 4.8 3.4
-6 5 1 2 5.1
6 -5 -1 0.9 7.1
-6 -5 1 6.1 3.2
6 5 0 107.19 12.1
-6 5 0 113.29 12.6
-6 5 0 98.59 9.3
6 -5 0 132.69 19.6
-6 -5 0 113.89 9.5
-6 5 -1 -1.1 4.8
-6 5 -1 -0.4 2.5
6 5 1 -9.6 4.5
-6 -5 -1 -0.2 2.2
6 -5 1 -1.4 9
-6 5 -2 26.8 6.2
-6 5 -2 31.8 4.6
6 5 2 33.8 6.3
-6 5 -2 34.9 5.3
6 5 2 23.5 7.4
6 -5 2 34.1 8.5
-6 -5 -2 36.1 6.2
6 -5 2 52.79 7.9
-6 5 -3 -0.7 2.5
-6 5 -3 10.5 3.5
6 5 3 3 5.2
-6 5 -3 7.1 5.4
-6 -5 -3 -0.5 3
-6 -5 -3 6.2 10
6 -5 3 -3 5.9
6 -5 3 4.2 4.2
-6 5 -4 76.19 9.9
-6 5 -4 74.09 12.1
-6 5 -4 86.49 7.3
6 5 4 57.39 9.8
6 -5 4 97.69 10.6
-6 -5 -4 68.29 9.4
6 -5 4 97.29 12.7
-6 -5 -4 92.09 13.6
6 5 5 5.4 6.5
6 -5 5 4.8 5.1
-6 -5 -5 -1.3 3.8
6 -5 5 -5.3 5
6 5 6 20.7 9.6
-6 -5 -6 11.6 4.2
6 -5 6 8.1 6.5
6 5 7 -15.2 8.5
-6 -5 -7 2.3 3.1
6 -5 7 -1.9 5.1
-6 6 7 4 4.7
6 6 -7 0.3 5.2
-6 -6 7 -1.4 4.9
-6 -6 7 4.6 2.9
-6 6 6 18.6 8.3
6 6 -6 18.6 11.7
6 6 -6 12.7 5.1
-6 6 6 16.2 4.8
-6 -6 6 10.9 3.5
6 -6 -6 15.3 4.4
-6 -6 6 18.3 4.9
-6 6 5 -7.3 7.4
6 6 -5 1 3.6
-6 6 5 0.4 3.4
6 6 -5 -2.8 9.9
-6 -6 5 0.5 4.5
6 -6 -5 0.1 3.6
-6 -6 5 0.9 3.1
-6 -6 5 0.6 3.9
6 6 -4 162.78 14.3
6 6 -4 131.29 17.3
-6 6 4 152.18 13.1
-6 6 4 154.88 16.1
6 -6 -4 158.08 12.6
-6 -6 4 156.78 12.6
-6 -6 4 164.28 11.7
-6 -6 4 162.08 12.7
-6 6 3 0.8 5.3
6 6 -3 2.8 4.4
-6 6 3 3 3.7
-6 -6 3 -2.4 4.1
-6 -6 3 -0.3 2.8
6 -6 -3 7.8 5.3
-6 -6 3 9.2 3.7
-6 6 2 122.19 12.7
6 6 -2 92.09 11.1
-6 6 2 90.79 10.2
6 6 -2 107.09 12.1
-6 6 2 102.79 11.4
-6 -6 2 119.99 9.8
6 -6 -2 98.99 13
6 6 -1 5.6 5.2
6 6 -1 -5.1 5.3
-6 6 1 -0.8 4
-6 6 1 0.8 3.3
-6 6 1 3.7 5.3
-6 -6 1 4.2 3.4
6 -6 -1 1.9 8.3
-6 6 0 100.29 9.2
6 6 0 105.39 17.1
6 6 0 96.79 13
-6 6 0 116.99 12
-6 -6 0 89.29 10.1
6 -6 0 133.59 16.4
-6 6 -1 2.5 5.5
6 6 1 8.8 5
-6 6 -1 2.7 2.5
-6 6 -1 9.8 4.4
-6 -6 -1 0.3 3.7
6 -6 1 3.1 9.9
6 6 2 150.18 16.6
-6 6 -2 202.18 14.3
-6 6 -2 185.48 16.7
-6 6 -2 216.18 14.2
-6 -6 -2 185.38 15
-6 6 -3 4.6 5.8
6 6 3 -0.1 6.8
-6 6 -3 2 3.4
-6 6 -3 2.8 3.7
-6 -6 -3 -0.8 4
6 -6 3 14 6.8
6 -6 3 -11.8 5.4
6 6 4 19.8 8.2
-6 6 -4 17.3 4.1
6 -6 4 13.6 6.6
6 -6 4 5.9 7.8
6 6 5 7.7 6.4
6 -6 5 11 7.2
-6 -6 -5 8.4 3.9
6 -6 5 10.1 7.1
6 6 6 82.39 14.2
6 -6 6 93.09 13.3
-6 -6 -6 96.19 10
-6 7 4 27.1 5.6
6 7 -4 11.4 9.9
6 7 -4 23 5.7
-6 -7 4 21.4 5.1
6 -7 -4 26.5 5
6 7 -3 3.4 5.1
-6 7 3 -1.2 4.1
-6 -7 3 2.9 3.2
6 -7 -3 -5 3.9
6 7 -2 -1.1 5
-6 7 2 10.1 5.3
-6 7 2 15.1 4.7
-6 -7 2 7.6 3.7
6 -7 -2 1.7 6.2
-6 7 1 2.5 5.5
-6 7 1 6.5 4.3
6 7 -1 -3.7 4.6
-6 -7 1 4.3 3.7
6 -7 -1 3.4 7.2
-6 7 0 23.5 4.7
6 7 0 30.7 7
-6 7 0 21.4 6.1
6 -7 0 43.6 9.6
-6 -7 0 30.1 5.2
-6 7 -1 -6.6 5
6 7 1 2.6 6.2
-6 7 -1 6.7 5.7
6 -7 1 17.2 8.2
-6 -7 -1 -6.6 3.4
6 7 2 -4.9 5.8
-6 7 -2 -1.5 6
-6 7 -2 8.8 5.1
-6 -7 -2 14.8 4.1
6 -7 2 -17.4 11.3
-6 7 -3 10.7 3.9
6 7 3 6.1 5.7
6 -7 3 8.7 10.1
-7 0 12 36.4 7.9
-7 0 11 0.9 7.5
-7 0 11 -2.2 5
-7 0 10 66.69 9
-7 0 10 69.19 10.6
7 0 -10 76.49 9.8
7 0 -9 -2.5 3.2
-7 0 9 -0.3 3.4
-7 0 9 0.2 4.3
-7 0 9 1 5.4
-7 0 8 71.29 7.9
-7 0 8 67.19 9.5
7 0 -8 80.09 9
-7 0 7 3.6 4.2
7 0 -7 3.3 3.7
7 0 -7 -2.2 3.2
-7 0 7 -1.3 2.8
-7 0 7 6.2 4.1
-7 0 6 621.04 41.5
7 0 -6 680.13 39.9
-7 0 6 675.43 41.5
7 0 -6 643.24 41.3
-7 0 6 672.03 39.4
7 0 -6 723.33 41
7 0 -5 -0.4 3.6
7 0 -5 2.4 3.4
-7 0 5 2.1 4.7
-7 0 5 -0.4 3.5
-7 0 5 0.1 2.5
-7 0 4 304.47 25.6
7 0 -4 375.46 26.6
7 0 -4 361.26 22.9
7 0 -4 406.66 25.8
-7 0 4 329.77 25
-7 0 4 365.46 22.5
-7 0 3 -0.7 5.7
7 0 -3 4.2 5.3
7 0 -3 2.2 2.7
-7 0 3 -0.5 2.7
7 0 -3 -10.3 4.7
7 0 -2 2306.37 146.89
7 0 -2 2519.25 144.19
-7 0 2 2677.63 147.79
-7 0 2 2667.73 144.49
7 0 -2 2537.35 147.89
-7 0 2 2589.54 147.99
7 0 -1 4.8 8
-7 0 1 9.2 5.8
7 0 -1 -5.8 5.2
-7 0 1 6.7 8
7 0 -1 -2.5 4.1
-7 0 1 0 5
-7 0 0 -2 5
7 0 0 5 6.1
7 0 0 7.3 6.2
7 0 0 -1.9 5.8
-7 0 0 3.6 7
-7 0 0 1.1 5.5
7 0 1 -1.8 6
-7 0 -1 -0.5 3.6
7 0 1 -5.2 8.2
-7 0 -1 -2.3 6.1
-7 0 -1 6.6 5.3
7 0 2 1534.45 89.49
-7 0 -2 1286.07 86.29
-7 0 -2 1521.35 88.99
7 0 2 1552.94 88.59
-7 0 -3 -9.9 5.9
7 0 3 -5.7 4.9
-7 0 -3 -3.9 4
7 0 3 0 5.3
7 0 3 -3.1 4.1
7 0 4 111.29 13.2
-7 0 -4 152.78 14.4
7 0 4 126.19 13.6
-7 0 -4 135.69 12.3
7 0 4 95.09 13.8
7 0 5 10.6 6.1
-7 0 -5 0.1 3.5
-7 0 -5 -1.4 4.7
7 0 5 -4.3 3.6
7 0 5 1.8 5
-7 0 -6 469.45 28.5
7 0 6 479.05 30.9
7 0 6 378.66 30.2
7 0 6 464.85 30.2
-7 0 -6 504.85 31.1
-7 0 -7 3.6 3.1
7 0 7 -0.1 4.9
7 0 7 -2.2 5.1
7 0 7 -3.5 6
-7 0 -8 99.09 8.6
7 0 8 101.49 11.5
7 0 8 84.39 12.4
7 0 8 89.69 12.6
7 0 9 -4.9 5.5
7 0 9 -6 6.4
-7 0 -9 -0.6 2.9
7 0 9 5.3 5.1
7 0 10 30.7 8.4
7 0 10 28.9 6.8
7 1 -11 7.5 5.3
-7 1 11 -2.1 3.3
-7 -1 11 5 6.2
7 1 -10 23.6 5.4
-7 1 10 37 5.3
-7 1 10 38.2 5.5
-7 -1 10 33.4 6.2
-7 -1 10 27.6 7.1
-7 1 9 3.6 3.2
-7 1 9 4.2 3.6
-7 1 9 10.9 5.5
-7 -1 9 -0.9 5.2
-7 -1 9 -4.1 3.9
-7 -1 9 -0.6 5.9
7 1 -8 265.27 18.9
-7 1 8 258.07 18.8
-7 1 8 276.87 19.9
-7 1 8 272.97 17.1
-7 -1 8 256.07 18
-7 -1 8 250.07 20.6
-7 1 7 2.6 4.9
7 1 -7 -1.8 3.5
-7 1 7 2.9 2.4
7 1 -7 4 3.3
-7 1 7 2.2 3.9
-7 -1 7 7 3.4
-7 -1 7 7.2 5.3
7 -1 -7 1.5 4.3
7 -1 -7 6.4 3.1
7 1 -6 2.4 4
7 1 -6 3.9 4.7
-7 1 6 9.3 4.7
-7 1 6 -0.4 2.4
-7 1 6 1.5 3.8
-7 -1 6 5.5 4.4
-7 -1 6 10.3 5
7 -1 -6 6.5 4.2
-7 -1 6 2.8 3.1
7 -1 -6 0.3 2.7
7 1 -5 11.6 8.7
-7 1 5 -2.7 3.4
7 1 -5 6.1 3.5
-7 1 5 1.4 2
-7 1 5 3.4 4.2
7 1 -5 -0.5 2.7
-7 -1 5 -6.2 4.4
7 -1 -5 6.2 4
-7 -1 5 2.7 3.8
7 -1 -5 3.6 2.6
7 -1 -5 4.2 5
-7 1 4 589.44 39.1
7 1 -4 661.03 39.4
-7 1 4 618.24 40.5
7 1 -4 615.54 40
-7 -1 4 635.24 40
-7 -1 4 654.63 38.6
7 -1 -4 653.03 39.9
-7 -1 4 665.13 42.4
7 -1 -4 667.83 41
7 1 -3 -2.7 3.8
-7 1 3 -2.4 2.4
7 1 -3 -9.8 5.3
7 1 -3 0 3.7
-7 -1 3 -1.3 5.7
-7 -1 3 2.9 3.1
7 -1 -3 -3.1 5.4
7 1 -2 64.39 8.6
-7 1 2 32.9 11.4
-7 1 2 65.49 9.1
7 1 -2 74.69 11.4
7 1 -2 50.09 9.3
7 -1 -2 44.7 7.5
-7 -1 2 48 9
-7 -1 2 75.79 10.1
7 -1 -2 42.5 9.4
-7 -1 2 58.59 8.9
7 1 -1 3.3 4.3
-7 1 1 -1.3 7.3
-7 1 1 -0.2 3.8
-7 1 1 3.3 5.4
7 1 -1 -5.2 6.1
7 1 -1 5.9 6
-7 -1 1 0.1 4
-7 -1 1 -1.1 6.7
-7 -1 1 0 5.3
7 -1 -1 3.5 3.4
7 -1 -1 2.2 7.3
7 -1 -1 -4.3 4.7
7 1 0 443.46 35.6
7 1 0 481.65 34.3
-7 1 0 540.25 37.4
-7 1 0 429.46 33.7
7 -1 0 547.75 32.7
-7 -1 0 553.34 36.4
7 -1 0 402.06 33.2
7 -1 0 547.85 38.5
-7 -1 0 574.24 36.9
7 1 1 -3.8 5.8
-7 1 -1 -4 7.5
7 1 1 -2.7 5.4
-7 1 -1 5.3 5
7 -1 1 -3.5 5.4
-7 -1 -1 -1.9 5.8
7 -1 1 10.9 5.9
-7 -1 -1 1.5 4.5
7 -1 1 4.7 7.8
-7 -1 -1 -5 5.4
-7 1 -2 -4.3 6.5
7 1 2 3.2 7.9
7 1 2 9.4 6.3
7 1 2 10.4 6.4
-7 1 -2 12.8 6.1
-7 -1 -2 28.6 9.3
7 -1 2 9.4 5.5
-7 -1 -2 5.8 3.7
7 -1 2 12 4.6
-7 -1 -2 14.4 6.7
7 -1 2 9.3 5.9
-7 1 -3 -7.3 5.1
7 1 3 1.3 8.1
-7 1 -3 -0.6 4
7 1 3 -9 4.6
7 1 3 -3.2 5.4
7 -1 3 0.6 5.7
-7 -1 -3 2.9 4.3
7 -1 3 1.3 5.2
7 -1 3 3.1 4.5
-7 -1 -3 -7.5 4.6
7 1 4 425.56 33.1
-7 1 -4 522.15 32.4
7 1 4 478.55 30
7 1 4 423.76 31.2
-7 -1 -4 452.75 37.6
7 -1 4 452.85 31
7 -1 4 457.85 29.9
-7 -1 -4 491.45 30.1
-7 1 -5 3.3 4
-7 1 -5 4.5 5.3
7 1 5 -0.8 4.4
7 1 5 3.3 4.9
7 1 5 3.6 3.8
7 -1 5 6.5 3.9
7 -1 5 -2.8 4
-7 -1 -5 2.6 3.2
-7 -1 -5 2 4.3
7 -1 5 0.6 5
7 -1 5 7.1 5.1
7 1 6 8.5 4.3
7 1 6 6.5 4.6
7 1 6 18.9 5
-7 1 -6 12 6.1
-7 1 -6 20.8 3.7
7 -1 6 17.7 4.4
7 -1 6 14 5.6
7 -1 6 11.2 4.8
7 -1 6 32 6.3
-7 -1 -6 16.1 4.9
-7 -1 -6 17.4 5.3
7 1 7 4.9 4.8
7 1 7 -1.2 4.2
7 1 7 -3 3.7
-7 1 -7 3.2 5.4
-7 1 -7 1 3.1
7 -1 7 0 3.4
7 -1 7 -7.3 5.5
7 -1 7 3.4 4.9
-7 -1 -7 4.9 5
-7 -1 -7 -0.9 2.7
7 -1 7 -2.5 4.8
7 1 8 169.98 16.6
7 1 8 174.08 14
7 1 8 150.28 14.4
-7 1 -8 177.68 11.6
7 -1 8 202.38 14.6
-7 -1 -8 177.28 13.1
7 -1 8 162.78 15.5
7 -1 8 151.88 13.8
-7 1 -9 2.6 2.2
7 1 9 -6.6 8
7 1 9 2.8 6.4
7 1 9 0 5.3
7 -1 9 7 4.7
-7 -1 -9 8.3 3.3
7 -1 9 -0.2 5.4
7 -1 9 6.4 4.3
7 1 10 19.2 7.7
7 1 10 10.9 6.6
7 1 10 20.2 5.9
7 -1 10 19.3 6.4
7 -1 10 11.1 5.4
-7 2 11 -8.1 4
-7 2 11 -0.3 4.1
-7 -2 11 0.7 4.7
-7 2 10 69.59 7.7
7 2 -10 62.99 10.3
-7 2 9 5.8 3.6
-7 2 9 2.6 5.3
-7 -2 9 2.8 4.7
-7 -2 9 8.9 4.6
-7 2 8 65.29 11.4
7 2 -8 78.99 8.4
-7 2 8 55.39 7.6
7 2 -8 68.19 7.9
-7 -2 8 64.69 10.4
-7 -2 8 72.69 9.2
-7 -2 8 56.59 9.6
7 2 -7 -1.5 3.8
-7 2 7 0.5 3
-7 2 7 -2.7 4.8
-7 -2 7 -4.7 4
-7 -2 7 1.8 3.7
7 -2 -7 3.3 4
-7 -2 7 -0.5 4.2
-7 2 6 458.85 30.7
7 2 -6 377.26 31.1
-7 2 6 475.05 29.3
7 2 -6 474.05 29.5
7 -2 -6 462.55 30.1
-7 -2 6 479.15 29
-7 -2 6 471.65 29.7
-7 2 5 1 4.8
-7 2 5 3.8 3.3
7 2 -5 -3.4 3.7
-7 -2 5 -1.3 3.1
-7 -2 5 -7.6 3.7
7 -2 -5 -2.6 4.2
-7 -2 5 2.5 3.7
7 2 -4 213.68 16.1
-7 2 4 212.28 16.5
7 2 -4 255.67 25.9
-7 2 4 197.08 19.6
7 2 -4 232.98 17.1
-7 -2 4 204.48 16.4
-7 -2 4 225.88 16.2
7 -2 -4 222.18 18.7
7 2 -3 1.5 4.2
7 2 -3 3 3.6
-7 2 3 1.4 3.5
7 2 -3 7.4 9.9
-7 -2 3 1.6 5.1
-7 -2 3 -6.4 3.7
7 -2 -3 -2.3 3.4
7 -2 -3 3.2 5.6
7 2 -2 1907.31 113.29
-7 2 2 2011.1 112.09
7 2 -2 2041.9 112.09
7 -2 -2 2130.89 112.59
-7 -2 2 1677.93 112.89
-7 -2 2 1969.1 112.09
-7 2 1 0.5 2.8
7 2 -1 -10.7 6.6
7 2 -1 -3.1 3.9
7 -2 -1 -6.7 5.8
-7 -2 1 -3.3 5.6
-7 -2 1 -0.7 3.9
7 -2 -1 2 4.1
-7 2 0 2 3.5
7 2 0 -1.6 3.9
7 2 0 -7.8 4.7
-7 -2 0 -0.5 3.3
7 -2 0 -6.7 7.7
-7 -2 0 -17.3 8.2
-7 -2 0 -2.7 6
-7 2 -1 2.3 5.4
7 2 1 -0.9 6.3
7 2 1 1.1 6.1
7 2 1 2 3.7
-7 2 -1 1 7.4
-7 -2 -1 1.7 4.1
-7 -2 -1 1.4 5.7
7 -2 1 2.1 2.9
7 -2 1 0.9 3.4
7 -2 1 -2.3 3.9
-7 -2 -1 1.9 6.4
7 -2 1 -1.6 6.3
-7 2 -2 1433.46 86.59
7 2 2 1651.73 87.89
7 2 2 1605.94 89.69
-7 2 -2 1474.05 88.39
7 2 2 1445.26 85.29
7 -2 2 1493.25 85.69
7 -2 2 1398.96 84.09
-7 -2 -2 1452.75 85.99
7 -2 2 1558.94 84.39
7 -2 2 1260.67 87.79
7 2 3 0.2 3.7
7 2 3 7.5 5.5
-7 2 -3 -2.6 4.8
-7 2 -3 0.3 5.6
7 2 3 7.9 7.3
-7 -2 -3 -2.5 4.2
7 -2 3 1.7 3.7
-7 -2 -3 1.2 3
7 -2 3 -2.4 5.6
7 -2 3 3.7 3
-7 -2 -3 -1.6 6.2
7 -2 3 -0.7 4
7 2 4 92.59 12.4
-7 2 -4 76.19 10
7 2 4 75.69 13.5
-7 2 -4 86.59 12.9
7 2 4 102.79 10
7 -2 4 87.09 10.2
-7 -2 -4 98.69 10.2
7 -2 4 87.89 10.4
7 -2 4 91.69 9
-7 -2 -4 98.89 10.2
7 -2 4 88.59 11.5
-7 2 -5 -3.9 3
7 2 5 7.9 8.3
7 2 5 0.2 3.6
-7 -2 -5 4.7 4.3
7 -2 5 5.3 4.8
7 -2 5 1.6 4
7 -2 5 3.1 4.1
7 2 6 350.66 22.4
7 2 6 286.27 27.1
-7 2 -6 343.57 20.9
7 2 6 316.77 23.1
7 -2 6 278.27 21.2
-7 -2 -6 355.46 22.1
7 -2 6 342.57 23.7
7 -2 6 338.97 23.8
-7 -2 -6 356.66 22.2
-7 2 -7 -0.1 2.7
7 2 7 2.7 4
7 2 7 -0.1 4.1
-7 -2 -7 0.2 2.8
7 -2 7 -2.7 5.5
7 -2 7 -11.8 5.7
7 2 8 72.19 10.4
7 2 8 82.89 14.3
7 2 8 108.39 10.2
7 -2 8 86.49 12.1
-7 -2 -8 101.09 9.8
7 2 9 8.2 5.3
7 2 9 8.4 4.3
7 -2 9 9.9 4.6
7 2 10 27.8 8.6
7 2 10 33.9 5.9
7 -2 10 37.5 8
7 -2 10 23.6 5.8
-7 3 11 -4 3.5
7 3 -10 11.3 5.9
-7 3 10 15.4 4.2
-7 -3 10 19.5 3.5
-7 3 9 8.9 6.8
7 3 -9 -4.6 3.5
7 3 -9 -3.9 3.9
-7 3 9 1.2 2.8
-7 3 8 186.68 13.5
-7 3 8 176.78 17.1
7 3 -8 155.48 15.9
7 3 -8 171.38 14.5
-7 -3 8 181.38 13.3
-7 -3 8 166.58 14.9
-7 -3 8 202.98 15.4
-7 3 7 8.6 2.8
7 3 -7 5.5 4.3
-7 3 7 1 5.7
-7 -3 7 1 3.5
-7 -3 7 4.3 4.2
7 -3 -7 5.1 3.9
7 3 -6 6 3.2
-7 3 6 -2.9 5.7
7 3 -6 8.1 6.5
-7 3 6 -2.3 2.3
-7 -3 6 1.5 3.5
7 -3 -6 5.7 4.7
-7 -3 6 0.7 4
-7 -3 6 0.6 4
-7 3 5 5.8 2.9
7 3 -5 -0.5 6.9
-7 3 5 3.4 7.3
7 3 -5 4.5 4.3
-7 -3 5 5.8 3.7
-7 -3 5 10 4
-7 -3 5 6.8 4.1
7 -3 -5 0.1 4.3
-7 3 4 363.66 23.5
7 3 -4 363.56 25.1
-7 -3 4 368.26 24.3
-7 -3 4 356.76 24.2
7 -3 -4 361.06 26.6
-7 -3 4 351.16 23.8
-7 3 3 -7.9 7.3
7 3 -3 -2.7 4.3
-7 3 3 2.2 2.6
7 3 -3 5.8 3.8
7 3 -3 -5.9 6.7
7 -3 -3 -2.1 5.2
-7 -3 3 -3.6 4
-7 -3 3 -1.2 3.2
-7 -3 3 1 3.6
7 3 -2 21 4.2
-7 3 2 29.8 9.7
7 3 -2 30 6.7
7 3 -2 16.5 7
-7 3 2 24.8 4.9
-7 -3 2 20.9 5.1
-7 -3 2 17.8 5.6
-7 -3 2 23.4 6.4
7 -3 -2 19 9.2
7 3 -1 3.2 5.2
-7 3 1 5.5 7.7
7 3 -1 9.1 4.5
7 3 -1 7.3 4
-7 3 1 4.3 3.9
-7 -3 1 -2.6 5.2
-7 -3 1 9.1 4.7
7 -3 -1 0.3 6.3
-7 -3 1 6.4 5.7
7 3 0 290.97 20.7
7 3 0 300.77 19.5
-7 3 0 296.67 20.2
-7 3 0 249.28 24.7
-7 -3 0 347.17 23.4
-7 -3 0 303.87 21.2
-7 -3 0 230.48 25.3
7 -3 0 291.07 28.5
-7 3 -1 1.9 2.8
7 3 1 2.7 4.5
-7 3 -1 7.3 6.4
7 3 1 -1.9 4.7
7 3 1 -1 3.5
7 -3 1 2.6 4.5
7 -3 1 2.6 6.8
-7 -3 -1 7.2 5.2
-7 -3 -1 8.1 7.8
-7 -3 -1 2.9 3
-7 3 -2 6.4 5
7 3 2 2.3 6.2
-7 3 -2 5.9 6.3
7 3 2 5.8 4.9
7 3 2 3.9 4.3
7 -3 2 -1.4 3.1
7 -3 2 1 3.3
7 -3 2 -3.2 5.5
-7 -3 -2 2.6 7.9
-7 -3 -2 4 3.2
-7 -3 -2 9.8 4.3
7 3 3 -0.4 6.8
-7 3 -3 4.1 4
7 3 3 -6.7 4.4
7 3 3 1.7 4.1
-7 3 -3 1.2 6
7 -3 3 -0.5 3.5
-7 -3 -3 -0.4 3.7
7 -3 3 1.4 6
7 -3 3 3.5 3.2
-7 -3 -3 0.7 3.4
-7 3 -4 305.27 20.3
7 3 4 311.37 23.6
7 3 4 270.27 20
7 3 4 262.27 21.9
7 -3 4 280.07 18.2
7 -3 4 270.57 21.3
-7 -3 -4 282.27 18.7
-7 -3 -4 274.47 20.1
7 -3 4 281.77 19.5
-7 3 -5 -1.9 4
7 3 5 13.1 5.6
7 3 5 3.7 4.5
-7 3 -5 -2.6 5.5
7 3 5 -0.5 5.7
7 -3 5 5.2 4.6
-7 -3 -5 -2.5 2.9
7 -3 5 7.6 4.1
-7 -3 -5 7.8 3.2
7 3 6 2.7 5.3
7 3 6 2.8 7.5
7 3 6 7.8 4.9
-7 3 -6 13.1 6.2
7 -3 6 13.8 6.2
7 -3 6 -1.3 4.1
7 3 7 0.6 5
7 3 7 1 9.1
7 3 7 4.1 5.2
-7 -3 -7 0.7 3.6
7 -3 7 -1.6 4.8
7 -3 7 5.7 6.3
7 3 8 124.29 12.9
7 3 8 90.59 15.9
-7 -3 -8 111.89 11
7 -3 8 106.29 13.5
7 3 9 3 11.4
7 -3 9 -8.6 5.7
-7 -3 -9 -2.7 3.4
7 4 -10 40.9 8
-7 4 10 38.7 5.8
-7 -4 10 55.59 10.3
7 4 -9 -3.9 4
-7 4 9 4.8 3.6
-7 4 9 -16 8.4
7 4 -9 5.3 4
-7 4 8 49.7 10.7
7 4 -8 45.7 7.7
7 4 -8 47.3 6.9
-7 4 8 53.69 8.3
-7 -4 8 54.29 5.9
-7 4 7 -8.7 9
7 4 -7 -3.3 4.5
-7 4 7 -2.7 3.3
7 4 -7 -5.8 6.4
7 -4 -7 6.5 3.7
-7 -4 7 4.2 3.1
-7 -4 7 -1.2 4.4
7 4 -6 187.58 18.3
-7 4 6 178.98 14.6
7 4 -6 180.68 14.7
7 -4 -6 193.58 15.4
-7 -4 6 192.98 13.9
-7 -4 6 207.68 16.1
-7 -4 6 192.78 15.3
7 4 -5 -3.1 8.4
7 4 -5 1.8 4.2
-7 4 5 7.4 9.9
-7 4 5 -0.9 2.8
-7 -4 5 -1.3 3.2
7 -4 -5 1.8 4.6
-7 -4 5 -2.7 3.9
7 4 -4 46.1 10.6
-7 4 4 86.39 12.9
-7 4 4 59.69 7.5
7 4 -4 53.59 9.1
7 -4 -4 90.69 12.3
-7 -4 4 76.39 9
-7 -4 4 78.79 8.5
7 4 -3 1.9 3.9
-7 4 3 -3.3 7.8
7 4 -3 7.9 6.4
-7 4 3 2 2.4
-7 -4 3 4.1 3.3
7 -4 -3 5.3 5.7
-7 -4 3 5.4 4.7
-7 4 2 821.72 48.2
7 4 -2 822.62 50.99
7 4 -2 827.12 49.5
-7 -4 2 793.52 48.2
-7 -4 2 792.32 47.9
7 4 -1 5.3 4.5
-7 4 1 0.4 2.9
-7 4 1 0.1 7.6
7 4 -1 -1 4.5
-7 -4 1 -2.7 5.5
7 -4 -1 3.7 6.3
-7 -4 1 4.6 3
7 4 0 -2 5.8
-7 4 0 -0.9 3.3
-7 4 0 -2.5 6.4
7 4 0 1.3 2.6
7 4 0 -5.3 4.1
-7 -4 0 -2.4 3.1
7 -4 0 -4.9 8.3
-7 -4 0 -6.4 5
-7 4 -1 -0.6 3.6
-7 4 -1 -2.2 5.9
7 4 1 2 2.6
7 4 1 3.7 4.7
7 4 1 2.9 6.2
-7 -4 -1 2.2 3.9
-7 -4 -1 -1 4.1
7 -4 1 1 8.5
7 4 2 592.74 41.8
-7 4 -2 675.43 41.5
-7 4 -2 639.14 38.3
7 -4 2 559.44 42.2
-7 -4 -2 668.53 50.29
-7 -4 -2 637.24 39.4
7 -4 2 696.43 37.8
-7 4 -3 7.9 4.8
7 4 3 -5.9 4.9
-7 4 -3 11.2 6.6
7 -4 3 3.6 6.3
-7 -4 -3 4 3.2
7 -4 3 2.7 3.9
7 4 4 51.29 10.2
-7 4 -4 36.7 8.1
-7 4 -4 46.5 6.8
7 4 4 46.2 7.3
-7 -4 -4 41.2 6.6
7 -4 4 45.3 8.7
-7 -4 -4 54.09 11.5
7 -4 4 36.5 5.9
-7 4 -5 2.2 3.4
7 4 5 -3.5 4.9
-7 4 -5 -4.3 6.4
7 -4 5 -6.1 4.5
7 -4 5 6.7 4.8
-7 -4 -5 -5 3.1
7 4 6 166.68 17.5
7 4 6 146.59 13.8
-7 -4 -6 153.78 13.4
7 -4 6 148.29 14.2
7 4 7 -2.7 7
7 4 7 6.5 6.9
7 -4 7 9.7 5.2
-7 -4 -7 3.6 4.6
7 4 8 50.79 10
7 -4 8 55.09 8.5
-7 -4 -8 32.2 6.2
7 5 -8 103.99 12.3
-7 5 8 55.59 16.1
-7 5 8 94.09 11.4
-7 -5 8 104.69 10.7
-7 -5 8 89.59 7.7
-7 5 7 10.7 4.6
7 5 -7 7.4 7.7
-7 5 7 -3.6 11.7
7 5 -7 4.7 5.3
7 -5 -7 -0.5 3.6
-7 -5 7 0.1 3.2
-7 -5 7 -8.9 5.1
7 5 -6 -1.4 9.3
-7 5 6 7 11.2
-7 5 6 4 4.2
7 5 -6 6.5 3.9
7 -5 -6 2.9 3.8
-7 -5 6 -3.8 3.1
7 5 -5 10 10
-7 5 5 3.5 3.7
-7 5 5 -2.9 9.4
7 5 -5 -0.2 4.3
7 -5 -5 4.1 4.5
-7 -5 5 5.1 3.6
-7 -5 5 4.9 4.4
-7 5 4 124.69 12.1
7 5 -4 132.49 17.8
-7 -5 4 147.99 11.9
7 -5 -4 160.08 13.9
-7 -5 4 127.59 14.8
-7 -5 4 144.99 12
7 5 -3 3.5 4.3
7 5 -3 -0.6 6.4
-7 5 3 5.8 7.8
-7 5 3 2.2 3.1
-7 -5 3 3.5 3.6
7 -5 -3 -3.9 5.7
-7 -5 3 17.8 7.1
7 5 -2 8.5 5.5
7 5 -2 8.7 5.6
-7 5 2 3.7 2.5
-7 5 2 -1 7.5
7 -5 -2 -0.7 6.7
-7 -5 2 1.6 4
-7 -5 2 -3.9 6.5
-7 -5 2 9.8 3.9
7 5 -1 6.6 5.8
-7 5 1 5.2 6.3
-7 5 1 10.9 2.9
-7 -5 1 9 5.9
-7 -5 1 -4.8 7.5
7 -5 -1 -4.5 6.8
-7 5 0 117.89 10.2
-7 5 0 120.89 14.8
7 5 0 102.79 12.5
-7 -5 0 125.19 10.8
7 -5 0 139.99 17.8
-7 -5 0 85.59 15.5
-7 5 -1 5 3.9
-7 5 -1 7.5 6.7
7 5 1 -2.7 4.7
7 5 1 5.7 6.2
-7 -5 -1 -8.4 10.9
7 -5 1 4 9.2
-7 -5 -1 7.7 3.4
-7 5 -2 1.1 3.1
7 5 2 2 5
7 5 2 -1.4 6.1
-7 5 -2 0.8 6.1
-7 -5 -2 1.3 2.8
-7 5 -3 -3 6.1
-7 5 -3 -3.3 3.2
7 -5 3 14.1 6.9
-7 -5 -3 -2.5 3.2
-7 -5 -3 -20.8 9.5
7 -5 3 -8.9 4.3
7 5 4 103.99 13
-7 5 -4 87.89 14.5
-7 5 -4 74.19 10.8
-7 5 -4 127.29 13.2
7 -5 4 87.09 11.4
-7 -5 -4 97.69 10.8
-7 5 -5 -1.8 4.2
-7 5 -5 2.3 2.8
7 5 5 11.5 7.2
7 -5 5 -3.4 6.8
7 -5 5 -4.5 5.9
-7 -5 -5 0.7 4.4
7 5 6 19.1 8.6
7 -5 6 8.5 5.8
7 -5 6 26.2 7.7
-7 -5 -6 -0.7 4.4
7 5 7 14.8 9.8
-7 -5 -7 4.5 4.4
7 -5 7 7.3 5.7
-7 6 7 0.1 5.1
-7 -6 7 -3.2 4.6
7 6 -6 59.19 14.5
-7 6 6 74.29 11.2
7 6 -6 72.09 10.5
7 -6 -6 92.79 8.8
-7 -6 6 83.49 7.8
-7 -6 6 70.49 8.9
-7 6 5 0.5 8.8
-7 6 5 -5.7 3.9
7 -6 -5 -1.5 4.5
-7 -6 5 0.3 4.8
-7 -6 5 8.3 3.5
7 6 -4 22 6.3
-7 6 4 20.1 5.3
7 6 -4 26.7 9.7
-7 6 4 15.2 8.9
-7 -6 4 12 5.4
-7 -6 4 23.5 3.9
7 -6 -4 24.9 5.3
-7 -6 4 18.6 4.2
7 6 -3 -8.7 6.9
-7 6 3 -4.9 3.4
7 6 -3 -3.5 4.9
-7 6 3 -0.3 6.7
-7 -6 3 3.4 3.1
-7 -6 3 3.2 4.8
7 -6 -3 4.6 6.5
-7 -6 3 -3.2 3
-7 6 2 223.58 18.4
7 6 -2 246.98 17.5
-7 6 2 200.48 14.8
7 6 -2 193.08 17.3
7 -6 -2 174.28 18.2
-7 -6 2 190.78 14.5
7 6 -1 4.2 8.6
-7 6 1 1.3 6.5
7 6 -1 -10 5.2
-7 6 1 2.3 4.3
-7 6 1 -3.5 2.5
7 -6 -1 6.8 8.4
-7 6 0 -0.7 4.2
-7 6 0 0.9 6.2
7 6 0 -5.2 5.5
-7 6 0 3.2 2.8
7 -6 0 -7.1 6.4
-7 -6 0 -1.8 3.3
-7 6 -1 2.5 6.4
7 6 1 -6.6 5.5
7 -6 1 6.3 8.8
-7 -6 -1 -2.8 3.7
-7 6 -2 187.08 14.7
7 6 2 170.08 17.9
-7 6 -2 212.58 15.1
-7 6 -2 232.88 18.8
-7 -6 -2 196.48 15.9
-7 6 -3 0.7 4.2
7 6 3 9.1 7.8
-7 6 -3 4.1 3.2
-7 -6 -3 -6 4.1
7 -6 3 10.5 5.9
7 -6 3 -0.3 7.3
-7 6 -4 16.7 4
-7 6 -4 13 5.5
7 6 4 1.5 7.7
-7 -6 -4 11.4 4.9
7 -6 4 23.5 8.2
7 -6 4 2.6 6.8
7 6 5 0.8 6.6
-7 -6 -5 3.2 4.2
7 -6 5 -0.2 8.9
-7 7 3 3.8 4.1
7 7 -3 2.5 6.1
7 -7 -3 9.9 5.2
-7 -7 3 6.3 4.2
7 7 -2 5.8 5.7
7 -7 -2 6.5 6.5
-7 -7 2 0 4.3
7 7 -1 1.6 5.2
-7 7 1 1.5 3.1
-7 7 1 -6.3 6.5
-7 -7 1 12.8 4.7
-7 7 0 30.3 4.8
-7 7 0 11.9 7.6
7 7 0 36.7 8.3
-7 -7 0 27.6 5.9
7 -7 0 48.9 10.4
-7 7 -1 -0.5 3.7
-7 7 -1 7.1 7.4
7 7 1 14.7 7.8
-7 -7 -1 2.9 4.4
-8 0 11 10.9 6.4
-8 0 10 120.59 11.6
8 0 -10 137.59 12.5
-8 0 9 -0.4 3.6
8 0 -9 -1.9 3.4
-8 0 9 0.1 5.2
-8 0 8 -5 7.5
-8 0 8 4.4 3.2
8 0 -8 2 4.3
-8 0 8 8.5 5.7
8 0 -7 1.1 3.4
8 0 -7 -2.6 4
-8 0 7 -1.5 2.9
-8 0 7 -0.8 5
8 0 -7 2.9 4.3
8 0 -6 718.93 44.2
8 0 -6 723.43 42.5
-8 0 6 731.83 42
-8 0 6 614.14 44.5
8 0 -6 764.12 44.1
-8 0 5 1.8 5.3
-8 0 5 -7.5 4.1
-8 0 5 2.9 2.9
8 0 -5 3.7 3.3
8 0 -5 -2.2 5
8 0 -5 0.8 5
8 0 -4 48.5 8.9
-8 0 4 72.89 7.4
8 0 -4 63.79 10.3
-8 0 4 73.29 10.4
-8 0 4 53.99 10
8 0 -4 62.79 8.4
-8 0 3 -3.5 3.3
8 0 -3 -2.6 3.3
-8 0 3 4.9 4.6
8 0 -3 3.5 6.1
8 0 -3 1.7 5.8
-8 0 3 5.2 5.2
8 0 -2 1015.3 65.99
8 0 -2 1308.07 70.59
-8 0 2 1198.98 67.59
-8 0 2 1158.68 71.49
8 0 -2 969.5 69.19
8 0 -1 -5.3 7.3
-8 0 1 -4.4 4.8
8 0 -1 -4.5 3.9
-8 0 1 -7.3 5
-8 0 0 774.22 51.29
8 0 0 766.52 55.09
8 0 0 811.72 53.19
8 0 0 869.41 51.29
-8 0 0 855.01 50.49
-8 0 -1 -10.7 7
-8 0 -1 -5.8 3.3
8 0 1 -3.1 7.2
-8 0 -1 5.9 5.3
8 0 1 4.1 4.5
-8 0 -2 699.93 42.3
8 0 2 586.14 44.4
8 0 2 645.34 43.8
8 0 3 5.4 6
-8 0 -3 3.2 4.7
-8 0 -3 1.3 6.2
8 0 3 -0.1 5.7
8 0 3 1.4 6
8 0 4 609.44 41.6
-8 0 -4 706.43 42.9
8 0 4 646.04 42.8
8 0 4 711.73 42.8
-8 0 -4 615.04 40.8
8 0 5 0.3 5.2
-8 0 -5 1 5.6
8 0 5 0.6 6.2
8 0 5 1.8 4.4
8 0 6 41.3 8
-8 0 -6 49.8 7.5
8 0 6 36.5 7.6
8 0 6 55.79 9.1
-8 0 -6 43.9 8.6
-8 0 -7 6.7 6.3
8 0 7 -9.8 5.3
8 0 7 9.6 4.6
8 0 7 7.5 6.4
-8 0 -7 -0.8 3.9
8 0 7 0.7 6.7
8 0 8 218.18 19.4
-8 0 -8 222.58 15
8 0 8 220.18 19.4
8 0 8 214.88 17.3
8 0 9 -5.7 6
8 0 9 6 7.5
-8 0 -9 -0.5 3.7
8 0 9 7.2 4.9
8 1 -11 5.8 4.7
-8 1 11 -5.6 4.5
-8 -1 11 3.4 6.1
-8 1 10 15.9 4.2
-8 1 10 12.2 3.9
-8 -1 10 17.4 6.3
-8 -1 10 11.2 5.2
-8 1 9 5.2 3.3
8 1 -9 6.3 4.3
-8 1 9 5 3.1
-8 -1 9 -1.3 4
-8 -1 9 2.9 5.5
-8 1 8 217.68 15.9
-8 1 8 207.38 14.6
8 1 -8 229.48 16.4
8 1 -8 225.38 16.5
-8 1 8 212.58 18.3
-8 -1 8 220.08 15.9
8 -1 -8 241.28 16.3
-8 -1 8 213.18 18.7
8 1 -7 -3.8 4.7
-8 1 7 -2.1 5
-8 1 7 1.8 3.1
8 1 -7 -1.8 3.8
-8 1 7 -4.3 2.4
-8 -1 7 -5.6 3.1
8 -1 -7 -0.4 3
-8 -1 7 9 5.6
8 -1 -7 4.8 3.8
-8 1 6 184.48 14.8
8 1 -6 201.28 17
-8 1 6 175.78 16.8
8 1 -6 185.88 16
-8 1 6 199.78 13
8 1 -6 188.38 15.2
8 -1 -6 186.48 13.8
-8 -1 6 204.88 14.4
-8 -1 6 191.28 17.5
8 -1 -6 209.18 15.8
8 -1 -6 190.98 16.7
-8 -1 6 191.78 16
8 1 -5 1.4 3.9
-8 1 5 2.2 3
8 1 -5 -3.3 5.6
8 1 -5 2.1 3.6
-8 1 5 1.6 2.4
-8 1 5 -1.7 4.2
8 -1 -5 2.2 4.3
-8 -1 5 4.4 4.4
-8 -1 5 -6.3 5.2
8 -1 -5 1 2.4
-8 -1 5 -1.7 3.2
8 -1 -5 2.9 5.2
8 1 -4 271.37 21
-8 1 4 247.18 20.6
-8 1 4 245.48 16.6
-8 1 4 237.28 18.8
8 1 -4 277.57 19.1
-8 -1 4 254.17 18.5
-8 -1 4 264.37 19.7
8 -1 -4 268.67 21.4
8 -1 -4 261.27 16.7
-8 -1 4 266.47 22.1
8 -1 -4 260.37 20
-8 1 3 4.1 6.9
8 1 -3 3.6 4.4
-8 1 3 2.9 4.1
8 1 -3 3.3 6.4
8 1 -3 -1 4.6
-8 1 3 -1.9 3.8
-8 -1 3 -4.3 3.6
-8 -1 3 5.8 6
-8 -1 3 3.1 4.2
8 -1 -3 1.2 6.8
8 -1 -3 3.3 5.5
8 1 -2 304.47 25.1
-8 1 2 399.66 27.2
-8 1 2 378.16 30.7
8 1 -2 414.86 28.6
-8 -1 2 398.86 25.8
8 -1 -2 351.06 23.2
-8 -1 2 285.07 36.6
8 -1 -2 299.97 28.3
-8 -1 2 451.75 27.9
-8 1 1 -2.7 3.6
-8 1 1 -0.3 6.9
8 1 -1 -1.8 5.8
-8 1 1 -2.3 4.6
8 1 -1 6.5 6.7
8 1 -1 -2.2 4.5
8 -1 -1 1.4 7.6
-8 -1 1 2 3.8
8 -1 -1 -1.8 3.6
-8 -1 1 -8 5.9
-8 1 0 157.68 18.7
8 1 0 173.78 15.2
8 1 0 129.39 16.8
-8 1 0 114.79 13.6
8 1 0 155.38 18.9
8 -1 0 182.68 18.1
-8 -1 0 107.69 16.7
8 -1 0 161.98 14.3
-8 -1 0 140.29 17.8
-8 -1 0 122.09 15.3
8 1 1 -5.5 5.6
8 1 1 1.2 6
8 1 1 13 6.2
-8 1 -1 0.1 6.9
-8 1 -1 6.4 5.4
-8 -1 -1 3.5 7.2
-8 -1 -1 -7.1 8.1
8 -1 1 9.7 9.4
8 -1 1 5.4 6.8
-8 -1 -1 5.7 5.6
8 1 2 166.78 16.8
-8 1 -2 137.49 19.1
-8 1 -2 193.98 16.2
8 1 2 192.48 20.8
8 1 2 224.58 17.7
-8 -1 -2 205.38 18.1
8 -1 2 154.58 18.4
8 -1 2 202.58 21.6
8 -1 2 167.88 15.8
-8 -1 -2 167.48 15.7
-8 1 -3 2.7 6.5
8 1 3 -3.3 4.8
-8 1 -3 2.7 4.5
8 1 3 8.4 6.7
8 1 3 9.4 8.6
-8 -1 -3 4.5 4.9
8 -1 3 3.1 6.6
8 -1 3 -0.8 5.7
8 -1 3 -2.4 4
8 1 4 143.09 19.7
8 1 4 149.99 14.8
-8 1 -4 179.58 17.7
8 1 4 146.29 16
8 -1 4 157.18 17.2
-8 -1 -4 178.18 16.1
8 -1 4 162.88 15.1
-8 -1 -4 164.08 15.2
8 1 5 -4.2 5.5
8 1 5 3.4 5.9
-8 1 -5 -3.9 5.5
8 1 5 1.2 4.8
-8 -1 -5 0.7 5.2
8 -1 5 -2.6 4.9
8 -1 5 6.2 5.5
-8 -1 -5 0.2 3.4
8 -1 5 5 4.9
8 1 6 169.68 14.6
8 1 6 155.28 15.8
-8 1 -6 144.89 12.5
8 1 6 149.99 15.3
-8 -1 -6 181.88 16.1
8 -1 6 122.99 13.8
8 -1 6 175.38 14.3
8 -1 6 161.88 17.2
-8 -1 -6 164.68 14.1
8 1 7 -2.4 5.5
-8 1 -7 -2.5 3.3
-8 1 -7 -8.3 5.8
8 1 7 3.3 5.4
8 -1 7 9.1 6.4
-8 -1 -7 2.5 3.4
8 1 8 16.9 6.1
-8 1 -8 25.3 3.7
8 1 8 25.3 6.8
8 1 8 17.8 5
8 -1 8 13.9 6.1
-8 -1 -8 22.1 4.2
8 -1 8 25.6 6.3
-8 1 -9 -1.4 3.2
8 1 9 -2.3 4.4
8 1 9 -1 5.3
8 1 9 -6 6.4
8 -1 9 -6.7 5.5
-8 -1 -9 9.1 4.1
8 2 -11 1.8 5.2
-8 2 11 2.5 4.9
-8 -2 11 4.7 5.2
-8 2 10 104.29 10.8
8 2 -10 98.09 12.3
-8 2 10 85.69 8.6
-8 -2 10 65.79 10.8
-8 2 9 -1.4 4.6
8 2 -9 5 4.1
-8 -2 9 3.5 4.8
-8 -2 9 3.8 4.8
-8 2 8 2.7 6.1
8 2 -8 2.7 4.7
8 2 -8 1.1 3.4
-8 2 8 2.6 3.8
-8 -2 8 3.1 5.2
8 -2 -8 8.4 5.2
-8 -2 8 -0.1 4.7
-8 -2 8 10.1 4.6
8 2 -7 -8.3 5.1
8 2 -7 3.5 4.3
-8 2 7 2 5.3
-8 -2 7 3.7 4.6
-8 -2 7 0.1 3.8
8 -2 -7 -3.4 3.3
8 2 -6 546.15 32.9
-8 2 6 520.95 32.9
-8 2 6 500.55 34.2
8 2 -6 430.46 34.2
-8 -2 6 555.84 33.1
-8 -2 6 477.65 33.4
-8 -2 6 538.15 32.3
8 -2 -6 550.44 34.4
8 2 -5 4.7 6.8
8 2 -5 2.8 4.7
8 2 -5 3.7 4.3
-8 2 5 0.6 5.6
-8 2 5 -0.1 4
8 -2 -5 3.6 4.8
-8 -2 5 5.7 4
-8 -2 5 -7.6 4
-8 -2 5 -3 3.6
8 2 -4 57.99 9.3
-8 2 4 57.39 9.3
8 2 -4 61.49 10.2
-8 2 4 60.69 11.5
8 2 -4 56.69 8.3
8 -2 -4 66.49 9.5
-8 -2 4 61.59 8.6
-8 -2 4 72.39 9.5
8 -2 -4 51.79 10.2
-8 2 3 1.5 3.7
8 2 -3 -6.4 4.7
8 2 -3 2.4 7.4
-8 2 3 -10.8 7.6
8 2 -3 2.9 4.8
8 -2 -3 -4.1 5.4
8 -2 -3 -5.4 4
-8 -2 3 -0.9 4
-8 -2 3 2.7 4.3
-8 -2 3 -4 5
-8 2 2 1038.2 62.79
8 2 -2 1101.79 63.49
8 2 -2 1212.08 67.09
-8 -2 2 1024.3 63.59
8 -2 -2 875.21 66.99
8 -2 -2 1171.48 63.99
-8 -2 2 1037 64.39
8 2 -1 6.1 6
-8 2 1 -2.7 7.4
8 2 -1 14.1 7
8 2 -1 -1.7 5.8
-8 2 1 0.4 3.3
-8 -2 1 -1.2 4.6
8 -2 -1 -1.8 4.4
8 -2 -1 3.7 7
-8 -2 1 -1 6.1
-8 -2 1 -2.5 7
-8 2 0 425.36 31.2
8 2 0 463.85 32.9
-8 2 0 507.45 35.3
8 -2 0 508.05 36.2
-8 -2 0 414.16 31
-8 -2 0 454.95 34.7
8 -2 0 503.25 31.4
8 2 1 -4.1 4.5
-8 2 -1 4.5 5.1
8 2 1 8.3 6.1
-8 2 -1 -6.9 7.8
8 2 1 5.7 6.6
-8 -2 -1 -1 6.3
8 -2 1 -6.7 8
-8 -2 -1 2.4 4.2
8 -2 1 -5.2 4.4
8 -2 1 -0.5 3.6
-8 -2 -1 6.8 6.1
8 2 2 546.05 35.2
8 2 2 612.24 36.8
8 2 2 619.14 38.8
-8 2 -2 565.24 35.8
-8 2 -2 448.46 37.4
-8 -2 -2 544.95 36.1
8 -2 2 514.85 34
8 -2 2 548.55 33.8
8 2 3 1.5 5.3
-8 2 -3 -0.4 4.6
8 2 3 1.4 4.1
8 2 3 -1.1 7
-8 2 -3 7.8 8.4
8 -2 3 -6.8 3.8
8 -2 3 0 5.8
-8 -2 -3 -0.6 3.9
8 -2 3 -11.8 7.4
-8 -2 -3 10 7.2
8 2 4 566.64 39.7
8 2 4 548.05 35.6
-8 2 -4 550.14 35.7
-8 -2 -4 564.64 35.8
8 -2 4 570.44 35.2
8 -2 4 571.24 38.2
-8 -2 -4 601.74 37
8 -2 4 589.64 35.8
-8 2 -5 0.2 3.7
8 2 5 1.1 7.6
8 2 5 5.1 5.6
8 2 5 -0.3 4.1
8 -2 5 0.4 5
8 -2 5 0.6 3.3
8 -2 5 -3.4 4.7
-8 -2 -5 6.6 4.8
8 -2 5 2.5 4.8
-8 -2 -5 0.5 4.4
8 2 6 24.6 10.7
-8 2 -6 55.99 8.7
-8 2 -6 42.8 9.3
8 2 6 57.89 9.4
8 2 6 66.09 11.6
-8 -2 -6 49.7 9.2
8 -2 6 43.5 7.3
8 -2 6 33.5 6.2
8 -2 6 29.5 5.4
-8 -2 -6 40.5 6.5
8 2 7 5.7 5.8
-8 2 -7 2 3
8 2 7 6 9.3
8 2 7 1.1 4.7
8 -2 7 3.9 4.5
8 -2 7 -6 6.9
-8 -2 -7 3.6 3.1
-8 -2 -7 3.2 5.3
8 -2 7 -4.2 4.3
8 2 8 152.28 14.2
8 2 8 162.58 20.4
8 2 8 156.78 14.5
8 -2 8 166.88 15.1
8 -2 8 171.98 13.2
-8 -2 -8 118.29 12.6
8 2 9 -15.2 7.7
8 -2 9 5.7 4.5
-8 -2 -9 -4.9 4.1
8 -2 9 4.5 5.4
8 3 -10 10.3 5.7
-8 3 10 13.3 4.8
-8 -3 10 9.6 4.1
-8 3 9 3.4 3.9
8 3 -9 1.2 3.9
8 3 -9 5.2 4.2
-8 -3 9 -1.2 4
-8 3 8 122.39 11.5
8 3 -8 151.78 13.2
-8 3 8 97.99 15.8
8 3 -8 151.98 13.9
-8 -3 8 110.89 12.1
8 -3 -8 147.99 13.4
8 3 -7 4.4 4.5
-8 3 7 -5.5 2.6
8 3 -7 -7.7 5.7
-8 3 7 -3.4 7
-8 -3 7 -1.5 4.4
-8 -3 7 1.8 4.8
-8 -3 7 -2.5 4.4
8 3 -6 116.29 10.6
-8 3 6 109.89 10.3
-8 3 6 109.89 16.8
-8 -3 6 115.59 12.1
-8 -3 6 108.49 11.7
8 -3 -6 122.29 13.3
-8 -3 6 92.89 11.7
-8 3 5 -2.4 2.6
8 3 -5 7.4 5.1
-8 3 5 6.4 8.6
8 3 -5 -2.8 6.6
-8 -3 5 -3.6 4
-8 -3 5 1.4 4
8 -3 -5 1.6 4.4
-8 -3 5 0 3.9
-8 3 4 155.18 13.4
8 3 -4 158.48 14.7
-8 3 4 119.59 20.4
8 3 -4 186.48 20.3
8 3 -4 171.58 13.9
8 -3 -4 154.48 17.9
-8 -3 4 155.48 14
-8 -3 4 158.18 13.8
-8 -3 4 167.08 14.2
8 3 -3 2.9 3.2
-8 3 3 8 8.2
-8 3 3 2.1 4
8 3 -3 -0.1 5
8 3 -3 1.3 7.4
8 -3 -3 1.2 5.8
-8 -3 3 3 4.3
-8 -3 3 -2.4 3.6
-8 -3 3 0.9 4.9
8 3 -2 237.48 20.2
-8 3 2 248.98 23.2
8 3 -2 189.08 18.9
-8 3 2 233.18 17.2
8 3 -2 236.28 16.6
-8 -3 2 185.78 17.6
-8 -3 2 226.08 18
8 -3 -2 199.08 23.5
-8 -3 2 228.08 18.7
8 3 -1 -0.2 4.9
8 3 -1 2 4.2
-8 3 1 -1.5 3.2
8 3 -1 1.8 5.5
-8 3 1 0.3 7.4
-8 -3 1 -0.4 5
8 -3 -1 0.6 6.4
-8 -3 1 -2.7 6.3
-8 -3 1 -1.8 6.7
8 3 0 97.89 10.3
-8 3 0 100.59 9.4
8 3 0 64.99 11.8
8 3 0 92.79 12.1
8 -3 0 108.99 10.6
8 -3 0 126.69 18.3
-8 -3 0 64.89 13
-8 -3 0 97.39 12.4
-8 -3 0 109.79 13.9
8 3 1 6 5.1
-8 3 -1 11.5 8.1
8 3 1 13.3 6.2
8 3 1 9.2 8
-8 3 -1 9.6 4.9
8 -3 1 3.1 4.1
8 -3 1 7 9.5
-8 -3 -1 12.3 5.6
-8 -3 -1 8.8 8.3
-8 -3 -1 8 4.5
-8 3 -2 138.39 17
-8 3 -2 108.99 13.1
8 3 2 150.18 15.9
8 3 2 107.29 12.7
8 -3 2 114.29 10.3
8 -3 2 133.89 10.4
8 -3 2 92.09 15.3
8 -3 2 127.89 11.5
-8 -3 -2 125.59 11.4
-8 -3 -2 93.89 12.2
-8 3 -3 -4.6 4
8 3 3 0.7 3.9
-8 3 -3 -1.4 7
8 3 3 3.3 5.5
8 3 3 0.3 6.8
8 -3 3 6.2 7.4
-8 -3 -3 -0.1 3.4
-8 -3 -3 0.1 4.3
8 -3 3 7.5 6
8 -3 3 -1.4 4.8
8 -3 3 -3.5 2.8
8 3 4 124.09 12.8
8 3 4 112.69 14
8 3 4 97.99 11.5
-8 3 -4 100.89 15.1
-8 3 -4 124.49 11.2
8 -3 4 119.19 14.4
8 -3 4 102.59 11.3
-8 -3 -4 112.09 10.8
8 -3 4 98.99 9.6
-8 -3 -4 92.39 11.4
-8 3 -5 3.4 4.7
8 3 5 5.2 5.2
-8 3 -5 13 7.1
8 3 5 1.1 4.6
-8 -3 -5 -1.4 4
8 -3 5 -0.1 3.2
8 -3 5 -5.6 4.7
8 -3 5 0.3 3.6
8 -3 5 -1.5 5.1
-8 -3 -5 6.7 4.9
-8 3 -6 63.79 8.4
8 3 6 68.19 10.5
8 3 6 103.49 13.7
8 3 6 103.79 11.4
-8 -3 -6 98.69 10.2
-8 -3 -6 75.29 8.8
8 -3 6 102.69 11.4
8 3 7 -12.7 8.2
8 3 7 4.9 5.8
8 -3 7 -5.2 4.7
-8 -3 -7 -1.4 3.8
8 -3 7 5.7 8
8 3 8 18.1 6.4
8 3 8 13.1 11
8 -3 8 14.9 5.4
-8 -3 -8 12.9 5.6
8 -3 8 18.2 5.8
-8 4 9 6 3.6
8 4 -9 0.5 4.7
-8 -4 9 0.4 3.3
8 4 -8 2.9 5.8
-8 4 8 1.6 3
-8 4 8 16 11.4
8 4 -8 1.4 5.4
-8 -4 8 0.5 3.7
8 -4 -8 -8.2 4.3
8 4 -7 -6.2 7.7
-8 4 7 -3.4 11.9
8 4 -7 -6.3 4.3
-8 -4 7 12.6 5.6
8 -4 -7 7.1 3.7
-8 -4 7 0.1 4
8 4 -6 262.37 20.6
-8 4 6 187.48 26.7
-8 4 6 248.08 17.5
8 4 -6 256.67 22.2
-8 -4 6 263.77 18.3
8 -4 -6 266.77 19.4
-8 4 5 14.4 9.9
8 4 -5 2.6 4.8
8 4 -5 4.6 8.7
-8 4 5 3.4 2.4
8 -4 -5 2 4.4
-8 -4 5 -0.5 4.1
-8 -4 5 0.3 4.2
-8 -4 5 4.7 4.9
8 4 -4 20 9.9
-8 4 4 31.3 5.5
-8 4 4 21.6 10.1
8 4 -4 23.5 6
8 -4 -4 22.3 7.9
-8 -4 4 30.4 5.9
-8 -4 4 21.5 5.5
8 4 -3 -6.9 7.2
8 4 -3 -5.4 3.7
-8 4 3 7.5 8.3
8 -4 -3 5.7 6
-8 -4 3 0.9 3.9
-8 -4 3 -2.3 4.1
8 4 -2 409.06 31.2
-8 4 2 474.15 33.6
-8 4 2 476.05 28.7
8 4 -2 446.36 30.8
-8 -4 2 481.05 29.1
-8 -4 2 409.26 29.2
8 -4 -2 400.76 33.7
-8 4 1 0.1 4
8 4 -1 6 5.8
8 4 -1 4 3.2
8 4 -1 -1.1 4.3
-8 4 1 9.8 8.7
-8 -4 1 1.6 3
-8 -4 1 4.3 6.7
8 -4 -1 8.6 7.4
-8 4 0 148.29 19.9
8 4 0 199.88 18.4
-8 4 0 190.88 15.2
8 4 0 201.18 13.7
8 -4 0 226.58 21.5
-8 -4 0 205.68 15.2
-8 -4 0 207.78 16.8
-8 4 -1 1.6 2.7
8 4 1 -9.9 5.1
-8 4 -1 4 7.1
8 4 1 -1.7 3.4
-8 -4 -1 -1.5 4.9
-8 -4 -1 -5.4 3.1
8 -4 1 1.7 9.5
-8 4 -2 191.48 16.3
-8 4 -2 215.98 20.4
8 4 2 198.78 14.3
8 4 2 254.37 19.5
-8 -4 -2 213.38 17
-8 -4 -2 205.58 15.1
-8 4 -3 0 6.3
8 4 3 4.7 5
-8 4 -3 4.1 4.7
-8 -4 -3 3.7 3.3
8 -4 3 -10.3 5.3
8 -4 3 10.8 6.3
-8 -4 -3 5.3 14.2
-8 -4 -3 0.8 3.9
8 4 4 257.87 19.4
-8 4 -4 289.47 20.4
8 4 4 288.77 21.4
-8 4 -4 299.67 23.9
-8 -4 -4 300.57 27.2
-8 -4 -4 308.07 18.1
8 -4 4 256.27 23.9
8 -4 4 308.17 20.2
8 4 5 -5.1 6.7
8 4 5 -1 5.2
-8 4 -5 2.8 3.4
8 -4 5 11.1 6.8
-8 -4 -5 1.9 3.3
8 -4 5 -9.8 5.3
8 4 6 26.6 8.6
8 4 6 38.5 6.2
-8 -4 -6 26.3 5.8
8 -4 6 26.7 7.5
8 -4 6 19.5 7.4
8 4 7 6.9 7
8 -4 7 2.1 5.7
-8 -4 -7 -5.6 5.1
-8 5 8 41.4 15.7
8 5 -8 53.09 9
-8 5 8 58.69 8.5
-8 -5 8 59.29 7.9
-8 -5 8 81.99 11.3
8 5 -7 5.2 5.3
8 5 -7 -1.8 9
-8 5 7 2.2 3.1
-8 -5 7 1.2 3.8
8 -5 -7 9.9 4.3
-8 5 6 34.9 12.5
-8 5 6 38.4 6.9
8 5 -6 52.09 8.9
8 5 -6 63.89 11.3
-8 -5 6 35.9 6.7
-8 -5 6 51.49 7.3
8 -5 -6 31.1 6.6
8 5 -5 6.3 5.5
-8 5 5 -8.3 9.2
-8 5 5 5.4 3.4
8 5 -5 11.1 10.9
8 -5 -5 7.3 4.5
-8 -5 5 0.3 4.7
-8 -5 5 5.5 3.4
8 5 -4 70.89 10.9
-8 5 4 43.1 10.7
-8 5 4 53.49 6.9
-8 -5 4 43.3 7.5
8 5 -3 0.3 4.5
-8 5 3 -3 2.5
-8 5 3 6.2 8.3
-8 -5 3 -3.3 3.1
-8 -5 3 -0.3 4.3
8 -5 -3 5.9 6.2
8 5 -2 64.19 12.3
-8 5 2 48.1 11.1
-8 5 2 74.89 7.7
-8 -5 2 64.29 9.1
-8 -5 2 43.5 10.8
8 -5 -2 46.4 10.2
8 5 -1 -8.5 7.3
8 5 -1 -3.2 5.4
-8 5 1 -3.6 7.2
-8 5 1 -0.2 2.9
-8 -5 1 -8.7 5.4
-8 -5 1 4.8 4.1
-8 -5 1 12.1 10.2
8 -5 -1 13.2 8.1
8 5 0 59.09 8.1
-8 5 0 52.19 9.5
-8 5 0 50.89 8.1
8 -5 0 48.2 8.9
-8 -5 0 26.8 13.2
-8 -5 0 44.7 7.2
8 5 1 -2.1 5.6
-8 5 -1 5.7 3.6
8 5 1 3.8 8.3
-8 5 -1 0.1 7.3
-8 -5 -1 4.5 16.1
8 -5 1 5.2 8.7
8 5 2 42.6 10.3
-8 5 -2 33.4 8.9
-8 5 -2 49 7.2
-8 -5 -2 43.5 6.4
8 -5 2 44.6 10.7
-8 5 -3 -1 7.6
8 5 3 -3.4 6.2
-8 5 -3 2.8 4.8
8 -5 3 12.9 11.7
8 5 4 41.2 8.1
-8 5 -4 39.4 6.1
8 -5 4 33 9.3
-8 -5 -4 36.5 6.2
8 -5 4 29.5 6.8
-8 5 -5 -6.6 3.2
8 5 5 -0.5 6.6
-8 5 -5 10 4.2
8 -5 5 8.1 7.8
-8 -5 -5 -3.9 4.7
8 5 6 32.7 10.1
8 -5 6 25.9 9
8 -5 6 30.6 9.3
-8 -5 -6 41.7 7.4
8 6 -6 82.79 11.5
-8 6 6 89.49 10.1
-8 6 6 61.09 15.8
-8 -6 6 105.29 8.5
-8 -6 6 93.29 16.1
-8 6 5 5.9 9.8
8 6 -5 21.8 13.2
8 6 -5 9.3 5.8
-8 6 5 4.6 3.5
-8 -6 5 3.7 3.2
-8 -6 5 -2.6 6.1
8 -6 -5 -3.7 4.8
-8 6 4 0 3.3
8 6 -4 10.6 10.6
-8 6 4 4.5 9.4
8 6 -4 -0.1 6.1
-8 -6 4 -2.2 3.3
-8 -6 4 5.4 5.5
-8 -6 4 7 3.8
-8 6 3 -0.8 2.7
8 6 -3 1.7 5.2
-8 6 3 -2.6 8.2
-8 -6 3 -7.4 5.5
-8 -6 3 2.2 4
-8 -6 3 1.7 3.2
-8 6 2 125.39 10.9
-8 6 2 136.09 17.3
8 6 -2 139.59 14.5
-8 -6 2 144.89 10
-8 -6 2 129.69 11.5
8 6 -1 2.7 7
-8 6 1 -0.9 3.1
-8 6 1 7 8.1
8 -6 -1 11.3 8.1
-8 -6 1 -1.2 3.2
-8 6 0 50.79 6.7
8 6 0 43.5 9.4
-8 6 0 52.29 9.8
8 6 1 2.4 5.6
-8 6 -1 -6.7 7.3
-8 6 -1 -6.3 4.8
-8 6 -1 0.9 3.8
-8 -6 -1 4.9 3.8
8 -6 1 -11 8.5
8 6 2 26.6 8.1
-8 6 -2 48.5 5.7
-8 -6 -2 49.9 7.4
8 -6 2 51.19 13.1
-8 6 -3 4.2 4.7
8 6 3 0.1 7.8
-8 6 -3 8.2 4.7
8 -6 3 7.1 8.7
-8 -6 -3 4.8 4.8
-8 6 -4 63.29 10.9
8 6 4 75.59 12.1
-8 -6 -4 90.59 12.4
-9 0 11 11.7 8.4
-9 0 10 64.99 8.9
-9 0 10 53.59 9.1
-9 0 9 1.1 3.8
9 0 -9 -0.6 3.9
-9 0 9 6.2 5.3
-9 0 8 61.19 7.6
-9 0 8 54.69 8.8
9 0 -8 61.89 9.7
-9 0 8 58.09 8.8
9 0 -7 -2.3 3.3
9 0 -7 6.7 5.2
9 0 -7 2.6 4
-9 0 7 3.2 3.2
-9 0 7 -3.4 5.2
-9 0 6 188.08 15
9 0 -6 229.88 17.6
9 0 -6 230.28 18.7
-9 0 6 188.68 18.9
9 0 -6 224.08 16.1
9 0 -5 -4.7 5.6
9 0 -5 1.8 3.2
-9 0 5 -0.4 5.3
9 0 -5 0.3 6.1
-9 0 5 4.3 3.2
9 0 -4 510.95 34.3
9 0 -4 444.06 34.2
-9 0 4 458.45 34
-9 0 4 497.05 33.7
-9 0 4 535.85 31
9 0 -4 533.85 31.7
9 0 -3 3 4.1
-9 0 3 -0.2 4.1
-9 0 3 -0.7 3.7
-9 0 3 5.7 6.7
9 0 -3 2.2 7.1
9 0 -3 -0.9 6.7
-9 0 2 165.18 21.6
-9 0 2 225.68 19.3
-9 0 2 224.08 19.4
9 0 -2 241.18 20.7
9 0 -1 -1.5 4.9
9 0 -1 -6.2 7
-9 0 1 4.1 7
-9 0 1 2.4 4.9
9 0 -1 2.2 6.3
-9 0 1 2.8 5.4
-9 0 0 1305.27 74.89
-9 0 0 1194.98 71.29
9 0 0 1172.68 71.59
-9 0 0 1076.39 71.89
9 0 0 1326.27 73.39
9 0 0 1180.08 74.39
-9 0 -1 5.1 6.9
9 0 1 6.1 6.6
-9 0 -1 5.6 4.2
9 0 1 -5.4 4.5
9 0 1 0.2 5.8
-9 0 -1 4.7 7.1
9 0 2 10.3 6.2
9 0 2 0.5 6
-9 0 -2 -8.1 7.6
-9 0 -2 4.8 5.9
9 0 2 3.8 8.7
9 0 3 3.7 6.4
-9 0 -3 -4 6.8
9 0 3 -11.3 5.5
9 0 3 6.6 8.5
-9 0 -3 2.6 5
-9 0 -4 715.13 44.4
9 0 4 694.83 44
9 0 4 685.03 44
-9 0 -4 573.94 41.3
9 0 5 -6.3 4.4
9 0 5 0.6 5.8
-9 0 -5 -2.5 5.1
-9 0 -5 -3.9 6.2
9 0 5 8.2 6
9 0 6 32.2 6.3
9 0 6 29.1 7.9
9 0 6 33.2 8
-9 0 -6 24.3 5.2
-9 0 -6 44.9 11
9 0 7 -0.8 4.5
9 0 7 -13.8 8.4
9 0 7 -0.9 6.6
-9 0 -7 -1.6 4.5
9 0 8 133.79 15.9
9 0 8 116.19 14.1
9 0 8 130.99 14.5
-9 0 -8 131.39 11.1
-9 0 -9 6.6 4
9 0 9 -3.3 6.4
-9 1 11 -0.8 4.6
-9 1 11 14.9 5.5
9 1 -11 0.5 5.1
-9 -1 11 17.1 6.8
-9 1 10 78.99 8.7
9 1 -10 74.39 10.9
-9 1 10 54.99 9.7
-9 -1 10 75.59 9.8
-9 1 9 5.1 3.6
9 1 -9 4.8 4.9
-9 1 9 3.8 3.5
-9 -1 9 13.7 5.7
-9 -1 9 1.4 4.4
9 1 -8 53.29 7.8
-9 1 8 42.7 6.3
9 1 -8 47.4 7.2
-9 1 8 54.19 7.7
-9 1 8 42.2 8.7
-9 -1 8 48.9 8.1
9 -1 -8 37.6 7.7
9 -1 -8 53.29 7.7
-9 -1 8 46.7 8.6
-9 -1 8 34.6 7.1
-9 1 7 -1 2.9
-9 1 7 -3.5 3.1
-9 1 7 -0.6 5.6
9 1 -7 0.9 4.4
9 1 -7 6.3 6
9 1 -7 -1 4.7
-9 -1 7 2.4 5.1
-9 -1 7 -0.6 5.3
9 -1 -7 1.6 3.4
-9 -1 7 -3.2 3.4
9 -1 -7 -0.1 3.6
-9 1 6 432.66 30.8
9 1 -6 460.45 29.2
-9 1 6 429.66 29.6
9 1 -6 456.25 30
-9 1 6 463.45 27.2
9 1 -6 424.86 31.4
-9 -1 6 463.85 31.7
9 -1 -6 483.25 30.4
-9 -1 6 446.26 31.2
-9 -1 6 480.45 28.6
9 -1 -6 460.95 31.4
9 -1 -6 445.46 27.8
9 1 -5 -5.6 4.1
-9 1 5 0.6 5.3
9 1 -5 0.7 4.7
9 1 -5 -0.3 6.5
-9 1 5 -0.4 4
9 -1 -5 -6.1 5.1
-9 -1 5 -1.3 5.5
-9 -1 5 0.3 3.6
-9 -1 5 0.4 5.1
9 -1 -5 2.3 3
9 -1 -5 0.9 5.3
9 1 -4 -3.3 6.5
-9 1 4 -3.7 6.2
-9 1 4 0.6 4.6
9 1 -4 3.8 3.9
9 1 -4 2.7 5.8
-9 -1 4 -2.1 3.6
9 -1 -4 5.5 6.2
-9 -1 4 -0.3 5.6
-9 -1 4 1.5 4.8
9 -1 -4 -3.7 5
-9 1 3 -0.7 7.4
9 1 -3 -0.9 4.6
9 1 -3 -4.5 6.6
-9 1 3 2.9 5.5
9 1 -3 -6 4.8
-9 -1 3 -1 5.1
9 -1 -3 -0.2 5.1
9 -1 -3 -1.9 2.8
-9 -1 3 4.9 5.3
9 -1 -3 0.5 6.9
-9 1 2 399.86 28.1
9 1 -2 340.67 28.8
9 -1 -2 360.86 27.5
-9 -1 2 392.46 30.2
-9 -1 2 326.47 30.5
9 -1 -2 419.16 30.5
9 1 -1 -2.3 5.9
-9 1 1 0.2 7.3
9 1 -1 3.7 5.6
-9 1 1 -6.3 4
-9 1 1 1.3 4.1
9 1 -1 -12.2 5.9
9 -1 -1 -1.6 4.1
-9 -1 1 -11.2 7
-9 -1 1 1.5 4.3
9 -1 -1 2.4 6
9 -1 -1 -0.6 7.7
-9 -1 1 7.2 7
9 1 0 14.7 7.7
9 1 0 21.3 5.7
9 1 0 19.8 8.4
-9 1 0 17.6 6.5
-9 1 0 19.6 7.5
9 -1 0 19.4 6.6
-9 -1 0 9.1 6.4
9 -1 0 13.2 6.9
-9 -1 0 18.3 7
-9 -1 0 14.9 7.7
9 -1 0 10.7 6.5
9 1 1 -1.8 6.7
-9 1 -1 -0.4 7
9 1 1 4.4 5.7
-9 1 -1 -0.8 5.4
9 1 1 -1.7 6.8
-9 -1 -1 6.6 6.1
-9 -1 -1 4.8 5.8
-9 -1 -1 -6.9 6.1
9 -1 1 -2.3 8
9 -1 1 0.6 6.3
9 -1 1 5 4.6
-9 1 -2 219.98 23.4
-9 -1 -2 244.68 19.6
-9 -1 -2 266.77 22.5
9 -1 2 247.38 21.5
9 -1 2 241.98 24.5
9 1 3 6.6 6
-9 1 -3 8.4 7.7
-9 1 -3 3.6 4.9
9 1 3 3.8 8.3
9 1 3 3.1 6.1
9 -1 3 2.3 5
9 -1 3 1 5.8
-9 -1 -3 -2.4 4.6
9 -1 3 -1.5 6.1
-9 -1 -3 3.3 6.3
9 1 4 6.9 6
9 1 4 9.1 8.2
-9 1 -4 6.7 7.3
-9 1 -4 2 4.9
9 1 4 4.7 6.2
-9 -1 -4 -4.5 6.2
-9 -1 -4 2.5 5.8
9 -1 4 9 6.2
9 -1 4 7.6 5.9
9 -1 4 0.8 4
9 1 5 -2.4 5.4
9 1 5 -0.7 5.8
-9 1 -5 1.2 4.2
9 1 5 12.3 8.2
-9 -1 -5 -0.3 3.5
9 -1 5 2.4 5.3
9 -1 5 4.7 5.8
9 -1 5 -0.7 6.1
-9 -1 -5 0.8 6.2
9 -1 5 0.4 4.9
9 1 6 158.48 15.6
9 1 6 104.99 17
-9 1 -6 153.38 13.4
9 1 6 142.49 15.1
-9 1 -6 163.88 19.1
9 -1 6 151.78 15
9 -1 6 115.49 15.2
-9 -1 -6 169.98 13.8
-9 -1 -6 99.29 19.1
9 -1 6 122.19 15.8
9 -1 6 184.48 14.8
9 1 7 7.3 6.8
9 1 7 11.7 6.4
-9 1 -7 2.3 3.9
-9 -1 -7 -5.7 5.9
9 -1 7 7.2 5.5
9 -1 7 -0.3 5.6
9 1 8 3.2 6.2
-9 1 -8 2.1 3.7
9 1 8 3.6 7.1
9 -1 8 8.6 5.6
-9 -1 -8 9.5 3.8
9 -1 8 9.1 6.8
9 -1 8 -11.9 5.9
9 1 9 4.8 7.1
9 1 9 6.3 8.6
9 1 9 -4.8 6.2
-9 1 -9 -2.2 3.8
9 -1 9 0.3 7.2
-9 -1 -9 -7.4 4.5
9 -1 9 4.6 5.6
-9 2 10 54.59 9.2
9 2 -10 48.2 8.6
-9 -2 10 66.79 9.9
-9 2 9 6.4 3.9
9 2 -9 -3.7 4
9 2 -9 -5.5 4.9
-9 -2 9 -3.3 4.7
9 2 -8 55.59 9.4
-9 2 8 33.5 8.6
-9 2 8 44.1 7
9 2 -8 50.59 8.5
-9 -2 8 51.99 7.6
-9 -2 8 40.7 6.8
9 -2 -8 37.8 11.2
-9 2 7 6.1 4.1
-9 2 7 2.7 6
9 2 -7 -5 4.1
9 2 -7 -1.8 6.4
-9 -2 7 3 4.3
-9 -2 7 2.2 4.7
-9 -2 7 -1.5 4.3
9 -2 -7 -4.9 3.8
-9 2 6 170.68 14.2
-9 2 6 166.08 17.7
9 2 -6 177.48 15.4
9 2 -6 177.48 14.5
-9 -2 6 185.88 14.4
9 -2 -6 159.68 16.7
-9 -2 6 187.18 15.6
-9 2 5 7.3 3.6
-9 2 5 2.1 7.6
9 2 -5 2.3 7.8
9 2 -5 3.5 5.3
9 2 -5 0.1 4
-9 -2 5 -0.8 4.1
9 -2 -5 -0.8 4.4
-9 -2 5 1.6 4
-9 -2 5 -1 4.8
-9 2 4 284.57 29.4
-9 2 4 370.06 24
9 2 -4 375.46 25.1
9 2 -4 369.96 25.5
9 -2 -4 319.47 28.1
-9 -2 4 348.67 25.9
-9 -2 4 383.16 24.5
-9 -2 4 366.56 25.1
-9 2 3 9.8 8.6
9 2 -3 1.4 7.5
-9 2 3 1.6 2.8
9 2 -3 1.2 5.4
9 2 -3 4.4 6.5
9 -2 -3 -2.3 6.3
-9 -2 3 1.4 5.5
-9 -2 3 7.4 4.8
9 -2 -3 3.5 5
-9 -2 3 -0.4 4.5
9 2 -2 134.09 13.4
-9 2 2 112.99 12.3
9 2 -2 135.69 17.5
-9 2 2 149.09 19.3
-9 -2 2 135.69 14.7
9 -2 -2 132.89 18.8
-9 -2 2 117.29 16
9 -2 -2 120.69 14
-9 -2 2 107.39 15.2
9 2 -1 6 6.4
-9 2 1 0.7 8.1
-9 2 1 8.5 5.3
9 2 -1 5.5 7.2
9 2 -1 9 6.6
9 -2 -1 11.2 5.4
-9 -2 1 1.2 7.5
-9 -2 1 0.9 5.2
9 -2 -1 12 8.1
-9 -2 1 -2.7 7.1
-9 2 0 1022.9 59.99
9 2 0 834.72 57.29
9 2 0 984.1 57.79
-9 2 0 752.42 55.99
9 -2 0 992.4 59.49
-9 -2 0 1024 59.49
-9 -2 0 980 58.69
9 -2 0 804.72 55.89
-9 2 -1 5.8 8.3
9 2 1 3.9 6.4
9 2 1 1.1 4.6
9 2 1 -2.8 6.4
-9 2 -1 9.1 4.6
9 -2 1 1.4 8.6
-9 -2 -1 0.5 4.2
9 -2 1 1.5 5.5
-9 -2 -1 -8.8 6.3
-9 -2 -1 1.8 7
9 -2 1 6.8 6.3
9 2 2 -3.6 5.2
-9 2 -2 -4.5 4.6
9 2 2 -0.6 6.5
9 2 2 -2 5.6
9 -2 2 8.8 5.6
-9 -2 -2 -12.5 6.5
9 -2 2 -1.7 4.5
-9 -2 -2 -5.8 6.7
9 -2 2 2.4 6.9
9 -2 2 -6.2 4.2
-9 -2 -2 -2 5.4
9 2 3 -2.7 5.1
9 2 3 2.4 5.3
9 2 3 0 5.3
-9 2 -3 -1.3 3.9
9 -2 3 -2.7 4.6
-9 -2 -3 0.6 4.8
9 -2 3 7.4 4.5
-9 -2 -3 -1.5 7.2
9 -2 3 -7.4 5.1
-9 -2 -3 1.6 6.2
9 -2 3 9.5 5.8
-9 2 -4 578.64 34.3
9 2 4 535.25 34.8
9 2 4 565.84 36.3
9 2 4 520.05 37.2
-9 -2 -4 562.34 34.2
9 -2 4 543.85 36.9
-9 -2 -4 537.75 35
9 -2 4 556.74 34.1
9 -2 4 454.75 33.9
9 -2 4 493.05 33.9
-9 2 -5 13.5 8.8
9 2 5 -1.1 5.4
-9 2 -5 4 4.2
9 2 5 6.4 6.9
9 2 5 0.4 6.1
9 -2 5 3 5.8
9 -2 5 4.4 5.6
9 -2 5 -5.6 6
-9 -2 -5 0.2 5.6
-9 -2 -5 -3.6 3.8
9 -2 5 2.3 4.9
9 2 6 30.4 10.5
-9 2 -6 23.6 5.9
9 2 6 28.6 7.1
9 2 6 32.6 7.2
-9 -2 -6 28.8 6.9
-9 -2 -6 32.5 6.6
9 -2 6 28 6.2
9 -2 6 27 7.7
9 -2 6 14.1 6.2
9 -2 6 28.5 7.8
9 2 7 -0.5 6.4
-9 2 -7 -0.7 3.2
9 2 7 -2.9 10
-9 -2 -7 -0.3 4.3
9 -2 7 -4.6 5.5
9 -2 7 -7.9 4.6
9 -2 7 -7.9 6.2
-9 2 -8 105.89 9.5
9 -2 8 121.79 13.4
9 -2 8 131.69 13.4
-9 -2 -8 126.29 11.6
-9 3 10 64.49 11.2
9 3 -10 83.49 12
9 3 -9 3.6 4.2
-9 3 9 2.9 4.6
9 3 -9 3.2 5.8
-9 -3 9 -2.9 4.7
-9 3 8 29 5.9
9 3 -8 19.7 6.7
9 3 -8 19.6 7.3
-9 -3 8 11.6 5.9
9 -3 -8 22.2 6.2
-9 3 7 -5.2 8.4
9 3 -7 -3.7 7.1
9 3 -7 -8.4 6.4
-9 3 7 -2.9 4
-9 -3 7 4.9 5
-9 -3 7 -0.3 5.1
-9 -3 7 -8.7 4.7
9 -3 -7 2.5 4.5
9 3 -6 272.57 19.8
9 3 -6 257.27 24
-9 3 6 260.47 19.3
-9 3 6 227.08 25.6
9 -3 -6 290.07 21.4
-9 -3 6 266.47 19.5
9 3 -5 10.7 7.3
9 3 -5 -6 4.3
-9 3 5 0.2 9.4
-9 3 5 2.9 4.1
-9 -3 5 0.4 4.5
-9 -3 5 -5.4 4.5
-9 -3 5 1.4 4.8
9 -3 -5 -1.8 4.2
9 3 -4 -2.2 8
-9 3 4 2 8.7
-9 3 4 -2.2 3.4
9 3 -4 -2.5 4.2
9 3 -4 11.9 5.1
-9 -3 4 2.3 4.3
9 -3 -4 7.1 7.3
-9 -3 4 -3.6 4.6
-9 -3 4 8.7 5.1
-9 3 3 6.4 3.7
9 3 -3 -8.1 7.9
9 3 -3 0.4 5.6
-9 3 3 -1.4 7.7
9 3 -3 5.8 3.8
9 -3 -3 -0.2 6
-9 -3 3 -7.8 4.1
-9 -3 3 -3.1 5.3
-9 -3 3 4.5 4.2
-9 3 2 240.68 17.5
9 3 -2 229.98 22.6
9 3 -2 267.27 18.6
-9 -3 2 204.28 18.6
-9 -3 2 233.38 20.3
9 -3 -2 274.67 25
-9 -3 2 222.78 20.5
-9 3 1 -2.4 7.6
-9 3 1 -1.1 2.8
9 3 -1 -0.8 5.1
9 3 -1 0.9 6.5
-9 -3 1 -7.3 7
9 -3 -1 -5.8 6.2
-9 -3 1 2.8 8.4
-9 -3 1 -3.6 4.2
9 -3 -1 -0.5 5.2
-9 3 0 2.3 4.3
9 3 0 7.5 4.7
9 3 0 1.2 6.6
-9 3 0 0.3 8.5
9 -3 0 1.3 4.7
9 -3 0 13.1 7
-9 -3 0 15.3 9.3
-9 -3 0 -4.1 6.1
-9 -3 0 6.7 5.8
-9 3 -1 -3.2 7.8
9 3 1 -1.6 5.1
9 3 1 10.9 5.6
-9 3 -1 3.4 5.2
9 -3 1 4.8 8.6
-9 -3 -1 1.4 4.1
-9 -3 -1 12.5 7.5
-9 -3 -1 -5.6 5.4
9 -3 1 -3.4 4.5
-9 3 -2 173.78 20.3
9 3 2 184.18 16.9
-9 3 -2 187.08 16
9 3 2 200.38 16.6
9 -3 2 208.28 14.2
9 -3 2 197.78 14.5
-9 -3 -2 175.28 15
9 -3 2 183.88 15.6
9 3 3 -3.7 5.7
-9 3 -3 -7.5 7.9
9 3 3 4.4 4.9
-9 3 -3 10 5.3
9 3 3 9.9 6.6
-9 -3 -3 7 5.9
9 -3 3 11.1 6.4
9 -3 3 6.6 4.5
-9 -3 -3 10.1 3.8
9 -3 3 7.1 4.6
9 -3 3 8.3 4.8
-9 3 -4 -2.8 3.7
9 3 4 -2.9 5.5
9 3 4 -4.2 4.6
9 3 4 5.6 4.8
-9 3 -4 12.5 8.5
-9 -3 -4 2.3 4.7
-9 -3 -4 -2.5 4.8
9 -3 4 4 5
9 -3 4 -1.2 4.4
9 -3 4 2.6 4.2
9 -3 4 -4.9 5.6
-9 3 -5 5.7 5
9 3 5 -2.2 5.3
9 3 5 -7.7 5.8
9 3 5 -4.3 5.2
9 -3 5 -6.6 4.3
9 -3 5 3 7.3
-9 -3 -5 -3.9 4.7
9 -3 5 4 3.9
9 -3 5 4.3 5.7
9 3 6 80.99 15.6
9 3 6 120.29 14.2
9 -3 6 84.49 11
-9 -3 -6 135.49 12
-9 -3 -6 111.09 10.9
9 -3 6 118.49 10.4
9 -3 6 93.49 15.5
9 -3 6 90.79 10.2
9 3 7 -5.8 7.3
9 3 7 -0.6 6.3
-9 -3 -7 0.3 4
9 -3 7 -9.2 6
9 -3 7 0.8 4.2
9 3 8 2.1 8.1
9 3 8 -9.7 6.7
9 -3 8 3.4 6.3
9 -3 8 -3.9 4.6
9 4 -9 -3.6 5.8
-9 4 9 -3.7 4.2
-9 -4 9 0.1 4.4
9 4 -8 16.9 8.1
-9 4 8 29.4 5.8
9 4 -8 20 8
9 -4 -8 40.7 6.7
-9 -4 8 53.69 9.2
9 4 -7 3 8.7
-9 4 7 4.4 3.7
-9 4 7 3.1 12.4
9 4 -7 -1.4 4.6
-9 -4 7 5.7 4.8
9 -4 -7 -7.3 4.5
-9 4 6 54.59 13.5
-9 4 6 83.59 9.6
9 4 -6 95.69 12.2
9 4 -6 90.09 11.1
-9 -4 6 109.89 11.5
-9 -4 6 86.19 11.7
9 -4 -6 84.09 13.1
-9 4 5 7.4 3.7
-9 4 5 1.2 9.8
9 4 -5 8.7 6.8
9 4 -5 7.5 9
-9 -4 5 1 5.3
9 -4 -5 0 4.9
-9 -4 5 12.4 5.1
9 4 -4 151.68 15.6
9 4 -4 208.08 22.7
-9 4 4 201.98 22.1
-9 4 4 157.48 13.9
-9 -4 4 191.78 15.3
-9 -4 4 175.78 17.2
9 -4 -4 129.29 18
-9 -4 4 189.18 15.4
9 4 -3 3.7 5.6
-9 4 3 2.9 3.9
-9 4 3 9.7 9
9 -4 -3 11 6.5
-9 -4 3 -3.6 3.8
-9 -4 3 -3.3 6.2
-9 4 2 63.09 11.3
9 4 -2 56.39 8.1
9 4 -2 37.9 9.3
-9 4 2 49.4 7
-9 -4 2 37.3 9.2
-9 -4 2 42.9 7.3
-9 -4 2 49.5 9.1
9 -4 -2 70.89 11.8
9 4 -1 9.5 3.5
-9 4 1 5.4 3.5
-9 4 1 4.7 9.1
9 4 -1 4.8 5.5
9 -4 -1 6.3 7
-9 -4 1 4.1 3.6
-9 -4 1 7.8 6.9
9 4 0 518.85 31.2
9 4 0 509.95 33.9
-9 4 0 463.35 31.3
-9 -4 0 506.85 32.5
9 -4 0 497.85 35.1
-9 -4 0 542.85 32.8
-9 4 -1 6.4 8.3
9 4 1 2.9 3.9
9 4 1 10.5 7.8
9 4 1 0.3 6.8
-9 4 -1 -1.2 3.8
-9 -4 -1 2.3 3.9
-9 -4 -1 -3.1 5.6
9 -4 1 -0.4 8.4
9 4 2 0.5 3.8
-9 4 -2 -1.6 4.9
9 4 2 -0.6 5
-9 4 -2 -2.1 8.4
9 -4 2 5 8.1
-9 -4 -2 6.7 5
-9 -4 -2 -2.5 4.5
-9 4 -3 7.3 4.6
9 4 3 -4.7 4.6
9 4 3 3.6 4.7
-9 4 -3 -4.7 7.4
9 -4 3 5.2 3.7
-9 -4 -3 3.6 4.1
9 -4 3 -9.8 7.9
9 -4 3 0.7 4.4
-9 -4 -3 4.2 4.9
9 4 4 253.37 21.9
9 4 4 239.78 17.7
-9 4 -4 259.87 18.3
9 -4 4 227.68 18.5
-9 -4 -4 248.78 17
-9 -4 -4 252.17 19.3
9 -4 4 256.67 16.9
9 -4 4 242.58 22
9 4 5 6 5.8
-9 4 -5 3.3 3.8
9 4 5 -5.5 7.3
9 -4 5 -2.7 3.3
-9 -4 -5 3 3.9
9 -4 5 -1.1 7.4
9 -4 5 -3.3 7.6
9 4 6 4 5.7
9 4 6 32.8 9
-9 -4 -6 4.6 4.8
9 -4 6 11.9 8.1
9 -4 6 14.2 8.4
9 -4 6 4.3 4.3
9 4 7 3.6 7.9
9 4 7 -0.7 5.4
9 -4 7 3.9 8.2
-9 -4 -7 4.2 5.8
9 -4 7 8.5 4.6
9 5 -7 5.8 5.6
-9 5 7 0.5 3.6
-9 -5 7 2.8 3.5
9 -5 -7 2.9 4.7
9 5 -6 110.79 19.2
9 5 -6 74.89 11.3
-9 5 6 79.69 8.9
9 -5 -6 71.79 9.9
-9 5 5 2.7 3.4
-9 5 5 -14.5 9.6
9 5 -5 -17.1 10.6
9 5 -5 10.4 6.5
9 -5 -5 11.4 5.4
-9 -5 5 10.9 3.9
-9 5 4 3.6 3.4
-9 5 4 15.4 9.6
9 5 -4 -8.8 10.1
9 5 -4 8.1 6
-9 -5 4 9.1 3.8
-9 -5 4 -1.5 5.3
9 -5 -4 11.6 6.7
9 5 -3 -9.2 5.2
-9 5 3 3.1 8.8
9 5 -3 14.5 9
-9 5 3 -2.3 3.4
-9 -5 3 -0.5 3.5
9 -5 -3 1.9 6
-9 -5 3 -9.7 5.4
-9 5 2 62.39 11.5
-9 5 2 71.59 12.7
9 5 -2 102.09 14.4
9 5 -2 64.39 11
-9 -5 2 49 10.1
-9 -5 2 78.49 9.9
-9 5 1 27 9.2
9 5 -1 -0.2 6.6
9 5 -1 -4.6 7.4
-9 5 1 0.5 4
-9 -5 1 8.8 6.1
9 -5 -1 6.5 8.1
-9 -5 1 14.3 8.2
-9 5 0 -3.7 8.5
-9 5 0 3.3 3.3
9 5 0 5.7 5.8
-9 -5 0 -2.3 4.7
9 -5 0 9.9 6
-9 5 -1 3.3 8.8
9 5 1 -9.1 6
-9 -5 -1 -1.4 4.5
9 -5 1 -5.2 7.9
-9 5 -2 76.59 10.7
9 5 2 93.29 15.9
-9 -5 -2 99.79 11.3
-9 5 -3 -0.1 5.2
9 5 3 -4.1 5.6
9 -5 3 -6.4 7.7
-9 5 -4 6.8 5
9 -5 4 13.5 7.6
9 -5 4 9.1 6.3
-9 -5 -4 -4.1 3.8
9 -5 4 5.6 3.9
9 5 5 -2.3 5.9
-9 5 -5 -2.9 3.8
-9 -5 -5 0.4 4.8
9 -5 5 -1.3 8.1
9 -5 5 5.9 4.1
-9 6 5 -9.3 10.6
9 6 -5 0.2 6.7
-9 6 5 2.1 3.5
-9 -6 5 0.5 4.4
-9 6 4 57.39 12.7
9 6 -4 63.89 10.3
-9 6 4 65.89 8.2
-9 -6 4 63.89 9.5
9 -6 -4 42.1 8.9
-9 6 3 28.8 10.4
9 6 -3 -2.2 5.7
-9 -6 3 11 9.7
-9 -6 3 -0.9 4.3
9 6 -2 29.7 7.2
-9 6 2 25.9 9.7
-9 6 2 25 5.6
-9 -6 2 21.5 5.4
9 6 -1 9.1 7.7
-9 6 1 -5.1 9.8
-9 6 1 2.5 4.3
-9 -6 1 -2.3 3.9
-9 6 0 140.79 12.5
9 6 0 95.59 16.3
-9 -6 0 137.09 12.5
9 -6 0 150.98 18.4
9 6 1 5.5 6.1
-9 6 -1 -3.3 5.8
-9 -6 -1 3.7 4
9 6 2 13.9 7.5
-9 6 -2 0.3 4.1
-9 6 -2 -4.8 5.4
9 -6 2 -8.2 10.3
-9 -6 -2 7.1 4.6
-9 6 -3 -4.8 5.4
9 6 3 10.4 9.2
-9 -6 -3 6.7 5.2
10 0 -10 2.8 4.7
-10 0 10 2.7 4.8
-10 0 10 -0.8 6.1
-10 0 9 -10.8 5.2
10 0 -9 8.8 4.6
-10 0 9 -6.7 3.9
-10 0 8 166.88 17.4
10 0 -8 193.98 15.6
10 0 -8 188.88 17.6
-10 0 8 198.58 14.3
10 0 -8 188.28 17.2
-10 0 7 -6.4 3.4
10 0 -7 -0.3 3.7
10 0 -7 -3.7 3.8
10 0 -6 6.7 5.2
10 0 -6 5.8 4.6
10 0 -6 -13.7 7.5
-10 0 6 1 3.6
-10 0 6 1.4 4.9
10 0 -5 9.4 6
-10 0 5 4.2 4.9
10 0 -5 7.3 7.5
10 0 -4 472.55 37.1
10 0 -4 558.74 37.3
-10 0 4 571.84 36.5
-10 0 4 550.54 40
10 0 -4 550.54 34.2
-10 0 4 545.95 33.8
-10 0 3 4.2 4.9
-10 0 3 -2.9 8.2
10 0 -3 0.5 6.8
10 0 -3 1.7 7.7
-10 0 3 -0.2 5.5
10 0 -3 0 4.8
10 0 -2 64.79 10.9
-10 0 2 61.39 8.9
10 0 -2 55.49 10.1
10 0 -2 56.79 8.9
-10 0 2 67.59 12
-10 0 2 85.19 12.6
10 0 -1 -2.2 5
10 0 -1 -0.4 6.7
-10 0 1 4.4 5.4
-10 0 1 -5 6.5
10 0 -1 0.3 6.8
10 0 0 1397.76 80.99
-10 0 0 1251.47 82.89
-10 0 0 1442.06 83.99
10 0 0 1534.25 83.19
-10 0 0 1277.17 81.49
10 0 0 1421.46 84.39
10 0 1 0.4 5.4
-10 0 -1 6.1 4.6
10 0 1 -5.3 5.5
-10 0 -1 -4.1 6.8
10 0 1 -0.8 6.2
10 0 2 279.87 25
-10 0 -2 257.87 22.1
10 0 2 253.97 20.5
10 0 2 312.67 22.7
-10 0 -2 251.87 24.4
-10 0 -3 4 4.7
10 0 3 -1.2 7.1
10 0 3 1.2 7.7
10 0 3 0.9 6.2
-10 0 -3 -2.3 7
10 0 4 188.28 19.7
-10 0 -4 154.38 14.8
10 0 4 141.09 16.4
-10 0 -5 -2.3 6.1
-10 0 -5 2.7 7.9
10 0 5 -4.2 6.3
10 0 5 11.5 7.1
10 0 5 4 5.8
-10 0 -6 124.59 20.1
10 0 6 154.38 16.7
10 0 6 109.69 17.4
-10 0 -6 159.38 12.9
10 0 6 164.08 16.7
10 0 7 -7.8 6.1
10 0 7 3.5 7.3
10 0 8 22.5 8.2
10 0 8 39.2 8.8
-10 0 -8 31.8 5.7
-10 1 10 105.99 10.2
10 1 -10 102.59 13.2
-10 1 10 115.09 13.8
-10 -1 10 79.09 13.9
10 1 -9 -12 6
10 1 -9 -7.7 4.2
-10 1 9 -2.3 4.9
-10 1 9 2 3.7
-10 -1 9 15.8 6.4
-10 -1 9 5 4.9
-10 1 8 3.8 4.9
-10 1 8 7.7 3.7
10 -1 -8 14.8 5.4
-10 -1 8 1.3 5.4
10 -1 -8 12.1 4.3
-10 -1 8 9.9 4.6
-10 1 7 -3.2 6.5
-10 1 7 3.2 4.6
10 1 -7 -0.8 5.2
10 -1 -7 3 4
-10 -1 7 1.9 6
10 -1 -7 -4.4 4.4
-10 -1 7 -8.7 4.5
-10 -1 7 0.6 4.1
-10 1 6 208.38 19.6
10 1 -6 230.68 18
10 1 -6 183.28 20.7
10 1 -6 232.78 17.1
-10 1 6 201.78 18
-10 -1 6 248.08 19.7
-10 -1 6 230.68 24.5
-10 -1 6 227.78 16.6
10 -1 -6 258.37 20.8
-10 1 5 5.2 4.9
-10 1 5 -1.7 3.5
10 1 -5 2 5.1
10 1 -5 2.7 6.9
10 1 -5 6.2 5.3
-10 -1 5 3.7 6.1
10 -1 -5 -2.2 5
10 -1 -5 3.2 9.7
10 -1 -5 4.2 3.6
-10 -1 5 -1.9 3.8
-10 -1 5 1.5 5.6
10 1 -4 75.39 10.1
-10 1 4 75.49 13
10 1 -4 87.89 13.1
10 1 -4 75.69 11.9
-10 1 4 64.09 10.4
-10 -1 4 75.69 12.6
-10 -1 4 67.49 10
-10 -1 4 62.29 12.2
10 -1 -4 51.89 10.6
10 1 -3 6.3 8
10 1 -3 -0.5 5.8
-10 1 3 2.3 4
-10 1 3 -6.8 5
10 1 -3 -0.7 5.6
-10 -1 3 3 6.9
-10 -1 3 0.7 4.6
-10 -1 3 4.3 5
10 -1 -3 -2.8 3.1
10 -1 -3 -3.3 6.9
10 1 -2 82.89 10.9
-10 1 2 118.39 12.7
10 1 -2 86.59 16.2
-10 -1 2 85.79 14.4
10 -1 -2 85.79 9.1
-10 -1 2 66.09 12.8
10 -1 -2 86.29 14.8
10 1 -1 1.4 6
-10 1 1 1.2 3.9
10 1 -1 8.5 7.7
-10 1 1 -5.1 7.7
-10 1 1 7.2 4.7
10 1 -1 8.7 5.9
10 -1 -1 8.1 8.6
-10 -1 1 8.7 7.3
-10 -1 1 11.4 6.6
10 -1 -1 -1 4.6
10 -1 -1 1.5 6.7
-10 -1 1 3.8 4.4
10 1 0 100.19 16.3
-10 1 0 97.99 13.6
10 1 0 114.19 12.3
-10 1 0 95.09 16.4
10 1 0 95.29 15.7
-10 -1 0 104.59 14.8
10 -1 0 122.19 12.2
-10 -1 0 83.89 13.8
-10 -1 0 114.89 13.9
10 -1 0 98.69 14.4
10 -1 0 102.09 15.2
10 1 1 -0.4 6
10 1 1 7.5 7
10 1 1 -1.1 6.1
-10 1 -1 0.3 7.9
-10 1 -1 3.5 5.1
-10 -1 -1 5.4 6.2
-10 -1 -1 5.1 5.9
-10 -1 -1 -1.5 5.5
10 -1 1 7 4.5
10 -1 1 -2 6.4
10 -1 1 -2.6 5.8
10 1 2 119.49 14.2
10 1 2 114.29 15.9
10 1 2 103.59 13.3
-10 1 -2 73.49 13.2
-10 1 -2 105.39 11
-10 -1 -2 143.39 15.1
-10 -1 -2 102.19 16.2
10 -1 2 140.79 15.3
10 -1 2 90.19 14.8
10 -1 2 97.39 18.7
-10 -1 -2 94.19 11.9
10 1 3 1.1 4.8
10 1 3 1.8 7.5
10 1 3 3.7 7.7
-10 1 -3 -1.1 5
-10 -1 -3 -0.2 6.8
10 -1 3 -7 6
10 -1 3 -5.9 6.8
-10 -1 -3 2 5.3
10 1 4 90.39 15.1
-10 1 -4 53.89 13.3
-10 1 -4 81.19 11.4
10 1 4 102.59 14.1
10 1 4 76.09 12.6
10 -1 4 91.39 12.4
10 -1 4 89.99 13.1
10 -1 4 82.29 12.9
-10 -1 -4 86.39 15.5
-10 -1 -4 76.69 12.5
10 1 5 1.8 7.3
-10 1 -5 5.8 8.5
10 1 5 3.9 8.7
-10 1 -5 -2 4.4
10 -1 5 -4.9 5.8
10 -1 5 -5.4 6
10 -1 5 3.2 4.4
10 1 6 57.79 10
10 1 6 33.3 11.5
10 1 6 76.49 11.9
-10 1 -6 41.9 7.7
-10 -1 -6 46.7 10
10 -1 6 36.3 8.9
10 -1 6 73.09 12.6
-10 -1 -6 63.79 10.1
10 -1 6 55.39 10.1
10 1 7 -2.6 6.4
-10 1 -7 -0.6 4.1
10 1 7 4.8 8.4
10 1 7 10.3 9.1
10 -1 7 -3.5 7.6
10 -1 7 7.2 6.6
-10 -1 -7 -3.6 12.1
-10 -1 -7 2.9 5
10 -1 7 16.9 6.5
10 1 8 28.7 11.2
10 1 8 33.4 12.3
-10 1 -8 37.6 6.8
10 1 8 49.99 9.5
10 -1 8 47.4 9.6
-10 -1 -8 50.69 7.3
10 -1 8 51.09 9.1
10 -1 8 38.3 9.7
10 2 -10 7 6.4
-10 -2 10 12.9 5.2
-10 2 9 1 3.6
10 2 -9 -0.4 6.4
10 2 -9 -4.7 4.5
10 -2 -9 5 6.5
-10 -2 9 10 4.6
10 2 -8 108.69 16.1
-10 2 8 149.39 11.8
10 -2 -8 135.59 13.9
-10 -2 8 113.69 13.2
10 2 -7 8.2 5.2
-10 2 7 -3.5 7
-10 -2 7 -5.2 5.3
-10 -2 7 0.2 4.7
10 -2 -7 -13.8 7.3
-10 -2 7 -5.4 3.8
-10 2 6 -0.9 7.8
10 2 -6 0.3 8.2
10 2 -6 2.4 4.8
-10 2 6 -0.2 3.1
-10 -2 6 -0.8 5.5
10 -2 -6 7.7 6.8
-10 -2 6 7.3 4.4
-10 -2 6 -0.2 4.5
-10 2 5 9.4 3.2
10 2 -5 -0.8 5.3
10 2 -5 1.7 3.8
10 2 -5 -7.9 8.1
-10 2 5 3.2 8.6
-10 -2 5 -3.3 4.4
-10 -2 5 4 4.3
10 -2 -5 -2.3 4.6
10 2 -4 463.05 32.2
-10 2 4 459.15 31.3
-10 2 4 390.86 36.4
10 2 -4 537.75 33.2
-10 -2 4 519.55 33
-10 -2 4 508.55 31.9
-10 -2 4 497.95 32.3
10 2 -3 -1.7 6.2
-10 2 3 3.7 3.8
10 2 -3 -2.4 5.5
10 2 -3 -5.1 7.2
-10 2 3 1.1 8
-10 -2 3 -1.9 5.4
10 -2 -3 7 6.5
-10 -2 3 -2.8 5.5
-10 -2 3 -3 6.1
10 -2 -3 1.5 8.1
-10 2 2 43.6 10.2
10 2 -2 23.9 6.5
-10 2 2 28.3 7.3
10 2 -2 37.8 9.3
10 2 -2 29.8 6.9
10 -2 -2 31.2 9.5
-10 -2 2 30 8
10 -2 -2 32.1 7.6
-10 -2 2 25.6 9.5
-10 -2 2 19.2 8
10 2 -1 3.5 6.7
-10 2 1 -1.1 7.2
10 2 -1 3.8 6.3
-10 2 1 -5.7 5.2
10 -2 -1 -4.4 6.8
-10 -2 1 9 8.3
-10 -2 1 1.2 5.3
-10 -2 1 -1.4 6.3
10 -2 -1 7.3 7.5
-10 2 0 684.33 50.09
10 2 0 871.01 51.59
10 2 0 748.73 50.89
10 -2 0 825.52 52.39
-10 -2 0 880.71 52.09
-10 -2 0 891.81 51.59
10 2 1 6.1 6.6
10 2 1 1.3 4.5
-10 2 -1 -3.7 4.1
10 2 1 -9.3 8.1
-10 -2 -1 5.3 4.3
10 -2 1 3.2 6.8
-10 -2 -1 3.6 6.6
10 -2 1 3.8 6.1
10 -2 1 -0.3 4.3
-10 -2 -1 -1.1 5.7
10 2 2 217.98 18.9
-10 -2 -2 175.28 18.3
10 -2 2 194.08 17.5
10 -2 2 153.68 17.3
-10 -2 -2 152.68 16.8
-10 2 -3 -1.1 3.4
10 2 3 4.3 5.9
10 2 3 5 6.5
10 2 3 -0.5 5.1
-10 -2 -3 3 6.1
-10 -2 -3 0.6 7.5
-10 -2 -3 6.8 5.3
10 -2 3 -1.9 5
10 -2 3 -3 5.2
10 -2 3 -0.1 6.2
10 -2 3 -4.2 6
10 2 4 187.18 16.3
-10 2 -4 223.18 16.4
10 2 4 202.18 18.4
10 2 4 183.88 18
-10 2 -4 142.89 22.8
10 -2 4 188.38 15.2
10 -2 4 189.48 17
-10 -2 -4 151.18 17.4
-10 -2 -4 182.38 15.1
10 -2 4 154.88 16.2
10 -2 4 136.89 17.4
-10 2 -5 -2.5 4.1
10 2 5 -2.2 6.6
10 2 5 0.9 7.7
10 -2 5 10.9 6.2
-10 -2 -5 -2 6.6
-10 -2 -5 2.6 4.4
10 -2 5 0.6 6.2
-10 2 -6 53.29 8
10 2 6 90.89 12.4
10 2 6 49.8 9.9
10 -2 6 79.79 12.2
10 -2 6 64.29 10.3
-10 2 -7 -0.3 4
10 2 7 -4.3 6.4
10 2 7 8.2 9.3
10 -2 7 -8.6 7.5
10 -2 7 5.9 6.6
-10 -2 -7 -12.3 7.3
-10 -2 -7 -6.2 4.5
10 -2 7 -11.5 5.6
10 2 8 7.8 12
10 2 8 12.3 7.3
-10 2 -8 18 5.1
10 -2 8 24.1 8.8
-10 -2 -8 18.1 5.7
10 -2 8 28.4 8
-10 3 9 8.4 5.2
10 3 -9 -2.5 7.8
-10 -3 9 8.1 5.2
10 -3 -9 3.7 6.5
10 3 -8 0.9 6.3
-10 3 8 5.1 4.8
-10 -3 8 -3.6 5.1
10 -3 -8 1.2 5.6
-10 3 7 1.6 4.5
10 3 -7 0.1 4.5
10 -3 -7 -2 5.8
10 3 -6 105.69 13.3
-10 3 6 120.49 22.3
-10 3 6 121.89 12.4
10 -3 -6 113.99 15.3
-10 -3 6 121.99 14.4
-10 -3 6 125.49 13.2
10 3 -5 4.5 6.1
-10 3 5 13.1 9.9
-10 3 5 -3 3.4
-10 -3 5 -5.9 4.1
-10 -3 5 -3.8 5.6
10 -3 -5 13.8 5.7
-10 3 4 54.69 7.8
-10 3 4 60.99 11.9
10 3 -4 54.19 9.6
10 3 -4 55.59 9.2
-10 -3 4 54.39 8.6
-10 -3 4 46.7 7.8
10 3 -3 -0.4 6.3
-10 3 3 7 3.1
-10 3 3 5 8.7
10 3 -3 -0.2 4.2
-10 -3 3 -3.5 5.9
-10 -3 3 -7.9 6.3
-10 -3 3 -4.6 3.9
10 -3 -3 -9.1 5.6
10 3 -2 93.39 12.5
-10 3 2 73.99 8.9
-10 3 2 96.49 16.5
-10 -3 2 61.89 11.3
10 -3 -2 98.99 13.8
-10 -3 2 54.39 9.6
-10 3 1 15.9 8.7
10 3 -1 15.1 5.5
-10 3 1 17.5 5.2
-10 -3 1 16.6 6.6
10 -3 -1 1 6.9
-10 -3 1 4.9 8.7
-10 -3 1 -2.4 4.4
10 -3 -1 9.9 5.9
10 3 0 38.2 8.7
-10 3 0 44.9 8.6
10 3 0 34 7.6
-10 3 0 58.19 12.4
10 -3 0 52.29 8.8
-10 -3 0 47.4 8.3
10 -3 0 51.89 8.4
-10 -3 0 59.69 11.3
-10 -3 0 40.8 8.1
-10 3 -1 4.8 5
-10 3 -1 12.6 8.8
10 3 1 8.1 5.8
10 3 1 8.8 5.1
10 -3 1 6.9 7.4
-10 -3 -1 2.5 5.5
10 -3 1 -5 5.5
-10 -3 -1 12.4 7.8
-10 3 -2 82.49 10.4
-10 3 -2 37.8 11.3
10 3 2 68.29 10.4
-10 -3 -2 58.69 9.2
-10 -3 -2 70.19 9.6
-10 -3 -2 81.79 11.7
10 -3 2 62.59 12.7
10 -3 2 68.29 11.6
10 -3 2 66.69 10.2
10 -3 2 47.6 7.1
10 3 3 -8.4 6.1
10 3 3 -0.4 7
-10 3 -3 -7.9 9
10 3 3 -0.5 6.1
-10 3 -3 0.4 4.8
10 -3 3 -11.1 8.7
-10 -3 -3 0 7.1
-10 -3 -3 -4.6 5.9
10 -3 3 -0.1 5.6
10 -3 3 1.7 4.2
10 -3 3 7.8 5.3
-10 -3 -3 -3.2 3.8
-10 3 -4 59.89 8.4
10 3 4 52.29 7.9
10 3 4 58.99 10.6
10 -3 4 35.6 8.3
-10 -3 -4 40.5 7.8
10 -3 4 47.4 7.7
10 -3 4 52.29 7.7
10 -3 4 33.1 7
-10 -3 -4 38.4 7.5
10 3 5 -2.4 5
-10 3 -5 4.4 5.1
10 3 5 4.4 6.7
10 -3 5 9.5 8
-10 -3 -5 3.1 6.5
10 -3 5 0.5 5.2
-10 -3 -5 -6.5 5.3
10 3 6 43.5 8.3
-10 3 -6 24.4 5.3
10 3 6 25.7 8
-10 -3 -6 32.4 6.7
10 -3 6 32.9 5.9
10 -3 6 17 8.3
10 -3 6 7.9 9.3
10 -3 6 19.4 10.1
10 3 7 -2.8 6.7
-10 3 -7 5.4 4
10 -3 7 -3.4 9
10 -3 7 5.4 6
-10 4 8 80.59 11.8
10 4 -8 78.39 11.7
10 -4 -8 67.59 9.3
-10 -4 8 69.59 11.1
-10 4 7 -5.2 4.6
10 4 -7 -10.9 9.5
10 4 -7 -0.2 5
-10 -4 7 6.2 5.5
10 -4 -7 3.9 6.1
-10 4 6 -1.5 4.5
10 4 -6 3.3 5.5
-10 4 6 -6.1 15
10 4 -6 -1.5 8.5
-10 -4 6 7.7 5.4
10 -4 -6 11 8
-10 -4 6 0.2 6.4
-10 4 5 -4.6 4.1
10 4 -5 -3.7 8.6
10 4 -5 -3.9 6.3
-10 4 5 19.8 10.6
-10 -4 5 1.9 5.3
10 4 -4 204.38 20.4
10 4 -4 310.67 26.4
-10 4 4 255.97 19.3
-10 4 4 275.97 25.6
-10 -4 4 265.87 19.8
-10 -4 4 267.17 20.7
-10 4 3 15.3 9.1
10 4 -3 -6.2 9.9
10 4 -3 3.2 7.6
-10 4 3 -3.5 4.8
-10 -4 3 -2 6.4
-10 -4 3 9.8 5.7
10 -4 -3 3.9 6.1
-10 -4 3 -8.5 9.7
10 4 -2 -4.7 9.4
10 4 -2 10.4 4.5
-10 4 2 6.5 3.7
-10 4 2 8.7 8.9
10 4 -2 4.6 9
10 -4 -2 26 8.4
-10 -4 2 11.2 5.5
-10 -4 2 2.3 7.6
-10 -4 2 8 8.7
-10 4 1 5.4 3.2
10 4 -1 -6.9 7.4
10 4 -1 4 8.2
10 4 -1 -0.6 3.8
-10 4 1 -1.2 9
10 -4 -1 4 7.4
-10 -4 1 8.7 6.2
-10 -4 1 -0.2 10
-10 -4 1 -2.2 4
-10 4 0 225.58 25.4
10 4 0 276.27 19.6
10 4 0 246.78 23.6
-10 4 0 270.47 19.7
-10 -4 0 297.97 20.9
-10 -4 0 237.08 26.9
10 -4 0 327.27 23.2
-10 -4 0 274.47 24.5
10 4 1 3.8 6.6
10 4 1 5 4.3
-10 4 -1 -3.9 4.5
-10 4 -1 -2.3 9
-10 -4 -1 20.4 8.5
-10 -4 -1 1 3.6
10 -4 1 -9.9 6.6
-10 4 -2 115.19 12.6
10 4 2 132.99 14
10 4 2 109.09 11.4
-10 -4 -2 108.09 12.7
10 -4 2 78.89 14.8
10 4 3 -3.1 5.4
10 4 3 12.1 5.5
-10 4 -3 0.3 4.7
-10 -4 -3 0.4 5.4
10 -4 3 -12.7 7.8
-10 -4 -3 13.3 6.4
10 -4 3 0.3 5.1
10 4 4 120.29 14
10 4 4 78.89 11.2
-10 4 -4 125.19 11.3
10 -4 4 86.79 13.6
10 -4 4 80.29 13.2
10 -4 4 105.99 11.6
-10 -4 -4 110.89 14.1
-10 4 -5 -4.7 4.4
10 4 5 5.1 7.2
-10 -4 -5 -5.9 4.9
10 -4 5 -1 7.2
10 -4 5 5 4.6
-10 -4 -5 -7 4.5
-10 4 -6 55.29 8.7
10 4 6 76.99 9.1
10 4 6 66.39 12
10 -4 6 67.19 10
10 -4 6 55.99 11.9
-10 -4 -6 68.99 10.5
10 5 -6 54.69 8.9
-10 5 6 64.59 10
-10 -5 6 49 9.9
10 -5 -6 62.09 9.9
-10 5 5 -0.8 4.2
10 5 -5 7.8 7.2
-10 -5 5 2.4 4.2
10 -5 -5 3.7 5.6
-10 -5 5 0.8 6.4
-10 5 4 14 11
10 5 -4 14.9 7.6
-10 5 4 24.3 5.7
10 -5 -4 28.8 11.8
-10 -5 4 26.5 7
-10 -5 4 14.3 4.7
10 5 -3 13.3 6.3
-10 5 3 -9 9.6
-10 5 3 3.4 4.7
10 -5 -3 -18.2 10.2
-10 -5 3 2.5 4.4
-10 -5 3 0.8 8.3
-10 5 2 47.5 6.9
-10 5 2 33.5 12.1
10 5 -2 29.5 9.7
-10 -5 2 67.49 9.5
-10 -5 2 42.7 8.6
-10 5 1 -3.9 3.2
-10 5 1 6.8 11
10 5 -1 -6.5 6.8
-10 -5 1 4.5 5.2
-10 -5 1 -1.9 7.3
10 -5 -1 22.4 13.5
10 5 0 20.4 6.7
-10 5 0 8.2 4
-10 -5 0 26.3 6.3
10 -5 0 13.3 7.3
-10 -5 0 18.4 6.4
10 5 1 12 6.9
-10 5 -1 7.4 4.8
-10 -5 -1 -0.4 5.9
10 -5 1 -8.1 6.9
10 5 2 22.9 9.5
-10 5 -2 39.5 7.1
-10 -5 -2 23.4 7.1
10 -5 2 36.9 11.7
10 5 3 1.2 6.7
-10 -5 -3 5.2 4.6
10 -5 3 7.7 10.8
-10 5 -4 22.5 5.9
10 5 4 19.1 7.2
10 -5 4 18 5.9
-10 -5 -4 18.4 5.6
10 -5 4 18 8.9
10 6 -3 15 7.5
-10 6 3 4.3 5.1
-10 -6 3 7.5 5.8
10 6 -2 1.1 6.9
10 -6 -2 12.8 8.1
-10 -6 2 -0.8 5.6
-10 6 1 4 4.2
10 6 -1 -6.9 8.1
-10 -6 1 6.6 5.1
10 -6 -1 1.8 9.3
-10 6 0 92.89 10.1
10 -6 0 102.49 18.1
-10 -6 0 118.09 12.4
10 6 1 -5 6.7
-10 6 -1 -3.2 4.3
10 -6 1 -3.8 7
-10 -6 -1 3.7 4.5
-11 0 10 15.3 6.6
-11 0 10 22.2 6.1
-11 0 9 -1.4 4.7
-11 0 9 3.2 5.5
-11 0 8 80.19 9.7
11 0 -8 80.99 11
-11 0 8 83.59 13.7
11 0 -8 87.09 13.5
11 0 -7 17.6 7.3
11 0 -7 2.4 4.8
-11 0 7 0 3.8
11 0 -7 -3.9 4.1
-11 0 7 -5.4 4.7
-11 0 6 70.69 9.4
11 0 -6 82.69 10.5
-11 0 6 73.69 10.3
11 0 -6 52.59 10.6
11 0 -6 45 10.8
-11 0 5 2.4 4.5
-11 0 5 5.7 4.3
11 0 -5 -0.8 3.9
11 0 -5 10.6 7.1
11 0 -4 245.08 18.4
-11 0 4 294.37 20.5
-11 0 4 215.58 19.8
11 0 -4 231.48 20.8
-11 0 3 2.9 4.8
11 0 -3 -4.3 4.8
-11 0 3 -9 8.8
11 0 -3 12.3 7.9
-11 0 2 291.77 22.6
-11 0 2 328.87 23.5
-11 0 2 306.77 26.6
11 0 -2 336.27 25.8
11 0 -2 286.77 21.5
-11 0 1 4 5.1
11 0 -1 12.9 7.6
11 0 -1 0.4 6.5
-11 0 1 -0.5 7
-11 0 1 6.1 4.6
11 0 -1 4.1 5.6
11 0 0 148.89 17
-11 0 0 130.89 12.5
-11 0 0 132.99 17
-11 0 0 133.29 13.6
11 0 0 156.98 18.2
11 0 0 127.69 12.6
11 0 1 5.1 5.9
11 0 1 -5.3 6
-11 0 -1 3.5 4.4
11 0 1 5 5.3
-11 0 -1 -2.9 7.5
11 0 2 491.05 35.9
11 0 2 570.04 35.6
-11 0 -2 551.94 35.5
11 0 2 520.75 34.6
11 0 3 -0.5 7
11 0 3 8.3 6.3
11 0 3 6.2 4.9
-11 0 -3 -5.4 3.6
11 0 4 9.7 7.8
11 0 4 9.7 7.9
-11 0 -4 -7.5 8.9
11 0 4 7.6 6.6
-11 0 -5 10.3 6
11 0 5 -9.5 13.7
-11 0 -5 -2.3 9.1
11 0 5 -0.3 6.5
11 0 6 196.68 17.2
11 0 6 125.39 17.1
-11 0 -6 152.88 14
11 0 6 158.28 20.9
-11 0 -7 0.4 5.1
11 0 7 -4.9 7.3
11 0 7 10.7 7.2
11 1 -10 58.69 9.5
-11 -1 10 46.7 9
-11 1 9 -0.4 4.2
-11 1 9 -0.8 6
-11 -1 9 -4.9 5.7
11 -1 -9 -9.3 6.4
-11 -1 9 -0.9 5.3
11 1 -8 74.19 11.8
-11 1 8 103.29 9.4
11 1 -8 128.89 12
-11 1 8 112.29 14.2
11 -1 -8 118.59 13.5
11 -1 -8 85.59 10.1
-11 -1 8 94.69 11.3
-11 -1 8 76.89 12.9
11 1 -7 4.3 5.3
11 1 -7 -5.5 8.5
11 1 -7 4.8 5.7
-11 1 7 3.1 6.7
-11 -1 7 -2.5 4.5
11 -1 -7 1.6 5.4
-11 -1 7 9 5.8
11 1 -6 24.6 5.4
11 1 -6 15.1 8.8
-11 1 6 27.7 4.9
11 1 -6 17.8 6.2
-11 1 6 17.9 8.5
-11 -1 6 30.3 7.7
-11 -1 6 34.7 7.6
11 -1 -6 15.5 9.3
-11 -1 6 30.7 6
11 -1 -6 25.2 7.8
11 1 -5 11.2 6.7
-11 1 5 2.8 6
11 1 -5 4.8 5.8
11 -1 -5 -4 6.6
-11 -1 5 -5.3 4.8
-11 -1 5 0.1 6.5
11 -1 -5 11.5 5.7
-11 -1 5 -5.6 4.3
11 1 -4 161.08 17.7
11 1 -4 177.38 16.3
-11 1 4 216.08 18.3
11 -1 -4 156.48 19.4
-11 -1 4 232.08 17.4
-11 -1 4 229.18 17.2
11 1 -3 -0.6 6.1
11 1 -3 2.5 5.6
-11 1 3 1.9 4.2
-11 1 3 -8 3.9
-11 -1 3 5 6.7
-11 -1 3 2.1 8.5
11 1 -2 10.1 5.2
-11 1 2 12.2 4.3
11 1 -2 11.4 8.2
-11 1 2 23.6 5.3
11 -1 -2 -2.6 7
-11 -1 2 21.1 4.7
-11 -1 2 17.6 7.6
11 -1 -2 11.9 4.3
11 -1 -2 5 5.1
-11 -1 2 16.5 8.1
11 1 -1 -4.5 5.8
-11 1 1 8.3 4.9
11 1 -1 -2.4 5.5
11 -1 -1 -7.4 6.9
-11 -1 1 1.6 6.9
-11 -1 1 -5.6 5.3
11 -1 -1 -0.8 4.6
11 -1 -1 7.7 6.7
-11 -1 1 -0.8 3.7
11 1 0 325.97 25.2
11 1 0 305.97 22.2
-11 1 0 260.87 22.2
11 -1 0 299.87 20.4
-11 -1 0 288.87 22.4
-11 -1 0 280.67 22.8
11 -1 0 304.07 24.5
-11 -1 0 321.27 24.2
11 -1 0 282.67 23.8
11 1 1 -1.8 6.4
-11 1 -1 -1.7 3.9
11 1 1 0.3 7
11 1 1 -3.1 4.9
-11 -1 -1 3.3 5.9
11 -1 1 -2.3 6.3
11 -1 1 8.7 5.3
-11 -1 -1 8.2 7.1
11 1 2 3.2 5.1
11 1 2 2.2 7.6
11 1 2 7.9 6.1
-11 1 -2 4.2 4
-11 -1 -2 -2.3 7.3
11 -1 2 3.7 4.9
11 -1 2 12 7.9
-11 -1 -2 2.2 3.9
11 -1 2 3.3 6.7
-11 1 -3 -2.9 9.2
11 1 3 5.5 4.7
-11 1 -3 -1.7 5.2
11 1 3 4.1 7.7
11 1 3 10.8 6
-11 -1 -3 -3.7 7.8
11 -1 3 -3.3 7.8
11 -1 3 5.5 6.7
11 -1 3 1.7 7.8
-11 -1 -3 4.9 4.9
11 1 4 119.29 17.9
11 1 4 101.89 16.5
11 1 4 130.79 13.3
-11 1 -4 150.88 13.1
-11 -1 -4 107.99 15.4
11 -1 4 143.09 15.8
-11 1 -5 3.1 4.2
11 1 5 12 7.4
11 1 5 -7.3 6.5
11 1 5 10.5 9
11 -1 5 -2.1 6.1
-11 -1 -5 -4.4 4.4
11 -1 5 -0.2 6.9
11 -1 5 10.5 7.6
-11 -1 -5 -5.1 8.2
11 -1 5 -4 6.2
11 1 6 3.1 7.4
11 1 6 6.5 10.5
11 1 6 -0.1 9.4
11 -1 6 -0.8 7.5
11 -1 6 1.8 6
-11 -1 -6 4.2 8
11 -1 6 2.6 7.1
11 1 7 -1 7.5
11 1 7 -7.5 10.3
11 -1 7 10.9 6.6
11 -1 7 2.4 7.6
-11 -1 -7 -0.4 6.2
11 -1 7 -4.9 7
11 2 -9 -0.7 5.4
-11 2 9 -9.5 4.6
-11 -2 9 12 8.1
11 -2 -9 8.4 6.9
11 2 -8 54.29 11.5
11 2 -8 71.19 10.2
-11 2 8 76.79 10.5
-11 -2 8 56.89 8
11 -2 -8 74.19 12.1
-11 2 7 -6.2 3.9
11 2 -7 -4.8 9
11 2 -7 -9.2 4.6
-11 -2 7 16.6 5.9
11 -2 -7 -1.3 6.2
-11 -2 7 6.1 4.5
11 2 -6 48.7 8.2
11 2 -6 56.39 9.9
-11 2 6 39.2 6.9
11 2 -6 22 9.9
-11 -2 6 45.8 7.4
-11 -2 6 38.4 8.6
11 -2 -6 48.7 10.8
11 2 -5 5.2 4.6
-11 2 5 20.6 10.9
11 2 -5 9.3 10.5
-11 2 5 -4.9 4.1
-11 -2 5 1.9 5.9
11 -2 -5 -2.5 7.8
-11 -2 5 9.4 4.7
-11 -2 5 5.6 5.9
11 -2 -5 0 5.2
-11 2 4 186.28 22.8
11 2 -4 174.88 17.5
-11 2 4 221.58 17.8
11 2 -4 156.38 15.7
-11 -2 4 228.08 17.6
-11 -2 4 220.78 18
11 2 -3 2.6 6.4
11 2 -3 5.4 5.8
-11 2 3 7.1 6.3
-11 2 3 0.7 8
-11 -2 3 8.5 7
11 -2 -3 12.1 7.4
11 -2 -3 13 6.9
-11 -2 3 3.8 8.4
-11 -2 3 2.7 5.1
-11 2 2 221.78 18.7
11 2 -2 193.68 18.4
11 2 -2 232.48 18.4
-11 2 2 174.58 21.4
-11 -2 2 185.18 21.2
11 -2 -2 180.88 20
-11 -2 2 222.48 21.9
-11 -2 2 234.78 19.1
11 2 -1 -0.5 6.6
11 2 -1 4 5.9
-11 -2 1 11.6 7.7
-11 -2 1 3.8 6.8
11 -2 -1 5.6 6.8
-11 -2 1 5.2 4.4
11 -2 -1 -9.4 6.9
11 2 0 119.09 13.6
-11 2 0 98.59 11.2
11 2 0 123.79 14.3
-11 -2 0 94.09 15.4
-11 -2 0 108.29 14.5
11 -2 0 105.99 10
11 -2 0 78.59 12
11 -2 0 128.29 14.2
-11 -2 0 89.39 11
11 2 1 -1 8.6
11 2 1 0.5 5.8
-11 2 -1 2.2 4.9
11 -2 1 7.3 4.4
11 -2 1 0.1 6.7
11 -2 1 -1.4 5.3
-11 -2 -1 1.2 4.2
-11 -2 -1 0 6.5
-11 -2 -1 -0.1 6.6
-11 2 -2 393.56 26.2
11 2 2 442.06 28.7
11 2 2 314.57 29.1
11 2 2 427.76 27.7
11 -2 2 348.87 30.5
11 -2 2 327.37 26.6
-11 -2 -2 433.16 28.3
-11 -2 -2 373.16 28.5
11 -2 2 381.76 28.1
-11 2 -3 -3.4 3.6
-11 2 -3 1.4 9.5
11 2 3 4.5 6.8
11 2 3 2.1 8.4
11 2 3 3.2 5.4
11 -2 3 5.7 7.7
11 -2 3 -3.8 5.8
-11 -2 -3 4.1 7.4
11 -2 3 0.8 7
11 -2 3 20.5 15.4
-11 -2 -3 -1.7 5.6
11 2 4 1.2 6.1
-11 2 -4 2.7 5.2
11 2 4 -7.9 9.6
11 2 4 13.1 5.4
11 -2 4 1.1 6.8
-11 -2 -4 10 5.7
11 -2 4 14.5 6.1
11 -2 4 1.1 6.5
-11 -2 -4 -3.1 7.3
11 -2 4 -8.7 6.6
-11 2 -5 2.8 4.5
11 2 5 -2.6 6.2
11 2 5 5.8 5.7
-11 -2 -5 5.3 4.8
11 -2 5 -12.2 6.7
11 -2 5 -12.4 7.2
11 -2 5 -2.1 6.8
11 -2 5 5.8 5.3
11 2 6 143.99 17.7
-11 2 -6 105.59 13.9
-11 -2 -6 162.38 19.6
-11 -2 -6 143.19 16.4
11 -2 6 99.69 14.1
11 -2 6 137.99 13.5
11 -2 6 147.69 15.5
11 2 7 5.1 8.5
-11 2 -7 0.8 4.6
11 2 7 9 7.8
11 -2 7 10 6.5
11 -2 7 -6.2 8
-11 -2 -7 5.8 6
11 3 -8 75.39 11.1
-11 3 8 70.39 9.4
11 -3 -8 68.49 12.6
-11 3 7 6.5 3.9
11 3 -7 8.6 5.6
11 3 -7 6.8 9.2
11 -3 -7 11.7 7.6
11 3 -6 14.3 6.8
-11 3 6 29.1 4.9
11 3 -6 31.4 10.8
11 -3 -6 19.8 8
-11 -3 6 17.9 6.6
-11 3 5 19.4 12.1
11 3 -5 -3.8 8.1
-11 3 5 3.9 3.5
11 3 -5 8.8 5.5
-11 -3 5 3.1 7
-11 -3 5 1.2 6.4
11 -3 -5 20.4 8.8
-11 -3 5 2.7 4.8
11 3 -4 97.09 13.1
-11 3 4 138.39 12.3
-11 3 4 149.49 20.5
11 3 -4 129.59 18.2
-11 -3 4 164.98 16.5
-11 -3 4 131.39 13.2
-11 3 3 -1.2 8.8
-11 3 3 -7.5 3.4
11 3 -3 7.4 6.7
11 3 -3 -0.7 4.9
11 3 -3 3.6 8.3
-11 -3 3 0.3 3.9
11 -3 -3 12.9 6.7
-11 -3 3 -11.1 7.4
-11 -3 3 -6.8 8.2
-11 3 2 11.4 5.3
-11 3 2 3.1 8.2
11 3 -2 9.9 6.2
11 3 -2 6.1 6.2
11 3 -2 9.9 9
11 -3 -2 8.6 7.3
11 -3 -2 13.1 7.3
-11 -3 2 8.5 8.1
-11 -3 2 9.7 5
-11 -3 2 2.8 9.4
11 3 -1 -1.6 5.1
11 3 -1 2 4.8
-11 3 1 1 8.5
11 3 -1 1.4 9
-11 3 1 3.9 5.8
-11 -3 1 -11.5 9.2
11 -3 -1 -1.6 7.1
-11 -3 1 -5.1 6.4
-11 -3 1 1.4 4.7
11 -3 -1 2.5 6.9
11 3 0 98.79 16.1
-11 3 0 122.49 13.9
11 3 0 147.09 16
-11 3 0 175.58 20.6
11 3 0 111.89 14.5
11 -3 0 117.89 15.6
11 -3 0 131.59 14.7
-11 -3 0 80.79 14.6
-11 -3 0 174.18 18.5
-11 3 -1 -7.7 7.8
11 3 1 -8.5 4.9
11 3 1 -5.4 8.3
11 3 1 -2.3 6.1
-11 -3 -1 5.3 10.5
11 -3 1 14 7.2
-11 -3 -1 5.6 6.4
-11 -3 -1 1.7 7.8
11 -3 1 -12.7 7.7
-11 3 -2 -0.8 4.1
11 3 2 5.7 5.1
11 3 2 8.3 4.4
11 -3 2 5.9 6.7
-11 -3 -2 8 6.3
11 -3 2 0.2 6.6
11 -3 2 -5 8.6
11 -3 2 4.2 7
11 3 3 -3.5 5.8
11 3 3 -8.2 5.1
-11 3 -3 7.4 4.1
11 -3 3 -17.3 8.7
-11 -3 -3 -1 4.2
11 -3 3 -3.6 5.7
11 -3 3 6.7 6.9
-11 -3 -3 -11.7 6.7
11 -3 3 5.2 6
11 3 4 86.19 14.9
11 -3 4 50.59 8.9
11 -3 4 57.49 11.3
11 -3 4 74.39 10.3
-11 -3 -4 85.89 12.6
11 -3 4 54.19 9
11 3 5 -6.7 6.9
-11 3 -5 2 4.8
-11 -3 -5 3.7 6.5
-11 -3 -5 0.7 7.7
11 -3 5 -10.5 7.3
11 -3 5 0.3 6.4
11 -3 5 -6.8 7.6
11 -3 5 12.7 5.5
-11 3 -6 3.3 4.9
11 3 6 -8.9 6.3
11 -3 6 3.2 6.2
11 -3 6 -0.8 8.1
-11 -3 -6 11.3 6.4
-11 4 7 0 5.1
11 4 -7 -1 5.5
11 -4 -7 9.6 7.5
-11 -4 7 2.7 5.4
-11 4 6 25.3 5.8
11 4 -6 12.9 7.9
11 -4 -6 22.7 8.7
-11 -4 6 20.7 6.8
-11 4 5 5.2 4.2
11 4 -5 4.9 7.6
-11 -4 5 10.5 6.4
11 -4 -5 5.6 6.4
-11 -4 5 5.3 6.1
-11 -4 4 54.99 8.9
11 -4 -4 41 11.1
11 4 -3 -11.9 6.1
11 4 -3 0.9 5.1
-11 4 3 -5.2 2.9
-11 -4 3 -5.8 5.5
-11 -4 3 -4 8.5
11 -4 -3 4 6.5
11 4 -2 173.58 13.6
11 4 -2 122.49 17.7
-11 4 2 151.88 13
-11 -4 2 142.39 17.6
-11 -4 2 105.69 15.4
11 -4 -2 178.78 19.8
11 4 -1 -1.7 4.5
-11 4 1 -8.2 7.3
11 4 -1 3.1 5.4
11 -4 -1 7 7.9
-11 -4 1 2.5 5
-11 -4 1 -7.4 5.9
11 4 0 50.89 8
-11 4 0 40 7.8
11 4 0 51.49 9
-11 -4 0 45.9 8.1
11 -4 0 54.19 9.3
-11 -4 0 46.4 7.9
11 4 1 11.6 7.5
11 4 1 -0.2 4.9
-11 4 -1 13 5.8
-11 -4 -1 4.7 6.6
-11 -4 -1 4.9 4.3
11 -4 1 -6 6.5
11 4 2 132.69 14.9
-11 4 -2 188.88 15
11 4 2 213.38 18.2
11 -4 2 194.68 23.1
-11 -4 -2 179.18 16.8
11 4 3 -3.3 5.5
11 4 3 1.6 6.1
-11 -4 -3 -5.2 5.8
-11 -4 -3 -9.6 6
11 -4 3 2.5 5.7
11 -4 3 5.3 10
11 -4 3 5.3 5.7
11 4 4 12.7 5.7
11 4 4 0.3 5
-11 4 -4 -6.7 3.7
11 -4 4 11.4 9.1
11 -4 4 -2.6 7.1
11 -4 4 11.1 5.4
-11 -4 -4 10.2 6.7
-11 -4 -4 1 6.5
11 4 5 4 6.4
-11 4 -5 4.9 5
11 4 5 0.6 5.6
11 -4 5 5.5 6.2
11 -4 5 1.7 12.4
-11 -4 -5 -3.3 5.8
11 -4 5 3.8 8.2
11 5 -5 -6.6 8
-11 5 5 -0.3 4.9
-11 -5 5 4.9 4.7
-11 -5 5 -9.6 7.3
11 -5 -5 -5.3 6.4
11 5 -4 36.3 8.7
11 -5 -4 34.4 10.2
-11 -5 4 29.6 13.1
-11 5 3 -7.2 3.6
11 5 -3 11.3 6.4
-11 -5 3 -3 9.4
-11 -5 3 -3.6 4.6
11 -5 -3 8.9 8.6
11 5 -2 -0.1 7.3
-11 5 2 5.4 3.8
11 -5 -2 8.5 8.3
-11 -5 2 9.9 7.6
-11 -5 2 4.4 4.8
-11 5 1 4.6 4.1
11 5 -1 -3 6.8
-11 -5 1 -9.9 5.7
-11 -5 1 10.1 5.4
11 -5 -1 10.1 8.9
-11 5 0 63.99 10.4
11 5 0 50.89 9
-11 -5 0 67.99 9
11 -5 0 58.19 10.8
-11 -5 0 34.4 8.7
-11 5 -1 -1.1 5.8
11 5 1 4.2 4.4
11 5 1 -10.6 6.1
11 -5 1 13.6 6.8
-11 -5 -1 5.3 6.6
11 5 2 10.4 7.8
11 -5 2 3.2 8.8
-11 -5 -2 1.4 6.5
11 5 3 4.2 8.1
-11 5 -3 -1.7 4.9
-11 -5 -3 3.9 6.1
11 -5 3 -10.9 10.9
-12 0 9 2.1 5.4
12 0 -9 13.3 6
-12 0 9 5.7 5.8
-12 0 8 21.6 6.4
-12 0 8 17.2 5.5
12 0 -8 20.7 5.5
12 0 -7 -1.8 5
-12 0 7 8.7 5.6
-12 0 7 6.2 4.7
12 0 -7 -3.9 5.9
12 0 -6 134.59 13.8
12 0 -6 156.68 18.4
-12 0 6 150.48 13.5
-12 0 6 139.89 14.9
-12 0 5 -8.2 4.8
12 0 -5 2.5 4.6
-12 0 5 4.8 5.8
-12 0 5 -13.4 9.2
12 0 -5 7.5 9.1
-12 0 4 5 5.5
12 0 -4 7 5.2
12 0 -4 7.1 8.8
-12 0 4 15.3 10.2
12 0 -4 4.7 6.2
-12 0 4 8.5 7
-12 0 3 2 9.2
-12 0 3 3.6 4.9
12 0 -3 5.6 7.7
12 0 -3 -3.8 5.1
-12 0 3 3.4 5.6
12 0 -2 462.75 32
-12 0 2 538.25 38.7
-12 0 2 489.95 31
-12 0 2 439.26 31.8
12 0 -2 479.05 34.4
12 0 -1 -1 5.3
12 0 -1 -1.1 6.5
-12 0 1 2.5 3.9
-12 0 1 -5.8 4.9
12 0 -1 7.2 5.5
-12 0 0 33.3 6.2
12 0 0 37.6 6.6
12 0 0 48.9 9.5
-12 0 0 43 7.4
12 0 0 43.9 9.1
12 0 1 0.3 4.9
-12 0 -1 2.9 4.8
-12 0 -1 9.7 7.7
12 0 1 -1 7
12 0 1 2.8 5.4
12 0 2 316.17 23
12 0 2 315.77 24
12 0 2 297.37 23.1
-12 0 -2 338.97 23.5
-12 0 -2 286.37 26.6
-12 0 -3 2.3 3.9
-12 0 -3 10.3 9
12 0 3 -2.7 6.6
12 0 3 11.7 4.7
12 0 4 46.9 11.3
12 0 4 46.4 8.3
-12 0 -4 58.29 8.3
-12 0 -5 -19.9 9.1
12 0 5 -6.5 8
12 0 5 -5 8.9
12 0 5 -6.7 6.7
12 0 6 67.89 13.5
12 0 6 68.09 12.1
-12 1 9 -5.1 6.7
12 1 -9 3.4 5.6
12 -1 -9 4.3 5.7
-12 -1 9 -1.5 6.2
12 -1 -9 -0.5 8.1
12 1 -8 80.39 15.6
-12 1 8 105.69 15.5
12 1 -8 89.49 12.1
12 -1 -8 76.39 11.1
-12 -1 8 100.59 13.4
-12 1 7 3.8 6.8
12 1 -7 14.8 5.7
12 1 -7 2.6 6
-12 -1 7 -5 5.3
-12 -1 7 2.7 5.8
12 -1 -7 -4.2 6.8
12 1 -6 13.6 4.9
-12 1 6 11.7 6.3
12 1 -6 6.9 5.9
12 1 -6 12.1 10.8
12 -1 -6 -3.1 7.9
-12 -1 6 5.5 9
-12 -1 6 6.3 5.9
12 1 -5 -9.1 8.3
-12 1 5 8.6 6.2
12 1 -5 2.9 6
-12 -1 5 -7.8 7.9
12 -1 -5 -2.4 5.8
-12 -1 5 0.6 6
-12 -1 5 -1.4 4.4
12 1 -4 108.59 12.9
12 1 -4 139.39 15.9
-12 1 4 130.59 13.8
12 -1 -4 99.69 17.1
-12 -1 4 159.08 16.5
-12 -1 4 129.39 20.9
-12 1 3 9 4.7
12 1 -3 -1.6 6.1
12 1 -3 -0.6 7.6
-12 1 3 -5.2 4.2
12 1 -3 9.8 5.8
-12 -1 3 -3.6 9.1
-12 -1 3 6.5 3.6
-12 -1 3 -6.5 7.4
12 -1 -3 -5.1 6.6
12 1 -2 21.2 8.4
-12 1 2 43.9 6.3
-12 1 2 31.4 6.9
12 1 -2 33.2 6.7
-12 -1 2 49.8 8.6
12 -1 -2 31.5 6
12 -1 -2 24.7 9.8
-12 -1 2 29.5 8.2
12 -1 -2 39.1 8.2
-12 1 1 3.2 5.1
12 1 -1 0.5 5.8
12 -1 -1 6.4 7.3
12 -1 -1 -0.8 6.3
-12 -1 1 4.5 5
12 -1 -1 -6.1 4.3
-12 -1 1 -4.4 6
-12 1 0 133.39 17.8
12 1 0 135.49 16.9
12 1 0 111.59 15.1
12 1 0 157.98 14.4
-12 1 0 150.28 14.6
12 -1 0 176.68 18
-12 -1 0 150.68 15.8
-12 -1 0 154.88 15.6
12 -1 0 159.78 12.7
12 -1 0 171.78 17.8
-12 1 -1 12.2 8.7
-12 1 -1 11.1 3.8
12 1 1 -6.1 7.3
12 -1 1 -1.5 5.3
-12 -1 -1 0.1 4.7
-12 -1 -1 2.7 6.2
12 -1 1 2.9 5
12 -1 1 -7.4 6.8
12 1 2 29.1 8.6
12 1 2 20.3 6.8
12 1 2 19.5 5.9
-12 1 -2 19.6 5
-12 -1 -2 10.4 4.7
12 -1 2 15.6 5.5
12 -1 2 8.9 7.3
12 -1 2 5.8 7.5
12 1 3 7.6 5
-12 1 -3 3.4 5.5
12 1 3 -7.2 5.3
12 1 3 -13.4 7.7
12 -1 3 0.8 7.9
-12 -1 -3 -4.7 8.3
-12 -1 -3 -2.8 7.8
12 -1 3 0.8 5
12 -1 3 5.6 7
12 1 4 66.39 10.6
12 1 4 79.19 11.4
12 -1 4 73.89 11.8
12 -1 4 53.39 12.6
-12 -1 -4 53.99 11.6
12 -1 4 88.19 11.2
-12 -1 -4 69.79 11.1
12 1 5 8.7 5.9
-12 1 -5 3.6 4.9
12 -1 5 9.6 8.7
12 -1 5 -5.1 9.2
12 -1 5 -9.6 7.2
-12 -1 -5 2.8 5.4
12 1 6 20.8 9.8
-12 1 -6 0.3 6.2
12 1 6 13.9 7.5
12 -1 6 8.3 10
12 -1 6 23.7 8.6
12 -1 6 16.3 7.9
-12 -1 -6 17.3 6.2
12 2 -8 7 7.6
-12 2 8 16.8 6.5
-12 -2 8 4.7 5.6
12 -2 -8 12.5 6.8
12 2 -7 0.3 7.1
-12 2 7 8.2 5.8
12 2 -7 1.8 5.5
12 -2 -7 6.6 7.6
-12 -2 7 -0.4 4.7
12 2 -6 133.59 14.5
-12 2 6 130.99 15.4
12 -2 -6 118.89 18.1
-12 -2 6 118.99 15.4
-12 -2 6 141.99 13.7
12 2 -5 2.4 6.1
12 2 -5 -14.6 7.4
-12 2 5 -4.7 5.9
12 2 -5 0.9 9.9
-12 -2 5 -3.8 6.7
-12 -2 5 -2.9 7.8
12 -2 -5 -0.6 6
12 2 -4 17.6 7
12 2 -4 4.3 5
-12 2 4 -0.2 6
12 2 -4 -1.2 8.8
-12 -2 4 5.6 9.4
-12 -2 4 15 6.6
12 -2 -4 13.3 8.6
-12 -2 4 11.2 7.3
12 2 -3 -3.1 6
12 2 -3 -5.1 7.4
12 2 -3 12 5.8
-12 2 3 -9.2 8
-12 2 3 -6.1 9.6
12 -2 -3 -16.4 9.3
-12 -2 3 5.4 8.9
-12 -2 3 -9.2 5.1
-12 -2 3 -9.6 13.9
12 -2 -3 -9.2 7.3
-12 2 2 376.36 27.8
12 2 -2 339.37 23.8
-12 2 2 260.27 23.3
12 2 -2 352.86 26.2
12 -2 -2 374.36 27.5
-12 -2 2 313.27 27.2
-12 -2 2 326.47 24.5
12 -2 -2 269.27 26.2
12 2 -1 -8.3 11.4
12 2 -1 10.1 6.9
-12 2 1 6.4 4.7
-12 2 1 -7.6 7.2
12 2 -1 3.8 5.2
-12 -2 1 -9.5 4.6
-12 -2 1 -2.2 7.6
12 -2 -1 -6.2 7.6
-12 -2 1 -3 6.9
12 -2 -1 -10.2 6.2
12 2 0 10.2 8.9
-12 2 0 4.5 9.8
12 2 0 24.3 7.4
12 2 0 31.9 7.3
-12 2 0 24.1 6.3
-12 -2 0 19.6 7.1
12 -2 0 6.6 9.9
12 -2 0 15.9 8.7
-12 -2 0 35.2 8.3
12 2 1 4.1 14.1
-12 2 -1 1.4 4.9
12 2 1 1.6 4.3
12 2 1 10.4 5.1
12 -2 1 9.2 5.1
-12 -2 -1 1.5 6.9
12 -2 1 6.3 4.7
-12 -2 -1 4.4 6.8
-12 -2 -1 4.7 4.7
12 -2 1 7.3 8.4
12 2 2 249.48 19.6
-12 2 -2 232.88 17.1
12 -2 2 191.18 18
12 -2 2 256.67 21.3
12 -2 2 207.98 21.2
12 -2 2 231.38 17.2
-12 -2 -2 212.48 20.2
12 2 3 -8.8 5.3
12 2 3 2.6 6.4
-12 2 -3 5.1 4
12 -2 3 1.6 9.7
-12 -2 -3 5.6 6.8
12 -2 3 11.7 8.3
12 -2 3 4.5 7.7
12 -2 3 -2 6.7
12 2 4 94.89 11.1
12 2 4 63.79 10.6
-12 2 -4 75.19 10.8
12 -2 4 48 12.3
-12 -2 -4 73.99 11.6
12 -2 4 57.39 10.6
12 -2 4 87.09 14.7
-12 2 -5 10.5 4.4
12 2 5 -12.9 6
-12 -2 -5 0.2 5.4
12 -2 5 5.6 7.9
12 -2 5 1.6 9.9
12 -2 5 -3.1 7.9
-12 -2 -5 -0.3 9.3
12 -2 5 12.5 9.9
12 2 6 53.79 9.8
12 2 6 52.39 9.2
12 -2 6 69.29 11
12 -2 6 49.99 9.8
-12 -2 -6 26.1 9.3
12 -2 6 52.49 10.9
12 3 -8 58.79 10.7
-12 3 8 62.89 10.5
12 -3 -8 70.89 10.6
-12 -3 8 78.09 13
12 3 -7 8.5 5.9
-12 3 7 -0.4 4
12 3 -6 4.7 7
-12 -3 6 10.5 5.5
12 -3 -6 2.9 8
12 3 -5 -8.9 6.1
12 3 -5 9.1 7.7
-12 3 5 -4.4 4
12 -3 -5 11 7.5
-12 -3 5 2.4 4.8
12 3 -4 127.79 12.8
-12 3 4 132.19 13.4
12 -3 -4 91.59 14.8
-12 -3 4 101.49 19.2
-12 -3 4 86.99 12
12 3 -3 6.3 7.2
-12 3 3 6.3 5.6
12 3 -3 4.2 5.2
12 -3 -3 5.8 7.2
-12 -3 3 -3.6 4
-12 -3 3 -2.8 11.9
12 3 -2 23.1 8.8
-12 3 2 15.2 7.2
-12 -3 2 18.8 5.7
-12 -3 2 29 14.5
12 -3 -2 28.7 8.4
12 3 -1 -8.7 4.7
12 3 -1 2.6 5.3
-12 -3 1 2.4 5.1
12 -3 -1 -1 6.9
12 -3 -1 0.5 7.9
-12 -3 1 -3.9 6.5
-12 3 0 63.19 9.2
12 3 0 70.99 10.5
12 3 0 79.79 13
-12 -3 0 44.9 9.4
12 -3 0 49.8 9.7
12 -3 0 79.49 13.2
-12 3 -1 2.1 4.5
12 3 1 5.9 6.8
12 3 1 0.1 6
-12 -3 -1 1.5 6.5
-12 -3 -1 -4.2 7
12 -3 1 14.7 7.9
12 -3 1 3.3 6.1
-12 3 -2 16.8 5.5
12 3 2 16.4 5.8
12 3 2 18.4 5.7
12 -3 2 -1.4 7.9
12 -3 2 13.4 8.4
-12 -3 -2 9.3 7.1
-12 -3 -2 13.1 6.2
-12 3 -3 6.7 4
12 3 3 15.9 5.6
12 3 3 9.9 5
12 -3 3 10.6 9.8
12 -3 3 6 7.1
-12 -3 -3 -5.5 7.9
-12 -3 -3 1.1 4.6
12 -3 3 3.3 7.8
12 -3 3 0.6 7.9
12 3 4 52.49 9.3
12 3 4 30.8 7.6
-12 -3 -4 27.3 7.7
12 -3 4 46.8 12.1
12 -3 4 29.5 8.6
12 3 5 17.3 6.4
-12 3 -5 14.5 4.8
12 3 5 5.3 7.9
12 -3 5 -2 8.8
12 -3 5 -5.4 7.5
-12 -3 -5 0.9 9.9
-12 -3 -5 3.3 8
12 -3 5 0.8 8.6
-12 4 6 64.89 8.8
12 4 -6 41.2 9.9
-12 -4 6 54.79 9.3
-12 4 5 4.4 3.7
12 4 -5 -4.8 7.8
12 -4 -5 9.8 7.6
-12 -4 5 -5 6
12 4 -4 -9.1 6.2
-12 -4 4 6.7 6.7
-12 -4 4 26.6 10.6
12 -4 -4 6.4 9.6
12 4 -3 8 5.3
12 4 -3 14.6 7.9
-12 4 3 5.2 4.5
-12 -4 3 3.8 7
12 -4 -3 11.9 7.9
-12 -4 3 -2.7 10
12 4 -2 158.68 20.4
-12 4 2 174.38 16.5
12 4 -2 180.48 14.9
12 -4 -2 212.48 19.5
-12 -4 2 133.59 21.8
12 4 -1 0.8 5.4
12 4 -1 -4.1 6
-12 4 1 1.7 6.1
12 -4 -1 1.3 8.5
-12 -4 1 1.5 6.1
-12 -4 1 4.2 6.4
12 4 0 22.7 6.5
-12 4 0 14.2 6.3
12 4 0 13.3 6.6
12 -4 0 4.8 7.5
-12 -4 0 14.4 5.7
-12 -4 0 9.5 6.7
-12 4 -1 -1.4 4.7
12 4 1 -10.9 6.4
12 4 1 0 5.3
12 -4 1 11.5 6.5
-12 -4 -1 -2.6 7.2
-12 4 -2 102.79 15.8
12 4 2 135.09 15.5
12 4 2 111.09 13
-12 -4 -2 86.79 13.4
-12 -4 -2 98.09 15.1
12 -4 2 93.59 17.2
12 4 3 12 6.2
-12 4 -3 -5.8 4.6
12 4 3 4.2 6.7
12 -4 3 -1.1 11.6
-12 -4 -3 5.7 7.2
12 4 4 29.3 7.1
12 4 4 31.7 6.5
-12 4 -4 31.5 5.1
12 -4 4 21.1 11.9
-12 -4 -4 23.4 8.6
-12 5 3 2.9 4
12 5 -3 13.6 7.1
-12 -5 3 -5.1 4.9
12 5 -2 7.2 9
-12 5 2 16.1 5
12 -5 -2 -6.4 7.3
-12 -5 2 0.6 5.5
12 5 -1 15.9 9.7
-12 -5 1 -3.1 5.5
12 5 0 32.9 8.1
-12 5 0 35.8 8.1
12 5 0 30.2 6.7
-12 -5 0 17.9 7.5
12 -5 0 38.7 9.6
-12 5 -1 4.4 6.6
12 5 1 -1.5 5.2
12 5 1 -4.3 5.9
-12 -5 -1 1.3 7.6
12 -5 1 -0.6 6.7
-13 0 8 -6.1 6.4
13 0 -8 -4.7 6.7
-13 0 8 1.7 6.4
13 0 -7 -0.9 5.7
-13 0 7 3.5 5.7
-13 0 7 0.3 6.2
-13 0 6 87.29 14.1
13 0 -6 71.39 13
13 0 -6 85.89 11.5
-13 0 5 6 8.2
-13 0 5 -3.4 5.3
13 0 -5 -1.1 5.4
13 0 -5 -9.3 7.2
13 0 -4 33.7 8.1
13 0 -4 46.4 7.5
-13 0 4 71.79 11.5
13 0 -3 -3.6 5.4
13 0 -3 -2.9 7.5
-13 0 3 5.4 5.6
-13 0 3 -7.5 4.8
-13 0 2 183.38 15.8
-13 0 2 197.48 16.6
13 0 -2 195.58 15.6
-13 0 2 190.68 21.4
-13 0 1 -0.3 3.5
-13 0 1 2.7 5.3
-13 0 1 -4.2 6.6
13 0 -1 3.6 5.1
13 0 -1 -7.1 5.9
13 0 -1 -10.2 13.4
13 0 0 218.58 26.9
-13 0 0 184.68 16
13 0 0 211.28 15.6
13 0 0 148.09 23
-13 0 0 169.38 19.4
13 0 1 0.5 3.8
13 0 1 7.7 8
-13 0 -1 0.4 5.1
-13 0 -1 -3.3 11.5
13 0 2 62.19 8.9
-13 0 -2 65.79 11.2
13 0 2 50.89 9.1
-13 0 -3 -0.2 4.2
13 0 3 -8.7 5.4
13 0 4 184.68 19.7
-13 0 -4 188.98 16.5
13 0 4 166.28 16.2
13 0 5 -13.6 9.1
-13 0 -5 17.1 7.7
13 0 5 22.2 6.9
-13 1 8 41.9 8.8
13 1 -8 46.5 8.8
13 1 -8 44 11
-13 -1 8 55.09 8.6
13 -1 -8 46.2 9.6
13 1 -7 6.3 6.3
-13 -1 7 -8.2 6.8
13 -1 -7 2 7.7
-13 -1 7 -0.4 5.3
-13 1 6 45.3 8.5
13 1 -6 50.59 10
13 1 -6 54.39 9.6
-13 -1 6 57.09 9.1
-13 -1 6 81.89 10.8
13 -1 -6 47.7 11.5
13 1 -5 -11.2 5.2
13 1 -5 -8.9 7.5
-13 1 5 0.4 4.7
-13 -1 5 5.2 7.9
13 -1 -5 9.5 6.6
-13 -1 5 -1 4.1
13 1 -4 4.5 7.2
13 1 -4 27.5 5.8
-13 1 4 18.4 5.8
13 -1 -4 27.8 9.7
-13 -1 4 21.3 9.4
-13 1 3 13.7 4.9
13 1 -3 12.5 6.1
-13 1 3 7.4 4.9
13 -1 -3 9.1 8
-13 -1 3 2.9 3.9
13 -1 -3 3 4.2
-13 -1 3 -13.9 7.2
-13 -1 3 -16 8.5
13 1 -2 110.69 11.2
-13 1 2 92.49 13.6
13 1 -2 73.79 12.7
-13 -1 2 84.19 11.4
-13 -1 2 110.69 14.3
13 -1 -2 95.79 11
-13 -1 2 116.49 17.2
13 -1 -2 101.09 14.4
13 1 -1 0.9 5.6
-13 1 1 3.2 5.1
-13 -1 1 17.2 7.4
13 -1 -1 -3.6 4.2
-13 -1 1 -0.8 6.2
13 -1 -1 -8.7 5.3
-13 -1 1 -9.3 5.1
13 1 0 11 5.1
13 1 0 15.2 5.4
-13 1 0 14.7 5.2
13 -1 0 7.1 4.5
-13 -1 0 14.1 7.7
13 -1 0 3 7.5
-13 -1 0 13.6 6.6
13 -1 0 -1.9 8.5
-13 -1 0 5.6 5.5
-13 1 -1 4.2 5.1
13 1 1 -10 5.5
13 1 1 2.6 4.4
13 -1 1 0.8 4.5
-13 -1 -1 8.6 8.4
-13 -1 -1 2.4 4.6
13 -1 1 8.6 6.1
13 -1 1 1 8.4
-13 -1 -1 -5.9 6.8
13 1 2 49.99 10.8
-13 1 -2 57.89 9.5
13 1 2 49.99 14.5
13 -1 2 49.2 11.1
13 -1 2 60.49 11.1
-13 -1 -2 46.7 10.8
-13 -1 -2 56.09 7.8
13 -1 2 69.19 10.8
13 1 3 2.1 5.2
13 1 3 0.5 6.3
-13 1 -3 7.5 5.1
-13 -1 -3 3 5.7
13 -1 3 -2.8 7
13 1 4 -2.4 6.4
13 1 4 -6.1 5.6
-13 1 -4 0.4 4.4
-13 -1 -4 3.1 7.4
13 1 5 -7.9 7.2
-13 1 -5 6.4 5.4
13 1 5 -4.7 6
-13 -1 -5 17.5 6.1
13 -1 5 8.1 8.9
13 -1 5 -11.4 9.9
13 2 -7 3.4 7.5
-13 2 7 6.3 7.7
13 2 -7 -3.7 6.4
13 -2 -7 10.1 9.5
-13 -2 7 -5.6 4.9
-13 2 6 61.79 10.4
13 2 -6 35.3 8.2
13 -2 -6 21.9 10.1
-13 2 5 14.6 7
-13 -2 5 3.3 6
13 -2 -5 11.6 7.6
-13 -2 5 -1.1 8.3
13 2 -4 23.7 8.9
-13 2 4 50.39 9
13 2 -4 28 7
-13 -2 4 49.1 11.3
-13 -2 4 42.6 8.2
13 -2 -4 50.29 11.1
13 2 -3 -2.3 6.1
-13 2 3 -2.8 5.4
13 2 -3 -7.4 6.6
-13 -2 3 -10.9 8.5
-13 -2 3 -7 5.3
13 -2 -3 -5.9 7.3
-13 -2 3 16.5 10.1
13 2 -2 165.98 14.3
-13 2 2 130.09 13.5
13 2 -2 110.99 14.6
-13 -2 2 143.99 18.9
13 -2 -2 145.59 15.8
-13 -2 2 143.09 18.3
-13 -2 2 125.59 14.6
-13 2 1 -7.1 4.8
13 2 -1 6.2 6.9
13 2 -1 -2.3 4.6
-13 -2 1 -8.3 6.7
-13 -2 1 3.8 7.9
-13 2 0 130.49 14.8
-13 -2 0 135.19 17.3
-13 -2 0 157.68 14.1
13 -2 0 137.29 12
-13 -2 0 159.88 17
13 -2 0 162.08 18.2
13 2 1 10.4 5
-13 2 -1 -4.6 4
13 2 1 -4.1 4.9
-13 -2 -1 2.6 4.7
13 -2 1 0.9 5.9
-13 -2 -1 0.5 7.5
13 -2 1 1.6 4.5
13 2 2 71.69 11.9
-13 2 -2 67.09 8.7
13 2 2 73.99 10.1
-13 -2 -2 60.99 10.3
13 -2 2 59.89 10.7
-13 -2 -2 64.09 10.9
13 -2 2 45.1 15.9
13 -2 2 47 8.9
13 -2 2 79.19 12.6
13 2 3 -2.1 5.5
-13 2 -3 0.2 4.2
-13 -2 -3 4.8 7.1
-13 -2 -3 -12.4 8.5
13 -2 3 -7.3 12.9
13 2 4 149.88 17
-13 2 -4 142.89 13.5
13 2 4 125.69 14.8
13 -2 4 142.49 18
13 -2 4 125.79 22.4
13 2 5 -2.7 6.1
-13 2 -5 -2.3 4.5
13 2 5 -2 7.4
13 -2 5 -0.3 10.4
13 -2 5 -11.1 11.1
-13 -2 -5 16.8 6.4
13 3 -6 50.39 9.5
-13 3 6 38.7 8.9
-13 -3 6 66.79 11.3
13 -3 -6 21.8 9.5
13 3 -5 -2.4 6.5
-13 3 5 2.5 6.4
13 3 -5 -4 7.1
-13 -3 5 0 5.3
13 3 -4 22.8 6.8
13 3 -4 11.8 6.5
-13 -3 4 27.5 6
13 -3 -4 31.8 10.4
13 3 -3 -3 6.5
-13 3 3 7.1 6.9
13 3 -3 11.9 8.4
-13 -3 3 -2.4 4.5
-13 -3 3 -2.3 9.3
13 -3 -3 8.1 8
-13 3 2 80.19 13.6
13 3 -2 52.89 9.7
13 3 -2 39.8 9
13 -3 -2 82.99 13.3
-13 -3 2 59.89 9.1
-13 -3 2 66.79 11.1
13 3 -1 7.6 5.5
-13 3 1 1.3 5.6
13 3 -1 9 5.6
-13 -3 1 2.7 6.5
13 -3 -1 -2.4 7.4
-13 -3 1 5.8 6
13 3 0 10.7 6.8
13 3 0 28 6.7
-13 -3 0 17.9 7.5
-13 -3 0 17.3 7.3
13 -3 0 2.6 6.8
-13 3 -1 7.6 5.5
13 3 1 6.1 6.5
13 3 1 5.7 6.4
-13 -3 -1 14.2 9.3
-13 3 -2 62.09 9.3
13 3 2 27 7.2
-13 -3 -2 39.7 9
13 -3 2 48.4 9.3
-13 -3 -2 33.5 7.6
13 -3 2 41.3 6.9
13 3 3 12.6 5.6
13 3 3 -2.8 4.9
-13 3 -3 -2.6 3.8
13 -3 3 1.4 8.6
-13 -3 -3 1.1 5.5
-13 -3 -3 -5.3 8.9
13 -3 3 17.2 6
13 -3 3 2 9
13 3 4 9.9 5.9
-13 3 -4 4.5 5.3
13 -3 4 -8.7 10.8
-13 -3 -4 3.9 6.8
13 -3 4 15.7 9.2
-13 4 5 0.5 4.9
13 4 -5 0.7 8.8
13 -4 -5 -1.8 7.3
-13 -4 5 0.7 6.5
13 4 -4 23.3 7.5
13 4 -4 16.7 7.7
-13 4 4 15.7 6.6
13 -4 -4 15.3 10.5
-13 -4 4 22.1 8.3
13 4 -3 -5.5 7.2
-13 4 3 0.1 6.2
-13 -4 3 -16.8 9.3
-13 -4 3 8.6 7.1
13 -4 -3 11.3 8
13 4 -2 69.59 11.3
13 4 -2 61.29 11.8
-13 4 2 47.2 10
-13 -4 2 56.09 10.5
-13 -4 2 37.5 9
13 -4 -2 65.19 10.2
13 4 -1 10.1 6
13 4 -1 -4.9 5.7
-13 4 1 5.8 6.2
-13 -4 1 1.2 5.9
-13 -4 1 1.6 8.4
13 -4 -1 13 8.1
13 4 0 105.49 12.9
-13 4 0 87.99 12.8
-13 -4 0 76.69 12.4
13 -4 0 105.79 16.9
13 4 1 -8 5.7
13 4 1 -2.8 7.3
-13 4 -1 5.4 5.7
13 -4 1 3.6 6.6
-13 -4 -1 -9.4 5
13 4 2 33.7 6.8
13 4 2 34.1 9.7
-13 4 -2 38.8 7.2
13 -4 2 38.6 9.2
-13 -4 -2 26.9 7.7
-14 0 7 6.5 6.5
14 0 -7 -4.7 8
-14 0 6 26.5 9.5
14 0 -6 22.8 6.4
14 0 -6 7.3 9.7
-14 0 6 23.7 6.9
-14 0 5 0.2 7.7
14 0 -5 -3.4 5.3
-14 0 5 -3.4 5.8
-14 0 4 116.59 14.1
14 0 -4 111.19 16.3
14 0 -4 98.19 13
-14 0 4 124.69 14.1
-14 0 3 3 4.4
-14 0 3 0.8 6
14 0 -3 4 8
14 0 -3 -2.6 5.2
14 0 -2 4.8 5.1
-14 0 2 5.1 3.9
-14 0 2 -2.6 5.5
14 0 -2 8 7.5
-14 0 1 6 3.9
-14 0 1 9.8 6
14 0 -1 -1.8 5.5
14 0 -1 7.4 4.4
14 0 0 247.38 20.1
14 0 0 180.78 16.6
-14 0 0 239.18 18.1
14 0 1 9.4 7.1
-14 0 -1 2.3 5.7
14 0 1 8.3 4.3
-14 0 -2 -4.9 4.8
14 0 2 2.7 6.7
-14 0 -3 -1.1 4.5
14 0 3 -5.6 5.7
14 0 3 -9.9 6.1
14 0 4 87.69 13.6
14 0 4 106.79 14
14 1 -7 6.6 7.4
-14 1 7 -4.2 5.5
14 1 -7 1.6 7.8
-14 -1 7 2.8 4.8
14 -1 -7 0.8 9.4
14 1 -6 68.49 11.6
-14 1 6 95.69 12.4
-14 -1 6 68.79 10.5
14 -1 -6 53.79 12.6
14 1 -5 2.8 9.2
-14 1 5 -9.1 5.4
14 1 -5 5.9 6.7
14 -1 -5 -11.8 7
-14 -1 5 -2.2 3.8
-14 -1 5 -13 10.1
14 1 -4 3.6 5.3
-14 1 4 11.6 6.1
14 1 -4 -1.6 7.4
-14 -1 4 10.5 4.2
-14 -1 4 1.6 8.8
14 -1 -4 20.7 8.7
14 1 -3 11.1 6.2
-14 1 3 -1.2 5.8
14 1 -3 1.2 7.1
-14 -1 3 1.3 7.2
-14 -1 3 -1.2 4.3
14 -1 -3 7.6 8.7
-14 1 2 88.99 13.3
14 1 -2 86.39 16.4
14 1 -2 108.29 11.7
14 -1 -2 94.89 14.5
-14 -1 2 96.99 14.8
-14 -1 2 99.49 12.6
14 -1 -2 101.69 11.6
-14 1 1 3 4.9
14 1 -1 1.2 4.4
14 1 -1 9 6.8
14 -1 -1 -1.4 5.9
-14 -1 1 -0.6 5.5
14 -1 -1 1.5 3.9
-14 -1 1 -4.4 6.8
14 1 0 10.3 5.5
-14 1 0 8.3 4.4
14 -1 0 11 8
14 -1 0 3.2 5
-14 -1 0 1.9 5.7
-14 -1 0 18 7
14 1 1 -6.5 5.4
-14 1 -1 -1 4
-14 -1 -1 5.6 4.3
14 -1 1 15.7 7
14 -1 1 14 4.1
14 1 2 91.59 14.8
-14 1 -2 107.89 12.9
14 1 2 82.09 10.9
14 -1 2 113.29 12.4
-14 -1 -2 88.99 11.5
14 1 3 -1.2 6.7
-14 1 -3 -0.9 5
14 1 3 6.3 6.3
14 -1 3 9.2 11.7
14 -1 3 -3.7 5.8
-14 -1 -3 -6.1 6.3
14 1 4 13.8 7.5
14 1 4 -6.6 6.4
-14 1 -4 10.6 5.1
-14 -1 -4 7.7 7.6
14 -1 4 6.3 8.6
14 -1 4 15.5 6.5
-14 2 6 12.1 7.7
14 2 -6 15.8 7.5
14 2 -6 2.4 6.7
-14 -2 6 26.4 7.2
14 -2 -6 17 9.7
-14 2 5 10.1 6.3
14 2 -5 15.6 7.9
14 -2 -5 11.5 7.7
-14 2 4 88.39 12.2
14 2 -4 108.79 12.9
14 -2 -4 111.09 18.2
-14 -2 4 83.79 13.7
14 2 -3 -4.7 6.3
14 2 -3 -11.1 6.6
-14 -2 3 1.2 5.8
-14 2 2 17.1 6.3
14 2 -2 10.6 6
14 2 -2 13.8 6.6
-14 -2 2 8.8 5.3
14 -2 -2 -2.7 6.4
-14 2 1 1.2 5.9
14 2 -1 -2.8 4.6
14 2 -1 2.1 7.5
-14 -2 1 -6 4.3
14 -2 -1 -12.8 6.5
-14 2 0 151.58 15.2
14 2 0 157.28 17.5
14 2 0 183.78 15.8
-14 -2 0 120.29 13.6
14 -2 0 110.49 17.8
14 2 1 1.8 5.7
-14 2 -1 2.9 4
14 2 1 -3.1 5.4
-14 -2 -1 -2.5 5.3
14 -2 1 2.4 6.3
14 -2 1 -7 6.5
14 -2 1 3.4 4.1
14 2 2 3.6 5.5
14 2 2 -1.9 4.9
-14 2 -2 11.8 4.7
14 -2 2 -8.1 7
-14 -2 -2 0.3 7.1
14 -2 2 17.6 5.6
14 -2 2 11.8 5.9
-14 2 -3 -2.4 5.1
14 2 3 -5.7 4.7
14 2 3 2.4 6.9
14 -2 3 6.7 6.6
-14 -2 -3 3 7.2
14 -2 3 9.4 5.8
14 -2 3 -12.1 8.5
-14 3 5 -6.4 7.4
14 3 -5 4.7 7.6
14 -3 -5 0.2 8
-14 -3 5 7.5 5.2
-14 3 4 -6.6 7.1
14 3 -4 -11.7 6.4
14 -3 -4 9.7 9.6
-14 -3 4 9.5 5.2
-14 3 3 6.7 6.5
14 3 -3 -3.8 7
-14 -3 3 2.3 4.6
14 -3 -3 7.1 8
-14 3 2 65.89 11.2
14 3 -2 63.29 11.2
14 3 -2 45.9 9.8
14 -3 -2 90.89 13.1
-14 -3 2 76.89 11.9
14 3 -1 3.5 6.1
14 -3 -1 4 6.9
-14 -3 1 10.8 6.9
14 3 0 1.8 5.8
-14 3 0 -3.1 5.8
14 3 0 14.3 8.1
14 -3 0 13.1 8.6
-14 -3 0 5.6 7.5
14 3 1 1.3 6.5
14 3 1 19.7 10.3
-14 3 -1 12.4 5.6
14 -3 1 -2.1 6.8
-14 -3 -1 -6.1 6.7
-14 3 -2 69.29 9.3
14 3 2 61.29 9.1
14 3 2 60.39 9.7
14 -3 2 53.09 9.4
-14 -3 -2 36.2 8.8
-15 0 5 13.5 11.2
-15 0 5 6.1 6
15 0 -5 -6.2 8.9
-15 0 4 108.09 12
15 0 -4 106.49 15.8
-15 0 4 97.69 13.9
15 0 -4 84.59 11.9
-15 0 3 6.1 6.3
15 0 -3 4.8 7.4
-15 0 3 0.3 3.9
15 0 -2 -2 5.2
-15 0 2 26.3 6.7
15 0 -2 9.9 8.4
-15 0 1 3.7 4.3
15 0 -1 13.7 4.4
15 0 -1 -10.3 5.9
15 0 0 66.89 9.7
15 0 0 86.19 10.4
-15 0 0 84.59 12.3
15 0 1 -5.1 4.3
-15 0 -1 -1.6 5
15 0 1 9.2 6.9
15 0 2 83.49 11.1
15 0 2 96.59 15.9
-15 0 -2 93.19 11.3
15 1 -5 3.4 9.5
-15 1 5 6.8 7
15 1 -5 3.2 6.9
-15 -1 5 4 4.5
15 -1 -5 0.7 7.1
-15 1 4 33.8 8.5
15 1 -4 32.5 9.3
15 -1 -4 39.2 9.8
-15 -1 4 43.9 7
-15 -1 4 32.8 9.4
-15 1 3 -0.2 6.2
15 1 -3 -10 6.8
-15 -1 3 0.6 5.1
-15 -1 3 -9.2 8.1
15 -1 -3 -1.4 8.3
-15 1 2 16.6 6.1
15 1 -2 24.7 8.2
15 1 -2 35.4 9.4
15 -1 -2 35.5 9
-15 -1 2 24.5 6.9
-15 -1 2 26.5 9.5
15 -1 -2 23.6 6.3
15 1 -1 -6.2 4.4
15 1 -1 12.1 7.3
-15 1 1 4.1 4
15 -1 -1 5.6 5.5
-15 -1 1 1.3 5.6
15 -1 -1 0.3 4.2
15 1 0 24.6 6.9
-15 1 0 47.9 8.2
15 1 0 44 8
15 -1 0 45.6 9.3
-15 -1 0 45.5 7.7
15 -1 0 28.8 5.9
15 1 1 3.1 5.4
-15 1 -1 4.7 4.8
-15 -1 -1 4.8 4.4
15 -1 1 9.5 4.4
15 -1 1 -3.8 7.1
15 1 2 9.5 5.3
-15 1 -2 19.1 6.4
-15 -1 -2 23.8 6.1
15 -1 2 22.8 8.1
15 2 -4 58.79 11.7
15 2 -4 77.39 13.1
-15 2 4 59.09 9.7
15 -2 -4 69.09 12.3
-15 -2 4 95.49 13.4
-15 2 3 -1.6 6.3
15 2 -3 5.8 7.2
-15 -2 3 1.3 5.8
15 -2 -3 1.2 8.3
15 2 -2 15.5 7.4
-15 2 2 22.2 7.3
15 2 -2 25.8 7.1
15 -2 -2 23.8 8.6
-15 -2 2 12 5.5
15 2 -1 10.7 7.4
-15 2 1 -6.7 5.9
15 2 -1 19.6 5.6
15 -2 -1 8.4 6.4
-15 -2 1 6.1 4.4
15 2 0 75.79 11.3
-15 2 0 68.19 10.6
15 2 0 55.99 9
-15 -2 0 80.39 11
15 -2 0 84.99 15.3
15 2 1 -0.3 6.2
15 2 1 3.1 5.9
-15 2 -1 3.9 4
15 -2 1 0.2 4.2
15 -2 1 -6.4 7.2
-15 -2 -1 2.2 6.1
