#------------------------------------------------------------------------------
#$Date: 2016-03-21 01:21:50 +0200 (Mon, 21 Mar 2016) $
#$Revision: 178377 $
#$URL: svn://www.crystallography.net/cod/cif/4/00/21/4002101.cif $
#------------------------------------------------------------------------------
#
# This file is available in the Crystallography Open Database (COD),
# http://www.crystallography.net/
#
# All data on this site have been placed in the public domain by the
# contributors.
#
data_4002101
loop_
_publ_author_name
'Nanthamathee, Chompoonoot'
'Ling, Sanliang'
'Slater, Ben'
'Attfield, Martin P.'
_publ_section_title
;
 Contradistinct Thermoresponsive Behavior of Isostructural MIL-53 Type
 Metal--Organic Frameworks by Modifying the Framework Inorganic Anion
;
_journal_name_full               'Chemistry of Materials'
_journal_page_first              141223143002002
_journal_paper_doi               10.1021/cm503311x
_journal_year                    2014
_chemical_formula_sum            'C8 Al F O4'
_chemical_formula_weight         206.06
_chemical_name_systematic        ' ?'
_space_group_IT_number           74
_symmetry_cell_setting           orthorhombic
_symmetry_space_group_name_Hall  '-I 2b 2'
_symmetry_space_group_name_H-M   'I m m a'
_audit_creation_date             2014-08-28T13:13
_audit_creation_method           'from EXP file using GSAS2CIF'
_audit_update_record
' 2014-08-28T13:13  Initial CIF as created by GSAS2CIF'
_cell_angle_alpha                90.0
_cell_angle_beta                 90.0
_cell_angle_gamma                90.0
_cell_formula_units_Z            4
_cell_length_a                   6.56812(16)
_cell_length_b                   16.3928(5)
_cell_length_c                   13.1995(6)
_cell_volume                     1421.19(9)
_computing_structure_refinement  GSAS
_diffrn_radiation_polarisn_ratio 0.95
_diffrn_radiation_probe          x-ray
_diffrn_radiation_wavelength     0.825993
_exptl_absorpt_correction_T_max  1.00000
_exptl_absorpt_correction_T_min  1.00000
_exptl_absorpt_process_details
;   GSAS Absorption/surface roughness correction: function number 0
 No correction is applied.
;
_pd_block_id                     2014-08-28T13:13|200K|200K|
_pd_calc_method                  'Rietveld Refinement'
_pd_instr_location               ' ?'
_pd_meas_2theta_range_inc        0.003
_pd_meas_2theta_range_max        149.9955
_pd_meas_2theta_range_min        0.0015
_pd_meas_number_of_points        49999
_pd_phase_name                   300K
_pd_proc_2theta_range_inc        0.003
_pd_proc_2theta_range_max        150.00533
_pd_proc_2theta_range_min        0.011322
_pd_proc_info_datetime           2014-08-28T13:13:09
_pd_proc_info_excluded_regions   ' ?'
_pd_proc_ls_background_function
;   GSAS Background function number 1 with  2 terms.
 Shifted Chebyshev function of 1st kind
      1:    0.00000     2:    0.00000    
;
_pd_proc_ls_peak_cutoff          0.00010
_pd_proc_ls_profile_function
;
 CW Profile function number 4 with  18 terms
 Pseudovoigt profile coefficients as parameterized in
 P. Thompson, D.E. Cox & J.B. Hastings (1987). J. Appl. Cryst.,20,79-83.
 Asymmetry correction of L.W. Finger, D.E. Cox & A. P. Jephcoat (1994).
 J. Appl. Cryst.,27,892-900.
 Microstrain broadening by P.W. Stephens,  (1999). J. Appl. Cryst.,32,281-289.
 Peak tails are ignored  where the intensity is below 0.0001 times the peak
   Aniso. broadening axis   1.0   0.0   1.0
;
_pd_proc_ls_prof_R_factor        0.0341
_pd_proc_ls_prof_wR_expected     0.0251
_pd_proc_ls_prof_wR_factor       0.0440
_pd_proc_number_of_points        49999
_pd_spec_mounting                ' ?'
_refine_ls_goodness_of_fit_all   1.75
_refine_ls_matrix_type           full
_refine_ls_number_parameters     29
_refine_ls_number_restraints     0
_refine_ls_R_Fsqd_factor         0.26175
_refine_ls_shift/su_max          0.05
_refine_ls_shift/su_mean         0.01
_reflns_d_resolution_high        1.208
_reflns_d_resolution_low         8.196
_reflns_limit_h_max              5
_reflns_limit_h_min              0
_reflns_limit_k_max              13
_reflns_limit_k_min              0
_reflns_limit_l_max              11
_reflns_limit_l_min              0
_reflns_number_total             253
_cod_data_source_file            alf200K.cif
_cod_data_source_block           200K_publ
_cod_depositor_comments
;
The following automatic conversions were performed:

'_geom_bond_publ_flag' value 'N' changed to 'n' according to
/home/saulius/struct/COD-crude-data--automatic-downloads/rss-feeds/ACS/lib/dictionaries/cif_core.dic
dictionary named 'cif_core.dic' version 2.4.2 from 2011-04-26 (18
times).

'_geom_angle_publ_flag' value 'N' changed to 'n' according
to
/home/saulius/struct/COD-crude-data--automatic-downloads/rss-feeds/ACS/lib/dictionaries/cif_core.dic
dictionary named 'cif_core.dic' version 2.4.2 from 2011-04-26 (24
times).

Automatic conversion script
Id: cif_fix_values 2935 2014-11-11 08:27:57Z andrius 
;
_cod_original_cell_volume        1421.18(8)
_cod_database_code               4002101
#BEGIN Tags that were not found in dictionaries:
_gsas_exptl_extinct_corr_t_min   1.00000
_gsas_exptl_extinct_corr_t_max   1.00000
#END Tags that were not found in dictionaries
loop_
_symmetry_equiv_pos_site_id
_symmetry_equiv_pos_as_xyz
1 +x,+y,+z
2 -x,+y,+z
3 +x,-y+1/2,+z
4 -x,-y+1/2,+z
-1 -x,-y,-z
-2 +x,-y,-z
-3 -x,+y+1/2,-z
-4 +x,+y+1/2,-z
101 +x+1/2,+y+1/2,+z+1/2
102 -x+1/2,+y+1/2,+z+1/2
103 +x+1/2,-y,+z+1/2
104 -x+1/2,-y,+z+1/2
-101 -x+1/2,-y+1/2,-z+1/2
-102 +x+1/2,-y+1/2,-z+1/2
-103 -x+1/2,+y,-z+1/2
-104 +x+1/2,+y,-z+1/2
loop_
_atom_site_type_symbol
_atom_site_label
_atom_site_fract_x
_atom_site_fract_y
_atom_site_fract_z
_atom_site_occupancy
_atom_site_thermal_displace_type
_atom_site_U_iso_or_equiv
_atom_site_symmetry_multiplicity
Al Al1 0.25 0.25 0.75 1.0 Uiso 0.0091(16) 4
F F1 0.0 0.25 0.6924(6) 1.0 Uiso 0.0130(13) 4
O O1 0.1671(6) 0.16883(25) 0.83996(35) 1.0 Uiso 0.0130(13) 16
C C1 -0.1952(7) 0.0299(6) 0.9577(7) 1.0 Uiso 0.0220(23) 16
C C2 0.0 0.0625(6) 0.9479(9) 1.0 Uiso 0.0220(23) 8
C C3 0.0 0.1351(7) 0.8698(9) 1.0 Uiso 0.0220(23) 8
loop_
_atom_type_symbol
_atom_type_number_in_cell
_atom_type_scat_dispersion_real
_atom_type_scat_dispersion_imag
_atom_type_scat_Cromer_Mann_a1
_atom_type_scat_Cromer_Mann_a2
_atom_type_scat_Cromer_Mann_a3
_atom_type_scat_Cromer_Mann_a4
_atom_type_scat_Cromer_Mann_b1
_atom_type_scat_Cromer_Mann_b2
_atom_type_scat_Cromer_Mann_b3
_atom_type_scat_Cromer_Mann_b4
_atom_type_scat_Cromer_Mann_c
_atom_type_scat_source
Al 4.0 0.000 0.000 6.42020 3.03870 1.90020 0.74260 1.59360 31.5472 1.96460
85.0886 1.11510 International_Tables_Vol_C
F 4.0 0.000 0.000 3.53920 10.2825 2.64120 4.29440 1.51700 0.26150 1.02430
26.1476 0.27760 International_Tables_Vol_C
O 16.0 0.000 0.000 3.04850 13.2771 2.28680 5.70110 1.54630 0.32390 0.86700
32.9089 0.25080 International_Tables_Vol_C
C 32.0 0.000 0.000 2.31000 20.8439 1.02000 10.2075 1.58860 0.56870 0.86500
51.6512 0.21560 International_Tables_Vol_C
loop_
_geom_angle_atom_site_label_1
_geom_angle_atom_site_label_2
_geom_angle_atom_site_label_3
_geom_angle
_geom_angle_site_symmetry_1
_geom_angle_site_symmetry_3
_geom_angle_publ_flag
F1 Al1 F1 180.0 1_555 -101_546 n
F1 Al1 O1 90.15(19) 1_555 1_555 n
F1 Al1 O1 90.15(19) 1_555 3_555 n
F1 Al1 O1 89.85(19) 1_555 -101_566 n
F1 Al1 O1 89.85(19) 1_555 -103_566 n
F1 Al1 O1 89.85(19) -101_566 1_555 n
F1 Al1 O1 89.85(19) -101_566 3_555 n
F1 Al1 O1 90.15(19) -101_566 -101_566 n
F1 Al1 O1 90.15(19) -101_566 -103_566 n
O1 Al1 O1 91.05(31) 1_555 3_555 n
O1 Al1 O1 180.0 1_555 -101_566 n
O1 Al1 O1 88.95(31) 1_555 -103_566 n
O1 Al1 O1 88.95(31) 3_555 -101_566 n
O1 Al1 O1 180.0 3_555 -103_566 n
O1 Al1 O1 91.05(31) -101_566 -103_566 n
Al1 F1 Al1 130.3(5) 1_555 2_555 n
Al1 O1 C3 138.5(5) 1_555 1_555 n
C1 C1 C2 108.8(6) -2_557 1_555 n
C1 C2 C1 133.5(11) 1_555 2_555 n
C1 C2 C3 110.5(6) 1_555 1_555 n
C1 C2 C3 110.5(6) 2_555 1_555 n
O1 C3 O1 116.5(9) 1_555 2_555 n
O1 C3 C2 121.6(5) 1_555 1_555 n
O1 C3 C2 121.6(5) 2_555 1_555 n
loop_
_geom_bond_atom_site_label_1
_geom_bond_atom_site_label_2
_geom_bond_distance
_geom_bond_site_symmetry_2
_geom_bond_publ_flag
Al1 F1 1.8097(33) 1_555 n
Al1 F1 1.8097(33) -101_445 n
Al1 O1 1.8647(32) 1_555 n
Al1 O1 1.8647(32) 3_555 n
Al1 O1 1.8647(32) -101_445 n
Al1 O1 1.8647(32) -103_445 n
F1 Al1 1.8097(33) 1_555 n
F1 Al1 1.8097(33) 2_555 n
O1 Al1 1.8647(32) 1_555 n
O1 C3 1.290(5) 1_555 n
C1 C1 1.487(12) -2_557 n
C1 C2 1.395(6) 1_555 n
C2 C1 1.395(6) 1_555 n
C2 C1 1.395(6) 2_555 n
C2 C3 1.574(10) 1_555 n
C3 O1 1.290(5) 1_555 n
C3 O1 1.290(5) 2_555 n
C3 C2 1.574(10) 1_555 n
loop_
_pd_meas_intensity_total
_pd_proc_ls_weight
_pd_proc_intensity_bkg_calc
_pd_calc_intensity_total
21.0(28) 0.0 0.00 .
13.4(20) 0.0 0.00 .
19.6(23) 0.0 0.00 .
20.8(24) 0.0 0.00 .
40.0(33) 0.0 0.00 .
160(7) 0.0 0.0 .
128(6) 0.0 0.0 .
889(16) 0.0 0.0 .
1557(20) 0.0 0.0 .
3004(30) 0.0 0.0 .
3454(31) 0.0 0.0 .
3300(30) 0.0 0.0 .
3314(31) 0.0 0.0 .
1092(19) 0.0 0.0 .
94(5) 0.0 0.0 .
46(4) 0.0 0.0 .
44.0(34) 0.0 0.00 .
44(4) 0.0 0.0 .
40.5(34) 0.0 0.00 .
65(4) 0.0 0.0 .
230(8) 0.0 0.0 .
362(10) 0.0 0.0 .
767(15) 0.0 0.0 .
914(16) 0.0 0.0 .
1079(18) 0.0 0.0 .
1265(19) 0.0 0.0 .
1383(19) 0.0 0.0 .
1602(22) 0.0 0.0 .
1798(23) 0.0 0.0 .
1874(23) 0.0 0.0 .
2040(24) 0.0 0.0 .
2062(24) 0.0 0.0 .
1857(23) 0.0 0.0 .
1601(22) 0.0 0.0 .
1154(18) 0.0 0.0 .
655(13) 0.0 0.0 .
347(10) 0.0 0.0 .
229(8) 0.0 0.0 .
131(6) 0.0 0.0 .
71(4) 0.0 0.0 .
46(4) 0.0 0.0 .
30.1(29) 0.0 0.00 .
31.7(31) 0.0 0.00 .
33.4(33) 0.0 0.00 .
27.8(29) 0.0 0.00 .
25.8(27) 0.0 0.00 .
27.4(27) 0.0 0.00 .
34.4(31) 0.0 0.00 .
38.6(35) 0.0 0.00 .
30.4(29) 0.0 0.00 .
26.0(26) 0.0 0.00 .
29.5(28) 0.0 0.00 .
24.9(25) 0.0 0.00 .
30.1(31) 0.0 0.00 .
34.7(33) 0.0 0.00 .
30.4(30) 0.0 0.00 .
35.9(33) 0.0 0.00 .
33.6(32) 0.0 0.00 .
27.0(31) 0.0 0.00 .
29.1(28) 0.0 0.00 .
34.4(29) 0.0 0.00 .
30.6(32) 0.0 0.00 .
32.8(30) 0.0 0.00 .
35.5(33) 0.0 0.00 .
29.3(28) 0.0 0.00 .
33.0(31) 0.0 0.00 .
29.4(29) 0.0 0.00 .
31.8(31) 0.0 0.00 .
30.7(29) 0.0 0.00 .
32.8(31) 0.0 0.00 .
31.3(30) 0.0 0.00 .
28.4(27) 0.0 0.00 .
43(4) 0.0 0.0 .
38.5(34) 0.0 0.00 .
35.8(31) 0.0 0.00 .
30.2(29) 0.0 0.00 .
27.4(29) 0.0 0.00 .
33.1(30) 0.0 0.00 .
36.5(33) 0.0 0.00 .
33.1(31) 0.0 0.00 .
36.8(31) 0.0 0.00 .
37.2(33) 0.0 0.00 .
38.8(35) 0.0 0.00 .
34.3(31) 0.0 0.00 .
41.7(33) 0.0 0.00 .
41.2(33) 0.0 0.00 .
36.2(31) 0.0 0.00 .
44(4) 0.0 0.0 .
45(4) 0.0 0.0 .
50(4) 0.0 0.0 .
44.5(35) 0.0 0.00 .
44(4) 0.0 0.0 .
40(4) 0.0 0.0 .
43.0(34) 0.0 0.00 .
58(4) 0.0 0.0 .
69(4) 0.0 0.0 .
69(4) 0.0 0.0 .
81(5) 0.0 0.0 .
85(5) 0.0 0.0 .
91(5) 0.0 0.0 .
104(5) 0.0 0.0 .
111(6) 0.0 0.0 .
104(6) 0.0 0.0 .
124(6) 0.0 0.0 .
139(6) 0.0 0.0 .
146(6) 0.0 0.0 .
148(7) 0.0 0.0 .
166(7) 0.0 0.0 .
165(7) 0.0 0.0 .
181(7) 0.0 0.0 .
189(7) 0.0 0.0 .
213(8) 0.0 0.0 .
190(7) 0.0 0.0 .
201(8) 0.0 0.0 .
209(7) 0.0 0.0 .
256(9) 0.0 0.0 .
245(8) 0.0 0.0 .
254(9) 0.0 0.0 .
265(9) 0.0 0.0 .
271(9) 0.0 0.0 .
270(9) 0.0 0.0 .
284(9) 0.0 0.0 .
297(9) 0.0 0.0 .
281(9) 0.0 0.0 .
317(9) 0.0 0.0 .
312(9) 0.0 0.0 .
327(10) 0.0 0.0 .
329(10) 0.0 0.0 .
373(10) 0.0 0.0 .
349(10) 0.0 0.0 .
328(10) 0.0 0.0 .
367(10) 0.0 0.0 .
379(10) 0.0 0.0 .
386(10) 0.0 0.0 .
411(11) 0.0 0.0 .
385(10) 0.0 0.0 .
450(12) 0.0 0.0 .
413(11) 0.0 0.0 .
427(11) 0.0 0.0 .
450(11) 0.0 0.0 .
445(11) 0.0 0.0 .
442(12) 0.0 0.0 .
482(12) 0.0 0.0 .
488(12) 0.0 0.0 .
476(11) 0.0 0.0 .
467(12) 0.0 0.0 .
522(13) 0.0 0.0 .
496(12) 0.0 0.0 .
494(12) 0.0 0.0 .
525(12) 0.0 0.0 .
533(12) 0.0 0.0 .
523(13) 0.0 0.0 .
519(12) 0.0 0.0 .
559(12) 0.0 0.0 .
525(12) 0.0 0.0 .
521(12) 0.0 0.0 .
532(13) 0.0 0.0 .
528(12) 0.0 0.0 .
559(12) 0.0 0.0 .
592(13) 0.0 0.0 .
553(13) 0.0 0.0 .
560(13) 0.0 0.0 .
552(12) 0.0 0.0 .
558(12) 0.0 0.0 .
583(13) 0.0 0.0 .
573(13) 0.0 0.0 .
582(13) 0.0 0.0 .
598(13) 0.0 0.0 .
575(12) 0.0 0.0 .
592(13) 0.0 0.0 .
566(13) 0.0 0.0 .
576(13) 0.0 0.0 .
586(13) 0.0 0.0 .
620(13) 0.0 0.0 .
620(14) 0.0 0.0 .
646(14) 0.0 0.0 .
590(13) 0.0 0.0 .
609(13) 0.0 0.0 .
622(13) 0.0 0.0 .
623(13) 0.0 0.0 .
574(13) 0.0 0.0 .
633(13) 0.0 0.0 .
594(13) 0.0 0.0 .
624(13) 0.0 0.0 .
643(13) 0.0 0.0 .
672(14) 0.0 0.0 .
655(14) 0.0 0.0 .
659(13) 0.0 0.0 .
629(13) 0.0 0.0 .
645(14) 0.0 0.0 .
683(15) 0.0 0.0 .
660(14) 0.0 0.0 .
670(13) 0.0 0.0 .
651(13) 0.0 0.0 .
683(14) 0.0 0.0 .
704(15) 0.0 0.0 .
687(14) 0.0 0.0 .
673(13) 0.0 0.0 .
711(14) 0.0 0.0 .
732(15) 0.0 0.0 .
694(14) 0.0 0.0 .
704(14) 0.0 0.0 .
700(14) 0.0 0.0 .
678(14) 0.0 0.0 .
694(14) 0.0 0.0 .
709(15) 0.0 0.0 .
708(14) 0.0 0.0 .
734(14) 0.0 0.0 .
720(14) 0.0 0.0 .
704(14) 0.0 0.0 .
732(15) 0.0 0.0 .
727(14) 0.0 0.0 .
763(14) 0.0 0.0 .
738(14) 0.0 0.0 .
730(15) 0.0 0.0 .
717(15) 0.0 0.0 .
701(14) 0.0 0.0 .
748(14) 0.0 0.0 .
737(15) 0.0 0.0 .
726(15) 0.0 0.0 .
778(15) 0.0 0.0 .
776(15) 0.0 0.0 .
766(14) 0.0 0.0 .
726(14) 0.0 0.0 .
769(15) 0.0 0.0 .
789(15) 0.0 0.0 .
825(15) 0.0 0.0 .
789(15) 0.0 0.0 .
759(15) 0.0 0.0 .
769(15) 0.0 0.0 .
808(15) 0.0 0.0 .
794(15) 0.0 0.0 .
770(14) 0.0 0.0 .
803(15) 0.0 0.0 .
810(16) 0.0 0.0 .
769(15) 0.0 0.0 .
807(15) 0.0 0.0 .
790(15) 0.0 0.0 .
836(15) 0.0 0.0 .
831(16) 0.0 0.0 .
885(16) 0.0 0.0 .
825(15) 0.0 0.0 .
832(15) 0.0 0.0 .
830(15) 0.0 0.0 .
829(16) 0.0 0.0 .
858(16) 0.0 0.0 .
865(15) 0.0 0.0 .
830(15) 0.0 0.0 .
823(15) 0.0 0.0 .
862(16) 0.0 0.0 .
830(15) 0.0 0.0 .
835(15) 0.0 0.0 .
859(15) 0.0 0.0 .
813(15) 0.0 0.0 .
838(16) 0.0 0.0 .
845(16) 0.0 0.0 .
869(15) 0.0 0.0 .
862(15) 0.0 0.0 .
803(15) 0.0 0.0 .
851(16) 0.0 0.0 .
874(16) 0.0 0.0 .
872(15) 0.0 0.0 .
889(16) 0.0 0.0 .
830(15) 0.0 0.0 .
859(16) 0.0 0.0 .
907(16) 0.0 0.0 .
852(15) 0.0 0.0 .
878(16) 0.0 0.0 .
892(16) 0.0 0.0 .
887(16) 0.0 0.0 .
854(15) 0.0 0.0 .
877(15) 0.0 0.0 .
845(16) 0.0 0.0 .
905(17) 0.0 0.0 .
882(16) 0.0 0.0 .
914(16) 0.0 0.0 .
931(16) 0.0 0.0 .
892(16) 0.0 0.0 .
928(17) 0.0 0.0 .
869(16) 0.0 0.0 .
875(15) 0.0 0.0 .
934(16) 0.0 0.0 .
927(16) 0.0 0.0 .
928(17) 0.0 0.0 .
883(16) 0.0 0.0 .
863(15) 0.0 0.0 .
941(16) 0.0 0.0 .
914(16) 0.0 0.0 .
923(17) 0.0 0.0 .
933(16) 0.0 0.0 .
882(15) 0.0 0.0 .
952(16) 0.0 0.0 .
947(17) 0.0 0.0 .
934(17) 0.0 0.0 .
914(16) 0.0 0.0 .
906(16) 0.0 0.0 .
933(16) 0.0 0.0 .
937(16) 0.0 0.0 .
965(17) 0.0 0.0 .
933(16) 0.0 0.0 .
924(16) 0.0 0.0 .
935(16) 0.0 0.0 .
896(16) 0.0 0.0 .
922(17) 0.0 0.0 .
972(17) 0.0 0.0 .
931(16) 0.0 0.0 .
903(16) 0.0 0.0 .
912(16) 0.0 0.0 .
943(17) 0.0 0.0 .
970(17) 0.0 0.0 .
997(16) 0.0 0.0 .
960(16) 0.0 0.0 .
946(17) 0.0 0.0 .
979(17) 0.0 0.0 .
950(16) 0.0 0.0 .
945(16) 0.0 0.0 .
986(17) 0.0 0.0 .
1006(17) 0.0 0.0 .
997(17) 0.0 0.0 .
1017(17) 0.0 0.0 .
964(16) 0.0 0.0 .
998(17) 0.0 0.0 .
968(17) 0.0 0.0 .
982(17) 0.0 0.0 .
975(16) 0.0 0.0 .
1012(17) 0.0 0.0 .
1033(17) 0.0 0.0 .
1039(18) 0.0 0.0 .
1025(17) 0.0 0.0 .
1002(17) 0.0 0.0 .
1021(17) 0.0 0.0 .
1016(17) 0.0 0.0 .
1020(18) 0.0 0.0 .
1039(17) 0.0 0.0 .
1062(17) 0.0 0.0 .
1048(17) 0.0 0.0 .
989(17) 0.0 0.0 .
1057(18) 0.0 0.0 .
1054(17) 0.0 0.0 .
1040(17) 0.0 0.0 .
1029(17) 0.0 0.0 .
1044(17) 0.0 0.0 .
1075(18) 0.0 0.0 .
1100(18) 0.0 0.0 .
1082(17) 0.0 0.0 .
1088(17) 0.0 0.0 .
1075(18) 0.0 0.0 .
1061(18) 0.0 0.0 .
1056(17) 0.0 0.0 .
1055(17) 0.0 0.0 .
1064(17) 0.0 0.0 .
1083(18) 0.0 0.0 .
1067(18) 0.0 0.0 .
1101(18) 0.0 0.0 .
1129(17) 0.0 0.0 .
1068(17) 0.0 0.0 .
1100(18) 0.0 0.0 .
1131(18) 0.0 0.0 .
1115(18) 0.0 0.0 .
1105(17) 0.0 0.0 .
1141(18) 0.0 0.0 .
1119(18) 0.0 0.0 .
1130(18) 0.0 0.0 .
1123(18) 0.0 0.0 .
1146(18) 0.0 0.0 .
1120(18) 0.0 0.0 .
1154(18) 0.0 0.0 .
1134(18) 0.0 0.0 .
1153(18) 0.0 0.0 .
1171(18) 0.0 0.0 .
1147(18) 0.0 0.0 .
1124(18) 0.0 0.0 .
1133(18) 0.0 0.0 .
1178(18) 0.0 0.0 .
1145(18) 0.0 0.0 .
1216(19) 0.0 0.0 .
1137(18) 0.0 0.0 .
1164(18) 0.0 0.0 .
1176(18) 0.0 0.0 .
1159(18) 0.0 0.0 .
1197(18) 0.0 0.0 .
1159(19) 0.0 0.0 .
1238(19) 0.0 0.0 .
1164(18) 0.0 0.0 .
1214(18) 0.0 0.0 .
1155(18) 0.0 0.0 .
1234(19) 0.0 0.0 .
1233(19) 0.0 0.0 .
1265(19) 0.0 0.0 .
1236(18) 0.0 0.0 .
1262(19) 0.0 0.0 .
1204(19) 0.0 0.0 .
1246(19) 0.0 0.0 .
1189(18) 0.0 0.0 .
1159(18) 0.0 0.0 .
1205(19) 0.0 0.0 .
1219(19) 0.0 0.0 .
1182(18) 0.0 0.0 .
1187(18) 0.0 0.0 .
1266(19) 0.0 0.0 .
1210(18) 0.0 0.0 .
1251(20) 0.0 0.0 .
1203(19) 0.0 0.0 .
1292(19) 0.0 0.0 .
1242(18) 0.0 0.0 .
1202(19) 0.0 0.0 .
1210(19) 0.0 0.0 .
1183(19) 0.0 0.0 .
1187(18) 0.0 0.0 .
1240(19) 0.0 0.0 .
1276(19) 0.0 0.0 .
1301(20) 0.0 0.0 .
1245(19) 0.0 0.0 .
1220(18) 0.0 0.0 .
1291(19) 0.0 0.0 .
1295(19) 0.0 0.0 .
1252(19) 0.0 0.0 .
1219(18) 0.0 0.0 .
1312(19) 0.0 0.0 .
1308(19) 0.0 0.0 .
1254(19) 0.0 0.0 .
1239(19) 0.0 0.0 .
1252(19) 0.0 0.0 .
1293(19) 0.0 0.0 .
1331(20) 0.0 0.0 .
1290(20) 0.0 0.0 .
1262(19) 0.0 0.0 .
1291(19) 0.0 0.0 .
1264(18) 0.0 0.0 .
1300(20) 0.0 0.0 .
1262(19) 0.0 0.0 .
1261(19) 0.0 0.0 .
1287(19) 0.0 0.0 .
1254(18) 0.0 0.0 .
1276(19) 0.0 0.0 .
1272(19) 0.0 0.0 .
1299(19) 0.0 0.0 .
1344(19) 0.0 0.0 .
1329(19) 0.0 0.0 .
1287(19) 0.0 0.0 .
1292(20) 0.0 0.0 .
1300(19) 0.0 0.0 .
1261(18) 0.0 0.0 .
1262(19) 0.0 0.0 .
1242(19) 0.0 0.0 .
1291(20) 0.0 0.0 .
1289(19) 0.0 0.0 .
1278(18) 0.0 0.0 .
1317(19) 0.0 0.0 .
1314(20) 0.0 0.0 .
1292(20) 0.0 0.0 .
1298(19) 0.0 0.0 .
1319(19) 0.0 0.0 .
1289(19) 0.0 0.0 .
1288(19) 0.0 0.0 .
1298(20) 0.0 0.0 .
1237(19) 0.0 0.0 .
1307(19) 0.0 0.0 .
1309(19) 0.0 0.0 .
1339(20) 0.0 0.0 .
1332(20) 0.0 0.0 .
1331(19) 0.0 0.0 .
1318(19) 0.0 0.0 .
1279(19) 0.0 0.0 .
1325(20) 0.0 0.0 .
1356(20) 0.0 0.0 .
1314(19) 0.0 0.0 .
1347(19) 0.0 0.0 .
1291(19) 0.0 0.0 .
1320(20) 0.0 0.0 .
1331(20) 0.0 0.0 .
1335(19) 0.0 0.0 .
1299(19) 0.0 0.0 .
1305(19) 0.0 0.0 .
1300(20) 0.0 0.0 .
1396(20) 0.0 0.0 .
1367(19) 0.0 0.0 .
1323(19) 0.0 0.0 .
1330(20) 0.0 0.0 .
1333(20) 0.0 0.0 .
1341(20) 0.0 0.0 .
1309(19) 0.0 0.0 .
1310(19) 0.0 0.0 .
1346(20) 0.0 0.0 .
1344(20) 0.0 0.0 .
1304(19) 0.0 0.0 .
1255(18) 0.0 0.0 .
1301(19) 0.0 0.0 .
1287(19) 0.0 0.0 .
1337(20) 0.0 0.0 .
1294(19) 0.0 0.0 .
1321(19) 0.0 0.0 .
1314(19) 0.0 0.0 .
1281(19) 0.0 0.0 .
1320(20) 0.0 0.0 .
1338(20) 0.0 0.0 .
1322(19) 0.0 0.0 .
1315(19) 0.0 0.0 .
1291(19) 0.0 0.0 .
1340(20) 0.0 0.0 .
1305(19) 0.0 0.0 .
1343(19) 0.0 0.0 .
1344(19) 0.0 0.0 .
1321(19) 0.0 0.0 .
1301(20) 0.0 0.0 .
1288(19) 0.0 0.0 .
1347(19) 0.0 0.0 .
1338(19) 0.0 0.0 .
1338(20) 0.0 0.0 .
1359(20) 0.0 0.0 .
1343(20) 0.0 0.0 .
1330(19) 0.0 0.0 .
1348(19) 0.0 0.0 .
1286(19) 0.0 0.0 .
1376(20) 0.0 0.0 .
1266(19) 0.0 0.0 .
1316(19) 0.0 0.0 .
1327(19) 0.0 0.0 .
1291(19) 0.0 0.0 .
1312(19) 0.0 0.0 .
1348(19) 0.0 0.0 .
1363(19) 0.0 0.0 .
1315(20) 0.0 0.0 .
1258(19) 0.0 0.0 .
1323(20) 0.0 0.0 .
1310(19) 0.0 0.0 .
1301(19) 0.0 0.0 .
1326(20) 0.0 0.0 .
1289(20) 0.0 0.0 .
1293(19) 0.0 0.0 .
1293(19) 0.0 0.0 .
1322(19) 0.0 0.0 .
1296(19) 0.0 0.0 .
1294(20) 0.0 0.0 .
1214(19) 0.0 0.0 .
1263(19) 0.0 0.0 .
1273(19) 0.0 0.0 .
1262(19) 0.0 0.0 .
1281(20) 0.0 0.0 .
1291(19) 0.0 0.0 .
1296(19) 0.0 0.0 .
1281(19) 0.0 0.0 .
1317(19) 0.0 0.0 .
1313(20) 0.0 0.0 .
1253(19) 0.0 0.0 .
1287(19) 0.0 0.0 .
1288(19) 0.0 0.0 .
1277(19) 0.0 0.0 .
1283(20) 0.0 0.0 .
1293(19) 0.0 0.0 .
1299(19) 0.0 0.0 .
1347(19) 0.0 0.0 .
1308(20) 0.0 0.0 .
1267(20) 0.0 0.0 .
1272(19) 0.0 0.0 .
1289(19) 0.0 0.0 .
1253(19) 0.0 0.0 .
1296(19) 0.0 0.0 .
1290(20) 0.0 0.0 .
1328(20) 0.0 0.0 .
1245(18) 0.0 0.0 .
1252(19) 0.0 0.0 .
1294(20) 0.0 0.0 .
1234(19) 0.0 0.0 .
1257(19) 0.0 0.0 .
1293(19) 0.0 0.0 .
1246(19) 0.0 0.0 .
1241(19) 0.0 0.0 .
1303(20) 0.0 0.0 .
1286(19) 0.0 0.0 .
1266(18) 0.0 0.0 .
1268(19) 0.0 0.0 .
1255(19) 0.0 0.0 .
1260(19) 0.0 0.0 .
1285(19) 0.0 0.0 .
1275(18) 0.0 0.0 .
1270(19) 0.0 0.0 .
1260(19) 0.0 0.0 .
1280(19) 0.0 0.0 .
1314(19) 0.0 0.0 .
1262(18) 0.0 0.0 .
1264(19) 0.0 0.0 .
1299(20) 0.0 0.0 .
1261(19) 0.0 0.0 .
1263(19) 0.0 0.0 .
1275(18) 0.0 0.0 .
1323(20) 0.0 0.0 .
1238(19) 0.0 0.0 .
1255(19) 0.0 0.0 .
1201(18) 0.0 0.0 .
1239(18) 0.0 0.0 .
1254(19) 0.0 0.0 .
1253(20) 0.0 0.0 .
1248(19) 0.0 0.0 .
1292(19) 0.0 0.0 .
1276(19) 0.0 0.0 .
1252(19) 0.0 0.0 .
1214(19) 0.0 0.0 .
1285(19) 0.0 0.0 .
1228(18) 0.0 0.0 .
1297(19) 0.0 0.0 .
1260(19) 0.0 0.0 .
1280(20) 0.0 0.0 .
1230(19) 0.0 0.0 .
1247(18) 0.0 0.0 .
1238(18) 0.0 0.0 .
1246(19) 0.0 0.0 .
1218(19) 0.0 0.0 .
1286(19) 0.0 0.0 .
1242(18) 0.0 0.0 .
1242(19) 0.0 0.0 .
1246(19) 0.0 0.0 .
1270(19) 0.0 0.0 .
1242(19) 0.0 0.0 .
1204(18) 0.0 0.0 .
1206(18) 0.0 0.0 .
1180(18) 0.0 0.0 .
1159(18) 0.0 0.0 .
1200(18) 0.0 0.0 .
1226(18) 0.0 0.0 .
1236(19) 0.0 0.0 .
1229(19) 0.0 0.0 .
1199(19) 0.0 0.0 .
1208(18) 0.0 0.0 .
1193(18) 0.0 0.0 .
1170(18) 0.0 0.0 .
1203(19) 0.0 0.0 .
1245(19) 0.0 0.0 .
1178(18) 0.0 0.0 .
1211(18) 0.0 0.0 .
1224(19) 0.0 0.0 .
1183(19) 0.0 0.0 .
1232(19) 0.0 0.0 .
1179(18) 0.0 0.0 .
1183(18) 0.0 0.0 .
1173(18) 0.0 0.0 .
1152(19) 0.0 0.0 .
1217(19) 0.0 0.0 .
1202(18) 0.0 0.0 .
1145(18) 0.0 0.0 .
1198(19) 0.0 0.0 .
1235(20) 0.0 0.0 .
1214(18) 0.0 0.0 .
1212(18) 0.0 0.0 .
1147(18) 0.0 0.0 .
1231(19) 0.0 0.0 .
1252(20) 0.0 0.0 .
1180(18) 0.0 0.0 .
1196(18) 0.0 0.0 .
1195(18) 0.0 0.0 .
1177(18) 0.0 0.0 .
1168(19) 0.0 0.0 .
1127(18) 0.0 0.0 .
1164(18) 0.0 0.0 .
1226(18) 0.0 0.0 .
1193(18) 0.0 0.0 .
1188(19) 0.0 0.0 .
1186(19) 0.0 0.0 .
1168(18) 0.0 0.0 .
1211(18) 0.0 0.0 .
1169(18) 0.0 0.0 .
1182(19) 0.0 0.0 .
1216(19) 0.0 0.0 .
1222(18) 0.0 0.0 .
1186(18) 0.0 0.0 .
1164(18) 0.0 0.0 .
1152(18) 0.0 0.0 .
1169(18) 0.0 0.0 .
1176(18) 0.0 0.0 .
1146(18) 0.0 0.0 .
1150(18) 0.0 0.0 .
1161(18) 0.0 0.0 .
1130(18) 0.0 0.0 .
1169(18) 0.0 0.0 .
1133(18) 0.0 0.0 .
1158(18) 0.0 0.0 .
1131(18) 0.0 0.0 .
1139(18) 0.0 0.0 .
1174(18) 0.0 0.0 .
1147(18) 0.0 0.0 .
1162(19) 0.0 0.0 .
1213(19) 0.0 0.0 .
1198(18) 0.0 0.0 .
1191(18) 0.0 0.0 .
1145(18) 0.0 0.0 .
1181(19) 0.0 0.0 .
1216(19) 0.0 0.0 .
1123(18) 0.0 0.0 .
1179(18) 0.0 0.0 .
1193(19) 0.0 0.0 .
1128(19) 0.0 0.0 .
1146(18) 0.0 0.0 .
1149(18) 0.0 0.0 .
1177(18) 0.0 0.0 .
1156(18) 0.0 0.0 .
1112(19) 0.0 0.0 .
1175(18) 0.0 0.0 .
1159(18) 0.0 0.0 .
1156(18) 0.0 0.0 .
1133(18) 0.0 0.0 .
1155(19) 0.0 0.0 .
1158(18) 0.0 0.0 .
1135(18) 0.0 0.0 .
1127(18) 0.0 0.0 .
1133(18) 0.0 0.0 .
1137(19) 0.0 0.0 .
1104(18) 0.0 0.0 .
1131(17) 0.0 0.0 .
1139(18) 0.0 0.0 .
1157(18) 0.0 0.0 .
1091(18) 0.0 0.0 .
1157(18) 0.0 0.0 .
1171(18) 0.0 0.0 .
1154(18) 0.0 0.0 .
1143(18) 0.0 0.0 .
1161(19) 0.0 0.0 .
1135(18) 0.0 0.0 .
1109(17) 0.0 0.0 .
1094(18) 0.0 0.0 .
1105(18) 0.0 0.0 .
1121(18) 0.0 0.0 .
1111(18) 0.0 0.0 .
1083(17) 0.0 0.0 .
1083(18) 0.0 0.0 .
1094(18) 0.0 0.0 .
1084(18) 0.0 0.0 .
1063(17) 0.0 0.0 .
1108(17) 0.0 0.0 .
1079(18) 0.0 0.0 .
1114(19) 0.0 0.0 .
1064(18) 0.0 0.0 .
1099(18) 0.0 0.0 .
1110(17) 0.0 0.0 .
1108(18) 0.0 0.0 .
1149(19) 0.0 0.0 .
1092(18) 0.0 0.0 .
1076(17) 0.0 0.0 .
1070(17) 0.0 0.0 .
1074(18) 0.0 0.0 .
1134(19) 0.0 0.0 .
1120(18) 0.0 0.0 .
1122(17) 0.0 0.0 .
1124(17) 0.0 0.0 .
1067(17) 0.0 0.0 .
1076(18) 0.0 0.0 .
1076(17) 0.0 0.0 .
1084(17) 0.0 0.0 .
1132(18) 0.0 0.0 .
1088(18) 0.0 0.0 .
1073(18) 0.0 0.0 .
1071(18) 0.0 0.0 .
1098(17) 0.0 0.0 .
1031(17) 0.0 0.0 .
1075(17) 0.0 0.0 .
1111(18) 0.0 0.0 .
1103(18) 0.0 0.0 .
1026(17) 0.0 0.0 .
1080(17) 0.0 0.0 .
1088(18) 0.0 0.0 .
1074(18) 0.0 0.0 .
1075(18) 0.0 0.0 .
1082(17) 0.0 0.0 .
1077(17) 0.0 0.0 .
1056(17) 0.0 0.0 .
1046(17) 0.0 0.0 .
1066(18) 0.0 0.0 .
1120(17) 0.0 0.0 .
1083(17) 0.0 0.0 .
1075(18) 0.0 0.0 .
1069(18) 0.0 0.0 .
1037(17) 0.0 0.0 .
1075(17) 0.0 0.0 .
1038(17) 0.0 0.0 .
1059(17) 0.0 0.0 .
1081(17) 0.0 0.0 .
1061(17) 0.0 0.0 .
1051(17) 0.0 0.0 .
1065(17) 0.0 0.0 .
1058(18) 0.0 0.0 .
1067(18) 0.0 0.0 .
1050(17) 0.0 0.0 .
1062(17) 0.0 0.0 .
1053(18) 0.0 0.0 .
1064(18) 0.0 0.0 .
1054(17) 0.0 0.0 .
1014(17) 0.0 0.0 .
1108(17) 0.0 0.0 .
1029(17) 0.0 0.0 .
1069(18) 0.0 0.0 .
1072(17) 0.0 0.0 .
1089(17) 0.0 0.0 .
1035(17) 0.0 0.0 .
1069(18) 0.0 0.0 .
1099(19) 0.0 0.0 .
1072(17) 0.0 0.0 .
1092(17) 0.0 0.0 .
1047(17) 0.0 0.0 .
1041(17) 0.0 0.0 .
1090(18) 0.0 0.0 .
1020(17) 0.0 0.0 .
1040(17) 0.0 0.0 .
1066(17) 0.0 0.0 .
1053(18) 0.0 0.0 .
1011(18) 0.0 0.0 .
990(17) 0.0 0.0 .
1040(17) 0.0 0.0 .
1050(17) 0.0 0.0 .
1013(17) 0.0 0.0 .
1052(18) 0.0 0.0 .
1036(17) 0.0 0.0 .
1038(17) 0.0 0.0 .
1058(17) 0.0 0.0 .
1075(18) 0.0 0.0 .
1037(18) 0.0 0.0 .
1054(18) 0.0 0.0 .
1047(17) 0.0 0.0 .
1010(17) 0.0 0.0 .
1038(18) 0.0 0.0 .
1004(17) 0.0 0.0 .
1028(17) 0.0 0.0 .
1031(17) 0.0 0.0 .
1019(17) 0.0 0.0 .
1030(17) 0.0 0.0 .
1008(17) 0.0 0.0 .
1035(17) 0.0 0.0 .
1018(17) 0.0 0.0 .
986(17) 0.0 0.0 .
1055(18) 0.0 0.0 .
1073(18) 0.0 0.0 .
1048(17) 0.0 0.0 .
1016(17) 0.0 0.0 .
1011(17) 0.0 0.0 .
1000(17) 0.0 0.0 .
1043(18) 0.0 0.0 .
991(16) 0.0 0.0 .
997(16) 0.0 0.0 .
967(17) 0.0 0.0 .
1014(18) 0.0 0.0 .
1044(17) 0.0 0.0 .
1001(16) 0.0 0.0 .
1055(17) 0.0 0.0 .
1045(17) 0.0 0.0 .
1044(18) 0.0 0.0 .
1032(17) 0.0 0.0 .
998(16) 0.0 0.0 .
985(16) 0.0 0.0 .
974(17) 0.0 0.0 .
975(17) 0.0 0.0 .
954(17) 0.0 0.0 .
1027(17) 0.0 0.0 .
976(16) 0.0 0.0 .
1058(17) 0.0 0.0 .
974(17) 0.0 0.0 .
970(17) 0.0 0.0 .
997(16) 0.0 0.0 .
992(17) 0.0 0.0 .
998(17) 0.0 0.0 .
976(17) 0.0 0.0 .
986(17) 0.0 0.0 .
1013(16) 0.0 0.0 .
990(17) 0.0 0.0 .
1043(18) 0.0 0.0 .
963(17) 0.0 0.0 .
982(17) 0.0 0.0 .
975(16) 0.0 0.0 .
990(17) 0.0 0.0 .
1016(17) 0.0 0.0 .
963(17) 0.0 0.0 .
999(17) 0.0 0.0 .
987(16) 0.0 0.0 .
1040(17) 0.0 0.0 .
959(17) 0.0 0.0 .
986(17) 0.0 0.0 .
1010(17) 0.0 0.0 .
998(16) 0.0 0.0 .
1005(17) 0.0 0.0 .
962(17) 0.0 0.0 .
967(17) 0.0 0.0 .
952(16) 0.0 0.0 .
1021(17) 0.0 0.0 .
1003(17) 0.0 0.0 .
928(17) 0.0 0.0 .
947(17) 0.0 0.0 .
967(16) 0.0 0.0 .
993(16) 0.0 0.0 .
997(17) 0.0 0.0 .
956(17) 0.0 0.0 .
970(17) 0.0 0.0 .
967(16) 0.0 0.0 .
958(16) 0.0 0.0 .
1015(17) 0.0 0.0 .
973(17) 0.0 0.0 .
942(16) 0.0 0.0 .
985(16) 0.0 0.0 .
960(16) 0.0 0.0 .
961(17) 0.0 0.0 .
980(18) 0.0 0.0 .
971(17) 0.0 0.0 .
962(16) 0.0 0.0 .
962(16) 0.0 0.0 .
927(16) 0.0 0.0 .
1004(18) 0.0 0.0 .
932(16) 0.0 0.0 .
959(16) 0.0 0.0 .
964(16) 0.0 0.0 .
960(16) 0.0 0.0 .
981(17) 0.0 0.0 .
988(17) 0.0 0.0 .
1014(17) 0.0 0.0 .
954(16) 0.0 0.0 .
990(17) 0.0 0.0 .
948(17) 0.0 0.0 .
925(16) 0.0 0.0 .
946(16) 0.0 0.0 .
953(16) 0.0 0.0 .
933(16) 0.0 0.0 .
960(17) 0.0 0.0 .
989(17) 0.0 0.0 .
948(16) 0.0 0.0 .
931(16) 0.0 0.0 .
961(17) 0.0 0.0 .
913(16) 0.0 0.0 .
919(16) 0.0 0.0 .
935(16) 0.0 0.0 .
993(17) 0.0 0.0 .
953(17) 0.0 0.0 .
912(16) 0.0 0.0 .
915(16) 0.0 0.0 .
933(16) 0.0 0.0 .
928(16) 0.0 0.0 .
961(17) 0.0 0.0 .
970(17) 0.0 0.0 .
974(16) 0.0 0.0 .
986(16) 0.0 0.0 .
926(16) 0.0 0.0 .
940(17) 0.0 0.0 .
922(16) 0.0 0.0 .
941(16) 0.0 0.0 .
917(16) 0.0 0.0 .
959(17) 0.0 0.0 .
933(17) 0.0 0.0 .
941(16) 0.0 0.0 .
928(16) 0.0 0.0 .
909(16) 0.0 0.0 .
934(16) 0.0 0.0 .
929(17) 0.0 0.0 .
900(16) 0.0 0.0 .
944(16) 0.0 0.0 .
943(16) 0.0 0.0 .
947(16) 0.0 0.0 .
889(16) 0.0 0.0 .
876(16) 0.0 0.0 .
932(16) 0.0 0.0 .
888(16) 0.0 0.0 .
896(16) 0.0 0.0 .
930(17) 0.0 0.0 .
900(16) 0.0 0.0 .
951(16) 0.0 0.0 .
883(15) 0.0 0.0 .
932(16) 0.0 0.0 .
938(17) 0.0 0.0 .
923(17) 0.0 0.0 .
901(16) 0.0 0.0 .
888(16) 0.0 0.0 .
877(16) 0.0 0.0 .
888(16) 0.0 0.0 .
950(17) 0.0 0.0 .
927(16) 0.0 0.0 .
900(16) 0.0 0.0 .
959(17) 0.0 0.0 .
946(17) 0.0 0.0 .
922(16) 0.0 0.0 .
913(16) 0.0 0.0 .
917(16) 0.0 0.0 .
916(16) 0.0 0.0 .
936(16) 0.0 0.0 .
937(16) 0.0 0.0 .
891(15) 0.0 0.0 .
889(16) 0.0 0.0 .
893(16) 0.0 0.0 .
927(16) 0.0 0.0 .
894(16) 0.0 0.0 .
900(16) 0.0 0.0 .
899(16) 0.0 0.0 .
912(17) 0.0 0.0 .
903(16) 0.0 0.0 .
874(16) 0.0 0.0 .
870(15) 0.0 0.0 .
908(16) 0.0 0.0 .
910(17) 0.0 0.0 .
906(16) 0.0 0.0 .
857(15) 0.0 0.0 .
906(16) 0.0 0.0 .
932(17) 0.0 0.0 .
884(17) 0.0 0.0 .
916(16) 0.0 0.0 .
869(15) 0.0 0.0 .
869(15) 0.0 0.0 .
895(16) 0.0 0.0 .
854(16) 0.0 0.0 .
881(16) 0.0 0.0 .
932(16) 0.0 0.0 .
910(16) 0.0 0.0 .
893(16) 0.0 0.0 .
897(16) 0.0 0.0 .
861(15) 0.0 0.0 .
858(15) 0.0 0.0 .
890(16) 0.0 0.0 .
906(16) 0.0 0.0 .
876(16) 0.0 0.0 .
819(15) 0.0 0.0 .
813(15) 0.0 0.0 .
881(16) 0.0 0.0 .
900(16) 0.0 0.0 .
861(16) 0.0 0.0 .
842(15) 0.0 0.0 .
869(15) 0.0 0.0 .
892(16) 0.0 0.0 .
784(15) 0.0 0.0 .
866(16) 0.0 0.0 .
848(15) 0.0 0.0 .
848(15) 0.0 0.0 .
912(16) 0.0 0.0 .
874(16) 0.0 0.0 .
871(16) 0.0 0.0 .
822(15) 0.0 0.0 .
858(15) 0.0 0.0 .
877(16) 0.0 0.0 .
803(15) 0.0 0.0 .
853(16) 0.0 0.0 .
869(16) 0.0 0.0 .
875(15) 0.0 0.0 .
861(16) 0.0 0.0 .
850(16) 0.0 0.0 .
879(16) 0.0 0.0 .
912(16) 0.0 0.0 .
832(15) 0.0 0.0 .
886(16) 0.0 0.0 .
834(16) 0.0 0.0 .
829(16) 0.0 0.0 .
827(15) 0.0 0.0 .
836(15) 0.0 0.0 .
844(16) 0.0 0.0 .
815(16) 0.0 0.0 .
858(16) 0.0 0.0 .
828(15) 0.0 0.0 .
857(15) 0.0 0.0 .
840(15) 0.0 0.0 .
809(16) 0.0 0.0 .
810(15) 0.0 0.0 .
855(15) 0.0 0.0 .
828(15) 0.0 0.0 .
817(15) 0.0 0.0 .
846(16) 0.0 0.0 .
840(16) 0.0 0.0 .
817(15) 0.0 0.0 .
847(15) 0.0 0.0 .
849(15) 0.0 0.0 .
816(16) 0.0 0.0 .
808(15) 0.0 0.0 .
863(15) 0.0 0.0 .
848(15) 0.0 0.0 .
837(16) 0.0 0.0 .
806(16) 0.0 0.0 .
824(16) 0.0 0.0 .
856(15) 0.0 0.0 .
805(15) 0.0 0.0 .
852(16) 0.0 0.0 .
864(16) 0.0 0.0 .
828(15) 0.0 0.0 .
859(15) 0.0 0.0 .
820(15) 0.0 0.0 .
842(16) 0.0 0.0 .
799(15) 0.0 0.0 .
821(15) 0.0 0.0 .
821(15) 0.0 0.0 .
830(15) 0.0 0.0 .
804(15) 0.0 0.0 .
869(16) 0.0 0.0 .
825(15) 0.0 0.0 .
841(15) 0.0 0.0 .
803(15) 0.0 0.0 .
811(16) 0.0 0.0 .
814(16) 0.0 0.0 .
796(15) 0.0 0.0 .
813(15) 0.0 0.0 .
833(15) 0.0 0.0 .
868(16) 0.0 0.0 .
776(15) 0.0 0.0 .
806(15) 0.0 0.0 .
792(15) 0.0 0.0 .
782(15) 0.0 0.0 .
807(16) 0.0 0.0 .
826(15) 0.0 0.0 .
800(15) 0.0 0.0 .
805(15) 0.0 0.0 .
825(16) 0.0 0.0 .
817(16) 0.0 0.0 .
842(16) 0.0 0.0 .
842(15) 0.0 0.0 .
801(15) 0.0 0.0 .
805(15) 0.0 0.0 .
828(16) 0.0 0.0 .
815(15) 0.0 0.0 .
875(15) 0.0 0.0 .
817(15) 0.0 0.0 .
807(15) 0.0 0.0 .
827(16) 0.0 0.0 .
804(15) 0.0 0.0 .
738(14) 0.0 0.0 .
792(15) 0.0 0.0 .
815(15) 0.0 0.0 .
849(16) 0.0 0.0 .
785(15) 0.0 0.0 .
819(15) 0.0 0.0 .
823(15) 0.0 0.0 .
808(15) 0.0 0.0 .
803(15) 0.0 0.0 .
805(15) 0.0 0.0 .
817(15) 0.0 0.0 .
807(15) 0.0 0.0 .
845(16) 0.0 0.0 .
853(16) 0.0 0.0 .
835(15) 0.0 0.0 .
783(15) 0.0 0.0 .
756(15) 0.0 0.0 .
803(15) 0.0 0.0 .
791(15) 0.0 0.0 .
793(15) 0.0 0.0 .
774(14) 0.0 0.0 .
808(15) 0.0 0.0 .
780(15) 0.0 0.0 .
816(15) 0.0 0.0 .
813(15) 0.0 0.0 .
773(14) 0.0 0.0 .
846(16) 0.0 0.0 .
826(16) 0.0 0.0 .
815(15) 0.0 0.0 .
752(14) 0.0 0.0 .
780(14) 0.0 0.0 .
803(15) 0.0 0.0 .
803(16) 0.0 0.0 .
800(15) 0.0 0.0 .
769(15) 0.0 0.0 .
774(14) 0.0 0.0 .
778(15) 0.0 0.0 .
776(16) 0.0 0.0 .
773(15) 0.0 0.0 .
772(14) 0.0 0.0 .
779(15) 0.0 0.0 .
792(15) 0.0 0.0 .
785(16) 0.0 0.0 .
753(15) 0.0 0.0 .
731(14) 0.0 0.0 .
733(14) 0.0 0.0 .
768(15) 0.0 0.0 .
762(15) 0.0 0.0 .
755(15) 0.0 0.0 .
744(14) 0.0 0.0 .
794(15) 0.0 0.0 .
759(15) 0.0 0.0 .
758(15) 0.0 0.0 .
794(15) 0.0 0.0 .
755(14) 0.0 0.0 .
779(15) 0.0 0.0 .
773(15) 0.0 0.0 .
767(15) 0.0 0.0 .
791(15) 0.0 0.0 .
798(15) 0.0 0.0 .
786(15) 0.0 0.0 .
795(15) 0.0 0.0 .
766(15) 0.0 0.0 .
745(14) 0.0 0.0 .
795(15) 0.0 0.0 .
724(14) 0.0 0.0 .
779(15) 0.0 0.0 .
744(15) 0.0 0.0 .
756(15) 0.0 0.0 .
728(14) 0.0 0.0 .
749(15) 0.0 0.0 .
796(15) 0.0 0.0 .
777(15) 0.0 0.0 .
773(15) 0.0 0.0 .
774(14) 0.0 0.0 .
777(15) 0.0 0.0 .
754(15) 0.0 0.0 .
761(15) 0.0 0.0 .
750(14) 0.0 0.0 .
785(14) 0.0 0.0 .
766(15) 0.0 0.0 .
769(15) 0.0 0.0 .
793(15) 0.0 0.0 .
771(14) 0.0 0.0 .
742(14) 0.0 0.0 .
737(14) 0.0 0.0 .
778(16) 0.0 0.0 .
747(15) 0.0 0.0 .
752(14) 0.0 0.0 .
758(14) 0.0 0.0 .
743(15) 0.0 0.0 .
755(15) 0.0 0.0 .
762(15) 0.0 0.0 .
769(14) 0.0 0.0 .
757(14) 0.0 0.0 .
767(15) 0.0 0.0 .
741(15) 0.0 0.0 .
743(15) 0.0 0.0 .
786(15) 0.0 0.0 .
727(14) 0.0 0.0 .
753(15) 0.0 0.0 .
760(15) 0.0 0.0 .
741(15) 0.0 0.0 .
778(14) 0.0 0.0 .
763(15) 0.0 0.0 .
777(15) 0.0 0.0 .
762(15) 0.0 0.0 .
770(15) 0.0 0.0 .
741(14) 0.0 0.0 .
704(14) 0.0 0.0 .
772(15) 0.0 0.0 .
769(15) 0.0 0.0 .
760(15) 0.0 0.0 .
721(14) 0.0 0.0 .
733(15) 0.0 0.0 .
685(14) 0.0 0.0 .
745(15) 0.0 0.0 .
756(15) 0.0 0.0 .
774(14) 0.0 0.0 .
743(15) 0.0 0.0 .
733(15) 0.0 0.0 .
774(15) 0.0 0.0 .
722(14) 0.0 0.0 .
734(14) 0.0 0.0 .
769(15) 0.0 0.0 .
768(15) 0.0 0.0 .
751(15) 0.0 0.0 .
721(14) 0.0 0.0 .
755(14) 0.0 0.0 .
773(15) 0.0 0.0 .
732(15) 0.0 0.0 .
699(14) 0.0 0.0 .
755(14) 0.0 0.0 .
755(14) 0.0 0.0 .
709(14) 0.0 0.0 .
724(15) 0.0 0.0 .
756(15) 0.0 0.0 .
745(14) 0.0 0.0 .
717(14) 0.0 0.0 .
751(15) 0.0 0.0 .
754(15) 0.0 0.0 .
741(15) 0.0 0.0 .
729(14) 0.0 0.0 .
729(14) 0.0 0.0 .
711(14) 0.0 0.0 .
737(15) 0.0 0.0 .
700(14) 0.0 0.0 .
705(14) 0.0 0.0 .
706(14) 0.0 0.0 .
730(14) 0.0 0.0 .
759(15) 0.0 0.0 .
761(15) 0.0 0.0 .
758(14) 0.0 0.0 .
720(14) 0.0 0.0 .
765(15) 0.0 0.0 .
741(15) 0.0 0.0 .
718(14) 0.0 0.0 .
734(14) 0.0 0.0 .
711(14) 0.0 0.0 .
751(15) 0.0 0.0 .
720(15) 0.0 0.0 .
725(14) 0.0 0.0 .
732(14) 0.0 0.0 .
710(14) 0.0 0.0 .
755(15) 0.0 0.0 .
757(15) 0.0 0.0 .
713(14) 0.0 0.0 .
731(14) 0.0 0.0 .
685(14) 0.0 0.0 .
743(15) 0.0 0.0 .
747(15) 0.0 0.0 .
714(14) 0.0 0.0 .
703(14) 0.0 0.0 .
713(14) 0.0 0.0 .
690(14) 0.0 0.0 .
726(14) 0.0 0.0 .
722(14) 0.0 0.0 .
730(14) 0.0 0.0 .
702(14) 0.0 0.0 .
727(15) 0.0 0.0 .
695(14) 0.0 0.0 .
709(14) 0.0 0.0 .
703(14) 0.0 0.0 .
691(14) 0.0 0.0 .
754(15) 0.0 0.0 .
662(14) 0.0 0.0 .
744(14) 0.0 0.0 .
711(14) 0.0 0.0 .
727(14) 0.0 0.0 .
734(15) 0.0 0.0 .
692(14) 0.0 0.0 .
740(14) 0.0 0.0 .
725(14) 0.0 0.0 .
745(15) 0.0 0.0 .
712(15) 0.0 0.0 .
710(14) 0.0 0.0 .
742(14) 0.0 0.0 .
715(14) 0.0 0.0 .
671(14) 0.0 0.0 .
672(14) 0.0 0.0 .
717(14) 0.0 0.0 .
721(14) 0.0 0.0 .
707(14) 0.0 0.0 .
714(14) 0.0 0.0 .
712(15) 0.0 0.0 .
702(14) 0.0 0.0 .
717(14) 0.0 0.0 .
740(14) 0.0 0.0 .
735(15) 0.0 0.0 .
696(14) 0.0 0.0 .
750(15) 0.0 0.0 .
712(14) 0.0 0.0 .
680(14) 0.0 0.0 .
732(15) 0.0 0.0 .
734(15) 0.0 0.0 .
717(14) 0.0 0.0 .
748(14) 0.0 0.0 .
744(15) 0.0 0.0 .
728(15) 0.0 0.0 .
694(14) 0.0 0.0 .
764(15) 0.0 0.0 .
704(14) 0.0 0.0 .
682(14) 0.0 0.0 .
724(15) 0.0 0.0 .
725(14) 0.0 0.0 .
737(14) 0.0 0.0 .
714(14) 0.0 0.0 .
712(14) 0.0 0.0 .
685(14) 0.0 0.0 .
730(15) 0.0 0.0 .
698(14) 0.0 0.0 .
734(14) 0.0 0.0 .
701(14) 0.0 0.0 .
688(14) 0.0 0.0 .
715(14) 0.0 0.0 .
650(13) 0.0 0.0 .
709(14) 0.0 0.0 .
693(14) 0.0 0.0 .
707(15) 0.0 0.0 .
711(14) 0.0 0.0 .
758(14) 0.0 0.0 .
718(14) 0.0 0.0 .
752(15) 0.0 0.0 .
693(15) 0.0 0.0 .
689(14) 0.0 0.0 .
695(14) 0.0 0.0 .
697(14) 0.0 0.0 .
702(14) 0.0 0.0 .
684(14) 0.0 0.0 .
721(14) 0.0 0.0 .
704(14) 0.0 0.0 .
712(14) 0.0 0.0 .
716(15) 0.0 0.0 .
709(15) 0.0 0.0 .
700(14) 0.0 0.0 .
727(14) 0.0 0.0 .
675(14) 0.0 0.0 .
675(14) 0.0 0.0 .
689(14) 0.0 0.0 .
679(14) 0.0 0.0 .
691(14) 0.0 0.0 .
713(14) 0.0 0.0 .
753(15) 0.0 0.0 .
684(14) 0.0 0.0 .
682(14) 0.0 0.0 .
732(14) 0.0 0.0 .
728(14) 0.0 0.0 .
724(15) 0.0 0.0 .
735(15) 0.0 0.0 .
695(14) 0.0 0.0 .
694(14) 0.0 0.0 .
707(14) 0.0 0.0 .
698(14) 0.0 0.0 .
707(14) 0.0 0.0 .
700(14) 0.0 0.0 .
692(14) 0.0 0.0 .
719(14) 0.0 0.0 .
701(15) 0.0 0.0 .
697(14) 0.0 0.0 .
731(14) 0.0 0.0 .
683(14) 0.0 0.0 .
705(14) 0.0 0.0 .
682(15) 0.0 0.0 .
736(15) 0.0 0.0 .
679(14) 0.0 0.0 .
708(14) 0.0 0.0 .
705(14) 0.0 0.0 .
697(15) 0.0 0.0 .
674(14) 0.0 0.0 .
663(14) 0.0 0.0 .
717(14) 0.0 0.0 .
713(14) 0.0 0.0 .
703(15) 0.0 0.0 .
709(14) 0.0 0.0 .
734(14) 0.0 0.0 .
708(14) 0.0 0.0 .
713(14) 0.0 0.0 .
682(14) 0.0 0.0 .
659(14) 0.0 0.0 .
692(14) 0.0 0.0 .
693(14) 0.0 0.0 .
737(15) 0.0 0.0 .
706(15) 0.0 0.0 .
703(14) 0.0 0.0 .
724(14) 0.0 0.0 .
756(15) 0.0 0.0 .
709(14) 0.0 0.0 .
706(14) 0.0 0.0 .
731(15) 0.0 0.0 .
694(14) 0.0 0.0 .
690(14) 0.0 0.0 .
708(15) 0.0 0.0 .
731(15) 0.0 0.0 .
719(14) 0.0 0.0 .
740(14) 0.0 0.0 .
706(14) 0.0 0.0 .
733(15) 0.0 0.0 .
654(14) 0.0 0.0 .
709(14) 0.0 0.0 .
750(14) 0.0 0.0 .
709(14) 0.0 0.0 .
705(15) 0.0 0.0 .
710(14) 0.0 0.0 .
724(14) 0.0 0.0 .
746(14) 0.0 0.0 .
745(15) 0.0 0.0 .
738(15) 0.0 0.0 .
734(15) 0.0 0.0 .
716(14) 0.0 0.0 .
732(14) 0.0 0.0 .
683(14) 0.0 0.0 .
708(15) 0.0 0.0 .
715(14) 0.0 0.0 .
720(14) 0.0 0.0 .
739(14) 0.0 0.0 .
721(14) 0.0 0.0 .
727(15) 0.0 0.0 .
719(14) 0.0 0.0 .
729(14) 0.0 0.0 .
749(14) 0.0 0.0 .
748(15) 0.0 0.0 .
737(15) 0.0 0.0 .
708(14) 0.0 0.0 .
759(14) 0.0 0.0 .
758(14) 0.0 0.0 .
770(15) 0.0 0.0 .
749(15) 0.0 0.0 .
735(14) 0.0 0.0 .
743(14) 0.0 0.0 .
753(14) 0.0 0.0 .
772(15) 0.0 0.0 .
754(15) 0.0 0.0 .
775(15) 0.0 0.0 .
744(14) 0.0 0.0 .
749(15) 0.0 0.0 .
749(15) 0.0 0.0 .
730(15) 0.0 0.0 .
780(15) 0.0 0.0 .
783(14) 0.0 0.0 .
778(15) 0.0 0.0 .
771(15) 0.0 0.0 .
811(15) 0.0 0.0 .
805(15) 0.0 0.0 .
789(15) 0.0 0.0 .
777(15) 0.0 0.0 .
833(16) 0.0 0.0 .
792(15) 0.0 0.0 .
840(15) 0.0 0.0 .
814(15) 0.0 0.0 .
814(15) 0.0 0.0 .
854(16) 0.0 0.0 .
880(16) 0.0 0.0 .
857(15) 0.0 0.0 .
883(15) 0.0 0.0 .
883(16) 0.0 0.0 .
911(17) 0.0 0.0 .
918(16) 0.0 0.0 .
914(16) 0.0 0.0 .
991(16) 0.0 0.0 .
1000(17) 0.0 0.0 .
1040(18) 0.0 0.0 .
1130(18) 0.0 0.0 .
1111(17) 0.0 0.0 .
1162(18) 0.0 0.0 .
1197(18) 0.0 0.0 .
1237(19) 0.0 0.0 .
1284(19) 0.0 0.0 .
1344(19) 0.0 0.0 .
1373(19) 0.0 0.0 .
1405(20) 0.0 0.0 .
1510(22) 0.0 0.0 .
1569(21) 0.0 0.0 .
1563(20) 0.0 0.0 .
1740(22) 0.0 0.0 .
1796(23) 0.0 0.0 .
1875(24) 0.0 0.0 .
1981(24) 0.0 0.0 .
2119(24) 0.0 0.0 .
2328(25) 0.0 0.0 .
2565(27) 0.0 0.0 .
2872(30) 0.0 0.0 .
3243(31) 0.0 0.0 .
3825(32) 0.0 0.0 .
4404(35) 0.0 0.0 .
5166(39) 0.0 0. .
5909(42) 0.0 0. .
6887(45) 0.0 0. .
7976(47) 0.0 0. .
9087(50) 0.0 0. .
10192(54) 0.0 0. .
11489(59) 0.0 0. .
12773(61) 0.0 0. .
14005(62) 0.0 0. .
15090(66) 0.0 0. .
16795(71) 0.0 0. .
18856(76) 0.0 0. .
20551(78) 0.0 0. .
22989(80) 0.0 0. .
26060(88) 0.0 0. .
29259(95) 0.0 0. .
33120(100) 0.0 0. .
36880(110) 0.0 0. .
39810(110) 0.0 0. .
39640(110) 0.0 0. .
35940(110) 0.0 0. .
30584(96) 0.0 0. .
25389(85) 0.0 0. .
20936(76) 0.0 0. .
17178(72) 0.0 0. .
14450(67) 0.0 0. .
12126(59) 0.0 0. .
10073(53) 0.0 0. .
8562(48) 0.0 0. .
7413(47) 0.0 0. .
6440(44) 0.0 0. .
5499(40) 0.0 0. .
4963(37) 0.0 0. .
4366(34) 0.0 0.0 .
3911(34) 0.0 0.0 .
3462(33) 0.0 0.0 .
3047(29) 0.0 0.0 .
2755(27) 0.0 0.0 .
2564(26) 0.0 0.0 .
2359(26) 0.0 0.0 .
2137(26) 0.0 0.0 .
2027(24) 0.0 0.0 .
1915(23) 0.0 0.0 .
1756(22) 0.0 0.0 .
1640(22) 0.0 0.0 .
1574(22) 0.0 0.0 .
1517(21) 0.0 0.0 .
1435(20) 0.0 0.0 .
1377(19) 0.0 0.0 .
1316(20) 0.0 0.0 .
1304(20) 0.0 0.0 .
1215(19) 0.0 0.0 .
1173(18) 0.0 0.0 .
1104(18) 0.0 0.0 .
1051(18) 0.0 0.0 .
1048(18) 0.0 0.0 .
1046(17) 0.0 0.0 .
986(16) 0.0 0.0 .
1018(17) 0.0 0.0 .
966(17) 0.0 0.0 .
965(17) 0.0 0.0 .
938(16) 0.0 0.0 .
881(15) 0.0 0.0 .
914(16) 0.0 0.0 .
882(16) 0.0 0.0 .
905(16) 0.0 0.0 .
840(15) 0.0 0.0 .
864(15) 0.0 0.0 .
836(16) 0.0 0.0 .
795(15) 0.0 0.0 .
795(15) 0.0 0.0 .
809(15) 0.0 0.0 .
782(14) 0.0 0.0 .
797(15) 0.0 0.0 .
805(16) 0.0 0.0 .
765(15) 0.0 0.0 .
776(15) 0.0 0.0 .
774(14) 0.0 0.0 .
775(15) 0.0 0.0 .
788(16) 0.0 0.0 .
773(15) 0.0 0.0 .
776(14) 0.0 0.0 .
745(14) 0.0 0.0 .
769(15) 0.0 0.0 .
756(15) 0.0 0.0 .
758(15) 0.0 0.0 .
774(14) 0.0 0.0 .
731(14) 0.0 0.0 .
701(14) 0.0 0.0 .
708(15) 0.0 0.0 .
724(14) 0.0 0.0 .
701(14) 0.0 0.0 .
706(14) 0.0 0.0 .
687(14) 0.0 0.0 .
690(15) 0.0 0.0 .
640(14) 0.0 0.0 .
682(14) 0.0 0.0 .
725(14) 0.0 0.0 .
733(15) 0.0 0.0 .
700(14) 0.0 0.0 .
710(14) 0.0 0.0 .
740(14) 0.0 0.0 .
673(14) 0.0 0.0 .
712(14) 0.0 0.0 .
671(14) 0.0 0.0 .
682(14) 0.0 0.0 .
675(13) 0.0 0.0 .
719(14) 0.0 0.0 .
687(14) 0.0 0.0 .
679(14) 0.0 0.0 .
684(14) 0.0 0.0 .
696(14) 0.0 0.0 .
671(14) 0.0 0.0 .
701(14) 0.0 0.0 .
705(14) 0.0 0.0 .
691(14) 0.0 0.0 .
667(13) 0.0 0.0 .
695(14) 0.0 0.0 .
711(14) 0.0 0.0 .
659(14) 0.0 0.0 .
660(13) 0.0 0.0 .
654(13) 0.0 0.0 .
635(14) 0.0 0.0 .
661(14) 0.0 0.0 .
654(14) 0.0 0.0 .
657(13) 0.0 0.0 .
651(13) 0.0 0.0 .
623(13) 0.0 0.0 .
629(14) 0.0 0.0 .
670(14) 0.0 0.0 .
679(14) 0.0 0.0 .
664(13) 0.0 0.0 .
682(14) 0.0 0.0 .
647(14) 0.0 0.0 .
677(14) 0.0 0.0 .
640(13) 0.0 0.0 .
661(13) 0.0 0.0 .
627(13) 0.0 0.0 .
666(14) 0.0 0.0 .
630(13) 0.0 0.0 .
661(13) 0.0 0.0 .
664(14) 0.0 0.0 .
654(14) 0.0 0.0 .
629(14) 0.0 0.0 .
647(14) 0.0 0.0 .
669(13) 0.0 0.0 .
680(14) 0.0 0.0 .
651(14) 0.0 0.0 .
651(14) 0.0 0.0 .
626(13) 0.0 0.0 .
624(13) 0.0 0.0 .
664(13) 0.0 0.0 .
657(14) 0.0 0.0 .
642(14) 0.0 0.0 .
640(14) 0.00505 634.5 38.7
647(13) 0.00545 634.5 38.1
672(14) 0.00512 634.5 37.6
652(14) 0.00516 634.1 37.1
620(13) 0.00543 633.7 36.5
667(14) 0.00502 633.3 36.0
640(13) 0.00556 632.9 35.5
669(14) 0.00505 632.5 35.0
650(14) 0.00499 632.1 34.6
637(13) 0.00524 631.7 34.1
649(13) 0.00528 631.3 33.6
628(13) 0.00560 630.9 33.2
653(14) 0.00520 630.5 32.8
631(14) 0.00514 630.1 32.3
618(13) 0.00540 629.6 31.9
633(13) 0.00536 629.2 31.5
701(14) 0.00505 628.8 31.1
630(14) 0.00523 628.4 30.7
631(14) 0.00493 628.0 30.3
612(13) 0.00538 627.6 29.9
616(13) 0.00560 627.2 29.5
627(13) 0.00569 626.8 29.2
628(14) 0.00522 626.4 28.8
584(13) 0.00548 626.0 28.4
638(14) 0.00520 625.6 28.1
649(13) 0.00541 625.2 27.8
628(13) 0.00566 624.8 27.4
620(13) 0.00539 624.4 27.1
630(14) 0.00497 623.9 26.8
646(14) 0.00517 623.5 26.5
624(13) 0.00567 623.1 26.1
603(13) 0.00578 622.7 25.8
582(13) 0.00574 622.3 25.5
638(14) 0.00486 621.9 25.2
645(14) 0.00512 621.5 25.0
633(13) 0.00556 621.1 24.7
606(13) 0.00585 620.7 24.4
610(13) 0.00537 620.3 24.1
621(14) 0.00496 619.9 23.9
629(13) 0.00532 619.5 23.6
629(13) 0.00563 619.1 23.3
627(13) 0.00548 618.6 23.1
635(14) 0.00510 618.2 22.8
609(13) 0.00524 617.8 22.6
621(13) 0.00524 617.4 22.3
595(13) 0.00596 617.0 22.1
609(13) 0.00571 616.6 21.9
618(13) 0.00537 616.2 21.6
621(14) 0.00514 615.8 21.4
630(14) 0.00515 615.4 21.2
598(13) 0.00589 615.0 21.0
583(13) 0.00587 614.6 20.7
604(13) 0.00538 614.2 20.5
613(13) 0.00532 613.8 20.3
643(14) 0.00511 613.3 20.1
584(13) 0.00600 612.9 19.9
619(13) 0.00552 612.5 19.7
619(13) 0.00526 612.1 19.5
595(13) 0.00538 611.7 19.3
616(13) 0.00542 611.3 19.1
642(13) 0.00553 610.9 19.0
597(13) 0.00568 610.5 18.8
610(13) 0.00535 610.1 18.6
591(13) 0.00555 609.7 18.4
604(13) 0.00568 609.3 18.2
599(13) 0.00587 608.9 18.1
620(14) 0.00519 608.5 17.9
620(14) 0.00505 608.1 17.7
627(13) 0.00536 607.6 17.6
600(13) 0.00575 607.2 17.4
601(13) 0.00587 606.8 17.2
621(13) 0.00530 606.4 17.1
588(13) 0.00541 606.0 16.9
635(14) 0.00516 605.6 16.8
612(13) 0.00568 605.2 16.6
603(13) 0.00586 604.8 16.5
610(13) 0.00533 604.4 16.3
593(14) 0.00519 604.0 16.2
588(13) 0.00567 603.6 16.1
586(13) 0.00591 603.2 15.9
598(13) 0.00588 602.8 15.8
598(13) 0.00554 602.3 15.7
615(14) 0.00506 601.9 15.5
600(13) 0.00554 601.5 15.4
592(13) 0.00592 601.1 15.3
612(13) 0.00574 600.7 15.1
591(13) 0.00555 600.3 15.0
559(13) 0.00567 599.9 14.9
609(13) 0.00546 599.5 14.8
594(13) 0.00600 599.1 14.6
612(13) 0.00557 598.7 14.5
589(13) 0.00572 598.3 14.4
603(13) 0.00533 597.9 14.3
609(13) 0.00549 597.5 14.2
591(13) 0.00601 597.1 14.1
615(13) 0.00561 596.6 14.0
589(13) 0.00579 596.2 13.9
596(13) 0.00523 595.8 13.8
574(13) 0.00577 595.4 13.7
599(13) 0.00592 595.0 13.6
621(13) 0.00542 594.6 13.5
598(13) 0.00554 594.2 13.4
583(13) 0.00566 593.8 13.3
580(13) 0.00578 593.4 13.2
571(12) 0.00611 593.0 13.1
585(13) 0.00579 592.6 13.0
606(14) 0.00519 592.2 12.9
570(13) 0.00567 591.8 12.8
591(13) 0.00571 591.3 12.7
559(12) 0.00629 590.9 12.6
572(13) 0.00576 590.5 12.5
583(13) 0.00547 590.1 12.4
586(13) 0.00551 589.7 12.4
589(13) 0.00575 589.3 12.3
573(12) 0.00612 588.9 12.2
615(13) 0.00534 588.5 12.1
627(14) 0.00514 588.1 12.0
615(13) 0.00537 587.7 12.0
565(12) 0.00621 587.3 11.9
582(13) 0.00605 586.9 11.8
562(13) 0.00596 586.5 11.7
598(13) 0.00525 586.0 11.7
599(13) 0.00556 585.6 11.6
582(13) 0.00597 585.2 11.5
613(13) 0.00576 584.8 11.5
555(13) 0.00567 584.4 11.4
548(13) 0.00564 584.0 11.3
574(13) 0.00575 583.6 11.3
562(12) 0.00617 583.2 11.2
592(13) 0.00596 582.8 11.1
606(13) 0.00554 582.4 11.1
586(13) 0.00535 582.0 11.0
591(13) 0.00562 581.6 11.0
625(13) 0.00555 581.2 10.9
605(13) 0.00580 580.8 10.9
559(13) 0.00590 580.3 10.8
551(13) 0.00548 579.9 10.8
546(12) 0.00612 579.5 10.7
593(13) 0.00597 579.1 10.6
564(12) 0.00627 578.7 10.6
588(13) 0.00547 578.3 10.6
571(13) 0.00540 578.1 10.5
577(13) 0.00565 578.0 10.5
597(13) 0.00586 577.9 10.4
601(13) 0.00573 577.8 10.4
602(13) 0.00542 577.7 10.3
602(13) 0.00527 577.6 10.3
590(13) 0.00561 577.5 10.3
589(13) 0.00600 577.4 10.2
607(13) 0.00558 577.2 10.2
587(13) 0.00554 577.1 10.1
555(13) 0.00581 577.0 10.1
574(13) 0.00575 576.9 10.1
600(13) 0.00586 576.8 10.1
579(13) 0.00582 576.7 10.0
605(13) 0.00536 576.6 10.0
593(13) 0.00548 576.5 10.0
570(13) 0.00585 576.3 9.9
573(12) 0.00611 576.2 9.9
553(12) 0.00616 576.1 9.9
609(13) 0.00548 576.0 9.9
599(13) 0.00556 575.9 9.9
584(13) 0.00588 575.8 9.9
582(13) 0.00603 575.7 9.8
578(13) 0.00560 575.6 9.8
590(13) 0.00548 575.4 9.8
576(13) 0.00572 575.3 9.8
543(12) 0.00634 575.2 9.8
551(12) 0.00640 575.1 9.8
551(12) 0.00606 575.0 9.8
580(13) 0.00561 574.9 9.8
592(13) 0.00560 574.8 9.8
573(13) 0.00594 574.7 9.8
559(12) 0.00625 574.5 9.8
549(12) 0.00616 574.4 9.8
612(14) 0.00508 574.3 9.8
578(13) 0.00571 574.2 9.8
558(12) 0.00619 574.1 9.9
603(13) 0.00586 574.0 9.9
609(13) 0.00531 573.9 9.9
578(13) 0.00527 573.8 9.9
596(13) 0.00552 573.6 10.0
570(12) 0.00617 573.5 10.0
612(13) 0.00574 573.4 10.0
603(13) 0.00546 573.3 10.1
550(13) 0.00573 573.2 10.1
586(13) 0.00559 573.1 10.2
563(12) 0.00621 573.0 10.2
597(13) 0.00580 572.9 10.3
565(13) 0.00579 572.7 10.3
585(13) 0.00529 572.6 10.4
578(13) 0.00583 572.5 10.5
557(12) 0.00634 572.4 10.6
556(12) 0.00620 572.3 10.7
557(13) 0.00595 572.2 10.7
574(13) 0.00543 572.1 10.8
549(13) 0.00590 572.0 10.9
548(12) 0.00639 571.8 11.1
597(13) 0.00572 571.7 11.2
569(13) 0.00575 571.6 11.3
573(13) 0.00564 571.5 11.5
577(13) 0.00572 571.4 11.6
612(13) 0.00576 571.3 11.8
589(13) 0.00580 571.2 11.9
591(13) 0.00551 571.1 12.1
544(12) 0.00611 570.9 12.3
575(13) 0.00583 570.8 12.5
582(12) 0.00605 570.7 12.8
572(13) 0.00577 570.6 13.0
584(13) 0.00569 570.5 13.3
600(13) 0.00554 570.4 13.6
582(13) 0.00572 570.3 13.9
577(12) 0.00608 570.1 14.2
553(13) 0.00603 570.0 14.5
558(13) 0.00579 569.9 14.9
564(13) 0.00575 569.8 15.3
585(13) 0.00585 569.7 15.8
593(13) 0.00587 569.6 16.2
577(13) 0.00576 569.5 16.8
597(13) 0.00533 569.4 17.3
599(13) 0.00549 569.2 17.9
603(13) 0.00562 569.1 18.6
613(13) 0.00576 569.0 19.3
579(13) 0.00572 568.9 20.1
557(13) 0.00564 568.8 21.0
586(13) 0.00581 568.7 21.9
618(13) 0.00558 568.6 23.0
589(13) 0.00600 568.5 24.2
606(13) 0.00548 568.3 25.5
593(13) 0.00533 568.2 26.9
642(14) 0.00505 568.1 28.6
667(13) 0.00525 568.0 30.5
648(13) 0.00543 567.9 32.7
617(13) 0.00530 567.8 35.2
630(14) 0.00479 567.7 38.2
653(14) 0.00505 567.6 41.6
628(13) 0.00557 567.4 45.7
623(13) 0.00567 567.3 50.4
663(14) 0.00487 567.2 56.0
675(14) 0.00464 567.1 62.6
687(14) 0.00496 567.0 70.3
670(13) 0.00528 566.9 79.3
653(13) 0.00530 566.8 89.7
668(14) 0.00494 566.7 101.6
713(15) 0.00449 566.5 115.1
720(14) 0.00470 566.4 130.2
708(14) 0.00505 566.3 146.9
723(14) 0.00470 566.2 165.1
703(14) 0.00472 566.1 184.4
753(15) 0.00419 566.0 204.5
751(15) 0.00440 565.9 224.4
785(15) 0.00452 565.8 243.1
711(14) 0.00494 565.6 259.4
749(15) 0.00437 565.5 271.8
762(15) 0.00422 565.4 278.9
783(15) 0.00418 565.3 280.0
786(15) 0.00452 565.2 274.7
800(15) 0.00426 565.1 263.9
752(15) 0.00441 565.0 248.7
736(15) 0.00453 564.9 230.6
756(15) 0.00444 564.7 210.8
709(14) 0.00502 564.6 190.7
688(14) 0.00481 564.5 171.1
661(14) 0.00488 564.4 152.4
632(14) 0.00520 564.3 135.1
595(13) 0.00570 564.2 119.4
603(13) 0.00579 564.1 105.3
612(13) 0.00536 564.0 92.9
620(14) 0.00514 563.8 81.9
591(13) 0.00536 563.7 72.5
603(13) 0.00564 563.6 64.3
604(13) 0.00589 563.5 57.3
623(13) 0.00535 563.4 51.3
598(13) 0.00535 563.3 46.3
584(13) 0.00575 563.2 41.9
549(12) 0.00636 563.1 38.3
635(13) 0.00549 562.9 35.1
570(13) 0.00574 562.8 32.4
579(13) 0.00527 562.7 30.1
613(13) 0.00532 562.6 28.0
595(13) 0.00588 562.5 26.2
535(12) 0.00654 562.4 24.7
554(12) 0.00616 562.3 23.3
593(14) 0.00517 562.2 22.0
558(13) 0.00603 562.0 20.8
598(13) 0.00586 561.9 19.8
570(12) 0.00609 561.8 18.9
541(12) 0.00619 561.7 18.0
564(13) 0.00548 561.6 17.2
556(12) 0.00607 561.5 16.5
586(13) 0.00602 561.4 15.8
578(13) 0.00601 561.3 15.2
610(13) 0.00525 561.1 14.6
573(13) 0.00532 561.0 14.1
577(13) 0.00568 560.9 13.6
554(12) 0.00628 560.8 13.1
553(12) 0.00620 560.7 12.6
563(13) 0.00561 560.6 12.2
546(13) 0.00567 560.5 11.8
558(13) 0.00589 560.4 11.5
566(12) 0.00615 560.2 11.1
556(12) 0.00623 560.1 10.8
580(13) 0.00565 560.0 10.5
561(13) 0.00578 559.9 10.2
576(13) 0.00575 559.8 10.0
560(12) 0.00628 559.7 9.7
579(13) 0.00585 559.6 9.5
599(13) 0.00553 559.4 9.2
577(13) 0.00560 559.3 9.0
565(13) 0.00590 559.2 8.8
583(13) 0.00603 559.1 8.6
549(12) 0.00615 559.0 8.4
575(13) 0.00551 558.9 8.3
540(13) 0.00600 558.8 8.1
554(13) 0.00594 558.7 7.9
531(12) 0.00669 558.5 7.8
550(13) 0.00591 558.4 7.6
577(13) 0.00548 558.3 7.5
552(12) 0.00612 558.2 7.3
564(12) 0.00613 558.1 7.2
583(13) 0.00599 558.0 7.1
587(13) 0.00553 557.9 7.0
564(13) 0.00552 557.8 6.8
528(12) 0.00614 557.6 6.7
557(12) 0.00627 557.5 6.6
542(12) 0.00648 557.4 6.5
528(12) 0.00629 557.3 6.4
581(13) 0.00529 557.2 6.3
578(13) 0.00565 557.1 6.2
553(12) 0.00625 557.0 6.1
532(12) 0.00655 556.9 6.0
565(13) 0.00583 556.7 6.0
575(14) 0.00522 556.6 5.9
567(13) 0.00580 556.5 5.8
560(12) 0.00623 556.4 5.7
537(12) 0.00654 556.3 5.6
539(12) 0.00614 556.2 5.6
552(13) 0.00552 556.1 5.5
532(12) 0.00618 556.0 5.4
544(12) 0.00647 555.8 5.4
546(12) 0.00637 555.7 5.3
559(13) 0.00585 555.6 5.2
535(13) 0.00575 555.5 5.2
537(13) 0.00604 555.4 5.1
551(12) 0.00633 555.3 5.1
557(12) 0.00615 555.2 5.0
559(13) 0.00601 555.1 5.0
593(14) 0.00521 554.9 4.9
552(13) 0.00585 554.8 4.9
536(12) 0.00651 554.7 4.8
558(12) 0.00613 554.6 4.8
591(13) 0.00553 554.5 4.7
552(13) 0.00581 554.4 4.7
527(12) 0.00607 554.3 4.6
538(12) 0.00647 554.2 4.6
548(12) 0.00617 554.0 4.5
546(13) 0.00602 553.9 4.5
563(13) 0.00577 553.8 4.5
593(13) 0.00558 553.7 4.4
493(11) 0.00713 553.6 4.4
583(13) 0.00571 553.5 4.3
563(13) 0.00576 553.4 4.3
540(13) 0.00593 553.3 4.3
547(13) 0.00603 553.1 4.2
563(12) 0.00621 553.0 4.2
523(12) 0.00632 552.9 4.2
560(13) 0.00571 552.8 4.1
568(13) 0.00583 552.7 4.1
549(12) 0.00613 552.6 4.1
540(12) 0.00643 552.5 4.0
561(13) 0.00570 552.4 4.0
561(13) 0.00564 552.2 4.0
543(13) 0.00597 552.1 3.9
545(12) 0.00611 552.0 3.9
550(12) 0.00634 551.9 3.9
552(13) 0.00598 551.8 3.8
545(13) 0.00585 551.7 3.8
540(12) 0.00620 551.6 3.8
561(12) 0.00607 551.5 3.8
554(12) 0.00622 551.3 3.7
543(13) 0.00594 551.2 3.7
552(13) 0.00565 551.1 3.7
561(13) 0.00585 551.0 3.7
562(12) 0.00621 550.9 3.6
550(12) 0.00637 550.8 3.6
518(12) 0.00643 550.7 3.6
569(13) 0.00540 550.6 3.6
563(13) 0.00594 550.4 3.5
553(12) 0.00624 550.3 3.5
523(12) 0.00667 550.2 3.5
560(13) 0.00581 550.1 3.5
535(13) 0.00593 550.0 3.4
534(13) 0.00603 549.9 3.4
556(12) 0.00625 549.8 3.4
519(12) 0.00661 549.7 3.4
563(13) 0.00580 549.5 3.4
559(13) 0.00568 549.4 3.3
582(13) 0.00559 549.3 3.3
555(12) 0.00636 549.2 3.3
544(12) 0.00639 549.1 3.3
554(13) 0.00602 549.0 3.3
565(13) 0.00572 548.9 3.2
560(13) 0.00584 548.7 3.2
540(12) 0.00653 548.6 3.2
547(12) 0.00614 548.5 3.2
570(13) 0.00572 548.4 3.2
511(12) 0.00624 548.3 3.2
520(12) 0.00615 548.2 3.1
543(12) 0.00644 548.1 3.1
559(13) 0.00599 548.0 3.1
541(13) 0.00604 547.8 3.1
548(13) 0.00594 547.7 3.1
570(13) 0.00584 547.6 3.0
576(12) 0.00610 547.5 3.0
530(12) 0.00640 547.4 3.0
560(13) 0.00564 547.3 3.0
539(13) 0.00603 547.2 3.0
524(12) 0.00655 547.1 3.0
543(12) 0.00642 546.9 3.0
536(13) 0.00602 546.8 2.9
542(13) 0.00568 546.7 2.9
552(13) 0.00591 546.6 2.9
601(13) 0.00583 546.5 2.9
565(12) 0.00624 546.4 2.9
549(13) 0.00599 546.3 2.9
537(13) 0.00589 546.2 2.9
561(13) 0.00590 546.0 2.8
538(12) 0.00651 545.9 2.8
552(12) 0.00639 545.8 2.8
527(12) 0.00648 545.7 2.8
565(13) 0.00551 545.6 2.8
561(13) 0.00591 545.5 2.8
568(12) 0.00619 545.6 2.8
538(12) 0.00640 545.6 2.7
541(13) 0.00602 545.6 2.7
546(13) 0.00543 545.6 2.7
523(12) 0.00637 545.6 2.7
569(12) 0.00606 545.6 2.7
545(12) 0.00631 545.6 2.7
527(12) 0.00624 545.7 2.7
563(13) 0.00556 545.7 2.7
515(12) 0.00631 545.7 2.6
498(12) 0.00702 545.7 2.6
530(12) 0.00653 545.7 2.6
521(12) 0.00639 545.7 2.6
577(13) 0.00532 545.7 2.6
529(12) 0.00624 545.7 2.6
590(13) 0.00599 545.8 2.6
560(12) 0.00613 545.8 2.6
550(13) 0.00589 545.8 2.6
544(13) 0.00567 545.8 2.5
554(13) 0.00577 545.8 2.5
542(12) 0.00640 545.8 2.5
594(13) 0.00560 545.8 2.5
563(13) 0.00563 545.8 2.5
521(12) 0.00629 545.9 2.5
554(13) 0.00599 545.9 2.5
563(12) 0.00624 545.9 2.5
554(12) 0.00614 545.9 2.5
546(13) 0.00595 545.9 2.4
547(13) 0.00600 545.9 2.4
528(12) 0.00635 545.9 2.4
526(12) 0.00664 546.0 2.4
542(12) 0.00606 546.0 2.7
549(13) 0.00597 546.0 2.7
555(13) 0.00600 546.0 2.7
556(12) 0.00611 546.0 2.7
558(12) 0.00628 546.0 2.7
560(13) 0.00583 546.0 2.7
524(12) 0.00618 546.0 2.7
557(13) 0.00587 546.1 2.7
536(12) 0.00629 546.1 2.6
524(12) 0.00672 546.1 2.6
535(12) 0.00606 546.1 2.6
548(13) 0.00575 546.1 2.6
531(12) 0.00619 546.1 2.6
546(12) 0.00624 546.1 2.6
564(12) 0.00632 546.2 2.6
549(13) 0.00585 546.2 2.6
570(13) 0.00527 546.2 2.6
501(12) 0.00681 546.2 2.6
515(12) 0.00681 546.2 2.6
517(12) 0.00675 546.2 2.6
553(13) 0.00579 546.2 2.6
538(13) 0.00562 546.2 2.5
541(12) 0.00616 546.3 2.5
538(12) 0.00653 546.3 2.5
574(12) 0.00613 546.3 2.5
542(12) 0.00609 546.3 2.5
521(13) 0.00596 546.3 2.5
533(12) 0.00620 546.3 2.5
529(12) 0.00662 546.3 2.5
559(12) 0.00618 546.3 2.5
535(12) 0.00620 546.4 2.5
555(13) 0.00539 546.4 2.5
556(13) 0.00595 546.4 2.5
554(12) 0.00631 546.4 2.5
535(12) 0.00639 546.4 2.5
564(13) 0.00580 546.4 2.5
551(13) 0.00587 546.4 2.5
546(13) 0.00595 546.5 2.5
552(12) 0.00634 546.5 2.4
551(12) 0.00613 546.5 2.4
534(12) 0.00618 546.5 2.4
527(12) 0.00617 546.5 2.4
535(12) 0.00628 546.5 2.4
553(12) 0.00634 546.5 2.4
590(13) 0.00575 546.5 2.4
547(12) 0.00609 546.6 2.4
573(13) 0.00569 546.6 2.4
559(13) 0.00589 546.6 2.4
569(12) 0.00619 546.6 2.4
550(12) 0.00608 546.6 2.4
547(13) 0.00591 546.6 2.4
547(13) 0.00596 546.6 2.4
559(12) 0.00626 546.6 2.4
546(12) 0.00642 546.7 2.4
542(12) 0.00613 546.7 2.4
559(13) 0.00572 546.7 2.4
555(13) 0.00590 546.7 2.4
548(13) 0.00600 546.7 2.4
551(12) 0.00637 546.7 2.3
526(12) 0.00622 546.7 2.3
586(13) 0.00525 546.8 2.3
547(13) 0.00598 546.8 2.3
563(12) 0.00609 546.8 2.3
577(12) 0.00607 546.8 2.3
571(13) 0.00579 546.8 2.3
553(13) 0.00575 546.8 2.3
572(13) 0.00575 546.8 2.3
556(12) 0.00623 546.8 2.3
549(12) 0.00636 546.9 2.3
561(13) 0.00596 546.9 2.3
581(13) 0.00543 546.9 2.3
586(13) 0.00569 546.9 2.3
580(12) 0.00612 546.9 2.3
540(12) 0.00645 546.9 2.3
546(13) 0.00590 546.9 2.3
529(13) 0.00577 547.0 2.3
542(13) 0.00600 547.0 2.3
533(12) 0.00662 547.0 2.3
524(12) 0.00659 547.0 2.3
550(13) 0.00589 547.0 2.3
551(13) 0.00565 547.0 2.3
530(12) 0.00625 547.0 2.3
548(12) 0.00638 547.0 2.3
546(12) 0.00642 547.1 2.3
559(13) 0.00585 547.1 2.3
563(13) 0.00561 547.1 2.3
562(13) 0.00604 547.1 2.3
572(12) 0.00614 547.1 2.3
559(12) 0.00622 547.1 2.3
521(12) 0.00638 547.1 2.3
515(12) 0.00629 547.1 2.2
558(13) 0.00594 547.2 2.2
576(12) 0.00610 547.2 2.2
546(12) 0.00614 547.2 2.2
507(12) 0.00639 547.2 2.2
504(12) 0.00636 547.2 2.2
511(12) 0.00651 547.2 2.2
546(12) 0.00644 547.2 2.2
557(12) 0.00608 547.3 2.2
562(13) 0.00583 547.3 2.2
565(13) 0.00575 547.3 2.2
546(12) 0.00624 547.3 2.2
556(12) 0.00634 547.3 2.2
510(12) 0.00638 547.3 2.2
540(13) 0.00586 547.3 2.2
555(13) 0.00597 547.3 2.2
544(12) 0.00630 547.4 2.2
519(12) 0.00664 547.4 2.2
557(13) 0.00594 547.4 2.2
573(13) 0.00550 547.4 2.2
555(13) 0.00598 547.4 2.2
536(12) 0.00645 547.4 2.2
557(12) 0.00627 547.4 2.2
540(13) 0.00600 547.5 2.2
531(13) 0.00581 547.5 2.2
537(13) 0.00600 547.5 2.2
518(12) 0.00670 547.5 2.2
535(12) 0.00647 547.5 2.2
569(13) 0.00558 547.5 2.2
558(13) 0.00546 547.5 2.2
551(13) 0.00595 547.5 2.2
548(12) 0.00632 547.6 2.2
553(12) 0.00629 547.6 2.2
566(13) 0.00565 547.6 2.2
555(13) 0.00564 547.6 2.2
549(12) 0.00605 547.6 2.2
569(12) 0.00620 547.6 2.2
551(12) 0.00615 547.6 2.2
519(12) 0.00636 547.6 2.3
533(13) 0.00589 547.7 2.3
516(12) 0.00614 547.7 2.3
527(12) 0.00653 547.7 2.3
534(12) 0.00644 547.7 2.3
541(12) 0.00613 547.7 2.3
546(13) 0.00587 547.7 2.3
552(13) 0.00596 547.7 2.3
548(12) 0.00640 547.8 2.3
548(12) 0.00619 547.8 2.3
551(13) 0.00588 547.8 2.3
534(13) 0.00584 547.8 2.3
539(12) 0.00606 547.8 2.3
538(12) 0.00648 547.8 2.3
525(12) 0.00630 547.8 2.3
548(13) 0.00567 547.8 2.3
542(13) 0.00586 547.9 2.3
520(12) 0.00623 547.9 2.3
527(12) 0.00660 547.9 2.3
569(13) 0.00589 547.9 2.3
556(13) 0.00589 547.9 2.3
537(13) 0.00604 547.9 2.3
539(12) 0.00625 547.9 2.3
559(12) 0.00633 547.9 2.3
568(13) 0.00580 548.0 2.3
537(12) 0.00605 548.0 2.3
517(12) 0.00636 548.0 2.3
536(12) 0.00636 548.0 2.4
532(12) 0.00655 548.0 2.4
503(12) 0.00669 548.0 2.4
535(13) 0.00581 548.0 2.4
521(12) 0.00627 548.1 2.4
557(13) 0.00594 548.1 2.4
558(12) 0.00638 548.1 2.4
525(12) 0.00631 548.1 2.4
516(12) 0.00627 548.1 2.4
537(12) 0.00613 548.1 2.4
575(13) 0.00592 548.1 2.4
562(12) 0.00628 548.1 2.4
516(12) 0.00629 548.2 2.4
547(13) 0.00562 548.2 2.5
548(13) 0.00593 548.2 2.5
543(12) 0.00642 548.2 2.5
526(12) 0.00671 548.2 2.5
548(12) 0.00617 548.2 2.5
558(13) 0.00563 548.2 2.5
555(13) 0.00593 548.3 2.5
533(12) 0.00664 548.3 2.5
517(12) 0.00666 548.3 2.6
530(12) 0.00608 548.3 2.6
555(13) 0.00538 548.3 2.6
561(13) 0.00581 548.3 3.0
533(12) 0.00650 548.3 3.0
536(12) 0.00638 548.3 3.1
525(12) 0.00615 548.4 3.1
539(13) 0.00581 548.4 3.1
586(13) 0.00553 548.4 3.1
552(12) 0.00632 548.4 3.1
540(12) 0.00640 548.4 3.2
554(13) 0.00585 548.4 3.2
553(13) 0.00584 548.4 3.2
554(13) 0.00588 548.4 3.2
560(12) 0.00626 548.5 3.2
573(13) 0.00603 548.5 3.3
541(12) 0.00609 548.5 3.3
547(13) 0.00583 548.5 3.3
539(12) 0.00619 548.5 3.4
560(12) 0.00621 548.5 3.4
556(13) 0.00593 548.5 3.4
566(13) 0.00567 548.6 3.5
529(12) 0.00605 548.6 3.5
509(12) 0.00656 548.6 3.5
540(12) 0.00646 548.6 3.6
561(13) 0.00601 548.6 3.6
531(12) 0.00619 548.6 3.6
543(13) 0.00595 548.6 3.7
542(12) 0.00617 548.6 3.7
545(12) 0.00647 548.7 3.8
562(13) 0.00576 548.7 3.8
528(13) 0.00599 548.7 3.9
546(12) 0.00606 548.7 4.0
537(12) 0.00646 548.7 4.0
539(12) 0.00647 548.7 4.1
551(13) 0.00595 548.7 4.1
572(13) 0.00539 548.8 4.2
540(13) 0.00600 548.8 4.3
547(12) 0.00612 548.8 4.4
561(12) 0.00625 548.8 4.5
544(12) 0.00614 548.8 4.6
504(12) 0.00622 548.8 4.6
510(12) 0.00628 548.8 4.8
540(12) 0.00645 548.8 4.9
543(12) 0.00647 548.9 5.0
559(13) 0.00577 548.9 5.1
543(13) 0.00579 548.9 5.2
553(12) 0.00608 548.9 5.4
548(12) 0.00646 548.9 5.6
555(12) 0.00631 548.9 5.7
567(13) 0.00572 548.9 5.9
525(13) 0.00584 548.9 6.1
522(12) 0.00628 549.0 6.3
518(12) 0.00665 549.0 6.6
546(12) 0.00631 549.0 6.8
539(12) 0.00611 549.0 7.1
555(13) 0.00539 549.0 7.4
520(12) 0.00632 549.0 7.8
556(12) 0.00626 549.0 8.1
559(12) 0.00605 549.1 8.6
558(13) 0.00603 549.1 9.0
567(13) 0.00556 549.1 9.5
565(13) 0.00570 549.1 10.0
558(12) 0.00636 549.1 10.6
575(13) 0.00588 549.1 11.2
526(12) 0.00624 549.1 11.9
558(13) 0.00557 549.1 12.7
533(12) 0.00612 549.2 13.5
544(12) 0.00643 549.2 14.3
519(12) 0.00654 549.2 15.3
543(13) 0.00601 549.2 16.2
530(12) 0.00614 549.2 17.3
548(12) 0.00615 549.2 18.4
551(12) 0.00638 549.2 19.5
537(12) 0.00614 549.2 20.6
546(13) 0.00586 549.3 21.8
533(13) 0.00597 549.3 22.9
549(13) 0.00601 549.3 23.9
567(12) 0.00619 549.3 24.8
549(13) 0.00602 549.3 25.6
541(13) 0.00594 549.3 26.2
558(13) 0.00592 549.3 26.6
572(12) 0.00606 549.4 26.7
553(12) 0.00634 549.4 26.6
556(13) 0.00578 549.4 26.3
569(13) 0.00572 549.4 25.7
565(13) 0.00576 549.4 25.0
513(12) 0.00646 549.4 24.1
499(12) 0.00704 549.4 23.1
540(12) 0.00614 549.4 22.0
578(13) 0.00542 549.5 20.9
546(12) 0.00606 549.5 19.7
558(12) 0.00614 549.5 18.6
560(12) 0.00626 549.5 17.5
559(13) 0.00596 549.5 16.5
526(13) 0.00577 549.5 15.5
528(12) 0.00617 549.5 14.6
561(12) 0.00622 549.6 13.7
552(12) 0.00627 549.6 12.9
536(12) 0.00617 549.6 12.2
536(13) 0.00587 549.6 11.5
547(12) 0.00613 549.6 10.9
548(12) 0.00634 549.6 10.3
548(12) 0.00632 549.6 9.8
566(13) 0.00577 549.6 9.3
574(13) 0.00557 549.7 8.9
551(13) 0.00599 549.7 8.5
499(12) 0.00697 549.7 8.1
540(12) 0.00644 549.7 7.8
569(13) 0.00575 549.7 7.5
526(12) 0.00616 549.7 7.2
570(13) 0.00566 549.7 7.0
551(12) 0.00642 549.7 6.7
565(13) 0.00601 549.8 6.5
584(13) 0.00564 549.8 6.3
523(12) 0.00630 549.8 6.2
528(12) 0.00612 549.8 6.0
559(12) 0.00626 549.8 5.9
509(12) 0.00654 549.8 5.7
543(13) 0.00602 549.8 5.6
533(12) 0.00610 549.9 5.5
567(13) 0.00597 549.9 5.4
567(12) 0.00622 549.9 5.3
555(13) 0.00605 549.9 5.2
546(13) 0.00601 549.9 5.1
543(12) 0.00611 549.9 5.0
540(12) 0.00633 549.9 5.0
526(12) 0.00666 549.9 4.9
546(13) 0.00602 550.0 4.8
585(13) 0.00533 550.0 4.8
555(13) 0.00577 550.0 4.7
532(12) 0.00636 550.0 4.7
556(12) 0.00631 550.0 4.6
541(13) 0.00596 550.0 4.6
528(13) 0.00601 550.0 4.5
530(12) 0.00639 550.1 4.5
540(12) 0.00634 550.1 4.5
578(12) 0.00606 550.1 4.4
565(13) 0.00587 550.1 4.4
563(13) 0.00546 550.1 4.4
551(13) 0.00599 550.1 4.4
519(12) 0.00672 550.1 4.3
558(12) 0.00630 550.1 4.3
572(13) 0.00579 550.2 4.3
546(13) 0.00576 550.2 4.3
553(13) 0.00596 550.2 4.3
539(12) 0.00634 550.2 4.3
585(12) 0.00605 550.2 4.2
554(13) 0.00589 550.3 4.2
523(13) 0.00575 550.5 4.2
556(13) 0.00585 550.7 4.2
539(12) 0.00650 550.8 4.2
558(12) 0.00618 551.0 4.2
555(13) 0.00591 551.1 4.2
526(13) 0.00594 551.3 4.2
578(13) 0.00562 551.4 4.2
570(12) 0.00616 551.6 4.2
570(13) 0.00603 551.8 4.2
533(12) 0.00609 551.9 4.2
553(13) 0.00563 552.1 4.2
598(13) 0.00548 552.2 4.2
546(12) 0.00643 552.4 4.2
552(12) 0.00630 552.5 4.2
549(13) 0.00599 552.7 4.2
531(13) 0.00590 552.9 4.2
531(12) 0.00615 553.0 4.2
549(12) 0.00645 553.2 4.2
532(12) 0.00632 553.3 4.2
576(13) 0.00574 553.5 4.2
568(13) 0.00576 553.6 4.2
527(12) 0.00628 553.8 4.3
542(12) 0.00645 553.9 4.3
580(13) 0.00571 554.1 4.3
575(13) 0.00559 554.3 4.3
575(13) 0.00567 554.4 4.3
544(12) 0.00616 554.6 4.3
568(12) 0.00612 554.7 4.3
579(13) 0.00570 554.9 4.3
550(13) 0.00589 555.0 4.4
540(13) 0.00596 555.2 4.4
529(12) 0.00656 555.4 4.4
537(12) 0.00649 555.5 4.4
539(13) 0.00605 555.7 4.4
576(13) 0.00553 555.8 4.4
558(13) 0.00580 556.0 4.5
561(12) 0.00612 556.1 4.5
544(12) 0.00643 556.3 4.5
556(13) 0.00597 556.5 4.5
550(13) 0.00576 556.6 4.5
518(12) 0.00634 556.8 4.6
532(12) 0.00644 556.9 4.6
544(12) 0.00642 557.1 4.6
556(13) 0.00604 557.2 4.6
556(13) 0.00553 557.4 4.7
522(12) 0.00642 557.6 4.7
570(12) 0.00613 557.7 4.7
565(12) 0.00622 557.9 4.7
534(12) 0.00610 558.0 4.8
524(13) 0.00595 558.2 4.8
535(12) 0.00611 558.3 4.8
569(13) 0.00601 558.5 4.9
563(12) 0.00619 558.7 4.9
554(13) 0.00600 558.8 4.9
549(13) 0.00555 559.0 4.9
545(13) 0.00598 559.1 5.0
590(13) 0.00592 559.3 5.0
595(13) 0.00585 559.4 5.0
562(13) 0.00591 559.6 5.1
547(13) 0.00561 559.8 5.1
569(13) 0.00570 559.9 5.2
575(12) 0.00614 560.1 5.2
538(12) 0.00639 560.2 5.2
563(13) 0.00597 560.4 5.3
540(13) 0.00576 560.5 5.3
539(13) 0.00576 560.7 5.3
524(12) 0.00663 560.8 5.4
542(12) 0.00629 561.0 5.4
560(13) 0.00576 561.2 5.5
512(12) 0.00634 561.3 5.6
547(13) 0.00600 561.5 5.6
554(12) 0.00635 561.6 5.7
552(12) 0.00610 561.8 5.7
551(13) 0.00596 561.9 5.8
563(13) 0.00576 562.1 5.8
553(12) 0.00609 562.3 5.9
591(13) 0.00593 562.4 5.9
581(13) 0.00575 562.6 6.0
559(13) 0.00587 562.7 6.0
555(13) 0.00595 562.9 6.1
552(12) 0.00623 563.0 6.1
545(12) 0.00639 563.2 6.2
545(13) 0.00605 563.4 6.3
608(14) 0.00513 563.5 6.3
571(13) 0.00582 563.7 6.4
541(12) 0.00629 563.8 6.4
567(12) 0.00622 564.0 6.5
560(13) 0.00580 564.1 6.6
551(13) 0.00579 564.3 6.6
549(13) 0.00599 564.5 6.7
517(12) 0.00673 564.6 6.8
584(13) 0.00597 564.8 6.9
556(13) 0.00597 564.9 6.9
559(13) 0.00554 565.1 7.0
529(12) 0.00629 565.2 7.1
572(13) 0.00603 565.4 7.2
569(12) 0.00620 565.6 7.3
564(13) 0.00592 565.7 7.3
554(13) 0.00550 565.9 7.4
561(13) 0.00573 566.0 7.5
551(12) 0.00630 566.2 7.6
558(12) 0.00628 566.3 7.7
551(13) 0.00603 566.5 7.8
576(13) 0.00524 566.7 7.9
556(13) 0.00585 566.8 8.0
548(12) 0.00635 567.0 8.1
560(13) 0.00600 567.1 8.2
572(13) 0.00552 567.3 8.3
549(13) 0.00555 567.4 8.4
536(13) 0.00604 567.6 8.5
531(12) 0.00660 567.7 8.6
549(12) 0.00625 567.9 8.7
531(12) 0.00625 568.1 8.9
548(13) 0.00574 568.2 9.0
551(13) 0.00591 568.4 9.1
535(12) 0.00648 568.5 9.3
540(12) 0.00644 568.7 9.4
566(13) 0.00573 568.8 9.5
545(13) 0.00581 569.0 9.7
525(12) 0.00621 569.2 9.8
521(12) 0.00670 569.3 10.0
526(12) 0.00648 569.5 10.1
561(13) 0.00561 569.6 10.3
559(13) 0.00579 569.8 10.4
568(13) 0.00578 569.9 10.6
555(12) 0.00632 570.1 10.8
538(12) 0.00624 570.3 11.0
601(13) 0.00534 570.4 11.1
577(13) 0.00568 570.6 11.3
562(13) 0.00579 570.7 11.5
548(12) 0.00640 570.9 11.7
577(13) 0.00570 571.0 11.9
577(13) 0.00563 571.2 12.2
588(13) 0.00567 571.4 12.4
602(13) 0.00574 571.5 12.6
570(12) 0.00621 571.7 12.8
550(13) 0.00589 571.8 13.1
572(13) 0.00560 572.0 13.3
553(13) 0.00594 572.1 13.6
572(13) 0.00604 572.3 13.9
567(12) 0.00614 572.5 14.2
588(13) 0.00547 572.6 14.4
532(13) 0.00602 572.8 14.7
552(12) 0.00607 572.9 15.0
608(13) 0.00562 573.1 15.4
564(12) 0.00630 573.2 15.7
577(13) 0.00559 573.4 16.0
551(13) 0.00546 573.6 16.4
577(13) 0.00562 573.7 16.8
574(12) 0.00611 573.9 17.2
579(13) 0.00605 574.0 17.6
595(13) 0.00560 574.2 18.0
595(14) 0.00514 574.3 18.4
574(13) 0.00573 574.5 18.9
583(13) 0.00599 574.7 19.3
569(12) 0.00610 574.8 19.8
594(13) 0.00549 575.0 20.3
563(13) 0.00549 575.1 20.9
592(13) 0.00542 575.3 21.4
549(12) 0.00642 575.4 22.0
600(13) 0.00566 575.6 22.6
575(13) 0.00568 575.7 23.3
592(13) 0.00536 575.9 23.9
564(13) 0.00595 576.1 24.6
578(13) 0.00605 576.2 25.3
595(13) 0.00587 576.4 26.1
568(13) 0.00583 576.5 26.9
588(13) 0.00535 576.7 27.7
572(13) 0.00574 576.8 28.6
572(12) 0.00612 577.0 29.6
611(13) 0.00567 577.2 30.5
590(13) 0.00542 577.3 31.6
561(13) 0.00587 577.5 32.7
601(13) 0.00553 577.6 33.8
578(12) 0.00606 577.8 35.0
557(12) 0.00606 577.9 36.3
575(13) 0.00569 578.1 37.7
567(13) 0.00568 578.3 39.1
580(13) 0.00578 578.4 40.7
610(13) 0.00577 578.6 42.3
598(13) 0.00566 578.7 44.0
612(14) 0.00521 578.9 45.9
615(13) 0.00528 579.0 47.8
578(13) 0.00585 579.2 49.9
626(13) 0.00565 579.4 52.2
582(13) 0.00559 579.5 54.6
593(13) 0.00531 579.7 57.2
603(13) 0.00548 579.8 60.0
632(13) 0.00540 580.0 62.9
604(13) 0.00584 580.1 66.2
647(14) 0.00518 580.3 69.7
584(13) 0.00554 580.5 73.4
595(13) 0.00568 580.6 77.5
660(13) 0.00531 580.8 82.0
607(13) 0.00589 580.9 86.9
600(13) 0.00543 581.1 92.2
660(15) 0.00453 581.2 98.0
620(14) 0.00522 581.4 104.4
656(13) 0.00531 581.6 111.4
663(13) 0.00534 581.7 119.2
645(14) 0.00513 581.9 127.8
657(14) 0.00461 582.0 137.4
686(14) 0.00480 582.2 148.2
690(14) 0.00513 582.3 160.3
715(14) 0.00497 582.5 173.9
750(15) 0.00448 582.6 189.5
788(16) 0.00395 582.8 207.5
796(15) 0.00414 583.0 228.6
808(15) 0.00439 583.1 253.7
871(15) 0.00410 583.3 284.1
881(16) 0.00382 583.4 321.8
958(17) 0.003278 583.6 369.2
988(17) 0.003419 583.7 429.6
1103(17) 0.003261 583.9 507.4
1170(18) 0.003033 584.1 607.3
1352(20) 0.002488 584.2 735.1
1488(21) 0.002210 584.4 896.6
1710(22) 0.001944 584.5 1097.0
1934(23) 0.001877 584.7 1340.4
2194(25) 0.001619 584.8 1628.3
2474(27) 0.001370 585.0 1958.8
2829(29) 0.001180 585.2 2324.4
3166(30) 0.001080 585.3 2709.4
3538(31) 0.001034 585.5 3087.8
3967(33) 0.000885 585.6 3420.5
4293(35) 0.000794 586. 3660.
4612(37) 0.000730 586. 3760.
4510(36) 0.000778 586. 3701.
4214(34) 0.000871 586.3 3495.6
3650(32) 0.000945 586.4 3183.1
3177(31) 0.001055 586.6 2812.5
2785(28) 0.001233 586.7 2426.1
2537(27) 0.001402 586.9 2053.6
2246(25) 0.001624 587.0 1712.7
1968(24) 0.001702 587.2 1413.0
1787(23) 0.001839 587.4 1157.8
1670(22) 0.002027 587.5 946.2
1454(20) 0.002422 587.7 774.9
1337(19) 0.002708 587.8 638.6
1236(19) 0.002715 588.0 531.8
1166(19) 0.002747 588.1 448.7
1065(17) 0.003196 588.3 384.1
1046(17) 0.003356 588.5 333.6
953(16) 0.00375 588.6 293.6
950(17) 0.003385 588.8 261.5
872(16) 0.00363 588.9 235.1
844(16) 0.00399 589.1 213.1
832(15) 0.00426 589.2 194.4
806(15) 0.00438 589.4 178.2
775(15) 0.00434 589.5 164.1
745(15) 0.00424 589.7 151.6
747(15) 0.00442 589.9 140.6
721(14) 0.00488 590.0 130.7
731(14) 0.00483 590.2 121.8
698(14) 0.00468 590.3 113.9
689(15) 0.00443 590.5 106.6
660(14) 0.00508 590.6 100.1
666(13) 0.00527 590.8 94.2
649(13) 0.00532 591.0 88.7
651(14) 0.00507 591.1 83.8
657(14) 0.00474 591.3 79.2
654(14) 0.00511 591.4 75.0
686(14) 0.00517 591.6 71.2
650(13) 0.00531 591.7 67.7
639(14) 0.00513 591.9 64.4
633(14) 0.00496 592.1 61.3
659(14) 0.00508 592.2 58.5
641(13) 0.00548 592.4 55.9
627(13) 0.00544 592.5 53.5
610(13) 0.00536 592.7 51.2
594(13) 0.00537 592.8 49.1
609(13) 0.00540 593.0 47.1
621(13) 0.00564 593.2 45.2
611(13) 0.00555 593.3 43.5
601(13) 0.00551 593.5 41.8
628(14) 0.00516 593.6 40.3
630(13) 0.00531 593.8 38.8
625(13) 0.00562 593.9 37.5
631(13) 0.00535 594.1 36.2
590(13) 0.00549 594.3 35.0
596(13) 0.00545 594.4 33.8
625(13) 0.00543 594.6 32.7
654(13) 0.00540 594.7 31.7
610(13) 0.00550 594.9 30.7
629(14) 0.00499 595.0 29.8
600(13) 0.00535 595.2 28.9
602(13) 0.00567 595.4 28.1
617(13) 0.00571 595.5 27.3
617(13) 0.00534 595.7 26.5
624(14) 0.00502 595.8 25.8
627(13) 0.00525 596.0 25.1
629(13) 0.00548 596.1 24.5
596(13) 0.00591 596.3 23.8
623(13) 0.00533 596.5 23.2
611(14) 0.00512 596.6 22.7
587(13) 0.00566 596.8 22.2
623(13) 0.00555 596.9 21.7
580(12) 0.00613 597.1 21.2
590(13) 0.00565 597.2 20.7
598(14) 0.00520 597.4 20.2
613(13) 0.00549 597.5 19.8
612(13) 0.00577 597.7 19.4
573(12) 0.00611 597.9 19.0
614(13) 0.00532 598.0 18.6
640(14) 0.00477 598.2 18.2
607(13) 0.00537 598.3 17.9
606(13) 0.00583 598.5 17.5
608(13) 0.00576 598.6 17.2
602(13) 0.00550 598.8 16.9
588(13) 0.00537 599.0 16.6
613(13) 0.00535 599.1 16.3
605(13) 0.00580 599.3 16.0
592(13) 0.00583 599.4 15.7
604(13) 0.00541 599.6 15.5
586(13) 0.00533 599.7 15.2
590(13) 0.00572 599.9 15.0
642(13) 0.00549 600.1 14.7
649(14) 0.00522 600.2 14.5
588(13) 0.00567 600.4 14.3
601(14) 0.00519 600.5 14.1
600(13) 0.00544 600.7 13.9
624(13) 0.00565 600.8 13.7
623(13) 0.00547 601.0 13.5
590(13) 0.00561 601.2 13.3
611(14) 0.00515 601.3 13.1
641(14) 0.00514 601.5 13.0
607(13) 0.00585 601.6 12.8
615(13) 0.00542 601.8 12.7
616(14) 0.00504 601.9 12.5
635(14) 0.00504 602.1 12.4
603(13) 0.00565 602.3 12.2
603(13) 0.00584 602.4 12.1
615(13) 0.00537 602.6 11.9
617(14) 0.00521 602.7 11.8
629(13) 0.00529 602.9 11.7
634(13) 0.00545 603.0 11.6
583(13) 0.00604 603.2 11.5
607(13) 0.00541 603.4 11.3
580(13) 0.00558 603.5 11.2
620(13) 0.00527 603.7 11.1
641(13) 0.00540 603.8 11.0
598(13) 0.00588 604.0 10.9
592(13) 0.00556 604.1 10.8
603(14) 0.00518 604.3 10.8
645(14) 0.00515 604.4 10.7
608(13) 0.00571 604.6 10.6
596(13) 0.00592 604.8 10.5
583(13) 0.00577 604.9 10.4
604(13) 0.00527 605.1 10.4
617(13) 0.00538 605.2 10.3
618(13) 0.00570 605.4 10.2
612(13) 0.00575 605.5 10.1
618(13) 0.00551 605.7 10.1
611(14) 0.00491 605.9 10.0
588(13) 0.00556 606.0 10.0
615(13) 0.00572 606.2 9.9
641(13) 0.00548 606.3 9.8
623(13) 0.00538 606.5 9.8
628(14) 0.00498 606.6 9.7
616(13) 0.00543 606.8 9.7
618(13) 0.00571 607.0 9.7
586(13) 0.00588 607.1 9.6
596(13) 0.00558 607.3 9.6
576(13) 0.00543 607.4 9.5
597(13) 0.00539 607.6 9.5
566(12) 0.00625 607.7 9.5
589(13) 0.00583 607.9 9.4
600(13) 0.00549 608.1 9.4
598(13) 0.00538 608.2 9.4
613(13) 0.00529 608.4 9.3
610(13) 0.00581 608.5 9.3
611(13) 0.00556 608.7 9.3
585(13) 0.00562 608.8 9.2
618(14) 0.00523 609.0 9.2
587(13) 0.00560 609.2 9.2
615(13) 0.00573 609.3 9.2
627(13) 0.00529 609.5 9.2
608(13) 0.00532 609.6 9.2
608(13) 0.00537 609.8 9.1
606(13) 0.00550 609.9 9.1
626(13) 0.00565 610.1 9.1
606(13) 0.00555 610.3 9.1
608(13) 0.00534 610.4 9.1
580(13) 0.00582 610.6 9.1
620(13) 0.00546 610.7 9.1
614(13) 0.00573 610.9 9.1
618(13) 0.00538 611.0 9.1
638(14) 0.00489 611.2 9.1
631(13) 0.00527 611.3 9.1
649(13) 0.00531 611.5 9.1
630(13) 0.00559 611.7 9.1
628(13) 0.00525 611.8 9.1
583(13) 0.00556 612.0 9.1
609(13) 0.00527 612.1 9.1
620(13) 0.00558 612.3 9.1
632(13) 0.00555 612.4 9.1
632(14) 0.00521 612.6 9.1
636(14) 0.00483 612.8 9.1
625(13) 0.00532 612.9 9.2
625(13) 0.00561 613.1 9.2
576(12) 0.00609 613.2 9.2
612(13) 0.00540 613.4 9.2
586(13) 0.00528 613.5 9.2
564(13) 0.00596 613.7 9.2
607(13) 0.00584 613.9 9.3
615(13) 0.00576 614.0 9.3
624(13) 0.00534 614.2 9.3
612(14) 0.00509 614.3 9.3
650(14) 0.00500 614.5 9.4
627(13) 0.00562 614.6 9.4
650(13) 0.00533 614.8 9.4
618(13) 0.00546 615.0 9.4
617(14) 0.00509 615.1 9.5
642(14) 0.00502 615.3 9.5
613(13) 0.00573 615.4 9.6
643(13) 0.00532 615.6 9.6
625(14) 0.00519 616.0 9.6
620(14) 0.00514 616.5 9.7
614(13) 0.00533 616.9 9.7
631(13) 0.00558 617.4 9.7
625(13) 0.00551 617.8 9.8
600(13) 0.00562 618.3 9.8
636(14) 0.00511 618.8 9.9
630(13) 0.00531 619.2 9.9
594(13) 0.00592 619.7 10.0
592(13) 0.00573 620.1 10.0
623(14) 0.00522 620.6 10.1
595(13) 0.00552 621.1 10.1
660(14) 0.00510 621.5 10.2
631(13) 0.00558 622.0 10.2
605(13) 0.00551 622.4 10.3
628(14) 0.00517 622.9 10.4
607(13) 0.00559 623.4 10.4
650(13) 0.00529 623.8 10.5
628(13) 0.00563 624.3 10.6
627(14) 0.00515 624.7 10.6
621(14) 0.00513 625.2 10.7
630(13) 0.00528 625.7 10.8
637(13) 0.00543 626.1 10.8
624(13) 0.00566 626.6 10.9
660(14) 0.00500 627.0 11.0
625(14) 0.00506 627.5 11.1
616(13) 0.00536 628.0 11.1
651(13) 0.00535 628.4 11.2
613(13) 0.00578 628.9 11.3
624(13) 0.00539 629.3 11.4
651(14) 0.00473 629.8 11.5
631(13) 0.00525 630.3 11.6
641(13) 0.00553 630.7 11.7
623(13) 0.00563 631.2 11.8
604(13) 0.00551 631.6 11.9
625(14) 0.00479 632.1 12.0
602(13) 0.00543 632.6 12.1
633(13) 0.00560 633.0 12.2
639(13) 0.00548 633.5 12.3
630(14) 0.00521 633.9 12.4
626(14) 0.00495 634.4 12.5
633(13) 0.00532 634.9 12.6
623(13) 0.00566 635.3 12.7
661(14) 0.00521 635.8 12.8
635(14) 0.00519 636.2 13.0
642(14) 0.00493 636.7 13.1
659(14) 0.00499 637.2 13.2
614(13) 0.00574 637.6 13.3
636(13) 0.00552 638.1 13.5
651(14) 0.00507 638.5 13.6
634(14) 0.00504 639.0 13.7
608(13) 0.00541 639.5 13.9
606(13) 0.00583 639.9 14.0
623(13) 0.00552 640.4 14.2
625(14) 0.00522 640.8 14.3
647(14) 0.00487 641.3 14.5
640(14) 0.00518 641.8 14.7
661(13) 0.00533 642.2 14.8
653(13) 0.00527 642.7 15.0
662(14) 0.00489 643.1 15.2
651(14) 0.00498 643.6 15.3
643(14) 0.00512 644.1 15.5
612(13) 0.00573 644.5 15.7
655(14) 0.00504 645.0 15.9
639(13) 0.00524 645.4 16.1
629(13) 0.00532 645.9 16.3
661(14) 0.00519 646.4 16.5
629(13) 0.00561 646.8 16.7
627(13) 0.00538 647.3 16.9
617(14) 0.00523 647.7 17.1
652(14) 0.00513 648.2 17.4
661(14) 0.00515 648.7 17.6
674(13) 0.00525 649.1 17.8
637(13) 0.00530 649.6 18.1
636(14) 0.00514 650.0 18.3
627(13) 0.00537 650.5 18.6
673(14) 0.00508 651.0 18.8
652(13) 0.00545 651.4 19.1
670(14) 0.00485 651.9 19.4
631(14) 0.00511 652.3 19.7
695(14) 0.00486 652.8 20.0
679(14) 0.00515 653.3 20.3
672(13) 0.00527 653.7 20.6
637(13) 0.00531 654.2 20.9
650(14) 0.00477 654.6 21.2
637(14) 0.00522 655.1 21.5
665(13) 0.00531 655.6 21.9
650(13) 0.00546 656.0 22.2
647(14) 0.00517 656.5 22.6
689(15) 0.00446 656.9 23.0
658(14) 0.00505 657.4 23.4
670(13) 0.00532 657.9 23.7
696(14) 0.00498 658.3 24.2
637(13) 0.00532 658.8 24.6
695(15) 0.00447 659.2 25.0
649(13) 0.00525 659.7 25.4
660(13) 0.00538 660.2 25.9
660(13) 0.00531 660.6 26.4
643(14) 0.00497 661.1 26.8
680(15) 0.00446 661.5 27.3
667(14) 0.00482 662.0 27.9
658(13) 0.00538 662.5 28.4
675(13) 0.00528 662.9 28.9
663(14) 0.00520 663.4 29.5
667(14) 0.00490 663.8 30.1
625(13) 0.00538 664.3 30.7
648(13) 0.00545 664.8 31.3
681(14) 0.00505 665.2 31.9
705(14) 0.00463 665.7 32.6
707(15) 0.00454 666.1 33.3
668(14) 0.00511 666.6 34.0
657(13) 0.00538 667.1 34.7
674(14) 0.00499 667.5 35.5
704(14) 0.00459 668.0 36.3
676(14) 0.00491 668.4 37.1
657(14) 0.00518 668.9 37.9
672(13) 0.00526 669.4 38.8
650(14) 0.00521 669.8 39.7
696(14) 0.00465 670.3 40.7
682(14) 0.00482 670.7 41.7
696(14) 0.00484 671.2 42.7
703(14) 0.00505 671.7 43.7
667(14) 0.00495 672.1 44.8
731(15) 0.00432 672.6 46.0
655(14) 0.00519 673.0 47.2
683(14) 0.00513 673.5 48.4
694(14) 0.00512 674.0 49.7
726(15) 0.00456 674.4 51.0
699(15) 0.00456 674.9 52.4
748(15) 0.00435 675.3 53.9
724(14) 0.00484 675.8 55.4
718(14) 0.00492 676.3 57.0
739(15) 0.00446 676.7 58.7
688(14) 0.00458 677.2 60.4
686(14) 0.00463 677.6 62.3
704(14) 0.00501 678.1 64.2
737(14) 0.00480 678.6 66.2
711(14) 0.00464 679.0 68.3
712(15) 0.00423 679.5 70.5
749(15) 0.00433 679.9 72.8
690(14) 0.00511 680.4 75.3
714(14) 0.00493 680.9 77.9
753(15) 0.00444 681.3 80.6
735(15) 0.00429 681.8 83.4
758(15) 0.00430 682.2 86.4
772(14) 0.00461 682.7 89.6
717(14) 0.00486 683.2 93.0
749(14) 0.00459 683.6 96.5
765(15) 0.00415 684.1 100.3
729(15) 0.00445 684.5 104.3
715(14) 0.00491 685.0 108.6
737(14) 0.00479 685.5 113.1
757(15) 0.00444 685.9 117.9
754(15) 0.00431 686.4 123.0
773(15) 0.00431 686.8 128.5
737(14) 0.00484 687.3 134.3
766(15) 0.00445 687.8 140.6
766(15) 0.00431 688.2 147.3
756(15) 0.00437 688.7 154.5
800(15) 0.00424 689.1 162.2
805(15) 0.00444 689.6 170.5
841(15) 0.00404 690.1 179.5
822(16) 0.00401 690.5 189.2
846(16) 0.00389 691.0 199.8
791(15) 0.00431 691.4 211.2
846(15) 0.00422 691.9 223.6
876(16) 0.00382 692.4 237.2
848(16) 0.00392 692.8 252.0
910(16) 0.00360 693.3 268.2
890(16) 0.00384 693.7 286.1
912(16) 0.00391 694.2 305.8
881(16) 0.00386 694.7 327.5
912(16) 0.00365 695.1 351.8
993(17) 0.003400 695.6 378.9
997(17) 0.00353 696.0 409.4
1026(17) 0.003483 696.5 444.0
1073(18) 0.003093 697.0 483.6
1142(19) 0.002822 697.4 529.2
1191(19) 0.002838 697.9 582.4
1256(19) 0.002845 698.3 645.1
1363(19) 0.002669 698.8 719.7
1437(20) 0.002396 699.3 808.9
1556(22) 0.002048 699.7 916.5
1589(21) 0.002131 700.2 1046.3
1788(22) 0.002013 700.6 1203.1
2018(23) 0.001807 701.1 1391.8
2285(26) 0.001507 701.6 1617.2
2590(28) 0.001238 702.0 1884.4
2944(29) 0.001174 702.5 2197.2
3377(30) 0.001074 702.9 2558.5
3748(32) 0.000976 703.4 2968.3
4352(35) 0.000800 704. 3423.
4764(38) 0.000679 704. 3912.
5250(39) 0.000657 705. 4417.
6053(41) 0.000601 705. 4907.
6559(42) 0.000556 706. 5338.
6927(45) 0.000497 706. 5658.
6944(46) 0.000468 707. 5819.
6487(43) 0.000527 707. 5792.
5978(40) 0.000614 708. 5584.
5570(39) 0.000647 708. 5228.
5239(39) 0.000651 708. 4776.
4639(37) 0.000719 709. 4278.
4221(35) 0.000817 709.4 3774.6
3721(32) 0.000985 709.8 3293.8
3542(32) 0.000996 710.3 2851.4
3137(30) 0.001093 710.8 2455.4
2817(29) 0.001190 711.2 2108.1
2718(28) 0.001259 711.7 1808.7
2456(26) 0.001491 712.1 1553.9
2310(26) 0.001502 712.6 1339.5
2180(25) 0.001531 713.1 1160.7
1979(24) 0.001711 713.5 1012.3
1888(23) 0.001841 714.0 889.6
1789(22) 0.002048 714.4 788.0
1710(22) 0.002015 714.9 703.6
1601(22) 0.002082 715.4 633.2
1560(21) 0.002152 715.8 573.9
1471(20) 0.002397 716.3 523.5
1362(19) 0.002639 716.8 480.3
1277(19) 0.002645 717.2 442.9
1289(20) 0.002531 717.7 410.2
1272(19) 0.002644 718.1 381.4
1205(18) 0.002911 718.6 356.0
1194(18) 0.003015 719.1 333.4
1119(18) 0.002983 719.5 313.2
1085(18) 0.003047 720.0 295.1
1078(18) 0.003123 720.4 278.9
1051(17) 0.003418 720.9 264.4
1087(17) 0.003319 721.4 251.4
1040(17) 0.003204 721.8 239.8
978(17) 0.003278 722.3 229.6
1035(17) 0.003220 722.7 220.5
962(16) 0.00370 723.2 212.7
984(16) 0.00364 723.7 206.0
983(17) 0.003421 724.1 200.5
943(17) 0.003316 724.6 196.1
980(17) 0.003395 725.0 193.0
928(16) 0.00388 725.5 191.3
935(16) 0.00382 726.0 190.9
942(16) 0.00357 726.4 191.9
924(17) 0.003388 726.9 194.6
925(16) 0.00365 727.3 198.9
899(16) 0.00391 727.8 205.0
891(16) 0.00398 728.3 212.9
932(16) 0.00358 728.7 222.6
925(17) 0.003483 729.2 234.0
930(16) 0.00359 729.6 246.9
951(16) 0.00378 730.1 260.8
973(16) 0.00367 730.6 274.9
969(17) 0.00354 731.0 288.2
992(17) 0.003228 731.5 299.2
1011(17) 0.003262 731.9 306.3
975(16) 0.00369 732.4 308.3
1027(17) 0.003360 732.9 304.4
990(17) 0.003419 733.3 294.9
956(17) 0.003402 733.8 280.6
911(16) 0.00369 734.2 263.0
907(16) 0.00395 734.7 243.7
911(16) 0.00375 735.2 224.0
858(16) 0.00383 735.6 204.7
860(16) 0.00382 736.1 186.4
888(16) 0.00386 736.5 169.6
856(15) 0.00418 737.0 154.4
834(15) 0.00407 737.5 140.8
813(15) 0.00401 737.9 128.7
833(16) 0.00388 738.4 118.1
844(15) 0.00404 738.8 108.8
838(15) 0.00429 739.3 100.7
738(15) 0.00449 739.8 93.7
771(15) 0.00414 740.2 87.5
800(15) 0.00419 740.7 82.1
777(15) 0.00446 741.1 77.4
812(15) 0.00442 741.6 73.2
786(15) 0.00412 742.1 69.5
802(16) 0.00394 742.5 66.2
758(15) 0.00438 743.0 63.2
792(15) 0.00444 743.4 60.5
784(15) 0.00454 743.9 58.1
777(15) 0.00425 744.4 55.8
831(16) 0.00371 744.8 53.8
784(15) 0.00434 745.3 51.8
789(15) 0.00445 745.7 50.1
817(15) 0.00435 746.2 48.4
798(15) 0.00436 746.7 46.8
786(16) 0.00401 747.1 45.4
766(15) 0.00441 747.6 44.0
744(14) 0.00478 748.0 42.7
733(14) 0.00484 748.5 41.5
753(15) 0.00440 749.0 40.3
778(16) 0.00400 749.4 39.2
784(15) 0.00437 749.9 38.2
773(14) 0.00460 750.3 37.2
785(15) 0.00451 750.8 36.3
783(15) 0.00423 751.3 35.4
735(15) 0.00430 751.7 34.5
748(15) 0.00442 752.2 33.7
747(14) 0.00479 752.6 32.9
752(14) 0.00461 753.1 32.2
794(15) 0.00424 753.6 31.4
769(15) 0.00418 754.0 30.8
770(15) 0.00426 754.5 30.1
779(14) 0.00461 754.9 29.5
773(15) 0.00444 755.4 28.9
761(15) 0.00435 755.9 28.3
728(15) 0.00449 756.3 27.7
735(15) 0.00452 756.8 27.2
767(14) 0.00463 757.2 26.7
782(15) 0.00448 757.7 26.2
761(15) 0.00432 758.2 25.7
801(16) 0.00398 758.6 25.2
743(14) 0.00456 759.1 24.8
773(14) 0.00463 759.5 24.3
785(15) 0.00427 760.0 23.9
723(14) 0.00458 760.5 23.5
775(15) 0.00425 760.9 23.1
769(15) 0.00446 761.4 22.7
782(14) 0.00456 761.8 22.4
741(14) 0.00460 762.3 22.0
763(15) 0.00437 762.8 21.7
803(15) 0.00411 763.2 21.4
771(15) 0.00449 763.7 21.0
723(14) 0.00489 764.1 20.7
755(15) 0.00447 764.6 20.4
746(15) 0.00443 765.1 20.1
777(15) 0.00427 765.5 19.9
775(15) 0.00449 766.0 19.6
789(15) 0.00452 766.4 19.3
795(15) 0.00422 766.9 19.1
778(15) 0.00416 767.4 18.8
773(15) 0.00447 767.8 18.6
786(15) 0.00446 768.3 18.4
766(14) 0.00465 768.7 18.1
758(15) 0.00437 769.2 17.9
772(15) 0.00412 769.7 17.7
762(15) 0.00440 770.1 17.5
789(15) 0.00448 770.6 17.3
769(14) 0.00462 771.0 17.1
817(15) 0.00404 771.5 17.0
781(15) 0.00403 772.0 16.8
780(15) 0.00430 772.4 16.6
782(15) 0.00446 772.9 16.4
785(15) 0.00456 773.3 16.3
784(15) 0.00423 773.8 16.1
762(15) 0.00416 774.3 16.0
783(15) 0.00425 774.7 15.9
756(14) 0.00471 775.2 15.7
798(15) 0.00436 775.6 15.6
775(15) 0.00432 776.1 15.5
785(16) 0.00399 776.6 15.4
810(15) 0.00407 777.0 15.2
739(14) 0.00484 777.5 15.1
794(15) 0.00444 778.0 15.0
819(16) 0.00386 778.5 14.9
772(15) 0.00416 779.1 14.9
804(15) 0.00410 779.7 14.8
793(15) 0.00448 780.2 14.7
818(15) 0.00422 780.8 14.6
787(15) 0.00432 781.3 14.6
794(15) 0.00406 781.9 14.5
764(15) 0.00445 782.5 14.4
790(15) 0.00452 783.0 14.4
805(15) 0.00418 783.6 14.3
801(15) 0.00404 784.1 14.3
809(15) 0.00408 784.7 14.3
830(15) 0.00404 785.3 14.3
799(15) 0.00447 785.8 14.2
757(15) 0.00443 786.4 14.2
785(15) 0.00420 786.9 14.2
786(15) 0.00428 787.5 14.2
791(15) 0.00436 788.1 14.2
810(15) 0.00441 788.6 14.3
810(15) 0.00410 789.2 14.3
793(15) 0.00409 789.7 14.3
754(15) 0.00439 790.3 14.4
762(15) 0.00452 790.9 14.4
769(14) 0.00464 791.4 14.5
765(15) 0.00426 792.0 14.6
771(15) 0.00412 792.5 14.7
797(15) 0.00418 793.1 14.8
779(15) 0.00454 793.7 14.9
811(15) 0.00441 794.2 15.0
778(15) 0.00431 794.8 15.2
747(15) 0.00417 795.3 15.3
799(15) 0.00422 795.9 15.5
814(15) 0.00437 796.5 15.7
837(15) 0.00430 797.0 15.9
835(15) 0.00404 797.6 16.1
817(16) 0.00379 798.1 16.4
781(15) 0.00431 798.7 16.7
808(15) 0.00440 799.3 17.0
803(15) 0.00438 799.8 17.3
776(15) 0.00426 800.4 17.7
837(16) 0.00368 800.9 18.1
811(15) 0.00412 801.5 18.5
799(15) 0.00445 802.1 19.0
776(15) 0.00454 802.6 19.6
803(15) 0.00405 803.2 20.2
801(16) 0.00396 803.7 20.8
822(15) 0.00409 804.3 21.5
787(15) 0.00454 804.9 22.3
778(15) 0.00445 805.4 23.2
783(15) 0.00422 806.0 24.2
809(15) 0.00404 806.5 25.2
836(15) 0.00405 807.1 26.4
894(16) 0.00399 807.7 27.8
837(15) 0.00417 808.2 29.3
857(16) 0.00383 808.8 31.0
845(16) 0.00391 809.3 32.9
856(16) 0.00391 809.9 35.0
823(15) 0.00435 810.5 37.5
892(16) 0.00390 811.0 40.3
878(16) 0.00386 811.6 43.6
861(16) 0.00389 812.1 47.4
896(16) 0.00387 812.7 51.9
908(16) 0.00394 813.3 57.5
879(16) 0.00384 813.8 64.3
890(16) 0.00364 814.4 73.1
921(16) 0.00357 814.9 84.6
971(16) 0.00359 815.5 99.8
980(16) 0.00367 816.1 120.1
983(17) 0.003495 816.6 147.2
1096(18) 0.002960 817.2 182.9
1098(18) 0.003133 817.7 228.8
1186(18) 0.002931 818.3 286.4
1234(18) 0.002942 818.9 356.0
1270(19) 0.002660 819.4 436.8
1373(20) 0.002384 820.0 525.9
1452(21) 0.002319 820.5 616.9
1514(20) 0.002358 821.1 699.6
1533(20) 0.002376 821.7 759.7
1617(22) 0.002104 822.2 783.2
1660(23) 0.001931 822.8 763.6
1582(21) 0.002168 823.3 706.3
1452(20) 0.002483 823.9 625.0
1391(19) 0.002604 824.5 534.2
1227(19) 0.002792 825.0 444.6
1115(19) 0.002810 825.6 362.7
1038(17) 0.003243 826.1 292.0
1045(17) 0.003426 826.7 233.2
975(16) 0.00366 827.3 186.2
970(17) 0.003477 827.8 149.5
965(17) 0.003272 828.4 121.6
946(16) 0.00361 828.9 100.7
924(16) 0.00385 829.5 85.0
849(15) 0.00414 830.1 73.2
856(16) 0.00392 830.6 64.1
855(16) 0.00375 831.2 57.0
861(16) 0.00389 831.7 51.3
861(15) 0.00419 832.3 46.6
908(16) 0.00382 832.9 42.7
852(16) 0.00394 833.4 39.3
866(16) 0.00371 834.0 36.4
861(16) 0.00389 834.5 33.8
859(15) 0.00418 835.1 31.6
887(16) 0.00385 835.7 29.6
858(16) 0.00381 836.2 27.8
794(15) 0.00410 836.8 26.2
846(16) 0.00393 837.3 24.8
864(15) 0.00415 837.9 23.5
893(16) 0.00389 838.5 22.4
862(16) 0.00391 839.0 21.3
870(16) 0.00377 839.6 20.4
896(16) 0.00378 840.1 19.5
871(15) 0.00413 840.7 18.7
873(16) 0.00384 841.3 18.0
906(16) 0.00361 841.8 17.3
884(16) 0.00370 842.4 16.7
846(15) 0.00407 842.9 16.1
861(15) 0.00415 843.5 15.6
890(16) 0.00373 844.1 15.1
850(16) 0.00385 844.6 14.6
830(16) 0.00400 845.2 14.2
856(15) 0.00405 845.7 13.8
831(15) 0.00430 846.3 13.5
811(15) 0.00422 846.9 13.1
868(16) 0.00375 847.4 12.8
869(16) 0.00382 848.0 12.5
813(15) 0.00426 848.5 12.2
832(15) 0.00430 849.1 12.0
842(16) 0.00397 849.7 11.7
830(16) 0.00388 850.2 11.5
827(15) 0.00410 850.8 11.3
868(15) 0.00412 851.3 11.1
826(15) 0.00426 851.9 10.9
792(15) 0.00427 852.5 10.7
885(16) 0.00360 853.0 10.6
867(16) 0.00389 853.6 10.4
877(15) 0.00407 854.1 10.3
886(16) 0.00398 854.7 10.1
844(16) 0.00392 855.3 10.0
818(16) 0.00383 855.8 9.9
859(16) 0.00391 856.4 9.7
824(15) 0.00432 856.9 9.6
867(15) 0.00407 857.5 9.5
849(16) 0.00399 858.0 9.4
851(16) 0.00376 858.6 9.3
906(16) 0.00366 859.2 9.2
899(16) 0.00395 859.7 9.2
895(16) 0.00391 860.3 9.1
904(16) 0.00361 860.8 9.0
867(16) 0.00372 861.4 8.9
853(16) 0.00388 862.0 8.9
859(15) 0.00415 862.5 8.8
884(16) 0.00388 863.1 8.8
860(16) 0.00388 863.6 8.7
890(16) 0.00369 864.2 8.7
869(16) 0.00379 864.8 8.6
846(15) 0.00425 865.3 8.6
893(16) 0.00377 865.9 8.5
867(16) 0.00382 866.4 8.5
861(16) 0.00374 867.0 8.5
881(16) 0.00380 867.6 8.4
835(15) 0.00426 868.1 8.4
895(16) 0.00381 868.7 8.4
874(16) 0.00378 869.2 8.4
876(16) 0.00368 869.8 8.4
862(16) 0.00395 870.4 8.4
837(15) 0.00426 870.9 8.3
879(16) 0.00370 871.5 8.3
882(16) 0.00371 872.0 8.3
865(16) 0.00381 872.6 8.3
873(16) 0.00398 873.2 8.3
873(15) 0.00410 873.7 8.3
893(16) 0.00372 874.3 8.3
896(16) 0.00371 874.8 8.4
877(16) 0.00392 875.4 8.4
902(16) 0.00394 876.0 8.4
862(15) 0.00415 876.5 8.4
889(16) 0.00379 877.1 8.4
890(16) 0.00361 877.6 8.4
855(16) 0.00399 878.2 8.5
844(15) 0.00422 878.8 8.5
893(16) 0.00400 879.3 8.5
890(16) 0.00384 879.9 8.6
895(17) 0.00351 880.4 8.6
884(16) 0.00373 881.0 8.6
897(16) 0.00397 881.6 8.7
916(16) 0.00384 882.1 8.7
896(16) 0.00371 882.6 8.8
890(17) 0.00352 883.1 8.8
897(16) 0.00372 883.6 8.9
929(16) 0.00384 884.1 8.9
935(16) 0.00383 884.6 9.0
933(17) 0.00356 885.1 9.0
895(17) 0.003460 885.6 9.1
869(16) 0.00375 886.1 9.2
847(15) 0.00424 886.6 9.3
915(16) 0.00391 887.1 9.3
907(16) 0.00371 887.7 9.4
888(16) 0.00365 888.2 9.5
945(17) 0.00353 888.7 9.6
942(16) 0.00378 889.2 9.7
901(16) 0.00389 889.7 9.8
868(16) 0.00379 890.2 9.9
866(16) 0.00373 890.7 10.0
890(16) 0.00379 891.2 10.1
922(16) 0.00387 891.7 10.2
930(16) 0.00366 892.2 10.3
873(16) 0.00380 892.7 10.4
919(17) 0.00352 893.2 10.6
868(16) 0.00400 893.7 10.7
916(16) 0.00391 894.2 10.8
897(16) 0.00382 894.7 11.0
913(17) 0.00355 895.2 11.1
917(16) 0.00356 895.7 11.3
923(16) 0.00369 896.2 11.5
912(16) 0.00396 896.7 11.6
918(16) 0.00375 897.2 11.8
940(17) 0.00352 897.7 12.0
914(16) 0.00360 898.2 12.2
899(16) 0.00387 898.7 12.4
864(15) 0.00414 899.2 12.6
890(16) 0.00378 899.7 12.8
908(16) 0.00360 900.2 13.0
899(16) 0.00371 900.7 13.3
891(16) 0.00393 901.2 13.5
951(16) 0.00377 901.7 13.8
909(16) 0.00374 902.3 14.0
900(16) 0.00358 902.8 14.3
877(16) 0.00376 903.3 14.6
879(15) 0.00404 903.8 14.9
899(16) 0.00400 904.3 15.2
918(16) 0.00366 904.8 15.6
921(17) 0.003450 905.3 15.9
923(16) 0.00374 905.8 16.3
915(16) 0.00387 906.3 16.7
901(16) 0.00397 906.8 17.1
934(16) 0.00366 907.3 17.5
914(17) 0.003411 907.8 17.9
905(16) 0.00370 908.3 18.4
902(16) 0.00398 908.8 18.9
949(16) 0.00377 909.3 19.4
920(16) 0.00367 909.8 19.9
969(17) 0.003219 910.3 20.5
962(17) 0.00351 910.8 21.1
961(16) 0.00372 911.3 21.7
918(16) 0.00384 911.8 22.4
941(16) 0.00357 912.3 23.0
980(17) 0.003199 912.8 23.8
943(17) 0.00353 913.3 24.6
953(16) 0.00379 913.8 25.4
921(16) 0.00382 914.3 26.2
906(16) 0.00375 914.8 27.1
959(17) 0.003365 915.3 28.1
984(17) 0.003365 915.8 29.1
945(16) 0.00378 916.4 30.2
945(16) 0.00371 916.9 31.4
945(17) 0.003472 917.4 32.6
934(17) 0.00351 917.9 34.0
910(16) 0.00372 918.4 35.4
1006(16) 0.00358 918.9 36.9
977(17) 0.003487 919.4 38.5
925(16) 0.00362 919.9 40.2
941(17) 0.00351 920.4 42.0
945(16) 0.00360 920.9 44.0
990(16) 0.00362 921.4 46.2
1031(17) 0.003268 921.9 48.5
969(17) 0.003386 922.4 51.0
984(17) 0.003379 922.9 53.7
985(17) 0.00351 923.4 56.6
982(16) 0.00366 923.9 59.8
994(17) 0.003327 924.4 63.3
968(17) 0.003374 924.9 67.1
995(17) 0.003355 925.4 71.2
992(16) 0.00359 925.9 75.9
1024(17) 0.003481 926.4 80.9
1026(17) 0.003264 926.9 86.6
1006(17) 0.003194 927.4 92.9
1030(17) 0.003261 927.9 99.9
1039(17) 0.003433 928.4 107.9
1042(17) 0.003449 928.9 116.8
1086(18) 0.003053 929.4 126.9
1093(18) 0.002913 929.9 138.5
1050(17) 0.003240 930.4 151.5
1050(17) 0.003389 931.0 166.5
1078(17) 0.003354 931.5 183.5
1097(18) 0.003071 932.0 202.9
1139(19) 0.002767 932.5 224.9
1186(19) 0.002842 933.0 250.0
1193(18) 0.003032 933.5 278.3
1214(18) 0.002959 934.0 310.2
1248(19) 0.002749 934.5 345.8
1309(20) 0.002425 935.0 385.4
1361(20) 0.002498 935.5 428.8
1420(20) 0.002541 936.0 475.7
1473(20) 0.002420 936.5 525.5
1532(21) 0.002262 937.0 576.9
1623(22) 0.001990 937.5 628.0
1691(22) 0.002029 938.0 676.1
1778(22) 0.002054 938.5 717.9
1750(22) 0.002015 939.0 749.9
1774(23) 0.001894 939.5 768.9
1715(23) 0.001901 940.0 772.8
1636(22) 0.002067 940.5 761.1
1640(21) 0.002218 941.0 735.1
1585(21) 0.002238 941.5 697.7
1559(21) 0.002146 942.0 652.2
1512(21) 0.002175 942.5 602.2
1469(21) 0.002321 943.0 550.7
1447(20) 0.002524 943.5 499.9
1404(20) 0.002505 944.0 451.4
1396(20) 0.002413 944.5 406.2
1357(20) 0.002441 945.0 364.7
1324(19) 0.002605 945.6 327.1
1323(19) 0.002732 946.1 293.4
1228(19) 0.002810 946.6 263.3
1244(19) 0.002678 947.1 236.7
1233(19) 0.002714 947.6 213.2
1193(18) 0.002862 948.1 192.5
1137(17) 0.003174 948.6 174.3
1148(18) 0.002942 949.1 158.4
1125(18) 0.002971 949.6 144.4
1158(18) 0.002875 950.1 132.1
1142(18) 0.003048 950.6 121.3
1124(17) 0.003193 951.1 111.8
1121(18) 0.003023 951.6 103.4
1114(18) 0.002903 952.1 95.9
1146(18) 0.002906 952.6 89.2
1115(17) 0.003189 953.1 83.2
1037(17) 0.003468 953.6 77.9
1075(18) 0.003144 954.1 73.0
1111(19) 0.002831 954.6 68.6
1057(17) 0.003271 955.1 64.6
1076(17) 0.003357 955.6 61.0
1060(17) 0.003399 956.1 57.6
1031(17) 0.003290 956.6 54.6
1071(18) 0.002929 957.1 51.7
1070(18) 0.003170 957.6 49.1
1076(17) 0.003344 958.1 46.7
1042(17) 0.003428 958.6 44.5
1037(17) 0.003286 959.1 42.4
1093(19) 0.002809 959.6 40.4
1021(17) 0.003248 960.2 38.6
1052(17) 0.003416 960.7 37.0
1043(17) 0.003445 961.2 35.4
989(17) 0.003332 961.7 33.9
972(17) 0.003241 962.2 32.5
1019(17) 0.003301 962.7 31.2
979(16) 0.00367 963.2 30.0
1028(17) 0.003443 963.7 28.9
1011(17) 0.003328 964.2 27.8
1040(18) 0.003084 964.7 26.8
1015(17) 0.003236 965.2 25.8
1006(16) 0.00357 965.7 24.9
975(16) 0.00360 966.2 24.1
994(17) 0.003432 966.7 23.3
1012(17) 0.003216 967.2 22.5
979(17) 0.003437 967.7 21.8
1039(17) 0.003463 968.2 21.1
983(17) 0.00351 968.7 20.4
1021(17) 0.003308 969.2 19.8
1000(17) 0.003294 969.7 19.2
1006(17) 0.003352 970.2 18.6
973(16) 0.00371 970.7 18.1
968(17) 0.00354 971.2 17.6
1030(17) 0.003220 971.7 17.1
1043(17) 0.003183 972.2 16.6
995(17) 0.003464 972.7 16.2
988(16) 0.00364 973.2 15.7
1005(17) 0.003408 973.7 15.3
1028(18) 0.003145 974.2 14.9
1006(17) 0.003287 974.8 14.5
994(17) 0.00351 975.3 14.2
1014(17) 0.00354 975.8 13.8
1011(17) 0.003343 976.3 13.5
1010(17) 0.003211 976.8 13.2
970(17) 0.00355 977.3 12.9
1009(17) 0.003470 977.8 12.6
984(16) 0.00365 978.3 12.3
1018(17) 0.003281 978.8 12.0
1047(18) 0.003017 979.3 11.7
977(17) 0.003454 979.8 11.5
1025(17) 0.003428 980.3 11.2
1011(17) 0.00353 980.8 11.0
968(16) 0.00356 981.3 10.8
1000(17) 0.003193 981.8 10.6
988(17) 0.003429 982.3 10.3
1037(17) 0.003414 982.8 10.1
1038(17) 0.003442 983.3 10.0
968(16) 0.00356 983.8 9.8
1005(18) 0.003088 984.3 9.6
980(17) 0.003438 984.8 9.4
1034(17) 0.003474 985.3 9.3
1043(17) 0.003439 985.8 9.1
1035(17) 0.003241 986.3 8.9
989(17) 0.003186 986.8 8.8
997(17) 0.003347 987.3 8.6
988(16) 0.00366 987.8 8.5
974(16) 0.00368 988.3 8.3
1000(17) 0.003330 988.9 8.2
1009(17) 0.003175 989.4 8.1
997(17) 0.003370 989.9 7.9
1024(17) 0.00353 990.4 7.8
1035(17) 0.003415 990.9 7.7
990(17) 0.003396 991.4 7.6
990(17) 0.003287 991.9 7.5
987(17) 0.003441 992.4 7.3
1007(16) 0.00357 992.9 7.2
1028(17) 0.003417 993.4 7.1
1046(18) 0.003148 993.9 7.0
1028(17) 0.003199 994.4 6.9
989(17) 0.003422 994.9 6.8
1007(16) 0.00358 995.4 6.7
979(17) 0.00354 995.9 6.6
1008(17) 0.003291 996.4 6.5
981(17) 0.003412 996.9 6.5
1035(17) 0.003314 997.4 6.4
1006(16) 0.00359 997.9 6.3
1000(17) 0.003380 998.4 6.2
1045(18) 0.003131 998.9 6.1
1027(17) 0.003225 999.4 6.1
982(17) 0.00353 999.9 6.0
1022(17) 0.00351 1000.4 5.9
961(17) 0.00355 1000.9 5.8
1004(17) 0.003215 1001.4 5.8
1016(17) 0.003236 1001.9 5.7
1016(17) 0.003434 1002.4 5.6
1064(17) 0.003390 1002.9 5.6
1061(17) 0.003200 1003.5 5.5
1038(18) 0.003119 1004.0 5.5
994(17) 0.003432 1004.5 5.4
1008(17) 0.00351 1005.0 5.3
1037(17) 0.003469 1005.5 5.3
1010(17) 0.003371 1006.0 5.2
1046(18) 0.002981 1006.5 5.2
1050(18) 0.003167 1007.0 5.1
1005(17) 0.00352 1007.5 5.1
1026(17) 0.00353 1008.0 5.0
1041(17) 0.003206 1008.5 5.0
1010(18) 0.003106 1009.0 4.9
999(17) 0.003377 1009.5 4.9
1034(17) 0.003457 1010.0 4.9
982(16) 0.00364 1010.5 4.8
1035(17) 0.003272 1011.0 4.8
1024(18) 0.003076 1011.5 4.7
1023(17) 0.003293 1012.0 4.7
1003(16) 0.00357 1012.5 4.7
1023(17) 0.003450 1013.0 4.6
1020(17) 0.003346 1013.5 4.6
1058(18) 0.003042 1014.0 4.6
1016(17) 0.003373 1014.5 4.5
1045(17) 0.003452 1015.0 4.5
1051(17) 0.003332 1015.5 4.5
1030(17) 0.003257 1016.0 4.4
1043(18) 0.003037 1016.5 4.4
1031(17) 0.003231 1017.0 4.4
1000(16) 0.00359 1017.5 4.4
1018(17) 0.003422 1018.1 4.3
1035(17) 0.003235 1018.6 4.3
1079(18) 0.003035 1019.1 4.3
1012(17) 0.003407 1019.6 4.3
990(16) 0.00364 1020.1 4.3
1047(17) 0.003325 1020.6 4.3
1044(17) 0.003263 1021.1 4.3
1044(17) 0.003262 1021.6 4.2
1037(17) 0.003297 1022.1 4.2
1019(17) 0.00354 1022.6 4.2
1021(17) 0.003372 1023.1 4.2
1039(18) 0.003170 1023.6 4.2
1027(17) 0.003286 1024.1 4.2
1071(17) 0.003230 1024.6 4.2
1016(17) 0.00355 1025.1 4.2
997(17) 0.003381 1025.6 4.2
991(17) 0.003385 1026.1 4.3
1066(18) 0.003111 1026.6 4.3
1006(17) 0.003459 1027.1 4.3
1039(17) 0.003457 1027.6 4.3
1035(17) 0.003245 1028.1 4.3
998(17) 0.003347 1028.6 4.3
1030(17) 0.003265 1029.1 4.4
1036(17) 0.003397 1029.6 4.4
1055(17) 0.003402 1030.1 4.4
1021(17) 0.003247 1030.6 4.5
1054(18) 0.003037 1031.1 4.5
1041(17) 0.003275 1031.6 4.5
1048(17) 0.003432 1032.1 4.6
1024(17) 0.003491 1032.7 4.6
1018(17) 0.003318 1033.2 4.6
1037(18) 0.003065 1033.7 4.6
1056(18) 0.003167 1034.2 4.6
1052(17) 0.003401 1034.7 4.7
1030(17) 0.003500 1035.2 4.7
1004(17) 0.003412 1035.7 4.6
1058(18) 0.002997 1036.2 4.6
1039(17) 0.003342 1036.7 4.6
1064(17) 0.003389 1037.2 4.6
1037(17) 0.003379 1037.7 4.5
1052(17) 0.003244 1038.2 4.5
1044(18) 0.003065 1038.7 4.5
1050(18) 0.003172 1039.2 4.4
1053(17) 0.003408 1039.4 4.3
1015(17) 0.003487 1039.4 4.3
1026(17) 0.003235 1039.3 4.2
1043(18) 0.003064 1039.2 4.2
1100(18) 0.003018 1039.2 4.1
1070(17) 0.003377 1039.1 4.1
1071(17) 0.003269 1039.1 4.0
1054(17) 0.003200 1039.0 3.9
1025(17) 0.003187 1039.0 3.9
1039(17) 0.003226 1038.9 3.8
1037(17) 0.003448 1038.8 3.8
1028(17) 0.003442 1038.8 3.8
1028(17) 0.003248 1038.7 3.7
1053(18) 0.003158 1038.7 3.7
1062(17) 0.003236 1038.6 3.6
1053(17) 0.003420 1038.6 3.6
1055(17) 0.003264 1038.5 3.6
1051(18) 0.003170 1038.4 3.5
1041(17) 0.003227 1038.4 3.5
1097(18) 0.003092 1038.3 3.5
1054(17) 0.003416 1038.3 3.5
1032(17) 0.003280 1038.2 3.4
1053(18) 0.003136 1038.2 3.4
1032(17) 0.003255 1038.1 3.4
1057(17) 0.003271 1038.0 3.4
1054(17) 0.003422 1038.0 3.4
1059(18) 0.003137 1037.9 3.4
1020(18) 0.003161 1037.9 3.4
1019(17) 0.003278 1037.8 3.4
1028(17) 0.003437 1037.8 3.3
1034(17) 0.003483 1037.7 3.3
1075(18) 0.003113 1037.6 3.3
1093(18) 0.002919 1037.6 3.3
1012(17) 0.003398 1037.5 3.3
1060(17) 0.003326 1037.5 3.3
1054(17) 0.003406 1037.4 3.3
1101(18) 0.003014 1037.4 3.3
1012(18) 0.003137 1037.3 3.3
1053(17) 0.003180 1037.2 3.3
1121(17) 0.003192 1037.2 3.3
1053(17) 0.003383 1037.1 3.3
1061(17) 0.003207 1037.1 3.4
1057(18) 0.002979 1037.0 3.4
1036(17) 0.003316 1037.0 3.4
1072(17) 0.003334 1036.9 3.4
1058(17) 0.003399 1036.8 3.4
1079(18) 0.003132 1036.8 3.4
1045(18) 0.003068 1036.7 3.4
1070(18) 0.003103 1036.7 3.4
1060(17) 0.003377 1036.6 3.5
1041(17) 0.003466 1036.6 3.5
1074(18) 0.003133 1036.5 3.5
1019(18) 0.003170 1036.4 3.5
1056(17) 0.003178 1036.4 3.5
1035(17) 0.003447 1036.3 3.6
1066(17) 0.003318 1036.3 3.6
1128(18) 0.002952 1036.2 3.6
1073(18) 0.003013 1036.2 3.7
1046(18) 0.003164 1036.1 3.7
1027(17) 0.003497 1036.0 3.7
1054(17) 0.003284 1036.0 3.8
1069(18) 0.003123 1035.9 3.8
1091(18) 0.002976 1035.9 3.8
1079(18) 0.003077 1035.8 3.9
1087(17) 0.003345 1035.8 3.9
1074(17) 0.003199 1035.7 4.0
1079(18) 0.003136 1035.6 4.0
1087(18) 0.003036 1035.6 4.1
1067(17) 0.003178 1035.5 4.2
1069(17) 0.003378 1035.5 4.2
1086(18) 0.003154 1035.4 4.3
1069(18) 0.003095 1035.4 4.3
1081(18) 0.003033 1035.3 4.4
1088(17) 0.003213 1035.2 4.5
1050(17) 0.003411 1035.2 4.6
1033(17) 0.003236 1035.1 4.7
1054(18) 0.003099 1035.1 4.8
1089(18) 0.003081 1035.0 4.8
1084(17) 0.003258 1035.0 5.0
1087(17) 0.003324 1034.9 5.1
1118(18) 0.003092 1034.8 5.2
1098(18) 0.002935 1034.8 5.3
1015(17) 0.003327 1034.7 5.4
1054(17) 0.003386 1034.7 5.6
1088(17) 0.003316 1034.6 5.7
1073(18) 0.003138 1034.6 5.9
1034(18) 0.003117 1034.5 6.0
1064(18) 0.003163 1034.4 6.2
1053(17) 0.003390 1034.4 6.4
1033(17) 0.003461 1034.3 6.6
1051(17) 0.003266 1034.3 6.8
1034(18) 0.003091 1034.2 7.0
1058(18) 0.003098 1034.1 7.3
1083(17) 0.003279 1034.1 7.4
1079(17) 0.003342 1034.0 7.7
1099(18) 0.003092 1034.0 8.0
1077(18) 0.002968 1033.9 8.3
1027(17) 0.003327 1033.9 8.7
1074(17) 0.003355 1033.8 9.1
1094(17) 0.003245 1033.7 9.5
1048(17) 0.003251 1033.7 10.0
1068(18) 0.002975 1033.6 10.5
1046(17) 0.003265 1033.6 11.0
1089(17) 0.003291 1033.5 11.6
1078(17) 0.003272 1033.5 12.2
1094(18) 0.003060 1033.4 12.9
1074(18) 0.003041 1033.3 13.7
1045(17) 0.003173 1033.3 14.5
1069(17) 0.003364 1033.2 15.4
1087(18) 0.003149 1033.2 16.4
1041(17) 0.003192 1033.1 17.5
1080(18) 0.003047 1033.1 18.7
1079(18) 0.003133 1033.0 20.0
1017(17) 0.003503 1032.9 21.4
1122(18) 0.003076 1032.9 22.9
1042(17) 0.003286 1032.8 24.5
1078(18) 0.003033 1032.8 26.3
1108(18) 0.003055 1032.7 28.2
1076(17) 0.003363 1032.7 30.2
1073(17) 0.003186 1032.6 32.4
1102(18) 0.002944 1032.5 34.6
1102(18) 0.003022 1032.5 36.9
1080(17) 0.003223 1032.4 39.3
1071(17) 0.003372 1032.4 41.6
1077(18) 0.003105 1032.3 43.9
1097(18) 0.003001 1032.3 46.1
1126(18) 0.003012 1032.2 48.0
1142(18) 0.003094 1032.1 49.7
1075(17) 0.003349 1032.1 50.9
1061(18) 0.003125 1032.0 51.7
1073(18) 0.002986 1032.0 52.0
1123(18) 0.002926 1031.9 51.8
1076(17) 0.003329 1031.9 51.0
1090(17) 0.003311 1031.8 49.9
1090(18) 0.003097 1031.7 48.3
1135(19) 0.002790 1031.7 46.4
1077(17) 0.003183 1031.6 44.2
1151(18) 0.003081 1031.6 42.0
1077(17) 0.003340 1031.5 39.6
1081(18) 0.003086 1031.5 37.2
1093(19) 0.002845 1031.4 34.9
1074(18) 0.003146 1031.3 32.6
1060(17) 0.003398 1031.3 30.4
1074(17) 0.003316 1031.2 28.4
1065(17) 0.003177 1031.2 26.5
1071(18) 0.002902 1031.1 24.7
1049(17) 0.003209 1031.1 23.0
1058(17) 0.003393 1031.0 21.5
1083(17) 0.003299 1030.9 20.0
1065(17) 0.003226 1030.9 18.7
1084(18) 0.002902 1030.8 17.5
1056(17) 0.003188 1030.8 16.4
1015(16) 0.00356 1030.7 15.4
1062(17) 0.003352 1030.7 14.5
1063(17) 0.003235 1030.6 13.6
1093(18) 0.002945 1030.5 12.8
1103(18) 0.003014 1030.5 12.1
1089(17) 0.003312 1030.4 11.4
1059(17) 0.003322 1030.4 10.8
1049(17) 0.003205 1030.3 10.3
1082(18) 0.002953 1030.3 9.8
1082(18) 0.003073 1030.2 9.3
1054(17) 0.003409 1030.1 8.8
1042(17) 0.003333 1030.1 8.4
1085(18) 0.003077 1030.0 8.1
1098(18) 0.002980 1030.0 7.7
1038(17) 0.003282 1029.9 7.4
1083(17) 0.003322 1029.9 7.1
1087(18) 0.003133 1029.8 6.8
1076(18) 0.003154 1029.7 6.6
1035(17) 0.003275 1029.7 6.3
1095(18) 0.003105 1029.6 6.1
1066(17) 0.003395 1029.6 5.9
1100(18) 0.003082 1029.5 5.7
1093(18) 0.002993 1029.5 5.5
1047(17) 0.003244 1029.4 5.3
1043(17) 0.003415 1029.3 5.1
1050(17) 0.003411 1029.3 5.0
1064(18) 0.003139 1029.2 4.8
1058(18) 0.003027 1029.2 4.7
1065(18) 0.003155 1029.1 4.5
1078(17) 0.003313 1029.0 4.4
1045(17) 0.003441 1029.0 4.3
1081(18) 0.003050 1028.9 4.2
1059(18) 0.003026 1028.9 4.1
1078(18) 0.003073 1028.8 4.0
1043(17) 0.003435 1028.8 3.9
1051(17) 0.003422 1028.7 3.8
1040(17) 0.003220 1028.6 3.7
1008(17) 0.003203 1028.6 3.6
1079(18) 0.003101 1028.5 3.5
1040(17) 0.003425 1028.5 3.4
1034(17) 0.003483 1028.4 3.4
995(17) 0.003433 1028.4 3.3
1057(18) 0.003040 1028.3 3.2
1098(18) 0.003086 1028.2 3.2
1071(17) 0.003342 1028.2 3.1
1087(17) 0.003256 1028.1 3.0
1064(17) 0.003214 1028.1 3.0
1086(18) 0.002936 1028.0 2.9
1053(17) 0.003218 1028.0 2.9
1005(16) 0.00357 1027.9 2.8
1075(17) 0.003290 1027.8 2.8
1042(17) 0.003222 1027.8 2.7
1047(18) 0.003094 1027.7 2.7
1115(18) 0.003034 1027.7 2.6
1070(17) 0.003366 1027.6 2.6
1044(17) 0.003351 1027.6 2.5
1072(18) 0.003140 1027.5 2.5
1032(17) 0.003200 1027.4 2.5
1058(18) 0.003161 1027.4 2.4
1053(17) 0.003402 1027.3 2.4
1033(17) 0.003407 1027.3 2.4
1058(18) 0.003052 1027.2 2.3
999(17) 0.003269 1027.2 2.3
1098(18) 0.003087 1027.1 2.3
1091(17) 0.003315 1027.0 2.2
1004(17) 0.003423 1027.0 2.2
1032(18) 0.003168 1026.9 2.2
1053(18) 0.003098 1026.9 2.1
1046(17) 0.003292 1026.8 2.1
1077(17) 0.003329 1026.8 2.1
1047(17) 0.003237 1026.7 2.1
1041(17) 0.003194 1026.6 2.0
1084(18) 0.003042 1026.6 2.0
1124(18) 0.003115 1026.5 2.0
1071(17) 0.003366 1026.5 2.0
1078(18) 0.003151 1026.4 2.0
1095(18) 0.003008 1026.4 1.9
1091(18) 0.003071 1026.3 1.9
1037(17) 0.003423 1026.2 1.9
1028(17) 0.003482 1026.2 1.9
1073(18) 0.003105 1026.1 1.9
1076(18) 0.003017 1026.1 1.8
1037(17) 0.003304 1026.0 1.8
1068(17) 0.003345 1026.0 1.8
1029(17) 0.003498 1025.9 1.8
1037(17) 0.003289 1025.8 1.8
1064(18) 0.003047 1025.8 1.8
1099(18) 0.003047 1025.7 1.7
1070(17) 0.003334 1025.7 1.7
1018(17) 0.00354 1025.6 1.7
1049(17) 0.003187 1025.6 1.7
1037(18) 0.002984 1025.5 1.7
1018(17) 0.003359 1025.4 1.7
1074(17) 0.003364 1025.4 1.6
1071(17) 0.003326 1025.3 1.6
1074(18) 0.003130 1025.3 1.6
1084(18) 0.002879 1025.2 1.6
1043(17) 0.003248 1025.2 1.6
1086(17) 0.003325 1025.1 1.6
1031(17) 0.003466 1025.0 1.6
1057(17) 0.003195 1025.0 1.6
1049(18) 0.003105 1024.9 1.5
1130(18) 0.002981 1024.9 1.5
1063(17) 0.003370 1024.8 1.5
1033(17) 0.003368 1024.8 1.5
1036(17) 0.003275 1024.7 1.5
1086(18) 0.003039 1024.6 1.5
1143(18) 0.002921 1024.6 1.5
1030(17) 0.003478 1024.5 1.5
1027(17) 0.003397 1024.5 1.5
1041(17) 0.003198 1024.4 1.5
1031(17) 0.003219 1024.4 1.4
1064(17) 0.003185 1024.3 1.4
1051(17) 0.003429 1024.2 1.4
1039(17) 0.003311 1024.2 1.4
1056(18) 0.003143 1024.1 1.4
1052(18) 0.003108 1024.1 1.4
1028(17) 0.003297 1024.0 1.4
1033(17) 0.003501 1024.0 1.4
1043(17) 0.003264 1023.9 1.4
1072(18) 0.003053 1023.8 1.4
1039(17) 0.003224 1023.8 1.4
1116(18) 0.003148 1023.7 1.4
1047(17) 0.003394 1023.7 1.4
1032(17) 0.003275 1023.6 1.4
1007(17) 0.003217 1023.5 1.4
1048(17) 0.003205 1023.5 1.4
989(17) 0.003490 1023.4 1.4
1023(17) 0.003491 1023.4 1.4
1039(17) 0.003255 1023.3 1.4
1046(18) 0.003047 1023.3 1.4
1030(17) 0.003321 1023.2 1.4
1053(17) 0.003312 1023.1 1.4
1048(17) 0.003469 1023.1 1.4
1003(17) 0.003350 1023.0 1.4
1029(18) 0.003102 1023.0 1.4
1025(17) 0.003284 1022.9 1.4
1042(17) 0.003434 1022.9 1.4
1076(17) 0.003315 1022.8 1.4
1028(17) 0.003180 1022.7 1.3
1033(18) 0.003036 1022.7 1.3
1070(18) 0.003093 1022.6 1.3
1079(17) 0.003321 1022.6 1.3
1032(17) 0.003454 1022.5 1.3
1060(18) 0.003092 1022.5 1.3
1024(18) 0.003046 1022.4 1.3
1010(17) 0.003275 1022.3 1.3
1030(17) 0.003503 1022.3 1.3
1017(17) 0.003452 1022.2 1.3
1053(17) 0.003200 1022.2 1.3
1064(18) 0.002935 1022.1 1.3
1022(17) 0.003316 1022.1 1.3
1008(16) 0.00356 1022.0 1.3
1032(17) 0.003317 1021.9 1.3
1052(18) 0.003165 1021.9 1.3
1041(18) 0.003066 1021.8 1.3
1074(18) 0.003130 1021.8 1.3
987(16) 0.00357 1021.7 1.3
1033(17) 0.003377 1021.7 1.3
998(17) 0.003332 1021.6 1.3
1020(18) 0.003171 1021.5 1.3
1075(17) 0.003200 1021.5 1.3
1072(17) 0.003319 1021.4 1.3
1053(17) 0.003264 1021.4 1.3
1034(18) 0.003126 1021.3 1.2
1014(17) 0.003299 1021.3 1.2
1073(17) 0.003218 1021.2 1.2
1069(17) 0.003362 1021.1 1.2
1040(17) 0.003277 1021.1 1.2
1035(17) 0.003224 1021.0 1.2
1057(17) 0.003204 1021.0 1.2
1027(17) 0.003362 1020.9 1.2
1044(17) 0.003441 1020.9 1.2
1069(18) 0.003117 1020.8 1.2
1024(18) 0.003152 1020.5 1.2
973(17) 0.003495 1020.0 1.2
1015(17) 0.003487 1019.5 1.2
1053(17) 0.003419 1019.0 1.2
995(17) 0.003327 1018.5 1.2
1026(18) 0.003136 1018.0 1.2
1025(17) 0.003331 1017.5 1.2
1022(17) 0.003456 1017.0 1.2
1018(16) 0.00356 1016.5 1.2
997(17) 0.003472 1015.9 1.2
1018(18) 0.003170 1015.4 1.2
1077(18) 0.003131 1014.9 1.2
1050(17) 0.003363 1014.4 1.2
1056(17) 0.003403 1013.9 1.2
1053(17) 0.003196 1013.4 1.2
1034(18) 0.003061 1012.9 1.2
1020(17) 0.003372 1012.4 1.2
1026(17) 0.003474 1011.9 1.2
1038(17) 0.003437 1011.4 1.2
1034(17) 0.003253 1010.9 1.2
981(17) 0.003188 1010.4 1.2
1049(17) 0.003226 1009.9 1.2
1049(17) 0.003444 1009.4 1.2
995(17) 0.00355 1008.8 1.2
975(17) 0.00352 1008.3 1.2
1007(17) 0.003181 1007.8 1.2
1003(17) 0.003399 1007.3 1.2
1005(16) 0.00358 1006.8 1.2
992(17) 0.00354 1006.3 1.2
967(17) 0.003460 1005.8 1.2
1007(17) 0.003199 1005.3 1.2
1028(17) 0.003296 1004.8 1.2
1073(17) 0.003374 1004.3 1.2
982(17) 0.00355 1003.8 1.2
1015(17) 0.003318 1003.3 1.2
1022(17) 0.003182 1002.8 1.2
1020(17) 0.003215 1002.2 1.2
1036(17) 0.003471 1001.7 1.2
981(16) 0.00361 1001.2 1.2
996(17) 0.003334 1000.7 1.2
993(17) 0.003310 1000.2 1.2
990(17) 0.003425 999.7 1.2
1023(17) 0.00353 999.2 1.2
990(17) 0.003491 998.7 1.2
1006(17) 0.003233 998.2 1.2
987(17) 0.003386 997.7 1.2
1044(17) 0.003317 997.2 1.2
1046(17) 0.003435 996.7 1.2
1015(17) 0.003306 996.2 1.2
1010(17) 0.003222 995.6 1.2
995(17) 0.003389 995.1 1.2
979(16) 0.00360 994.6 1.2
986(16) 0.00363 994.1 1.2
1033(17) 0.003230 993.6 1.2
991(17) 0.003269 993.1 1.2
1009(17) 0.003280 992.6 1.2
982(16) 0.00362 992.1 1.2
979(16) 0.00367 991.6 1.2
1046(17) 0.003172 991.1 1.2
1020(18) 0.003164 990.6 1.2
1044(17) 0.003228 990.1 1.2
963(16) 0.00368 989.6 1.2
993(16) 0.00361 989.1 1.2
998(17) 0.003356 988.5 1.2
1016(18) 0.003120 988.0 1.2
993(17) 0.003458 987.5 1.2
971(16) 0.00368 987.0 1.2
981(16) 0.00368 986.5 1.2
1003(17) 0.003349 986.0 1.2
981(17) 0.003209 985.5 1.2
978(17) 0.003489 985.0 1.2
994(16) 0.00362 984.5 1.2
1014(17) 0.00351 984.0 1.2
981(17) 0.003329 983.5 1.2
990(17) 0.003218 983.0 1.2
1004(17) 0.003355 982.5 1.2
1008(16) 0.00358 981.9 1.2
989(16) 0.00357 981.4 1.2
999(17) 0.003390 980.9 1.2
985(17) 0.003334 980.4 1.2
1010(17) 0.003320 979.9 1.2
968(16) 0.00375 979.4 1.2
976(17) 0.00355 978.9 1.2
1013(17) 0.003314 978.4 1.2
961(17) 0.00351 977.9 1.2
999(17) 0.003403 977.4 1.2
1020(17) 0.00353 976.9 1.2
996(17) 0.00353 976.4 1.2
1024(17) 0.003262 975.9 1.2
979(17) 0.003386 975.3 1.2
965(17) 0.003492 974.8 1.2
962(16) 0.00374 974.3 1.2
993(17) 0.003416 973.8 1.2
978(17) 0.003353 973.3 1.2
1012(17) 0.003243 972.8 1.2
1032(17) 0.003349 972.3 1.2
957(16) 0.00377 971.8 1.2
961(17) 0.00352 971.3 1.2
990(17) 0.003319 970.8 1.2
1020(17) 0.003220 970.3 1.2
974(17) 0.00353 969.8 1.2
946(16) 0.00382 969.3 1.2
972(17) 0.003435 968.8 1.2
975(17) 0.003339 968.2 1.2
983(17) 0.003414 967.7 1.2
974(16) 0.00368 967.2 1.2
984(16) 0.00366 966.7 1.2
989(17) 0.003394 966.2 1.2
1057(18) 0.002942 965.7 1.2
976(17) 0.003491 965.2 1.2
982(16) 0.00358 964.7 1.2
910(16) 0.00396 964.2 1.2
949(17) 0.00351 963.7 1.2
951(17) 0.003367 963.2 1.2
958(16) 0.00358 962.7 1.2
1003(16) 0.00356 962.2 1.2
1026(17) 0.003493 961.6 1.2
995(17) 0.003365 961.1 1.2
1006(18) 0.003107 960.6 1.3
969(17) 0.00355 960.1 1.3
938(16) 0.00384 959.6 1.3
1000(17) 0.00351 959.1 1.3
976(17) 0.003488 958.6 1.3
1006(18) 0.003133 958.1 1.3
979(17) 0.003427 957.6 1.3
961(16) 0.00374 957.1 1.3
967(16) 0.00364 956.6 1.3
947(17) 0.00354 956.1 1.3
987(17) 0.003197 955.6 1.3
966(17) 0.003478 955.0 1.3
960(16) 0.00376 954.5 1.3
1003(17) 0.003480 954.0 1.3
987(17) 0.003451 953.5 1.3
968(17) 0.003360 953.0 1.3
932(17) 0.00354 952.5 1.3
949(16) 0.00377 952.0 1.3
950(16) 0.00368 951.5 1.3
975(17) 0.003425 951.0 1.3
961(17) 0.003355 950.5 1.3
940(17) 0.00355 950.0 1.3
1004(16) 0.00360 949.5 1.3
989(17) 0.003489 949.0 1.3
975(17) 0.003499 948.5 1.3
987(17) 0.003387 947.9 1.3
984(17) 0.003437 947.4 1.4
971(16) 0.00371 946.9 1.4
957(17) 0.00353 946.4 1.4
962(17) 0.003462 945.9 1.4
981(17) 0.003447 945.4 1.4
987(17) 0.00354 944.9 1.4
927(16) 0.00386 944.4 1.4
984(17) 0.003404 943.9 1.4
944(17) 0.003418 943.4 1.4
895(16) 0.00373 942.9 1.4
914(16) 0.00382 942.4 1.4
922(16) 0.00388 941.9 1.4
956(17) 0.003488 941.3 1.4
984(17) 0.003234 940.8 1.4
995(17) 0.003410 940.3 1.4
967(16) 0.00365 939.8 1.4
936(16) 0.00382 939.3 1.4
969(17) 0.00354 938.8 1.5
956(17) 0.003342 938.3 1.5
972(17) 0.003456 937.8 1.5
973(16) 0.00368 937.3 1.5
929(16) 0.00384 936.8 1.5
950(16) 0.00356 936.3 1.5
951(17) 0.003253 935.8 1.5
943(16) 0.00358 935.3 1.5
963(16) 0.00369 934.7 1.5
962(16) 0.00371 934.2 1.5
936(16) 0.00364 933.7 1.5
968(17) 0.003211 933.2 1.5
945(17) 0.00353 932.7 1.5
979(16) 0.00361 932.2 1.6
943(16) 0.00377 931.7 1.6
941(16) 0.00357 931.2 1.6
937(17) 0.003389 930.7 1.6
957(17) 0.003485 930.2 1.6
924(16) 0.00388 929.7 1.6
945(16) 0.00373 929.2 1.6
974(17) 0.003467 928.7 1.6
911(17) 0.00355 928.2 1.6
937(17) 0.00353 927.6 1.6
914(16) 0.00390 927.1 1.7
968(16) 0.00357 926.6 1.7
942(17) 0.00355 926.1 1.7
923(17) 0.00353 925.6 1.7
937(17) 0.003478 925.1 1.7
961(16) 0.00372 924.6 1.7
897(16) 0.00380 924.1 1.7
921(16) 0.00357 923.6 1.7
928(16) 0.00357 923.1 1.8
901(16) 0.00383 922.6 1.8
916(16) 0.00391 922.1 1.8
932(16) 0.00372 921.6 1.8
903(16) 0.00368 921.0 1.8
886(16) 0.00379 920.5 1.8
887(16) 0.00391 920.0 1.8
904(16) 0.00399 919.5 1.9
907(16) 0.00374 919.0 1.9
987(17) 0.003263 918.5 1.9
942(16) 0.00358 918.0 1.9
973(16) 0.00358 917.5 1.9
940(16) 0.00380 917.0 2.0
920(16) 0.00365 916.5 2.0
932(17) 0.003442 916.0 2.0
929(16) 0.00364 915.5 2.0
910(16) 0.00386 915.0 2.0
913(16) 0.00393 914.4 2.1
916(16) 0.00375 913.9 2.1
957(17) 0.003344 913.4 2.1
942(16) 0.00359 912.9 2.1
929(16) 0.00381 912.4 2.2
932(16) 0.00384 911.9 2.2
957(17) 0.003490 911.4 2.2
920(17) 0.003380 910.9 2.3
960(17) 0.003445 910.4 2.3
898(16) 0.00398 909.9 2.3
898(16) 0.00397 909.3 2.4
843(16) 0.00398 908.8 2.4
897(17) 0.00353 908.3 2.4
948(16) 0.00360 907.8 2.5
913(16) 0.00395 907.3 2.5
939(16) 0.00380 906.8 2.5
925(16) 0.00359 906.3 2.6
912(17) 0.003503 905.7 2.6
904(16) 0.00374 905.2 2.7
953(16) 0.00375 904.7 2.7
938(16) 0.00373 904.2 2.8
887(16) 0.00376 903.7 2.8
906(17) 0.00353 903.2 2.9
944(17) 0.003498 902.7 3.0
887(15) 0.00404 902.1 3.0
920(16) 0.00377 901.6 3.1
894(16) 0.00379 901.1 3.2
900(16) 0.00361 900.6 3.3
893(16) 0.00369 900.1 3.3
910(16) 0.00393 899.6 3.4
922(16) 0.00374 899.0 3.5
915(16) 0.00362 898.5 3.6
911(16) 0.00364 898.0 3.7
903(16) 0.00376 897.5 3.8
918(16) 0.00392 897.0 4.0
892(16) 0.00385 896.5 4.1
913(16) 0.00360 896.0 4.2
910(16) 0.00363 895.4 4.4
901(16) 0.00374 894.9 4.5
915(16) 0.00393 894.4 4.7
868(16) 0.00396 893.9 4.9
890(16) 0.00366 893.4 5.1
908(16) 0.00371 892.9 5.3
920(16) 0.00375 892.4 5.5
928(16) 0.00386 891.8 5.7
899(16) 0.00379 891.3 6.0
894(16) 0.00360 890.8 6.3
907(16) 0.00373 890.3 6.5
846(15) 0.00417 889.8 6.8
892(15) 0.00402 889.3 7.2
892(16) 0.00381 888.7 7.5
913(16) 0.00360 888.2 7.8
926(16) 0.00369 887.7 8.2
891(16) 0.00398 887.2 8.6
860(15) 0.00420 886.7 8.9
919(16) 0.00360 886.2 9.3
896(16) 0.00357 885.7 9.7
919(16) 0.00367 885.1 10.0
915(16) 0.00392 884.6 10.4
888(15) 0.00405 884.1 10.7
883(16) 0.00375 883.6 11.0
890(17) 0.003444 883.1 11.2
924(16) 0.00365 882.6 11.4
898(16) 0.00400 882.1 11.5
910(16) 0.00391 881.5 11.6
875(16) 0.00390 881.0 11.5
930(17) 0.003309 880.5 11.5
880(16) 0.00379 880.0 11.3
903(16) 0.00399 879.5 11.1
893(16) 0.00394 879.0 10.9
898(16) 0.00370 878.4 10.6
910(17) 0.003499 877.9 10.3
881(16) 0.00378 877.4 10.0
894(16) 0.00401 876.9 9.7
890(16) 0.00392 876.4 9.3
874(16) 0.00381 875.9 9.0
873(16) 0.00367 875.4 8.7
890(16) 0.00366 874.8 8.3
913(16) 0.00388 874.3 8.0
922(16) 0.00379 873.8 7.7
917(16) 0.00364 873.3 7.5
894(16) 0.00360 872.8 7.2
887(16) 0.00376 872.3 7.0
904(16) 0.00396 871.8 6.7
885(16) 0.00392 871.2 6.5
919(16) 0.00364 870.7 6.4
886(16) 0.00373 870.2 6.2
849(15) 0.00402 869.7 6.0
834(15) 0.00427 869.2 5.9
829(15) 0.00414 868.7 5.7
839(16) 0.00392 868.1 5.6
839(15) 0.00407 867.6 5.5
891(16) 0.00395 867.1 5.4
884(15) 0.00405 866.6 5.3
856(16) 0.00390 866.1 5.2
868(16) 0.00371 865.6 5.2
853(16) 0.00390 865.1 5.1
915(16) 0.00384 864.5 5.0
876(15) 0.00405 864.0 5.0
901(16) 0.00361 863.5 4.9
828(16) 0.00392 863.0 4.9
853(16) 0.00393 862.5 4.9
892(16) 0.00388 862.0 4.9
871(15) 0.00415 861.5 4.8
879(16) 0.00384 860.9 4.8
861(16) 0.00372 860.4 4.8
848(16) 0.00392 859.9 4.8
850(15) 0.00418 859.4 4.8
898(16) 0.00398 858.9 4.8
867(16) 0.00384 858.4 4.8
844(16) 0.00366 857.8 4.9
864(16) 0.00381 857.3 4.9
832(15) 0.00429 856.8 4.9
867(15) 0.00410 856.3 4.9
834(15) 0.00404 855.8 5.0
879(16) 0.00361 855.3 5.0
830(15) 0.00408 854.8 5.0
853(15) 0.00419 854.2 5.1
866(15) 0.00409 853.7 5.1
837(15) 0.00403 853.2 5.2
832(16) 0.00387 852.7 5.2
857(16) 0.00391 852.2 5.3
859(15) 0.00416 851.7 5.3
863(15) 0.00408 851.2 5.4
867(16) 0.00387 850.6 5.5
858(16) 0.00378 850.1 5.5
852(16) 0.00390 849.6 5.6
874(15) 0.00409 849.1 5.7
841(15) 0.00417 848.6 5.8
851(16) 0.00392 848.1 5.9
845(16) 0.00385 847.5 6.0
845(16) 0.00399 847.0 6.1
862(15) 0.00416 846.5 6.2
837(15) 0.00415 846.0 6.3
890(16) 0.00374 845.5 6.4
843(16) 0.00391 845.0 6.5
866(16) 0.00394 844.5 6.7
868(15) 0.00413 843.9 6.8
836(15) 0.00407 843.4 6.9
854(16) 0.00391 842.9 7.1
866(16) 0.00388 842.4 7.3
869(16) 0.00396 841.9 7.4
850(15) 0.00423 841.4 7.6
858(16) 0.00382 840.9 7.8
837(16) 0.00387 840.3 8.0
853(16) 0.00389 839.8 8.2
888(16) 0.00400 839.3 8.4
875(15) 0.00406 838.8 8.6
888(16) 0.00369 838.3 8.9
907(17) 0.003474 837.8 9.1
892(16) 0.00376 837.2 9.4
854(15) 0.00414 836.7 9.7
853(15) 0.00421 836.2 10.0
858(16) 0.00386 835.7 10.3
856(16) 0.00374 835.2 10.7
890(16) 0.00380 834.7 11.0
893(16) 0.00399 834.2 11.4
828(15) 0.00431 833.6 11.9
802(15) 0.00421 833.1 12.3
830(16) 0.00380 832.6 12.8
845(16) 0.00396 832.1 13.3
892(16) 0.00399 831.6 13.8
811(15) 0.00435 831.1 14.4
859(16) 0.00388 830.6 15.1
861(16) 0.00363 830.0 15.8
833(15) 0.00410 829.5 16.5
830(15) 0.00430 829.0 17.3
854(15) 0.00414 828.5 18.2
814(15) 0.00415 828.0 19.1
856(16) 0.00369 827.5 20.2
913(16) 0.00368 826.9 21.3
850(15) 0.00421 826.4 22.6
847(15) 0.00412 825.9 23.9
862(16) 0.00380 825.4 25.5
866(16) 0.00373 824.9 27.1
865(16) 0.00384 824.4 29.0
881(15) 0.00403 823.9 31.1
875(16) 0.00398 823.3 33.4
861(16) 0.00382 822.8 36.0
880(16) 0.00363 822.3 38.9
883(16) 0.00380 821.8 42.3
855(15) 0.00418 821.3 46.1
886(16) 0.00397 820.8 50.5
903(16) 0.00372 820.3 55.6
884(16) 0.00379 819.7 61.6
869(16) 0.00397 819.2 68.6
868(15) 0.00413 818.7 77.2
909(16) 0.00373 818.2 87.7
922(16) 0.00357 817.7 101.0
932(17) 0.00351 817.2 118.1
947(16) 0.00367 816.6 140.5
997(16) 0.00360 816.1 170.1
983(17) 0.003451 815.6 209.1
1025(18) 0.003149 815.1 260.0
1126(18) 0.002964 814.6 325.2
1170(18) 0.003035 814.1 406.5
1284(19) 0.002815 813.6 504.2
1356(20) 0.002501 813.0 616.0
1440(21) 0.002292 812.5 734.9
1593(21) 0.002163 812.0 846.5
1672(21) 0.002150 811.5 928.5
1815(22) 0.002008 811.0 957.7
1770(23) 0.001915 810.5 924.4
1713(23) 0.001866 810.0 839.7
1526(21) 0.002243 809.4 727.0
1435(20) 0.002525 808.9 608.3
1311(19) 0.002776 808.4 497.3
1185(18) 0.002865 807.9 400.8
1099(19) 0.002847 807.4 320.8
1085(18) 0.003107 806.9 256.7
1038(17) 0.003426 806.3 206.7
1027(17) 0.003485 805.8 168.5
966(16) 0.00356 805.3 139.5
973(17) 0.003308 804.8 117.6
932(16) 0.00369 804.3 100.9
897(15) 0.00403 803.8 87.9
898(16) 0.00392 803.3 77.6
877(16) 0.00389 802.7 69.3
884(16) 0.00364 802.2 62.4
870(16) 0.00380 801.7 56.5
898(16) 0.00398 801.2 51.6
836(15) 0.00424 800.7 47.3
846(16) 0.00401 800.2 43.6
860(16) 0.00384 799.7 40.4
871(16) 0.00385 799.1 37.5
832(15) 0.00431 798.6 35.0
811(15) 0.00432 798.1 32.8
839(16) 0.00394 797.6 30.8
827(16) 0.00387 797.1 29.1
810(15) 0.00412 796.6 27.5
814(15) 0.00438 796.0 26.1
797(15) 0.00428 795.5 24.8
841(16) 0.00397 795.0 23.6
847(16) 0.00387 794.5 22.6
777(15) 0.00438 794.0 21.6
772(14) 0.00463 793.5 20.8
813(15) 0.00417 793.0 20.0
804(15) 0.00411 792.4 19.3
798(15) 0.00414 791.9 18.7
806(15) 0.00414 791.4 18.1
818(15) 0.00438 790.9 17.6
808(15) 0.00420 790.4 17.1
797(15) 0.00407 789.9 16.6
807(15) 0.00412 789.4 16.2
824(15) 0.00421 788.8 15.8
788(15) 0.00451 788.3 15.5
757(15) 0.00440 787.8 15.2
808(16) 0.00389 787.3 14.9
810(15) 0.00410 786.8 14.7
795(15) 0.00444 786.3 14.5
789(15) 0.00453 785.7 14.3
814(15) 0.00410 785.2 14.1
812(15) 0.00402 784.7 13.9
829(15) 0.00412 784.2 13.8
791(15) 0.00447 783.7 13.7
751(14) 0.00478 783.2 13.6
781(15) 0.00425 782.7 13.5
785(16) 0.00393 782.1 13.4
799(15) 0.00416 781.6 13.4
753(14) 0.00470 781.1 13.3
760(14) 0.00464 780.6 13.3
790(15) 0.00424 780.1 13.3
766(15) 0.00408 779.6 13.3
786(15) 0.00426 779.1 13.3
791(15) 0.00452 778.5 13.3
771(14) 0.00459 778.0 13.4
747(15) 0.00439 777.5 13.4
766(15) 0.00408 777.0 13.5
790(15) 0.00419 776.5 13.6
792(15) 0.00453 776.1 13.7
783(15) 0.00456 775.6 13.8
767(15) 0.00432 775.2 13.9
763(15) 0.00418 774.7 14.1
771(15) 0.00432 774.3 14.2
774(14) 0.00462 773.8 14.4
773(15) 0.00449 773.4 14.6
752(15) 0.00447 772.9 14.8
763(15) 0.00429 772.4 15.1
788(15) 0.00420 772.0 15.3
780(15) 0.00454 771.5 15.6
756(15) 0.00455 771.1 15.8
799(15) 0.00422 770.6 16.1
794(15) 0.00419 770.2 16.4
788(15) 0.00420 769.7 16.6
799(15) 0.00449 769.2 16.9
783(15) 0.00429 768.8 17.1
791(15) 0.00403 768.3 17.4
774(15) 0.00421 767.9 17.7
791(15) 0.00439 767.4 18.0
775(14) 0.00460 767.0 18.4
779(15) 0.00434 766.5 18.8
803(15) 0.00403 766.0 19.2
775(15) 0.00429 765.6 19.6
772(15) 0.00450 765.1 20.1
809(15) 0.00440 764.7 20.6
738(15) 0.00448 764.2 21.2
720(15) 0.00445 763.8 21.7
760(15) 0.00429 763.3 22.3
783(15) 0.00442 762.9 23.0
768(14) 0.00467 762.4 23.6
776(15) 0.00429 761.9 24.4
791(16) 0.00398 761.5 25.1
785(15) 0.00419 761.0 25.9
778(15) 0.00451 760.6 26.8
811(15) 0.00439 760.1 27.7
761(15) 0.00444 759.7 28.7
783(16) 0.00398 759.2 29.7
788(15) 0.00427 758.7 30.8
788(15) 0.00447 758.3 32.0
769(14) 0.00460 757.8 33.2
802(15) 0.00412 757.4 34.5
797(16) 0.00389 756.9 35.9
798(15) 0.00424 756.5 37.5
771(14) 0.00462 756.0 39.1
772(14) 0.00461 755.5 40.8
751(15) 0.00453 755.1 42.7
751(15) 0.00419 754.6 44.7
760(15) 0.00432 754.2 46.9
763(14) 0.00468 753.7 49.2
748(14) 0.00468 753.3 51.8
781(15) 0.00425 752.8 54.5
746(15) 0.00430 752.4 57.5
786(15) 0.00419 751.9 60.7
801(15) 0.00447 751.4 64.2
809(15) 0.00443 751.0 68.1
802(15) 0.00422 750.5 72.3
821(16) 0.00386 750.1 77.0
806(15) 0.00417 749.6 82.1
814(15) 0.00438 749.2 87.8
844(15) 0.00408 748.7 94.1
768(15) 0.00438 748.2 101.1
804(15) 0.00403 747.8 109.0
848(16) 0.00392 747.3 117.9
838(15) 0.00428 746.9 127.9
844(15) 0.00405 746.4 139.2
837(15) 0.00402 746.0 152.1
854(16) 0.00385 745.5 166.8
862(15) 0.00402 745.1 183.5
901(16) 0.00398 744.6 202.6
942(16) 0.00362 744.1 224.4
976(17) 0.003360 743.7 249.3
1016(17) 0.003314 743.2 277.7
1065(17) 0.003218 742.8 309.9
1063(17) 0.003396 742.3 346.3
1062(17) 0.003200 741.9 387.1
1145(19) 0.002836 741.4 432.4
1229(19) 0.002703 740.9 482.1
1325(19) 0.002627 740.5 535.5
1444(20) 0.002519 740.0 591.4
1493(21) 0.002272 739.6 647.7
1548(22) 0.002076 739.1 701.4
1572(21) 0.002134 738.7 748.5
1620(21) 0.002197 738.2 784.6
1556(20) 0.002356 737.7 805.9
1506(21) 0.002258 737.3 809.6
1485(21) 0.002187 736.8 795.2
1417(20) 0.002433 736.4 764.7
1385(19) 0.002585 735.9 721.5
1305(19) 0.002781 735.5 670.1
1287(19) 0.002637 735.0 614.4
1223(19) 0.002626 734.6 558.1
1219(19) 0.002778 734.1 503.6
1181(18) 0.003064 733.6 452.3
1167(18) 0.003069 733.2 405.3
1103(18) 0.003032 732.7 362.7
1091(19) 0.002844 732.3 324.6
1024(17) 0.003321 731.8 290.9
1028(17) 0.003466 731.4 261.1
1017(17) 0.003483 730.9 234.9
982(17) 0.003430 730.4 211.9
926(17) 0.00353 730.0 191.8
951(17) 0.00354 729.5 174.2
928(16) 0.00388 729.1 158.8
929(16) 0.00378 728.6 145.3
894(16) 0.00375 728.2 133.5
904(17) 0.003488 727.7 123.0
917(16) 0.00361 727.2 113.8
880(15) 0.00406 726.8 105.6
867(16) 0.00397 726.3 98.3
830(15) 0.00406 725.9 91.8
830(16) 0.00397 725.4 86.0
850(16) 0.00394 725.0 80.7
863(15) 0.00414 724.5 76.0
825(15) 0.00416 724.1 71.7
791(15) 0.00415 723.6 67.8
789(15) 0.00418 723.1 64.2
832(15) 0.00407 722.7 61.0
751(14) 0.00472 722.2 58.0
828(15) 0.00402 721.8 55.3
793(15) 0.00417 721.3 52.8
786(15) 0.00415 720.9 50.5
804(15) 0.00426 720.4 48.4
754(14) 0.00472 719.9 46.5
781(15) 0.00421 719.5 44.7
779(15) 0.00408 719.0 43.0
755(15) 0.00452 718.6 41.5
768(15) 0.00448 718.1 40.1
739(14) 0.00480 717.7 38.9
782(15) 0.00433 717.2 37.7
745(15) 0.00438 716.7 36.6
786(15) 0.00416 716.3 35.6
727(14) 0.00475 715.8 34.7
766(14) 0.00465 715.4 33.9
748(15) 0.00441 714.9 33.2
736(15) 0.00423 714.5 32.5
768(15) 0.00436 714.0 31.9
756(14) 0.00465 713.6 31.4
766(14) 0.00462 713.1 31.0
728(14) 0.00462 712.6 30.6
770(16) 0.00401 712.2 30.3
744(15) 0.00447 711.7 30.1
793(15) 0.00449 711.3 29.9
733(14) 0.00480 710.8 29.8
715(14) 0.00465 710.4 29.8
736(15) 0.00423 709.9 29.8
750(15) 0.00432 709.4 30.0
734(14) 0.00484 709.0 30.2
751(14) 0.00464 708.5 30.5
731(14) 0.00466 708.1 31.0
731(15) 0.00437 707.6 31.5
717(14) 0.00467 707.2 32.2
749(14) 0.00472 706.7 32.9
749(14) 0.00469 706.3 33.9
731(14) 0.00457 705.8 35.0
764(15) 0.00414 705.3 36.3
757(15) 0.00437 704.9 37.8
701(14) 0.00506 704.4 39.5
755(14) 0.00463 704.0 41.5
737(14) 0.00457 703.5 43.8
748(15) 0.00428 703.1 46.3
712(14) 0.00462 702.6 49.2
731(14) 0.00488 702.1 52.5
768(15) 0.00452 701.7 56.1
726(14) 0.00461 701.2 60.1
781(15) 0.00418 700.8 64.5
753(14) 0.00457 700.3 69.3
742(14) 0.00479 699.9 74.3
743(15) 0.00454 699.4 79.5
783(15) 0.00414 698.9 84.6
774(15) 0.00420 698.5 89.5
771(15) 0.00443 698.0 93.9
763(14) 0.00465 697.6 97.5
819(15) 0.00410 697.1 99.9
798(15) 0.00403 696.7 100.9
778(15) 0.00418 696.2 100.6
766(15) 0.00451 695.8 98.9
797(15) 0.00447 695.3 96.1
831(16) 0.00399 694.8 92.5
778(15) 0.00420 694.4 88.3
818(15) 0.00403 693.9 83.9
749(14) 0.00464 693.5 79.5
761(14) 0.00468 693.0 75.3
719(14) 0.00458 692.6 71.4
735(15) 0.00428 692.1 68.0
771(15) 0.00430 691.6 65.0
772(15) 0.00455 691.2 62.5
766(14) 0.00468 690.7 60.4
762(15) 0.00440 690.3 58.9
709(15) 0.00451 689.8 57.8
723(14) 0.00461 689.4 57.2
734(14) 0.00480 688.9 57.0
749(14) 0.00471 688.4 57.3
706(14) 0.00479 688.0 58.0
754(15) 0.00412 687.5 59.0
764(15) 0.00441 687.1 60.5
679(13) 0.00526 686.6 62.3
720(14) 0.00482 686.2 64.5
756(15) 0.00427 685.7 67.0
750(15) 0.00426 685.3 69.7
804(15) 0.00427 684.8 72.6
768(14) 0.00460 684.3 75.6
734(14) 0.00477 683.9 78.5
757(15) 0.00443 683.4 81.3
756(15) 0.00420 683.0 83.7
773(15) 0.00427 682.5 85.7
760(14) 0.00473 682.1 87.0
743(14) 0.00470 681.6 87.5
746(15) 0.00444 681.1 87.2
758(15) 0.00429 680.7 86.0
762(15) 0.00427 680.2 84.0
737(14) 0.00479 679.8 81.3
754(14) 0.00458 679.3 78.1
736(15) 0.00452 678.9 74.5
731(15) 0.00444 678.4 70.5
732(15) 0.00453 677.9 66.5
731(14) 0.00487 677.5 62.5
736(14) 0.00465 677.0 58.5
700(14) 0.00461 676.6 54.7
720(15) 0.00449 676.1 51.1
739(14) 0.00463 675.7 47.8
720(14) 0.00494 675.2 44.6
690(14) 0.00482 674.8 41.7
684(14) 0.00484 674.3 39.0
737(15) 0.00443 673.8 36.5
695(14) 0.00483 673.4 34.2
702(14) 0.00504 672.9 32.2
692(14) 0.00482 672.5 30.3
707(15) 0.00453 672.0 28.5
715(14) 0.00462 671.6 27.0
711(14) 0.00494 671.1 25.5
726(14) 0.00490 670.6 24.2
700(14) 0.00476 670.2 23.0
710(15) 0.00441 669.7 21.9
685(14) 0.00475 669.3 20.9
660(13) 0.00529 668.8 20.0
676(13) 0.00524 668.4 19.2
703(14) 0.00471 667.9 18.4
678(14) 0.00474 667.5 17.7
672(14) 0.00514 667.0 17.0
683(14) 0.00514 666.5 16.4
690(14) 0.00517 666.1 15.9
664(14) 0.00504 665.6 15.4
665(14) 0.00467 665.2 15.0
643(13) 0.00529 664.7 14.5
655(13) 0.00535 664.3 14.2
637(13) 0.00551 663.8 13.8
643(14) 0.00521 663.3 13.5
676(15) 0.00454 662.9 13.2
668(14) 0.00503 662.4 12.9
649(13) 0.00550 662.0 12.7
686(14) 0.00511 661.5 12.4
672(14) 0.00508 661.1 12.2
679(14) 0.00469 660.6 12.0
657(14) 0.00511 660.1 11.9
635(13) 0.00561 659.7 11.7
674(14) 0.00515 659.2 11.6
710(14) 0.00464 658.8 11.5
662(14) 0.00484 658.3 11.4
627(13) 0.00539 657.9 11.3
657(13) 0.00543 657.4 11.2
672(14) 0.00512 657.0 11.2
703(14) 0.00471 656.5 11.2
662(14) 0.00497 656.0 11.2
677(14) 0.00481 655.6 11.2
678(14) 0.00519 655.1 11.2
626(13) 0.00545 654.7 11.3
638(14) 0.00521 654.2 11.4
699(14) 0.00461 653.8 11.6
655(14) 0.00519 653.3 11.8
640(13) 0.00554 652.8 12.1
626(13) 0.00549 652.4 12.5
650(14) 0.00491 651.9 13.0
644(14) 0.00507 651.5 13.6
646(13) 0.00526 651.0 14.4
670(13) 0.00527 650.6 15.5
649(14) 0.00522 650.1 17.0
689(14) 0.00478 649.6 19.3
692(14) 0.00484 649.2 22.7
681(14) 0.00513 648.7 28.2
677(14) 0.00522 648.3 36.7
677(14) 0.00492 647.8 49.4
750(15) 0.00432 647.4 67.2
778(15) 0.00429 646.9 90.2
771(15) 0.00455 646.5 116.8
772(14) 0.00460 646.0 142.7
809(15) 0.00414 645.5 160.1
823(16) 0.00384 645.1 161.1
761(15) 0.00445 644.6 145.2
808(15) 0.00427 644.2 119.6
706(14) 0.00505 643.7 92.6
674(14) 0.00494 643.3 68.8
705(15) 0.00433 642.8 50.1
699(14) 0.00481 642.3 36.6
622(13) 0.00566 641.9 27.4
645(13) 0.00543 641.4 21.4
648(14) 0.00520 641.0 17.5
685(15) 0.00449 640.5 14.9
654(14) 0.00510 640.1 13.1
636(13) 0.00554 639.6 11.7
624(13) 0.00559 639.1 10.7
641(14) 0.00518 638.7 9.8
629(14) 0.00493 638.2 9.1
641(14) 0.00517 637.8 8.5
639(13) 0.00555 637.3 7.9
661(13) 0.00526 636.9 7.5
644(13) 0.00526 636.4 7.1
638(14) 0.00496 636.0 6.7
639(13) 0.00526 635.5 6.4
678(14) 0.00522 635.0 6.1
612(13) 0.00572 634.6 5.9
623(13) 0.00525 634.1 5.7
634(14) 0.00517 633.7 5.5
624(13) 0.00526 633.2 5.3
615(13) 0.00571 632.8 5.1
628(13) 0.00546 632.3 5.0
611(13) 0.00535 631.8 4.8
624(14) 0.00515 631.4 4.7
636(14) 0.00519 630.9 4.6
618(13) 0.00573 630.5 4.4
633(13) 0.00535 630.0 4.3
641(14) 0.00507 629.6 4.2
633(14) 0.00508 629.1 4.1
638(13) 0.00537 628.6 4.1
639(13) 0.00553 628.2 4.0
641(14) 0.00520 627.7 3.9
658(14) 0.00497 627.3 3.8
620(13) 0.00541 626.8 3.7
642(13) 0.00533 626.4 3.7
619(13) 0.00568 625.9 3.6
644(14) 0.00520 625.5 3.6
620(14) 0.00520 625.0 3.5
620(13) 0.00539 624.5 3.4
604(13) 0.00571 624.1 3.4
602(13) 0.00588 623.6 3.3
613(13) 0.00536 623.2 3.3
642(14) 0.00500 622.7 3.2
610(13) 0.00544 622.3 3.2
621(13) 0.00557 621.8 3.1
627(13) 0.00559 621.3 3.1
613(13) 0.00550 620.9 3.1
618(14) 0.00505 620.4 3.0
603(13) 0.00543 620.0 3.0
616(13) 0.00564 619.5 2.9
643(13) 0.00547 619.1 2.9
627(13) 0.00528 618.6 2.9
611(14) 0.00485 618.2 2.8
603(13) 0.00556 617.7 2.8
624(13) 0.00566 617.2 2.8
617(13) 0.00567 616.8 2.7
615(13) 0.00545 616.3 2.7
616(14) 0.00511 615.9 2.7
656(14) 0.00489 615.4 2.7
603(13) 0.00589 615.0 2.6
609(13) 0.00569 614.5 2.6
593(13) 0.00561 614.0 2.6
608(14) 0.00519 613.6 2.5
615(13) 0.00544 613.1 2.5
596(13) 0.00594 612.7 2.5
602(13) 0.00577 612.2 2.5
592(13) 0.00552 611.8 2.5
607(14) 0.00514 611.3 2.5
595(13) 0.00549 610.8 2.4
622(13) 0.00568 610.4 2.4
635(13) 0.00536 609.9 2.4
624(14) 0.00519 609.5 2.4
610(13) 0.00530 609.0 2.4
614(13) 0.00543 608.6 2.3
615(13) 0.00570 608.1 2.3
618(13) 0.00549 607.7 2.3
618(13) 0.00533 607.2 2.3
621(14) 0.00519 606.7 2.3
586(13) 0.00576 606.3 2.2
614(13) 0.00576 605.8 2.2
585(13) 0.00565 605.4 2.2
614(13) 0.00529 604.9 2.2
599(13) 0.00548 604.5 2.2
581(13) 0.00576 604.0 2.2
565(12) 0.00620 603.5 2.2
610(13) 0.00541 603.1 2.1
593(13) 0.00560 602.6 2.1
609(13) 0.00539 602.2 2.1
599(13) 0.00568 601.7 2.1
623(13) 0.00562 601.3 2.1
593(13) 0.00546 600.8 2.1
591(13) 0.00532 600.3 2.1
616(14) 0.00523 599.9 2.1
595(13) 0.00571 599.4 2.0
578(12) 0.00612 599.0 2.0
571(13) 0.00579 598.5 2.0
632(14) 0.00487 598.1 2.0
587(13) 0.00559 597.6 2.0
600(13) 0.00584 597.2 2.0
606(13) 0.00585 596.7 2.0
635(13) 0.00529 596.2 2.0
603(14) 0.00514 595.8 2.0
630(14) 0.00522 595.3 2.0
598(13) 0.00582 594.9 1.9
574(12) 0.00607 594.4 1.9
575(13) 0.00568 594.0 1.9
576(13) 0.00534 593.5 1.9
597(13) 0.00546 593.0 1.9
605(13) 0.00585 592.6 1.9
571(13) 0.00605 592.1 1.9
581(13) 0.00570 591.7 1.9
579(13) 0.00545 591.2 1.9
580(13) 0.00559 590.8 1.9
575(12) 0.00607 590.3 1.9
632(13) 0.00546 590.0 1.9
589(13) 0.00568 589.7 1.9
569(13) 0.00577 589.4 1.9
607(13) 0.00542 589.1 1.9
571(12) 0.00612 588.8 1.9
618(13) 0.00553 588.5 1.8
613(13) 0.00537 588.3 1.8
603(13) 0.00534 588.0 1.8
588(13) 0.00569 587.7 1.8
600(13) 0.00587 587.4 1.8
576(13) 0.00584 587.1 1.8
568(13) 0.00585 586.8 1.8
568(13) 0.00574 586.5 1.8
576(13) 0.00584 586.2 1.8
615(13) 0.00575 585.9 1.8
549(12) 0.00620 585.7 1.8
567(13) 0.00577 585.4 1.8
622(14) 0.00520 585.1 1.8
596(13) 0.00577 584.8 1.8
579(12) 0.00610 584.5 1.8
561(13) 0.00591 584.2 1.8
582(13) 0.00556 583.9 1.8
611(13) 0.00530 583.6 1.8
586(13) 0.00585 583.3 1.8
586(13) 0.00598 583.1 1.8
599(13) 0.00540 582.8 1.8
589(13) 0.00541 582.5 1.8
592(13) 0.00556 582.2 1.8
581(13) 0.00596 581.9 1.9
585(13) 0.00604 581.6 1.9
585(13) 0.00563 581.3 1.9
592(14) 0.00519 581.0 1.9
579(13) 0.00561 580.7 1.9
583(13) 0.00595 580.5 1.9
581(12) 0.00609 580.2 1.9
582(13) 0.00557 579.9 1.9
591(14) 0.00508 579.6 1.9
562(13) 0.00575 579.3 1.9
575(12) 0.00607 579.0 1.9
542(12) 0.00648 578.7 1.9
552(13) 0.00600 578.4 1.9
568(13) 0.00546 578.1 1.9
582(13) 0.00560 577.9 1.9
564(12) 0.00621 577.6 1.9
594(13) 0.00586 577.3 1.9
567(13) 0.00601 577.0 1.9
576(13) 0.00548 576.7 2.0
595(13) 0.00561 576.4 2.0
602(13) 0.00585 576.1 2.0
551(12) 0.00625 575.8 2.0
578(13) 0.00568 575.5 2.0
611(14) 0.00507 575.3 2.0
572(13) 0.00576 575.0 2.0
585(13) 0.00601 574.7 2.0
551(12) 0.00618 574.4 2.1
553(13) 0.00592 574.1 2.1
572(13) 0.00565 573.8 2.1
576(13) 0.00561 573.5 2.1
562(12) 0.00629 573.2 2.1
579(13) 0.00587 572.9 2.2
546(13) 0.00604 572.7 2.2
595(13) 0.00526 572.4 2.2
556(13) 0.00586 572.1 2.2
536(12) 0.00657 571.8 2.3
577(13) 0.00580 571.5 2.3
585(13) 0.00562 571.2 2.3
552(13) 0.00603 570.9 2.4
566(13) 0.00599 570.6 2.4
598(13) 0.00589 570.3 2.4
565(13) 0.00580 570.1 2.5
566(13) 0.00570 569.8 2.5
570(13) 0.00567 569.5 2.6
586(13) 0.00586 569.2 2.6
614(13) 0.00570 568.9 2.7
545(13) 0.00601 568.6 2.7
573(13) 0.00544 568.3 2.8
565(13) 0.00588 568.0 2.9
567(13) 0.00601 567.7 2.9
530(12) 0.00658 567.5 3.0
552(13) 0.00597 567.2 3.1
564(13) 0.00548 566.9 3.2
577(13) 0.00586 566.6 3.3
576(13) 0.00602 566.3 3.4
569(12) 0.00618 566.0 3.5
570(13) 0.00564 565.7 3.6
573(13) 0.00540 565.4 3.7
598(13) 0.00552 565.1 3.9
580(13) 0.00602 564.9 4.0
542(12) 0.00642 564.6 4.2
541(13) 0.00596 564.3 4.4
549(13) 0.00561 564.0 4.6
564(13) 0.00581 563.7 4.8
570(12) 0.00607 563.4 5.1
549(12) 0.00644 563.1 5.3
565(13) 0.00594 562.8 5.6
547(13) 0.00576 562.5 6.0
566(13) 0.00573 562.3 6.4
559(12) 0.00625 562.0 6.8
559(12) 0.00619 561.7 7.3
591(13) 0.00561 561.4 7.9
587(13) 0.00542 561.1 8.5
603(13) 0.00551 560.8 9.2
588(13) 0.00597 560.5 10.1
552(12) 0.00621 560.2 11.1
537(12) 0.00610 559.9 12.3
567(13) 0.00554 559.7 13.7
551(13) 0.00590 559.4 15.5
585(13) 0.00603 559.1 17.7
611(13) 0.00552 558.8 20.5
591(13) 0.00565 558.5 24.2
615(14) 0.00523 558.2 29.2
582(13) 0.00576 557.9 35.9
580(12) 0.00606 557.6 44.9
637(14) 0.00510 557.3 56.7
613(13) 0.00538 557.1 71.9
667(14) 0.00487 556.8 90.5
692(14) 0.00489 556.5 112.3
685(14) 0.00517 556.2 135.8
722(14) 0.00462 555.9 157.5
698(14) 0.00470 555.6 172.2
779(15) 0.00421 555.3 174.9
748(14) 0.00459 555.0 164.4
693(14) 0.00514 554.7 144.7
681(14) 0.00483 554.5 121.4
636(14) 0.00503 554.2 98.7
642(13) 0.00525 553.9 78.8
657(13) 0.00530 553.6 62.3
587(13) 0.00602 553.3 49.2
593(13) 0.00546 553.0 39.2
583(13) 0.00543 552.7 31.7
610(13) 0.00533 552.4 26.1
557(12) 0.00619 552.1 22.0
562(12) 0.00629 551.9 18.9
584(13) 0.00572 551.6 16.5
555(13) 0.00557 551.3 14.6
593(13) 0.00551 551.0 13.0
549(12) 0.00640 550.7 11.8
576(12) 0.00606 550.4 10.7
547(13) 0.00601 550.1 9.8
578(14) 0.00522 549.8 9.1
543(13) 0.00592 549.5 8.4
527(12) 0.00658 549.3 7.8
528(12) 0.00655 549.0 7.3
525(12) 0.00620 548.7 6.9
546(13) 0.00576 548.4 6.5
555(12) 0.00608 548.1 6.2
592(13) 0.00596 547.8 5.9
529(12) 0.00661 547.5 5.6
529(12) 0.00613 547.2 5.4
560(13) 0.00553 546.9 5.1
522(12) 0.00622 546.7 4.9
541(12) 0.00653 546.4 4.8
560(13) 0.00602 546.1 4.6
548(13) 0.00582 545.8 4.5
545(13) 0.00563 545.5 4.4
539(13) 0.00592 545.2 4.3
561(12) 0.00630 544.9 4.2
576(13) 0.00568 544.6 4.1
562(13) 0.00582 544.3 4.0
558(13) 0.00581 544.1 3.9
555(12) 0.00609 543.8 3.9
536(12) 0.00649 543.5 3.8
547(12) 0.00616 543.2 3.8
569(13) 0.00571 542.9 3.7
539(12) 0.00615 542.6 3.7
542(12) 0.00620 542.3 3.7
521(12) 0.00671 542.0 3.7
559(13) 0.00584 541.7 3.6
523(12) 0.00619 541.5 3.6
539(13) 0.00590 541.2 3.6
513(12) 0.00650 540.9 3.6
524(12) 0.00668 540.6 3.6
520(12) 0.00628 540.3 3.6
542(13) 0.00573 540.0 3.7
525(12) 0.00629 539.7 3.7
513(12) 0.00661 539.4 3.7
531(12) 0.00660 539.1 3.7
529(12) 0.00608 538.9 3.8
532(13) 0.00598 538.6 3.8
570(13) 0.00580 538.3 3.8
557(12) 0.00621 538.0 3.9
555(12) 0.00631 537.7 3.9
541(13) 0.00591 537.4 4.0
546(13) 0.00555 537.1 4.1
550(13) 0.00598 536.8 4.1
543(12) 0.00643 536.5 4.2
555(12) 0.00622 536.3 4.3
589(13) 0.00543 536.0 4.4
553(13) 0.00555 535.7 4.5
567(13) 0.00582 535.4 4.6
556(12) 0.00631 535.1 4.7
503(12) 0.00689 534.8 4.8
546(13) 0.00605 534.5 4.9
538(13) 0.00576 534.2 5.0
560(13) 0.00582 533.9 5.2
547(12) 0.00645 533.7 5.3
560(12) 0.00614 533.4 5.5
560(13) 0.00590 533.1 5.7
521(12) 0.00619 532.8 5.9
539(12) 0.00622 532.5 6.0
569(12) 0.00614 532.2 6.3
548(12) 0.00631 531.9 6.5
547(12) 0.00609 531.6 6.7
526(13) 0.00600 531.3 7.0
542(13) 0.00603 531.1 7.2
497(11) 0.00709 530.8 7.5
561(13) 0.00604 530.5 7.8
559(13) 0.00585 530.2 8.1
543(13) 0.00589 529.9 8.4
555(13) 0.00594 529.6 8.8
539(12) 0.00652 529.3 9.2
534(12) 0.00632 529.0 9.5
530(12) 0.00628 528.7 9.9
537(13) 0.00603 528.5 10.4
539(12) 0.00618 528.2 10.8
562(12) 0.00620 527.9 11.3
541(12) 0.00606 527.6 11.7
548(13) 0.00570 527.3 12.3
557(13) 0.00587 527.0 12.8
573(13) 0.00590 526.7 13.3
579(12) 0.00617 526.4 13.8
567(13) 0.00588 526.1 14.3
558(13) 0.00571 525.9 14.8
545(13) 0.00593 525.6 15.3
535(12) 0.00638 525.3 15.7
546(12) 0.00642 525.0 16.1
542(12) 0.00610 524.7 16.5
548(13) 0.00579 524.4 16.9
554(13) 0.00587 524.1 17.1
554(12) 0.00621 523.8 17.4
575(12) 0.00618 523.5 17.5
565(13) 0.00578 523.3 17.6
549(13) 0.00574 523.0 17.6
517(12) 0.00643 522.7 17.6
531(12) 0.00655 522.4 17.4
542(12) 0.00644 522.1 17.3
569(13) 0.00580 521.8 17.0
556(13) 0.00551 521.5 16.7
543(13) 0.00602 521.2 16.4
547(12) 0.00639 520.9 16.1
537(12) 0.00651 520.7 15.7
536(12) 0.00622 520.4 15.4
551(13) 0.00564 520.1 15.0
567(13) 0.00577 519.8 14.7
522(12) 0.00667 519.5 14.5
538(12) 0.00647 519.2 14.3
512(12) 0.00631 518.9 14.2
543(13) 0.00584 518.6 14.3
561(13) 0.00588 518.3 14.5
565(12) 0.00627 518.1 14.8
538(12) 0.00638 517.8 15.1
531(12) 0.00609 517.5 15.5
519(13) 0.00595 517.2 15.7
510(12) 0.00627 516.9 15.5
535(12) 0.00652 516.6 14.9
559(12) 0.00610 516.3 14.0
569(13) 0.00574 516.0 12.8
547(13) 0.00579 515.7 11.7
528(12) 0.00621 515.5 10.6
520(12) 0.00673 515.2 9.7
529(12) 0.00648 514.9 8.9
486(12) 0.00671 514.6 8.2
546(13) 0.00582 514.3 7.6
518(12) 0.00650 514.0 7.1
533(12) 0.00658 513.7 6.7
575(13) 0.00570 513.4 6.3
531(12) 0.00618 513.1 6.0
524(12) 0.00612 512.9 5.7
519(12) 0.00641 512.6 5.5
505(12) 0.00690 512.3 5.2
538(13) 0.00604 512.0 5.0
504(12) 0.00634 511.7 4.8
537(12) 0.00606 511.4 4.7
508(12) 0.00670 511.1 4.5
526(12) 0.00663 510.8 4.3
525(12) 0.00607 510.5 4.2
510(12) 0.00623 510.3 4.1
510(12) 0.00666 510.0 3.9
543(12) 0.00641 509.7 3.8
502(12) 0.00693 509.4 3.7
522(12) 0.00619 509.1 3.6
523(13) 0.00584 508.8 3.5
533(12) 0.00618 508.5 3.4
560(12) 0.00609 508.2 3.3
522(12) 0.00666 507.9 3.2
500(12) 0.00667 507.7 3.1
511(12) 0.00606 507.4 3.1
505(12) 0.00632 507.1 3.0
503(12) 0.00681 506.8 2.9
517(12) 0.00682 506.5 2.8
529(12) 0.00612 506.2 2.8
512(12) 0.00610 505.9 2.7
524(12) 0.00636 505.6 2.7
521(12) 0.00673 505.3 2.6
481(11) 0.00711 505.1 2.6
485(12) 0.00665 504.8 2.5
514(13) 0.00600 504.5 2.5
533(12) 0.00612 504.2 2.4
512(12) 0.00680 503.9 2.4
518(12) 0.00660 503.6 2.3
513(12) 0.00642 503.3 2.3
523(12) 0.00608 503.0 2.2
495(12) 0.00653 502.7 2.2
508(12) 0.00685 502.5 2.2
504(12) 0.00690 502.2 2.1
532(13) 0.00605 501.9 2.1
512(12) 0.00632 501.6 2.1
509(12) 0.00651 501.3 2.0
504(12) 0.00688 501.0 2.0
510(12) 0.00664 500.7 2.0
500(12) 0.00643 500.4 2.0
502(12) 0.00645 500.1 1.9
529(12) 0.00611 499.9 1.9
496(11) 0.00709 499.6 1.9
516(12) 0.00652 499.3 1.9
520(12) 0.00622 499.0 1.8
485(12) 0.00674 498.7 1.8
502(12) 0.00665 498.4 1.8
504(12) 0.00687 498.1 1.8
500(12) 0.00653 497.8 1.8
509(12) 0.00617 497.5 1.7
503(12) 0.00634 497.3 1.7
504(12) 0.00662 497.0 1.7
514(12) 0.00675 496.7 1.7
492(12) 0.00662 496.4 1.7
476(12) 0.00657 496.1 1.6
515(12) 0.00624 495.8 1.6
520(12) 0.00656 495.5 1.6
496(12) 0.00701 495.2 1.6
502(12) 0.00627 494.9 1.6
459(12) 0.00696 494.7 1.6
488(12) 0.00674 494.4 1.6
486(11) 0.00719 494.1 1.6
494(12) 0.00700 493.8 1.5
533(12) 0.00625 493.5 1.5
497(12) 0.00626 493.2 1.5
512(12) 0.00650 492.9 1.5
499(12) 0.00699 492.6 1.5
522(12) 0.00670 492.3 1.5
507(12) 0.00657 492.1 1.5
489(12) 0.00627 491.8 1.5
505(12) 0.00647 491.5 1.5
501(12) 0.00697 491.2 1.5
467(11) 0.00730 490.9 1.4
501(12) 0.00649 490.6 1.4
463(12) 0.00664 490.3 1.4
514(12) 0.00623 490.0 1.4
521(12) 0.00669 489.7 1.4
467(11) 0.00735 489.5 1.4
479(12) 0.00684 489.2 1.4
515(13) 0.00605 488.9 1.4
501(12) 0.00656 488.6 1.4
489(11) 0.00719 488.3 1.4
492(12) 0.00682 488.0 1.4
498(12) 0.00645 487.7 1.4
504(12) 0.00634 487.4 1.4
523(12) 0.00616 487.1 1.4
512(12) 0.00682 486.9 1.4
483(11) 0.00709 486.6 1.4
484(12) 0.00669 486.3 1.4
472(12) 0.00683 486.0 1.4
476(12) 0.00677 485.7 1.4
480(11) 0.00723 485.4 1.3
464(11) 0.00719 485.1 1.3
456(12) 0.00706 484.8 1.3
473(12) 0.00685 484.5 1.3
496(12) 0.00659 484.3 1.3
509(12) 0.00685 484.0 1.3
478(12) 0.00684 483.7 1.3
476(12) 0.00678 483.6 1.3
516(12) 0.00617 483.4 1.3
500(12) 0.00675 483.3 1.3
506(12) 0.00681 483.1 1.3
491(12) 0.00643 483.0 1.3
475(12) 0.00655 482.8 1.3
474(12) 0.00680 482.7 1.3
490(12) 0.00686 482.6 1.3
509(12) 0.00682 482.4 1.4
502(12) 0.00647 482.3 1.4
501(12) 0.00623 482.1 1.4
493(12) 0.00652 482.0 1.4
487(11) 0.00710 481.8 1.4
493(12) 0.00705 481.7 1.4
453(11) 0.00733 481.6 1.4
516(13) 0.00571 481.4 1.4
505(12) 0.00637 481.3 1.4
466(11) 0.00727 481.1 1.4
472(11) 0.00726 481.0 1.4
472(12) 0.00688 480.9 1.4
474(12) 0.00644 480.7 1.4
487(12) 0.00678 480.6 1.4
478(11) 0.00709 480.4 1.4
481(11) 0.00717 480.3 1.5
486(12) 0.00677 480.1 1.5
523(13) 0.00581 480.0 1.5
476(12) 0.00677 479.9 1.5
478(11) 0.00727 479.7 1.5
481(11) 0.00723 479.6 1.5
506(12) 0.00652 479.4 1.5
489(12) 0.00644 479.3 1.6
489(12) 0.00651 479.1 1.6
463(11) 0.00748 479.0 1.6
492(12) 0.00690 478.9 1.6
449(11) 0.00721 478.7 1.6
488(12) 0.00638 478.6 1.7
462(12) 0.00703 478.4 1.7
438(11) 0.00787 478.3 1.7
471(11) 0.00710 478.1 1.8
467(12) 0.00679 478.0 1.8
440(11) 0.00736 477.9 1.8
492(12) 0.00659 477.7 1.9
458(11) 0.00747 477.6 1.9
486(12) 0.00678 477.4 2.0
491(12) 0.00659 477.3 2.0
477(12) 0.00666 477.1 2.1
464(11) 0.00711 477.0 2.2
481(11) 0.00718 476.9 2.2
449(11) 0.00762 476.7 2.3
466(12) 0.00675 476.6 2.4
459(12) 0.00679 476.4 2.5
482(12) 0.00697 476.3 2.6
474(11) 0.00726 476.1 2.7
465(11) 0.00710 476.0 2.8
450(12) 0.00697 475.9 3.0
457(11) 0.00710 475.7 3.1
493(12) 0.00697 475.6 3.3
491(11) 0.00713 475.4 3.5
471(12) 0.00708 475.3 3.8
480(12) 0.00646 475.1 4.1
496(12) 0.00659 475.0 4.4
498(12) 0.00680 474.9 4.8
453(11) 0.00774 474.7 5.2
458(11) 0.00721 474.6 5.7
472(12) 0.00645 474.4 6.3
495(12) 0.00657 474.3 6.9
463(11) 0.00749 474.1 7.7
507(12) 0.00685 474.0 8.6
473(12) 0.00697 473.9 9.6
486(12) 0.00618 473.7 10.8
490(12) 0.00661 473.6 12.1
496(12) 0.00696 473.4 13.4
483(11) 0.00718 473.3 14.8
524(12) 0.00626 473.1 16.2
478(12) 0.00646 473.0 17.3
478(12) 0.00674 472.9 18.3
482(11) 0.00715 472.7 18.7
510(12) 0.00676 472.6 18.7
499(12) 0.00658 472.4 18.2
518(12) 0.00611 472.3 17.3
508(12) 0.00647 472.1 16.1
474(11) 0.00735 472.0 14.7
486(11) 0.00710 471.9 13.4
475(12) 0.00705 471.7 12.0
485(12) 0.00652 471.6 10.8
490(12) 0.00661 471.4 9.6
460(11) 0.00751 471.3 8.6
476(11) 0.00719 471.1 7.8
476(12) 0.00681 471.0 7.0
492(12) 0.00637 470.9 6.3
488(12) 0.00683 470.7 5.8
476(11) 0.00735 470.6 5.3
488(12) 0.00680 470.4 4.9
466(12) 0.00691 470.3 4.5
445(11) 0.00724 470.1 4.2
473(12) 0.00684 470.0 3.9
488(11) 0.00715 469.9 3.7
481(12) 0.00698 469.7 3.5
485(12) 0.00663 469.6 3.3
470(12) 0.00706 469.4 3.2
454(11) 0.00749 469.3 3.1
460(11) 0.00755 469.1 2.9
477(12) 0.00682 469.0 2.8
476(12) 0.00669 468.9 2.7
453(11) 0.00709 468.7 2.7
459(11) 0.00735 468.6 2.6
445(11) 0.00780 468.4 2.5
442(11) 0.00738 468.3 2.5
476(12) 0.00640 468.1 2.4
473(12) 0.00673 468.0 2.4
458(11) 0.00750 467.9 2.4
480(11) 0.00716 467.7 2.3
470(12) 0.00686 467.6 2.3
495(12) 0.00625 467.4 2.3
500(12) 0.00653 467.3 2.3
491(12) 0.00695 467.1 2.3
434(11) 0.00775 467.0 2.3
458(12) 0.00706 466.9 2.3
473(12) 0.00641 466.7 2.3
466(11) 0.00718 466.6 2.3
470(11) 0.00737 466.4 2.3
463(11) 0.00750 466.3 2.3
451(11) 0.00711 466.1 2.3
444(12) 0.00692 466.0 2.3
467(12) 0.00703 465.9 2.4
500(12) 0.00692 465.7 2.4
480(11) 0.00726 465.6 2.4
457(11) 0.00729 465.4 2.4
449(12) 0.00692 465.3 2.5
456(11) 0.00713 465.1 2.5
440(11) 0.00788 465.0 2.6
490(12) 0.00690 464.9 2.6
451(11) 0.00727 464.7 2.6
436(11) 0.00715 464.6 2.7
481(12) 0.00677 464.4 2.7
485(11) 0.00717 464.3 2.8
449(11) 0.00758 464.1 2.8
452(11) 0.00730 464.0 2.9
464(12) 0.00685 463.9 2.9
457(11) 0.00716 463.7 3.0
441(11) 0.00786 463.6 3.0
438(11) 0.00758 463.4 3.0
441(11) 0.00733 463.3 3.1
456(12) 0.00690 463.1 3.1
462(11) 0.00719 463.0 3.1
461(11) 0.00755 462.9 3.2
484(12) 0.00680 462.7 3.2
489(12) 0.00634 462.6 3.2
440(11) 0.00729 462.4 3.2
471(12) 0.00697 462.3 3.2
437(11) 0.00788 462.1 3.1
473(12) 0.00681 462.0 3.1
445(11) 0.00729 461.9 3.1
465(12) 0.00699 461.7 3.1
455(11) 0.00745 461.6 3.0
471(11) 0.00737 461.4 3.0
449(11) 0.00736 461.3 2.9
455(12) 0.00691 461.1 2.9
446(11) 0.00718 461.0 2.8
454(11) 0.00751 460.9 2.7
469(11) 0.00741 460.7 2.7
456(12) 0.00695 460.6 2.6
463(12) 0.00655 460.4 2.6
456(11) 0.00719 460.3 2.5
453(11) 0.00757 460.1 2.5
474(11) 0.00727 460.0 2.4
440(11) 0.00731 459.9 2.4
463(12) 0.00670 459.7 2.3
440(11) 0.00750 459.6 2.3
445(11) 0.00752 459.4 2.2
464(11) 0.00761 459.3 2.2
453(11) 0.00735 459.1 2.1
449(12) 0.00681 459.0 2.1
450(11) 0.00722 458.9 2.0
446(11) 0.00767 458.7 2.0
449(11) 0.00761 458.6 2.0
459(11) 0.00717 458.4 1.9
449(12) 0.00706 458.3 1.9
433(11) 0.00774 458.1 1.9
434(11) 0.00793 458.0 1.9
437(11) 0.00791 457.9 1.8
464(12) 0.00703 457.7 1.8
477(12) 0.00648 457.6 1.8
438(11) 0.00764 457.4 1.8
477(11) 0.00723 457.3 1.7
438(11) 0.00775 457.1 1.7
460(12) 0.00700 457.0 1.7
458(12) 0.00688 456.9 1.7
464(12) 0.00693 456.7 1.7
457(11) 0.00755 456.6 1.7
468(11) 0.00728 456.4 1.6
479(12) 0.00689 456.3 1.6
471(12) 0.00695 456.1 1.6
441(11) 0.00737 456.0 1.6
459(11) 0.00753 455.9 1.6
478(12) 0.00688 455.7 1.6
454(12) 0.00704 455.6 1.6
440(11) 0.00737 455.4 1.6
441(11) 0.00742 455.3 1.6
435(11) 0.00790 455.1 1.6
458(11) 0.00730 455.0 1.6
453(12) 0.00703 454.9 1.6
438(11) 0.00767 454.7 1.5
445(11) 0.00774 454.6 1.5
476(11) 0.00731 454.4 1.5
444(11) 0.00719 454.3 1.5
410(11) 0.00764 454.1 1.5
441(11) 0.00709 454.0 1.5
434(11) 0.00787 453.9 1.5
431(11) 0.00801 453.7 1.5
457(12) 0.00684 453.6 1.5
428(11) 0.00757 453.4 1.5
449(11) 0.00728 453.3 1.5
445(11) 0.00768 453.1 1.5
436(11) 0.00796 453.0 1.5
449(11) 0.00712 452.9 1.5
440(12) 0.00684 452.7 1.5
444(12) 0.00703 452.6 1.5
435(11) 0.00788 452.4 1.5
436(11) 0.00790 452.3 1.5
436(11) 0.00746 452.1 1.5
450(12) 0.00675 452.0 1.5
423(11) 0.00769 451.9 1.5
435(11) 0.00794 451.7 1.5
420(11) 0.00826 451.6 1.5
434(11) 0.00753 451.4 1.5
444(12) 0.00681 451.3 1.5
431(11) 0.00740 451.1 1.5
453(11) 0.00751 451.0 1.5
445(11) 0.00783 450.9 1.5
456(12) 0.00707 450.7 1.5
463(12) 0.00670 450.6 1.5
434(11) 0.00726 450.4 1.6
453(11) 0.00764 450.3 1.6
460(11) 0.00738 450.1 1.6
431(11) 0.00768 450.0 1.6
458(12) 0.00664 449.9 1.6
458(12) 0.00705 449.7 1.6
432(11) 0.00794 449.6 1.6
407(11) 0.00827 449.4 1.6
449(11) 0.00720 449.3 1.6
471(12) 0.00672 449.1 1.6
439(11) 0.00728 449.0 1.6
400(10) 0.00849 448.9 1.6
422(11) 0.00804 448.7 1.6
440(11) 0.00730 448.6 1.6
431(11) 0.00751 448.4 1.6
474(12) 0.00701 448.3 1.6
460(11) 0.00752 448.1 1.6
448(11) 0.00749 448.0 1.6
450(11) 0.00709 447.9 1.7
437(11) 0.00732 447.7 1.7
425(11) 0.00783 447.6 1.7
430(11) 0.00801 447.4 1.7
431(11) 0.00734 447.3 1.7
430(11) 0.00732 447.1 1.7
448(11) 0.00711 447.0 1.7
446(11) 0.00734 446.9 1.7
420(11) 0.00817 446.7 1.7
404(11) 0.00796 446.6 1.7
427(11) 0.00720 446.4 1.7
430(11) 0.00752 446.3 1.7
455(11) 0.00753 446.1 1.8
445(11) 0.00778 446.0 1.8
441(11) 0.00751 445.9 1.8
454(12) 0.00667 445.7 1.8
438(11) 0.00746 445.6 1.8
453(11) 0.00749 445.4 1.8
434(11) 0.00800 445.3 1.8
445(11) 0.00748 445.1 1.8
447(12) 0.00694 445.0 1.8
443(11) 0.00736 444.9 1.9
438(11) 0.00786 444.7 1.9
471(11) 0.00724 444.6 1.9
466(11) 0.00709 444.4 1.9
460(12) 0.00658 444.3 1.9
442(11) 0.00746 444.1 1.9
457(11) 0.00757 444.0 1.9
450(11) 0.00767 443.9 1.9
407(11) 0.00812 443.7 2.0
425(11) 0.00739 443.6 2.0
439(11) 0.00725 443.4 2.0
423(11) 0.00803 443.3 2.0
423(11) 0.00811 443.2 2.0
464(12) 0.00696 443.0 2.0
465(12) 0.00656 442.9 2.1
430(11) 0.00748 442.7 2.1
393(10) 0.00875 442.6 2.1
444(11) 0.00753 442.4 2.1
489(12) 0.00651 442.3 2.1
425(11) 0.00776 442.2 2.1
471(12) 0.00690 442.0 2.2
466(11) 0.00743 441.9 2.2
442(11) 0.00751 441.7 2.2
436(11) 0.00739 441.6 2.2
444(11) 0.00722 441.4 2.2
441(11) 0.00764 441.3 2.3
445(11) 0.00770 441.2 2.3
468(12) 0.00706 441.0 2.3
441(11) 0.00721 440.9 2.3
410(11) 0.00788 440.7 2.3
427(11) 0.00770 440.6 2.4
438(11) 0.00792 440.4 2.4
432(11) 0.00763 440.3 2.4
440(11) 0.00710 440.2 2.4
433(11) 0.00754 440.0 2.5
420(11) 0.00793 439.9 2.5
457(11) 0.00754 439.7 2.5
403(11) 0.00791 439.6 2.5
437(12) 0.00699 439.4 2.6
424(11) 0.00748 439.3 2.6
433(11) 0.00785 439.2 2.6
435(11) 0.00794 439.0 2.7
440(11) 0.00718 438.9 2.7
408(11) 0.00756 438.7 2.7
413(11) 0.00772 438.6 2.7
394(10) 0.00859 438.4 2.8
407(10) 0.00846 438.3 2.8
417(11) 0.00775 438.2 2.8
426(11) 0.00718 438.0 2.9
441(11) 0.00729 437.9 2.9
444(11) 0.00778 437.7 3.0
427(11) 0.00805 437.6 3.0
425(11) 0.00768 437.4 3.0
451(12) 0.00681 437.3 3.1
437(11) 0.00765 437.2 3.1
425(11) 0.00813 437.0 3.2
438(11) 0.00773 436.9 3.2
439(11) 0.00743 436.7 3.2
405(11) 0.00748 436.6 3.3
419(11) 0.00763 436.4 3.3
424(11) 0.00810 436.3 3.4
426(11) 0.00801 436.2 3.4
431(11) 0.00754 436.0 3.5
421(11) 0.00728 435.9 3.5
399(11) 0.00827 435.7 3.6
415(11) 0.00831 435.6 3.6
424(11) 0.00793 435.4 3.7
410(11) 0.00778 435.3 3.8
434(11) 0.00721 435.2 3.8
433(11) 0.00740 435.0 3.9
408(10) 0.00847 434.9 4.0
412(11) 0.00805 434.7 4.0
412(11) 0.00764 434.6 4.1
411(11) 0.00764 434.4 4.2
443(11) 0.00727 434.3 4.2
433(11) 0.00806 434.2 4.3
442(11) 0.00740 434.0 4.4
423(11) 0.00745 433.9 4.5
431(11) 0.00725 433.7 4.6
407(11) 0.00814 433.6 4.7
429(11) 0.00801 433.4 4.8
415(11) 0.00794 433.3 4.9
421(11) 0.00758 433.2 5.0
431(11) 0.00753 433.0 5.1
415(11) 0.00795 432.9 5.2
439(11) 0.00784 432.7 5.3
418(11) 0.00766 432.6 5.4
406(11) 0.00762 432.4 5.6
436(11) 0.00728 432.3 5.7
453(11) 0.00743 432.2 5.8
406(10) 0.00846 432.0 6.0
423(11) 0.00750 431.9 6.1
434(12) 0.00703 431.7 6.3
416(11) 0.00791 431.6 6.5
424(11) 0.00811 431.4 6.7
425(11) 0.00816 431.3 6.8
448(11) 0.00740 431.2 7.0
425(11) 0.00730 431.0 7.2
431(11) 0.00745 430.9 7.5
437(11) 0.00789 430.7 7.7
431(11) 0.00796 430.6 8.0
437(11) 0.00740 430.4 8.2
422(11) 0.00724 430.3 8.5
400(11) 0.00814 430.2 8.8
436(11) 0.00785 430.0 9.1
435(11) 0.00791 429.9 9.5
422(11) 0.00781 429.7 9.8
467(12) 0.00655 429.6 10.2
427(11) 0.00756 429.4 10.6
457(11) 0.00756 429.3 11.1
437(11) 0.00759 429.2 11.6
414(11) 0.00802 429.0 12.1
424(11) 0.00716 428.9 12.7
434(11) 0.00754 428.7 13.3
438(11) 0.00785 428.6 14.0
432(11) 0.00783 428.4 14.7
422(11) 0.00755 428.3 15.5
436(12) 0.00691 428.2 16.4
420(11) 0.00760 428.0 17.4
452(11) 0.00767 427.9 18.5
399(10) 0.00856 427.7 19.7
449(11) 0.00719 427.6 21.0
455(12) 0.00695 427.4 22.5
446(11) 0.00732 427.3 24.2
428(11) 0.00812 427.2 26.2
475(12) 0.00689 427.0 28.4
467(12) 0.00680 426.9 31.0
445(11) 0.00726 426.7 33.9
463(12) 0.00706 426.6 37.4
461(11) 0.00753 426.4 41.5
476(12) 0.00692 426.3 46.4
492(12) 0.00625 426.2 52.3
487(12) 0.00662 426.0 59.3
484(12) 0.00704 425.9 67.8
486(11) 0.00711 425.7 77.9
497(12) 0.00652 425.6 89.9
515(12) 0.00624 425.4 104.0
569(13) 0.00578 425.3 120.5
562(13) 0.00600 425.2 139.3
616(13) 0.00571 425.0 160.1
648(14) 0.00513 424.9 181.9
662(14) 0.00484 424.7 203.1
712(14) 0.00469 424.6 221.0
715(14) 0.00485 424.4 232.6
702(14) 0.00508 424.3 235.7
674(14) 0.00501 424.2 229.5
668(14) 0.00466 424.0 215.6
620(13) 0.00540 423.9 196.6
614(13) 0.00568 423.7 175.6
582(12) 0.00610 423.6 154.7
565(13) 0.00587 423.4 135.3
568(13) 0.00538 423.3 118.2
520(12) 0.00618 423.2 103.4
544(12) 0.00629 423.0 90.9
483(11) 0.00708 422.9 80.6
520(12) 0.00629 422.7 72.2
531(13) 0.00559 422.6 65.4
488(12) 0.00669 422.4 60.0
489(11) 0.00715 422.3 55.9
498(12) 0.00688 422.2 52.9
509(12) 0.00628 422.0 50.8
475(12) 0.00641 421.9 49.6
463(12) 0.00688 421.7 49.2
485(11) 0.00714 421.6 49.6
472(11) 0.00731 421.4 51.0
497(12) 0.00678 421.3 53.2
499(12) 0.00630 421.2 56.4
484(12) 0.00655 421.0 60.5
498(12) 0.00695 420.9 65.8
524(12) 0.00642 420.7 72.0
486(12) 0.00662 420.6 79.0
477(12) 0.00675 420.4 86.3
485(12) 0.00676 420.3 93.1
519(12) 0.00677 420.2 98.4
515(12) 0.00661 420.0 101.0
527(13) 0.00595 419.9 100.3
492(12) 0.00649 419.7 96.3
500(12) 0.00663 419.6 90.0
501(12) 0.00697 419.4 82.4
506(12) 0.00656 419.3 74.6
476(12) 0.00679 419.2 67.2
491(12) 0.00664 419.0 60.6
455(11) 0.00744 418.9 55.0
452(11) 0.00766 418.7 50.3
424(11) 0.00758 418.6 46.4
437(11) 0.00724 418.4 43.3
458(12) 0.00691 418.3 40.9
438(11) 0.00767 418.2 39.0
452(11) 0.00766 418.0 37.7
443(11) 0.00718 417.9 36.7
439(12) 0.00675 417.7 36.1
411(11) 0.00777 417.6 35.8
427(11) 0.00771 417.4 35.8
430(11) 0.00806 417.3 36.0
469(12) 0.00696 417.2 36.5
464(12) 0.00660 417.0 37.1
441(11) 0.00755 416.9 38.0
438(11) 0.00780 416.7 39.0
455(11) 0.00752 416.6 40.3
456(11) 0.00720 416.4 41.7
440(12) 0.00703 416.3 43.4
469(12) 0.00686 416.2 45.4
455(11) 0.00763 416.0 47.6
448(11) 0.00771 415.9 50.1
449(11) 0.00720 415.7 53.0
451(12) 0.00692 415.6 56.2
461(11) 0.00727 415.4 59.8
476(11) 0.00721 415.3 64.0
486(12) 0.00702 415.2 68.7
477(12) 0.00688 415.0 74.1
487(12) 0.00628 414.9 80.3
475(12) 0.00693 414.7 87.6
497(12) 0.00695 414.6 96.2
529(12) 0.00658 414.4 106.5
520(12) 0.00628 414.3 118.9
525(12) 0.00615 414.2 134.1
587(13) 0.00552 414.0 152.8
592(13) 0.00592 413.9 175.9
583(13) 0.00594 413.7 204.5
636(14) 0.00509 413.6 239.8
641(14) 0.00498 413.4 282.7
690(14) 0.00479 413.3 334.2
753(14) 0.00473 413.2 394.6
815(15) 0.00428 413.0 462.9
862(16) 0.00387 412.9 535.6
967(17) 0.003356 412.7 605.8
1079(18) 0.003139 412.6 662.2
1093(17) 0.003299 412.4 692.3
1066(17) 0.003232 412.3 687.7
1003(17) 0.003235 412.2 649.7
875(16) 0.00379 412.0 588.0
860(16) 0.00396 411.9 515.5
848(15) 0.00424 411.7 442.5
714(14) 0.00460 411.6 375.0
700(14) 0.00474 411.4 315.8
705(14) 0.00471 411.3 265.7
653(13) 0.00530 411.2 224.0
599(13) 0.00587 411.0 189.9
576(13) 0.00570 410.9 162.2
590(13) 0.00527 410.7 139.9
537(12) 0.00609 410.6 121.8
545(12) 0.00636 410.4 107.1
526(12) 0.00666 410.3 95.1
512(12) 0.00659 410.2 85.2
492(12) 0.00645 410.0 77.0
470(12) 0.00698 409.9 70.0
494(12) 0.00695 409.7 64.0
501(12) 0.00687 409.6 58.8
464(11) 0.00733 409.4 54.3
475(12) 0.00652 409.3 50.4
476(12) 0.00685 409.2 46.9
486(11) 0.00710 409.0 43.8
467(11) 0.00746 408.9 41.1
438(11) 0.00765 408.7 38.6
428(11) 0.00721 408.6 36.5
425(11) 0.00765 408.4 34.5
447(11) 0.00770 408.3 32.7
468(11) 0.00737 408.2 31.1
441(11) 0.00746 408.0 29.6
461(12) 0.00663 407.9 28.3
434(11) 0.00722 407.7 27.1
419(11) 0.00813 407.6 26.0
424(11) 0.00816 407.4 25.1
436(11) 0.00750 407.3 24.2
433(11) 0.00721 407.2 23.3
437(11) 0.00720 407.0 22.6
422(11) 0.00810 406.9 21.9
397(10) 0.00846 406.7 21.3
440(11) 0.00717 406.6 20.7
386(11) 0.00816 406.4 20.2
421(11) 0.00749 406.3 19.7
433(11) 0.00796 406.2 19.3
446(11) 0.00741 406.0 18.9
419(11) 0.00782 405.9 18.6
410(11) 0.00784 405.7 18.3
420(11) 0.00774 405.6 18.1
407(10) 0.00849 405.4 17.8
413(11) 0.00815 405.3 17.6
430(11) 0.00748 405.2 17.5
431(11) 0.00731 405.0 17.4
391(10) 0.00860 404.9 17.3
429(11) 0.00805 404.7 17.2
411(11) 0.00793 404.6 17.2
427(11) 0.00736 404.5 17.2
417(11) 0.00768 404.3 17.2
435(11) 0.00749 404.2 17.3
411(11) 0.00837 404.0 17.4
414(11) 0.00780 403.9 17.5
429(11) 0.00729 403.7 17.7
400(11) 0.00815 403.6 17.9
415(11) 0.00802 403.5 18.1
423(11) 0.00819 403.3 18.4
422(11) 0.00758 403.2 18.7
421(11) 0.00744 403.0 19.1
433(11) 0.00755 402.9 19.5
404(11) 0.00835 402.7 20.0
410(11) 0.00826 402.6 20.5
403(11) 0.00823 402.5 21.1
418(12) 0.00704 402.3 21.8
410(11) 0.00778 402.2 22.5
409(10) 0.00841 402.0 23.3
430(11) 0.00805 401.9 24.2
445(11) 0.00729 401.7 25.2
448(12) 0.00668 401.6 26.4
425(11) 0.00745 401.5 27.6
402(10) 0.00858 401.3 29.0
424(11) 0.00821 401.2 30.5
414(11) 0.00793 401.0 32.3
425(11) 0.00714 400.9 34.2
461(12) 0.00679 400.7 36.4
459(11) 0.00744 400.6 38.9
446(11) 0.00765 400.5 41.7
428(11) 0.00770 400.3 44.8
435(11) 0.00711 400.2 48.4
465(12) 0.00678 400.0 52.4
474(11) 0.00736 399.9 56.9
492(12) 0.00691 399.7 62.1
500(12) 0.00634 399.6 67.9
524(13) 0.00585 399.5 74.5
475(12) 0.00688 399.3 81.9
532(12) 0.00661 399.2 90.2
540(12) 0.00628 399.0 99.4
525(12) 0.00617 398.9 109.6
518(12) 0.00618 398.7 120.6
573(13) 0.00583 398.6 132.3
569(12) 0.00619 398.5 144.5
572(13) 0.00588 398.3 156.6
570(13) 0.00567 398.2 168.1
568(13) 0.00574 398.0 178.3
580(13) 0.00578 397.9 186.1
568(12) 0.00616 397.7 190.9
608(13) 0.00540 397.6 192.1
597(13) 0.00540 397.5 189.6
617(13) 0.00532 397.3 183.7
611(13) 0.00558 397.2 174.9
589(13) 0.00597 397.0 164.2
601(13) 0.00552 396.9 152.3
555(13) 0.00582 396.7 140.0
529(12) 0.00611 396.6 127.9
536(12) 0.00622 396.5 116.3
506(12) 0.00696 396.3 105.5
486(12) 0.00663 396.2 95.6
460(12) 0.00691 396.0 86.6
478(12) 0.00677 395.9 78.5
431(11) 0.00791 395.7 71.3
463(11) 0.00751 395.6 64.9
449(11) 0.00728 395.5 59.3
452(12) 0.00682 395.3 54.2
442(11) 0.00729 395.2 49.8
437(11) 0.00786 395.0 45.8
423(11) 0.00815 394.9 42.3
419(11) 0.00776 394.7 39.2
429(12) 0.00704 394.6 36.4
415(11) 0.00781 394.5 34.0
420(11) 0.00810 394.3 31.8
423(11) 0.00815 394.2 29.8
429(11) 0.00747 394.0 28.0
445(12) 0.00678 393.9 26.4
430(11) 0.00780 393.7 25.0
432(11) 0.00796 393.6 23.7
416(11) 0.00824 393.5 22.5
413(11) 0.00794 393.3 21.4
383(11) 0.00806 393.2 20.4
407(11) 0.00777 393.0 19.5
395(10) 0.00864 392.9 18.6
419(11) 0.00804 392.7 17.9
437(11) 0.00738 392.6 17.2
402(11) 0.00782 392.5 16.5
389(11) 0.00804 392.3 15.9
408(10) 0.00840 392.2 15.3
401(10) 0.00843 392.0 14.8
405(11) 0.00789 391.9 14.3
402(11) 0.00759 391.7 13.9
413(11) 0.00775 391.6 13.5
403(10) 0.00852 391.5 13.1
395(11) 0.00820 391.3 12.7
386(10) 0.00854 391.2 12.4
393(11) 0.00805 391.0 12.0
385(10) 0.00840 390.9 11.7
405(10) 0.00845 390.7 11.5
429(11) 0.00763 390.6 11.2
386(11) 0.00830 390.5 11.0
388(11) 0.00813 390.3 10.7
400(11) 0.00822 390.2 10.5
368(10) 0.00921 390.0 10.3
377(10) 0.00885 389.9 10.1
384(10) 0.00852 389.7 10.0
396(11) 0.00825 389.6 9.8
380(10) 0.00897 389.5 9.7
409(10) 0.00846 389.3 9.5
373(10) 0.00870 389.2 9.4
367(10) 0.00847 389.0 9.3
374(10) 0.00848 388.9 9.1
376(10) 0.00903 388.7 9.0
392(10) 0.00876 388.6 8.9
386(11) 0.00811 388.5 8.8
390(11) 0.00749 388.3 8.8
375(10) 0.00858 388.2 8.7
379(10) 0.00899 388.0 8.6
392(10) 0.00860 387.9 8.5
385(11) 0.00838 387.7 8.5
389(11) 0.00764 387.6 8.4
365(10) 0.00906 387.5 8.4
380(10) 0.00908 387.3 8.4
386(10) 0.00868 387.2 8.3
390(11) 0.00830 387.0 8.3
400(11) 0.00764 386.9 8.3
375(11) 0.00832 386.7 8.3
397(10) 0.00867 386.6 8.2
390(10) 0.00853 386.5 8.2
407(11) 0.00782 386.3 8.2
398(11) 0.00784 386.2 8.2
432(11) 0.00728 386.0 8.2
401(10) 0.00855 385.9 8.3
378(10) 0.00868 385.8 8.3
367(10) 0.00872 385.7 8.3
370(11) 0.00832 385.6 8.3
370(10) 0.00865 385.5 8.4
376(10) 0.00902 385.3 8.4
356(10) 0.00950 385.2 8.5
383(11) 0.00822 385.1 8.5
369(11) 0.00832 385.0 8.6
394(11) 0.00822 384.9 8.7
414(11) 0.00823 384.7 8.8
404(11) 0.00809 384.6 8.9
393(10) 0.00849 384.5 9.0
418(11) 0.00747 384.4 9.1
392(11) 0.00816 384.3 9.2
409(11) 0.00838 384.2 9.4
380(10) 0.00862 384.0 9.6
377(11) 0.00830 383.9 9.7
374(10) 0.00845 383.8 10.0
383(10) 0.00851 383.7 10.2
375(10) 0.00903 383.6 10.5
377(10) 0.00856 383.5 10.8
402(11) 0.00775 383.3 11.2
373(10) 0.00872 383.2 11.7
397(10) 0.00846 383.1 12.3
404(10) 0.00844 383.0 13.1
397(11) 0.00803 382.9 14.2
378(10) 0.00859 382.7 15.6
413(11) 0.00766 382.6 17.7
411(11) 0.00824 382.5 20.4
391(10) 0.00873 382.4 24.0
383(10) 0.00844 382.3 28.5
407(11) 0.00752 382.2 33.7
434(11) 0.00735 382.0 38.9
443(11) 0.00755 381.9 42.9
428(11) 0.00813 381.8 44.1
410(11) 0.00797 381.7 42.0
418(11) 0.00713 381.6 37.6
409(11) 0.00801 381.5 32.7
403(10) 0.00849 381.3 28.1
383(10) 0.00896 381.2 24.3
405(11) 0.00814 381.1 21.4
379(11) 0.00798 381.0 19.3
391(11) 0.00837 380.9 17.9
373(10) 0.00922 380.7 17.0
422(11) 0.00801 380.6 16.4
383(11) 0.00836 380.5 16.1
392(11) 0.00778 380.4 15.9
384(10) 0.00853 380.3 15.9
383(10) 0.00893 380.2 15.9
409(11) 0.00823 380.0 16.0
408(11) 0.00796 379.9 16.1
391(11) 0.00790 379.8 16.3
410(11) 0.00741 379.7 16.6
413(11) 0.00823 379.6 16.9
393(11) 0.00838 379.5 17.2
392(11) 0.00795 379.3 17.5
392(11) 0.00788 379.2 17.9
373(10) 0.00848 379.1 18.3
384(10) 0.00898 379.0 18.7
400(10) 0.00843 378.9 19.1
421(11) 0.00770 378.7 19.6
413(11) 0.00760 378.6 20.1
396(11) 0.00784 378.5 20.6
388(10) 0.00891 378.4 21.2
390(11) 0.00837 378.3 21.7
408(11) 0.00792 378.2 22.3
398(11) 0.00786 378.0 23.0
395(11) 0.00836 377.9 23.6
389(10) 0.00878 377.8 24.3
385(11) 0.00837 377.7 25.0
397(11) 0.00797 377.6 25.8
405(11) 0.00783 377.5 26.5
378(10) 0.00849 377.3 27.3
393(10) 0.00873 377.2 28.1
427(11) 0.00722 377.1 29.0
403(11) 0.00760 377.0 29.9
401(11) 0.00790 376.9 30.8
413(11) 0.00812 376.7 31.8
391(10) 0.00876 376.6 32.8
390(11) 0.00813 376.5 33.8
434(12) 0.00702 376.4 34.9
417(11) 0.00781 376.3 36.0
417(11) 0.00818 376.2 37.2
424(11) 0.00818 376.0 38.4
409(11) 0.00778 375.9 39.8
412(11) 0.00732 375.8 41.2
413(11) 0.00787 375.7 42.7
400(10) 0.00840 375.6 44.2
425(11) 0.00814 375.5 45.9
411(11) 0.00789 375.3 47.8
412(11) 0.00744 375.2 49.7
414(11) 0.00790 375.1 51.8
412(11) 0.00833 375.0 54.1
463(11) 0.00743 374.9 56.5
424(11) 0.00791 374.8 59.1
437(12) 0.00700 374.6 61.8
428(11) 0.00765 374.5 64.6
425(11) 0.00819 374.4 67.6
461(11) 0.00746 374.3 70.5
502(12) 0.00638 374.2 73.4
460(12) 0.00693 374.0 76.2
498(12) 0.00654 373.9 78.7
483(11) 0.00711 373.8 80.8
453(11) 0.00758 373.7 82.4
463(12) 0.00704 373.6 83.4
462(12) 0.00674 373.5 83.7
430(11) 0.00768 373.3 83.4
479(11) 0.00730 373.2 82.3
446(11) 0.00753 373.1 80.7
446(11) 0.00728 373.0 78.5
476(12) 0.00669 372.9 76.0
460(12) 0.00697 372.8 73.2
411(11) 0.00837 372.6 70.3
447(11) 0.00743 372.5 67.4
449(12) 0.00707 372.4 64.5
418(11) 0.00746 372.3 61.7
409(11) 0.00792 372.2 59.1
455(11) 0.00758 372.0 56.7
466(12) 0.00699 371.9 54.5
420(11) 0.00764 371.8 52.4
413(11) 0.00779 371.7 50.6
426(11) 0.00770 371.6 49.0
443(11) 0.00786 371.5 47.6
436(11) 0.00758 371.3 46.3
409(11) 0.00765 371.2 45.3
427(11) 0.00730 371.1 44.4
398(10) 0.00850 371.0 43.7
428(11) 0.00804 370.9 43.1
408(11) 0.00803 370.8 42.7
435(11) 0.00727 370.6 42.5
424(11) 0.00776 370.5 42.4
408(11) 0.00836 370.4 42.4
408(10) 0.00842 370.3 42.6
398(11) 0.00817 370.2 42.9
423(11) 0.00748 370.0 43.4
395(11) 0.00819 369.9 44.0
425(11) 0.00793 369.8 44.7
409(11) 0.00837 369.7 45.6
396(11) 0.00816 369.6 46.7
404(11) 0.00739 369.5 47.9
432(11) 0.00757 369.3 49.3
430(11) 0.00802 369.2 50.9
403(10) 0.00853 369.1 52.7
413(11) 0.00763 369.0 54.7
429(12) 0.00674 368.9 57.0
398(11) 0.00812 368.8 59.5
419(11) 0.00822 368.6 62.3
401(11) 0.00834 368.5 65.4
405(11) 0.00789 368.4 68.9
437(12) 0.00690 368.3 72.7
412(11) 0.00793 368.2 77.0
440(11) 0.00775 368.0 81.8
460(11) 0.00748 367.9 87.2
442(11) 0.00743 367.8 93.1
434(11) 0.00713 367.7 99.7
451(11) 0.00724 367.6 107.0
451(11) 0.00767 367.5 115.1
463(11) 0.00732 367.3 124.1
510(12) 0.00642 367.2 134.0
494(12) 0.00660 367.1 145.0
484(12) 0.00680 367.0 157.0
549(12) 0.00636 366.9 170.2
571(13) 0.00594 366.8 184.5
550(13) 0.00595 366.6 199.9
585(13) 0.00562 366.5 216.2
612(13) 0.00549 366.4 233.3
643(13) 0.00549 366.3 250.8
689(14) 0.00490 366.2 268.2
682(14) 0.00480 366.0 284.9
669(14) 0.00498 365.9 300.0
680(14) 0.00509 365.8 312.9
651(13) 0.00542 365.7 322.6
696(14) 0.00468 365.6 328.6
675(14) 0.00461 365.5 330.4
653(14) 0.00495 365.3 328.0
635(13) 0.00540 365.2 321.8
619(13) 0.00569 365.1 312.3
619(14) 0.00516 365.0 300.4
593(14) 0.00521 364.9 287.0
572(13) 0.00573 364.8 272.8
546(12) 0.00638 364.6 258.7
529(12) 0.00665 364.5 245.0
567(13) 0.00579 364.4 232.3
554(13) 0.00575 364.3 220.8
528(12) 0.00624 364.2 210.4
505(12) 0.00686 364.0 201.3
536(12) 0.00655 363.9 193.3
517(12) 0.00647 363.8 186.1
525(13) 0.00598 363.7 179.4
512(12) 0.00646 363.6 172.8
508(12) 0.00690 363.5 166.1
482(11) 0.00718 363.3 159.0
497(12) 0.00660 363.2 151.3
503(12) 0.00617 363.1 143.1
490(12) 0.00681 363.0 134.5
461(11) 0.00754 362.9 125.8
458(11) 0.00754 362.8 117.1
448(11) 0.00733 362.6 108.7
474(12) 0.00634 362.5 100.8
434(11) 0.00763 362.4 93.3
423(11) 0.00813 362.3 86.4
423(11) 0.00799 362.2 80.1
434(11) 0.00744 362.0 74.3
409(11) 0.00773 361.9 69.1
449(11) 0.00722 361.8 64.3
445(11) 0.00771 361.7 60.1
434(11) 0.00768 361.6 56.2
435(11) 0.00726 361.5 52.6
419(11) 0.00716 361.3 49.4
411(11) 0.00785 361.2 46.6
419(11) 0.00816 361.1 43.9
419(11) 0.00784 361.0 41.5
425(11) 0.00754 360.9 39.3
390(11) 0.00818 360.8 37.3
427(11) 0.00753 360.6 35.5
398(10) 0.00861 360.5 33.8
381(10) 0.00870 360.4 32.2
383(11) 0.00837 360.3 30.8
397(11) 0.00807 360.2 29.4
383(10) 0.00870 360.0 28.2
392(10) 0.00868 359.9 27.0
385(10) 0.00857 359.8 25.9
390(11) 0.00794 359.7 24.9
370(10) 0.00846 359.6 24.0
388(10) 0.00859 359.5 23.1
391(10) 0.00870 359.3 22.3
378(10) 0.00842 359.2 21.5
390(11) 0.00789 359.1 20.8
342(10) 0.00968 359.0 20.1
355(10) 0.00944 358.9 19.5
364(10) 0.00920 358.8 18.9
365(10) 0.00876 358.6 18.3
399(11) 0.00766 358.5 17.8
374(10) 0.00871 358.4 17.3
374(10) 0.00915 358.3 16.8
381(10) 0.00884 358.2 16.3
370(10) 0.00849 358.0 15.9
387(11) 0.00778 357.9 15.5
338(10) 0.00976 357.8 15.1
357(10) 0.00945 357.7 14.8
392(10) 0.00873 357.6 14.4
402(11) 0.00797 357.5 14.1
361(10) 0.00861 357.3 13.8
355(10) 0.00919 357.2 13.5
393(10) 0.00866 357.1 13.2
377(10) 0.00896 357.0 13.0
368(10) 0.00870 356.9 12.7
366(11) 0.00827 356.8 12.5
350(10) 0.00926 356.6 12.3
358(10) 0.00960 356.5 12.1
361(10) 0.00927 356.4 11.9
375(10) 0.00849 356.3 11.8
386(11) 0.00804 356.2 11.6
362(10) 0.00892 356.0 11.5
363(10) 0.00938 355.9 11.4
385(10) 0.00872 355.8 11.2
403(11) 0.00783 355.7 11.2
344(10) 0.00900 355.6 11.1
370(10) 0.00842 355.5 11.0
346(10) 0.00984 355.3 11.0
371(10) 0.00897 355.2 11.0
345(10) 0.00915 355.1 11.0
386(11) 0.00784 355.0 11.0
359(10) 0.00908 354.9 11.0
368(10) 0.00924 354.8 11.1
355(10) 0.00921 354.6 11.1
345(10) 0.00946 354.5 11.2
372(11) 0.00815 354.4 11.3
360(10) 0.00907 354.3 11.5
349(10) 0.00979 354.2 11.7
355(10) 0.00882 354.1 11.9
343(10) 0.00914 353.9 12.1
376(10) 0.00850 353.8 12.3
351(10) 0.00946 353.7 12.6
383(10) 0.00896 353.6 12.9
360(10) 0.00863 353.5 13.3
347(10) 0.00897 353.3 13.6
365(10) 0.00880 353.2 14.0
364(10) 0.00888 353.1 14.4
378(10) 0.00907 353.0 14.8
372(10) 0.00848 352.9 15.1
364(10) 0.00849 352.8 15.4
389(10) 0.00842 352.6 15.7
363(10) 0.00927 352.5 15.9
336(10) 0.01001 352.4 16.1
359(10) 0.00880 352.3 16.1
333(10) 0.00928 352.2 16.1
358(10) 0.00879 352.1 15.9
363(10) 0.00936 351.9 15.7
336(10) 0.01000 351.8 15.3
366(10) 0.00884 351.7 14.9
344(10) 0.00859 351.6 14.5
359(10) 0.00889 351.5 14.0
349(10) 0.00984 351.3 13.5
360(10) 0.00930 351.2 12.9
324(10) 0.00973 351.1 12.4
338(10) 0.00866 351.0 11.9
348(10) 0.00921 350.9 11.4
326(9) 0.01023 350.8 11.0
358(10) 0.00932 350.6 10.5
356(10) 0.00903 350.5 10.1
370(11) 0.00811 350.4 9.7
354(10) 0.00892 350.3 9.4
334(9) 0.01008 350.2 9.0
349(10) 0.00947 350.1 8.7
363(10) 0.00865 349.9 8.4
344(10) 0.00899 349.8 8.2
321(10) 0.00975 349.7 7.9
361(10) 0.00941 349.6 7.7
355(10) 0.00950 349.5 7.5
335(10) 0.00939 349.3 7.3
352(10) 0.00863 349.2 7.1
365(10) 0.00893 349.1 6.9
342(10) 0.00993 349.0 6.8
373(10) 0.00887 348.9 6.6
349(10) 0.00920 348.8 6.5
352(10) 0.00922 348.6 6.4
380(10) 0.00852 348.5 6.3
363(10) 0.00933 348.4 6.2
369(10) 0.00883 348.3 6.1
356(10) 0.00864 348.2 6.0
352(10) 0.00859 348.1 5.9
349(10) 0.00930 347.9 5.8
354(10) 0.00964 347.8 5.8
363(10) 0.00872 347.7 5.7
346(10) 0.00904 347.6 5.6
334(10) 0.00968 347.5 5.6
367(10) 0.00908 347.3 5.5
334(9) 0.01009 347.2 5.5
344(10) 0.00916 347.1 5.5
368(11) 0.00828 347.0 5.4
347(10) 0.00937 346.9 5.4
344(10) 0.00976 346.9 5.4
352(10) 0.00965 346.8 5.4
355(10) 0.00890 346.7 5.3
360(11) 0.00831 346.6 5.3
357(10) 0.00895 346.5 5.3
365(10) 0.00933 346.4 5.3
328(9) 0.01037 346.3 5.3
355(10) 0.00906 346.2 5.3
357(11) 0.00833 346.2 5.3
323(10) 0.00978 346.1 5.3
326(9) 0.01037 346.0 5.3
370(10) 0.00920 345.9 5.3
350(10) 0.00931 345.8 5.4
338(10) 0.00927 345.7 5.4
371(10) 0.00847 345.6 5.4
371(10) 0.00914 345.5 5.4
364(10) 0.00925 345.4 5.5
354(10) 0.00918 345.4 5.5
363(10) 0.00844 345.3 5.6
343(10) 0.00962 345.2 5.6
343(10) 0.00996 345.1 5.7
352(10) 0.00940 345.0 5.7
354(10) 0.00888 344.9 5.8
341(10) 0.00903 344.8 5.9
341(10) 0.00933 344.7 5.9
344(10) 0.00981 344.6 6.0
369(10) 0.00892 344.6 6.1
350(10) 0.00915 344.5 6.2
348(10) 0.00888 344.4 6.3
337(10) 0.00951 344.3 6.4
365(10) 0.00931 344.2 6.5
358(10) 0.00936 344.1 6.7
346(10) 0.00908 344.0 6.8
344(10) 0.00870 343.9 7.0
321(10) 0.00996 343.9 7.1
359(10) 0.00950 343.8 7.3
363(10) 0.00899 343.7 7.5
346(10) 0.00901 343.6 7.7
358(10) 0.00856 343.5 7.9
360(10) 0.00896 343.4 8.1
344(10) 0.00984 343.3 8.4
340(10) 0.00958 343.2 8.7
339(10) 0.00938 343.1 8.9
358(10) 0.00895 343.1 9.2
357(10) 0.00936 343.0 9.6
371(10) 0.00923 342.9 9.9
380(11) 0.00813 342.8 10.3
350(10) 0.00865 342.7 10.7
344(10) 0.00915 342.6 11.1
349(10) 0.00952 342.5 11.6
351(10) 0.00978 342.4 12.1
372(10) 0.00852 342.3 12.6
344(10) 0.00886 342.3 13.2
364(10) 0.00890 342.2 13.8
354(10) 0.00950 342.1 14.5
369(10) 0.00927 342.0 15.1
357(10) 0.00908 341.9 15.9
342(10) 0.00897 341.8 16.6
339(10) 0.00957 341.7 17.5
363(10) 0.00948 341.6 18.3
374(10) 0.00886 341.6 19.2
360(10) 0.00876 341.5 20.1
369(11) 0.00778 341.4 21.0
348(10) 0.00914 341.3 21.9
360(10) 0.00946 341.2 22.9
364(10) 0.00908 341.1 23.8
376(10) 0.00860 341.0 24.6
368(11) 0.00816 340.9 25.4
347(10) 0.00921 340.8 26.2
381(10) 0.00895 340.8 26.8
368(10) 0.00927 340.7 27.3
383(11) 0.00827 340.6 27.7
384(11) 0.00807 340.5 27.9
362(10) 0.00892 340.4 28.0
339(10) 0.01000 340.3 27.9
355(10) 0.00952 340.2 27.6
344(10) 0.00935 340.1 27.2
368(11) 0.00833 340.0 26.7
349(10) 0.00922 340.0 26.0
380(10) 0.00904 339.9 25.3
350(10) 0.00936 339.8 24.5
367(10) 0.00847 339.7 23.6
358(10) 0.00881 339.6 22.7
383(11) 0.00834 339.5 21.8
344(10) 0.00993 339.4 20.9
370(10) 0.00849 339.3 20.0
352(10) 0.00886 339.2 19.1
355(10) 0.00862 339.2 18.2
344(10) 0.00917 339.1 17.4
365(10) 0.00929 339.0 16.6
352(10) 0.00946 338.9 15.9
357(10) 0.00880 338.8 15.2
344(10) 0.00949 338.7 14.5
331(10) 0.00978 338.6 13.9
357(10) 0.00955 338.5 13.3
328(10) 0.00951 338.5 12.8
354(10) 0.00839 338.4 12.3
332(10) 0.00931 338.3 11.8
341(10) 0.00948 338.2 11.4
349(10) 0.00967 338.1 11.0
359(10) 0.00888 338.0 10.6
348(10) 0.00885 337.9 10.3
327(10) 0.00989 337.8 10.0
350(10) 0.00966 337.7 9.7
332(9) 0.01009 337.7 9.4
352(10) 0.00904 337.6 9.2
370(11) 0.00832 337.5 9.0
346(10) 0.00924 337.4 8.8
356(10) 0.00939 337.3 8.6
336(9) 0.01010 337.2 8.4
333(10) 0.00927 337.1 8.3
318(10) 0.00918 337.0 8.1
326(10) 0.01002 336.9 8.0
354(10) 0.00952 336.9 7.9
365(10) 0.00926 336.8 7.8
349(10) 0.00928 336.7 7.7
336(10) 0.00892 336.6 7.7
343(10) 0.00935 336.5 7.6
360(10) 0.00943 336.4 7.6
337(10) 0.01000 336.3 7.5
346(10) 0.00914 336.2 7.5
331(10) 0.00921 336.2 7.5
365(10) 0.00867 336.1 7.5
326(9) 0.01028 336.0 7.5
323(9) 0.01020 335.9 7.5
328(10) 0.00952 335.8 7.5
335(10) 0.00916 335.7 7.5
349(10) 0.00884 335.6 7.5
339(10) 0.00997 335.5 7.6
347(10) 0.00946 335.4 7.6
329(10) 0.00945 335.4 7.7
365(10) 0.00855 335.3 7.7
343(10) 0.00935 335.2 7.8
331(9) 0.01027 335.1 7.8
342(10) 0.00967 335.0 7.9
342(10) 0.00940 334.9 7.9
335(10) 0.00934 334.8 8.0
360(10) 0.00895 334.7 8.0
357(10) 0.00949 334.6 8.1
334(10) 0.00958 334.6 8.1
340(10) 0.00917 334.5 8.1
357(10) 0.00876 334.4 8.2
342(10) 0.00964 334.3 8.2
311(9) 0.01071 334.2 8.2
346(10) 0.00915 334.1 8.2
378(11) 0.00799 334.0 8.2
326(10) 0.00996 333.9 8.2
349(10) 0.00955 333.9 8.2
352(10) 0.00977 333.8 8.1
343(10) 0.00918 333.7 8.1
327(10) 0.00969 333.6 8.0
352(10) 0.00877 333.5 7.9
340(10) 0.00984 333.4 7.9
338(10) 0.00987 333.3 7.8
340(10) 0.00925 333.2 7.7
338(10) 0.00881 333.1 7.6
333(10) 0.00948 333.1 7.5
335(10) 0.01007 333.0 7.3
342(10) 0.00998 332.9 7.2
347(10) 0.00897 332.8 7.1
323(10) 0.00957 332.7 6.9
366(10) 0.00858 332.6 6.8
354(10) 0.00941 332.5 6.7
318(9) 0.01063 332.4 6.5
342(10) 0.00899 332.3 6.4
334(10) 0.00910 332.3 6.3
348(10) 0.00923 332.2 6.1
325(9) 0.01046 332.1 6.0
366(10) 0.00917 332.0 5.8
339(10) 0.00927 331.9 5.7
324(10) 0.00962 331.8 5.6
332(10) 0.00957 331.7 5.5
320(9) 0.01058 331.6 5.3
341(10) 0.00959 331.6 5.2
323(10) 0.00999 331.5 5.1
346(10) 0.00901 331.4 5.0
338(10) 0.00933 331.3 4.9
321(9) 0.01049 331.2 4.8
322(9) 0.01018 331.1 4.7
349(10) 0.00877 331.0 4.5
327(10) 0.00939 330.9 4.5
335(10) 0.00910 330.8 4.4
318(9) 0.01064 330.8 4.3
336(10) 0.00958 330.7 4.2
339(10) 0.00964 330.6 4.1
336(10) 0.00928 330.5 4.0
303(9) 0.01016 330.4 3.9
328(9) 0.01031 330.3 3.9
334(10) 0.00963 330.2 3.8
322(10) 0.00969 330.1 3.7
318(10) 0.00956 330.0 3.7
341(10) 0.00943 330.0 3.6
339(10) 0.00996 329.9 3.5
353(10) 0.00916 329.8 3.5
339(10) 0.00886 329.7 3.4
324(10) 0.00965 329.6 3.4
344(10) 0.00928 329.5 3.3
344(10) 0.00982 329.4 3.2
354(10) 0.00878 329.3 3.2
315(10) 0.00958 329.2 3.1
314(10) 0.00994 329.2 3.1
350(10) 0.00948 329.1 3.1
340(10) 0.00996 329.0 3.0
348(10) 0.00891 328.9 3.0
324(10) 0.00893 328.8 2.9
312(9) 0.01020 328.7 2.9
349(10) 0.00962 328.6 2.9
325(9) 0.01039 328.5 2.8
335(10) 0.00924 328.5 2.8
327(10) 0.00868 328.4 2.8
340(10) 0.00918 328.3 2.7
342(10) 0.00968 328.2 2.7
331(9) 0.01019 328.1 2.7
315(10) 0.00979 328.0 2.6
329(10) 0.00860 327.9 2.6
300(9) 0.01088 327.8 2.6
343(10) 0.00981 327.7 2.6
340(10) 0.00993 327.7 2.6
333(10) 0.00934 327.6 2.5
311(10) 0.00992 327.5 2.5
305(9) 0.01049 327.4 2.5
331(9) 0.01009 327.3 2.5
321(9) 0.01027 327.2 2.4
314(10) 0.01000 327.1 2.4
345(10) 0.00871 327.0 2.4
331(10) 0.00990 326.9 2.4
351(10) 0.00974 326.9 2.4
344(10) 0.00957 326.8 2.4
347(10) 0.00879 326.7 2.4
315(10) 0.00987 326.6 2.3
329(10) 0.00957 326.5 2.3
299(9) 0.01124 326.4 2.3
340(10) 0.00963 326.3 2.3
318(9) 0.01009 326.2 2.3
321(10) 0.00972 326.2 2.3
320(10) 0.01006 326.1 2.3
341(10) 0.00990 326.0 2.3
309(9) 0.01054 325.9 2.3
319(10) 0.00975 325.8 2.2
338(10) 0.00935 325.7 2.2
328(10) 0.00985 325.6 2.2
334(10) 0.01004 325.5 2.2
345(10) 0.00936 325.4 2.2
335(10) 0.00900 325.4 2.2
321(10) 0.00969 325.3 2.2
327(10) 0.00999 325.2 2.2
325(9) 0.01027 325.2 2.2
328(10) 0.00954 325.1 2.2
344(10) 0.00899 325.0 2.2
314(9) 0.01043 325.0 2.2
312(9) 0.01044 324.9 2.2
311(9) 0.01083 324.8 2.2
320(10) 0.00991 324.8 2.2
333(10) 0.00917 324.7 2.2
336(10) 0.00940 324.6 2.2
346(10) 0.00944 324.6 2.2
324(9) 0.01044 324.5 2.2
330(10) 0.00937 324.4 2.2
312(10) 0.00944 324.4 2.2
310(9) 0.01023 324.3 2.2
311(9) 0.01040 324.2 2.2
321(9) 0.01046 324.2 2.2
340(10) 0.00929 324.1 2.2
311(10) 0.00963 324.0 2.3
314(10) 0.00976 324.0 2.3
312(9) 0.01078 323.9 2.3
325(9) 0.01025 323.8 2.3
304(9) 0.01078 323.8 2.3
342(10) 0.00883 323.7 2.3
340(10) 0.00940 323.6 2.3
311(9) 0.01064 323.6 2.4
311(9) 0.01073 323.5 2.4
313(9) 0.01014 323.4 2.4
351(11) 0.00833 323.4 2.4
318(10) 0.00999 323.3 2.5
309(9) 0.01085 323.2 2.5
334(10) 0.00977 323.2 2.5
333(10) 0.00958 323.1 2.6
326(10) 0.00970 323.0 2.6
347(10) 0.00913 323.0 2.6
330(9) 0.01018 322.9 2.7
320(9) 0.01031 322.8 2.7
305(9) 0.01014 322.8 2.8
316(10) 0.00941 322.7 2.8
316(9) 0.01018 322.6 2.9
325(9) 0.01032 322.6 3.0
302(9) 0.01059 322.5 3.0
302(9) 0.01012 322.4 3.1
305(9) 0.01020 322.4 3.2
322(10) 0.01007 322.3 3.3
333(9) 0.01016 322.2 3.4
315(10) 0.00999 322.2 3.5
341(10) 0.00926 322.1 3.7
321(10) 0.00972 322.0 3.9
308(9) 0.01033 322.0 4.0
319(9) 0.01051 321.9 4.2
355(10) 0.00912 321.8 4.5
338(10) 0.00911 321.8 4.8
301(9) 0.01072 321.7 5.1
309(9) 0.01057 321.6 5.5
339(10) 0.00998 321.6 6.0
320(10) 0.00973 321.5 6.5
303(9) 0.01020 321.4 7.2
328(10) 0.00948 321.4 7.9
306(9) 0.01083 321.3 8.8
317(9) 0.01064 321.2 9.8
330(10) 0.00970 321.2 11.0
341(10) 0.00889 321.1 12.4
337(10) 0.00933 321.0 13.8
354(10) 0.00936 321.0 15.3
313(9) 0.01085 320.9 16.8
344(10) 0.00923 320.8 18.0
343(10) 0.00881 320.8 18.9
325(10) 0.00980 320.7 19.2
338(10) 0.01001 320.6 18.9
330(9) 0.01022 320.6 18.1
319(10) 0.00982 320.5 17.0
330(10) 0.00906 320.4 15.6
355(10) 0.00901 320.4 14.1
338(10) 0.01002 320.3 12.8
321(9) 0.01022 320.2 11.5
328(10) 0.00972 320.2 10.4
332(10) 0.00936 320.1 9.4
315(10) 0.00997 320.0 8.6
318(9) 0.01053 320.0 7.9
322(9) 0.01044 319.9 7.4
308(9) 0.01069 319.8 6.9
302(9) 0.01036 319.8 6.5
339(10) 0.00930 319.7 6.2
330(9) 0.01017 319.6 6.0
311(9) 0.01048 319.6 5.8
361(10) 0.00852 319.5 5.6
321(10) 0.00958 319.4 5.5
306(9) 0.01033 319.4 5.4
325(9) 0.01026 319.3 5.3
323(9) 0.01023 319.2 5.3
308(9) 0.01016 319.2 5.3
304(9) 0.01015 319.1 5.2
286(9) 0.01119 319.0 5.2
304(9) 0.01094 319.0 5.3
312(9) 0.01046 318.9 5.3
321(10) 0.00923 318.8 5.3
300(9) 0.01039 318.8 5.3
341(10) 0.00942 318.7 5.4
290(9) 0.01153 318.6 5.5
312(10) 0.01004 318.6 5.5
336(10) 0.00890 318.5 5.6
328(10) 0.00966 318.4 5.7
312(9) 0.01054 318.4 5.8
329(9) 0.01024 318.3 5.9
297(9) 0.01073 318.2 6.0
296(9) 0.01042 318.2 6.2
312(9) 0.01022 318.1 6.4
329(9) 0.01015 318.0 6.6
307(9) 0.01085 318.0 6.8
294(9) 0.01079 317.9 7.1
313(10) 0.00941 317.8 7.4
315(10) 0.00995 317.8 7.7
297(9) 0.01101 317.7 8.0
299(9) 0.01103 317.6 8.3
311(10) 0.00998 317.6 8.6
298(10) 0.00969 317.5 8.9
317(10) 0.00991 317.4 9.0
315(9) 0.01059 317.4 9.1
332(9) 0.01011 317.3 9.1
315(9) 0.01009 317.2 9.0
323(10) 0.00919 317.2 8.8
325(10) 0.00964 317.1 8.5
316(9) 0.01056 317.0 8.1
313(9) 0.01050 317.0 7.8
318(10) 0.00963 316.9 7.4
316(10) 0.00966 316.8 7.1
347(10) 0.00927 316.8 6.8
316(9) 0.01063 316.7 6.5
319(9) 0.01018 316.6 6.3
302(9) 0.01051 316.6 6.0
328(10) 0.00899 316.5 5.9
323(10) 0.00948 316.4 5.7
304(9) 0.01103 316.4 5.6
321(9) 0.01014 316.3 5.5
318(10) 0.00981 316.2 5.4
319(10) 0.00961 316.2 5.3
288(9) 0.01108 316.1 5.2
310(9) 0.01078 316.0 5.2
310(9) 0.01066 316.0 5.2
313(10) 0.00983 315.9 5.2
316(10) 0.00960 315.8 5.2
313(10) 0.01006 315.8 5.2
311(9) 0.01078 315.7 5.2
316(10) 0.01003 315.6 5.2
342(10) 0.00911 315.6 5.3
312(9) 0.01030 315.5 5.3
327(9) 0.01015 315.4 5.4
317(9) 0.01059 315.4 5.5
302(9) 0.01025 315.3 5.5
292(9) 0.01047 315.2 5.6
312(10) 0.00986 315.2 5.7
283(9) 0.01177 315.1 5.8
321(9) 0.01048 315.0 5.9
316(10) 0.00996 315.0 6.0
313(10) 0.00965 314.9 6.1
292(9) 0.01052 314.8 6.3
308(9) 0.01059 314.8 6.4
331(9) 0.01018 314.7 6.5
315(9) 0.01025 314.6 6.7
321(10) 0.00962 314.6 6.9
292(9) 0.01074 314.5 7.0
324(9) 0.01015 314.4 7.2
324(9) 0.01026 314.4 7.4
305(9) 0.01012 314.3 7.6
308(10) 0.01006 314.2 7.8
337(10) 0.00951 314.2 8.0
323(9) 0.01024 314.1 8.2
308(9) 0.01059 314.0 8.4
307(9) 0.01010 314.0 8.6
294(9) 0.01050 313.9 8.9
323(10) 0.00997 313.8 9.1
319(9) 0.01039 313.8 9.4
294(9) 0.01118 313.7 9.6
311(9) 0.01015 313.6 9.9
318(10) 0.00910 313.6 10.1
295(9) 0.01032 313.5 10.3
345(10) 0.00980 313.4 10.6
310(9) 0.01071 313.4 10.8
325(10) 0.00968 313.3 11.1
320(10) 0.00939 313.2 11.3
304(9) 0.01034 313.2 11.5
305(9) 0.01100 313.1 11.7
324(9) 0.01038 313.0 11.9
325(10) 0.00967 313.0 12.0
316(10) 0.00930 312.9 12.2
312(9) 0.01008 312.8 12.3
319(9) 0.01050 312.8 12.4
327(9) 0.01013 312.7 12.5
314(9) 0.01026 312.6 12.6
311(9) 0.01024 312.6 12.6
323(10) 0.00995 312.5 12.6
318(9) 0.01068 312.4 12.6
327(10) 0.00997 312.4 12.6
317(10) 0.00990 312.3 12.6
308(9) 0.01011 312.2 12.6
293(9) 0.01104 312.2 12.5
306(9) 0.01097 312.1 12.4
325(10) 0.00975 312.0 12.4
343(10) 0.00910 312.0 12.3
323(10) 0.00980 311.9 12.2
317(9) 0.01041 311.8 12.2
325(9) 0.01036 311.8 12.1
297(9) 0.01055 311.7 12.0
326(10) 0.00914 311.6 12.0
342(10) 0.00923 311.6 11.9
325(10) 0.01007 311.5 11.9
319(9) 0.01056 311.4 11.9
317(10) 0.00988 311.4 11.9
326(10) 0.00911 311.3 11.9
311(9) 0.01020 311.2 11.9
287(9) 0.01139 311.2 12.0
301(9) 0.01093 311.1 12.1
323(10) 0.00954 311.0 12.2
327(10) 0.00910 311.0 12.3
347(10) 0.00924 310.9 12.5
306(9) 0.01087 310.8 12.6
311(9) 0.01087 310.8 12.8
285(9) 0.01117 310.7 13.1
312(10) 0.00926 310.6 13.3
299(9) 0.01056 310.6 13.6
328(9) 0.01012 310.5 13.9
303(9) 0.01061 310.4 14.3
290(9) 0.01093 310.4 14.7
311(10) 0.00933 310.3 15.1
317(10) 0.01000 310.2 15.5
322(9) 0.01033 310.2 16.0
308(9) 0.01084 310.1 16.6
314(10) 0.01006 310.0 17.1
347(10) 0.00861 310.0 17.7
332(10) 0.00950 309.9 18.3
316(9) 0.01075 309.8 18.9
350(10) 0.00928 309.8 19.6
312(9) 0.01054 309.7 20.3
331(10) 0.00918 309.6 20.9
317(10) 0.00979 309.6 21.6
321(9) 0.01052 309.5 22.2
342(10) 0.00948 309.4 22.9
358(10) 0.00880 309.4 23.4
359(10) 0.00877 309.3 23.9
347(10) 0.00900 309.2 24.4
332(9) 0.01026 309.2 24.7
349(10) 0.00933 309.1 25.0
345(10) 0.00911 309.0 25.2
339(10) 0.00914 309.0 25.2
323(10) 0.00987 308.9 25.2
346(10) 0.00978 308.8 25.0
371(10) 0.00843 308.8 24.7
345(10) 0.00897 308.7 24.3
347(10) 0.00936 308.6 23.9
371(10) 0.00892 308.6 23.3
338(10) 0.00994 308.5 22.7
321(10) 0.00985 308.4 22.0
336(10) 0.00888 308.4 21.3
337(10) 0.00946 308.3 20.6
345(10) 0.00956 308.2 19.8
348(10) 0.00977 308.2 19.1
336(10) 0.00921 308.1 18.3
294(9) 0.01030 308.0 17.6
304(9) 0.01065 308.0 16.8
315(9) 0.01039 307.9 16.1
322(9) 0.01036 307.8 15.4
327(10) 0.00963 307.8 14.8
357(11) 0.00823 307.7 14.2
324(10) 0.00976 307.6 13.6
324(9) 0.01031 307.6 13.0
312(9) 0.01082 307.5 12.5
350(10) 0.00898 307.4 12.0
343(10) 0.00872 307.4 11.5
326(10) 0.00979 307.3 11.1
327(9) 0.01022 307.2 10.6
332(10) 0.01001 307.2 10.3
335(10) 0.00918 307.1 9.9
308(10) 0.00983 307.0 9.5
346(10) 0.00915 307.0 9.2
326(9) 0.01032 306.9 8.9
321(9) 0.01049 306.8 8.6
327(10) 0.00975 306.8 8.4
328(10) 0.00894 306.7 8.1
294(9) 0.01050 306.6 7.9
317(9) 0.01045 306.6 7.7
300(9) 0.01092 306.5 7.5
305(9) 0.01043 306.4 7.3
310(10) 0.00973 306.4 7.2
302(10) 0.00983 306.3 7.0
284(9) 0.01164 306.2 6.9
289(9) 0.01100 306.2 6.8
298(9) 0.01035 306.1 6.6
293(9) 0.01056 306.0 6.5
290(9) 0.01095 306.0 6.4
316(9) 0.01056 305.9 6.4
306(9) 0.01070 305.8 6.3
290(9) 0.01071 305.8 6.2
320(10) 0.00978 305.7 6.2
321(9) 0.01008 305.6 6.1
315(9) 0.01077 305.6 6.1
322(10) 0.00968 305.5 6.0
321(10) 0.00936 305.4 6.0
316(9) 0.01035 305.4 6.0
294(9) 0.01099 305.3 6.0
281(9) 0.01175 305.2 6.0
308(9) 0.01036 305.2 5.9
307(10) 0.00979 305.1 5.9
311(10) 0.01005 305.0 5.9
303(9) 0.01078 305.0 5.9
296(9) 0.01130 304.9 5.9
277(9) 0.01087 304.8 5.8
299(10) 0.00978 304.8 5.8
303(9) 0.01031 304.7 5.8
300(9) 0.01101 304.6 5.7
309(9) 0.01082 304.6 5.7
278(9) 0.01166 304.5 5.6
325(10) 0.00927 304.4 5.5
294(9) 0.01111 304.4 5.5
328(9) 0.01012 304.3 5.4
295(9) 0.01144 304.2 5.3
313(9) 0.01018 304.2 5.2
298(10) 0.01005 304.1 5.1
308(10) 0.00992 304.0 5.0
293(9) 0.01149 304.0 4.9
324(9) 0.01018 303.9 4.8
300(9) 0.01076 303.8 4.7
299(10) 0.00992 303.8 4.6
308(9) 0.01037 303.7 4.5
297(9) 0.01127 303.6 4.4
305(9) 0.01082 303.6 4.3
291(9) 0.01080 303.5 4.2
294(10) 0.00992 303.4 4.1
293(9) 0.01083 303.4 4.0
317(9) 0.01055 303.3 3.9
294(9) 0.01116 303.2 3.8
295(9) 0.01058 303.2 3.7
277(9) 0.01112 303.1 3.7
288(9) 0.01106 303.0 3.6
308(9) 0.01093 303.0 3.5
307(9) 0.01089 302.9 3.4
311(10) 0.01007 302.8 3.4
314(10) 0.00979 302.8 3.3
322(10) 0.00984 302.7 3.2
322(9) 0.01036 302.6 3.2
293(9) 0.01126 302.6 3.1
283(9) 0.01139 302.5 3.1
312(10) 0.00998 302.4 3.0
306(9) 0.01034 302.4 3.0
283(9) 0.01165 302.3 2.9
294(9) 0.01086 302.2 2.9
314(10) 0.00995 302.2 2.9
309(9) 0.01019 302.1 2.8
296(9) 0.01087 302.0 2.8
293(9) 0.01128 302.0 2.7
298(9) 0.01099 301.9 2.7
297(9) 0.01051 301.8 2.7
320(10) 0.00962 301.8 2.6
304(9) 0.01081 301.7 2.6
306(9) 0.01075 301.6 2.6
295(9) 0.01054 301.6 2.5
320(10) 0.00931 301.5 2.5
302(9) 0.01043 301.4 2.5
286(9) 0.01110 301.4 2.5
291(9) 0.01162 301.3 2.4
296(9) 0.01057 301.2 2.4
304(10) 0.00959 301.2 2.4
295(9) 0.01055 301.1 2.4
289(9) 0.01115 301.0 2.4
319(9) 0.01047 301.0 2.3
295(9) 0.01085 300.9 2.3
309(10) 0.00980 300.8 2.3
302(9) 0.01087 300.8 2.3
291(9) 0.01135 300.7 2.3
287(9) 0.01166 300.6 2.3
318(10) 0.01001 300.6 2.3
314(10) 0.00933 300.5 2.2
300(9) 0.01079 300.4 2.2
301(9) 0.01109 300.4 2.2
326(9) 0.01017 300.3 2.2
305(10) 0.01005 300.2 2.2
299(10) 0.00999 300.2 2.2
304(10) 0.01003 300.1 2.2
288(9) 0.01167 300.0 2.2
276(9) 0.01181 300.0 2.1
308(10) 0.01007 299.9 2.1
287(9) 0.01065 299.8 2.1
322(10) 0.00960 299.8 2.1
313(9) 0.01067 299.7 2.1
308(9) 0.01064 299.6 2.1
305(9) 0.01009 299.6 2.1
281(9) 0.01098 299.5 2.1
291(9) 0.01082 299.4 2.1
315(9) 0.01073 299.4 2.1
298(9) 0.01112 299.3 2.1
292(9) 0.01074 299.2 2.1
278(9) 0.01066 299.2 2.1
282(9) 0.01125 299.1 2.1
302(9) 0.01108 299.0 2.1
297(9) 0.01105 299.0 2.0
291(9) 0.01099 298.9 2.0
296(9) 0.01047 298.8 2.0
288(9) 0.01128 298.8 2.0
280(9) 0.01194 298.7 2.0
304(9) 0.01054 298.6 2.0
306(9) 0.01034 298.6 2.0
286(9) 0.01102 298.5 2.0
292(9) 0.01090 298.4 2.0
301(9) 0.01115 298.4 2.0
283(9) 0.01077 298.3 2.0
275(9) 0.01096 298.2 2.0
291(9) 0.01071 298.2 2.0
302(9) 0.01106 298.1 2.0
311(9) 0.01085 298.0 2.0
286(9) 0.01128 298.0 2.0
290(9) 0.01050 297.9 2.0
327(10) 0.00954 297.8 2.0
276(9) 0.01200 297.8 2.0
309(9) 0.01081 297.7 2.0
296(9) 0.01077 297.6 2.0
301(10) 0.00995 297.6 2.0
291(9) 0.01085 297.5 2.0
291(9) 0.01139 297.4 2.0
306(9) 0.01093 297.4 2.0
296(9) 0.01056 297.3 2.0
280(9) 0.01045 297.2 2.0
277(9) 0.01119 297.2 2.0
277(9) 0.01200 297.1 2.0
299(9) 0.01101 297.0 2.0
319(10) 0.00980 297.0 2.0
300(10) 0.00969 296.9 2.1
295(9) 0.01065 296.8 2.1
321(9) 0.01037 296.8 2.1
293(9) 0.01118 296.7 2.1
283(9) 0.01093 296.6 2.1
276(9) 0.01102 296.6 2.1
311(9) 0.01011 296.5 2.1
302(9) 0.01105 296.4 2.1
284(9) 0.01164 296.4 2.1
310(10) 0.00991 296.3 2.1
298(9) 0.01023 296.2 2.1
279(9) 0.01097 296.2 2.1
292(9) 0.01127 296.1 2.1
312(9) 0.01035 296.0 2.1
276(9) 0.01141 296.0 2.1
284(9) 0.01066 295.9 2.1
284(9) 0.01134 295.8 2.1
313(9) 0.01069 295.8 2.2
303(9) 0.01084 295.7 2.2
292(9) 0.01083 295.6 2.2
286(9) 0.01076 295.6 2.2
302(9) 0.01033 295.5 2.2
292(9) 0.01152 295.4 2.2
293(9) 0.01086 295.4 2.2
289(9) 0.01050 295.3 2.2
295(9) 0.01051 295.2 2.2
302(9) 0.01071 295.2 2.2
294(9) 0.01124 295.1 2.2
278(9) 0.01098 295.0 2.3
290(9) 0.01057 295.0 2.3
284(9) 0.01093 294.9 2.3
275(9) 0.01161 294.8 2.3
278(9) 0.01195 294.8 2.3
299(9) 0.01068 294.7 2.3
294(9) 0.01036 294.6 2.3
266(9) 0.01160 294.6 2.3
273(9) 0.01202 294.5 2.4
294(9) 0.01140 294.4 2.4
303(9) 0.01046 294.4 2.4
296(9) 0.01008 294.3 2.4
285(9) 0.01098 294.2 2.4
287(9) 0.01155 294.2 2.4
285(9) 0.01164 294.3 2.5
305(9) 0.01033 294.3 2.5
311(10) 0.00934 294.3 2.5
286(9) 0.01097 294.3 2.5
303(9) 0.01080 294.3 2.5
292(9) 0.01155 294.3 2.6
280(9) 0.01169 294.3 2.6
318(10) 0.00946 294.3 2.6
301(9) 0.01062 294.3 2.6
289(9) 0.01163 294.4 2.6
322(9) 0.01009 294.4 2.7
300(9) 0.01070 294.4 2.7
284(9) 0.01054 294.4 2.7
287(9) 0.01110 294.4 2.8
291(9) 0.01147 294.4 2.8
275(9) 0.01193 294.4 2.8
302(9) 0.01066 294.4 2.8
317(10) 0.00973 294.5 2.9
291(9) 0.01087 294.5 2.9
311(9) 0.01081 294.5 3.0
281(9) 0.01174 294.5 3.0
296(9) 0.01054 294.5 3.0
294(9) 0.01089 294.5 3.1
290(9) 0.01101 294.5 3.1
284(9) 0.01176 294.5 3.2
303(9) 0.01061 294.6 3.2
311(10) 0.00996 294.6 3.3
317(10) 0.00954 294.6 3.3
281(9) 0.01100 294.6 3.4
282(9) 0.01172 294.6 3.4
269(9) 0.01191 294.6 3.5
284(9) 0.01101 294.6 3.6
284(9) 0.01100 294.6 3.6
300(9) 0.01109 294.6 3.7
297(9) 0.01111 294.7 3.8
294(9) 0.01060 294.7 3.9
292(9) 0.01047 294.7 4.0
296(9) 0.01046 294.7 4.1
289(9) 0.01140 294.7 4.1
314(9) 0.01068 294.7 4.2
319(10) 0.00993 294.7 4.3
289(9) 0.01047 294.7 4.4
288(9) 0.01064 294.8 4.5
297(9) 0.01086 294.8 4.6
274(9) 0.01218 294.8 4.7
296(9) 0.01102 294.8 4.8
302(9) 0.01026 294.8 4.9
293(9) 0.01078 294.8 4.9
299(9) 0.01090 294.8 5.0
292(9) 0.01147 294.8 5.0
283(9) 0.01102 294.8 5.0
311(10) 0.00938 294.9 5.1
316(10) 0.01006 294.9 5.1
306(9) 0.01070 294.9 5.1
273(9) 0.01229 294.9 5.1
297(9) 0.01024 294.9 5.0
308(10) 0.00945 294.9 5.0
304(9) 0.01063 294.9 5.0
287(9) 0.01162 294.9 5.0
285(9) 0.01167 295.0 4.9
307(10) 0.00987 295.0 4.9
275(9) 0.01086 295.0 4.9
293(9) 0.01099 295.0 4.8
297(9) 0.01120 295.0 4.8
292(9) 0.01090 295.0 4.8
291(9) 0.01070 295.0 4.7
306(10) 0.00981 295.0 4.7
307(9) 0.01050 295.0 4.7
283(9) 0.01174 295.1 4.7
294(9) 0.01101 295.1 4.7
294(9) 0.01053 295.1 4.7
299(9) 0.01025 295.1 4.7
289(9) 0.01092 295.1 4.7
295(9) 0.01128 295.1 4.7
285(9) 0.01145 295.1 4.7
310(10) 0.01004 295.1 4.7
283(9) 0.01075 295.2 4.7
290(9) 0.01067 295.2 4.8
278(9) 0.01198 295.2 4.8
292(9) 0.01093 295.2 4.8
271(9) 0.01125 295.2 4.8
288(9) 0.01053 295.2 4.9
284(9) 0.01151 295.2 4.9
301(9) 0.01112 295.2 4.9
283(9) 0.01148 295.2 5.0
313(10) 0.00941 295.3 5.0
317(10) 0.00967 295.3 5.1
330(10) 0.00989 295.3 5.1
285(9) 0.01169 295.3 5.2
271(9) 0.01136 295.3 5.2
301(10) 0.01007 295.3 5.3
308(10) 0.00991 295.3 5.4
292(9) 0.01112 295.3 5.4
303(9) 0.01109 295.4 5.5
281(9) 0.01149 295.4 5.6
296(10) 0.00977 295.4 5.6
280(9) 0.01123 295.4 5.7
277(9) 0.01180 295.4 5.8
303(9) 0.01109 295.4 5.9
312(9) 0.01033 295.4 5.9
295(10) 0.01004 295.4 6.0
299(9) 0.01064 295.4 6.1
297(9) 0.01138 295.5 6.2
303(9) 0.01091 295.5 6.3
294(9) 0.01104 295.5 6.4
294(10) 0.00999 295.5 6.5
274(9) 0.01189 295.5 6.6
292(9) 0.01129 295.5 6.7
295(9) 0.01130 295.5 6.8
303(9) 0.01037 295.5 6.9
304(10) 0.00978 295.6 7.1
296(9) 0.01041 295.6 7.2
310(9) 0.01075 295.6 7.3
294(9) 0.01136 295.6 7.4
281(9) 0.01146 295.6 7.6
299(9) 0.01018 295.6 7.7
301(9) 0.01036 295.6 7.9
283(9) 0.01183 295.6 8.0
295(9) 0.01122 295.6 8.2
310(9) 0.01034 295.7 8.3
305(10) 0.00990 295.7 8.5
312(10) 0.00996 295.7 8.7
299(9) 0.01109 295.7 8.8
287(9) 0.01158 295.7 9.0
291(9) 0.01054 295.7 9.2
309(10) 0.00983 295.7 9.4
308(9) 0.01064 295.7 9.6
283(9) 0.01176 295.8 9.8
306(9) 0.01048 295.8 10.0
287(9) 0.01089 295.8 10.3
283(9) 0.01098 295.8 10.5
305(9) 0.01051 295.8 10.7
312(9) 0.01082 295.8 11.0
292(9) 0.01094 295.8 11.3
319(10) 0.00932 295.8 11.5
289(9) 0.01123 295.8 11.8
304(9) 0.01090 295.9 12.1
324(9) 0.01037 295.9 12.4
302(9) 0.01088 295.9 12.7
278(9) 0.01134 295.9 13.1
287(9) 0.01080 295.9 13.4
292(9) 0.01103 295.9 13.8
300(9) 0.01109 295.9 14.1
322(10) 0.00980 295.9 14.5
321(10) 0.00950 296.0 14.9
276(9) 0.01134 296.0 15.4
303(9) 0.01089 296.0 15.8
320(9) 0.01039 296.0 16.2
317(10) 0.00990 296.0 16.7
313(10) 0.00974 296.0 17.2
310(9) 0.01043 296.0 17.7
327(9) 0.01011 296.0 18.3
321(9) 0.01060 296.0 18.8
307(9) 0.01040 296.1 19.4
316(10) 0.00930 296.1 20.1
294(9) 0.01062 296.1 20.7
321(9) 0.01028 296.1 21.4
289(9) 0.01171 296.1 22.1
294(9) 0.01027 296.1 22.8
293(9) 0.01009 296.1 23.6
306(9) 0.01045 296.1 24.5
311(9) 0.01076 296.2 25.3
307(9) 0.01071 296.2 26.2
323(10) 0.00957 296.2 27.2
333(10) 0.00901 296.2 28.2
333(10) 0.00933 296.2 29.3
336(9) 0.01010 296.2 30.5
320(9) 0.01039 296.2 31.7
338(10) 0.00930 296.2 33.0
334(10) 0.00909 296.2 34.4
326(10) 0.00957 296.3 35.8
343(10) 0.00986 296.3 37.4
325(9) 0.01012 296.3 39.2
344(10) 0.00946 296.3 41.0
349(10) 0.00897 296.3 43.0
347(10) 0.00889 296.3 45.2
337(10) 0.01004 296.3 47.6
339(10) 0.00974 296.3 50.1
359(10) 0.00857 296.4 53.0
330(10) 0.00947 296.4 56.1
341(10) 0.00949 296.4 59.6
354(10) 0.00961 296.4 63.5
384(11) 0.00809 296.4 67.9
367(10) 0.00864 296.4 72.8
371(10) 0.00873 296.4 78.4
368(10) 0.00879 296.4 84.9
369(10) 0.00922 296.4 92.2
410(11) 0.00768 296.5 100.7
391(11) 0.00813 296.5 110.4
412(11) 0.00785 296.5 121.8
409(11) 0.00810 296.5 134.9
432(11) 0.00800 296.5 150.2
470(12) 0.00690 296.5 167.8
460(12) 0.00672 296.5 188.1
482(12) 0.00671 296.5 211.3
511(12) 0.00677 296.6 237.7
564(12) 0.00620 296.6 267.1
598(13) 0.00552 296.6 299.4
638(14) 0.00487 296.6 333.8
662(14) 0.00499 296.6 368.8
751(14) 0.00464 296.6 402.5
725(14) 0.00492 296.6 431.8
724(15) 0.00449 296.6 453.9
749(15) 0.00413 296.6 466.6
756(15) 0.00434 296.7 469.3
727(14) 0.00482 296.7 463.0
714(14) 0.00493 296.7 450.5
734(15) 0.00439 296.7 434.9
711(15) 0.00443 296.7 419.1
714(14) 0.00468 296.7 405.2
685(14) 0.00521 296.7 394.2
681(14) 0.00515 296.7 386.6
691(14) 0.00477 296.8 381.8
691(14) 0.00459 296.8 378.6
709(14) 0.00473 296.8 375.4
702(14) 0.00507 296.8 370.2
715(14) 0.00491 296.8 361.5
692(14) 0.00491 296.8 348.3
645(14) 0.00504 296.8 330.6
657(14) 0.00517 296.8 309.3
666(13) 0.00528 296.9 285.6
608(13) 0.00567 296.9 261.0
564(13) 0.00590 296.9 236.7
506(12) 0.00659 296.9 213.6
523(12) 0.00628 296.9 192.2
455(11) 0.00764 296.9 172.7
436(11) 0.00749 296.9 155.2
439(11) 0.00733 296.9 139.7
420(11) 0.00748 296.9 126.0
419(11) 0.00781 297.0 114.0
410(11) 0.00835 297.0 103.4
410(11) 0.00776 297.0 94.1
396(11) 0.00799 297.0 86.0
390(11) 0.00801 297.0 78.9
387(11) 0.00828 297.0 72.6
374(10) 0.00906 297.0 67.0
371(10) 0.00861 297.0 62.2
363(10) 0.00853 297.1 57.8
378(11) 0.00832 297.1 54.0
367(10) 0.00905 297.1 50.5
348(10) 0.00968 297.1 47.4
342(10) 0.00920 297.1 44.6
305(9) 0.01017 297.1 42.1
316(9) 0.01009 297.1 39.7
333(9) 0.01008 297.1 37.6
313(9) 0.01067 297.1 35.7
323(10) 0.00962 297.2 34.0
323(10) 0.00928 297.2 32.3
325(10) 0.00985 297.2 30.8
311(9) 0.01065 297.2 29.5
314(9) 0.01066 297.2 28.2
315(10) 0.00995 297.2 27.0
307(10) 0.00974 297.2 25.9
315(10) 0.00985 297.2 24.9
319(9) 0.01066 297.3 23.9
334(9) 0.01012 297.3 23.0
312(9) 0.01009 297.3 22.2
317(10) 0.00916 297.3 21.4
326(10) 0.00964 297.3 20.7
327(9) 0.01020 297.3 20.0
324(9) 0.01042 297.3 19.4
286(9) 0.01106 297.3 18.8
297(10) 0.01004 297.3 18.3
315(10) 0.00970 297.4 17.7
317(9) 0.01062 297.4 17.3
293(9) 0.01115 297.4 16.8
300(9) 0.01080 297.4 16.4
303(9) 0.01027 297.4 16.0
322(10) 0.00984 297.4 15.6
321(9) 0.01047 297.4 15.2
309(9) 0.01071 297.4 14.9
295(9) 0.01046 297.5 14.6
287(9) 0.01076 297.5 14.3
323(10) 0.00971 297.5 14.1
302(9) 0.01112 297.5 13.8
313(9) 0.01048 297.5 13.6
322(10) 0.00969 297.5 13.4
304(10) 0.01002 297.5 13.2
316(10) 0.01002 297.5 13.0
330(9) 0.01018 297.5 12.9
321(10) 0.00994 297.6 12.8
317(10) 0.00970 297.6 12.7
322(10) 0.00969 297.6 12.6
313(9) 0.01026 297.6 12.5
334(9) 0.01012 297.6 12.5
298(9) 0.01068 297.6 12.5
297(9) 0.01058 297.6 12.5
309(9) 0.01017 297.6 12.6
307(9) 0.01067 297.7 12.6
303(9) 0.01103 297.7 12.8
284(9) 0.01102 297.7 12.9
322(10) 0.00938 297.7 13.1
308(9) 0.01037 297.7 13.4
334(10) 0.00989 297.7 13.7
348(10) 0.00977 297.7 14.1
338(10) 0.00895 297.7 14.6
319(10) 0.00903 297.7 15.2
307(9) 0.01017 297.8 15.9
321(9) 0.01031 297.8 16.8
320(9) 0.01046 297.8 17.9
337(10) 0.00955 297.8 19.3
325(10) 0.00911 297.8 21.1
337(10) 0.00958 297.8 23.5
338(10) 0.00994 297.8 26.6
372(10) 0.00898 297.8 30.7
345(10) 0.00922 297.9 36.0
366(11) 0.00804 297.9 42.7
388(10) 0.00844 297.9 51.2
393(10) 0.00851 297.9 61.4
387(10) 0.00887 297.9 73.2
393(11) 0.00824 297.9 86.2
403(11) 0.00751 297.9 98.9
427(11) 0.00743 297.9 109.3
440(11) 0.00785 297.9 114.7
385(10) 0.00881 298.0 113.4
400(11) 0.00790 298.0 105.8
372(11) 0.00825 298.0 94.1
369(10) 0.00880 298.0 80.9
379(10) 0.00895 298.0 68.2
332(10) 0.00989 298.0 56.7
360(10) 0.00894 298.0 47.1
332(10) 0.00948 298.0 39.1
350(10) 0.00869 298.1 32.8
338(10) 0.01007 298.1 27.8
332(10) 0.00968 298.1 24.0
336(10) 0.00948 298.1 21.0
301(9) 0.01064 298.1 18.8
331(10) 0.00917 298.1 16.9
331(9) 0.01013 298.1 15.5
326(10) 0.01004 298.1 14.3
327(10) 0.00919 298.1 13.4
317(10) 0.00972 298.2 12.5
298(9) 0.01110 298.2 11.8
321(9) 0.01047 298.2 11.2
314(10) 0.01006 298.2 10.7
289(9) 0.01085 298.2 10.2
283(9) 0.01111 298.2 9.8
299(9) 0.01085 298.2 9.5
294(9) 0.01144 298.2 9.1
282(9) 0.01102 298.3 8.9
309(10) 0.00990 298.3 8.6
304(9) 0.01031 298.3 8.4
292(9) 0.01065 298.3 8.2
287(9) 0.01159 298.3 8.0
302(9) 0.01036 298.3 7.8
310(10) 0.00963 298.3 7.6
290(9) 0.01090 298.3 7.5
295(9) 0.01116 298.3 7.4
323(9) 0.01034 298.4 7.2
305(9) 0.01056 298.4 7.1
272(9) 0.01130 298.4 7.0
294(9) 0.01055 298.4 6.9
319(9) 0.01034 298.4 6.8
284(9) 0.01169 298.4 6.8
292(9) 0.01062 298.4 6.7
299(10) 0.00947 298.4 6.6
295(9) 0.01061 298.5 6.6
307(9) 0.01086 298.5 6.5
342(10) 0.00976 298.5 6.5
294(9) 0.01081 298.5 6.4
295(10) 0.00979 298.5 6.4
303(9) 0.01023 298.5 6.4
298(9) 0.01119 298.5 6.3
301(9) 0.01118 298.5 6.3
309(9) 0.01012 298.5 6.3
296(9) 0.01019 298.6 6.3
309(9) 0.01023 298.6 6.2
289(9) 0.01151 298.6 6.2
309(9) 0.01057 298.6 6.2
310(10) 0.00997 298.6 6.2
291(9) 0.01031 298.6 6.2
282(9) 0.01082 298.6 6.2
292(9) 0.01138 298.6 6.2
312(9) 0.01065 298.7 6.2
306(9) 0.01063 298.7 6.2
304(10) 0.00990 298.7 6.2
309(10) 0.01005 298.7 6.2
306(9) 0.01094 298.7 6.2
291(9) 0.01136 298.7 6.2
295(9) 0.01060 298.7 6.3
285(9) 0.01113 298.7 6.3
289(9) 0.01085 298.7 6.3
305(9) 0.01096 298.8 6.3
294(9) 0.01084 298.8 6.4
292(9) 0.01064 298.8 6.4
327(10) 0.00934 298.8 6.4
314(9) 0.01016 298.8 6.4
296(9) 0.01121 298.8 6.5
308(9) 0.01039 298.8 6.5
307(10) 0.01004 298.8 6.6
303(9) 0.01039 298.9 6.6
294(9) 0.01107 298.9 6.7
271(9) 0.01214 298.9 6.7
292(9) 0.01058 298.9 6.8
308(10) 0.00968 298.9 6.8
315(10) 0.00969 298.9 6.9
322(9) 0.01018 298.9 6.9
302(9) 0.01115 298.9 7.0
299(10) 0.00991 298.9 7.1
286(9) 0.01055 298.9 7.1
316(10) 0.00994 298.9 7.2
300(9) 0.01122 298.9 7.3
307(9) 0.01087 298.9 7.3
290(9) 0.01048 298.9 7.4
326(10) 0.00889 298.8 7.5
311(9) 0.01024 298.8 7.6
319(9) 0.01029 298.8 7.7
298(9) 0.01114 298.8 7.8
283(9) 0.01086 298.8 7.9
276(9) 0.01053 298.8 8.0
284(9) 0.01121 298.8 8.1
302(9) 0.01112 298.8 8.2
293(9) 0.01126 298.8 8.3
313(10) 0.00995 298.8 8.4
278(9) 0.01069 298.8 8.5
310(10) 0.00989 298.8 8.6
297(9) 0.01128 298.8 8.7
310(9) 0.01059 298.8 8.8
321(10) 0.00974 298.8 8.9
301(9) 0.01033 298.8 9.0
307(10) 0.01002 298.8 9.2
298(9) 0.01125 298.8 9.3
312(9) 0.01057 298.7 9.4
305(9) 0.01031 298.7 9.5
286(9) 0.01078 298.7 9.6
330(10) 0.00930 298.7 9.7
299(9) 0.01118 298.7 9.9
318(9) 0.01039 298.7 10.0
328(10) 0.00939 298.7 10.1
314(10) 0.00963 298.7 10.2
319(10) 0.00998 298.7 10.3
297(9) 0.01130 298.7 10.4
327(10) 0.00954 298.7 10.5
299(9) 0.01032 298.7 10.6
304(9) 0.01034 298.7 10.7
299(9) 0.01078 298.7 10.8
303(9) 0.01120 298.7 10.8
308(10) 0.01002 298.7 10.9
310(10) 0.00984 298.7 11.0
301(9) 0.01042 298.7 11.1
313(9) 0.01031 298.7 11.1
333(9) 0.01018 298.6 11.2
321(10) 0.01002 298.6 11.3
324(10) 0.00936 298.6 11.3
311(10) 0.01006 298.6 11.4
310(9) 0.01054 298.6 11.4
330(9) 0.01018 298.6 11.5
314(10) 0.01003 298.6 11.5
319(10) 0.00931 298.6 11.6
330(10) 0.00976 298.6 11.7
326(9) 0.01026 298.6 11.7
310(9) 0.01084 298.6 11.8
330(10) 0.00963 298.6 11.8
293(9) 0.01008 298.6 11.9
296(9) 0.01051 298.6 12.0
327(9) 0.01034 298.6 12.1
334(9) 0.01024 298.6 12.2
285(9) 0.01148 298.6 12.3
292(9) 0.01008 298.6 12.4
297(9) 0.01086 298.5 12.5
329(9) 0.01028 298.5 12.6
322(9) 0.01048 298.5 12.7
308(9) 0.01038 298.5 12.9
317(10) 0.00966 298.5 13.0
319(9) 0.01015 298.5 13.2
311(9) 0.01079 298.5 13.3
310(9) 0.01074 298.5 13.5
333(10) 0.00942 298.5 13.7
326(10) 0.00921 298.5 14.0
296(9) 0.01060 298.5 14.2
297(9) 0.01132 298.5 14.5
321(10) 0.01007 298.5 14.7
325(10) 0.00975 298.5 15.0
300(9) 0.01028 298.5 15.4
322(10) 0.00956 298.5 15.7
328(9) 0.01033 298.5 16.1
308(9) 0.01076 298.5 16.5
351(10) 0.00897 298.5 16.9
320(10) 0.00967 298.4 17.4
317(10) 0.00994 298.4 17.9
319(9) 0.01056 298.4 18.5
346(10) 0.00924 298.4 19.1
332(10) 0.00955 298.4 19.8
335(10) 0.00946 298.4 20.5
335(10) 0.00963 298.4 21.3
332(9) 0.01019 298.4 22.2
331(10) 0.00972 298.4 23.2
337(10) 0.00934 298.4 24.3
323(10) 0.00984 298.4 25.5
325(9) 0.01022 298.4 26.8
356(10) 0.00955 298.4 28.3
317(9) 0.01019 298.4 30.0
344(10) 0.00890 298.4 32.0
343(10) 0.00931 298.4 34.2
348(10) 0.00946 298.4 36.8
344(10) 0.00981 298.4 39.8
364(10) 0.00848 298.3 43.5
345(10) 0.00910 298.3 48.0
375(10) 0.00854 298.3 53.8
386(10) 0.00877 298.3 61.6
393(10) 0.00871 298.3 72.3
386(11) 0.00834 298.3 87.4
405(11) 0.00752 298.3 108.6
466(12) 0.00698 298.3 137.7
473(11) 0.00727 298.3 176.3
549(12) 0.00640 298.3 225.0
579(13) 0.00580 298.3 282.1
642(14) 0.00476 298.3 342.9
716(14) 0.00458 298.3 396.7
752(14) 0.00469 298.3 428.5
786(15) 0.00455 298.3 426.0
730(14) 0.00457 298.3 390.9
675(14) 0.00456 298.3 337.0
640(14) 0.00522 298.3 279.2
592(13) 0.00597 298.3 226.4
543(12) 0.00625 298.2 182.6
507(12) 0.00660 298.2 148.8
491(12) 0.00632 298.2 124.1
426(11) 0.00752 298.2 106.9
423(11) 0.00814 298.2 95.3
419(11) 0.00801 298.2 87.6
465(12) 0.00666 298.2 82.4
399(11) 0.00804 298.2 78.8
407(11) 0.00791 298.2 76.1
401(10) 0.00845 298.2 74.1
389(10) 0.00849 298.2 72.4
389(11) 0.00807 298.2 71.0
377(11) 0.00838 298.2 69.7
390(10) 0.00857 298.2 68.6
403(10) 0.00853 298.2 67.6
387(11) 0.00828 298.2 66.7
363(10) 0.00881 298.2 65.8
400(11) 0.00790 298.2 65.1
375(10) 0.00892 298.2 64.6
359(10) 0.00953 298.1 64.1
386(11) 0.00835 298.1 63.9
365(10) 0.00857 298.1 63.8
378(11) 0.00807 298.1 63.9
382(10) 0.00861 298.1 64.1
378(10) 0.00905 298.1 64.5
371(10) 0.00857 298.1 65.2
361(10) 0.00850 298.1 65.9
381(11) 0.00830 298.1 66.9
374(10) 0.00898 298.1 67.9
389(10) 0.00883 298.1 69.1
379(10) 0.00860 298.1 70.3
381(11) 0.00813 298.1 71.6
390(11) 0.00811 298.1 72.9
404(11) 0.00808 298.1 74.2
338(10) 0.01004 298.1 75.4
373(10) 0.00860 298.1 76.5
354(11) 0.00831 298.1 77.3
364(10) 0.00900 298.0 78.0
399(10) 0.00860 298.0 78.4
385(10) 0.00886 298.0 78.5
351(10) 0.00915 298.0 78.2
352(10) 0.00846 298.0 77.7
382(11) 0.00832 298.0 76.9
387(10) 0.00891 298.0 75.9
371(10) 0.00915 298.0 74.6
370(10) 0.00847 298.0 73.2
364(10) 0.00866 298.0 71.6
361(10) 0.00899 298.0 70.0
350(10) 0.00961 298.0 68.3
345(10) 0.00966 298.0 66.6
379(11) 0.00820 298.0 64.8
366(11) 0.00838 298.0 63.1
358(10) 0.00911 298.0 61.1
350(10) 0.00973 298.0 59.1
346(10) 0.00949 298.0 56.9
346(10) 0.00931 298.0 54.6
367(11) 0.00835 297.9 52.4
349(10) 0.00899 297.9 50.2
350(10) 0.00968 297.9 48.2
336(10) 0.00975 297.9 46.3
334(10) 0.00957 297.9 44.6
365(11) 0.00829 297.9 43.0
325(10) 0.00988 297.9 41.6
316(9) 0.01059 297.9 40.4
329(10) 0.00944 297.9 39.3
333(10) 0.00937 297.9 38.3
348(10) 0.00898 297.9 37.4
346(10) 0.00935 297.9 36.6
315(9) 0.01073 297.9 35.9
328(10) 0.00970 297.9 35.2
338(10) 0.00910 297.9 34.7
341(10) 0.00910 297.9 34.2
354(10) 0.00931 297.9 33.8
341(10) 0.00991 297.9 33.5
364(10) 0.00893 297.8 33.2
328(10) 0.00961 297.8 33.0
335(10) 0.00929 297.8 32.8
326(10) 0.00998 297.8 32.7
333(9) 0.01018 297.8 32.6
325(10) 0.01005 297.8 32.6
336(10) 0.00904 297.8 32.7
349(10) 0.00912 297.8 32.8
328(9) 0.01028 297.8 32.9
353(10) 0.00961 297.8 33.1
377(11) 0.00832 297.8 33.4
319(9) 0.01015 297.8 33.6
342(10) 0.00941 297.8 34.0
360(10) 0.00917 297.8 34.4
340(10) 0.00998 297.8 34.8
332(10) 0.00959 297.8 35.3
303(10) 0.01002 297.8 35.8
330(10) 0.00951 297.8 36.4
336(10) 0.01007 297.8 37.0
343(10) 0.00979 297.7 37.7
326(10) 0.00971 297.7 38.5
339(10) 0.00881 297.7 39.3
340(10) 0.00942 297.7 40.2
349(10) 0.00951 297.7 41.2
311(9) 0.01081 297.7 42.2
346(10) 0.00919 297.7 43.3
352(10) 0.00843 297.7 44.5
339(10) 0.00913 297.7 45.8
354(10) 0.00964 297.7 47.2
361(10) 0.00911 297.7 48.7
364(10) 0.00854 297.7 50.3
334(10) 0.00935 297.7 52.0
364(10) 0.00880 297.7 53.9
389(10) 0.00874 297.7 55.9
364(10) 0.00906 297.7 58.1
377(11) 0.00820 297.7 60.5
373(11) 0.00813 297.7 63.0
363(10) 0.00880 297.6 65.8
386(10) 0.00886 297.6 68.8
385(10) 0.00845 297.6 72.1
381(11) 0.00818 297.6 75.6
385(11) 0.00794 297.6 79.5
398(11) 0.00829 297.6 83.6
402(10) 0.00854 297.6 88.2
417(11) 0.00777 297.6 93.0
398(11) 0.00782 297.6 98.3
398(11) 0.00776 297.6 104.0
428(11) 0.00780 297.6 110.0
418(11) 0.00823 297.6 116.4
422(11) 0.00771 297.6 123.1
397(11) 0.00795 297.6 130.1
428(11) 0.00746 297.6 137.3
461(11) 0.00718 297.6 144.5
467(11) 0.00741 297.6 151.5
443(11) 0.00715 297.6 158.2
433(11) 0.00723 297.6 164.3
443(11) 0.00727 297.5 169.6
468(11) 0.00729 297.5 173.8
444(11) 0.00783 297.5 177.1
481(12) 0.00659 297.5 179.2
485(12) 0.00634 297.5 180.3
493(12) 0.00663 297.5 180.6
499(12) 0.00683 297.5 180.3
469(11) 0.00729 297.5 179.8
470(12) 0.00686 297.5 179.4
524(13) 0.00579 297.5 179.4
499(12) 0.00647 297.5 180.1
461(11) 0.00741 297.5 181.9
460(11) 0.00752 297.5 184.8
461(11) 0.00714 297.5 189.3
479(12) 0.00624 297.5 195.4
501(12) 0.00651 297.5 203.3
475(11) 0.00724 297.5 213.0
531(12) 0.00653 297.5 224.7
547(12) 0.00606 297.5 238.0
553(13) 0.00561 297.4 252.6
552(13) 0.00596 297.4 267.8
569(12) 0.00618 297.4 282.5
576(13) 0.00604 297.4 295.4
555(13) 0.00595 297.4 305.1
586(13) 0.00530 297.4 310.8
571(13) 0.00583 297.4 312.3
538(12) 0.00650 297.4 310.5
571(13) 0.00594 297.4 306.5
571(13) 0.00560 297.4 301.9
576(13) 0.00546 297.4 297.8
589(13) 0.00557 297.4 294.9
624(13) 0.00566 297.4 293.8
604(13) 0.00558 297.4 294.6
606(13) 0.00538 297.4 297.3
612(13) 0.00534 297.4 301.8
648(13) 0.00529 297.4 307.8
681(14) 0.00518 297.4 314.9
687(14) 0.00498 297.3 322.7
666(14) 0.00507 297.3 330.8
694(14) 0.00484 297.3 338.5
694(14) 0.00490 297.3 345.5
677(13) 0.00523 297.3 351.1
657(14) 0.00514 297.3 354.8
657(14) 0.00499 297.3 356.4
643(14) 0.00509 297.3 355.4
632(13) 0.00537 297.3 351.9
640(13) 0.00551 297.3 345.8
577(13) 0.00557 297.3 337.4
585(13) 0.00532 297.3 327.1
602(13) 0.00545 297.3 315.1
578(13) 0.00589 297.3 301.9
549(12) 0.00641 297.3 287.9
539(12) 0.00609 297.3 273.6
553(13) 0.00579 297.3 259.2
534(12) 0.00615 297.3 245.1
560(12) 0.00611 297.3 231.3
535(12) 0.00647 297.2 218.0
530(12) 0.00633 297.2 205.2
501(13) 0.00605 297.2 193.0
489(12) 0.00664 297.2 181.4
494(12) 0.00702 297.2 170.4
473(11) 0.00728 297.2 159.9
456(11) 0.00723 297.2 150.0
458(12) 0.00646 297.2 140.8
472(12) 0.00673 297.2 132.2
440(11) 0.00792 297.2 124.2
447(11) 0.00768 297.2 116.9
441(11) 0.00733 297.2 110.1
409(11) 0.00752 297.2 103.9
406(11) 0.00786 297.2 98.1
393(10) 0.00865 297.2 92.8
417(11) 0.00819 297.2 88.0
388(11) 0.00820 297.2 83.5
418(11) 0.00713 297.2 79.4
395(11) 0.00800 297.1 75.6
381(10) 0.00891 297.1 72.1
387(10) 0.00873 297.1 68.9
375(10) 0.00876 297.1 65.9
386(11) 0.00800 297.1 63.2
382(10) 0.00854 297.1 60.6
384(10) 0.00883 297.1 58.2
386(10) 0.00845 297.1 56.0
374(10) 0.00842 297.1 54.0
368(11) 0.00838 297.1 52.0
382(10) 0.00856 297.1 50.3
389(10) 0.00888 297.1 48.6
366(10) 0.00902 297.1 47.0
359(10) 0.00869 297.1 45.6
351(10) 0.00893 297.1 44.2
377(10) 0.00886 297.1 42.9
366(10) 0.00934 297.1 41.7
365(10) 0.00892 297.1 40.6
330(10) 0.00976 297.1 39.5
360(10) 0.00867 297.0 38.5
350(10) 0.00941 297.0 37.5
357(10) 0.00953 297.0 36.6
336(10) 0.00949 297.0 35.7
344(10) 0.00908 297.0 34.8
355(10) 0.00900 297.0 34.0
346(10) 0.00976 297.0 33.2
366(10) 0.00925 297.0 32.4
334(10) 0.00937 297.0 31.7
339(10) 0.00899 297.0 31.0
333(10) 0.00972 297.0 30.3
326(10) 0.01004 297.0 29.6
346(10) 0.00975 297.0 28.9
344(10) 0.00936 297.0 28.3
350(10) 0.00872 297.0 27.6
329(10) 0.01006 297.0 27.0
359(10) 0.00948 297.0 26.4
368(10) 0.00928 297.0 25.8
337(10) 0.00949 296.9 25.3
342(10) 0.00845 296.9 24.7
329(10) 0.00964 296.9 24.2
350(10) 0.00971 296.9 23.7
348(10) 0.00970 296.9 23.2
356(10) 0.00878 296.9 22.7
328(10) 0.00907 296.9 22.2
316(10) 0.00987 296.9 21.8
318(9) 0.01053 296.9 21.4
359(10) 0.00939 296.9 21.0
323(9) 0.01010 296.9 20.6
317(10) 0.00949 296.9 20.2
328(10) 0.00968 296.9 19.9
319(9) 0.01056 296.9 19.6
316(9) 0.01061 296.9 19.3
333(10) 0.00957 296.9 19.0
335(10) 0.00935 296.9 18.7
333(10) 0.00937 296.9 18.5
337(10) 0.01000 296.9 18.2
312(9) 0.01022 296.8 18.0
351(10) 0.00899 296.8 17.8
332(10) 0.00962 296.8 17.7
332(10) 0.00949 296.8 17.5
324(9) 0.01044 296.8 17.4
321(9) 0.01024 296.8 17.3
344(10) 0.00906 296.8 17.2
326(10) 0.00984 296.8 17.2
314(9) 0.01025 296.8 17.2
329(9) 0.01034 296.8 17.2
332(10) 0.00994 296.8 17.2
326(10) 0.00988 296.8 17.3
333(10) 0.00945 296.8 17.4
312(9) 0.01029 296.8 17.6
325(9) 0.01045 296.8 17.7
299(9) 0.01037 296.8 18.0
304(10) 0.00967 296.8 18.3
297(9) 0.01049 296.8 18.6
325(9) 0.01026 296.8 19.0
326(9) 0.01030 296.7 19.5
314(10) 0.00986 296.7 20.0
312(9) 0.01009 296.7 20.6
298(9) 0.01068 296.7 21.3
311(9) 0.01048 296.7 22.1
325(9) 0.01033 296.7 23.0
329(10) 0.00943 296.7 24.0
328(10) 0.00914 296.7 25.1
331(10) 0.00956 296.7 26.3
357(10) 0.00945 296.7 27.6
335(9) 0.01009 296.7 29.0
308(9) 0.01017 296.7 30.5
336(11) 0.00830 296.7 32.0
348(10) 0.00925 296.7 33.5
371(10) 0.00918 296.7 35.0
336(10) 0.00999 296.7 36.3
349(10) 0.00918 296.7 37.5
333(10) 0.00906 296.7 38.4
346(10) 0.00908 296.6 39.0
351(10) 0.00974 296.6 39.2
335(10) 0.00994 296.6 39.1
321(10) 0.00988 296.6 38.5
359(11) 0.00819 296.6 37.6
355(10) 0.00886 296.6 36.4
337(10) 0.01000 296.6 34.9
347(10) 0.00970 296.6 33.3
340(10) 0.00955 296.6 31.6
347(10) 0.00885 296.6 29.9
343(10) 0.00901 296.6 28.2
330(9) 0.01009 296.6 26.6
315(9) 0.01036 296.6 25.0
319(9) 0.01022 296.6 23.6
330(10) 0.00950 296.6 22.2
313(9) 0.01020 296.6 21.0
314(9) 0.01074 296.6 19.8
331(10) 0.00999 296.6 18.7
307(9) 0.01016 296.6 17.8
319(10) 0.00944 296.5 16.9
321(10) 0.01004 296.5 16.1
306(9) 0.01102 296.5 15.3
311(9) 0.01034 296.5 14.7
327(10) 0.00982 296.5 14.1
313(9) 0.01026 296.5 13.5
316(9) 0.01034 296.5 13.0
330(9) 0.01016 296.5 12.6
286(9) 0.01126 296.5 12.1
321(10) 0.00956 296.5 11.8
319(10) 0.00967 296.5 11.4
308(9) 0.01029 296.5 11.1
305(9) 0.01078 296.5 10.8
316(10) 0.00996 296.5 10.5
308(10) 0.00995 296.5 10.3
329(10) 0.00938 296.5 10.1
296(9) 0.01097 296.5 9.8
300(9) 0.01125 296.5 9.7
295(9) 0.01088 296.4 9.5
319(10) 0.00942 296.4 9.3
323(10) 0.00978 296.4 9.2
307(9) 0.01082 296.4 9.0
339(10) 0.00995 296.4 8.9
307(9) 0.01056 296.4 8.8
308(10) 0.01004 296.4 8.7
309(9) 0.01016 296.4 8.6
307(9) 0.01093 296.4 8.5
297(9) 0.01122 296.4 8.4
299(10) 0.00996 296.4 8.4
294(10) 0.00963 296.4 8.3
286(9) 0.01139 296.4 8.3
300(9) 0.01119 296.4 8.2
320(9) 0.01034 296.4 8.2
307(9) 0.01053 296.4 8.2
325(10) 0.00921 296.4 8.2
301(9) 0.01053 296.4 8.2
290(9) 0.01144 296.4 8.2
315(9) 0.01068 296.3 8.2
291(9) 0.01077 296.3 8.2
288(9) 0.01061 296.3 8.3
309(9) 0.01018 296.3 8.3
289(9) 0.01144 296.3 8.4
284(9) 0.01160 296.3 8.5
300(9) 0.01069 296.3 8.6
303(9) 0.01014 296.3 8.7
293(9) 0.01012 296.3 8.8
304(9) 0.01105 296.3 9.0
310(9) 0.01053 296.3 9.1
331(10) 0.00955 296.3 9.3
278(9) 0.01150 296.3 9.5
290(9) 0.01091 296.3 9.8
316(9) 0.01051 296.3 10.1
297(9) 0.01094 296.3 10.4
297(9) 0.01034 296.3 10.7
310(10) 0.00996 296.3 11.1
313(9) 0.01032 296.2 11.5
341(10) 0.00993 296.2 12.0
329(10) 0.00965 296.2 12.5
301(10) 0.01007 296.2 13.1
313(10) 0.00951 296.2 13.7
324(9) 0.01014 296.2 14.3
318(9) 0.01058 296.2 15.0
324(10) 0.00977 296.2 15.8
311(10) 0.00981 296.2 16.6
317(10) 0.00966 296.2 17.4
304(9) 0.01069 296.2 18.2
302(9) 0.01107 296.2 19.0
280(9) 0.01111 296.2 19.8
314(10) 0.00972 296.2 20.5
309(9) 0.01046 296.2 21.1
322(9) 0.01039 296.2 21.6
295(9) 0.01126 296.2 21.9
302(9) 0.01026 296.2 22.1
307(10) 0.00969 296.2 22.0
340(10) 0.00958 296.1 21.8
314(9) 0.01083 296.1 21.3
306(9) 0.01071 296.1 20.8
302(9) 0.01035 296.1 20.1
312(10) 0.00909 296.1 19.3
290(9) 0.01083 296.1 18.4
320(9) 0.01039 296.1 17.6
317(9) 0.01060 296.1 16.7
324(10) 0.00985 296.1 15.9
309(10) 0.00968 296.1 15.0
292(9) 0.01098 296.1 14.2
295(9) 0.01134 296.1 13.5
306(9) 0.01086 296.1 12.8
308(9) 0.01023 296.1 12.2
301(10) 0.01007 296.1 11.6
278(9) 0.01138 296.1 11.0
289(9) 0.01153 296.1 10.5
279(9) 0.01173 296.1 10.1
289(9) 0.01085 296.1 9.7
291(9) 0.01043 296.0 9.3
316(10) 0.00934 296.0 8.9
299(9) 0.01115 296.0 8.6
305(9) 0.01051 296.0 8.3
269(9) 0.01138 296.0 8.1
291(9) 0.01033 296.0 7.8
290(9) 0.01104 296.0 7.6
314(9) 0.01066 296.0 7.4
307(9) 0.01063 296.0 7.2
299(9) 0.01049 296.0 7.0
295(9) 0.01054 296.0 6.9
298(9) 0.01064 296.0 6.7
333(9) 0.01021 296.0 6.6
309(9) 0.01029 296.0 6.5
304(9) 0.01019 296.0 6.4
313(9) 0.01013 296.0 6.3
304(9) 0.01031 296.0 6.2
289(9) 0.01147 296.0 6.1
304(10) 0.00989 295.9 6.0
300(10) 0.01002 295.9 5.9
292(9) 0.01064 295.9 5.8
302(9) 0.01082 295.9 5.8
293(9) 0.01134 295.9 5.7
306(9) 0.01014 295.9 5.7
289(9) 0.01062 295.9 5.6
289(9) 0.01107 295.9 5.6
296(9) 0.01099 295.9 5.5
297(9) 0.01116 295.9 5.5
282(9) 0.01144 295.9 5.4
308(10) 0.00983 295.9 5.4
307(9) 0.01034 295.9 5.4
287(9) 0.01148 295.9 5.4
293(9) 0.01129 295.9 5.3
316(10) 0.01006 295.9 5.3
292(9) 0.01011 295.9 5.3
310(10) 0.01004 295.9 5.3
309(9) 0.01072 295.9 5.3
312(9) 0.01058 295.8 5.2
313(9) 0.01010 295.8 5.2
319(10) 0.00952 295.8 5.2
318(9) 0.01016 295.8 5.2
314(9) 0.01073 295.8 5.2
313(9) 0.01072 295.8 5.2
272(9) 0.01203 295.8 5.2
298(10) 0.00945 295.8 5.2
289(9) 0.01054 295.8 5.2
285(9) 0.01151 295.8 5.2
297(9) 0.01111 295.8 5.2
290(9) 0.01100 295.8 5.2
304(10) 0.00980 295.8 5.2
305(10) 0.01002 295.8 5.2
321(9) 0.01049 295.7 5.3
312(9) 0.01028 295.7 5.3
274(9) 0.01168 295.7 5.3
298(9) 0.01017 295.7 5.3
301(9) 0.01065 295.7 5.3
293(9) 0.01140 295.6 5.3
333(10) 0.00957 295.6 5.4
313(9) 0.01012 295.6 5.4
315(10) 0.00968 295.6 5.4
290(9) 0.01109 295.6 5.5
282(9) 0.01163 295.5 5.5
280(9) 0.01129 295.5 5.5
298(9) 0.01012 295.5 5.5
287(9) 0.01093 295.5 5.6
338(10) 0.00981 295.5 5.6
286(9) 0.01158 295.4 5.7
331(10) 0.00936 295.4 5.7
308(10) 0.00993 295.4 5.7
288(9) 0.01063 295.4 5.8
285(9) 0.01140 295.4 5.8
295(9) 0.01131 295.3 5.9
301(9) 0.01035 295.3 5.9
298(9) 0.01012 295.3 6.0
297(9) 0.01061 295.3 6.1
307(9) 0.01057 295.3 6.1
303(9) 0.01103 295.2 6.2
286(9) 0.01109 295.2 6.2
293(10) 0.00996 295.2 6.3
288(9) 0.01065 295.2 6.4
299(9) 0.01105 295.2 6.5
316(9) 0.01065 295.1 6.5
307(9) 0.01013 295.1 6.6
293(10) 0.00994 295.1 6.7
314(9) 0.01018 295.1 6.8
298(9) 0.01131 295.1 6.9
313(9) 0.01061 295.0 7.0
297(9) 0.01041 295.0 7.1
294(10) 0.00980 295.0 7.2
310(9) 0.01024 295.0 7.3
300(9) 0.01111 295.0 7.4
338(10) 0.00993 294.9 7.5
329(10) 0.00968 294.9 7.7
321(10) 0.00929 294.9 7.8
282(9) 0.01170 294.9 7.9
300(9) 0.01105 294.9 8.1
303(9) 0.01079 294.8 8.2
288(9) 0.01115 294.8 8.4
297(9) 0.01027 294.8 8.5
311(9) 0.01021 294.8 8.7
321(9) 0.01047 294.8 8.9
292(9) 0.01155 294.8 9.1
312(10) 0.00999 294.7 9.3
320(10) 0.00962 294.7 9.5
309(9) 0.01020 294.7 9.7
287(9) 0.01156 294.7 10.0
325(10) 0.00994 294.7 10.2
302(9) 0.01026 294.6 10.5
308(10) 0.00953 294.6 10.8
285(9) 0.01094 294.6 11.0
335(9) 0.01008 294.6 11.4
306(9) 0.01049 294.6 11.7
300(9) 0.01041 294.5 12.0
307(10) 0.01004 294.5 12.4
330(10) 0.00976 294.5 12.8
312(9) 0.01071 294.5 13.2
308(9) 0.01025 294.5 13.7
309(10) 0.00996 294.4 14.2
319(10) 0.00970 294.4 14.7
304(9) 0.01076 294.4 15.3
309(9) 0.01083 294.4 15.9
304(10) 0.00998 294.4 16.5
314(10) 0.00987 294.3 17.2
323(10) 0.00981 294.3 18.0
298(9) 0.01103 294.3 18.8
315(9) 0.01068 294.3 19.7
320(10) 0.01000 294.3 20.7
325(10) 0.00901 294.2 21.8
324(10) 0.00921 294.2 23.0
336(10) 0.00992 294.2 24.2
291(9) 0.01127 294.2 25.6
318(10) 0.00960 294.2 27.2
329(10) 0.00922 294.1 28.9
314(9) 0.01028 294.1 30.7
336(9) 0.01012 294.1 32.7
319(9) 0.01041 294.1 34.9
309(9) 0.01052 294.1 37.2
334(10) 0.00871 294.0 39.8
336(10) 0.00951 294.0 42.6
324(9) 0.01049 294.0 45.5
347(10) 0.00963 294.0 48.6
337(10) 0.00961 294.0 51.9
319(10) 0.00970 293.9 55.3
359(10) 0.00893 293.9 58.6
369(10) 0.00908 293.9 61.9
369(10) 0.00909 293.9 65.0
385(10) 0.00847 293.9 67.8
395(11) 0.00775 293.8 70.1
369(10) 0.00861 293.8 71.9
373(10) 0.00912 293.8 73.0
367(10) 0.00912 293.8 73.4
357(10) 0.00930 293.8 73.1
372(10) 0.00846 293.7 72.1
365(10) 0.00880 293.7 70.7
366(10) 0.00926 293.7 68.8
349(10) 0.00945 293.7 66.7
345(10) 0.00922 293.7 64.5
358(10) 0.00870 293.6 62.1
345(10) 0.00905 293.6 59.8
331(9) 0.01020 293.6 57.6
291(9) 0.01111 293.6 55.4
342(10) 0.00902 293.6 53.3
370(11) 0.00829 293.5 51.4
361(10) 0.00897 293.5 49.6
356(10) 0.00943 293.5 47.9
329(10) 0.00960 293.5 46.4
355(10) 0.00853 293.5 44.9
390(11) 0.00813 293.4 43.5
375(10) 0.00896 293.4 42.3
352(10) 0.00954 293.4 41.1
339(10) 0.00930 293.4 40.0
350(10) 0.00887 293.4 38.9
343(10) 0.00940 293.3 38.0
373(10) 0.00896 293.3 37.1
342(10) 0.00977 293.3 36.3
338(10) 0.00952 293.3 35.5
353(10) 0.00860 293.3 34.8
345(10) 0.00931 293.2 34.2
361(10) 0.00944 293.2 33.6
341(10) 0.00984 293.2 33.1
340(10) 0.00949 293.2 32.7
335(10) 0.00884 293.2 32.3
333(10) 0.00944 293.1 31.9
319(9) 0.01057 293.1 31.6
313(9) 0.01069 293.1 31.3
340(10) 0.00911 293.1 31.1
316(10) 0.00968 293.1 30.9
333(10) 0.00989 293.0 30.8
344(10) 0.00974 293.0 30.6
331(9) 0.01015 293.0 30.5
308(9) 0.01029 293.0 30.5
331(10) 0.00891 293.0 30.4
321(9) 0.01012 292.9 30.4
341(10) 0.00989 292.9 30.4
322(9) 0.01031 292.9 30.4
347(10) 0.00879 292.9 30.4
336(10) 0.00908 292.9 30.5
312(9) 0.01033 292.8 30.5
318(9) 0.01060 292.8 30.6
298(9) 0.01097 292.8 30.7
316(10) 0.00983 292.8 30.8
317(10) 0.00954 292.8 31.0
296(9) 0.01056 292.7 31.2
345(10) 0.00973 292.7 31.4
315(9) 0.01049 292.7 31.7
341(10) 0.00928 292.7 32.1
323(10) 0.00966 292.7 32.5
299(9) 0.01079 292.6 33.0
319(9) 0.01052 292.6 33.7
324(9) 0.01013 292.6 34.4
318(9) 0.01021 292.6 35.4
351(10) 0.00861 292.6 36.5
352(10) 0.00876 292.5 37.8
354(10) 0.00968 292.5 39.5
344(10) 0.00928 292.5 41.4
328(10) 0.00939 292.5 43.6
337(10) 0.00936 292.5 46.2
389(10) 0.00843 292.4 49.2
387(10) 0.00885 292.4 52.5
391(10) 0.00840 292.4 56.2
384(11) 0.00828 292.4 60.0
417(11) 0.00773 292.4 63.8
392(10) 0.00849 292.3 67.4
397(10) 0.00869 292.3 70.3
388(11) 0.00818 292.3 72.1
400(11) 0.00764 292.3 72.6
399(11) 0.00826 292.3 71.8
377(10) 0.00895 292.2 69.8
380(10) 0.00902 292.2 67.1
356(10) 0.00886 292.2 63.9
388(11) 0.00767 292.2 60.6
369(10) 0.00873 292.2 57.5
352(10) 0.00956 292.1 54.6
372(10) 0.00920 292.1 52.0
377(10) 0.00850 292.1 49.8
368(11) 0.00810 292.1 47.9
341(10) 0.00943 292.1 46.3
349(10) 0.00970 292.0 45.0
354(10) 0.00951 292.0 43.8
347(10) 0.00893 292.0 42.9
336(10) 0.00905 292.0 42.1
351(10) 0.00917 292.0 41.5
346(10) 0.00971 291.9 40.9
310(9) 0.01078 291.9 40.4
336(10) 0.00926 291.9 40.0
350(10) 0.00875 291.9 39.5
324(10) 0.00990 291.9 39.1
343(10) 0.00989 291.8 38.7
330(9) 0.01011 291.8 38.3
333(10) 0.00963 291.8 37.9
351(10) 0.00876 291.8 37.4
344(10) 0.00930 291.8 37.0
338(10) 0.01002 291.8 36.5
334(10) 0.00980 291.7 36.0
314(9) 0.01025 291.7 35.5
300(9) 0.01084 291.7 35.0
323(10) 0.00968 291.7 34.5
317(9) 0.01060 291.7 34.0
331(10) 0.00980 291.6 33.4
332(10) 0.00959 291.6 32.9
333(10) 0.00931 291.6 32.3
342(10) 0.00955 291.6 31.8
324(9) 0.01037 291.6 31.2
318(10) 0.01008 291.5 30.7
342(10) 0.00897 291.5 30.2
338(10) 0.00958 291.5 29.6
310(9) 0.01058 291.5 29.1
305(9) 0.01096 291.5 28.6
306(9) 0.01027 291.4 28.2
312(10) 0.00978 291.4 27.7
308(10) 0.01001 291.4 27.3
343(10) 0.00939 291.4 26.9
306(9) 0.01099 291.4 26.6
316(10) 0.01005 291.3 26.3
339(10) 0.00885 291.3 26.0
324(10) 0.00970 291.3 25.7
300(9) 0.01103 291.3 25.5
327(9) 0.01031 291.3 25.3
331(10) 0.00921 291.2 25.2
305(9) 0.01008 291.2 25.0
321(9) 0.01014 291.2 25.0
328(9) 0.01013 291.2 24.9
330(9) 0.01011 291.2 24.9
329(10) 0.00983 291.1 24.9
329(10) 0.00937 291.1 24.9
328(10) 0.00995 291.1 24.9
350(10) 0.00964 291.1 25.0
323(9) 0.01037 291.1 25.1
328(10) 0.00979 291.0 25.1
326(10) 0.00902 291.0 25.2
338(10) 0.00920 291.0 25.3
323(9) 0.01043 291.0 25.3
331(10) 0.01003 291.0 25.3
330(10) 0.00980 290.9 25.3
353(10) 0.00850 290.9 25.3
311(9) 0.01020 290.9 25.2
318(9) 0.01045 290.9 25.1
326(9) 0.01027 290.9 25.0
312(9) 0.01018 290.8 24.8
329(10) 0.00893 290.8 24.6
311(9) 0.01021 290.8 24.3
312(9) 0.01066 290.8 24.0
302(9) 0.01073 290.8 23.7
287(9) 0.01094 290.7 23.3
304(10) 0.00987 290.7 22.9
318(10) 0.00989 290.7 22.5
319(9) 0.01064 290.7 22.1
331(9) 0.01012 290.7 21.6
355(10) 0.00881 290.6 21.2
312(10) 0.00992 290.6 20.8
315(10) 0.01007 290.6 20.3
316(9) 0.01068 290.6 19.9
288(9) 0.01075 290.6 19.5
316(10) 0.00960 290.5 19.2
324(10) 0.00971 290.5 18.8
319(9) 0.01034 290.5 18.5
322(9) 0.01052 290.5 18.2
304(9) 0.01058 290.5 17.9
310(10) 0.00993 290.4 17.6
344(10) 0.00892 290.4 17.4
320(9) 0.01012 290.4 17.2
297(9) 0.01103 290.4 17.0
347(10) 0.00897 290.4 16.8
314(10) 0.00989 290.3 16.7
320(10) 0.00945 290.3 16.6
309(9) 0.01051 290.3 16.5
310(9) 0.01083 290.3 16.5
315(10) 0.00967 290.3 16.4
317(10) 0.00917 290.2 16.4
301(9) 0.01046 290.2 16.5
284(9) 0.01161 290.2 16.6
300(9) 0.01108 290.2 16.7
309(9) 0.01019 290.2 16.8
311(10) 0.00932 290.1 17.0
329(10) 0.00946 290.1 17.2
325(9) 0.01027 290.1 17.4
335(10) 0.01000 290.1 17.7
318(10) 0.01003 290.1 18.1
309(10) 0.00964 290.0 18.5
304(9) 0.01048 290.0 18.9
305(9) 0.01098 290.0 19.5
324(9) 0.01029 290.0 20.1
310(9) 0.01040 290.0 20.8
321(10) 0.00924 289.9 21.5
310(9) 0.01012 289.9 22.4
325(9) 0.01048 289.9 23.4
304(9) 0.01090 289.9 24.5
337(10) 0.00943 289.9 25.8
340(10) 0.00900 289.8 27.3
330(10) 0.00994 289.8 28.9
351(10) 0.00978 289.8 30.8
363(10) 0.00909 289.8 32.9
347(10) 0.00916 289.8 35.3
353(10) 0.00902 289.7 37.9
372(10) 0.00844 289.7 40.8
356(10) 0.00954 289.7 43.9
336(10) 0.00975 289.7 47.3
338(10) 0.00929 289.7 50.9
379(11) 0.00795 289.6 54.6
330(10) 0.00982 289.6 58.3
342(10) 0.00990 289.6 61.8
386(11) 0.00835 289.6 65.1
378(10) 0.00839 289.6 68.0
364(10) 0.00853 289.5 70.4
367(10) 0.00905 289.5 72.6
367(10) 0.00929 289.5 74.5
403(11) 0.00806 289.5 76.5
369(10) 0.00855 289.5 78.8
373(10) 0.00858 289.4 81.5
393(10) 0.00859 289.4 84.7
386(10) 0.00877 289.4 88.6
422(11) 0.00757 289.4 93.2
428(11) 0.00758 289.4 98.5
459(12) 0.00704 289.3 104.4
467(11) 0.00732 289.3 110.8
452(11) 0.00759 289.3 117.7
460(12) 0.00692 289.3 124.6
479(12) 0.00669 289.3 131.3
479(12) 0.00688 289.2 137.3
519(12) 0.00654 289.2 142.3
507(12) 0.00682 289.2 145.7
476(12) 0.00705 289.2 147.2
509(13) 0.00599 289.2 146.6
466(12) 0.00687 289.1 144.0
432(11) 0.00783 289.1 139.5
438(11) 0.00797 289.1 133.4
410(11) 0.00797 289.1 126.1
427(12) 0.00705 289.1 118.2
406(11) 0.00819 289.0 109.9
443(11) 0.00783 289.0 101.7
427(11) 0.00790 289.0 93.7
409(11) 0.00787 289.0 86.0
370(11) 0.00827 289.0 78.9
405(11) 0.00789 288.9 72.3
367(10) 0.00922 288.9 66.2
353(10) 0.00949 288.9 60.7
347(10) 0.00927 288.9 55.7
345(10) 0.00877 288.9 51.2
371(10) 0.00868 288.8 47.2
345(10) 0.00981 288.8 43.6
303(9) 0.01078 288.8 40.3
354(10) 0.00877 288.8 37.4
327(10) 0.00920 288.8 34.8
323(10) 0.00991 288.8 32.5
348(10) 0.00976 288.7 30.4
312(9) 0.01051 288.7 28.5
333(10) 0.00935 288.7 26.9
328(10) 0.00955 288.7 25.3
319(10) 0.00995 288.7 24.0
313(9) 0.01072 288.6 22.7
326(10) 0.01001 288.6 21.6
327(10) 0.00968 288.6 20.6
327(10) 0.00947 288.6 19.7
282(9) 0.01122 288.6 18.8
332(9) 0.01021 288.5 18.1
315(10) 0.01000 288.5 17.4
311(9) 0.01057 288.5 16.7
309(10) 0.01005 288.5 16.1
287(9) 0.01103 288.5 15.6
328(9) 0.01032 288.4 15.1
306(9) 0.01020 288.4 14.6
310(9) 0.01009 288.4 14.2
307(9) 0.01018 288.4 13.8
311(9) 0.01060 288.4 13.5
293(9) 0.01147 288.3 13.1
297(9) 0.01075 288.3 12.8
290(9) 0.01043 288.3 12.6
294(9) 0.01043 288.3 12.3
276(9) 0.01178 288.3 12.1
318(9) 0.01052 288.2 11.9
271(9) 0.01138 288.2 11.7
280(9) 0.01053 288.2 11.5
289(9) 0.01065 288.2 11.4
286(9) 0.01159 288.2 11.3
299(9) 0.01132 288.1 11.2
308(10) 0.00996 288.1 11.1
297(9) 0.01009 288.1 11.0
296(9) 0.01072 288.1 11.0
296(9) 0.01139 288.1 10.9
295(9) 0.01102 288.0 10.9
291(9) 0.01082 288.0 10.9
332(10) 0.00870 288.0 10.9
304(9) 0.01055 288.0 11.0
310(9) 0.01090 288.0 11.0
305(9) 0.01065 287.9 11.1
311(9) 0.01009 287.9 11.2
269(9) 0.01128 287.9 11.3
269(9) 0.01186 287.9 11.4
306(9) 0.01091 287.9 11.6
299(9) 0.01109 287.8 11.8
285(9) 0.01114 287.8 11.9
271(9) 0.01102 287.8 12.1
262(9) 0.01206 287.8 12.4
284(9) 0.01182 287.8 12.6
320(9) 0.01050 287.7 12.8
327(10) 0.00958 287.7 13.1
284(9) 0.01097 287.7 13.4
285(9) 0.01091 287.7 13.6
303(9) 0.01105 287.7 13.9
275(9) 0.01174 287.6 14.2
292(9) 0.01080 287.6 14.4
282(9) 0.01140 287.6 14.7
322(10) 0.00997 287.6 14.9
303(9) 0.01106 287.6 15.1
301(9) 0.01057 287.5 15.3
286(9) 0.01103 287.5 15.4
289(9) 0.01082 287.5 15.5
291(9) 0.01117 287.5 15.5
296(9) 0.01125 287.5 15.5
293(9) 0.01081 287.4 15.4
282(9) 0.01083 287.4 15.3
286(9) 0.01087 287.4 15.2
287(9) 0.01124 287.4 15.0
293(9) 0.01135 287.4 14.7
275(9) 0.01147 287.3 14.5
293(9) 0.01008 287.3 14.2
287(9) 0.01093 287.3 13.9
286(9) 0.01115 287.3 13.5
310(9) 0.01078 287.3 13.2
307(9) 0.01037 287.2 12.9
294(9) 0.01029 287.2 12.5
301(10) 0.01003 287.2 12.2
294(9) 0.01103 287.2 11.8
273(9) 0.01222 287.2 11.5
279(9) 0.01122 287.1 11.2
278(9) 0.01053 287.1 10.9
292(9) 0.01050 287.1 10.6
272(9) 0.01196 287.1 10.4
286(9) 0.01187 287.1 10.1
305(10) 0.01006 287.0 9.9
289(9) 0.01052 287.0 9.7
302(9) 0.01028 287.0 9.5
301(9) 0.01112 287.0 9.3
284(9) 0.01155 287.0 9.1
274(9) 0.01131 286.9 8.9
275(9) 0.01069 286.9 8.8
269(9) 0.01133 286.9 8.6
262(8) 0.01265 286.9 8.5
285(9) 0.01160 286.9 8.4
288(9) 0.01097 286.8 8.2
278(9) 0.01080 286.8 8.1
274(9) 0.01130 286.8 8.0
276(9) 0.01202 286.8 8.0
302(9) 0.01056 286.8 7.9
269(9) 0.01163 286.7 7.8
295(9) 0.01036 286.7 7.7
281(9) 0.01137 286.7 7.7
283(9) 0.01161 286.7 7.6
293(9) 0.01104 286.7 7.6
287(9) 0.01122 286.6 7.5
313(10) 0.00991 286.6 7.5
277(9) 0.01148 286.6 7.5
276(9) 0.01189 286.6 7.4
296(9) 0.01092 286.6 7.4
303(10) 0.00999 286.5 7.4
294(9) 0.01023 286.5 7.4
267(9) 0.01172 286.5 7.3
281(9) 0.01184 286.5 7.3
288(9) 0.01087 286.5 7.3
303(10) 0.00982 286.4 7.3
275(9) 0.01124 286.4 7.3
281(9) 0.01101 286.4 7.2
275(9) 0.01207 286.4 7.2
286(9) 0.01070 286.4 7.2
289(9) 0.01039 286.3 7.2
290(9) 0.01086 286.3 7.2
293(9) 0.01126 286.3 7.1
287(9) 0.01155 286.3 7.1
266(9) 0.01149 286.3 7.1
274(9) 0.01089 286.2 7.1
278(9) 0.01142 286.2 7.0
285(9) 0.01142 286.2 7.0
297(9) 0.01119 286.2 7.0
300(9) 0.01043 286.2 6.9
288(9) 0.01015 286.1 6.9
270(9) 0.01166 286.1 6.8
271(9) 0.01202 286.1 6.8
295(9) 0.01133 286.1 6.8
282(9) 0.01130 286.1 6.7
284(9) 0.01020 286.0 6.7
292(9) 0.01080 286.0 6.6
287(9) 0.01146 286.0 6.5
280(9) 0.01180 286.0 6.5
275(9) 0.01086 286.0 6.4
277(9) 0.01044 285.9 6.4
295(9) 0.01071 285.9 6.3
271(9) 0.01213 285.9 6.2
275(9) 0.01187 285.9 6.2
313(10) 0.00989 285.9 6.1
268(9) 0.01163 285.9 6.1
296(9) 0.01038 285.8 6.0
280(9) 0.01188 285.8 5.9
278(9) 0.01163 285.8 5.9
303(9) 0.01037 285.8 5.8
300(9) 0.01038 285.8 5.7
295(9) 0.01071 285.7 5.7
302(9) 0.01104 285.7 5.6
278(9) 0.01172 285.7 5.5
284(9) 0.01128 285.7 5.5
267(9) 0.01174 285.7 5.4
272(9) 0.01154 285.6 5.3
288(9) 0.01164 285.6 5.3
259(9) 0.01223 285.6 5.2
278(9) 0.01076 285.6 5.1
271(9) 0.01122 285.6 5.1
271(9) 0.01168 285.5 5.0
296(9) 0.01128 285.5 5.0
300(9) 0.01060 285.5 4.9
300(10) 0.01002 285.5 4.9
278(9) 0.01102 285.5 4.8
274(9) 0.01187 285.4 4.8
271(9) 0.01229 285.4 4.7
300(9) 0.01057 285.4 4.7
285(9) 0.01082 285.4 4.6
284(9) 0.01128 285.4 4.6
254(8) 0.01267 285.3 4.5
292(9) 0.01143 285.3 4.5
283(9) 0.01114 285.3 4.4
295(9) 0.01027 285.3 4.4
284(9) 0.01115 285.3 4.3
288(9) 0.01154 285.2 4.3
293(9) 0.01143 285.2 4.3
283(9) 0.01137 285.2 4.2
268(9) 0.01137 285.2 4.2
285(9) 0.01119 285.2 4.2
276(9) 0.01206 285.1 4.1
292(9) 0.01140 285.1 4.1
307(10) 0.01008 285.1 4.1
291(9) 0.01029 285.1 4.0
268(9) 0.01153 285.1 4.0
287(9) 0.01156 285.0 4.0
277(9) 0.01203 285.0 3.9
298(9) 0.01036 285.0 3.9
281(9) 0.01030 285.0 3.9
285(9) 0.01105 285.0 3.9
292(9) 0.01146 284.9 3.8
306(9) 0.01080 284.9 3.8
283(9) 0.01079 284.9 3.8
280(9) 0.01059 284.9 3.8
288(9) 0.01069 284.9 3.8
267(9) 0.01224 284.8 3.7
293(9) 0.01116 284.8 3.7
284(9) 0.01117 284.8 3.7
264(9) 0.01162 284.8 3.7
277(9) 0.01125 284.8 3.7
281(9) 0.01192 284.8 3.7
282(9) 0.01147 284.8 3.6
287(9) 0.01110 284.8 3.6
279(9) 0.01108 284.7 3.6
287(9) 0.01059 284.7 3.6
269(9) 0.01229 284.7 3.6
275(9) 0.01194 284.7 3.6
293(9) 0.01045 284.7 3.6
281(9) 0.01102 284.7 3.6
268(9) 0.01181 284.7 3.6
270(9) 0.01217 284.6 3.6
279(9) 0.01132 284.6 3.5
281(9) 0.01062 284.6 3.5
281(9) 0.01068 284.6 3.5
266(9) 0.01205 284.6 3.5
272(9) 0.01219 284.6 3.5
295(9) 0.01069 284.6 3.5
288(10) 0.01002 284.5 3.5
295(9) 0.01037 284.5 3.5
281(9) 0.01170 284.5 3.5
322(9) 0.01045 284.5 3.5
283(9) 0.01113 284.5 3.5
266(9) 0.01147 284.5 3.5
290(9) 0.01052 284.5 3.5
259(8) 0.01283 284.4 3.5
280(9) 0.01197 284.4 3.5
297(9) 0.01066 284.4 3.5
267(9) 0.01095 284.4 3.5
269(9) 0.01133 284.4 3.5
241(8) 0.01359 284.4 3.5
268(9) 0.01218 284.4 3.6
297(9) 0.01058 284.3 3.6
293(9) 0.01038 284.3 3.6
296(9) 0.01046 284.3 3.6
288(9) 0.01136 284.3 3.6
287(9) 0.01185 284.3 3.6
289(9) 0.01067 284.3 3.6
275(9) 0.01058 284.3 3.6
294(9) 0.01055 284.2 3.6
274(9) 0.01186 284.2 3.6
268(9) 0.01229 284.2 3.7
268(9) 0.01133 284.2 3.7
275(9) 0.01075 284.2 3.7
277(9) 0.01146 284.2 3.7
281(9) 0.01187 284.2 3.7
282(9) 0.01165 284.2 3.7
295(9) 0.01078 284.1 3.7
295(9) 0.01033 284.1 3.8
284(9) 0.01097 284.1 3.8
263(8) 0.01267 284.1 3.8
268(9) 0.01200 284.1 3.8
273(9) 0.01119 284.1 3.9
279(9) 0.01094 284.1 3.9
297(9) 0.01081 284.0 3.9
276(9) 0.01205 284.0 3.9
275(9) 0.01179 284.0 4.0
279(9) 0.01118 284.0 4.0
290(9) 0.01066 284.0 4.0
305(9) 0.01046 284.0 4.1
294(9) 0.01140 284.0 4.1
289(9) 0.01112 283.9 4.1
290(9) 0.01068 283.9 4.2
272(9) 0.01157 283.9 4.2
296(9) 0.01065 283.9 4.2
291(9) 0.01159 283.9 4.3
265(9) 0.01178 283.9 4.3
248(9) 0.01168 283.9 4.4
270(9) 0.01121 283.8 4.4
280(9) 0.01133 283.8 4.5
284(9) 0.01181 283.8 4.5
289(9) 0.01062 283.8 4.6
268(9) 0.01122 283.8 4.6
267(9) 0.01182 283.8 4.7
282(9) 0.01150 283.8 4.8
279(9) 0.01174 283.7 4.8
286(9) 0.01124 283.7 4.9
281(9) 0.01112 283.7 5.0
308(9) 0.01016 283.7 5.1
270(9) 0.01200 283.7 5.2
296(9) 0.01133 283.7 5.2
295(9) 0.01066 283.7 5.3
272(9) 0.01082 283.6 5.5
260(9) 0.01179 283.6 5.6
272(8) 0.01234 283.6 5.7
309(9) 0.01057 283.6 5.8
294(9) 0.01098 283.6 6.0
270(9) 0.01105 283.6 6.1
292(10) 0.00996 283.6 6.3
276(9) 0.01202 283.6 6.5
275(9) 0.01198 283.5 6.7
272(9) 0.01118 283.5 6.9
281(9) 0.01009 283.5 7.2
287(9) 0.01082 283.5 7.5
273(9) 0.01210 283.5 7.8
263(8) 0.01253 283.5 8.2
275(9) 0.01125 283.5 8.6
286(9) 0.01035 283.4 9.1
304(9) 0.01015 283.4 9.7
293(9) 0.01113 283.4 10.4
289(9) 0.01133 283.4 11.3
292(9) 0.01087 283.4 12.2
297(9) 0.01055 283.4 13.3
272(9) 0.01144 283.4 14.6
317(9) 0.01057 283.3 16.0
289(9) 0.01113 283.3 17.6
297(9) 0.01028 283.3 19.4
289(9) 0.01072 283.3 21.4
308(10) 0.00991 283.3 23.4
320(9) 0.01044 283.3 25.5
324(10) 0.00987 283.3 27.4
319(10) 0.00954 283.2 29.0
338(10) 0.00907 283.2 30.1
320(10) 0.01000 283.2 30.6
310(9) 0.01085 283.2 30.4
310(9) 0.01036 283.2 29.5
312(10) 0.00976 283.2 28.1
309(9) 0.01019 283.2 26.4
294(9) 0.01111 283.1 24.5
279(9) 0.01194 283.1 22.7
275(9) 0.01086 283.1 20.9
274(9) 0.01077 283.1 19.4
267(9) 0.01158 283.1 17.9
297(9) 0.01107 283.1 16.7
290(9) 0.01154 283.1 15.7
274(9) 0.01121 283.0 14.8
290(9) 0.01024 283.0 14.1
287(9) 0.01038 283.0 13.5
278(9) 0.01158 283.0 13.0
268(9) 0.01229 283.0 12.7
301(9) 0.01031 283.0 12.5
300(10) 0.00983 283.0 12.3
291(9) 0.01096 282.9 12.2
309(9) 0.01086 282.9 12.2
309(9) 0.01090 282.9 12.2
306(9) 0.01017 282.9 12.3
258(9) 0.01180 282.9 12.5
283(9) 0.01123 282.9 12.6
285(9) 0.01165 282.9 12.9
299(9) 0.01113 282.9 13.2
284(9) 0.01094 282.8 13.5
289(9) 0.01026 282.8 13.9
288(9) 0.01099 282.8 14.4
274(9) 0.01212 282.8 14.9
278(9) 0.01173 282.8 15.4
282(9) 0.01114 282.8 16.1
290(9) 0.01049 282.8 16.8
289(9) 0.01100 282.7 17.6
291(9) 0.01151 282.7 18.5
308(9) 0.01057 282.7 19.5
310(10) 0.00985 282.7 20.6
308(10) 0.00997 282.7 21.8
308(9) 0.01042 282.7 23.1
292(9) 0.01158 282.7 24.5
310(9) 0.01040 282.6 25.9
298(9) 0.01060 282.6 27.4
311(10) 0.00988 282.6 28.9
312(9) 0.01009 282.6 30.4
308(9) 0.01097 282.6 31.8
301(9) 0.01058 282.6 33.0
322(10) 0.00966 282.6 33.9
319(10) 0.00981 282.5 34.5
320(10) 0.00994 282.5 34.9
321(9) 0.01061 282.5 34.8
301(9) 0.01078 282.5 34.5
308(9) 0.01046 282.5 33.9
310(10) 0.00997 282.5 33.2
300(9) 0.01040 282.5 32.3
274(9) 0.01206 282.4 31.4
296(9) 0.01038 282.4 30.5
302(9) 0.01010 282.4 29.6
311(10) 0.01002 282.4 28.9
303(9) 0.01056 282.4 28.2
302(9) 0.01109 282.4 27.7
276(9) 0.01114 282.4 27.3
305(10) 0.00988 282.3 27.0
288(9) 0.01113 282.3 26.8
306(9) 0.01097 282.3 26.7
294(9) 0.01123 282.3 26.8
304(9) 0.01030 282.3 26.9
282(9) 0.01064 282.3 27.2
323(10) 0.00962 282.3 27.6
343(10) 0.00979 282.3 28.1
328(9) 0.01020 282.2 28.6
297(9) 0.01060 282.2 29.3
319(10) 0.00905 282.2 30.1
326(10) 0.00966 282.2 31.0
315(9) 0.01072 282.2 32.0
336(10) 0.01000 282.2 33.2
340(10) 0.00955 282.2 34.4
328(10) 0.00949 282.1 35.7
306(9) 0.01049 282.1 37.2
300(9) 0.01095 282.1 38.8
329(9) 0.01038 282.1 40.5
310(9) 0.01049 282.1 42.3
319(10) 0.00943 282.1 44.2
328(10) 0.00961 282.1 46.3
327(9) 0.01031 282.0 48.6
313(9) 0.01062 282.0 50.9
365(10) 0.00872 282.0 53.4
355(10) 0.00864 282.0 56.0
341(10) 0.00935 282.0 58.7
350(10) 0.00967 282.0 61.5
351(10) 0.00959 282.0 64.4
382(11) 0.00822 281.9 67.3
367(10) 0.00844 281.9 70.2
374(10) 0.00849 281.9 73.1
377(10) 0.00905 281.9 75.8
378(10) 0.00885 281.9 78.4
360(10) 0.00878 281.9 80.7
366(10) 0.00848 281.9 82.7
386(10) 0.00849 281.8 84.4
386(10) 0.00883 281.8 85.6
397(11) 0.00827 281.8 86.4
361(10) 0.00907 281.8 86.7
395(11) 0.00798 281.8 86.5
369(10) 0.00853 281.8 85.9
377(10) 0.00908 281.8 84.8
377(10) 0.00852 281.7 83.3
367(10) 0.00869 281.7 81.5
368(10) 0.00867 281.7 79.4
354(10) 0.00928 281.7 77.2
361(10) 0.00948 281.7 74.8
330(10) 0.00946 281.7 72.3
346(10) 0.00909 281.7 69.8
349(10) 0.00954 281.6 67.3
352(10) 0.00952 281.6 64.9
337(10) 0.01000 281.6 62.5
339(10) 0.00948 281.6 60.3
349(10) 0.00847 281.6 58.1
339(10) 0.00907 281.6 56.1
347(10) 0.00941 281.6 54.3
332(9) 0.01012 281.6 52.5
327(10) 0.00962 281.5 50.9
332(10) 0.00852 281.5 49.4
337(10) 0.00904 281.5 48.1
318(9) 0.01066 281.5 46.8
309(9) 0.01075 281.5 45.7
330(10) 0.00960 281.5 44.7
331(10) 0.00913 281.5 43.8
328(10) 0.00974 281.4 42.9
342(10) 0.00968 281.4 42.2
320(9) 0.01047 281.4 41.5
320(10) 0.00999 281.4 40.9
309(10) 0.00952 281.4 40.4
331(10) 0.00955 281.4 39.9
330(9) 0.01020 281.4 39.5
309(9) 0.01038 281.3 39.1
303(9) 0.01016 281.3 38.7
314(10) 0.00962 281.3 38.3
342(10) 0.00916 281.3 38.0
327(9) 0.01034 281.3 37.7
309(9) 0.01067 281.3 37.4
319(10) 0.00991 281.3 37.0
317(10) 0.00947 281.2 36.7
307(9) 0.01026 281.2 36.4
320(9) 0.01061 281.2 36.0
338(10) 0.00962 281.2 35.6
314(10) 0.00997 281.2 35.2
322(10) 0.00949 281.2 34.8
311(10) 0.00984 281.2 34.4
306(9) 0.01098 281.1 33.9
275(9) 0.01178 281.1 33.4
304(9) 0.01009 281.1 32.9
304(9) 0.01045 281.1 32.4
301(9) 0.01055 281.1 31.8
319(9) 0.01057 281.1 31.3
313(9) 0.01021 281.1 30.7
320(10) 0.00949 281.0 30.1
309(9) 0.01033 281.0 29.5
317(9) 0.01031 281.0 28.9
293(9) 0.01122 281.0 28.3
311(10) 0.00994 281.0 27.7
285(9) 0.01058 281.0 27.1
291(9) 0.01074 281.0 26.5
290(9) 0.01107 281.0 25.9
309(9) 0.01074 280.9 25.3
328(10) 0.00956 280.9 24.7
329(10) 0.00914 280.9 24.2
292(9) 0.01108 280.9 23.6
301(9) 0.01097 280.9 23.1
288(9) 0.01156 280.9 22.6
277(9) 0.01110 280.9 22.1
298(10) 0.00957 280.8 21.6
287(9) 0.01086 280.8 21.2
314(9) 0.01060 280.8 20.7
315(9) 0.01059 280.8 20.3
327(10) 0.00978 280.8 19.9
291(9) 0.01028 280.8 19.5
292(9) 0.01061 280.8 19.1
281(9) 0.01189 280.7 18.8
291(9) 0.01140 280.7 18.5
303(10) 0.01007 280.7 18.2
301(10) 0.00983 280.7 17.9
273(9) 0.01155 280.7 17.6
299(9) 0.01120 280.7 17.3
291(9) 0.01154 280.7 17.1
290(9) 0.01076 280.6 16.8
271(9) 0.01086 280.6 16.6
285(9) 0.01095 280.6 16.4
273(9) 0.01223 280.6 16.2
288(9) 0.01091 280.6 16.1
280(9) 0.01134 280.6 15.9
283(9) 0.01068 280.6 15.8
294(9) 0.01071 280.5 15.7
282(9) 0.01170 280.5 15.6
271(9) 0.01212 280.5 15.5
280(9) 0.01094 280.5 15.4
278(9) 0.01072 280.5 15.3
288(9) 0.01082 280.5 15.3
288(9) 0.01163 280.5 15.2
286(9) 0.01129 280.4 15.2
294(9) 0.01038 280.4 15.2
259(9) 0.01222 280.4 15.2
280(9) 0.01122 280.4 15.2
289(9) 0.01150 280.4 15.2
295(9) 0.01070 280.4 15.3
289(9) 0.01068 280.4 15.4
303(9) 0.01020 280.3 15.4
274(9) 0.01187 280.3 15.5
286(9) 0.01170 280.3 15.6
305(9) 0.01014 280.3 15.8
281(9) 0.01081 280.3 15.9
276(9) 0.01123 280.3 16.1
285(9) 0.01101 280.3 16.2
300(9) 0.01121 280.3 16.4
284(9) 0.01067 280.2 16.6
293(10) 0.01002 280.2 16.8
283(9) 0.01097 280.2 17.1
284(9) 0.01170 280.2 17.3
284(9) 0.01158 280.2 17.6
297(9) 0.01012 280.2 17.9
294(10) 0.00981 280.2 18.2
290(9) 0.01100 280.1 18.5
317(9) 0.01041 280.1 18.8
279(9) 0.01172 280.1 19.1
307(9) 0.01017 280.1 19.4
305(10) 0.00927 280.1 19.7
294(9) 0.01071 280.1 20.1
285(9) 0.01140 280.1 20.4
292(9) 0.01132 280.0 20.7
303(9) 0.01018 280.0 20.9
331(10) 0.00870 280.0 21.2
305(9) 0.01012 280.0 21.4
301(9) 0.01079 280.0 21.7
298(9) 0.01108 280.0 21.9
301(9) 0.01050 280.0 22.1
314(10) 0.00952 279.9 22.2
289(9) 0.01093 279.9 22.4
325(9) 0.01043 279.9 22.5
293(9) 0.01140 279.9 22.7
315(10) 0.00966 279.9 22.8
282(9) 0.01083 279.9 22.9
311(9) 0.01017 279.9 22.9
307(9) 0.01084 279.8 23.0
304(9) 0.01087 279.8 23.1
327(10) 0.00940 279.8 23.1
289(9) 0.01067 279.8 23.2
315(10) 0.00976 279.8 23.2
308(9) 0.01085 279.8 23.2
333(10) 0.00967 279.8 23.2
302(9) 0.01063 279.7 23.2
309(10) 0.00999 279.7 23.2
296(9) 0.01097 279.7 23.1
292(9) 0.01142 279.7 23.1
303(9) 0.01065 279.7 23.0
309(9) 0.01012 279.7 22.9
327(10) 0.00949 279.7 22.8
312(9) 0.01062 279.7 22.7
303(9) 0.01103 279.6 22.6
295(9) 0.01071 279.6 22.5
295(10) 0.00982 279.6 22.3
285(9) 0.01084 279.6 22.2
308(9) 0.01077 279.6 22.0
313(9) 0.01068 279.6 21.9
313(10) 0.00988 279.6 21.7
277(9) 0.01143 279.5 21.6
323(10) 0.00978 279.5 21.4
293(9) 0.01131 279.5 21.2
307(9) 0.01079 279.5 21.1
284(9) 0.01076 279.5 20.9
280(9) 0.01068 279.5 20.8
284(9) 0.01071 279.5 20.7
295(9) 0.01118 279.4 20.6
290(9) 0.01137 279.4 20.4
268(9) 0.01193 279.4 20.3
290(9) 0.01025 279.4 20.3
289(9) 0.01133 279.4 20.2
291(9) 0.01148 279.4 20.1
293(9) 0.01128 279.4 20.1
290(9) 0.01113 279.3 20.1
307(10) 0.00931 279.3 20.1
300(9) 0.01043 279.3 20.1
324(9) 0.01050 279.3 20.1
307(9) 0.01061 279.3 20.2
295(9) 0.01076 279.3 20.3
307(10) 0.00959 279.3 20.5
304(9) 0.01027 279.2 20.6
307(9) 0.01082 279.2 20.8
309(9) 0.01053 279.2 21.1
312(10) 0.01007 279.2 21.4
303(9) 0.01013 279.2 21.7
290(9) 0.01112 279.2 22.2
301(9) 0.01114 279.2 22.7
301(9) 0.01073 279.1 23.3
299(9) 0.01012 279.1 24.0
287(9) 0.01059 279.1 24.8
299(9) 0.01065 279.1 25.7
307(9) 0.01102 279.1 26.8
302(9) 0.01083 279.1 28.1
314(10) 0.01003 279.1 29.5
315(10) 0.00982 279.1 31.2
307(9) 0.01015 279.0 33.1
295(9) 0.01132 279.0 35.1
321(10) 0.00983 279.0 37.4
333(10) 0.00937 279.0 39.9
319(10) 0.00973 279.0 42.5
326(10) 0.01002 279.0 45.2
325(9) 0.01034 279.0 47.9
373(10) 0.00841 278.9 50.3
357(10) 0.00896 278.9 52.3
388(11) 0.00817 278.9 53.7
361(10) 0.00928 278.9 54.4
344(10) 0.00983 278.9 54.2
342(10) 0.00917 278.9 53.3
323(10) 0.00934 278.9 51.8
339(10) 0.00917 278.8 49.8
340(10) 0.00993 278.8 47.5
331(9) 0.01013 278.8 45.2
313(10) 0.01007 278.8 43.0
316(10) 0.00949 278.8 40.9
322(10) 0.01003 278.8 39.0
329(9) 0.01022 278.8 37.3
318(9) 0.01058 278.7 35.8
310(9) 0.01028 278.7 34.6
323(10) 0.00916 278.7 33.5
323(10) 0.00978 278.7 32.7
321(9) 0.01049 278.7 32.0
317(9) 0.01071 278.7 31.3
331(10) 0.00950 278.7 30.7
291(9) 0.01056 278.6 30.2
306(9) 0.01028 278.6 29.6
315(9) 0.01068 278.6 28.9
284(9) 0.01185 278.6 28.3
310(9) 0.01012 278.6 27.6
292(9) 0.01068 278.6 26.9
310(9) 0.01028 278.6 26.2
300(9) 0.01121 278.5 25.6
301(9) 0.01084 278.5 24.9
297(9) 0.01093 278.5 24.4
305(9) 0.01019 278.5 23.8
307(9) 0.01029 278.5 23.4
300(9) 0.01111 278.5 22.9
274(9) 0.01177 278.5 22.6
270(9) 0.01104 278.4 22.3
268(9) 0.01105 278.4 22.0
294(9) 0.01043 278.4 21.8
285(9) 0.01160 278.4 21.6
262(8) 0.01247 278.4 21.5
292(9) 0.01074 278.4 21.4
294(9) 0.01046 278.4 21.3
297(9) 0.01066 278.4 21.3
293(9) 0.01138 278.3 21.3
296(9) 0.01078 278.3 21.4
289(9) 0.01061 278.3 21.4
316(10) 0.00970 278.3 21.5
306(9) 0.01049 278.3 21.7
284(9) 0.01162 278.3 21.8
290(9) 0.01056 278.3 22.0
280(9) 0.01098 278.2 22.2
309(10) 0.01001 278.2 22.4
290(9) 0.01133 278.2 22.6
328(9) 0.01032 278.2 22.9
303(9) 0.01058 278.2 23.1
299(9) 0.01021 278.2 23.4
295(9) 0.01059 278.2 23.6
273(9) 0.01204 278.1 23.8
281(9) 0.01180 278.1 24.1
271(9) 0.01165 278.1 24.3
287(9) 0.01029 278.1 24.5
311(9) 0.01019 278.1 24.7
301(9) 0.01087 278.1 24.8
281(9) 0.01196 278.1 25.0
294(9) 0.01059 278.0 25.0
314(10) 0.00921 278.0 25.1
315(10) 0.01003 278.0 25.1
259(8) 0.01258 278.0 25.1
308(9) 0.01078 278.0 25.1
306(9) 0.01032 278.0 25.1
309(10) 0.00950 278.0 25.0
310(9) 0.01024 277.9 24.9
314(9) 0.01066 277.9 24.8
310(9) 0.01042 277.9 24.8
334(10) 0.00903 277.9 24.7
292(9) 0.01016 277.9 24.7
282(9) 0.01132 277.9 24.6
298(9) 0.01129 277.9 24.7
291(9) 0.01132 277.8 24.7
295(9) 0.01047 277.8 24.8
280(9) 0.01090 277.8 25.0
298(9) 0.01051 277.8 25.2
299(9) 0.01117 277.8 25.5
296(9) 0.01089 277.8 25.8
281(9) 0.01174 277.8 26.2
316(10) 0.00995 277.8 26.6
290(9) 0.01127 277.7 27.1
288(9) 0.01163 277.7 27.5
278(9) 0.01172 277.7 28.0
284(9) 0.01101 277.7 28.4
301(10) 0.00994 277.7 28.9
303(9) 0.01052 277.7 29.3
313(9) 0.01068 277.7 29.7
323(10) 0.00999 277.6 30.1
313(9) 0.01014 277.6 30.7
323(10) 0.00962 277.6 31.3
319(10) 0.01004 277.6 32.2
297(9) 0.01114 277.6 33.4
290(9) 0.01102 277.6 34.9
299(9) 0.01083 277.6 36.7
336(10) 0.00936 277.5 38.9
322(9) 0.01016 277.5 41.6
325(9) 0.01042 277.5 44.6
341(10) 0.00943 277.5 47.9
335(10) 0.00923 277.5 51.3
356(10) 0.00902 277.5 54.7
354(10) 0.00954 277.5 57.8
380(10) 0.00903 277.4 60.3
345(10) 0.00913 277.4 61.9
340(10) 0.00866 277.4 62.5
334(10) 0.00937 277.4 62.5
342(10) 0.00984 277.4 61.9
364(10) 0.00929 277.4 61.2
354(10) 0.00906 277.4 60.5
350(10) 0.00872 277.3 60.0
340(10) 0.00964 277.3 59.6
329(10) 0.01002 277.3 59.3
337(10) 0.01007 277.3 59.1
333(10) 0.00957 277.3 59.0
314(10) 0.00940 277.3 58.7
311(9) 0.01046 277.3 58.3
357(10) 0.00933 277.2 57.7
348(10) 0.00971 277.2 56.9
335(10) 0.00946 277.2 55.9
339(10) 0.00913 277.2 54.6
322(10) 0.00981 277.2 53.2
317(9) 0.01054 277.2 51.8
319(9) 0.01048 277.2 50.3
321(10) 0.00994 277.1 48.8
294(9) 0.01050 277.1 47.5
306(9) 0.01046 277.1 46.2
317(9) 0.01066 277.1 45.1
303(9) 0.01075 277.1 44.1
295(9) 0.01031 277.1 43.3
323(10) 0.00910 277.1 42.8
304(9) 0.01023 277.1 42.4
309(9) 0.01092 277.0 42.2
297(9) 0.01093 277.0 42.3
285(9) 0.01085 277.0 42.6
323(10) 0.00934 277.0 43.0
306(9) 0.01043 277.0 43.7
296(9) 0.01132 277.0 44.6
283(9) 0.01108 277.0 45.7
331(10) 0.00930 276.9 46.9
330(10) 0.00963 276.9 48.4
341(10) 0.00953 276.9 50.0
333(9) 0.01014 276.9 51.7
334(10) 0.00986 276.9 53.6
342(10) 0.00902 276.9 55.5
321(10) 0.00958 276.9 57.5
326(10) 0.00976 276.8 59.5
343(10) 0.00981 276.8 61.4
333(10) 0.00985 276.8 63.1
337(10) 0.00923 276.8 64.7
327(10) 0.00971 276.8 66.1
327(10) 0.00987 276.8 67.2
343(10) 0.00995 276.8 67.9
326(10) 0.00980 276.7 68.4
322(10) 0.00952 276.7 68.5
314(10) 0.01004 276.7 68.3
330(9) 0.01011 276.7 67.8
320(9) 0.01046 276.7 67.1
338(10) 0.00904 276.7 66.1
327(10) 0.00948 276.7 64.9
318(10) 0.00994 276.6 63.4
294(9) 0.01129 276.6 61.7
325(9) 0.01035 276.6 59.8
332(10) 0.00968 276.6 57.7
321(10) 0.00934 276.6 55.4
323(10) 0.00998 276.6 52.9
311(9) 0.01083 276.6 50.3
333(10) 0.01003 276.5 47.7
328(10) 0.00966 276.5 45.1
298(10) 0.00990 276.5 42.5
317(10) 0.00984 276.5 40.0
298(9) 0.01112 276.5 37.6
308(9) 0.01093 276.5 35.3
312(9) 0.01009 276.5 33.2
286(9) 0.01072 276.5 31.3
298(9) 0.01048 276.4 29.4
304(9) 0.01097 276.4 27.8
299(9) 0.01098 276.4 26.3
273(9) 0.01117 276.4 24.9
287(9) 0.01012 276.4 23.6
284(9) 0.01085 276.4 22.4
281(9) 0.01189 276.4 21.4
304(9) 0.01062 276.3 20.4
270(9) 0.01143 276.3 19.6
272(9) 0.01102 276.3 18.8
271(9) 0.01148 276.3 18.1
290(9) 0.01150 276.3 17.4
291(9) 0.01128 276.3 16.8
284(9) 0.01100 276.3 16.3
286(9) 0.01074 276.2 15.9
278(9) 0.01114 276.2 15.4
301(9) 0.01109 276.2 15.1
269(9) 0.01195 276.2 14.7
294(9) 0.01049 276.2 14.5
304(10) 0.01005 276.2 14.2
296(9) 0.01075 276.2 14.0
314(9) 0.01067 276.1 13.8
310(10) 0.00987 276.1 13.7
272(9) 0.01131 276.1 13.6
294(9) 0.01081 276.1 13.5
260(8) 0.01241 276.1 13.5
261(8) 0.01264 276.1 13.5
265(9) 0.01184 276.1 13.5
266(9) 0.01115 276.0 13.6
262(9) 0.01217 276.0 13.7
269(9) 0.01218 276.0 13.8
284(9) 0.01163 276.0 13.9
269(9) 0.01160 276.0 14.1
279(9) 0.01091 276.0 14.3
283(9) 0.01062 276.0 14.5
268(9) 0.01224 275.9 14.7
266(8) 0.01247 275.9 15.0
301(9) 0.01040 275.9 15.2
271(9) 0.01092 275.9 15.4
286(9) 0.01086 275.9 15.6
266(8) 0.01236 275.9 15.8
262(8) 0.01269 275.9 15.9
274(9) 0.01134 275.8 15.9
285(9) 0.01029 275.8 15.9
289(9) 0.01077 275.8 15.8
287(9) 0.01152 275.8 15.7
290(9) 0.01103 275.8 15.5
273(9) 0.01145 275.8 15.2
269(9) 0.01112 275.8 14.9
260(9) 0.01213 275.8 14.6
263(8) 0.01261 275.7 14.2
275(9) 0.01176 275.7 13.8
289(9) 0.01055 275.7 13.4
278(9) 0.01055 275.7 13.0
264(9) 0.01186 275.7 12.7
265(8) 0.01248 275.7 12.3
288(9) 0.01103 275.7 12.0
268(9) 0.01180 275.6 11.6
274(9) 0.01137 275.6 11.3
269(9) 0.01145 275.6 11.1
253(8) 0.01277 275.6 10.8
277(9) 0.01170 275.6 10.6
294(9) 0.01044 275.6 10.4
299(9) 0.01014 275.6 10.2
290(9) 0.01087 275.5 10.0
276(9) 0.01198 275.5 9.9
282(9) 0.01140 275.5 9.8
262(8) 0.01247 275.5 9.7
276(9) 0.01129 275.5 9.6
280(9) 0.01167 275.5 9.5
273(9) 0.01223 275.5 9.4
268(9) 0.01189 275.5 9.4
273(9) 0.01158 275.5 9.3
259(9) 0.01200 275.5 9.3
286(9) 0.01109 275.5 9.3
279(9) 0.01188 275.5 9.3
251(9) 0.01190 275.5 9.4
264(9) 0.01121 275.5 9.4
258(9) 0.01194 275.5 9.4
258(8) 0.01256 275.5 9.5
284(9) 0.01182 275.5 9.6
270(9) 0.01144 275.5 9.6
254(9) 0.01196 275.5 9.7
286(9) 0.01083 275.5 9.8
271(9) 0.01201 275.5 10.0
274(9) 0.01220 275.5 10.1
286(9) 0.01117 275.5 10.2
271(9) 0.01094 275.4 10.4
271(9) 0.01161 275.4 10.6
294(9) 0.01132 275.4 10.7
313(9) 0.01079 275.4 11.0
270(9) 0.01162 275.4 11.2
280(9) 0.01087 275.4 11.4
283(9) 0.01158 275.4 11.7
286(9) 0.01176 275.4 11.9
277(9) 0.01183 275.4 12.2
261(9) 0.01150 275.4 12.6
250(9) 0.01204 275.4 12.9
275(9) 0.01115 275.4 13.3
272(8) 0.01239 275.4 13.7
288(9) 0.01127 275.4 14.1
280(9) 0.01143 275.4 14.6
281(9) 0.01074 275.4 15.1
289(9) 0.01098 275.4 15.6
254(8) 0.01293 275.4 16.2
271(9) 0.01210 275.4 16.8
298(9) 0.01043 275.4 17.4
298(9) 0.01025 275.4 18.1
302(9) 0.01073 275.4 18.9
284(9) 0.01170 275.4 19.7
286(9) 0.01142 275.4 20.6
278(9) 0.01128 275.4 21.5
272(9) 0.01110 275.4 22.5
268(9) 0.01152 275.3 23.6
278(9) 0.01192 275.3 24.7
271(9) 0.01216 275.3 25.9
299(9) 0.01018 275.3 27.2
304(9) 0.01014 275.3 28.5
296(9) 0.01041 275.3 30.0
310(9) 0.01089 275.3 31.5
305(9) 0.01024 275.3 33.1
281(9) 0.01099 275.3 34.8
290(9) 0.01078 275.3 36.5
322(9) 0.01017 275.3 38.3
315(9) 0.01048 275.3 40.2
293(9) 0.01062 275.3 42.1
321(10) 0.00930 275.3 44.0
341(10) 0.00917 275.3 45.9
341(10) 0.00973 275.3 47.7
343(10) 0.00967 275.3 49.5
307(10) 0.00999 275.3 51.2
299(9) 0.01014 275.3 52.7
296(9) 0.01030 275.3 54.1
325(9) 0.01008 275.3 55.2
336(10) 0.00987 275.3 56.1
335(10) 0.00954 275.3 56.6
333(10) 0.00887 275.3 56.9
321(10) 0.00994 275.3 56.8
305(9) 0.01059 275.2 56.5
328(9) 0.01032 275.2 55.8
315(10) 0.00999 275.2 54.9
332(10) 0.00855 275.2 53.7
326(10) 0.00967 275.2 52.3
297(9) 0.01119 275.2 50.7
319(9) 0.01054 275.2 49.0
291(9) 0.01043 275.2 47.1
286(9) 0.01027 275.2 45.3
332(10) 0.00928 275.2 43.4
320(9) 0.01048 275.2 41.5
285(9) 0.01161 275.2 39.6
298(9) 0.01047 275.2 37.8
287(9) 0.01036 275.2 36.0
303(9) 0.01031 275.2 34.3
304(9) 0.01112 275.2 32.6
292(9) 0.01098 275.2 31.1
286(9) 0.01098 275.2 29.6
276(9) 0.01125 275.2 28.2
281(9) 0.01074 275.2 26.9
313(9) 0.01068 275.2 25.6
293(9) 0.01126 275.2 24.5
310(9) 0.01011 275.2 23.4
292(9) 0.01044 275.2 22.3
297(9) 0.01067 275.2 21.4
284(9) 0.01163 275.1 20.5
276(9) 0.01164 275.1 19.7
293(9) 0.01047 275.1 18.9
287(9) 0.01057 275.1 18.2
303(9) 0.01027 275.1 17.5
316(9) 0.01069 275.1 16.9
279(9) 0.01157 275.1 16.3
302(9) 0.01031 275.1 15.7
293(9) 0.01018 275.1 15.2
280(9) 0.01132 275.1 14.8
293(9) 0.01134 275.1 14.3
277(9) 0.01100 275.1 13.9
282(9) 0.01061 275.1 13.6
260(9) 0.01193 275.1 13.2
279(9) 0.01136 275.1 12.9
294(9) 0.01145 275.1 12.6
284(9) 0.01103 275.1 12.3
278(9) 0.01061 275.1 12.1
280(9) 0.01110 275.1 11.8
259(8) 0.01248 275.1 11.6
280(9) 0.01193 275.1 11.4
274(9) 0.01171 275.1 11.3
300(10) 0.01007 275.1 11.1
287(9) 0.01115 275.1 11.0
285(9) 0.01148 275.1 10.9
293(9) 0.01155 275.1 10.7
290(9) 0.01047 275.0 10.6
276(9) 0.01018 275.0 10.6
274(9) 0.01105 275.0 10.5
289(9) 0.01164 275.0 10.4
280(9) 0.01170 275.0 10.4
270(9) 0.01170 275.0 10.4
278(9) 0.01032 275.0 10.4
261(9) 0.01188 275.0 10.3
293(9) 0.01114 275.0 10.4
249(8) 0.01292 275.0 10.4
286(9) 0.01124 275.0 10.4
308(10) 0.00970 275.0 10.5
286(9) 0.01106 275.0 10.5
308(9) 0.01095 275.0 10.6
271(9) 0.01213 275.0 10.7
297(9) 0.01013 275.0 10.9
279(9) 0.01081 275.0 11.0
262(9) 0.01224 275.0 11.1
256(8) 0.01268 275.0 11.3
288(9) 0.01152 275.0 11.5
289(9) 0.01080 275.0 11.7
273(9) 0.01144 275.0 12.0
292(9) 0.01028 275.0 12.3
301(9) 0.01107 275.0 12.6
291(9) 0.01099 275.0 12.9
286(9) 0.01079 274.9 13.3
278(9) 0.01110 274.9 13.7
283(9) 0.01121 274.9 14.1
293(9) 0.01136 274.9 14.6
319(10) 0.01007 274.9 15.1
295(9) 0.01043 274.9 15.7
266(9) 0.01122 274.9 16.4
285(9) 0.01092 274.9 17.1
290(9) 0.01150 274.9 17.8
282(9) 0.01123 274.9 18.6
287(9) 0.01080 274.9 19.5
304(9) 0.01048 274.9 20.5
264(9) 0.01201 274.9 21.6
297(9) 0.01115 274.9 22.7
309(9) 0.01022 274.9 23.9
291(9) 0.01021 274.9 25.2
301(9) 0.01063 274.9 26.6
316(10) 0.01005 274.9 28.1
283(9) 0.01166 274.9 29.6
324(10) 0.00982 274.9 31.2
316(10) 0.00956 274.9 32.9
295(9) 0.01079 274.9 34.5
280(9) 0.01150 274.9 36.2
307(9) 0.01102 274.9 37.8
314(10) 0.01002 274.9 39.3
303(9) 0.01034 274.8 40.7
318(10) 0.00995 274.8 41.9
296(9) 0.01106 274.8 42.8
330(9) 0.01020 274.8 43.5
339(10) 0.00948 274.8 43.9
320(10) 0.00920 274.8 44.0
331(10) 0.00951 274.8 43.7
314(9) 0.01055 274.8 43.2
323(9) 0.01036 274.8 42.3
300(9) 0.01086 274.8 41.3
315(10) 0.00972 274.8 40.0
312(10) 0.00996 274.8 38.7
295(9) 0.01128 274.8 37.2
305(9) 0.01070 274.8 35.7
328(10) 0.00958 274.8 34.2
317(10) 0.00941 274.8 32.8
281(9) 0.01147 274.8 31.4
302(9) 0.01087 274.8 30.0
292(9) 0.01141 274.8 28.8
261(8) 0.01245 274.8 27.6
296(10) 0.01001 274.8 26.5
313(10) 0.00977 274.8 25.5
289(9) 0.01152 274.8 24.6
301(9) 0.01046 274.8 23.8
308(10) 0.00981 274.8 23.0
293(9) 0.01054 274.8 22.4
318(10) 0.00987 274.7 21.8
281(9) 0.01187 274.7 21.4
266(9) 0.01193 274.7 21.0
278(9) 0.01077 274.7 20.6
263(9) 0.01165 274.7 20.4
302(9) 0.01024 274.7 20.1
303(9) 0.01116 274.7 20.0
285(9) 0.01098 274.7 19.9
285(9) 0.01085 274.7 19.9
291(9) 0.01081 274.7 19.9
272(9) 0.01170 274.7 19.9
295(9) 0.01133 274.7 20.0
269(9) 0.01168 274.7 20.2
306(10) 0.00980 274.7 20.4
306(9) 0.01046 274.7 20.6
326(10) 0.00995 274.7 20.8
298(9) 0.01119 274.7 21.1
282(9) 0.01116 274.7 21.4
305(10) 0.00957 274.7 21.7
289(9) 0.01104 274.7 22.0
296(9) 0.01110 274.7 22.3
306(9) 0.01089 274.7 22.6
306(9) 0.01044 274.7 22.9
320(10) 0.00905 274.7 23.2
285(9) 0.01138 274.7 23.5
283(9) 0.01154 274.6 23.7
317(9) 0.01060 274.6 23.9
314(9) 0.01047 274.6 24.1
323(10) 0.00911 274.6 24.2
294(9) 0.01084 274.6 24.3
283(9) 0.01181 274.6 24.3
293(9) 0.01105 274.6 24.3
294(9) 0.01080 274.6 24.2
296(10) 0.00993 274.6 24.1
294(9) 0.01044 274.6 23.9
286(9) 0.01157 274.6 23.6
297(9) 0.01094 274.6 23.4
311(10) 0.00985 274.6 23.0
313(10) 0.00955 274.6 22.7
307(9) 0.01017 274.6 22.3
294(9) 0.01153 274.6 21.9
254(8) 0.01279 274.6 21.5
311(9) 0.01010 274.6 21.1
296(9) 0.01016 274.6 20.6
278(9) 0.01125 274.6 20.2
303(9) 0.01098 274.6 19.7
300(9) 0.01090 274.6 19.3
310(9) 0.01022 274.6 18.9
316(10) 0.00975 274.6 18.4
300(9) 0.01075 274.6 18.0
281(9) 0.01189 274.5 17.6
300(9) 0.01029 274.5 17.2
252(9) 0.01229 274.5 16.9
286(9) 0.01052 274.5 16.5
281(9) 0.01145 274.5 16.2
321(9) 0.01048 274.5 15.8
288(9) 0.01079 274.5 15.5
297(9) 0.01042 274.5 15.2
297(9) 0.01051 274.5 14.9
278(9) 0.01156 274.5 14.7
304(9) 0.01101 274.5 14.4
291(9) 0.01095 274.5 14.2
299(9) 0.01011 274.5 14.0
272(9) 0.01154 274.5 13.8
261(9) 0.01207 274.5 13.6
277(9) 0.01193 274.5 13.4
286(9) 0.01116 274.5 13.3
274(9) 0.01096 274.5 13.1
302(9) 0.01020 274.5 13.0
283(9) 0.01154 274.5 12.9
260(8) 0.01256 274.5 12.8
285(9) 0.01056 274.5 12.8
275(9) 0.01079 274.5 12.7
267(9) 0.01191 274.5 12.7
265(8) 0.01231 274.5 12.7
285(9) 0.01175 274.4 12.7
294(9) 0.01064 274.4 12.7
292(9) 0.01022 274.4 12.8
292(9) 0.01109 274.4 12.8
289(9) 0.01156 274.4 12.9
272(9) 0.01193 274.4 13.0
284(9) 0.01121 274.4 13.1
292(10) 0.00993 274.4 13.2
277(9) 0.01103 274.4 13.4
251(8) 0.01305 274.4 13.5
249(8) 0.01302 274.4 13.7
278(9) 0.01136 274.4 13.9
265(9) 0.01111 274.4 14.1
300(9) 0.01021 274.4 14.3
276(9) 0.01202 274.4 14.6
280(9) 0.01157 274.4 14.9
301(9) 0.01033 274.4 15.2
279(9) 0.01092 274.4 15.5
291(9) 0.01092 274.4 15.8
299(9) 0.01126 274.4 16.2
289(9) 0.01121 274.4 16.6
290(9) 0.01105 274.4 17.0
306(10) 0.00976 274.4 17.4
273(9) 0.01158 274.4 17.9
283(9) 0.01172 274.4 18.3
297(9) 0.01074 274.4 18.8
290(9) 0.01071 274.3 19.3
290(9) 0.01051 274.3 19.9
274(9) 0.01171 274.3 20.4
284(9) 0.01161 274.3 21.0
272(9) 0.01171 274.3 21.6
298(9) 0.01031 274.3 22.2
308(10) 0.00998 274.3 22.8
305(9) 0.01047 274.3 23.4
283(9) 0.01191 274.3 24.0
317(9) 0.01013 274.3 24.6
290(9) 0.01079 274.3 25.2
322(10) 0.00950 274.3 25.8
305(9) 0.01078 274.3 26.3
289(9) 0.01153 274.3 26.9
331(10) 0.00950 274.3 27.4
304(9) 0.01030 274.3 27.8
293(9) 0.01050 274.3 28.3
310(9) 0.01060 274.3 28.6
311(9) 0.01072 274.3 28.9
313(10) 0.00996 274.3 29.2
266(9) 0.01177 274.3 29.3
291(9) 0.01104 274.3 29.4
271(9) 0.01220 274.3 29.5
306(9) 0.01096 274.3 29.4
292(9) 0.01074 274.3 29.3
281(9) 0.01056 274.2 29.1
281(9) 0.01128 274.2 28.8
307(9) 0.01091 274.2 28.5
285(9) 0.01155 274.2 28.1
290(9) 0.01085 274.2 27.7
290(9) 0.01015 274.2 27.2
302(9) 0.01081 274.2 26.7
287(9) 0.01158 274.2 26.1
279(9) 0.01166 274.2 25.5
282(9) 0.01069 274.2 24.9
290(10) 0.00986 274.2 24.3
296(9) 0.01031 274.2 23.7
292(9) 0.01144 274.2 23.0
299(9) 0.01095 274.2 22.4
289(9) 0.01082 274.2 21.8
277(9) 0.01113 274.2 21.2
307(10) 0.01000 274.2 20.6
311(9) 0.01069 274.2 20.0
314(9) 0.01066 274.2 19.4
287(9) 0.01097 274.2 18.8
293(9) 0.01036 274.2 18.3
287(9) 0.01074 274.2 17.8
287(9) 0.01156 274.2 17.3
278(9) 0.01199 274.2 16.8
273(9) 0.01113 274.2 16.3
273(9) 0.01131 274.1 15.9
278(9) 0.01105 274.1 15.5
289(9) 0.01152 274.1 15.1
285(9) 0.01103 274.1 14.7
288(9) 0.01033 274.1 14.3
297(9) 0.01032 274.1 14.0
291(9) 0.01056 274.1 13.7
251(8) 0.01303 274.1 13.4
276(9) 0.01117 274.1 13.1
278(9) 0.01081 274.1 12.8
277(9) 0.01095 274.1 12.5
268(9) 0.01202 274.1 12.3
287(9) 0.01169 274.1 12.1
306(9) 0.01016 274.1 11.9
274(9) 0.01142 274.1 11.7
270(9) 0.01151 274.1 11.5
295(9) 0.01100 274.1 11.3
291(9) 0.01153 274.1 11.1
282(9) 0.01110 274.1 11.0
293(9) 0.01038 274.1 10.9
289(9) 0.01058 274.1 10.7
277(9) 0.01197 274.1 10.6
273(9) 0.01215 274.1 10.5
294(9) 0.01044 274.1 10.4
302(10) 0.00962 274.1 10.3
286(9) 0.01102 274.1 10.2
261(8) 0.01271 274.0 10.1
284(9) 0.01162 274.0 10.1
268(9) 0.01169 274.0 10.0
251(9) 0.01126 274.0 10.0
268(9) 0.01174 274.0 9.9
268(8) 0.01233 274.0 9.9
262(8) 0.01257 274.0 9.8
291(9) 0.01045 274.0 9.8
252(8) 0.01240 274.0 9.7
274(9) 0.01153 274.0 9.7
286(9) 0.01166 274.0 9.7
280(9) 0.01158 274.0 9.7
273(9) 0.01164 274.0 9.7
265(9) 0.01090 274.0 9.6
273(9) 0.01169 274.0 9.6
288(9) 0.01161 274.0 9.6
264(8) 0.01261 274.0 9.6
288(9) 0.01110 274.0 9.6
291(9) 0.01060 274.0 9.6
278(9) 0.01117 274.0 9.6
267(8) 0.01233 274.0 9.7
273(9) 0.01169 274.0 9.7
278(9) 0.01114 274.0 9.7
277(9) 0.01111 274.0 9.7
304(9) 0.01030 274.0 9.7
273(9) 0.01214 274.0 9.8
279(9) 0.01131 274.1 9.8
273(9) 0.01134 274.1 9.9
284(9) 0.01096 274.1 9.9
273(9) 0.01168 274.1 10.0
266(8) 0.01244 274.1 10.0
276(9) 0.01141 274.1 10.1
288(9) 0.01047 274.1 10.2
279(9) 0.01105 274.1 10.3
250(8) 0.01265 274.1 10.4
281(9) 0.01172 274.1 10.5
273(9) 0.01140 274.1 10.6
290(9) 0.01056 274.1 10.7
282(9) 0.01083 274.1 10.8
266(9) 0.01200 274.2 11.0
265(8) 0.01235 274.2 11.1
282(9) 0.01139 274.2 11.3
296(9) 0.01017 274.2 11.4
285(9) 0.01071 274.2 11.6
281(9) 0.01181 274.2 11.7
303(9) 0.01108 274.2 11.9
284(9) 0.01095 274.2 12.1
274(9) 0.01076 274.2 12.2
283(9) 0.01091 274.2 12.4
268(9) 0.01219 274.2 12.5
265(8) 0.01261 274.2 12.7
282(9) 0.01128 274.2 12.8
304(10) 0.00959 274.3 12.9
255(8) 0.01267 274.3 13.0
267(9) 0.01229 274.3 13.1
282(9) 0.01183 274.3 13.2
301(9) 0.01074 274.3 13.3
289(9) 0.01043 274.3 13.3
274(9) 0.01146 274.3 13.3
302(9) 0.01087 274.3 13.3
305(9) 0.01080 274.3 13.3
301(9) 0.01039 274.3 13.3
269(9) 0.01112 274.3 13.3
289(9) 0.01095 274.3 13.3
279(9) 0.01195 274.4 13.3
277(9) 0.01175 274.4 13.2
297(9) 0.01072 274.4 13.2
303(10) 0.00998 274.4 13.2
274(9) 0.01133 274.4 13.1
292(9) 0.01128 274.4 13.1
289(9) 0.01120 274.4 13.1
280(9) 0.01086 274.4 13.1
291(9) 0.01046 274.4 13.1
276(9) 0.01105 274.4 13.2
289(9) 0.01144 274.4 13.2
279(9) 0.01138 274.4 13.2
276(9) 0.01088 274.4 13.3
284(9) 0.01104 274.5 13.4
280(9) 0.01144 274.5 13.5
273(9) 0.01211 274.5 13.6
295(9) 0.01065 274.5 13.8
304(10) 0.00977 274.5 13.9
272(9) 0.01127 274.5 14.1
283(9) 0.01137 274.5 14.3
287(9) 0.01152 274.5 14.5
274(9) 0.01165 274.5 14.8
274(9) 0.01135 274.5 15.1
281(9) 0.01113 274.5 15.4
307(9) 0.01065 274.5 15.8
276(9) 0.01198 274.5 16.2
287(9) 0.01045 274.6 16.7
297(9) 0.01016 274.6 17.3
285(9) 0.01121 274.6 18.0
302(9) 0.01090 274.6 18.8
309(9) 0.01068 274.6 19.8
293(9) 0.01085 274.6 21.0
309(10) 0.00945 274.6 22.4
297(9) 0.01051 274.6 24.2
290(9) 0.01133 274.6 26.3
292(9) 0.01136 274.6 28.8
312(10) 0.00993 274.6 31.6
319(10) 0.00930 274.6 34.9
289(9) 0.01090 274.6 38.5
312(9) 0.01079 274.7 42.3
308(9) 0.01082 274.7 46.1
311(10) 0.01003 274.7 49.6
322(10) 0.00911 274.7 52.5
310(9) 0.01035 274.7 54.4
318(9) 0.01050 274.7 55.0
325(9) 0.01017 274.7 54.3
320(10) 0.01003 274.7 52.3
335(10) 0.00898 274.7 49.6
315(9) 0.01038 274.7 46.5
289(9) 0.01157 274.7 43.3
277(9) 0.01187 274.7 40.1
326(10) 0.00953 274.8 37.3
299(9) 0.01055 274.8 34.8
303(9) 0.01034 274.8 32.6
302(9) 0.01108 274.8 30.8
287(9) 0.01126 274.8 29.3
288(9) 0.01104 274.8 28.2
285(9) 0.01075 274.8 27.2
290(9) 0.01090 274.8 26.5
302(9) 0.01105 274.8 25.9
279(9) 0.01130 274.8 25.4
281(9) 0.01092 274.8 25.0
310(10) 0.00969 274.8 24.6
302(9) 0.01045 274.8 24.3
286(9) 0.01164 274.9 23.9
305(9) 0.01064 274.9 23.6
292(9) 0.01086 274.9 23.3
294(9) 0.01071 274.9 23.0
292(9) 0.01120 274.9 22.7
299(9) 0.01107 274.9 22.3
284(9) 0.01150 274.9 22.0
298(9) 0.01013 274.9 21.7
288(9) 0.01069 274.9 21.3
286(9) 0.01147 274.9 20.9
286(9) 0.01162 274.9 20.6
289(9) 0.01067 274.9 20.2
305(9) 0.01008 274.9 19.8
285(9) 0.01094 275.0 19.5
266(8) 0.01236 275.0 19.1
299(9) 0.01110 275.0 18.7
286(9) 0.01079 275.0 18.3
301(9) 0.01019 275.0 18.0
298(9) 0.01052 275.0 17.6
316(9) 0.01042 275.0 17.3
288(9) 0.01155 275.0 16.9
303(9) 0.01017 275.0 16.6
271(9) 0.01073 275.0 16.2
276(9) 0.01106 275.0 15.9
270(9) 0.01195 275.0 15.6
275(9) 0.01211 275.0 15.3
292(9) 0.01033 275.1 15.0
279(9) 0.01009 275.1 14.7
271(9) 0.01130 275.1 14.4
300(9) 0.01103 275.1 14.2
280(9) 0.01180 275.1 13.9
267(9) 0.01198 275.1 13.7
288(9) 0.01021 275.1 13.4
295(9) 0.01068 275.1 13.2
271(9) 0.01210 275.1 13.0
283(9) 0.01164 275.1 12.8
280(9) 0.01119 275.1 12.6
288(10) 0.01004 275.1 12.4
299(9) 0.01025 275.2 12.2
265(8) 0.01256 275.2 12.0
284(9) 0.01139 275.2 11.9
277(9) 0.01119 275.2 11.7
285(9) 0.01052 275.2 11.6
268(9) 0.01155 275.2 11.4
283(9) 0.01156 275.2 11.3
288(9) 0.01105 275.2 11.2
281(9) 0.01117 275.2 11.1
272(9) 0.01141 275.2 11.0
280(9) 0.01138 275.2 10.9
276(9) 0.01209 275.2 10.8
263(8) 0.01234 275.2 10.7
282(9) 0.01105 275.3 10.6
271(9) 0.01154 275.3 10.6
278(9) 0.01153 275.3 10.5
272(9) 0.01215 275.3 10.4
263(9) 0.01215 275.3 10.4
270(9) 0.01105 275.3 10.3
277(9) 0.01095 275.3 10.3
274(9) 0.01169 275.3 10.3
276(9) 0.01204 275.3 10.2
270(9) 0.01137 275.3 10.2
278(9) 0.01083 275.3 10.2
288(9) 0.01074 275.3 10.1
276(9) 0.01147 275.3 10.1
292(9) 0.01150 275.4 10.1
289(9) 0.01131 275.4 10.1
286(9) 0.01051 275.4 10.1
264(9) 0.01175 275.4 10.1
262(8) 0.01243 275.4 10.1
259(8) 0.01276 275.4 10.1
289(9) 0.01098 275.4 10.1
293(9) 0.01021 275.4 10.2
276(9) 0.01106 275.4 10.2
250(8) 0.01316 275.4 10.2
295(9) 0.01128 275.4 10.3
317(10) 0.00981 275.4 10.3
282(9) 0.01033 275.5 10.4
273(9) 0.01160 275.5 10.4
294(9) 0.01141 275.5 10.5
284(9) 0.01182 275.5 10.6
286(9) 0.01093 275.5 10.7
266(9) 0.01138 275.5 10.9
269(9) 0.01190 275.5 11.0
266(8) 0.01238 275.5 11.2
288(9) 0.01129 275.5 11.5
281(9) 0.01162 275.5 11.8
278(9) 0.01054 275.5 12.1
281(9) 0.01098 275.5 12.5
263(8) 0.01249 275.5 13.0
296(9) 0.01112 275.6 13.7
292(9) 0.01080 275.6 14.5
275(9) 0.01107 275.6 15.5
284(9) 0.01109 275.6 16.7
304(9) 0.01098 275.6 18.2
313(9) 0.01035 275.6 20.0
298(9) 0.01069 275.6 22.2
316(10) 0.00991 275.6 24.8
317(9) 0.01018 275.6 27.7
301(9) 0.01109 275.6 31.1
327(10) 0.00992 275.6 34.8
329(10) 0.00930 275.6 38.8
321(10) 0.00958 275.6 42.9
336(10) 0.00945 275.7 46.8
336(9) 0.01011 275.7 50.3
336(10) 0.00965 275.7 53.1
328(10) 0.00958 275.7 54.6
323(10) 0.00981 275.7 54.7
328(9) 0.01009 275.7 53.3
346(10) 0.00984 275.7 50.7
313(10) 0.01004 275.7 47.2
305(10) 0.00995 275.7 43.2
314(9) 0.01020 275.7 39.1
320(9) 0.01034 275.7 35.1
303(9) 0.01112 275.7 31.3
311(9) 0.01018 275.7 27.8
284(9) 0.01057 275.8 24.8
282(9) 0.01110 275.8 22.1
287(9) 0.01138 275.8 19.8
306(9) 0.01107 275.8 17.9
284(9) 0.01118 275.8 16.3
283(9) 0.01031 275.8 15.0
265(9) 0.01225 275.8 13.9
297(9) 0.01103 275.8 13.0
264(8) 0.01259 275.8 12.3
289(9) 0.01068 275.8 11.7
276(9) 0.01053 275.8 11.2
271(9) 0.01156 275.8 10.8
276(9) 0.01202 275.9 10.4
269(9) 0.01227 275.9 10.1
257(9) 0.01227 275.9 9.9
286(9) 0.01013 275.9 9.6
287(9) 0.01095 275.9 9.4
279(9) 0.01185 275.9 9.2
281(9) 0.01185 275.9 9.0
290(9) 0.01075 275.9 8.9
267(9) 0.01143 275.9 8.7
284(9) 0.01130 275.9 8.6
261(8) 0.01240 275.9 8.4
273(9) 0.01190 275.9 8.3
267(9) 0.01150 275.9 8.2
287(9) 0.01017 276.0 8.1
266(9) 0.01176 276.0 8.0
277(9) 0.01182 276.0 7.9
264(9) 0.01212 276.0 7.8
275(9) 0.01102 276.0 7.7
267(9) 0.01119 276.0 7.6
268(9) 0.01157 276.0 7.5
265(8) 0.01252 276.0 7.5
272(9) 0.01187 276.0 7.4
302(10) 0.01004 276.0 7.3
299(9) 0.01019 276.0 7.2
269(9) 0.01169 276.0 7.2
275(9) 0.01208 276.0 7.1
277(9) 0.01126 276.1 7.1
278(9) 0.01051 276.1 7.0
279(9) 0.01098 276.1 7.0
294(9) 0.01094 276.1 7.0
282(9) 0.01173 276.1 6.9
269(9) 0.01137 276.1 6.9
271(9) 0.01089 276.1 6.9
283(9) 0.01099 276.1 6.9
294(9) 0.01134 276.1 6.9
297(9) 0.01122 276.1 7.0
301(9) 0.01057 276.1 7.0
289(9) 0.01048 276.1 7.1
291(9) 0.01092 276.1 7.3
300(9) 0.01054 276.2 7.4
263(8) 0.01272 276.2 7.6
285(9) 0.01062 276.2 7.9
289(9) 0.01028 276.2 8.2
295(9) 0.01078 276.2 8.5
292(9) 0.01151 276.2 8.8
290(9) 0.01146 276.2 9.2
281(9) 0.01118 276.2 9.6
276(9) 0.01126 276.2 10.0
283(9) 0.01148 276.2 10.3
273(9) 0.01224 276.2 10.5
285(9) 0.01147 276.2 10.5
278(9) 0.01139 276.3 10.4
272(9) 0.01074 276.3 10.2
291(9) 0.01100 276.3 9.9
301(9) 0.01103 276.3 9.5
269(9) 0.01227 276.3 9.0
285(9) 0.01032 276.3 8.6
284(9) 0.01011 276.3 8.2
287(9) 0.01069 276.3 7.8
284(9) 0.01164 276.3 7.4
277(9) 0.01162 276.3 7.1
271(9) 0.01124 276.3 6.9
275(9) 0.01078 276.3 6.7
280(9) 0.01090 276.3 6.5
264(8) 0.01239 276.4 6.3
287(9) 0.01148 276.4 6.2
313(10) 0.01000 276.4 6.1
268(9) 0.01138 276.4 6.0
262(9) 0.01217 276.4 5.9
284(9) 0.01165 276.4 5.9
300(9) 0.01080 276.4 5.9
268(9) 0.01170 276.4 5.8
276(9) 0.01070 276.4 5.8
269(9) 0.01170 276.4 5.8
295(9) 0.01140 276.4 5.8
280(9) 0.01128 276.4 5.8
259(9) 0.01215 276.4 5.8
286(9) 0.01083 276.5 5.8
273(9) 0.01171 276.5 5.8
262(8) 0.01260 276.5 5.8
278(9) 0.01123 276.5 5.8
275(9) 0.01113 276.5 5.8
261(9) 0.01202 276.5 5.9
298(9) 0.01096 276.5 5.9
272(9) 0.01211 276.5 5.9
285(9) 0.01064 276.5 5.9
269(9) 0.01107 276.5 6.0
264(9) 0.01185 276.5 6.0
278(9) 0.01176 276.5 6.0
277(9) 0.01190 276.6 6.1
270(9) 0.01156 276.6 6.1
255(9) 0.01130 276.6 6.2
255(9) 0.01230 276.6 6.2
251(8) 0.01288 276.6 6.3
266(8) 0.01237 276.6 6.3
289(9) 0.01026 276.6 6.4
281(9) 0.01039 276.6 6.5
281(9) 0.01118 276.6 6.5
280(9) 0.01183 276.6 6.6
258(8) 0.01287 276.6 6.7
268(9) 0.01148 276.6 6.7
254(9) 0.01175 276.6 6.8
273(9) 0.01169 276.7 6.9
319(9) 0.01054 276.7 7.0
287(9) 0.01153 276.7 7.1
276(9) 0.01102 276.7 7.2
290(10) 0.00967 276.7 7.3
287(9) 0.01075 276.7 7.4
284(9) 0.01162 276.7 7.5
287(9) 0.01150 276.7 7.6
285(9) 0.01064 276.7 7.7
279(9) 0.01044 276.7 7.9
292(9) 0.01047 276.7 8.0
258(8) 0.01268 276.7 8.1
291(9) 0.01108 276.7 8.3
270(9) 0.01181 276.8 8.4
269(9) 0.01135 276.8 8.6
280(9) 0.01115 276.8 8.8
280(9) 0.01199 276.8 8.9
282(9) 0.01142 276.8 9.1
277(9) 0.01159 276.8 9.3
293(9) 0.01033 276.8 9.5
296(9) 0.01037 276.8 9.7
270(9) 0.01220 276.8 10.0
278(9) 0.01136 276.8 10.2
273(9) 0.01144 276.8 10.5
282(9) 0.01090 276.8 10.8
280(9) 0.01154 276.8 11.1
284(9) 0.01182 276.9 11.4
299(9) 0.01032 276.9 11.7
295(9) 0.01033 276.9 12.1
288(9) 0.01073 276.9 12.5
287(9) 0.01095 276.9 13.0
284(9) 0.01165 276.9 13.4
303(9) 0.01015 276.9 14.0
276(9) 0.01051 276.9 14.5
298(9) 0.01032 276.9 15.1
285(9) 0.01160 276.9 15.8
290(9) 0.01154 276.9 16.5
292(9) 0.01055 276.9 17.3
292(9) 0.01020 277.0 18.1
295(9) 0.01075 277.0 19.0
292(9) 0.01121 277.0 19.9
289(9) 0.01158 277.0 20.9
334(10) 0.00875 277.0 22.0
298(9) 0.01103 277.0 23.0
336(10) 0.00991 277.0 24.1
327(9) 0.01025 277.0 25.2
294(9) 0.01072 277.0 26.3
298(9) 0.01018 277.0 27.3
295(9) 0.01099 277.0 28.3
316(9) 0.01057 277.0 29.1
305(9) 0.01087 277.0 29.8
305(9) 0.01011 277.1 30.4
310(10) 0.00945 277.1 30.9
295(9) 0.01043 277.1 31.2
309(9) 0.01076 277.1 31.3
287(9) 0.01176 277.1 31.3
302(9) 0.01071 277.1 31.2
286(9) 0.01063 277.1 31.0
291(9) 0.01097 277.1 30.6
279(9) 0.01200 277.1 30.0
287(9) 0.01130 277.1 29.4
305(9) 0.01033 277.1 28.7
310(10) 0.00985 277.1 27.8
295(9) 0.01087 277.1 27.0
320(9) 0.01054 277.2 26.1
297(9) 0.01099 277.2 25.2
308(10) 0.00997 277.2 24.3
303(9) 0.01010 277.2 23.4
285(9) 0.01078 277.2 22.6
279(9) 0.01196 277.2 21.8
272(9) 0.01206 277.2 21.0
326(10) 0.00932 277.2 20.3
294(9) 0.01054 277.2 19.7
299(9) 0.01056 277.2 19.1
301(9) 0.01111 277.2 18.5
301(9) 0.01081 277.2 18.0
310(9) 0.01019 277.2 17.5
284(9) 0.01142 277.3 17.0
319(10) 0.00997 277.3 16.6
285(9) 0.01181 277.3 16.2
289(9) 0.01090 277.3 15.8
298(9) 0.01039 277.3 15.4
304(9) 0.01012 277.3 15.1
291(9) 0.01129 277.3 14.8
317(9) 0.01059 277.3 14.4
252(9) 0.01229 277.3 14.1
288(9) 0.01033 277.3 13.9
290(9) 0.01103 277.3 13.6
296(9) 0.01112 277.3 13.3
272(9) 0.01215 277.4 13.1
280(9) 0.01098 277.4 12.9
288(9) 0.01031 277.4 12.6
284(9) 0.01132 277.4 12.4
283(9) 0.01176 277.4 12.2
273(9) 0.01204 277.4 12.0
279(9) 0.01118 277.4 11.8
292(9) 0.01015 277.4 11.6
303(9) 0.01045 277.4 11.5
305(9) 0.01091 277.4 11.3
285(9) 0.01166 277.4 11.2
313(9) 0.01035 277.4 11.0
269(9) 0.01116 277.4 10.9
265(9) 0.01136 277.5 10.8
287(9) 0.01152 277.5 10.6
277(9) 0.01197 277.5 10.5
263(9) 0.01229 277.5 10.4
263(9) 0.01182 277.5 10.3
292(9) 0.01059 277.5 10.2
308(9) 0.01081 277.5 10.1
260(8) 0.01245 277.5 10.1
279(9) 0.01087 277.5 10.0
257(9) 0.01159 277.5 9.9
289(9) 0.01080 277.5 9.9
296(9) 0.01129 277.5 9.8
289(9) 0.01130 277.5 9.8
292(9) 0.01065 277.6 9.7
293(9) 0.01041 277.6 9.7
294(9) 0.01037 277.6 9.7
286(9) 0.01165 277.6 9.7
264(9) 0.01201 277.6 9.6
280(9) 0.01119 277.6 9.6
260(9) 0.01193 277.6 9.6
300(9) 0.01035 277.6 9.6
281(9) 0.01173 277.6 9.6
292(9) 0.01079 277.6 9.6
283(9) 0.01119 277.6 9.6
296(9) 0.01016 277.6 9.7
299(9) 0.01065 277.6 9.7
277(9) 0.01196 277.7 9.7
271(9) 0.01144 277.7 9.7
294(10) 0.00986 277.7 9.8
276(9) 0.01067 277.7 9.8
254(8) 0.01261 277.7 9.8
276(9) 0.01203 277.7 9.9
298(9) 0.01040 277.7 9.9
267(9) 0.01176 277.7 9.9
286(9) 0.01076 277.7 10.0
278(9) 0.01130 277.7 10.0
311(9) 0.01085 277.7 10.0
271(9) 0.01158 277.7 10.1
265(9) 0.01077 277.8 10.1
258(8) 0.01242 277.8 10.1
275(9) 0.01198 277.8 10.2
284(9) 0.01169 277.8 10.2
285(9) 0.01124 277.8 10.2
285(9) 0.01054 277.8 10.3
296(9) 0.01076 277.8 10.3
274(9) 0.01197 277.8 10.3
279(9) 0.01188 277.8 10.4
269(9) 0.01189 277.8 10.4
279(9) 0.01084 277.8 10.4
292(9) 0.01087 277.8 10.4
292(9) 0.01147 277.8 10.5
294(9) 0.01118 277.9 10.5
294(9) 0.01049 277.9 10.5
270(9) 0.01107 277.9 10.6
277(9) 0.01127 277.9 10.6
270(9) 0.01227 277.9 10.6
269(8) 0.01237 277.9 10.7
275(9) 0.01115 277.9 10.7
307(10) 0.00997 277.9 10.8
293(9) 0.01104 277.9 10.8
281(9) 0.01174 277.9 10.9
286(9) 0.01151 277.9 10.9
288(9) 0.01070 277.9 11.0
281(9) 0.01067 277.9 11.1
289(9) 0.01096 278.0 11.2
289(9) 0.01160 278.0 11.3
290(9) 0.01099 278.0 11.4
265(9) 0.01129 278.0 11.6
270(9) 0.01126 278.0 11.7
259(8) 0.01231 278.0 11.9
277(9) 0.01195 278.0 12.1
293(9) 0.01085 278.0 12.3
294(10) 0.00994 278.0 12.6
282(9) 0.01063 278.0 12.9
295(9) 0.01085 278.0 13.2
299(9) 0.01134 278.0 13.6
293(9) 0.01058 278.1 14.1
301(9) 0.01039 278.1 14.6
306(9) 0.01022 278.1 15.2
320(9) 0.01026 278.1 16.0
310(9) 0.01089 278.1 16.9
293(9) 0.01042 278.1 17.9
326(10) 0.00910 278.1 19.1
323(10) 0.00944 278.1 20.5
300(9) 0.01117 278.1 22.0
308(9) 0.01086 278.1 23.8
312(9) 0.01022 278.1 25.7
279(9) 0.01099 278.1 27.7
296(9) 0.01053 278.1 29.9
295(9) 0.01100 278.2 32.1
294(9) 0.01157 278.2 34.3
299(9) 0.01077 278.2 36.2
301(10) 0.00984 278.2 37.8
290(9) 0.01121 278.2 38.9
296(9) 0.01133 278.2 39.3
308(9) 0.01098 278.2 39.1
302(9) 0.01064 278.2 38.4
333(10) 0.00879 278.2 37.1
342(10) 0.00966 278.2 35.6
299(9) 0.01105 278.2 33.9
328(9) 0.01021 278.2 32.3
305(9) 0.01078 278.2 30.7
301(9) 0.01023 278.3 29.2
315(10) 0.01005 278.3 27.9
300(9) 0.01106 278.3 26.8
278(9) 0.01209 278.3 25.9
286(9) 0.01121 278.3 25.1
293(9) 0.01082 278.3 24.6
305(9) 0.01079 278.3 24.2
327(9) 0.01011 278.3 23.9
285(9) 0.01159 278.3 23.8
300(9) 0.01077 278.3 23.8
309(10) 0.01005 278.3 23.9
305(9) 0.01037 278.3 24.0
325(9) 0.01040 278.3 24.3
311(9) 0.01058 278.4 24.6
311(10) 0.00984 278.4 25.0
298(9) 0.01017 278.4 25.4
298(9) 0.01038 278.4 25.9
311(9) 0.01073 278.4 26.4
290(9) 0.01080 278.4 27.0
309(10) 0.00965 278.4 27.7
311(10) 0.00964 278.4 28.4
307(9) 0.01066 278.4 29.3
304(9) 0.01108 278.4 30.3
315(9) 0.01046 278.4 31.4
313(9) 0.01015 278.4 32.7
323(10) 0.00954 278.5 34.1
340(10) 0.00972 278.5 35.8
328(9) 0.01031 278.5 37.7
300(9) 0.01085 278.5 39.9
330(10) 0.00923 278.5 42.4
314(10) 0.00988 278.5 45.2
334(10) 0.00984 278.5 48.3
322(9) 0.01040 278.5 51.8
323(10) 0.00981 278.5 55.6
370(11) 0.00818 278.5 59.6
338(10) 0.00967 278.5 63.9
329(9) 0.01020 278.5 68.3
343(10) 0.00987 278.5 72.6
352(10) 0.00905 278.6 76.7
359(10) 0.00848 278.6 80.3
339(10) 0.00938 278.6 83.1
362(10) 0.00939 278.6 84.9
354(10) 0.00945 278.6 85.4
312(9) 0.01037 278.6 84.8
330(10) 0.00908 278.6 83.1
334(10) 0.00961 278.6 80.6
332(9) 0.01021 278.6 77.6
341(10) 0.00979 278.6 74.3
351(10) 0.00907 278.6 71.1
351(10) 0.00883 278.6 68.1
361(10) 0.00909 278.6 65.4
345(10) 0.00975 278.7 63.2
352(10) 0.00947 278.7 61.4
351(10) 0.00919 278.7 60.1
328(10) 0.00900 278.7 59.2
322(10) 0.00978 278.7 58.6
335(9) 0.01014 278.7 58.1
352(10) 0.00951 278.7 57.7
355(10) 0.00855 278.7 57.2
346(10) 0.00871 278.7 56.3
341(10) 0.00941 278.7 55.1
328(9) 0.01018 278.7 53.5
317(9) 0.01052 278.7 51.5
308(9) 0.01060 278.7 49.3
319(10) 0.00960 278.8 47.0
308(9) 0.01048 278.8 44.7
318(9) 0.01061 278.8 42.5
307(9) 0.01044 278.8 40.5
313(9) 0.01015 278.8 38.7
324(10) 0.00930 278.8 37.1
300(9) 0.01058 278.8 35.8
309(9) 0.01092 278.8 34.7
331(10) 0.00952 278.8 33.8
292(9) 0.01012 278.8 33.2
308(10) 0.01005 278.8 32.8
320(9) 0.01018 278.8 32.6
287(9) 0.01165 278.9 32.6
296(9) 0.01097 278.9 32.7
315(10) 0.00976 278.9 33.0
324(10) 0.00950 278.9 33.3
316(9) 0.01031 278.9 33.7
312(9) 0.01058 278.9 34.2
296(10) 0.01007 278.9 34.7
314(10) 0.00947 278.9 35.2
305(9) 0.01010 278.9 35.7
290(9) 0.01158 278.9 36.1
288(9) 0.01161 278.9 36.5
326(10) 0.00944 278.9 36.8
311(10) 0.00962 278.9 37.1
302(9) 0.01030 279.0 37.3
287(9) 0.01140 279.0 37.6
277(9) 0.01183 279.0 37.8
296(9) 0.01061 279.0 38.1
332(10) 0.00869 279.0 38.4
341(10) 0.00915 279.0 38.8
310(9) 0.01060 279.0 39.2
291(9) 0.01116 279.0 39.7
307(10) 0.01004 279.0 40.2
293(9) 0.01025 279.0 40.8
292(9) 0.01100 279.0 41.5
322(9) 0.01045 279.0 42.1
296(9) 0.01115 279.0 42.8
296(9) 0.01047 279.1 43.4
312(10) 0.00958 279.1 44.0
310(10) 0.01007 279.1 44.5
324(9) 0.01040 279.1 44.8
313(9) 0.01039 279.1 45.1
304(9) 0.01022 279.1 45.1
326(10) 0.00916 279.1 44.9
313(10) 0.00993 279.1 44.6
317(9) 0.01060 279.1 44.0
320(9) 0.01023 279.1 43.3
324(10) 0.00980 279.1 42.4
329(10) 0.00932 279.1 41.4
311(9) 0.01018 279.2 40.3
285(9) 0.01161 279.2 39.1
343(10) 0.00942 279.2 37.9
296(9) 0.01065 279.2 36.6
313(10) 0.01004 279.2 35.4
299(9) 0.01057 279.2 34.1
308(9) 0.01089 279.2 33.0
295(9) 0.01129 279.2 31.8
303(9) 0.01052 279.2 30.8
324(10) 0.00957 279.2 29.8
307(9) 0.01042 279.2 28.9
320(9) 0.01051 279.2 28.1
288(9) 0.01107 279.2 27.4
306(9) 0.01018 279.3 26.7
341(10) 0.00929 279.3 26.1
313(9) 0.01061 279.3 25.6
322(9) 0.01042 279.3 25.2
283(9) 0.01104 279.3 24.8
278(9) 0.01114 279.3 24.5
295(9) 0.01058 279.3 24.2
296(9) 0.01116 279.3 24.0
309(9) 0.01076 279.3 23.9
309(10) 0.01001 279.3 23.7
299(10) 0.00994 279.3 23.6
277(9) 0.01133 279.3 23.5
304(9) 0.01080 279.3 23.5
288(9) 0.01154 279.4 23.5
298(9) 0.01050 279.4 23.5
305(10) 0.00979 279.4 23.5
286(9) 0.01105 279.4 23.5
306(9) 0.01090 279.4 23.6
310(9) 0.01050 279.4 23.8
293(9) 0.01097 279.4 24.1
316(10) 0.00913 279.4 24.4
299(9) 0.01050 279.4 24.8
276(9) 0.01184 279.4 25.4
292(9) 0.01109 279.4 26.1
304(9) 0.01042 279.4 26.9
328(10) 0.00907 279.4 27.9
317(10) 0.01004 279.5 29.1
307(9) 0.01101 279.5 30.5
317(9) 0.01046 279.5 32.0
307(9) 0.01018 279.5 33.7
304(10) 0.01005 279.5 35.7
309(9) 0.01054 279.5 37.7
317(9) 0.01062 279.5 39.9
316(9) 0.01049 279.5 42.2
338(10) 0.00900 279.5 44.5
338(10) 0.00877 279.5 46.7
339(10) 0.00919 279.5 48.7
333(9) 0.01014 279.5 50.4
355(10) 0.00898 279.6 51.7
329(10) 0.00994 279.6 52.4
345(10) 0.00908 279.6 52.4
343(10) 0.00932 279.6 51.9
332(9) 0.01018 279.6 50.7
358(10) 0.00910 279.6 49.1
301(9) 0.01048 279.6 47.0
311(10) 0.00989 279.6 44.7
316(9) 0.01023 279.6 42.3
296(9) 0.01128 279.6 39.8
329(10) 0.00974 279.6 37.4
313(10) 0.01000 279.6 35.1
314(10) 0.00967 279.6 32.9
298(9) 0.01095 279.7 30.9
335(9) 0.01008 279.7 29.1
325(10) 0.00955 279.7 27.5
323(10) 0.00981 279.7 26.0
316(10) 0.01004 279.7 24.7
306(9) 0.01061 279.7 23.6
299(9) 0.01122 279.7 22.6
326(10) 0.00943 279.7 21.9
307(9) 0.01012 279.7 21.2
324(10) 0.00953 279.7 20.7
299(9) 0.01103 279.7 20.3
328(9) 0.01017 279.7 20.0
316(10) 0.00957 279.7 19.9
316(10) 0.00952 279.8 19.8
305(9) 0.01072 279.8 19.9
308(9) 0.01089 279.8 20.1
313(9) 0.01077 279.8 20.3
296(9) 0.01096 279.8 20.7
312(10) 0.00939 279.8 21.2
310(9) 0.01010 279.8 21.8
296(9) 0.01111 279.8 22.6
311(9) 0.01076 279.8 23.4
307(9) 0.01037 279.8 24.4
297(9) 0.01023 279.8 25.5
309(9) 0.01018 279.8 26.7
321(9) 0.01039 279.8 28.1
311(9) 0.01069 279.9 29.6
304(9) 0.01062 279.9 31.3
316(10) 0.00944 279.9 33.1
292(9) 0.01074 279.9 35.1
308(9) 0.01095 279.9 37.2
321(9) 0.01034 279.9 39.4
326(10) 0.00941 279.9 41.8
317(10) 0.00954 279.9 44.2
319(10) 0.00950 279.9 46.6
351(10) 0.00963 279.9 48.9
329(9) 0.01013 279.9 51.2
320(10) 0.00976 279.9 53.2
337(10) 0.00901 280.0 55.0
325(10) 0.00981 280.0 56.3
328(9) 0.01027 280.0 57.2
314(9) 0.01021 280.0 57.6
314(9) 0.01017 280.0 57.5
346(10) 0.00919 280.0 56.8
329(10) 0.00994 280.0 55.6
331(9) 0.01024 280.0 53.9
328(10) 0.00975 280.0 52.0
320(10) 0.00915 280.0 49.7
313(10) 0.00972 280.0 47.4
330(10) 0.00978 280.0 44.9
307(9) 0.01092 280.0 42.4
300(10) 0.01006 280.1 40.0
306(10) 0.01001 280.1 37.6
326(10) 0.00985 280.1 35.4
307(9) 0.01083 280.1 33.3
300(9) 0.01122 280.1 31.3
290(9) 0.01063 280.1 29.5
302(10) 0.01001 280.1 27.8
307(9) 0.01051 280.1 26.2
281(9) 0.01195 280.1 24.9
289(9) 0.01156 280.1 23.6
283(9) 0.01133 280.1 22.5
282(9) 0.01062 280.1 21.5
312(10) 0.00974 280.1 20.6
309(9) 0.01073 280.2 19.9
317(9) 0.01064 280.2 19.3
299(9) 0.01082 280.2 18.7
299(10) 0.00963 280.2 18.3
278(9) 0.01115 280.2 18.0
291(9) 0.01101 280.2 17.7
278(9) 0.01196 280.2 17.6
284(9) 0.01127 280.2 17.5
295(9) 0.01016 280.2 17.6
319(10) 0.00972 280.2 17.6
281(9) 0.01184 280.2 17.8
285(9) 0.01177 280.2 18.0
297(9) 0.01031 280.2 18.3
312(10) 0.00937 280.3 18.7
297(9) 0.01052 280.3 19.1
292(9) 0.01143 280.3 19.5
239(8) 0.01357 280.3 19.9
275(9) 0.01124 280.3 20.3
297(9) 0.01025 280.3 20.6
291(9) 0.01098 280.3 20.9
272(8) 0.01232 280.3 21.1
301(9) 0.01049 280.3 21.1
286(9) 0.01102 280.3 21.1
305(10) 0.00990 280.3 20.9
303(9) 0.01041 280.3 20.5
317(9) 0.01062 280.4 20.1
296(9) 0.01106 280.4 19.5
315(10) 0.01000 280.4 18.9
285(9) 0.01111 280.4 18.3
315(10) 0.01007 280.4 17.6
289(9) 0.01156 280.4 17.0
297(9) 0.01077 280.4 16.3
318(10) 0.00946 280.4 15.7
290(9) 0.01029 280.4 15.1
259(9) 0.01176 280.4 14.6
292(9) 0.01137 280.4 14.1
322(10) 0.00994 280.4 13.7
289(9) 0.01093 280.4 13.3
285(9) 0.01112 280.5 12.9
263(8) 0.01240 280.5 12.6
295(9) 0.01125 280.5 12.3
286(9) 0.01075 280.5 12.1
294(9) 0.01021 280.5 12.0
313(10) 0.00965 280.5 11.8
299(9) 0.01064 280.5 11.7
285(9) 0.01159 280.5 11.7
278(9) 0.01130 280.5 11.7
295(9) 0.01038 280.5 11.7
309(9) 0.01009 280.5 11.8
325(9) 0.01022 280.5 11.9
288(9) 0.01167 280.5 12.0
322(10) 0.00960 280.6 12.2
314(10) 0.00977 280.6 12.5
290(9) 0.01073 280.6 12.8
304(9) 0.01077 280.6 13.2
307(9) 0.01063 280.6 13.6
290(9) 0.01098 280.6 14.2
296(9) 0.01014 280.6 14.8
308(10) 0.01000 280.6 15.5
292(9) 0.01136 280.6 16.3
289(9) 0.01145 280.6 17.2
304(10) 0.01002 280.6 18.2
293(10) 0.00991 280.6 19.3
301(10) 0.00992 280.7 20.6
277(9) 0.01188 280.7 21.9
292(9) 0.01131 280.7 23.4
303(9) 0.01033 280.7 24.9
306(9) 0.01048 280.7 26.5
320(10) 0.00972 280.7 28.1
308(9) 0.01094 280.7 29.7
305(9) 0.01045 280.7 31.2
285(9) 0.01066 280.7 32.6
279(9) 0.01106 280.7 33.7
325(10) 0.00966 280.7 34.6
309(9) 0.01091 280.7 35.0
288(9) 0.01132 280.7 35.1
314(10) 0.00998 280.8 34.9
309(10) 0.00988 280.8 34.4
304(9) 0.01061 280.8 33.7
293(9) 0.01130 280.8 32.8
307(9) 0.01054 280.8 31.9
294(9) 0.01054 280.8 31.0
301(10) 0.00997 280.8 30.1
307(9) 0.01032 280.8 29.4
271(9) 0.01207 280.8 28.7
300(9) 0.01016 280.8 28.2
296(9) 0.01014 280.8 27.9
288(9) 0.01106 280.8 27.7
331(9) 0.01009 280.8 27.6
281(9) 0.01171 280.9 27.7
279(9) 0.01089 280.9 27.9
309(10) 0.01004 280.9 28.3
299(9) 0.01033 280.9 28.8
329(9) 0.01016 280.9 29.4
321(9) 0.01050 280.9 30.1
308(9) 0.01012 280.9 30.9
308(10) 0.00986 280.9 31.8
319(10) 0.00997 280.9 32.8
315(9) 0.01048 280.9 33.9
295(9) 0.01139 280.9 34.9
321(10) 0.00994 280.9 36.1
321(10) 0.00933 280.9 37.2
340(10) 0.00958 281.0 38.3
337(10) 0.00990 281.0 39.3
353(10) 0.00960 281.0 40.3
329(10) 0.00996 281.0 41.1
331(10) 0.00928 281.0 41.9
336(10) 0.00951 281.0 42.5
316(9) 0.01066 281.0 42.9
331(10) 0.01005 281.0 43.1
340(10) 0.00949 281.0 43.1
331(10) 0.00908 281.0 42.9
322(10) 0.00998 281.0 42.6
325(9) 0.01054 281.0 42.0
297(9) 0.01098 281.1 41.2
315(10) 0.00989 281.1 40.3
321(10) 0.00969 281.1 39.3
315(10) 0.00998 281.1 38.1
304(9) 0.01100 281.1 36.9
297(9) 0.01128 281.1 35.6
317(10) 0.00969 281.1 34.3
324(10) 0.00931 281.1 33.0
308(10) 0.00997 281.1 31.6
310(9) 0.01058 281.1 30.3
291(9) 0.01142 281.1 29.0
306(9) 0.01019 281.1 27.7
323(10) 0.00984 281.1 26.5
304(9) 0.01053 281.2 25.3
307(9) 0.01092 281.2 24.2
301(9) 0.01031 281.2 23.2
327(10) 0.00900 281.2 22.2
324(10) 0.00928 281.2 21.2
300(9) 0.01087 281.2 20.3
318(9) 0.01066 281.2 19.5
316(9) 0.01011 281.2 18.7
320(10) 0.00978 281.2 17.9
295(9) 0.01066 281.2 17.2
281(9) 0.01167 281.2 16.6
276(9) 0.01221 281.2 16.0
288(9) 0.01114 281.2 15.4
314(10) 0.00940 281.3 14.9
282(9) 0.01108 281.3 14.4
295(9) 0.01119 281.3 13.9
297(9) 0.01136 281.3 13.5
289(9) 0.01104 281.3 13.1
286(9) 0.01042 281.3 12.8
285(9) 0.01048 281.3 12.5
294(9) 0.01132 281.3 12.2
309(9) 0.01089 281.3 11.9
288(9) 0.01093 281.3 11.6
311(10) 0.00961 281.3 11.4
313(9) 0.01031 281.3 11.2
291(9) 0.01108 281.3 11.0
298(9) 0.01127 281.4 10.9
302(9) 0.01056 281.4 10.7
295(9) 0.01011 281.4 10.6
321(10) 0.01006 281.4 10.4
309(9) 0.01088 281.4 10.3
306(9) 0.01082 281.4 10.2
287(9) 0.01071 281.4 10.1
299(10) 0.00949 281.4 10.1
308(10) 0.00995 281.4 10.0
301(9) 0.01113 281.4 9.9
324(9) 0.01020 281.4 9.9
296(9) 0.01082 281.4 9.8
297(10) 0.00996 281.5 9.7
298(9) 0.01037 281.5 9.7
311(9) 0.01085 281.5 9.6
298(9) 0.01103 281.5 9.6
314(9) 0.01010 281.5 9.5
310(10) 0.00984 281.5 9.5
301(9) 0.01009 281.5 9.4
274(9) 0.01202 281.5 9.3
282(9) 0.01156 281.5 9.3
325(10) 0.00946 281.5 9.2
305(10) 0.00983 281.5 9.1
286(9) 0.01098 281.5 9.0
299(9) 0.01128 281.5 8.9
305(9) 0.01078 281.6 8.8
316(10) 0.00977 281.6 8.7
281(9) 0.01137 281.6 8.6
287(9) 0.01127 281.6 8.5
286(9) 0.01158 281.6 8.4
290(9) 0.01090 281.6 8.3
292(9) 0.01054 281.6 8.2
284(9) 0.01102 281.6 8.1
285(9) 0.01103 281.6 8.0
294(9) 0.01149 281.6 7.8
287(9) 0.01060 281.6 7.7
294(10) 0.01001 281.6 7.6
279(9) 0.01092 281.6 7.5
289(9) 0.01108 281.7 7.4
295(9) 0.01130 281.7 7.3
288(9) 0.01118 281.7 7.3
305(10) 0.00987 281.7 7.2
308(9) 0.01040 281.7 7.1
300(9) 0.01129 281.7 7.0
284(9) 0.01160 281.7 7.0
301(9) 0.01047 281.7 6.9
310(10) 0.00972 281.7 6.8
306(9) 0.01056 281.7 6.8
304(9) 0.01086 281.7 6.7
272(9) 0.01213 281.7 6.7
291(9) 0.01074 281.8 6.7
287(9) 0.01039 281.8 6.6
319(9) 0.01022 281.8 6.6
292(9) 0.01138 281.8 6.6
286(9) 0.01151 281.8 6.6
292(9) 0.01088 281.8 6.6
299(10) 0.00951 281.8 6.6
301(9) 0.01017 281.8 6.6
318(9) 0.01061 281.9 6.6
309(9) 0.01091 281.9 6.6
261(9) 0.01228 281.9 6.7
280(9) 0.01055 281.9 6.7
298(9) 0.01080 281.9 6.7
288(9) 0.01164 282.0 6.8
301(9) 0.01095 282.0 6.9
298(9) 0.01047 282.0 7.0
294(9) 0.01019 282.0 7.0
295(9) 0.01057 282.0 7.2
313(9) 0.01072 282.0 7.3
297(9) 0.01078 282.1 7.4
289(9) 0.01126 282.1 7.6
293(9) 0.01074 282.1 7.7
288(9) 0.01076 282.1 7.9
311(9) 0.01076 282.1 8.2
331(10) 0.00977 282.1 8.4
306(9) 0.01016 282.2 8.7
283(9) 0.01094 282.2 9.1
284(9) 0.01104 282.2 9.5
291(9) 0.01155 282.2 9.9
296(9) 0.01085 282.2 10.4
277(9) 0.01155 282.2 11.1
305(9) 0.01048 282.3 11.8
297(9) 0.01097 282.3 12.6
297(9) 0.01122 282.3 13.5
306(9) 0.01023 282.3 14.5
298(9) 0.01034 282.3 15.7
310(9) 0.01019 282.4 17.1
320(9) 0.01011 282.4 18.6
334(9) 0.01018 282.4 20.2
322(9) 0.01008 282.4 22.1
330(10) 0.00927 282.4 24.1
300(9) 0.01058 282.4 26.2
302(9) 0.01090 282.5 28.4
342(10) 0.00983 282.5 30.7
338(10) 0.00940 282.5 33.1
329(10) 0.00921 282.5 35.3
314(9) 0.01011 282.5 37.4
348(10) 0.00955 282.5 39.1
368(10) 0.00930 282.6 40.4
335(10) 0.00978 282.6 41.2
330(10) 0.00896 282.6 41.3
312(9) 0.01020 282.6 40.9
332(10) 0.01006 282.6 39.9
309(9) 0.01097 282.6 38.4
321(10) 0.00995 282.7 36.6
331(10) 0.00850 282.7 34.5
318(10) 0.00966 282.7 32.3
304(9) 0.01107 282.7 30.1
306(9) 0.01094 282.7 27.8
307(9) 0.01053 282.8 25.7
326(10) 0.00909 282.8 23.8
286(9) 0.01124 282.8 21.9
306(9) 0.01107 282.8 20.2
281(9) 0.01168 282.8 18.7
309(9) 0.01013 282.8 17.3
312(10) 0.00999 282.9 16.1
340(10) 0.00891 282.9 15.0
300(9) 0.01112 282.9 14.1
304(9) 0.01077 282.9 13.2
292(9) 0.01091 282.9 12.5
308(10) 0.00996 282.9 11.9
299(9) 0.01043 283.0 11.3
300(9) 0.01112 283.0 10.9
304(9) 0.01079 283.0 10.5
316(9) 0.01011 283.0 10.1
285(9) 0.01108 283.0 9.8
311(9) 0.01023 283.0 9.5
331(9) 0.01025 283.1 9.3
301(9) 0.01066 283.1 9.1
280(9) 0.01127 283.1 8.9
295(9) 0.01037 283.1 8.8
295(9) 0.01068 283.1 8.6
293(9) 0.01133 283.2 8.5
293(9) 0.01089 283.2 8.4
303(10) 0.00957 283.2 8.3
289(9) 0.01045 283.2 8.2
306(9) 0.01065 283.2 8.2
311(9) 0.01075 283.2 8.1
295(9) 0.01079 283.3 8.1
298(9) 0.01014 283.3 8.0
296(9) 0.01048 283.3 8.0
306(9) 0.01090 283.3 8.0
293(9) 0.01135 283.3 8.0
286(9) 0.01111 283.3 8.0
314(10) 0.00886 283.4 8.0
294(9) 0.01042 283.4 8.0
294(9) 0.01122 283.4 8.0
302(9) 0.01109 283.4 8.0
286(9) 0.01102 283.4 8.1
312(10) 0.00965 283.4 8.1
300(9) 0.01075 283.5 8.1
280(9) 0.01168 283.5 8.2
295(9) 0.01129 283.5 8.3
308(9) 0.01020 283.5 8.3
299(10) 0.00959 283.5 8.4
281(9) 0.01098 283.5 8.5
277(9) 0.01189 283.6 8.6
277(9) 0.01178 283.6 8.6
306(9) 0.01027 283.6 8.7
309(10) 0.00964 283.6 8.9
312(10) 0.00989 283.6 9.0
302(9) 0.01122 283.7 9.1
328(10) 0.01007 283.7 9.2
314(9) 0.01020 283.7 9.4
306(10) 0.00968 283.7 9.5
285(9) 0.01094 283.7 9.7
303(9) 0.01114 283.7 9.9
300(9) 0.01112 283.8 10.0
285(9) 0.01114 283.8 10.2
308(10) 0.00964 283.8 10.4
313(10) 0.00991 283.8 10.7
307(9) 0.01089 283.8 10.9
306(9) 0.01091 283.8 11.2
307(9) 0.01040 283.9 11.4
321(10) 0.00980 283.9 11.7
302(9) 0.01075 283.9 12.1
305(9) 0.01099 283.9 12.4
295(9) 0.01107 283.9 12.8
302(9) 0.01064 283.9 13.2
345(10) 0.00872 284.0 13.7
328(10) 0.01001 284.0 14.2
329(9) 0.01024 284.0 14.7
309(9) 0.01026 284.0 15.3
321(10) 0.00969 284.0 16.0
343(10) 0.00907 284.1 16.8
303(9) 0.01085 284.1 17.6
328(9) 0.01018 284.1 18.5
323(9) 0.01012 284.1 19.6
312(10) 0.00973 284.1 20.8
299(9) 0.01029 284.1 22.1
331(10) 0.00988 284.2 23.5
322(9) 0.01044 284.2 25.1
322(10) 0.00943 284.2 26.8
316(9) 0.01011 284.2 28.7
357(10) 0.00903 284.2 30.7
349(10) 0.00962 284.2 32.8
350(10) 0.00954 284.3 35.1
358(10) 0.00875 284.3 37.5
352(10) 0.00874 284.3 39.9
325(10) 0.00985 284.3 42.3
338(10) 0.01002 284.3 44.6
343(10) 0.00976 284.3 46.7
338(10) 0.00931 284.4 48.5
370(11) 0.00810 284.4 49.8
358(10) 0.00887 284.4 50.7
369(10) 0.00904 284.4 51.1
340(10) 0.01006 284.4 51.0
346(10) 0.00913 284.5 50.5
321(10) 0.00918 284.5 49.7
340(10) 0.00946 284.5 48.6
363(10) 0.00931 284.5 47.4
351(10) 0.00946 284.5 46.3
340(10) 0.00950 284.5 45.1
329(10) 0.00946 284.6 44.1
344(10) 0.00921 284.6 43.3
324(9) 0.01041 284.6 42.7
336(10) 0.00994 284.6 42.4
318(10) 0.01001 284.6 42.3
364(11) 0.00816 284.6 42.4
358(10) 0.00886 284.7 42.9
336(10) 0.01000 284.7 43.6
354(10) 0.00930 284.7 44.6
337(10) 0.00949 284.7 45.9
339(10) 0.00918 284.7 47.4
355(10) 0.00914 284.7 49.2
350(10) 0.00976 284.8 51.2
352(10) 0.00938 284.8 53.5
360(10) 0.00892 284.8 56.0
367(10) 0.00862 284.8 58.6
366(10) 0.00902 284.8 61.3
386(10) 0.00886 284.9 64.1
381(10) 0.00845 284.9 66.8
390(10) 0.00848 284.9 69.3
417(11) 0.00758 284.9 71.5
381(10) 0.00855 284.9 73.3
380(10) 0.00897 284.9 74.6
348(10) 0.00891 285.0 75.2
361(10) 0.00898 285.0 75.1
395(11) 0.00831 285.0 74.3
378(10) 0.00898 285.0 72.9
409(10) 0.00841 285.0 70.9
362(10) 0.00897 285.0 68.5
374(11) 0.00833 285.1 65.8
351(10) 0.00928 285.1 62.9
359(10) 0.00906 285.1 59.9
356(10) 0.00958 285.1 56.9
372(10) 0.00856 285.1 53.9
349(10) 0.00867 285.1 51.1
332(10) 0.00944 285.2 48.4
349(10) 0.00953 285.2 45.8
367(10) 0.00933 285.2 43.5
341(10) 0.00901 285.2 41.3
337(11) 0.00832 285.2 39.2
329(10) 0.00962 285.3 37.4
326(9) 0.01020 285.3 35.7
320(9) 0.01040 285.3 34.1
361(10) 0.00866 285.3 32.7
335(10) 0.00864 285.3 31.5
338(10) 0.00927 285.3 30.3
335(10) 0.01006 285.4 29.3
344(10) 0.00970 285.4 28.3
330(10) 0.00965 285.4 27.5
307(9) 0.01040 285.4 26.8
308(9) 0.01020 285.4 26.1
319(9) 0.01047 285.4 25.5
318(9) 0.01044 285.5 24.9
320(9) 0.01027 285.5 24.4
324(10) 0.00938 285.5 24.0
320(10) 0.00944 285.5 23.6
319(9) 0.01040 285.5 23.2
304(9) 0.01071 285.5 22.9
289(9) 0.01093 285.6 22.6
337(10) 0.00875 285.6 22.4
320(10) 0.00961 285.6 22.2
317(9) 0.01066 285.6 22.0
313(10) 0.00993 285.6 21.9
299(9) 0.01038 285.7 21.7
302(9) 0.01020 285.7 21.6
303(9) 0.01053 285.7 21.6
339(10) 0.01002 285.7 21.5
326(10) 0.00992 285.7 21.5
322(10) 0.00939 285.7 21.5
312(10) 0.01002 285.8 21.6
309(9) 0.01045 285.8 21.7
284(9) 0.01183 285.8 21.8
321(10) 0.00998 285.8 21.9
332(10) 0.00905 285.8 22.1
302(9) 0.01024 285.8 22.3
309(9) 0.01025 285.9 22.5
324(9) 0.01031 285.9 22.7
305(9) 0.01030 285.9 23.0
330(10) 0.00917 285.9 23.4
288(9) 0.01130 285.9 23.7
296(9) 0.01112 285.9 24.1
311(9) 0.01085 286.0 24.6
314(10) 0.00942 286.0 25.1
308(10) 0.00980 286.0 25.6
324(10) 0.01000 286.0 26.2
312(9) 0.01078 286.0 26.8
330(9) 0.01009 286.1 27.4
325(10) 0.00967 286.1 28.2
327(10) 0.00880 286.1 28.9
313(9) 0.01035 286.1 29.7
336(10) 0.00979 286.1 30.6
298(9) 0.01130 286.1 31.5
343(10) 0.00939 286.2 32.5
337(10) 0.00890 286.2 33.5
298(9) 0.01067 286.2 34.6
296(9) 0.01118 286.2 35.7
310(9) 0.01086 286.2 36.8
325(10) 0.00992 286.2 38.0
338(10) 0.00879 286.3 39.2
330(10) 0.00962 286.3 40.4
352(10) 0.00963 286.3 41.6
352(10) 0.00945 286.3 42.7
316(10) 0.01005 286.3 43.9
313(10) 0.00972 286.3 45.0
317(10) 0.00995 286.4 46.1
349(10) 0.00981 286.4 47.1
327(9) 0.01019 286.4 48.0
334(10) 0.00943 286.4 48.9
341(10) 0.00881 286.4 49.6
342(10) 0.00936 286.5 50.3
368(10) 0.00916 286.5 50.9
324(9) 0.01026 286.5 51.3
309(10) 0.00979 286.5 51.6
292(9) 0.01078 286.5 51.8
339(10) 0.00939 286.5 51.9
353(10) 0.00960 286.6 51.9
336(10) 0.00930 286.6 51.8
339(10) 0.00906 286.6 51.6
306(9) 0.01050 286.6 51.2
321(10) 0.01005 286.6 50.8
335(9) 0.01009 286.6 50.3
317(10) 0.01008 286.7 49.7
330(10) 0.00917 286.7 49.0
308(9) 0.01014 286.7 48.4
308(9) 0.01070 286.7 47.7
344(10) 0.00987 286.7 46.9
336(10) 0.00919 286.7 46.2
346(10) 0.00895 286.8 45.5
324(10) 0.00984 286.8 44.8
319(9) 0.01054 286.8 44.1
305(9) 0.01103 286.8 43.5
336(10) 0.00966 286.8 42.9
335(10) 0.00931 286.8 42.3
319(10) 0.00998 286.9 41.8
333(10) 0.00988 286.9 41.3
328(9) 0.01022 286.9 40.9
333(10) 0.00951 286.9 40.5
336(10) 0.00889 286.9 40.2
323(10) 0.00986 287.0 40.0
339(10) 0.01000 287.0 39.7
297(9) 0.01115 287.0 39.5
377(11) 0.00838 287.0 39.4
328(10) 0.00913 287.0 39.3
364(10) 0.00886 287.0 39.2
341(10) 0.00990 287.1 39.2
336(9) 0.01009 287.1 39.2
367(10) 0.00866 287.1 39.2
339(10) 0.00883 287.1 39.2
333(10) 0.00976 287.1 39.2
310(9) 0.01091 287.1 39.3
300(9) 0.01101 287.2 39.3
321(10) 0.00986 287.2 39.4
344(10) 0.00904 287.2 39.4
334(10) 0.00966 287.2 39.5
344(10) 0.00993 287.2 39.6
356(10) 0.00940 287.2 39.6
332(10) 0.00971 287.3 39.7
324(10) 0.00939 287.3 39.8
344(10) 0.00875 287.3 39.8
346(10) 0.00970 287.3 39.9
324(9) 0.01020 287.3 40.0
324(10) 0.00989 287.4 40.1
336(10) 0.00927 287.4 40.3
335(10) 0.00948 287.4 40.5
333(9) 0.01023 287.4 40.7
321(10) 0.00984 287.4 41.0
350(10) 0.00889 287.4 41.4
311(10) 0.00996 287.5 41.9
326(10) 0.00977 287.5 42.4
347(10) 0.00980 287.5 43.1
347(10) 0.00923 287.5 43.9
331(10) 0.00937 287.5 44.8
334(10) 0.00960 287.5 45.9
321(9) 0.01044 287.6 47.1
317(9) 0.01056 287.6 48.4
339(10) 0.00967 287.6 50.0
366(10) 0.00848 287.6 51.6
333(10) 0.00953 287.6 53.5
375(10) 0.00865 287.6 55.4
349(10) 0.00977 287.7 57.5
340(10) 0.00940 287.7 59.7
363(10) 0.00842 287.7 61.8
354(10) 0.00914 287.7 64.0
351(10) 0.00948 287.7 66.0
337(9) 0.01010 287.8 67.8
370(10) 0.00847 287.8 69.3
357(10) 0.00847 287.8 70.3
350(10) 0.00908 287.8 70.9
343(10) 0.00964 287.8 70.9
348(10) 0.00972 287.8 70.3
363(10) 0.00892 287.9 69.1
376(11) 0.00786 287.9 67.4
370(10) 0.00860 287.9 65.2
350(10) 0.00968 287.9 62.7
346(10) 0.00974 287.9 60.0
344(10) 0.00913 287.9 57.2
340(10) 0.00884 288.0 54.3
330(10) 0.00958 288.0 51.4
320(9) 0.01058 288.0 48.6
317(9) 0.01059 288.0 45.9
313(9) 0.01035 288.0 43.3
336(10) 0.00884 288.0 40.9
332(10) 0.00961 288.1 38.6
342(10) 0.00976 288.1 36.5
335(10) 0.00983 288.1 34.6
342(10) 0.00960 288.1 32.8
317(10) 0.00999 288.1 31.2
307(9) 0.01064 288.2 29.7
307(9) 0.01085 288.2 28.3
323(9) 0.01041 288.2 27.1
299(9) 0.01044 288.2 26.0
324(10) 0.00921 288.2 25.0
312(9) 0.01044 288.2 24.1
338(9) 0.01011 288.3 23.3
317(9) 0.01030 288.3 22.6
310(10) 0.00983 288.3 21.9
333(10) 0.00904 288.3 21.3
325(10) 0.00965 288.3 20.8
347(10) 0.00976 288.3 20.3
315(10) 0.01004 288.4 19.9
312(10) 0.00999 288.4 19.5
320(10) 0.00985 288.4 19.2
302(9) 0.01065 288.4 18.8
290(9) 0.01153 288.4 18.6
293(9) 0.01061 288.4 18.3
328(10) 0.00914 288.5 18.1
321(10) 0.00974 288.5 17.8
312(9) 0.01059 288.5 17.6
332(9) 0.01015 288.5 17.5
299(9) 0.01065 288.5 17.3
295(9) 0.01018 288.6 17.2
300(9) 0.01020 288.6 17.0
329(10) 0.00974 288.6 16.9
307(9) 0.01106 288.6 16.8
308(9) 0.01047 288.6 16.7
313(10) 0.00973 288.6 16.6
307(9) 0.01025 288.7 16.5
301(9) 0.01113 288.7 16.4
314(9) 0.01064 288.7 16.4
303(9) 0.01055 288.7 16.3
304(10) 0.01005 288.7 16.3
314(10) 0.00995 288.7 16.2
330(10) 0.00991 288.8 16.2
323(9) 0.01038 288.8 16.1
307(9) 0.01048 288.8 16.1
325(10) 0.00892 288.8 16.1
325(10) 0.00958 288.8 16.1
302(9) 0.01114 288.8 16.0
301(9) 0.01087 288.9 16.0
317(9) 0.01033 288.9 16.0
324(10) 0.00969 288.9 16.0
315(9) 0.01021 288.9 16.0
292(9) 0.01136 288.9 16.0
312(9) 0.01069 289.0 16.0
301(9) 0.01034 289.0 16.1
316(10) 0.00964 289.0 16.1
305(9) 0.01058 289.0 16.2
315(9) 0.01075 289.0 16.2
307(9) 0.01055 289.0 16.3
304(9) 0.01025 289.1 16.3
313(10) 0.00970 289.1 16.4
302(9) 0.01013 289.1 16.5
294(9) 0.01133 289.1 16.7
299(9) 0.01097 289.1 16.8
305(9) 0.01050 289.1 17.0
336(10) 0.00922 289.2 17.1
330(10) 0.00989 289.2 17.3
330(9) 0.01027 289.2 17.5
334(10) 0.00970 289.2 17.8
322(10) 0.00998 289.2 18.0
323(10) 0.00979 289.2 18.3
319(10) 0.00995 289.3 18.6
308(9) 0.01087 289.3 18.9
321(10) 0.00999 289.3 19.2
331(10) 0.00925 289.3 19.5
311(9) 0.01033 289.3 19.8
335(10) 0.00978 289.4 20.1
311(9) 0.01076 289.4 20.3
336(10) 0.00950 289.4 20.5
324(10) 0.00964 289.4 20.7
292(9) 0.01109 289.4 20.9
336(10) 0.00991 289.4 20.9
346(10) 0.00968 289.5 20.9
331(10) 0.00957 289.5 20.8
341(10) 0.00875 289.5 20.7
325(10) 0.01003 289.5 20.4
312(9) 0.01060 289.5 20.1
329(9) 0.01026 289.5 19.7
317(10) 0.00991 289.6 19.3
297(9) 0.01040 289.6 18.8
296(9) 0.01079 289.6 18.3
289(9) 0.01145 289.6 17.7
291(9) 0.01153 289.6 17.2
299(9) 0.01069 289.6 16.6
327(10) 0.00898 289.7 16.0
307(9) 0.01027 289.7 15.5
320(9) 0.01052 289.7 15.0
306(9) 0.01096 289.7 14.4
302(9) 0.01058 289.7 13.9
317(10) 0.00953 289.7 13.5
309(9) 0.01051 289.8 13.0
307(9) 0.01097 289.8 12.6
311(9) 0.01080 289.8 12.2
303(9) 0.01038 289.8 11.8
318(10) 0.00948 289.8 11.4
282(9) 0.01157 289.9 11.1
321(9) 0.01063 289.9 10.8
316(9) 0.01051 289.9 10.5
345(10) 0.00917 289.9 10.2
349(10) 0.00893 289.9 9.9
327(10) 0.00959 289.9 9.7
299(9) 0.01114 290.0 9.5
305(9) 0.01091 290.0 9.2
311(10) 0.01006 290.0 9.0
311(10) 0.01002 290.0 8.9
316(10) 0.01001 290.0 8.7
334(9) 0.01022 290.0 8.5
325(10) 0.01005 290.1 8.4
314(9) 0.01016 290.1 8.2
303(9) 0.01025 290.1 8.1
294(9) 0.01101 290.1 8.0
296(9) 0.01130 290.1 7.9
342(10) 0.00934 290.1 7.7
308(9) 0.01057 290.2 7.6
290(9) 0.01078 290.2 7.6
306(9) 0.01053 290.2 7.5
315(9) 0.01070 290.2 7.4
287(9) 0.01065 290.2 7.3
295(9) 0.01026 290.3 7.3
307(10) 0.01003 290.3 7.2
300(9) 0.01086 290.3 7.1
302(9) 0.01113 290.3 7.1
296(9) 0.01087 290.3 7.0
298(9) 0.01014 290.3 7.0
331(10) 0.00958 290.4 7.0
310(9) 0.01070 290.4 6.9
325(9) 0.01040 290.4 6.9
303(9) 0.01016 290.4 6.9
299(10) 0.00969 290.4 6.9
308(9) 0.01013 290.4 6.9
290(9) 0.01157 290.5 6.8
323(9) 0.01026 290.5 6.8
306(9) 0.01038 290.5 6.8
312(10) 0.00946 290.5 6.8
319(10) 0.00962 290.5 6.8
325(9) 0.01016 290.5 6.8
313(9) 0.01068 290.6 6.8
304(9) 0.01056 290.6 6.7
301(9) 0.01014 290.6 6.7
315(9) 0.01047 290.6 6.7
271(8) 0.01242 290.6 6.7
302(9) 0.01097 290.7 6.7
316(10) 0.01001 290.7 6.6
298(10) 0.01004 290.7 6.6
318(9) 0.01009 290.7 6.6
294(9) 0.01141 290.7 6.6
291(9) 0.01123 290.7 6.6
302(9) 0.01017 290.8 6.6
324(10) 0.00925 290.8 6.6
303(9) 0.01046 290.8 6.6
303(9) 0.01110 290.8 6.6
310(9) 0.01047 290.8 6.6
295(9) 0.01097 290.8 6.6
310(10) 0.00989 290.9 6.7
292(9) 0.01105 290.9 6.7
317(9) 0.01069 290.9 6.7
323(10) 0.01000 290.9 6.7
312(10) 0.00993 290.9 6.8
302(10) 0.01001 290.9 6.8
302(9) 0.01035 291.0 6.9
331(9) 0.01021 291.0 6.9
323(10) 0.00979 291.0 7.0
312(10) 0.01007 291.0 7.0
320(10) 0.00984 291.0 7.1
324(10) 0.01004 291.1 7.2
301(9) 0.01115 291.1 7.2
285(9) 0.01090 291.1 7.3
300(9) 0.01044 291.1 7.4
312(10) 0.00997 291.1 7.4
324(10) 0.01001 291.1 7.5
314(9) 0.01082 291.2 7.6
281(9) 0.01132 291.2 7.7
306(10) 0.00969 291.2 7.7
317(10) 0.01005 291.2 7.8
289(9) 0.01145 291.2 7.9
301(9) 0.01097 291.2 7.9
321(10) 0.00988 291.3 8.0
307(10) 0.00970 291.3 8.1
299(9) 0.01042 291.3 8.1
301(9) 0.01109 291.3 8.2
286(9) 0.01159 291.3 8.2
303(9) 0.01054 291.3 8.3
318(10) 0.00937 291.4 8.4
324(10) 0.00966 291.4 8.4
275(9) 0.01208 291.4 8.5
317(9) 0.01045 291.4 8.5
295(9) 0.01065 291.4 8.6
333(10) 0.00875 291.5 8.6
339(10) 0.00929 291.5 8.6
326(9) 0.01033 291.5 8.7
305(9) 0.01092 291.5 8.7
314(10) 0.00998 291.5 8.7
302(10) 0.00968 291.5 8.7
301(9) 0.01037 291.6 8.7
319(9) 0.01054 291.6 8.7
311(9) 0.01039 291.6 8.7
320(10) 0.00993 291.6 8.7
303(9) 0.01037 291.6 8.7
307(9) 0.01071 291.6 8.7
318(9) 0.01053 291.7 8.7
290(9) 0.01110 291.7 8.6
302(9) 0.01041 291.7 8.6
298(9) 0.01018 291.7 8.5
304(9) 0.01042 291.7 8.5
310(9) 0.01083 291.7 8.4
306(9) 0.01058 291.8 8.4
308(10) 0.00988 291.8 8.3
320(10) 0.00965 291.8 8.2
304(9) 0.01068 291.8 8.2
306(9) 0.01089 291.8 8.1
320(9) 0.01033 291.9 8.0
312(9) 0.01009 291.9 7.9
303(9) 0.01014 291.9 7.9
293(9) 0.01086 291.9 7.8
332(9) 0.01016 291.9 7.7
285(9) 0.01125 291.9 7.6
312(10) 0.00960 292.0 7.6
282(9) 0.01116 292.0 7.5
328(10) 0.00988 292.0 7.4
334(10) 0.01002 292.0 7.3
315(10) 0.00999 292.0 7.2
296(9) 0.01041 292.0 7.2
306(10) 0.01000 292.1 7.1
299(9) 0.01109 292.1 7.0
277(9) 0.01185 292.1 6.9
290(9) 0.01078 292.1 6.9
303(10) 0.00973 292.1 6.8
320(10) 0.00977 292.1 6.7
305(9) 0.01084 292.2 6.7
319(9) 0.01055 292.2 6.6
332(10) 0.00944 292.2 6.5
297(9) 0.01011 292.2 6.5
295(9) 0.01052 292.2 6.4
278(9) 0.01170 292.3 6.4
276(9) 0.01198 292.3 6.3
304(9) 0.01070 292.3 6.2
329(10) 0.00899 292.3 6.2
280(9) 0.01129 292.3 6.1
274(9) 0.01210 292.3 6.1
300(9) 0.01118 292.4 6.0
297(9) 0.01077 292.4 6.0
303(10) 0.01003 292.4 5.9
337(10) 0.00937 292.4 5.9
285(9) 0.01165 292.4 5.9
298(9) 0.01129 292.4 5.8
297(9) 0.01094 292.5 5.8
318(10) 0.00948 292.5 5.8
304(10) 0.01000 292.5 5.7
308(9) 0.01097 292.5 5.7
293(9) 0.01126 292.5 5.7
289(9) 0.01056 292.5 5.7
285(9) 0.01053 292.6 5.6
312(10) 0.00988 292.6 5.6
281(9) 0.01186 292.6 5.6
325(10) 0.00997 292.6 5.6
340(10) 0.00908 292.6 5.6
296(9) 0.01069 292.6 5.6
297(9) 0.01068 292.7 5.6
294(9) 0.01138 292.7 5.6
313(9) 0.01036 292.7 5.6
313(10) 0.00967 292.7 5.6
284(9) 0.01084 292.7 5.6
319(9) 0.01022 292.7 5.6
318(9) 0.01052 292.7 5.6
290(9) 0.01113 292.7 5.6
291(9) 0.01028 292.7 5.6
296(9) 0.01021 292.7 5.7
296(9) 0.01093 292.7 5.7
297(9) 0.01133 292.8 5.7
321(10) 0.01007 292.8 5.8
304(9) 0.01017 292.8 5.8
307(9) 0.01039 292.8 5.8
282(9) 0.01188 292.8 5.9
292(9) 0.01137 292.8 5.9
306(9) 0.01035 292.8 6.0
305(10) 0.00954 292.8 6.1
310(10) 0.00996 292.8 6.1
312(9) 0.01062 292.8 6.2
311(9) 0.01077 292.8 6.3
290(9) 0.01126 292.8 6.4
319(10) 0.00933 292.8 6.5
299(9) 0.01070 292.8 6.6
312(9) 0.01079 292.9 6.7
292(9) 0.01144 292.9 6.8
278(9) 0.01145 292.9 6.9
302(10) 0.00967 292.9 7.0
295(9) 0.01069 292.9 7.2
299(9) 0.01116 292.9 7.3
308(9) 0.01083 292.9 7.5
341(10) 0.00892 292.9 7.6
292(9) 0.01077 292.9 7.8
307(9) 0.01014 292.9 8.0
304(9) 0.01106 292.9 8.2
337(10) 0.00989 292.9 8.5
315(9) 0.01028 292.9 8.7
313(10) 0.00989 293.0 9.0
316(9) 0.01029 293.0 9.3
279(9) 0.01205 293.0 9.5
309(9) 0.01064 293.0 9.9
302(9) 0.01043 293.0 10.2
306(9) 0.01034 293.0 10.5
302(9) 0.01023 293.0 10.9
306(9) 0.01099 293.0 11.3
292(9) 0.01140 293.0 11.7
300(9) 0.01075 293.0 12.1
312(9) 0.01026 293.0 12.6
323(9) 0.01017 293.0 13.1
306(9) 0.01093 293.0 13.5
320(9) 0.01008 293.1 14.0
308(9) 0.01030 293.1 14.5
301(9) 0.01050 293.1 15.0
291(9) 0.01075 293.1 15.4
315(9) 0.01062 293.1 15.9
300(9) 0.01072 293.1 16.3
292(9) 0.01066 293.1 16.7
336(10) 0.00889 293.1 17.1
293(9) 0.01110 293.1 17.4
320(9) 0.01047 293.1 17.6
319(10) 0.00992 293.1 17.7
289(9) 0.01088 293.1 17.8
308(9) 0.01015 293.1 17.9
317(9) 0.01053 293.2 17.8
313(9) 0.01068 293.2 17.7
308(9) 0.01036 293.2 17.5
308(10) 0.00948 293.2 17.3
289(9) 0.01071 293.2 17.0
278(9) 0.01177 293.2 16.7
297(9) 0.01126 293.2 16.4
306(9) 0.01032 293.2 16.1
309(10) 0.00965 293.2 15.7
294(9) 0.01065 293.2 15.4
309(9) 0.01084 293.2 15.1
310(9) 0.01081 293.2 14.7
297(9) 0.01026 293.2 14.4
296(10) 0.00968 293.2 14.2
323(10) 0.00992 293.3 13.9
300(9) 0.01135 293.3 13.7
301(9) 0.01101 293.3 13.4
307(10) 0.00978 293.3 13.2
284(9) 0.01065 293.3 13.1
305(9) 0.01051 293.3 12.9
330(9) 0.01030 293.3 12.8
293(9) 0.01131 293.3 12.7
287(9) 0.01071 293.3 12.6
288(9) 0.01042 293.3 12.5
300(9) 0.01061 293.3 12.5
288(9) 0.01158 293.3 12.5
304(9) 0.01073 293.3 12.4
306(10) 0.00995 293.4 12.5
304(10) 0.00968 293.4 12.5
301(9) 0.01028 293.4 12.5
299(9) 0.01091 293.4 12.5
303(9) 0.01107 293.4 12.6
315(10) 0.01005 293.4 12.7
329(10) 0.00935 293.4 12.8
313(9) 0.01025 293.4 12.8
314(9) 0.01070 293.4 13.0
318(9) 0.01041 293.4 13.1
322(10) 0.00967 293.4 13.2
318(10) 0.00964 293.4 13.3
317(10) 0.00984 293.4 13.5
308(9) 0.01104 293.5 13.7
309(9) 0.01013 293.5 13.9
306(10) 0.00983 293.5 14.1
299(9) 0.01025 293.5 14.3
325(10) 0.00979 293.5 14.6
294(9) 0.01131 293.5 14.9
322(10) 0.00998 293.5 15.2
314(9) 0.01024 293.5 15.5
336(10) 0.00922 293.5 15.9
316(9) 0.01025 293.5 16.3
321(9) 0.01049 293.5 16.8
313(9) 0.01032 293.5 17.3
327(10) 0.00934 293.5 17.9
313(9) 0.01029 293.5 18.5
322(9) 0.01016 293.6 19.2
319(9) 0.01046 293.6 19.9
322(10) 0.00956 293.6 20.7
315(10) 0.00985 293.6 21.5
328(10) 0.00956 293.6 22.4
328(10) 0.00995 293.6 23.4
317(9) 0.01055 293.6 24.3
319(10) 0.00978 293.6 25.4
358(11) 0.00813 293.6 26.5
350(10) 0.00919 293.6 27.6
333(10) 0.00996 293.6 28.7
341(10) 0.00971 293.6 29.8
330(10) 0.00954 293.6 30.8
324(10) 0.00887 293.7 31.8
325(10) 0.00959 293.7 32.6
322(9) 0.01043 293.7 33.3
334(9) 0.01021 293.7 33.9
365(10) 0.00872 293.7 34.3
315(10) 0.00969 293.7 34.4
306(9) 0.01009 293.7 34.4
334(9) 0.01021 293.7 34.1
321(9) 0.01025 293.7 33.6
299(9) 0.01093 293.7 32.9
345(10) 0.00874 293.7 32.1
345(10) 0.00921 293.7 31.1
310(9) 0.01095 293.7 30.0
336(10) 0.00976 293.8 28.9
334(10) 0.00959 293.8 27.7
323(10) 0.00945 293.8 26.5
346(10) 0.00888 293.8 25.3
329(9) 0.01028 293.8 24.1
341(10) 0.00966 293.8 23.0
324(10) 0.00986 293.8 21.9
310(9) 0.01029 293.8 20.9
295(9) 0.01095 293.8 19.9
315(9) 0.01065 293.8 19.0
300(9) 0.01061 293.8 18.1
302(9) 0.01025 293.8 17.3
317(9) 0.01011 293.8 16.6
292(9) 0.01144 293.9 15.9
327(9) 0.01035 293.9 15.2
305(10) 0.01007 293.9 14.7
315(10) 0.00976 293.9 14.1
300(9) 0.01046 293.9 13.7
333(10) 0.00967 293.9 13.2
301(9) 0.01110 293.9 12.8
301(9) 0.01047 293.9 12.5
299(9) 0.01019 293.9 12.1
301(9) 0.01055 293.9 11.8
301(9) 0.01097 293.9 11.6
344(10) 0.00973 293.9 11.3
297(9) 0.01047 293.9 11.1
299(10) 0.00977 293.9 10.9
317(10) 0.00974 294.0 10.7
277(9) 0.01179 294.0 10.5
311(9) 0.01058 294.0 10.4
292(9) 0.01105 294.0 10.2
303(10) 0.00945 294.0 10.1
313(10) 0.00996 294.0 9.9
306(9) 0.01082 294.0 9.8
306(9) 0.01068 294.0 9.6
303(9) 0.01059 294.0 9.5
330(10) 0.00875 294.0 9.3
303(9) 0.01063 294.0 9.2
323(9) 0.01024 294.0 9.0
297(9) 0.01115 294.0 8.9
297(9) 0.01079 294.1 8.7
303(10) 0.01001 294.1 8.6
325(10) 0.00958 294.1 8.5
312(9) 0.01084 294.1 8.3
315(9) 0.01044 294.1 8.2
296(9) 0.01066 294.1 8.1
291(9) 0.01027 294.1 7.9
284(9) 0.01066 294.1 7.8
298(9) 0.01133 294.1 7.7
291(9) 0.01114 294.1 7.6
295(9) 0.01054 294.1 7.5
300(9) 0.01010 294.1 7.4
298(9) 0.01062 294.1 7.3
302(9) 0.01102 294.2 7.2
286(9) 0.01105 294.2 7.2
287(9) 0.01076 294.2 7.1
300(9) 0.01044 294.2 7.0
320(10) 0.01007 294.2 7.0
311(9) 0.01068 294.2 6.9
304(9) 0.01065 294.2 6.9
296(9) 0.01097 294.2 6.8
315(10) 0.00993 294.2 6.8
295(9) 0.01103 294.2 6.8
297(9) 0.01111 294.2 6.7
307(9) 0.01037 294.2 6.7
300(9) 0.01056 294.2 6.7
305(9) 0.01026 294.2 6.7
293(9) 0.01107 294.3 6.7
308(9) 0.01088 294.3 6.7
325(10) 0.00974 294.3 6.7
306(9) 0.01024 294.3 6.7
301(9) 0.01057 294.3 6.8
317(9) 0.01030 294.3 6.8
312(9) 0.01078 294.3 6.8
316(9) 0.01028 294.3 6.9
310(10) 0.00983 294.3 6.9
301(9) 0.01033 294.3 6.9
312(9) 0.01070 294.3 7.0
303(9) 0.01086 294.3 7.1
312(9) 0.01023 294.3 7.1
333(10) 0.00900 294.4 7.2
303(9) 0.01024 294.4 7.3
292(9) 0.01133 294.4 7.4
280(9) 0.01205 294.4 7.5
293(9) 0.01086 294.4 7.6
291(10) 0.00993 294.4 7.7
317(10) 0.00968 294.4 7.8
303(9) 0.01110 294.4 8.0
297(9) 0.01125 294.4 8.1
294(9) 0.01099 294.4 8.3
298(10) 0.01004 294.4 8.5
298(9) 0.01084 294.4 8.7
304(9) 0.01085 294.4 8.9
300(9) 0.01113 294.5 9.2
307(9) 0.01083 294.5 9.4
317(10) 0.00997 294.5 9.7
290(9) 0.01112 294.5 10.0
304(9) 0.01087 294.5 10.4
282(9) 0.01164 294.5 10.8
302(9) 0.01013 294.5 11.2
281(9) 0.01075 294.5 11.6
303(10) 0.00983 294.5 12.1
341(10) 0.00985 294.5 12.6
312(9) 0.01066 294.5 13.2
292(9) 0.01097 294.5 13.8
336(10) 0.00934 294.5 14.4
328(10) 0.00974 294.6 15.1
314(9) 0.01068 294.6 15.8
319(10) 0.01006 294.6 16.5
313(10) 0.00970 294.6 17.2
326(10) 0.00953 294.6 18.0
301(9) 0.01089 294.6 18.7
329(9) 0.01023 294.6 19.4
332(10) 0.00973 294.6 20.1
308(10) 0.00979 294.6 20.7
326(10) 0.00938 294.6 21.2
325(10) 0.01004 294.6 21.6
319(9) 0.01062 294.6 21.9
308(9) 0.01029 294.6 22.1
316(10) 0.00924 294.6 22.3
318(10) 0.00942 294.7 22.3
319(9) 0.01033 294.7 22.3
321(9) 0.01050 294.7 22.3
324(10) 0.00943 294.7 22.2
339(10) 0.00875 294.7 22.2
329(10) 0.00956 294.7 22.1
355(10) 0.00951 294.7 22.1
326(9) 0.01033 294.7 22.1
308(10) 0.00995 294.7 22.1
312(10) 0.00953 294.7 22.2
308(9) 0.01033 294.7 22.4
307(9) 0.01088 294.7 22.5
306(9) 0.01077 294.7 22.7
324(10) 0.00992 294.8 23.0
319(10) 0.00954 294.8 23.2
337(10) 0.00931 294.8 23.5
320(9) 0.01044 294.8 23.8
354(10) 0.00959 294.8 24.1
329(10) 0.00961 294.8 24.5
298(9) 0.01038 294.8 24.8
335(10) 0.00967 294.8 25.1
327(9) 0.01029 294.8 25.4
319(9) 0.01031 294.8 25.6
327(10) 0.00948 294.8 25.9
324(10) 0.00905 294.8 26.1
336(10) 0.00904 294.8 26.2
312(9) 0.01068 294.9 26.3
354(10) 0.00958 294.9 26.4
334(10) 0.00950 294.9 26.4
338(10) 0.00881 294.9 26.4
314(10) 0.00990 294.9 26.3
346(10) 0.00974 294.9 26.2
335(10) 0.00964 294.9 26.0
322(10) 0.00957 294.9 25.9
307(9) 0.01029 294.9 25.7
340(10) 0.00960 294.9 25.5
332(9) 0.01017 294.9 25.2
326(9) 0.01011 294.9 25.0
323(10) 0.00969 294.9 24.8
292(9) 0.01091 294.9 24.5
339(10) 0.00897 295.0 24.3
300(9) 0.01116 295.0 24.0
328(10) 0.00996 295.0 23.8
326(10) 0.00957 295.0 23.6
284(9) 0.01072 295.0 23.4
275(9) 0.01182 295.0 23.2
313(9) 0.01074 295.0 23.1
346(10) 0.00895 295.0 22.9
307(10) 0.00997 295.0 22.8
318(10) 0.01002 295.0 22.8
336(10) 0.00985 295.0 22.7
309(9) 0.01093 295.0 22.7
321(10) 0.00936 295.0 22.7
332(10) 0.00928 295.1 22.8
320(10) 0.01007 295.1 22.9
370(10) 0.00897 295.1 23.0
330(9) 0.01023 295.1 23.2
311(9) 0.01040 295.1 23.4
311(10) 0.00987 295.1 23.6
342(10) 0.00931 295.1 23.9
330(10) 0.01002 295.1 24.3
316(9) 0.01068 295.1 24.7
317(9) 0.01019 295.1 25.1
315(10) 0.00954 295.1 25.5
323(10) 0.00985 295.1 26.0
326(9) 0.01041 295.1 26.4
312(9) 0.01074 295.2 26.9
313(10) 0.01002 295.2 27.3
339(10) 0.00863 295.2 27.7
348(10) 0.00875 295.2 28.0
334(10) 0.01005 295.2 28.3
336(9) 0.01013 295.2 28.4
322(10) 0.01004 295.2 28.4
339(10) 0.00868 295.2 28.3
324(10) 0.01001 295.2 28.1
325(9) 0.01041 295.2 27.7
313(9) 0.01042 295.2 27.1
313(9) 0.01008 295.2 26.5
329(10) 0.00910 295.2 25.8
306(9) 0.01011 295.3 25.0
313(9) 0.01079 295.3 24.2
317(9) 0.01042 295.3 23.4
309(10) 0.00991 295.3 22.5
309(10) 0.00969 295.3 21.6
309(10) 0.00993 295.3 20.8
312(9) 0.01078 295.3 20.0
302(9) 0.01075 295.3 19.2
320(10) 0.00969 295.3 18.5
319(10) 0.00970 295.3 17.8
309(9) 0.01009 295.3 17.1
286(9) 0.01164 295.3 16.5
297(9) 0.01089 295.3 15.9
313(10) 0.00995 295.3 15.4
295(9) 0.01096 295.4 14.9
312(9) 0.01041 295.4 14.5
332(9) 0.01014 295.4 14.1
330(10) 0.00953 295.4 13.7
324(10) 0.00961 295.4 13.4
308(9) 0.01043 295.4 13.1
330(10) 0.00984 295.4 12.9
309(9) 0.01086 295.4 12.7
297(9) 0.01023 295.4 12.5
297(10) 0.01006 295.4 12.4
325(10) 0.00980 295.4 12.3
307(9) 0.01081 295.4 12.2
318(9) 0.01063 295.4 12.1
301(9) 0.01028 295.5 12.1
312(10) 0.00948 295.5 12.2
346(10) 0.00876 295.5 12.2
336(10) 0.00997 295.5 12.3
308(9) 0.01071 295.5 12.5
310(10) 0.00985 295.5 12.6
292(10) 0.01006 295.5 12.9
306(9) 0.01069 295.5 13.1
331(9) 0.01017 295.5 13.4
299(9) 0.01113 295.5 13.8
339(10) 0.00925 295.5 14.2
313(10) 0.00991 295.5 14.6
311(9) 0.01026 295.5 15.1
323(9) 0.01034 295.6 15.7
301(9) 0.01077 295.6 16.3
310(9) 0.01009 295.6 16.9
315(10) 0.00957 295.6 17.6
325(10) 0.00986 295.6 18.4
340(10) 0.01002 295.6 19.2
312(9) 0.01064 295.6 20.1
296(9) 0.01091 295.6 21.0
312(10) 0.00963 295.6 21.9
292(9) 0.01046 295.6 22.8
297(9) 0.01127 295.6 23.8
329(10) 0.01005 295.6 24.7
332(10) 0.00949 295.6 25.5
317(10) 0.00974 295.6 26.3
324(10) 0.00969 295.7 26.9
321(9) 0.01057 295.7 27.4
320(9) 0.01031 295.7 27.8
348(10) 0.00944 295.7 27.9
361(10) 0.00872 295.7 27.9
309(9) 0.01008 295.7 27.7
316(9) 0.01062 295.7 27.3
339(10) 0.00966 295.7 26.7
343(10) 0.00885 295.7 26.0
320(10) 0.00972 295.7 25.2
305(9) 0.01062 295.7 24.4
302(9) 0.01106 295.7 23.4
327(10) 0.00976 295.7 22.5
306(10) 0.00984 295.8 21.5
316(10) 0.00954 295.8 20.6
309(9) 0.01064 295.8 19.7
303(9) 0.01105 295.8 18.9
309(10) 0.01002 295.8 18.1
300(10) 0.00997 295.8 17.3
305(9) 0.01050 295.8 16.6
319(9) 0.01046 295.8 16.0
302(9) 0.01102 295.8 15.5
306(9) 0.01049 295.8 15.0
300(10) 0.00998 295.8 14.6
319(10) 0.00979 295.8 14.2
310(9) 0.01087 295.8 13.9
309(9) 0.01090 295.9 13.7
310(9) 0.01047 295.9 13.6
326(10) 0.00912 295.9 13.6
309(10) 0.01002 295.9 13.6
292(9) 0.01138 295.9 13.7
312(9) 0.01061 295.9 13.9
302(10) 0.00983 295.9 14.1
310(10) 0.00969 295.9 14.4
317(10) 0.00999 295.9 14.8
318(9) 0.01071 295.9 15.2
329(9) 0.01025 295.9 15.6
320(9) 0.01020 295.9 16.1
305(10) 0.00996 295.9 16.6
320(10) 0.00950 296.0 17.0
305(9) 0.01092 296.0 17.3
318(9) 0.01045 296.0 17.5
326(10) 0.00983 296.0 17.6
339(10) 0.00887 296.0 17.6
315(10) 0.01007 296.0 17.4
307(9) 0.01091 296.0 17.2
323(9) 0.01017 296.0 16.8
276(9) 0.01195 296.0 16.3
297(10) 0.00985 296.0 15.9
310(10) 0.00975 296.0 15.4
335(10) 0.00998 296.0 14.9
307(9) 0.01073 296.0 14.4
315(10) 0.00968 296.0 14.0
299(9) 0.01041 296.1 13.6
296(9) 0.01075 296.1 13.3
298(9) 0.01115 296.1 13.1
309(9) 0.01063 296.1 12.8
313(9) 0.01016 296.1 12.7
313(9) 0.01020 296.1 12.6
335(10) 0.00963 296.1 12.5
300(9) 0.01115 296.1 12.4
309(9) 0.01058 296.1 12.5
323(10) 0.00964 296.1 12.5
310(9) 0.01036 296.1 12.6
320(9) 0.01034 296.1 12.7
289(9) 0.01155 296.1 12.8
298(9) 0.01076 296.2 13.0
319(10) 0.00957 296.2 13.2
326(10) 0.00954 296.2 13.4
304(9) 0.01110 296.2 13.7
312(9) 0.01073 296.2 13.9
332(10) 0.00960 296.2 14.2
329(10) 0.00937 296.2 14.5
319(10) 0.01003 296.2 14.9
345(10) 0.00963 296.2 15.2
319(9) 0.01070 296.2 15.6
303(9) 0.01041 296.2 16.1
304(10) 0.00997 296.2 16.5
310(10) 0.00992 296.2 17.0
334(10) 0.01001 296.3 17.6
324(9) 0.01027 296.3 18.2
284(9) 0.01149 296.3 18.9
312(10) 0.00956 296.3 19.6
308(10) 0.00998 296.3 20.4
320(9) 0.01030 296.3 21.2
326(9) 0.01023 296.3 22.2
320(10) 0.00979 296.3 23.3
346(10) 0.00856 296.3 24.4
319(9) 0.01025 296.3 25.7
314(9) 0.01070 296.3 27.2
325(9) 0.01009 296.3 28.8
324(10) 0.00985 296.3 30.5
340(10) 0.00882 296.4 32.5
342(10) 0.00914 296.4 34.6
324(9) 0.01040 296.4 37.0
361(10) 0.00932 296.4 39.6
329(10) 0.00998 296.4 42.5
356(10) 0.00875 296.4 45.5
357(10) 0.00926 296.4 48.9
367(10) 0.00920 296.4 52.6
369(10) 0.00920 296.4 56.5
394(11) 0.00802 296.4 60.7
365(10) 0.00847 296.4 65.1
379(10) 0.00852 296.4 69.8
387(10) 0.00891 296.4 74.7
370(10) 0.00885 296.4 79.7
423(11) 0.00732 296.5 84.8
397(11) 0.00806 296.5 89.8
409(11) 0.00784 296.5 94.8
437(11) 0.00790 296.5 99.4
475(12) 0.00699 296.5 103.6
461(12) 0.00704 296.5 107.1
442(11) 0.00730 296.5 109.9
437(11) 0.00765 296.5 111.7
434(11) 0.00804 296.5 112.6
418(11) 0.00766 296.5 112.3
403(11) 0.00785 296.5 111.0
399(11) 0.00827 296.5 108.8
419(11) 0.00797 296.5 105.6
397(10) 0.00853 296.6 101.8
423(11) 0.00759 296.6 97.5
408(11) 0.00747 296.6 92.8
408(11) 0.00778 296.6 87.8
376(10) 0.00896 296.6 82.8
381(10) 0.00888 296.6 77.8
344(10) 0.00940 296.6 72.9
356(10) 0.00859 296.6 68.2
344(10) 0.00963 296.6 63.7
357(10) 0.00943 296.6 59.3
354(10) 0.00969 296.6 55.3
328(10) 0.00950 296.6 51.5
329(10) 0.00880 296.6 47.9
342(10) 0.00891 296.7 44.6
344(10) 0.00992 296.7 41.6
351(10) 0.00972 296.7 38.8
364(10) 0.00874 296.7 36.2
335(10) 0.00909 296.7 33.8
342(10) 0.00950 296.7 31.7
327(9) 0.01028 296.7 29.7
313(9) 0.01058 296.7 28.0
306(9) 0.01047 296.7 26.3
293(9) 0.01053 296.7 24.9
315(9) 0.01023 296.7 23.6
308(9) 0.01079 296.7 22.4
320(9) 0.01056 296.7 21.3
301(9) 0.01040 296.7 20.4
306(10) 0.00977 296.8 19.5
326(10) 0.00924 296.8 18.7
321(9) 0.01045 296.8 18.0
313(9) 0.01040 296.8 17.4
295(9) 0.01092 296.8 16.8
315(10) 0.00999 296.8 16.3
296(9) 0.01055 296.8 15.9
318(9) 0.01046 296.8 15.4
317(9) 0.01050 296.8 15.1
311(9) 0.01030 296.8 14.7
327(10) 0.00931 296.8 14.4
288(9) 0.01113 296.8 14.2
294(9) 0.01131 296.8 13.9
298(9) 0.01085 296.9 13.7
320(10) 0.00953 296.9 13.5
343(10) 0.00883 296.9 13.3
320(9) 0.01008 296.9 13.2
309(9) 0.01100 296.9 13.0
289(9) 0.01106 296.9 12.9
304(9) 0.01046 296.9 12.8
316(10) 0.00977 296.9 12.6
309(9) 0.01043 296.9 12.5
289(9) 0.01139 296.9 12.4
274(9) 0.01112 296.9 12.3
293(9) 0.01017 296.9 12.1
329(10) 0.00972 296.9 12.0
313(9) 0.01069 297.0 11.8
319(9) 0.01051 297.0 11.7
315(10) 0.00971 297.0 11.5
296(9) 0.01038 297.0 11.4
304(9) 0.01063 297.0 11.2
292(9) 0.01142 297.0 11.0
303(9) 0.01097 297.0 10.8
305(9) 0.01035 297.0 10.7
301(10) 0.00984 297.0 10.5
299(9) 0.01058 297.0 10.3
308(9) 0.01070 297.0 10.2
327(9) 0.01030 297.0 10.0
310(10) 0.00975 297.0 9.9
289(9) 0.01015 297.1 9.7
310(9) 0.01053 297.1 9.6
329(9) 0.01030 297.1 9.5
328(9) 0.01025 297.1 9.4
311(9) 0.01039 297.1 9.3
312(10) 0.00994 297.1 9.2
290(9) 0.01116 297.1 9.1
292(9) 0.01133 297.1 9.1
288(9) 0.01158 297.1 9.0
314(9) 0.01015 297.1 8.9
314(10) 0.00985 297.1 8.9
315(10) 0.00995 297.1 8.9
311(9) 0.01075 297.1 8.8
330(10) 0.00996 297.1 8.8
317(9) 0.01022 297.2 8.8
290(9) 0.01072 297.2 8.8
288(9) 0.01074 297.2 8.8
333(9) 0.01017 297.2 8.8
300(9) 0.01063 297.2 8.9
290(9) 0.01066 297.2 8.9
311(10) 0.01007 297.2 8.9
294(9) 0.01061 297.2 9.0
316(9) 0.01057 297.2 9.0
291(9) 0.01118 297.2 9.1
311(10) 0.01002 297.2 9.2
324(10) 0.00948 297.2 9.2
312(9) 0.01034 297.2 9.3
266(8) 0.01244 297.3 9.4
310(9) 0.01028 297.3 9.5
308(9) 0.01011 297.3 9.6
320(10) 0.00983 297.3 9.7
312(9) 0.01029 297.3 9.8
308(9) 0.01084 297.3 9.9
292(9) 0.01087 297.3 10.1
328(10) 0.00921 297.3 10.2
319(10) 0.00985 297.3 10.3
302(9) 0.01103 297.3 10.4
284(9) 0.01179 297.3 10.6
295(9) 0.01074 297.3 10.7
314(10) 0.00941 297.3 10.8
309(9) 0.01017 297.3 11.0
301(9) 0.01103 297.3 11.1
296(9) 0.01138 297.3 11.2
307(10) 0.01007 297.3 11.3
306(10) 0.00992 297.3 11.4
311(9) 0.01054 297.3 11.5
297(9) 0.01132 297.3 11.6
291(9) 0.01155 297.3 11.7
319(10) 0.00952 297.3 11.7
332(10) 0.00881 297.3 11.8
316(10) 0.00995 297.3 11.8
305(9) 0.01091 297.3 11.9
317(9) 0.01044 297.3 11.9
314(10) 0.00969 297.3 12.0
308(10) 0.00948 297.2 12.0
285(9) 0.01102 297.2 12.0
314(9) 0.01072 297.2 12.0
306(9) 0.01071 297.2 12.1
294(9) 0.01098 297.2 12.1
276(9) 0.01125 297.2 12.1
297(9) 0.01038 297.2 12.1
281(9) 0.01196 297.2 12.1
314(9) 0.01033 297.2 12.1
320(10) 0.00964 297.2 12.2
323(10) 0.00912 297.2 12.2
294(9) 0.01057 297.2 12.2
314(9) 0.01077 297.2 12.2
297(9) 0.01123 297.2 12.2
322(10) 0.00998 297.2 12.2
315(9) 0.01011 297.2 12.3
311(9) 0.01054 297.2 12.3
288(9) 0.01159 297.1 12.3
318(10) 0.00999 297.1 12.4
319(10) 0.00941 297.1 12.4
298(9) 0.01030 297.1 12.5
330(10) 0.00984 297.1 12.5
277(9) 0.01203 297.1 12.6
309(9) 0.01057 297.1 12.6
334(10) 0.00917 297.1 12.7
318(10) 0.01002 297.1 12.8
318(9) 0.01018 297.1 12.9
309(9) 0.01081 297.1 13.0
311(9) 0.01012 297.1 13.1
305(10) 0.00986 297.1 13.2
321(10) 0.00969 297.1 13.4
319(9) 0.01052 297.1 13.5
313(9) 0.01078 297.1 13.7
308(9) 0.01022 297.0 13.8
314(10) 0.00967 297.0 14.0
300(9) 0.01046 297.0 14.2
314(9) 0.01023 297.0 14.4
319(9) 0.01048 297.0 14.7
324(10) 0.00966 297.0 14.9
324(10) 0.00892 297.0 15.2
292(9) 0.01111 297.0 15.5
311(9) 0.01058 297.0 15.8
281(9) 0.01214 297.0 16.1
295(9) 0.01091 297.0 16.4
303(10) 0.00949 297.0 16.8
297(9) 0.01072 297.0 17.2
318(9) 0.01063 297.0 17.6
332(9) 0.01012 297.0 18.0
292(9) 0.01046 297.0 18.5
308(10) 0.00963 297.0 19.0
312(9) 0.01027 296.9 19.5
338(10) 0.01006 296.9 20.0
318(9) 0.01054 296.9 20.6
326(10) 0.00970 296.9 21.2
325(10) 0.00926 296.9 21.9
348(10) 0.00920 296.9 22.6
312(9) 0.01082 296.9 23.3
290(9) 0.01151 296.9 24.1
322(10) 0.00994 296.9 24.9
336(10) 0.00895 296.9 25.7
302(9) 0.01027 296.9 26.6
350(10) 0.00968 296.9 27.5
341(10) 0.00958 296.9 28.5
323(10) 0.00997 296.9 29.5
346(10) 0.00905 296.9 30.6
343(10) 0.00933 296.9 31.7
350(10) 0.00970 296.9 32.9
357(10) 0.00926 296.8 34.1
360(10) 0.00907 296.8 35.3
354(10) 0.00899 296.8 36.6
342(10) 0.00920 296.8 37.9
324(9) 0.01046 296.8 39.2
362(10) 0.00885 296.8 40.6
357(10) 0.00850 296.8 42.0
350(10) 0.00895 296.8 43.4
364(10) 0.00899 296.8 44.8
390(10) 0.00887 296.8 46.1
374(10) 0.00875 296.8 47.5
351(10) 0.00924 296.8 48.8
377(10) 0.00870 296.8 50.1
389(10) 0.00852 296.8 51.3
341(10) 0.01000 296.8 52.5
379(11) 0.00823 296.8 53.5
357(10) 0.00868 296.7 54.5
359(10) 0.00925 296.7 55.4
368(10) 0.00933 296.7 56.1
383(10) 0.00888 296.7 56.8
383(11) 0.00822 296.7 57.3
353(10) 0.00867 296.7 57.8
348(10) 0.00914 296.7 58.1
329(9) 0.01029 296.7 58.4
345(10) 0.00981 296.7 58.6
341(10) 0.00942 296.7 58.7
335(10) 0.00923 296.7 58.8
367(11) 0.00837 296.7 58.9
356(10) 0.00945 296.7 58.9
370(10) 0.00907 296.7 59.0
368(10) 0.00884 296.7 59.0
370(11) 0.00818 296.7 59.1
367(10) 0.00877 296.7 59.2
360(10) 0.00947 296.6 59.3
371(10) 0.00910 296.6 59.5
362(10) 0.00890 296.6 59.6
356(11) 0.00830 296.6 59.9
353(10) 0.00910 296.6 60.1
351(10) 0.00965 296.6 60.3
353(10) 0.00927 296.6 60.6
353(10) 0.00911 296.6 60.8
334(10) 0.00968 296.6 61.0
371(10) 0.00886 296.6 61.1
376(10) 0.00911 296.6 61.2
328(10) 0.00989 296.6 61.1
346(10) 0.00905 296.6 61.0
360(10) 0.00850 296.6 60.7
366(10) 0.00877 296.6 60.2
355(10) 0.00955 296.6 59.6
356(10) 0.00922 296.6 58.9
376(10) 0.00840 296.5 57.9
346(10) 0.00924 296.5 56.9
386(11) 0.00829 296.5 55.7
338(10) 0.01007 296.5 54.5
360(10) 0.00919 296.5 53.1
335(10) 0.00968 296.5 51.7
369(10) 0.00860 296.5 50.2
352(10) 0.00927 296.5 48.8
342(10) 0.00985 296.5 47.3
361(11) 0.00831 296.5 45.8
335(10) 0.00944 296.5 44.3
320(10) 0.00995 296.5 42.8
326(9) 0.01021 296.5 41.4
325(9) 0.01034 296.5 40.0
332(10) 0.00946 296.5 38.7
336(10) 0.00896 296.5 37.4
323(10) 0.00998 296.4 36.2
374(10) 0.00861 296.4 35.0
334(9) 0.01011 296.4 33.9
313(9) 0.01013 296.4 32.8
306(10) 0.00995 296.4 31.8
319(9) 0.01013 296.4 30.8
327(10) 0.00995 296.4 29.9
328(9) 0.01038 296.4 29.0
307(9) 0.01050 296.4 28.1
297(9) 0.01014 296.4 27.3
328(10) 0.00950 296.4 26.6
296(9) 0.01133 296.4 25.8
310(9) 0.01075 296.4 25.2
313(10) 0.00992 296.4 24.5
314(10) 0.00928 296.4 23.9
310(9) 0.01018 296.4 23.3
302(9) 0.01122 296.4 22.7
325(10) 0.01007 296.3 22.2
343(10) 0.00930 296.3 21.7
328(10) 0.00913 296.3 21.2
331(10) 0.00942 296.3 20.7
317(9) 0.01053 296.3 20.2
339(10) 0.00950 296.3 19.8
321(10) 0.00962 296.3 19.4
313(10) 0.00951 296.3 19.0
321(10) 0.00987 296.3 18.6
301(9) 0.01105 296.3 18.3
336(9) 0.01012 296.3 17.9
327(10) 0.00969 296.3 17.6
317(10) 0.00939 296.3 17.3
273(9) 0.01155 296.3 17.0
289(9) 0.01146 296.3 16.7
293(9) 0.01098 296.3 16.4
308(9) 0.01013 296.3 16.1
291(9) 0.01048 296.2 15.8
305(9) 0.01039 296.2 15.6
337(10) 0.01000 296.2 15.3
308(9) 0.01065 296.2 15.1
306(9) 0.01022 296.2 14.9
301(9) 0.01024 296.2 14.6
309(9) 0.01042 296.2 14.4
319(9) 0.01051 296.2 14.2
298(9) 0.01077 296.2 14.0
303(10) 0.00967 296.2 13.8
301(10) 0.01003 296.2 13.6
324(10) 0.00998 296.2 13.5
310(9) 0.01088 296.2 13.3
303(9) 0.01049 296.2 13.1
331(10) 0.00877 296.2 13.0
295(9) 0.01046 296.2 12.8
331(10) 0.00971 296.1 12.7
307(9) 0.01097 296.1 12.5
322(10) 0.00952 296.1 12.4
290(9) 0.01048 296.1 12.2
291(9) 0.01037 296.1 12.1
306(9) 0.01074 296.1 12.0
325(9) 0.01049 296.1 11.8
290(9) 0.01102 296.1 11.7
294(9) 0.01017 296.1 11.6
299(9) 0.01062 296.1 11.5
324(9) 0.01030 296.1 11.4
302(9) 0.01110 296.1 11.3
301(9) 0.01023 296.1 11.2
295(10) 0.00947 296.1 11.1
288(9) 0.01095 296.1 11.0
294(9) 0.01150 296.1 10.9
286(9) 0.01141 296.1 10.9
309(9) 0.01019 296.0 10.8
283(9) 0.01048 296.0 10.7
286(9) 0.01082 296.0 10.6
288(9) 0.01159 296.0 10.6
308(9) 0.01075 296.0 10.5
319(10) 0.01003 296.0 10.5
309(10) 0.00984 296.0 10.4
299(9) 0.01036 296.0 10.4
290(9) 0.01160 296.0 10.3
332(10) 0.00974 296.0 10.3
307(9) 0.01024 296.0 10.3
325(10) 0.00913 296.0 10.2
305(10) 0.00999 296.0 10.2
294(9) 0.01122 296.0 10.2
316(9) 0.01025 296.0 10.2
300(9) 0.01036 296.0 10.2
287(9) 0.01065 296.0 10.1
317(10) 0.00960 295.9 10.1
287(9) 0.01153 295.9 10.1
307(9) 0.01038 295.9 10.1
298(10) 0.01001 295.9 10.1
273(9) 0.01134 295.9 10.2
288(9) 0.01123 295.9 10.2
295(9) 0.01125 295.9 10.2
310(9) 0.01047 295.9 10.2
326(10) 0.00915 295.9 10.2
289(9) 0.01083 295.9 10.3
286(9) 0.01109 295.9 10.3
278(9) 0.01196 295.9 10.3
333(10) 0.00965 295.9 10.4
319(10) 0.00978 295.9 10.4
311(10) 0.00992 295.9 10.5
308(9) 0.01090 295.9 10.5
300(9) 0.01099 295.8 10.6
309(9) 0.01018 295.8 10.7
304(9) 0.01038 295.8 10.7
313(9) 0.01009 295.8 10.8
295(9) 0.01127 295.8 10.9
288(9) 0.01166 295.8 10.9
321(10) 0.00961 295.8 11.0
297(9) 0.01069 295.8 11.1
331(10) 0.00952 295.8 11.2
294(9) 0.01106 295.8 11.3
308(9) 0.01060 295.8 11.4
298(9) 0.01026 295.8 11.5
300(10) 0.00998 295.8 11.6
298(9) 0.01050 295.8 11.7
320(9) 0.01035 295.8 11.8
292(9) 0.01139 295.8 11.9
305(10) 0.00997 295.8 12.0
289(10) 0.01005 295.7 12.1
303(9) 0.01039 295.7 12.2
323(9) 0.01019 295.7 12.4
314(9) 0.01076 295.7 12.5
274(9) 0.01149 295.7 12.6
289(9) 0.01014 295.7 12.7
290(9) 0.01087 295.7 12.8
297(9) 0.01114 295.7 12.9
270(9) 0.01230 295.7 13.0
283(9) 0.01089 295.7 13.1
298(10) 0.00985 295.7 13.2
295(9) 0.01053 295.7 13.3
302(9) 0.01106 295.7 13.4
291(9) 0.01137 295.7 13.5
313(10) 0.01000 295.7 13.6
299(10) 0.00983 295.7 13.7
297(9) 0.01020 295.7 13.8
322(9) 0.01031 295.6 13.8
305(9) 0.01076 295.6 13.9
299(9) 0.01040 295.6 14.0
304(9) 0.01016 295.6 14.0
289(9) 0.01108 295.6 14.1
319(9) 0.01062 295.6 14.1
293(9) 0.01121 295.6 14.1
293(9) 0.01096 295.6 14.2
320(10) 0.00958 295.6 14.2
311(9) 0.01043 295.6 14.2
303(9) 0.01112 295.6 14.2
313(10) 0.01002 295.6 14.2
285(9) 0.01077 295.6 14.2
301(9) 0.01019 295.6 14.2
309(9) 0.01072 295.6 14.3
317(9) 0.01053 295.6 14.3
297(9) 0.01018 295.5 14.3
290(9) 0.01030 295.5 14.3
311(9) 0.01025 295.5 14.3
293(9) 0.01121 295.5 14.3
295(9) 0.01143 295.5 14.3
320(10) 0.00994 295.5 14.3
313(10) 0.00990 295.5 14.4
304(9) 0.01056 295.5 14.4
304(9) 0.01093 295.5 14.4
318(9) 0.01066 295.5 14.4
306(9) 0.01062 295.5 14.5
299(10) 0.00981 295.5 14.5
281(9) 0.01137 295.5 14.6
293(9) 0.01145 295.5 14.6
283(9) 0.01152 295.5 14.7
314(9) 0.01014 295.5 14.7
317(10) 0.00927 295.5 14.8
336(10) 0.00921 295.4 14.8
281(9) 0.01183 295.4 14.9
298(9) 0.01119 295.4 15.0
294(9) 0.01091 295.4 15.1
298(9) 0.01014 295.4 15.1
300(9) 0.01051 295.4 15.2
308(9) 0.01085 295.4 15.3
313(9) 0.01050 295.4 15.3
308(9) 0.01022 295.4 15.4
300(9) 0.01025 295.4 15.5
307(10) 0.00992 295.4 15.6
294(9) 0.01139 295.4 15.6
300(9) 0.01039 295.4 15.7
305(9) 0.01008 295.4 15.7
312(10) 0.00948 295.4 15.8
287(9) 0.01092 295.4 15.8
347(10) 0.00978 295.4 15.8
300(9) 0.01092 295.3 15.9
314(10) 0.00997 295.3 15.9
326(10) 0.00940 295.3 15.9
295(9) 0.01087 295.3 15.8
311(9) 0.01090 295.3 15.8
298(9) 0.01058 295.3 15.8
297(9) 0.01012 295.3 15.8
279(9) 0.01126 295.3 15.7
337(10) 0.00959 295.3 15.7
325(9) 0.01036 295.3 15.6
321(10) 0.00986 295.3 15.5
291(9) 0.01114 295.3 15.4
302(9) 0.01047 295.3 15.3
330(10) 0.00975 295.3 15.2
302(9) 0.01106 295.3 15.1
285(9) 0.01111 295.3 15.0
290(9) 0.01068 295.2 14.9
290(9) 0.01096 295.2 14.8
315(9) 0.01074 295.2 14.7
290(9) 0.01163 295.2 14.6
299(9) 0.01040 295.2 14.4
296(9) 0.01019 295.2 14.3
320(10) 0.00932 295.2 14.2
288(9) 0.01139 295.2 14.1
308(9) 0.01089 295.2 13.9
313(9) 0.01036 295.2 13.8
331(10) 0.00908 295.2 13.7
313(9) 0.01018 295.2 13.6
289(9) 0.01149 295.2 13.4
309(9) 0.01092 295.2 13.3
304(9) 0.01074 295.2 13.2
316(10) 0.00956 295.2 13.1
307(9) 0.01034 295.2 13.0
293(9) 0.01140 295.1 12.8
288(9) 0.01169 295.1 12.7
311(10) 0.00988 295.1 12.6
308(10) 0.00976 295.1 12.5
295(9) 0.01047 295.1 12.4
295(9) 0.01120 295.1 12.3
318(9) 0.01059 295.1 12.2
309(9) 0.01012 295.1 12.1
316(10) 0.00947 295.1 12.0
286(9) 0.01109 295.1 12.0
293(9) 0.01134 295.1 11.9
314(9) 0.01030 295.1 11.8
305(9) 0.01031 295.1 11.7
310(10) 0.00981 295.1 11.7
298(9) 0.01042 295.1 11.6
317(9) 0.01058 295.1 11.6
301(9) 0.01080 295.1 11.5
320(10) 0.00965 295.0 11.5
300(9) 0.01054 295.0 11.4
315(10) 0.01000 295.0 11.4
316(9) 0.01063 295.0 11.4
335(10) 0.00971 295.0 11.4
318(10) 0.00953 295.0 11.4
297(9) 0.01066 295.0 11.4
315(9) 0.01033 295.0 11.4
289(9) 0.01164 295.0 11.5
339(10) 0.00957 295.0 11.6
295(9) 0.01081 295.0 11.6
318(10) 0.00969 295.0 11.8
290(9) 0.01109 295.0 11.9
270(9) 0.01231 295.0 12.1
282(9) 0.01068 295.0 12.3
268(9) 0.01118 295.0 12.6
316(10) 0.00969 294.9 12.9
303(9) 0.01099 294.9 13.4
326(9) 0.01035 294.9 13.9
303(9) 0.01061 294.9 14.5
311(10) 0.00942 294.9 15.1
300(9) 0.01031 294.9 15.9
328(10) 0.01000 294.9 16.8
321(9) 0.01051 294.9 17.9
320(10) 0.00987 294.9 19.0
346(10) 0.00854 294.9 20.3
312(10) 0.00998 294.9 21.6
301(9) 0.01102 294.9 23.1
310(9) 0.01099 294.9 24.6
315(9) 0.01011 294.9 26.2
299(9) 0.01037 294.9 27.8
350(10) 0.00909 294.9 29.3
336(10) 0.01007 294.9 30.7
336(10) 0.00997 294.8 31.9
362(10) 0.00909 294.8 32.8
360(11) 0.00816 294.8 33.4
313(9) 0.01018 294.8 33.6
304(9) 0.01096 294.8 33.4
321(9) 0.01039 294.8 32.8
295(9) 0.01079 294.8 31.9
300(9) 0.01014 294.8 30.8
308(9) 0.01031 294.8 29.5
321(9) 0.01053 294.8 28.0
315(9) 0.01057 294.8 26.5
303(9) 0.01053 294.8 25.0
294(9) 0.01046 294.8 23.6
322(10) 0.00997 294.8 22.2
276(9) 0.01210 294.8 20.9
315(9) 0.01044 294.8 19.8
326(10) 0.00941 294.7 18.7
313(10) 0.00961 294.7 17.8
305(9) 0.01043 294.7 17.0
304(9) 0.01103 294.7 16.3
303(9) 0.01086 294.7 15.7
286(9) 0.01090 294.7 15.2
312(10) 0.00941 294.7 14.8
302(9) 0.01060 294.7 14.5
328(9) 0.01029 294.7 14.2
306(9) 0.01068 294.7 14.1
301(9) 0.01086 294.7 13.9
290(9) 0.01072 294.7 13.8
304(9) 0.01070 294.7 13.8
293(9) 0.01137 294.7 13.8
313(9) 0.01017 294.7 13.8
312(10) 0.00986 294.7 13.9
315(10) 0.00942 294.7 13.9
288(9) 0.01146 294.6 14.0
328(9) 0.01037 294.6 14.2
316(10) 0.00998 294.6 14.3
308(10) 0.00968 294.6 14.4
323(10) 0.00975 294.6 14.6
304(9) 0.01104 294.6 14.8
309(9) 0.01085 294.6 15.0
317(10) 0.00977 294.6 15.2
295(9) 0.01015 294.6 15.4
301(9) 0.01068 294.6 15.7
321(9) 0.01052 294.6 15.9
313(9) 0.01070 294.6 16.2
331(10) 0.00909 294.6 16.5
283(9) 0.01093 294.6 16.8
306(10) 0.00999 294.6 17.1
287(9) 0.01146 294.6 17.4
327(9) 0.01012 294.6 17.7
300(9) 0.01048 294.5 18.1
309(10) 0.00945 294.5 18.4
302(9) 0.01045 294.5 18.8
290(9) 0.01142 294.5 19.1
300(9) 0.01107 294.5 19.5
312(10) 0.01006 294.5 19.9
321(10) 0.00928 294.5 20.2
297(9) 0.01084 294.5 20.6
322(9) 0.01046 294.5 20.9
344(10) 0.00953 294.5 21.3
307(9) 0.01036 294.5 21.6
323(10) 0.00934 294.5 22.0
327(10) 0.00936 294.5 22.3
323(9) 0.01033 294.5 22.7
299(9) 0.01102 294.5 23.0
322(10) 0.00947 294.5 23.4
336(10) 0.00874 294.4 23.8
325(10) 0.00978 294.4 24.1
321(9) 0.01033 294.4 24.5
289(9) 0.01156 294.4 24.9
339(10) 0.00904 294.4 25.3
330(10) 0.00935 294.4 25.7
295(9) 0.01108 294.4 26.1
348(10) 0.00974 294.4 26.5
322(9) 0.01010 294.4 27.0
318(10) 0.00982 294.4 27.4
309(9) 0.01049 294.4 27.8
329(10) 0.00989 294.4 28.3
289(9) 0.01157 294.4 28.7
321(10) 0.00982 294.4 29.1
318(10) 0.00950 294.4 29.6
318(10) 0.00945 294.4 30.0
325(10) 0.00997 294.4 30.4
328(9) 0.01018 294.3 30.8
340(10) 0.00915 294.3 31.2
318(10) 0.00974 294.3 31.6
326(10) 0.00990 294.3 32.0
329(9) 0.01023 294.3 32.4
338(10) 0.01003 294.3 32.7
337(10) 0.00959 294.3 33.0
337(10) 0.00911 294.3 33.3
328(10) 0.00973 294.3 33.5
328(9) 0.01022 294.3 33.8
317(9) 0.01040 294.3 34.0
336(10) 0.00971 294.3 34.1
317(10) 0.00959 294.3 34.2
308(9) 0.01059 294.3 34.3
338(10) 0.00996 294.3 34.4
330(9) 0.01019 294.3 34.4
335(10) 0.00938 294.3 34.4
316(10) 0.00967 294.2 34.3
326(10) 0.00972 294.2 34.2
331(9) 0.01026 294.2 34.0
317(9) 0.01053 294.2 33.9
320(10) 0.00993 294.2 33.7
318(10) 0.00922 294.2 33.4
305(10) 0.00997 294.2 33.2
323(9) 0.01052 294.2 32.9
330(9) 0.01010 294.2 32.6
326(10) 0.01005 294.2 32.2
335(10) 0.00896 294.2 31.9
293(9) 0.01094 294.2 31.6
343(10) 0.00973 294.2 31.2
317(9) 0.01049 294.2 30.9
326(10) 0.00970 294.2 30.5
331(10) 0.00922 294.2 30.1
330(10) 0.00975 294.1 29.8
321(9) 0.01051 294.1 29.4
337(10) 0.00952 294.1 29.1
313(9) 0.01017 294.1 28.7
334(10) 0.00909 294.1 28.4
318(10) 0.01006 294.1 28.0
314(9) 0.01070 294.1 27.7
349(10) 0.00939 294.1 27.3
325(10) 0.00989 294.1 26.9
327(10) 0.00957 294.1 26.5
321(10) 0.01002 294.1 26.1
329(9) 0.01026 294.1 25.6
313(9) 0.01018 294.1 25.2
318(10) 0.00970 294.1 24.7
325(10) 0.00965 294.1 24.2
316(9) 0.01041 294.1 23.6
315(9) 0.01072 294.1 23.1
275(9) 0.01161 294.0 22.6
295(9) 0.01055 294.0 22.1
342(10) 0.00919 294.0 21.6
303(9) 0.01086 294.0 21.1
323(9) 0.01045 294.0 20.6
297(9) 0.01056 294.0 20.2
287(9) 0.01051 294.0 19.7
311(10) 0.00958 294.0 19.4
275(9) 0.01180 294.0 19.0
313(9) 0.01078 294.0 18.7
325(10) 0.00940 294.0 18.5
281(9) 0.01081 294.0 18.3
316(10) 0.00980 294.0 18.1
298(9) 0.01110 294.0 18.1
308(9) 0.01090 294.0 18.1
313(10) 0.00988 294.0 18.1
328(10) 0.00919 294.0 18.3
336(10) 0.00958 293.9 18.5
340(10) 0.00987 293.9 18.8
311(9) 0.01078 293.9 19.1
342(10) 0.00874 293.9 19.6
307(10) 0.00978 293.9 20.1
306(9) 0.01055 293.9 20.6
330(9) 0.01011 293.9 21.2
318(9) 0.01055 293.9 21.8
301(10) 0.01003 293.9 22.4
309(10) 0.00988 293.9 23.0
330(10) 0.00969 293.9 23.6
331(9) 0.01017 293.9 24.0
320(9) 0.01026 293.9 24.3
306(9) 0.01017 293.9 24.5
307(10) 0.01000 293.9 24.5
323(10) 0.00986 293.9 24.3
311(9) 0.01091 293.8 24.0
319(9) 0.01011 293.8 23.4
311(10) 0.01006 293.8 22.8
305(9) 0.01024 293.8 22.1
293(9) 0.01052 293.8 21.4
288(9) 0.01158 293.8 20.6
330(10) 0.00949 293.8 19.9
325(10) 0.00958 293.8 19.2
310(10) 0.00998 293.8 18.5
322(10) 0.00999 293.8 17.8
337(10) 0.01007 293.8 17.3
311(9) 0.01056 293.8 16.7
289(9) 0.01090 293.8 16.3
280(9) 0.01097 293.8 15.9
280(9) 0.01128 293.8 15.5
314(9) 0.01073 293.8 15.3
285(9) 0.01101 293.8 15.0
311(10) 0.00998 293.7 14.8
322(10) 0.00987 293.7 14.7
310(9) 0.01074 293.7 14.6
306(9) 0.01086 293.7 14.5
309(9) 0.01034 293.7 14.5
312(10) 0.00951 293.7 14.5
302(9) 0.01034 293.7 14.6
293(9) 0.01130 293.7 14.7
290(9) 0.01154 293.7 14.8
291(9) 0.01112 293.7 14.9
321(10) 0.00915 293.7 15.1
316(10) 0.00958 293.7 15.3
278(9) 0.01179 293.7 15.6
301(9) 0.01120 293.7 15.9
300(9) 0.01029 293.7 16.2
315(10) 0.00941 293.7 16.6
319(10) 0.01004 293.7 17.0
304(9) 0.01100 293.6 17.5
298(9) 0.01136 293.6 18.0
311(10) 0.01007 293.6 18.5
319(10) 0.00911 293.6 19.1
295(9) 0.01095 293.6 19.7
319(9) 0.01042 293.6 20.4
334(10) 0.01003 293.6 21.0
318(9) 0.01008 293.6 21.7
309(10) 0.00991 293.6 22.4
305(9) 0.01021 293.6 23.1
307(9) 0.01060 293.6 23.8
301(9) 0.01102 293.6 24.5
314(10) 0.00967 293.6 25.1
321(10) 0.00972 293.6 25.7
342(10) 0.00911 293.6 26.3
309(9) 0.01085 293.6 26.8
309(9) 0.01059 293.5 27.3
318(10) 0.01000 293.5 27.7
325(10) 0.00972 293.5 28.0
326(10) 0.00985 293.5 28.4
329(9) 0.01013 293.5 28.7
314(9) 0.01050 293.5 28.9
317(10) 0.01008 293.5 29.2
312(10) 0.00987 293.5 29.4
312(9) 0.01027 293.5 29.5
336(9) 0.01011 293.5 29.7
305(9) 0.01068 293.5 29.7
338(10) 0.00930 293.5 29.8
309(9) 0.01065 293.5 29.7
331(10) 0.00988 293.5 29.6
335(10) 0.01006 293.5 29.4
323(10) 0.00978 293.5 29.1
339(10) 0.00958 293.5 28.8
294(9) 0.01067 293.4 28.5
312(9) 0.01038 293.4 28.1
338(10) 0.01004 293.4 27.7
330(10) 0.00973 293.4 27.2
307(10) 0.01003 293.4 26.8
312(9) 0.01026 293.4 26.4
309(9) 0.01057 293.4 26.0
302(9) 0.01097 293.4 25.6
287(9) 0.01129 293.4 25.2
318(10) 0.00949 293.4 24.8
303(9) 0.01053 293.4 24.4
303(9) 0.01109 293.4 24.0
324(9) 0.01034 293.4 23.6
301(9) 0.01044 293.4 23.2
333(10) 0.00881 293.4 22.9
315(9) 0.01010 293.4 22.5
313(9) 0.01058 293.4 22.1
312(9) 0.01071 293.3 21.8
305(9) 0.01051 293.3 21.4
299(10) 0.00983 293.3 21.1
306(9) 0.01049 293.3 20.8
315(9) 0.01052 293.3 20.4
334(10) 0.00993 293.3 20.1
299(9) 0.01054 293.3 19.8
322(10) 0.00907 293.3 19.4
333(10) 0.00953 293.3 19.1
305(9) 0.01092 293.3 18.7
284(9) 0.01146 293.3 18.3
293(9) 0.01064 293.3 17.9
321(10) 0.00913 293.3 17.5
297(9) 0.01074 293.3 17.1
291(9) 0.01154 293.3 16.7
296(9) 0.01106 293.3 16.2
300(9) 0.01018 293.2 15.8
294(9) 0.01021 293.2 15.3
289(9) 0.01096 293.2 14.9
265(8) 0.01256 293.2 14.4
303(9) 0.01049 293.2 14.0
314(10) 0.00972 293.2 13.5
323(10) 0.00949 293.2 13.1
304(9) 0.01030 293.2 12.7
296(9) 0.01132 293.2 12.2
303(9) 0.01077 293.2 11.8
296(9) 0.01061 293.2 11.5
296(9) 0.01078 293.2 11.1
314(9) 0.01031 293.2 10.7
294(9) 0.01135 293.2 10.4
300(9) 0.01062 293.2 10.0
263(9) 0.01193 293.2 9.7
290(9) 0.01078 293.2 9.4
303(9) 0.01073 293.1 9.1
304(9) 0.01080 293.1 8.9
289(9) 0.01082 293.1 8.6
295(9) 0.01055 293.1 8.3
294(9) 0.01069 293.1 8.1
309(9) 0.01075 293.1 7.9
305(9) 0.01097 293.1 7.7
300(9) 0.01036 293.1 7.5
286(9) 0.01029 293.1 7.3
288(9) 0.01041 293.1 7.1
290(9) 0.01111 293.1 6.9
276(9) 0.01214 293.1 6.7
293(9) 0.01095 293.1 6.6
303(10) 0.00979 293.1 6.4
317(10) 0.00985 293.1 6.3
304(9) 0.01097 293.1 6.2
290(9) 0.01140 293.1 6.0
300(9) 0.01046 293.0 5.9
281(9) 0.01096 293.0 5.8
281(9) 0.01204 293.0 5.7
315(9) 0.01060 293.0 5.6
280(9) 0.01158 293.0 5.5
301(10) 0.00978 293.0 5.4
299(10) 0.00948 293.0 5.3
317(10) 0.01004 293.0 5.2
291(9) 0.01152 293.0 5.2
307(9) 0.01080 293.0 5.1
297(9) 0.01066 293.0 5.0
313(10) 0.00957 293.0 4.9
295(9) 0.01059 293.0 4.9
313(9) 0.01070 293.0 4.8
303(9) 0.01096 293.0 4.8
296(9) 0.01064 293.0 4.7
304(10) 0.00971 292.9 4.7
305(9) 0.01051 292.9 4.6
284(9) 0.01156 292.9 4.6
292(9) 0.01112 292.9 4.5
278(9) 0.01159 292.9 4.5
276(9) 0.01133 292.9 4.4
285(9) 0.01099 292.9 4.4
287(9) 0.01163 292.9 4.4
287(9) 0.01114 292.9 4.3
288(9) 0.01071 292.9 4.3
291(9) 0.01089 292.9 4.3
306(9) 0.01047 292.9 4.3
267(8) 0.01238 292.9 4.2
294(9) 0.01086 292.9 4.2
292(9) 0.01053 292.9 4.2
312(10) 0.00976 292.9 4.2
308(9) 0.01037 292.9 4.1
293(9) 0.01138 292.8 4.1
290(9) 0.01095 292.8 4.1
297(9) 0.01014 292.8 4.1
273(9) 0.01166 292.8 4.1
297(9) 0.01093 292.8 4.1
296(9) 0.01130 292.8 4.1
302(9) 0.01072 292.8 4.1
308(10) 0.00959 292.8 4.0
300(9) 0.01036 292.8 4.0
313(9) 0.01052 292.8 4.0
311(9) 0.01077 292.8 4.0
298(9) 0.01062 292.8 4.0
290(9) 0.01075 292.8 4.0
302(9) 0.01029 292.8 4.0
274(9) 0.01186 292.8 4.0
309(9) 0.01089 292.8 4.0
282(9) 0.01099 292.8 4.0
257(9) 0.01151 292.7 4.1
282(9) 0.01120 292.7 4.1
314(9) 0.01067 292.7 4.1
292(9) 0.01138 292.7 4.1
284(9) 0.01097 292.7 4.1
305(10) 0.00992 292.7 4.1
314(10) 0.01006 292.7 4.1
316(9) 0.01069 292.7 4.1
295(9) 0.01123 292.7 4.2
289(9) 0.01108 292.7 4.2
277(9) 0.01069 292.7 4.2
297(10) 0.00996 292.7 4.2
281(9) 0.01186 292.7 4.3
285(9) 0.01138 292.7 4.3
288(9) 0.01083 292.7 4.3
306(10) 0.00959 292.7 4.3
300(9) 0.01047 292.7 4.4
296(9) 0.01129 292.7 4.4
306(9) 0.01065 292.7 4.5
303(9) 0.01010 292.7 4.5
295(9) 0.01020 292.7 4.5
279(9) 0.01114 292.7 4.6
290(9) 0.01158 292.6 4.6
260(9) 0.01224 292.6 4.7
301(9) 0.01027 292.6 4.7
274(9) 0.01178 292.6 4.8
303(9) 0.01068 292.6 4.8
311(9) 0.01080 292.6 4.9
287(9) 0.01123 292.6 4.9
291(9) 0.01038 292.6 5.0
276(9) 0.01098 292.6 5.1
296(9) 0.01063 292.6 5.1
295(9) 0.01126 292.6 5.2
269(9) 0.01186 292.6 5.3
264(9) 0.01184 292.6 5.4
303(9) 0.01030 292.6 5.4
291(9) 0.01134 292.6 5.5
281(9) 0.01170 292.6 5.6
283(9) 0.01112 292.6 5.7
302(9) 0.01019 292.6 5.8
287(9) 0.01115 292.6 5.9
320(9) 0.01037 292.6 6.0
292(9) 0.01139 292.6 6.1
325(10) 0.00953 292.6 6.2
296(9) 0.01023 292.6 6.3
300(9) 0.01049 292.6 6.4
322(9) 0.01037 292.6 6.5
296(9) 0.01135 292.6 6.6
307(9) 0.01049 292.6 6.7
297(9) 0.01010 292.6 6.9
294(9) 0.01073 292.6 7.0
312(9) 0.01077 292.6 7.1
288(9) 0.01145 292.6 7.2
302(9) 0.01030 292.6 7.3
311(10) 0.00924 292.6 7.5
276(9) 0.01152 292.6 7.6
294(9) 0.01137 292.6 7.7
301(9) 0.01114 292.6 7.8
266(8) 0.01241 292.6 7.9
308(10) 0.00991 292.6 8.0
302(9) 0.01040 292.6 8.1
271(9) 0.01231 292.6 8.2
291(9) 0.01125 292.6 8.3
290(9) 0.01069 292.6 8.3
290(9) 0.01030 292.6 8.4
306(10) 0.00979 292.6 8.5
309(9) 0.01080 292.5 8.5
315(9) 0.01044 292.5 8.5
309(10) 0.00991 292.5 8.6
281(9) 0.01076 292.5 8.6
309(9) 0.01024 292.5 8.6
309(9) 0.01083 292.5 8.6
293(9) 0.01088 292.5 8.6
292(9) 0.01084 292.5 8.6
305(9) 0.01039 292.5 8.6
349(10) 0.00921 292.5 8.5
296(9) 0.01133 292.5 8.5
284(9) 0.01112 292.5 8.5
294(9) 0.01053 292.5 8.5
284(9) 0.01140 292.5 8.4
301(9) 0.01056 292.5 8.4
277(9) 0.01203 292.5 8.4
274(9) 0.01141 292.5 8.3
280(9) 0.01059 292.5 8.3
300(9) 0.01045 292.5 8.3
307(9) 0.01067 292.5 8.3
293(9) 0.01130 292.5 8.3
294(9) 0.01087 292.5 8.3
309(10) 0.01003 292.5 8.3
312(9) 0.01021 292.5 8.3
299(9) 0.01107 292.5 8.3
314(9) 0.01065 292.5 8.3
282(9) 0.01098 292.5 8.3
269(9) 0.01149 292.5 8.3
301(10) 0.01000 292.5 8.4
330(10) 0.01006 292.5 8.4
311(9) 0.01060 292.5 8.4
309(10) 0.01006 292.5 8.5
294(10) 0.01000 292.5 8.6
325(10) 0.00962 292.5 8.6
274(9) 0.01204 292.5 8.7
314(9) 0.01064 292.5 8.8
284(9) 0.01145 292.5 8.9
314(10) 0.00952 292.5 9.0
295(9) 0.01094 292.5 9.1
296(9) 0.01139 292.5 9.2
294(9) 0.01126 292.5 9.3
323(10) 0.00999 292.5 9.4
312(10) 0.00979 292.5 9.6
289(9) 0.01067 292.5 9.7
305(9) 0.01092 292.4 9.9
281(9) 0.01184 292.4 10.1
285(9) 0.01134 292.4 10.2
313(10) 0.00984 292.4 10.4
293(9) 0.01052 292.4 10.6
304(9) 0.01099 292.4 10.9
310(9) 0.01095 292.4 11.1
316(9) 0.01030 292.4 11.3
319(10) 0.00975 292.4 11.6
307(9) 0.01030 292.4 11.9
311(9) 0.01080 292.4 12.2
326(10) 0.00980 292.4 12.5
346(10) 0.00900 292.4 12.8
332(10) 0.00938 292.4 13.1
307(9) 0.01031 292.4 13.5
308(9) 0.01099 292.4 13.9
301(9) 0.01063 292.4 14.3
309(10) 0.00981 292.4 14.7
276(9) 0.01117 292.4 15.2
308(9) 0.01050 292.4 15.7
300(9) 0.01117 292.4 16.2
320(10) 0.00954 292.4 16.7
283(9) 0.01096 292.4 17.3
279(9) 0.01078 292.4 17.9
297(9) 0.01087 292.4 18.5
323(9) 0.01032 292.4 19.1
314(10) 0.00997 292.4 19.7
328(10) 0.00915 292.4 20.4
299(9) 0.01022 292.4 21.1
327(9) 0.01014 292.4 21.8
326(9) 0.01036 292.4 22.5
311(9) 0.01022 292.4 23.2
306(10) 0.00964 292.4 23.9
296(9) 0.01066 292.4 24.6
307(9) 0.01067 292.4 25.3
283(9) 0.01164 292.4 25.9
298(9) 0.01045 292.4 26.5
303(10) 0.00975 292.4 27.1
324(10) 0.01003 292.4 27.6
326(9) 0.01043 292.4 28.0
326(9) 0.01039 292.4 28.4
311(9) 0.01017 292.4 28.7
300(10) 0.00986 292.4 28.9
309(9) 0.01024 292.4 29.0
312(9) 0.01074 292.3 29.0
320(9) 0.01046 292.3 29.0
343(10) 0.00943 292.3 28.8
317(10) 0.00964 292.3 28.6
291(9) 0.01098 292.3 28.3
329(9) 0.01026 292.3 28.0
290(9) 0.01132 292.3 27.6
311(10) 0.00985 292.3 27.1
300(10) 0.00990 292.3 26.7
321(10) 0.00960 292.3 26.2
310(9) 0.01077 292.3 25.7
284(9) 0.01129 292.3 25.2
309(9) 0.01011 292.3 24.7
307(10) 0.00975 292.3 24.2
320(10) 0.00980 292.3 23.7
305(9) 0.01090 292.3 23.3
316(9) 0.01015 292.3 22.9
303(9) 0.01051 292.3 22.5
299(9) 0.01027 292.3 22.1
284(9) 0.01112 292.3 21.8
287(9) 0.01146 292.3 21.6
308(9) 0.01047 292.3 21.4
311(10) 0.01003 292.3 21.2
322(10) 0.00967 292.3 21.1
324(9) 0.01017 292.3 21.0
327(9) 0.01038 292.3 21.0
305(9) 0.01051 292.3 21.0
278(9) 0.01080 292.3 21.1
299(9) 0.01049 292.3 21.2
323(9) 0.01019 292.3 21.3
302(9) 0.01096 292.3 21.5
314(10) 0.01005 292.3 21.7
320(10) 0.00969 292.3 22.0
325(10) 0.00973 292.3 22.2
304(9) 0.01073 292.3 22.4
296(9) 0.01130 292.3 22.6
293(9) 0.01048 292.3 22.8
293(10) 0.00999 292.3 22.9
317(10) 0.00943 292.3 22.9
307(9) 0.01065 292.3 22.9
295(9) 0.01131 292.3 22.7
291(9) 0.01119 292.3 22.4
314(10) 0.00943 292.3 22.0
330(10) 0.00957 292.3 21.5
322(9) 0.01029 292.2 20.9
322(9) 0.01040 292.2 20.3
318(10) 0.00990 292.2 19.6
302(10) 0.00958 292.2 18.9
328(10) 0.00961 292.2 18.2
307(9) 0.01064 292.2 17.5
284(9) 0.01190 292.2 16.8
291(9) 0.01097 292.2 16.1
285(9) 0.01012 292.2 15.4
297(9) 0.01049 292.2 14.8
318(9) 0.01060 292.2 14.2
297(9) 0.01116 292.2 13.7
284(9) 0.01146 292.2 13.1
326(10) 0.00932 292.2 12.6
288(9) 0.01102 292.2 12.2
311(9) 0.01090 292.2 11.8
308(9) 0.01065 292.2 11.4
298(9) 0.01034 292.2 11.0
306(9) 0.01016 292.2 10.7
315(9) 0.01017 292.2 10.4
303(9) 0.01111 292.2 10.1
303(9) 0.01034 292.2 9.8
293(9) 0.01086 292.2 9.6
314(10) 0.00973 292.2 9.3
287(9) 0.01091 292.2 9.1
307(9) 0.01098 292.2 8.9
276(9) 0.01170 292.2 8.8
288(9) 0.01098 292.2 8.6
302(9) 0.01042 292.2 8.4
300(9) 0.01074 292.2 8.3
312(9) 0.01073 292.2 8.1
300(9) 0.01072 292.2 8.0
290(9) 0.01055 292.2 7.9
270(9) 0.01126 292.2 7.8
302(9) 0.01058 292.2 7.6
270(9) 0.01213 292.2 7.5
316(10) 0.00993 292.2 7.4
306(10) 0.00991 292.2 7.4
311(10) 0.01000 292.2 7.3
300(9) 0.01102 292.2 7.2
298(9) 0.01113 292.2 7.1
273(9) 0.01094 292.2 7.0
314(10) 0.00942 292.2 7.0
314(10) 0.00983 292.2 6.9
277(9) 0.01194 292.1 6.8
312(9) 0.01065 292.1 6.8
288(9) 0.01077 292.1 6.7
321(10) 0.00922 292.1 6.7
311(9) 0.01026 292.1 6.6
287(9) 0.01149 292.1 6.6
296(9) 0.01145 292.1 6.6
284(9) 0.01145 292.1 6.5
302(10) 0.00979 292.1 6.5
281(9) 0.01177 292.1 6.5
304(9) 0.01103 292.1 6.5
289(9) 0.01140 292.1 6.4
317(10) 0.00974 292.1 6.4
301(10) 0.01002 292.1 6.4
297(9) 0.01047 292.1 6.4
297(9) 0.01148 292.1 6.4
293(9) 0.01107 292.1 6.4
298(9) 0.01063 292.1 6.4
282(9) 0.01051 292.1 6.4
307(9) 0.01031 292.1 6.4
284(9) 0.01176 292.1 6.4
297(9) 0.01097 292.1 6.5
312(10) 0.00980 292.1 6.5
296(9) 0.01036 292.1 6.5
331(10) 0.00942 292.1 6.6
278(9) 0.01183 292.1 6.6
278(9) 0.01207 292.1 6.7
292(9) 0.01055 292.1 6.7
289(9) 0.01056 292.1 6.8
296(9) 0.01052 292.1 6.9
273(9) 0.01204 292.1 6.9
280(9) 0.01175 292.1 7.0
302(9) 0.01054 292.1 7.1
299(9) 0.01031 292.1 7.2
291(9) 0.01084 292.1 7.4
314(9) 0.01065 292.1 7.5
310(9) 0.01045 292.1 7.6
318(9) 0.01011 292.1 7.8
284(9) 0.01133 292.1 8.0
275(9) 0.01150 292.1 8.1
291(9) 0.01149 292.1 8.3
295(9) 0.01044 292.1 8.5
294(9) 0.01024 292.1 8.8
311(9) 0.01011 292.1 9.0
285(9) 0.01173 292.0 9.2
295(9) 0.01135 292.0 9.5
313(10) 0.01001 292.0 9.8
293(9) 0.01046 292.0 10.0
312(10) 0.00972 292.0 10.3
305(9) 0.01067 292.0 10.6
309(9) 0.01091 292.0 10.9
322(10) 0.00971 292.0 11.2
303(9) 0.01012 292.0 11.5
271(9) 0.01178 292.0 11.7
278(9) 0.01180 292.0 11.9
304(9) 0.01087 292.0 12.1
295(9) 0.01077 292.0 12.3
292(9) 0.01057 292.0 12.4
306(9) 0.01052 292.0 12.5
285(9) 0.01163 292.0 12.6
295(9) 0.01125 292.0 12.6
315(9) 0.01012 292.0 12.6
316(10) 0.00948 292.0 12.5
292(9) 0.01103 292.0 12.5
296(9) 0.01124 292.0 12.4
306(9) 0.01099 292.0 12.3
301(9) 0.01026 292.0 12.2
318(10) 0.00936 292.0 12.1
318(9) 0.01014 292.0 12.1
317(9) 0.01060 292.0 12.0
333(10) 0.00994 292.0 11.9
312(9) 0.01022 292.0 11.9
313(10) 0.00963 292.0 11.8
296(9) 0.01054 292.0 11.8
293(9) 0.01156 292.0 11.8
327(10) 0.00983 292.0 11.8
320(10) 0.01004 292.0 11.8
324(10) 0.00922 292.0 11.8
293(9) 0.01062 292.0 11.9
291(9) 0.01140 292.0 11.9
297(9) 0.01105 292.0 12.0
299(9) 0.01029 292.0 12.1
279(9) 0.01105 292.0 12.1
316(10) 0.01001 292.0 12.2
336(9) 0.01010 292.0 12.3
310(9) 0.01016 292.0 12.4
302(9) 0.01047 292.0 12.6
303(9) 0.01015 292.0 12.7
300(9) 0.01046 291.9 12.8
287(9) 0.01159 291.9 12.9
300(9) 0.01033 291.9 13.0
316(10) 0.00944 291.9 13.2
301(9) 0.01047 291.9 13.3
326(9) 0.01029 291.9 13.4
305(9) 0.01093 291.9 13.5
277(9) 0.01114 291.9 13.6
275(9) 0.01075 291.9 13.8
298(9) 0.01074 291.9 13.9
315(9) 0.01059 291.9 14.0
304(9) 0.01112 291.9 14.1
305(9) 0.01042 291.9 14.2
295(9) 0.01013 291.9 14.3
315(10) 0.00981 291.9 14.4
300(9) 0.01106 291.9 14.4
315(9) 0.01076 291.9 14.5
303(9) 0.01056 291.9 14.6
302(10) 0.00962 291.9 14.6
309(10) 0.00996 291.9 14.7
305(9) 0.01091 291.9 14.7
302(9) 0.01112 291.9 14.7
307(9) 0.01024 291.9 14.7
320(10) 0.00946 291.9 14.7
323(10) 0.00974 291.9 14.7
293(9) 0.01137 291.9 14.7
308(9) 0.01074 291.9 14.7
341(10) 0.00931 291.9 14.6
309(10) 0.00979 291.9 14.6
312(9) 0.01009 291.9 14.5
307(9) 0.01092 291.9 14.5
313(9) 0.01056 291.9 14.4
301(9) 0.01052 291.9 14.3
297(9) 0.01031 291.9 14.2
323(10) 0.00983 291.9 14.1
297(9) 0.01127 291.9 14.0
308(9) 0.01061 291.9 13.9
313(9) 0.01016 291.9 13.8
303(10) 0.01002 291.9 13.7
299(10) 0.00998 291.9 13.6
289(9) 0.01160 291.9 13.4
314(9) 0.01034 291.9 13.3
289(9) 0.01092 291.9 13.2
284(9) 0.01028 291.9 13.1
284(9) 0.01046 291.8 13.0
325(9) 0.01054 291.8 12.8
318(10) 0.00986 291.8 12.7
306(9) 0.01021 291.8 12.6
297(9) 0.01055 291.8 12.5
302(9) 0.01066 291.8 12.3
316(9) 0.01056 291.8 12.2
299(9) 0.01075 291.8 12.1
318(10) 0.00963 291.8 12.0
320(10) 0.00991 291.8 11.9
309(9) 0.01065 291.8 11.8
299(9) 0.01120 291.8 11.7
289(9) 0.01056 291.8 11.5
308(10) 0.00975 291.8 11.4
296(9) 0.01030 291.8 11.3
317(9) 0.01020 291.8 11.2
309(9) 0.01091 291.8 11.1
313(10) 0.00990 291.8 11.0
311(10) 0.00980 291.8 10.9
310(9) 0.01011 291.8 10.8
307(9) 0.01060 291.8 10.7
301(9) 0.01106 291.8 10.6
330(10) 0.00977 291.8 10.5
322(10) 0.00922 291.8 10.4
317(10) 0.00987 291.8 10.3
307(9) 0.01058 291.8 10.2
311(9) 0.01103 291.8 10.1
317(9) 0.01010 291.8 10.0
299(10) 0.00989 291.8 9.9
314(10) 0.00996 291.8 9.8
285(9) 0.01158 291.8 9.7
302(9) 0.01098 291.8 9.6
297(9) 0.01066 291.8 9.5
310(10) 0.00951 291.8 9.4
277(9) 0.01170 291.8 9.3
313(9) 0.01057 291.8 9.2
316(9) 0.01057 291.8 9.1
320(10) 0.00968 291.8 9.0
313(10) 0.00960 291.8 8.9
310(9) 0.01026 291.8 8.7
290(9) 0.01145 291.8 8.6
306(9) 0.01049 291.8 8.5
296(9) 0.01067 291.8 8.4
305(10) 0.00981 291.8 8.3
301(9) 0.01062 291.7 8.2
285(9) 0.01154 291.7 8.1
288(9) 0.01145 291.7 8.0
285(9) 0.01096 291.7 7.9
324(10) 0.00978 291.7 7.8
307(9) 0.01039 291.7 7.7
315(9) 0.01065 291.7 7.6
283(9) 0.01113 291.7 7.5
286(9) 0.01038 291.7 7.5
299(10) 0.00988 291.7 7.4
306(9) 0.01045 291.7 7.3
275(9) 0.01213 291.7 7.2
311(9) 0.01034 291.7 7.1
303(9) 0.01043 291.7 7.1
283(9) 0.01107 291.7 7.0
320(9) 0.01017 291.7 6.9
321(9) 0.01050 291.7 6.9
307(9) 0.01022 291.7 6.8
304(9) 0.01034 291.7 6.8
320(10) 0.00950 291.7 6.7
291(9) 0.01116 291.7 6.7
293(9) 0.01131 291.7 6.6
289(9) 0.01025 291.7 6.6
309(10) 0.00980 291.7 6.5
302(9) 0.01067 291.7 6.5
296(9) 0.01135 291.7 6.5
301(9) 0.01104 291.7 6.4
300(9) 0.01068 291.7 6.4
301(9) 0.01022 291.7 6.4
290(9) 0.01090 291.7 6.3
302(9) 0.01116 291.7 6.3
296(9) 0.01113 291.7 6.3
306(9) 0.01031 291.7 6.3
280(9) 0.01081 291.7 6.3
288(9) 0.01039 291.7 6.3
278(9) 0.01178 291.7 6.3
302(9) 0.01114 291.7 6.2
301(9) 0.01050 291.7 6.2
310(10) 0.00944 291.7 6.2
293(9) 0.01083 291.7 6.2
295(9) 0.01134 291.7 6.2
307(9) 0.01083 291.7 6.2
270(9) 0.01194 291.7 6.2
295(9) 0.01030 291.7 6.3
303(9) 0.01050 291.6 6.3
298(9) 0.01119 291.6 6.3
286(9) 0.01146 291.6 6.3
292(9) 0.01062 291.6 6.3
301(10) 0.00972 291.6 6.3
308(10) 0.00990 291.6 6.3
300(9) 0.01116 291.6 6.4
304(9) 0.01065 291.6 6.4
316(9) 0.01020 291.6 6.4
307(10) 0.01004 291.6 6.4
289(9) 0.01096 291.6 6.5
266(9) 0.01231 291.6 6.5
280(9) 0.01159 291.6 6.5
282(9) 0.01100 291.6 6.6
307(9) 0.01009 291.6 6.6
295(9) 0.01075 291.6 6.6
287(9) 0.01153 291.6 6.7
315(10) 0.00998 291.6 6.7
281(9) 0.01112 291.6 6.8
286(9) 0.01088 291.6 6.8
289(9) 0.01085 291.6 6.9
296(9) 0.01118 291.6 6.9
332(10) 0.00973 291.6 6.9
300(9) 0.01088 291.6 7.0
277(9) 0.01145 291.6 7.0
290(9) 0.01070 291.6 7.1
285(9) 0.01182 291.6 7.2
274(9) 0.01131 291.6 7.2
300(9) 0.01008 291.6 7.3
296(9) 0.01080 291.6 7.3
299(9) 0.01125 291.6 7.4
329(9) 0.01030 291.6 7.4
272(9) 0.01122 291.6 7.5
289(9) 0.01012 291.6 7.6
286(9) 0.01071 291.6 7.6
324(9) 0.01029 291.6 7.7
303(9) 0.01097 291.6 7.7
302(9) 0.01055 291.6 7.8
280(9) 0.01076 291.6 7.9
288(9) 0.01081 291.6 7.9
297(9) 0.01111 291.6 8.0
294(9) 0.01142 291.6 8.1
300(9) 0.01067 291.6 8.1
324(10) 0.00900 291.6 8.2
313(10) 0.00996 291.5 8.3
322(9) 0.01056 291.5 8.4
294(9) 0.01125 291.5 8.4
287(9) 0.01100 291.5 8.5
291(10) 0.01001 291.5 8.6
296(9) 0.01053 291.5 8.6
309(9) 0.01072 291.5 8.7
272(9) 0.01193 291.5 8.8
281(9) 0.01090 291.5 8.9
308(10) 0.00950 291.5 8.9
307(9) 0.01014 291.5 9.0
303(9) 0.01113 291.5 9.1
279(9) 0.01161 291.5 9.2
298(9) 0.01046 291.5 9.2
283(9) 0.01078 291.5 9.3
319(10) 0.00971 291.5 9.4
315(9) 0.01064 291.5 9.5
309(9) 0.01041 291.5 9.6
275(9) 0.01149 291.5 9.6
283(9) 0.01081 291.5 9.7
294(9) 0.01044 291.5 9.8
289(9) 0.01149 291.5 9.9
300(9) 0.01075 291.5 9.9
281(9) 0.01099 291.5 10.0
304(10) 0.00996 291.5 10.1
302(9) 0.01058 291.5 10.2
319(9) 0.01059 291.5 10.3
292(9) 0.01095 291.5 10.4
308(10) 0.00967 291.5 10.5
284(9) 0.01128 291.5 10.5
308(9) 0.01044 291.5 10.7
312(9) 0.01068 291.5 10.8
281(9) 0.01124 291.5 10.9
273(9) 0.01085 291.5 11.0
293(9) 0.01052 291.5 11.1
351(10) 0.00923 291.5 11.3
276(9) 0.01186 291.5 11.4
292(9) 0.01027 291.5 11.6
277(9) 0.01059 291.5 11.7
284(9) 0.01056 291.5 11.9
279(9) 0.01185 291.5 12.1
313(9) 0.01073 291.5 12.3
294(9) 0.01063 291.5 12.5
283(9) 0.01065 291.5 12.7
306(9) 0.01043 291.4 13.0
305(9) 0.01091 291.4 13.2
317(9) 0.01044 291.4 13.5
308(10) 0.01003 291.4 13.7
275(9) 0.01089 291.4 14.0
289(9) 0.01069 291.4 14.2
302(9) 0.01125 291.4 14.4
300(9) 0.01098 291.4 14.7
297(9) 0.01055 291.4 14.8
295(9) 0.01012 291.4 15.0
299(9) 0.01059 291.4 15.1
287(9) 0.01149 291.4 15.2
310(9) 0.01086 291.4 15.2
321(10) 0.00961 291.4 15.2
305(10) 0.00949 291.4 15.1
305(9) 0.01064 291.4 15.0
299(9) 0.01118 291.4 14.9
274(9) 0.01180 291.4 14.7
296(9) 0.01027 291.4 14.6
302(10) 0.00985 291.4 14.4
314(10) 0.00968 291.4 14.2
293(9) 0.01140 291.4 14.0
301(9) 0.01080 291.4 13.8
278(9) 0.01138 291.4 13.6
288(9) 0.01024 291.4 13.5
310(9) 0.01008 291.4 13.3
287(9) 0.01155 291.4 13.2
301(9) 0.01084 291.4 13.1
310(9) 0.01009 291.4 13.0
285(9) 0.01100 291.4 12.9
279(9) 0.01166 291.4 12.8
296(9) 0.01119 291.4 12.8
296(9) 0.01079 291.4 12.8
297(9) 0.01018 291.4 12.8
284(9) 0.01100 291.4 12.8
280(9) 0.01156 291.4 12.8
313(9) 0.01064 291.4 12.9
292(9) 0.01062 291.4 12.9
300(10) 0.00996 291.4 13.0
301(9) 0.01010 291.4 13.1
292(9) 0.01120 291.4 13.3
298(9) 0.01136 291.4 13.4
295(9) 0.01068 291.4 13.5
305(10) 0.00993 291.4 13.7
301(9) 0.01052 291.3 13.9
321(9) 0.01025 291.3 14.1
295(9) 0.01136 291.3 14.3
283(9) 0.01088 291.3 14.5
284(9) 0.01048 291.3 14.8
277(9) 0.01140 291.3 15.0
299(9) 0.01079 291.3 15.3
318(9) 0.01062 291.3 15.5
294(9) 0.01088 291.3 15.8
302(10) 0.00933 291.3 16.1
300(9) 0.01031 291.3 16.4
316(9) 0.01045 291.3 16.7
304(9) 0.01081 291.3 17.0
311(9) 0.01037 291.3 17.3
306(10) 0.01002 291.3 17.7
288(9) 0.01080 291.3 18.0
320(9) 0.01054 291.3 18.3
309(9) 0.01077 291.3 18.6
309(10) 0.01002 291.3 18.9
281(9) 0.01084 291.3 19.2
313(10) 0.00987 291.3 19.4
325(9) 0.01036 291.3 19.6
317(9) 0.01021 291.3 19.9
291(9) 0.01085 291.3 20.1
318(10) 0.00927 291.3 20.3
296(9) 0.01113 291.3 20.4
294(9) 0.01142 291.3 20.6
306(9) 0.01077 291.3 20.7
304(10) 0.01002 291.3 20.8
288(9) 0.01052 291.3 20.9
289(9) 0.01051 291.3 21.0
311(9) 0.01075 291.3 21.1
317(10) 0.01007 291.3 21.1
296(9) 0.01063 291.3 21.1
295(9) 0.01062 291.3 21.1
297(9) 0.01053 291.3 21.1
317(9) 0.01061 291.3 21.1
312(9) 0.01045 291.3 21.0
332(10) 0.00900 291.3 20.9
308(9) 0.01009 291.3 20.8
304(9) 0.01061 291.3 20.7
319(9) 0.01054 291.3 20.5
272(9) 0.01130 291.3 20.4
294(9) 0.01021 291.3 20.2
298(9) 0.01046 291.2 20.0
299(9) 0.01094 291.2 19.8
312(9) 0.01082 291.2 19.6
309(9) 0.01039 291.2 19.4
303(10) 0.01002 291.2 19.2
299(9) 0.01021 291.2 19.0
329(10) 0.00980 291.2 18.8
301(9) 0.01099 291.2 18.6
298(9) 0.01085 291.2 18.4
279(9) 0.01053 291.2 18.1
304(9) 0.01009 291.2 17.9
289(9) 0.01129 291.2 17.7
305(9) 0.01105 291.2 17.5
302(9) 0.01045 291.2 17.3
306(10) 0.00975 291.2 17.0
315(10) 0.00990 291.2 16.8
307(9) 0.01090 291.2 16.6
296(9) 0.01120 291.2 16.4
284(9) 0.01131 291.2 16.2
287(10) 0.00991 291.2 15.9
279(9) 0.01109 291.2 15.7
291(9) 0.01156 291.2 15.5
295(9) 0.01125 291.2 15.3
313(10) 0.01004 291.2 15.1
308(10) 0.00944 291.2 14.9
305(9) 0.01022 291.2 14.8
299(9) 0.01104 291.2 14.6
296(9) 0.01118 291.2 14.4
306(9) 0.01030 291.2 14.2
279(9) 0.01102 291.2 14.1
283(9) 0.01099 291.2 13.9
293(9) 0.01149 291.2 13.7
312(9) 0.01041 291.2 13.6
298(9) 0.01079 291.2 13.4
343(10) 0.00899 291.2 13.3
319(10) 0.00978 291.2 13.1
293(9) 0.01136 291.2 13.0
310(9) 0.01082 291.2 12.9
293(9) 0.01099 291.2 12.7
288(9) 0.01096 291.2 12.6
283(9) 0.01099 291.2 12.5
304(9) 0.01095 291.2 12.4
283(9) 0.01140 291.2 12.3
303(10) 0.00966 291.2 12.1
303(9) 0.01031 291.1 12.0
297(9) 0.01078 291.1 11.9
272(9) 0.01213 291.1 11.8
312(9) 0.01013 291.1 11.8
314(10) 0.00975 291.1 11.7
290(9) 0.01092 291.1 11.6
292(9) 0.01115 291.1 11.5
294(9) 0.01126 291.1 11.5
306(9) 0.01026 291.1 11.4
311(10) 0.00956 291.1 11.3
297(9) 0.01047 291.1 11.3
307(9) 0.01049 291.1 11.2
279(9) 0.01192 291.1 11.2
296(9) 0.01041 291.1 11.1
290(9) 0.01054 291.1 11.1
293(9) 0.01073 291.1 11.1
276(9) 0.01190 291.1 11.0
291(9) 0.01141 291.1 11.0
296(9) 0.01085 291.1 11.0
282(9) 0.01035 291.1 11.0
273(9) 0.01145 291.1 10.9
287(9) 0.01148 291.1 10.9
280(9) 0.01210 291.1 10.9
298(9) 0.01105 291.1 10.9
301(10) 0.00945 291.1 10.9
293(9) 0.01059 291.1 10.8
283(9) 0.01184 291.1 10.8
274(9) 0.01166 291.1 10.8
279(9) 0.01098 291.1 10.8
306(10) . . .
283(9) . . .
312(9) . . .
281(9) . . .
313(10) . . .
298(9) . . .
319(10) . . .
291(9) . . .
286(9) . . .
294(9) . . .
304(10) . . .
290(9) . . .
302(9) . . .
256(8) . . .
291(9) . . .
297(9) . . .
301(9) . . .
279(9) . . .
298(9) . . .
306(10) . . .
274(9) . . .
292(9) . . .
270(9) . . .
276(9) . . .
298(9) . . .
336(10) . . .
327(10) . . .
301(9) . . .
290(9) . . .
307(10) . . .
314(10) . . .
329(10) . . .
323(9) . . .
293(9) . . .
321(10) . . .
311(9) . . .
321(9) . . .
297(9) . . .
289(9) . . .
307(10) . . .
343(10) . . .
293(9) . . .
289(9) . . .
290(9) . . .
316(10) . . .
300(9) . . .
294(9) . . .
332(10) . . .
315(10) . . .
314(10) . . .
312(9) . . .
296(9) . . .
274(9) . . .
326(10) . . .
296(9) . . .
308(9) . . .
285(9) . . .
291(9) . . .
317(10) . . .
283(9) . . .
297(9) . . .
290(9) . . .
304(9) . . .
319(10) . . .
308(10) . . .
283(9) . . .
289(9) . . .
294(9) . . .
267(9) . . .
297(9) . . .
293(9) . . .
297(9) . . .
302(9) . . .
310(10) . . .
266(9) . . .
288(9) . . .
288(9) . . .
291(9) . . .
294(9) . . .
302(10) . . .
305(9) . . .
293(9) . . .
300(9) . . .
281(9) . . .
279(9) . . .
285(9) . . .
304(9) . . .
293(9) . . .
248(8) . . .
306(9) . . .
309(9) . . .
304(9) . . .
285(9) . . .
308(10) . . .
279(9) . . .
314(9) . . .
288(9) . . .
281(9) . . .
273(9) . . .
293(9) . . .
285(9) . . .
285(9) . . .
265(9) . . .
313(10) . . .
302(9) . . .
288(9) . . .
287(9) . . .
263(9) . . .
259(9) . . .
292(9) . . .
268(8) . . .
275(9) . . .
297(9) . . .
322(10) . . .
280(9) . . .
311(9) . . .
300(9) . . .
290(9) . . .
289(9) . . .
297(9) . . .
288(9) . . .
280(9) . . .
297(9) . . .
277(9) . . .
262(9) . . .
283(9) . . .
294(9) . . .
265(9) . . .
291(9) . . .
276(9) . . .
254(8) . . .
287(9) . . .
279(9) . . .
302(9) . . .
285(9) . . .
270(9) . . .
277(9) . . .
277(9) . . .
299(9) . . .
262(8) . . .
299(9) . . .
297(9) . . .
312(10) . . .
292(9) . . .
268(9) . . .
259(8) . . .
272(9) . . .
289(10) . . .
263(9) . . .
264(8) . . .
269(9) . . .
285(9) . . .
277(9) . . .
269(9) . . .
285(9) . . .
280(9) . . .
266(9) . . .
269(9) . . .
277(9) . . .
282(9) . . .
277(9) . . .
266(9) . . .
272(9) . . .
284(9) . . .
276(9) . . .
279(9) . . .
266(9) . . .
269(9) . . .
273(9) . . .
297(9) . . .
264(9) . . .
277(9) . . .
294(10) . . .
276(9) . . .
289(9) . . .
271(9) . . .
274(9) . . .
280(9) . . .
311(9) . . .
247(8) . . .
269(9) . . .
285(9) . . .
279(9) . . .
306(9) . . .
298(9) . . .
306(9) . . .
280(9) . . .
279(9) . . .
277(9) . . .
288(9) . . .
293(9) . . .
309(10) . . .
298(9) . . .
297(9) . . .
268(8) . . .
286(9) . . .
276(9) . . .
273(9) . . .
265(8) . . .
258(8) . . .
282(9) . . .
263(9) . . .
264(9) . . .
279(9) . . .
282(9) . . .
286(9) . . .
280(9) . . .
282(9) . . .
284(9) . . .
283(9) . . .
279(9) . . .
267(9) . . .
257(9) . . .
271(9) . . .
289(9) . . .
243(8) . . .
248(9) . . .
262(9) . . .
269(9) . . .
249(8) . . .
282(9) . . .
283(9) . . .
259(9) . . .
258(8) . . .
285(9) . . .
283(9) . . .
278(9) . . .
269(9) . . .
274(9) . . .
266(9) . . .
276(9) . . .
292(9) . . .
277(9) . . .
266(9) . . .
284(9) . . .
276(9) . . .
278(9) . . .
269(9) . . .
254(8) . . .
290(9) . . .
275(9) . . .
292(9) . . .
282(9) . . .
274(9) . . .
289(9) . . .
285(9) . . .
274(9) . . .
297(9) . . .
286(9) . . .
273(9) . . .
259(9) . . .
265(9) . . .
300(9) . . .
298(9) . . .
276(9) . . .
251(9) . . .
287(9) . . .
270(9) . . .
272(9) . . .
277(9) . . .
264(9) . . .
248(8) . . .
260(8) . . .
307(9) . . .
298(9) . . .
281(9) . . .
278(9) . . .
276(9) . . .
265(9) . . .
258(9) . . .
265(9) . . .
278(9) . . .
286(9) . . .
285(9) . . .
278(9) . . .
284(9) . . .
257(8) . . .
280(9) . . .
296(9) . . .
271(9) . . .
258(9) . . .
293(9) . . .
261(8) . . .
275(9) . . .
274(9) . . .
307(9) . . .
277(9) . . .
281(9) . . .
285(9) . . .
279(9) . . .
252(8) . . .
291(9) . . .
265(8) . . .
285(9) . . .
278(9) . . .
286(9) . . .
292(9) . . .
302(9) . . .
304(9) . . .
300(10) . . .
300(9) . . .
309(9) . . .
321(9) . . .
302(9) . . .
316(10) . . .
315(10) . . .
294(9) . . .
306(9) . . .
289(9) . . .
277(9) . . .
288(9) . . .
296(9) . . .
269(8) . . .
265(9) . . .
273(9) . . .
300(9) . . .
314(9) . . .
270(9) . . .
272(9) . . .
315(10) . . .
291(9) . . .
304(9) . . .
273(9) . . .
278(9) . . .
297(10) . . .
275(9) . . .
282(9) . . .
287(9) . . .
280(9) . . .
271(9) . . .
282(9) . . .
274(9) . . .
270(9) . . .
286(9) . . .
259(9) . . .
282(9) . . .
273(9) . . .
272(9) . . .
282(9) . . .
281(9) . . .
282(9) . . .
271(9) . . .
277(9) . . .
292(9) . . .
292(9) . . .
273(9) . . .
281(9) . . .
299(9) . . .
263(9) . . .
298(9) . . .
295(9) . . .
321(9) . . .
307(9) . . .
288(9) . . .
279(9) . . .
299(9) . . .
287(9) . . .
280(9) . . .
274(9) . . .
255(9) . . .
284(9) . . .
301(9) . . .
299(10) . . .
282(9) . . .
286(9) . . .
283(9) . . .
288(9) . . .
304(9) . . .
289(9) . . .
280(9) . . .
311(9) . . .
323(10) . . .
298(9) . . .
303(9) . . .
278(9) . . .
281(9) . . .
272(9) . . .
298(9) . . .
308(10) . . .
285(9) . . .
262(8) . . .
300(9) . . .
271(9) . . .
276(9) . . .
295(9) . . .
280(9) . . .
320(10) . . .
270(9) . . .
285(9) . . .
305(9) . . .
300(9) . . .
310(9) . . .
298(10) . . .
297(9) . . .
300(9) . . .
282(9) . . .
280(9) . . .
274(9) . . .
285(9) . . .
288(9) . . .
312(9) . . .
271(9) . . .
285(9) . . .
283(9) . . .
279(9) . . .
335(10) . . .
290(9) . . .
293(9) . . .
294(9) . . .
288(9) . . .
300(9) . . .
325(10) . . .
301(10) . . .
290(9) . . .
276(9) . . .
283(9) . . .
285(9) . . .
301(9) . . .
289(9) . . .
302(9) . . .
287(9) . . .
297(9) . . .
296(9) . . .
285(9) . . .
279(9) . . .
291(9) . . .
306(10) . . .
298(9) . . .
267(9) . . .
270(8) . . .
292(9) . . .
274(9) . . .
282(9) . . .
290(9) . . .
297(9) . . .
283(9) . . .
273(9) . . .
285(9) . . .
283(9) . . .
274(9) . . .
266(9) . . .
263(9) . . .
254(8) . . .
280(9) . . .
283(9) . . .
283(9) . . .
285(9) . . .
267(9) . . .
270(9) . . .
283(9) . . .
281(9) . . .
286(9) . . .
271(9) . . .
267(9) . . .
279(9) . . .
260(9) . . .
266(9) . . .
269(9) . . .
265(8) . . .
257(8) . . .
291(9) . . .
254(9) . . .
257(9) . . .
268(8) . . .
272(9) . . .
279(9) . . .
254(9) . . .
266(9) . . .
272(9) . . .
266(9) . . .
280(9) . . .
282(9) . . .
242(8) . . .
240(8) . . .
260(9) . . .
272(9) . . .
264(9) . . .
256(8) . . .
246(8) . . .
260(9) . . .
264(9) . . .
281(9) . . .
260(8) . . .
282(9) . . .
264(9) . . .
278(9) . . .
289(9) . . .
247(8) . . .
248(8) . . .
254(9) . . .
252(9) . . .
258(9) . . .
273(9) . . .
262(8) . . .
251(9) . . .
261(9) . . .
263(9) . . .
272(9) . . .
265(8) . . .
252(8) . . .
249(9) . . .
246(8) . . .
248(8) . . .
251(8) . . .
253(8) . . .
259(9) . . .
269(9) . . .
258(8) . . .
274(9) . . .
270(9) . . .
260(9) . . .
277(9) . . .
289(9) . . .
275(9) . . .
256(8) . . .
271(9) . . .
256(9) . . .
262(8) . . .
265(9) . . .
250(9) . . .
264(9) . . .
254(9) . . .
260(8) . . .
225(8) . . .
240(8) . . .
281(9) . . .
232(8) . . .
280(9) . . .
256(9) . . .
246(8) . . .
262(9) . . .
265(9) . . .
243(8) . . .
255(9) . . .
261(9) . . .
258(9) . . .
246(8) . . .
280(9) . . .
282(9) . . .
275(9) . . .
276(9) . . .
264(8) . . .
280(9) . . .
252(9) . . .
254(9) . . .
264(9) . . .
248(8) . . .
280(9) . . .
263(9) . . .
268(9) . . .
254(9) . . .
239(8) . . .
265(9) . . .
245(8) . . .
267(9) . . .
273(9) . . .
247(8) . . .
239(8) . . .
255(8) . . .
261(9) . . .
269(9) . . .
264(8) . . .
251(8) . . .
267(9) . . .
276(9) . . .
256(9) . . .
267(8) . . .
266(9) . . .
254(9) . . .
273(9) . . .
214(8) . . .
262(8) . . .
263(9) . . .
266(9) . . .
249(8) . . .
250(8) . . .
285(9) . . .
268(9) . . .
267(9) . . .
270(9) . . .
250(8) . . .
248(8) . . .
260(9) . . .
263(9) . . .
252(8) . . .
248(8) . . .
238(8) . . .
260(9) . . .
258(9) . . .
282(9) . . .
285(9) . . .
278(9) . . .
244(8) . . .
254(9) . . .
240(8) . . .
262(8) . . .
260(8) . . .
287(9) . . .
261(9) . . .
282(9) . . .
263(8) . . .
254(8) . . .
269(9) . . .
248(9) . . .
237(8) . . .
261(8) . . .
256(8) . . .
256(9) . . .
254(9) . . .
255(8) . . .
269(9) . . .
257(8) . . .
281(9) . . .
258(9) . . .
267(9) . . .
261(8) . . .
261(9) . . .
259(9) . . .
262(9) . . .
249(8) . . .
256(8) . . .
256(9) . . .
242(8) . . .
255(9) . . .
265(9) . . .
267(8) . . .
263(9) . . .
237(8) . . .
270(9) . . .
266(9) . . .
254(8) . . .
267(9) . . .
263(9) . . .
263(9) . . .
271(9) . . .
283(9) . . .
265(9) . . .
272(9) . . .
267(9) . . .
263(8) . . .
258(8) . . .
287(9) . . .
263(9) . . .
262(9) . . .
275(9) . . .
281(9) . . .
282(9) . . .
279(9) . . .
260(8) . . .
245(8) . . .
268(9) . . .
292(9) . . .
252(9) . . .
254(9) . . .
235(8) . . .
253(8) . . .
246(8) . . .
267(9) . . .
289(9) . . .
252(8) . . .
238(8) . . .
251(8) . . .
234(8) . . .
247(8) . . .
264(8) . . .
245(8) . . .
250(8) . . .
259(9) . . .
238(8) . . .
247(8) . . .
257(8) . . .
262(9) . . .
263(9) . . .
246(8) . . .
256(8) . . .
249(9) . . .
235(8) . . .
253(9) . . .
247(8) . . .
268(9) . . .
257(8) . . .
268(9) . . .
261(9) . . .
236(8) . . .
251(8) . . .
246(9) . . .
225(8) . . .
233(8) . . .
253(8) . . .
242(8) . . .
245(8) . . .
253(9) . . .
259(9) . . .
239(8) . . .
258(8) . . .
257(9) . . .
256(9) . . .
247(8) . . .
235(8) . . .
259(8) . . .
240(8) . . .
251(9) . . .
261(9) . . .
234(8) . . .
250(8) . . .
265(9) . . .
260(9) . . .
276(9) . . .
254(8) . . .
255(8) . . .
256(9) . . .
237(8) . . .
267(9) . . .
250(8) . . .
271(9) . . .
254(9) . . .
259(9) . . .
269(9) . . .
254(8) . . .
263(8) . . .
257(9) . . .
255(9) . . .
265(9) . . .
256(8) . . .
254(9) . . .
244(9) . . .
236(8) . . .
237(8) . . .
228(8) . . .
238(8) . . .
238(9) . . .
239(8) . . .
232(8) . . .
235(8) . . .
238(8) . . .
268(9) . . .
253(9) . . .
252(8) . . .
232(8) . . .
251(9) . . .
244(9) . . .
229(8) . . .
236(8) . . .
228(8) . . .
263(9) . . .
256(9) . . .
260(9) . . .
247(8) . . .
263(8) . . .
274(9) . . .
242(9) . . .
246(8) . . .
232(8) . . .
252(8) . . .
254(9) . . .
236(8) . . .
248(8) . . .
263(8) . . .
270(9) . . .
253(9) . . .
238(8) . . .
262(9) . . .
274(9) . . .
251(8) . . .
263(9) . . .
256(9) . . .
271(9) . . .
253(8) . . .
259(8) . . .
252(8) . . .
272(9) . . .
260(9) . . .
267(9) . . .
258(8) . . .
259(9) . . .
278(9) . . .
282(9) . . .
264(8) . . .
253(9) . . .
249(8) . . .
268(9) . . .
258(9) . . .
244(8) . . .
260(9) . . .
251(9) . . .
217(8) . . .
250(9) . . .
258(8) . . .
264(9) . . .
262(9) . . .
255(9) . . .
244(8) . . .
253(8) . . .
242(8) . . .
250(9) . . .
261(9) . . .
274(9) . . .
249(8) . . .
232(8) . . .
246(9) . . .
213(8) . . .
223(8) . . .
257(8) . . .
227(8) . . .
226(8) . . .
246(8) . . .
240(8) . . .
233(8) . . .
216(8) . . .
245(9) . . .
242(8) . . .
248(8) . . .
232(8) . . .
241(8) . . .
245(9) . . .
246(8) . . .
217(8) . . .
219(8) . . .
221(8) . . .
232(8) . . .
227(8) . . .
235(8) . . .
194(7) . . .
220(8) . . .
226(8) . . .
244(8) . . .
230(8) . . .
228(8) . . .
247(9) . . .
236(8) . . .
234(8) . . .
230(8) . . .
237(8) . . .
230(8) . . .
221(8) . . .
218(8) . . .
228(8) . . .
226(8) . . .
227(8) . . .
206(8) . . .
227(8) . . .
249(8) . . .
228(8) . . .
238(9) . . .
216(8) . . .
226(8) . . .
234(8) . . .
240(8) . . .
216(8) . . .
243(8) . . .
230(8) . . .
220(8) . . .
221(8) . . .
251(9) . . .
231(8) . . .
224(8) . . .
238(8) . . .
225(8) . . .
229(8) . . .
237(8) . . .
228(8) . . .
223(8) . . .
219(8) . . .
218(8) . . .
240(8) . . .
196(7) . . .
225(8) . . .
219(8) . . .
220(8) . . .
228(8) . . .
234(8) . . .
213(8) . . .
239(8) . . .
226(8) . . .
240(8) . . .
226(8) . . .
227(8) . . .
216(8) . . .
211(8) . . .
215(8) . . .
226(8) . . .
212(8) . . .
228(8) . . .
239(8) . . .
239(8) . . .
223(8) . . .
220(8) . . .
221(8) . . .
231(8) . . .
234(8) . . .
219(8) . . .
213(8) . . .
216(8) . . .
225(8) . . .
226(8) . . .
219(8) . . .
222(8) . . .
212(8) . . .
221(8) . . .
222(8) . . .
247(8) . . .
228(8) . . .
229(9) . . .
207(8) . . .
230(8) . . .
226(8) . . .
228(8) . . .
211(8) . . .
225(8) . . .
236(8) . . .
240(8) . . .
229(8) . . .
228(8) . . .
222(8) . . .
216(8) . . .
205(7) . . .
211(8) . . .
210(8) . . .
221(8) . . .
231(8) . . .
234(8) . . .
210(8) . . .
202(8) . . .
228(8) . . .
228(8) . . .
232(8) . . .
222(8) . . .
237(8) . . .
211(8) . . .
210(8) . . .
236(8) . . .
220(8) . . .
222(8) . . .
223(8) . . .
226(8) . . .
200(8) . . .
220(8) . . .
218(8) . . .
212(8) . . .
215(8) . . .
224(8) . . .
200(8) . . .
222(8) . . .
197(7) . . .
212(8) . . .
225(8) . . .
231(8) . . .
213(8) . . .
234(8) . . .
232(8) . . .
219(8) . . .
227(8) . . .
223(8) . . .
234(8) . . .
236(8) . . .
239(8) . . .
226(8) . . .
240(8) . . .
229(8) . . .
219(8) . . .
207(8) . . .
238(9) . . .
233(8) . . .
241(8) . . .
223(8) . . .
216(8) . . .
207(8) . . .
212(8) . . .
209(7) . . .
226(8) . . .
219(8) . . .
231(8) . . .
207(8) . . .
207(8) . . .
248(8) . . .
238(8) . . .
233(8) . . .
240(8) . . .
211(8) . . .
237(8) . . .
211(8) . . .
223(8) . . .
222(8) . . .
206(7) . . .
216(8) . . .
219(8) . . .
210(8) . . .
219(8) . . .
206(7) . . .
214(8) . . .
231(8) . . .
238(8) . . .
231(8) . . .
229(8) . . .
241(8) . . .
221(8) . . .
230(8) . . .
235(8) . . .
237(8) . . .
242(8) . . .
216(8) . . .
204(8) . . .
238(8) . . .
224(8) . . .
197(8) . . .
191(8) . . .
205(7) . . .
230(8) . . .
216(8) . . .
223(8) . . .
214(8) . . .
218(8) . . .
188(7) . . .
233(8) . . .
233(8) . . .
233(8) . . .
226(8) . . .
217(8) . . .
220(8) . . .
202(7) . . .
240(8) . . .
208(8) . . .
229(8) . . .
228(8) . . .
227(8) . . .
213(8) . . .
213(8) . . .
211(8) . . .
209(8) . . .
222(8) . . .
211(8) . . .
224(8) . . .
236(8) . . .
224(8) . . .
240(9) . . .
205(8) . . .
219(8) . . .
236(8) . . .
210(8) . . .
224(8) . . .
238(8) . . .
200(7) . . .
226(8) . . .
233(8) . . .
216(8) . . .
221(8) . . .
227(8) . . .
228(8) . . .
196(7) . . .
214(8) . . .
211(8) . . .
240(8) . . .
221(8) . . .
217(8) . . .
234(9) . . .
227(8) . . .
204(7) . . .
214(8) . . .
225(8) . . .
204(8) . . .
233(8) . . .
216(8) . . .
225(8) . . .
209(8) . . .
236(9) . . .
230(8) . . .
221(8) . . .
221(8) . . .
238(8) . . .
217(8) . . .
229(8) . . .
218(8) . . .
217(8) . . .
227(8) . . .
228(8) . . .
221(8) . . .
221(8) . . .
228(8) . . .
219(8) . . .
213(8) . . .
211(8) . . .
210(7) . . .
223(8) . . .
228(8) . . .
212(8) . . .
234(8) . . .
227(8) . . .
233(8) . . .
222(8) . . .
228(8) . . .
226(8) . . .
252(8) . . .
221(8) . . .
225(8) . . .
225(8) . . .
220(8) . . .
204(7) . . .
212(8) . . .
217(8) . . .
232(8) . . .
221(8) . . .
216(8) . . .
208(8) . . .
221(8) . . .
222(8) . . .
216(8) . . .
217(8) . . .
224(8) . . .
213(8) . . .
205(8) . . .
211(8) . . .
222(8) . . .
219(8) . . .
209(8) . . .
220(8) . . .
228(8) . . .
226(8) . . .
208(8) . . .
217(8) . . .
228(8) . . .
227(8) . . .
194(7) . . .
223(8) . . .
226(8) . . .
209(8) . . .
182(7) . . .
207(8) . . .
208(8) . . .
207(8) . . .
219(8) . . .
212(8) . . .
211(8) . . .
212(8) . . .
213(8) . . .
205(8) . . .
205(7) . . .
207(8) . . .
183(7) . . .
194(8) . . .
211(8) . . .
224(8) . . .
214(8) . . .
205(8) . . .
196(7) . . .
199(7) . . .
214(8) . . .
219(8) . . .
217(8) . . .
209(8) . . .
188(7) . . .
193(7) . . .
221(8) . . .
185(7) . . .
220(8) . . .
228(8) . . .
199(7) . . .
211(8) . . .
221(8) . . .
202(7) . . .
207(7) . . .
211(8) . . .
216(8) . . .
201(8) . . .
208(8) . . .
193(7) . . .
226(8) . . .
209(8) . . .
219(8) . . .
215(8) . . .
218(8) . . .
221(8) . . .
201(8) . . .
207(8) . . .
202(8) . . .
207(7) . . .
193(7) . . .
202(8) . . .
234(8) . . .
221(8) . . .
203(7) . . .
208(8) . . .
205(8) . . .
193(7) . . .
205(8) . . .
210(7) . . .
220(8) . . .
200(8) . . .
216(8) . . .
223(8) . . .
219(8) . . .
217(8) . . .
213(8) . . .
216(8) . . .
190(7) . . .
207(7) . . .
200(8) . . .
202(8) . . .
208(8) . . .
202(7) . . .
218(8) . . .
197(7) . . .
200(8) . . .
212(8) . . .
196(7) . . .
208(8) . . .
204(8) . . .
194(8) . . .
197(8) . . .
211(7) . . .
202(7) . . .
191(7) . . .
208(8) . . .
196(8) . . .
211(8) . . .
202(7) . . .
195(7) . . .
212(8) . . .
211(8) . . .
199(7) . . .
195(7) . . .
188(7) . . .
200(8) . . .
197(8) . . .
210(8) . . .
193(7) . . .
200(8) . . .
210(8) . . .
194(7) . . .
204(7) . . .
195(7) . . .
219(8) . . .
215(8) . . .
208(8) . . .
208(7) . . .
207(8) . . .
203(8) . . .
212(8) . . .
205(8) . . .
193(7) . . .
202(8) . . .
190(7) . . .
217(8) . . .
216(8) . . .
206(8) . . .
196(7) . . .
203(8) . . .
184(7) . . .
219(8) . . .
217(8) . . .
201(8) . . .
190(8) . . .
213(8) . . .
201(7) . . .
201(7) . . .
201(7) . . .
209(8) . . .
212(8) . . .
222(8) . . .
186(7) . . .
219(8) . . .
193(8) . . .
205(8) . . .
198(7) . . .
211(8) . . .
213(8) . . .
188(7) . . .
199(8) . . .
194(7) . . .
220(8) . . .
197(8) . . .
187(7) . . .
212(8) . . .
200(7) . . .
226(8) . . .
197(8) . . .
216(8) . . .
201(8) . . .
203(7) . . .
206(8) . . .
223(8) . . .
212(8) . . .
200(7) . . .
201(7) . . .
219(8) . . .
213(8) . . .
211(8) . . .
216(8) . . .
188(7) . . .
214(8) . . .
223(8) . . .
207(8) . . .
192(7) . . .
172(7) . . .
210(8) . . .
203(8) . . .
201(7) . . .
215(8) . . .
187(7) . . .
176(7) . . .
198(8) . . .
228(8) . . .
212(8) . . .
216(8) . . .
226(8) . . .
212(8) . . .
206(8) . . .
200(7) . . .
208(7) . . .
204(8) . . .
206(8) . . .
212(8) . . .
209(7) . . .
201(7) . . .
199(8) . . .
188(8) . . .
215(8) . . .
221(8) . . .
195(7) . . .
205(8) . . .
191(8) . . .
194(8) . . .
209(8) . . .
215(8) . . .
203(8) . . .
201(8) . . .
221(8) . . .
199(7) . . .
187(7) . . .
233(9) . . .
201(8) . . .
198(7) . . .
205(7) . . .
212(8) . . .
242(9) . . .
185(7) . . .
196(7) . . .
211(8) . . .
223(8) . . .
219(8) . . .
202(8) . . .
205(8) . . .
213(8) . . .
204(8) . . .
206(8) . . .
194(7) . . .
211(8) . . .
236(8) . . .
209(8) . . .
214(8) . . .
216(8) . . .
207(7) . . .
194(7) . . .
212(8) . . .
209(8) . . .
195(7) . . .
211(7) . . .
199(7) . . .
208(8) . . .
200(8) . . .
206(8) . . .
200(7) . . .
198(7) . . .
206(8) . . .
200(8) . . .
194(7) . . .
203(7) . . .
194(7) . . .
187(7) . . .
195(8) . . .
217(8) . . .
210(8) . . .
202(8) . . .
198(8) . . .
181(7) . . .
206(8) . . .
204(7) . . .
198(8) . . .
188(8) . . .
186(8) . . .
215(8) . . .
187(7) . . .
217(8) . . .
223(8) . . .
197(8) . . .
209(8) . . .
210(8) . . .
214(8) . . .
181(7) . . .
201(8) . . .
219(8) . . .
214(8) . . .
217(8) . . .
204(8) . . .
217(8) . . .
180(7) . . .
188(7) . . .
203(8) . . .
192(8) . . .
201(8) . . .
193(7) . . .
191(7) . . .
208(8) . . .
200(8) . . .
196(8) . . .
192(7) . . .
173(7) . . .
213(8) . . .
199(8) . . .
199(7) . . .
180(7) . . .
186(7) . . .
177(7) . . .
184(8) . . .
202(8) . . .
179(7) . . .
206(8) . . .
194(8) . . .
178(7) . . .
208(8) . . .
212(8) . . .
220(8) . . .
199(8) . . .
211(8) . . .
223(8) . . .
194(7) . . .
191(7) . . .
206(8) . . .
199(8) . . .
221(8) . . .
218(8) . . .
212(8) . . .
199(8) . . .
208(8) . . .
215(8) . . .
210(7) . . .
225(8) . . .
209(8) . . .
212(8) . . .
177(7) . . .
180(7) . . .
202(8) . . .
187(7) . . .
194(8) . . .
201(7) . . .
183(7) . . .
195(7) . . .
227(8) . . .
203(7) . . .
199(7) . . .
196(7) . . .
195(8) . . .
199(8) . . .
195(7) . . .
192(7) . . .
188(7) . . .
181(7) . . .
198(8) . . .
189(7) . . .
214(8) . . .
203(7) . . .
187(7) . . .
175(7) . . .
183(7) . . .
204(7) . . .
201(7) . . .
193(7) . . .
186(7) . . .
208(8) . . .
179(7) . . .
192(7) . . .
203(8) . . .
192(7) . . .
191(7) . . .
196(7) . . .
181(7) . . .
214(8) . . .
186(7) . . .
176(7) . . .
193(7) . . .
191(7) . . .
182(7) . . .
188(7) . . .
192(8) . . .
186(7) . . .
194(7) . . .
178(7) . . .
188(8) . . .
198(7) . . .
196(7) . . .
179(7) . . .
185(7) . . .
191(7) . . .
202(8) . . .
194(7) . . .
197(8) . . .
201(8) . . .
202(8) . . .
205(8) . . .
195(7) . . .
195(8) . . .
194(8) . . .
188(7) . . .
211(8) . . .
193(7) . . .
188(7) . . .
200(8) . . .
196(8) . . .
188(7) . . .
209(7) . . .
199(8) . . .
179(7) . . .
182(7) . . .
196(7) . . .
201(7) . . .
193(8) . . .
179(7) . . .
201(8) . . .
206(7) . . .
200(7) . . .
188(7) . . .
195(8) . . .
210(8) . . .
169(7) . . .
184(7) . . .
201(8) . . .
193(8) . . .
200(8) . . .
193(7) . . .
203(7) . . .
217(8) . . .
203(8) . . .
196(7) . . .
189(7) . . .
193(8) . . .
206(8) . . .
194(8) . . .
181(7) . . .
189(7) . . .
193(7) . . .
190(8) . . .
188(7) . . .
199(7) . . .
208(7) . . .
186(7) . . .
175(7) . . .
203(8) . . .
159(7) . . .
171(7) . . .
176(7) . . .
194(8) . . .
178(7) . . .
201(7) . . .
172(7) . . .
163(7) . . .
172(8) . . .
181(7) . . .
174(7) . . .
185(7) . . .
184(7) . . .
194(8) . . .
188(7) . . .
180(7) . . .
190(7) . . .
176(7) . . .
186(8) . . .
186(7) . . .
175(7) . . .
203(8) . . .
192(7) . . .
185(7) . . .
196(7) . . .
179(7) . . .
209(8) . . .
163(7) . . .
187(8) . . .
171(7) . . .
172(7) . . .
170(7) . . .
174(7) . . .
181(7) . . .
187(7) . . .
168(7) . . .
208(8) . . .
200(8) . . .
194(7) . . .
202(8) . . .
195(7) . . .
205(8) . . .
191(7) . . .
175(7) . . .
177(7) . . .
177(7) . . .
184(7) . . .
179(7) . . .
175(7) . . .
195(7) . . .
211(8) . . .
188(7) . . .
177(7) . . .
185(7) . . .
191(7) . . .
190(7) . . .
202(8) . . .
185(7) . . .
184(7) . . .
177(7) . . .
196(7) . . .
172(7) . . .
179(7) . . .
196(7) . . .
189(7) . . .
188(7) . . .
194(7) . . .
183(7) . . .
188(7) . . .
179(7) . . .
210(8) . . .
203(8) . . .
194(8) . . .
177(7) . . .
203(7) . . .
168(7) . . .
199(8) . . .
189(7) . . .
171(7) . . .
177(7) . . .
165(7) . . .
177(7) . . .
187(8) . . .
186(7) . . .
168(7) . . .
203(8) . . .
181(7) . . .
179(7) . . .
154(7) . . .
181(7) . . .
194(7) . . .
196(8) . . .
195(7) . . .
195(7) . . .
216(8) . . .
237(8) . . .
202(8) . . .
197(8) . . .
176(7) . . .
177(7) . . .
189(7) . . .
197(8) . . .
191(7) . . .
214(8) . . .
183(7) . . .
211(8) . . .
188(8) . . .
205(8) . . .
215(8) . . .
189(7) . . .
201(8) . . .
201(8) . . .
208(8) . . .
193(7) . . .
196(7) . . .
202(8) . . .
193(8) . . .
200(8) . . .
196(7) . . .
197(7) . . .
200(8) . . .
198(8) . . .
174(7) . . .
191(7) . . .
190(7) . . .
193(8) . . .
169(7) . . .
174(7) . . .
206(7) . . .
195(7) . . .
200(8) . . .
183(7) . . .
173(7) . . .
180(7) . . .
189(7) . . .
191(7) . . .
196(8) . . .
191(7) . . .
189(7) . . .
196(7) . . .
213(8) . . .
195(8) . . .
177(7) . . .
190(7) . . .
214(8) . . .
173(7) . . .
183(7) . . .
198(7) . . .
194(7) . . .
200(8) . . .
194(8) . . .
183(7) . . .
174(7) . . .
192(7) . . .
183(7) . . .
194(8) . . .
177(7) . . .
207(7) . . .
191(7) . . .
178(7) . . .
186(8) . . .
191(8) . . .
181(7) . . .
200(7) . . .
182(8) . . .
185(8) . . .
183(7) . . .
195(7) . . .
193(7) . . .
191(7) . . .
175(7) . . .
173(7) . . .
180(7) . . .
191(7) . . .
189(7) . . .
186(8) . . .
181(7) . . .
185(7) . . .
184(7) . . .
182(7) . . .
182(7) . . .
178(7) . . .
163(7) . . .
184(7) . . .
181(7) . . .
188(7) . . .
185(7) . . .
196(7) . . .
191(7) . . .
191(7) . . .
187(7) . . .
183(7) . . .
202(7) . . .
185(7) . . .
193(7) . . .
191(8) . . .
160(7) . . .
185(7) . . .
182(7) . . .
185(8) . . .
181(7) . . .
173(7) . . .
189(7) . . .
174(7) . . .
168(7) . . .
191(7) . . .
168(7) . . .
196(7) . . .
185(7) . . .
163(7) . . .
200(8) . . .
189(7) . . .
190(7) . . .
196(7) . . .
170(7) . . .
171(7) . . .
187(7) . . .
176(7) . . .
195(8) . . .
184(7) . . .
183(7) . . .
176(7) . . .
171(7) . . .
189(7) . . .
179(7) . . .
159(7) . . .
178(7) . . .
170(7) . . .
195(7) . . .
182(7) . . .
183(7) . . .
182(7) . . .
180(7) . . .
177(7) . . .
185(7) . . .
197(7) . . .
203(7) . . .
188(7) . . .
157(7) . . .
178(7) . . .
182(7) . . .
184(7) . . .
192(7) . . .
206(8) . . .
196(7) . . .
190(7) . . .
196(7) . . .
194(8) . . .
172(7) . . .
174(7) . . .
190(7) . . .
166(7) . . .
181(7) . . .
187(7) . . .
187(7) . . .
166(7) . . .
195(7) . . .
198(8) . . .
180(8) . . .
172(7) . . .
183(7) . . .
198(7) . . .
182(7) . . .
169(7) . . .
187(7) . . .
187(7) . . .
181(7) . . .
205(8) . . .
186(8) . . .
181(7) . . .
202(7) . . .
208(8) . . .
191(7) . . .
204(8) . . .
159(7) . . .
179(7) . . .
183(7) . . .
156(7) . . .
170(7) . . .
182(7) . . .
188(7) . . .
181(7) . . .
184(7) . . .
191(7) . . .
200(8) . . .
185(7) . . .
185(7) . . .
177(7) . . .
182(7) . . .
191(7) . . .
183(7) . . .
192(8) . . .
169(7) . . .
176(7) . . .
186(7) . . .
204(7) . . .
200(8) . . .
181(7) . . .
176(7) . . .
171(7) . . .
171(7) . . .
172(7) . . .
183(7) . . .
182(7) . . .
199(7) . . .
172(7) . . .
181(7) . . .
188(8) . . .
183(7) . . .
187(7) . . .
181(7) . . .
183(7) . . .
171(7) . . .
197(7) . . .
190(7) . . .
200(7) . . .
164(7) . . .
193(8) . . .
169(7) . . .
171(7) . . .
183(7) . . .
167(7) . . .
160(7) . . .
160(7) . . .
181(7) . . .
169(7) . . .
172(7) . . .
178(7) . . .
173(7) . . .
170(7) . . .
173(7) . . .
180(7) . . .
171(7) . . .
181(7) . . .
168(7) . . .
180(7) . . .
172(7) . . .
160(7) . . .
177(7) . . .
177(7) . . .
186(7) . . .
165(7) . . .
163(7) . . .
173(7) . . .
178(7) . . .
179(7) . . .
167(7) . . .
181(7) . . .
180(7) . . .
172(7) . . .
186(7) . . .
160(7) . . .
168(7) . . .
161(7) . . .
162(7) . . .
162(7) . . .
158(7) . . .
170(7) . . .
191(7) . . .
187(7) . . .
180(7) . . .
194(8) . . .
201(8) . . .
190(7) . . .
179(7) . . .
163(7) . . .
165(7) . . .
173(7) . . .
187(7) . . .
181(7) . . .
179(7) . . .
160(7) . . .
174(7) . . .
177(7) . . .
176(7) . . .
190(8) . . .
185(8) . . .
174(7) . . .
167(7) . . .
170(7) . . .
185(8) . . .
161(7) . . .
176(7) . . .
196(7) . . .
175(7) . . .
189(8) . . .
181(7) . . .
147(6) . . .
177(7) . . .
176(7) . . .
184(7) . . .
169(7) . . .
169(7) . . .
177(7) . . .
184(7) . . .
162(7) . . .
172(7) . . .
180(7) . . .
186(7) . . .
156(7) . . .
178(7) . . .
186(7) . . .
178(7) . . .
197(7) . . .
194(7) . . .
197(8) . . .
205(8) . . .
191(7) . . .
183(7) . . .
169(7) . . .
167(7) . . .
175(7) . . .
189(7) . . .
170(7) . . .
171(7) . . .
174(7) . . .
157(7) . . .
172(7) . . .
192(7) . . .
184(7) . . .
184(8) . . .
168(7) . . .
199(7) . . .
172(7) . . .
188(7) . . .
175(7) . . .
196(8) . . .
170(7) . . .
186(7) . . .
156(7) . . .
179(7) . . .
171(7) . . .
187(7) . . .
194(7) . . .
180(7) . . .
193(8) . . .
169(7) . . .
190(7) . . .
168(7) . . .
178(7) . . .
161(7) . . .
174(7) . . .
175(7) . . .
168(7) . . .
174(7) . . .
180(7) . . .
169(7) . . .
185(7) . . .
181(7) . . .
186(7) . . .
171(7) . . .
176(7) . . .
179(7) . . .
175(7) . . .
184(7) . . .
176(7) . . .
181(7) . . .
196(7) . . .
191(7) . . .
163(7) . . .
171(7) . . .
166(7) . . .
151(6) . . .
160(7) . . .
150(7) . . .
181(7) . . .
162(7) . . .
193(7) . . .
189(7) . . .
181(8) . . .
177(7) . . .
164(7) . . .
173(7) . . .
167(7) . . .
175(7) . . .
170(7) . . .
189(7) . . .
164(7) . . .
195(8) . . .
173(7) . . .
164(7) . . .
172(7) . . .
190(7) . . .
184(7) . . .
179(7) . . .
176(7) . . .
187(7) . . .
189(7) . . .
207(8) . . .
168(7) . . .
184(7) . . .
160(7) . . .
185(7) . . .
167(7) . . .
174(7) . . .
155(7) . . .
195(7) . . .
178(7) . . .
173(7) . . .
156(7) . . .
165(7) . . .
169(7) . . .
163(7) . . .
168(7) . . .
172(7) . . .
181(7) . . .
187(7) . . .
189(7) . . .
168(7) . . .
192(8) . . .
180(7) . . .
183(7) . . .
165(7) . . .
167(7) . . .
188(7) . . .
195(7) . . .
158(7) . . .
183(7) . . .
180(8) . . .
180(7) . . .
167(7) . . .
182(7) . . .
181(7) . . .
201(8) . . .
193(8) . . .
186(7) . . .
191(7) . . .
181(7) . . .
176(7) . . .
200(8) . . .
185(7) . . .
160(7) . . .
179(7) . . .
190(8) . . .
179(7) . . .
170(7) . . .
166(7) . . .
174(7) . . .
200(8) . . .
177(7) . . .
177(7) . . .
172(7) . . .
160(7) . . .
173(7) . . .
152(6) . . .
181(7) . . .
166(7) . . .
178(7) . . .
196(7) . . .
178(7) . . .
173(7) . . .
165(7) . . .
166(7) . . .
182(7) . . .
170(7) . . .
178(7) . . .
178(7) . . .
180(7) . . .
175(7) . . .
171(7) . . .
176(7) . . .
176(7) . . .
168(7) . . .
180(7) . . .
156(6) . . .
184(7) . . .
172(7) . . .
176(7) . . .
178(7) . . .
177(7) . . .
176(7) . . .
172(7) . . .
163(7) . . .
178(7) . . .
168(7) . . .
155(7) . . .
160(6) . . .
182(7) . . .
182(7) . . .
160(7) . . .
181(7) . . .
163(7) . . .
160(7) . . .
170(7) . . .
175(7) . . .
181(7) . . .
172(7) . . .
190(8) . . .
185(7) . . .
165(7) . . .
174(7) . . .
181(7) . . .
191(7) . . .
175(7) . . .
174(7) . . .
174(7) . . .
170(7) . . .
155(6) . . .
199(7) . . .
193(7) . . .
189(7) . . .
162(7) . . .
154(7) . . .
186(7) . . .
185(7) . . .
193(7) . . .
160(7) . . .
163(7) . . .
155(6) . . .
167(7) . . .
170(7) . . .
170(7) . . .
172(7) . . .
194(7) . . .
174(7) . . .
171(7) . . .
153(7) . . .
172(7) . . .
168(7) . . .
174(7) . . .
165(7) . . .
180(8) . . .
167(7) . . .
190(7) . . .
166(7) . . .
156(7) . . .
166(7) . . .
174(7) . . .
180(7) . . .
177(7) . . .
158(7) . . .
182(7) . . .
154(6) . . .
173(7) . . .
180(7) . . .
175(7) . . .
175(7) . . .
193(7) . . .
199(7) . . .
183(7) . . .
194(8) . . .
181(7) . . .
176(7) . . .
200(7) . . .
182(7) . . .
189(7) . . .
196(8) . . .
185(7) . . .
188(7) . . .
200(8) . . .
176(7) . . .
176(7) . . .
175(7) . . .
164(7) . . .
185(8) . . .
199(8) . . .
176(7) . . .
195(7) . . .
168(7) . . .
160(7) . . .
169(7) . . .
178(7) . . .
184(7) . . .
176(7) . . .
173(7) . . .
163(7) . . .
160(7) . . .
173(7) . . .
174(7) . . .
163(7) . . .
153(7) . . .
181(7) . . .
189(7) . . .
197(7) . . .
189(7) . . .
175(7) . . .
184(8) . . .
178(7) . . .
177(7) . . .
151(6) . . .
165(7) . . .
174(7) . . .
174(7) . . .
181(7) . . .
185(7) . . .
173(7) . . .
166(7) . . .
163(7) . . .
165(7) . . .
164(7) . . .
178(7) . . .
170(7) . . .
186(7) . . .
172(7) . . .
167(7) . . .
187(8) . . .
170(7) . . .
189(7) . . .
192(8) . . .
168(7) . . .
178(7) . . .
170(7) . . .
171(7) . . .
153(7) . . .
185(8) . . .
167(7) . . .
189(7) . . .
176(7) . . .
165(7) . . .
165(7) . . .
203(8) . . .
165(7) . . .
179(7) . . .
182(7) . . .
164(7) . . .
167(7) . . .
175(7) . . .
163(7) . . .
185(7) . . .
194(8) . . .
186(7) . . .
171(7) . . .
173(7) . . .
184(7) . . .
170(7) . . .
185(7) . . .
191(7) . . .
183(7) . . .
163(7) . . .
167(7) . . .
196(7) . . .
179(7) . . .
162(7) . . .
177(7) . . .
161(7) . . .
166(7) . . .
181(7) . . .
167(7) . . .
161(7) . . .
164(7) . . .
176(7) . . .
173(7) . . .
176(7) . . .
186(8) . . .
183(7) . . .
185(7) . . .
161(7) . . .
186(7) . . .
192(8) . . .
177(7) . . .
161(7) . . .
169(7) . . .
190(8) . . .
157(7) . . .
181(7) . . .
171(7) . . .
186(7) . . .
179(7) . . .
165(7) . . .
163(7) . . .
170(7) . . .
165(7) . . .
173(7) . . .
156(7) . . .
154(6) . . .
184(7) . . .
165(7) . . .
186(7) . . .
157(7) . . .
174(7) . . .
170(7) . . .
184(7) . . .
176(7) . . .
179(7) . . .
185(7) . . .
156(6) . . .
178(7) . . .
192(8) . . .
180(7) . . .
169(7) . . .
185(7) . . .
183(7) . . .
168(7) . . .
183(8) . . .
180(7) . . .
194(7) . . .
183(7) . . .
193(8) . . .
190(7) . . .
180(7) . . .
179(7) . . .
165(7) . . .
166(7) . . .
170(7) . . .
174(7) . . .
182(7) . . .
171(7) . . .
193(8) . . .
182(7) . . .
183(7) . . .
194(7) . . .
180(7) . . .
171(7) . . .
174(7) . . .
162(7) . . .
177(7) . . .
184(7) . . .
181(8) . . .
198(8) . . .
176(7) . . .
161(7) . . .
195(8) . . .
180(7) . . .
174(7) . . .
178(7) . . .
185(7) . . .
192(7) . . .
186(7) . . .
201(8) . . .
172(7) . . .
165(7) . . .
186(7) . . .
178(7) . . .
174(7) . . .
177(7) . . .
175(7) . . .
187(7) . . .
183(7) . . .
180(7) . . .
160(7) . . .
161(7) . . .
158(7) . . .
177(7) . . .
169(7) . . .
166(7) . . .
170(7) . . .
186(8) . . .
165(7) . . .
204(8) . . .
174(7) . . .
172(7) . . .
172(7) . . .
189(7) . . .
208(8) . . .
185(7) . . .
202(8) . . .
168(7) . . .
181(7) . . .
195(7) . . .
189(7) . . .
187(7) . . .
161(7) . . .
190(8) . . .
193(7) . . .
171(7) . . .
166(7) . . .
187(8) . . .
185(7) . . .
187(7) . . .
209(7) . . .
187(7) . . .
184(8) . . .
196(8) . . .
190(7) . . .
204(7) . . .
194(7) . . .
192(8) . . .
172(7) . . .
186(7) . . .
204(8) . . .
195(8) . . .
187(8) . . .
182(7) . . .
177(7) . . .
184(7) . . .
179(7) . . .
197(8) . . .
175(7) . . .
178(7) . . .
195(7) . . .
178(7) . . .
185(8) . . .
187(7) . . .
189(7) . . .
170(7) . . .
162(7) . . .
173(7) . . .
165(7) . . .
179(7) . . .
165(7) . . .
193(8) . . .
191(8) . . .
184(7) . . .
180(7) . . .
184(7) . . .
173(7) . . .
180(7) . . .
184(7) . . .
177(7) . . .
169(7) . . .
179(7) . . .
161(7) . . .
185(7) . . .
174(7) . . .
178(7) . . .
199(8) . . .
178(7) . . .
172(7) . . .
175(7) . . .
184(7) . . .
184(8) . . .
179(7) . . .
180(7) . . .
176(7) . . .
171(7) . . .
183(8) . . .
174(7) . . .
172(7) . . .
189(7) . . .
151(7) . . .
195(8) . . .
160(7) . . .
166(7) . . .
160(7) . . .
174(7) . . .
178(7) . . .
176(7) . . .
191(7) . . .
192(7) . . .
165(7) . . .
192(7) . . .
197(8) . . .
172(7) . . .
193(7) . . .
202(8) . . .
172(7) . . .
180(7) . . .
184(7) . . .
174(7) . . .
197(8) . . .
191(8) . . .
182(7) . . .
172(7) . . .
186(7) . . .
178(7) . . .
182(7) . . .
169(7) . . .
182(7) . . .
187(7) . . .
191(8) . . .
163(7) . . .
171(7) . . .
177(7) . . .
163(7) . . .
172(7) . . .
157(7) . . .
167(7) . . .
166(7) . . .
168(7) . . .
187(7) . . .
180(7) . . .
177(7) . . .
165(7) . . .
180(7) . . .
185(7) . . .
209(8) . . .
168(7) . . .
167(7) . . .
198(8) . . .
172(7) . . .
173(7) . . .
154(6) . . .
174(7) . . .
170(7) . . .
172(7) . . .
175(7) . . .
175(7) . . .
151(6) . . .
175(7) . . .
169(7) . . .
179(7) . . .
178(7) . . .
180(7) . . .
166(7) . . .
195(8) . . .
164(7) . . .
155(6) . . .
173(7) . . .
163(7) . . .
168(7) . . .
173(7) . . .
177(7) . . .
163(7) . . .
177(7) . . .
172(7) . . .
183(7) . . .
179(7) . . .
170(7) . . .
165(7) . . .
173(7) . . .
165(7) . . .
169(7) . . .
179(7) . . .
176(7) . . .
201(8) . . .
170(7) . . .
171(7) . . .
152(7) . . .
191(8) . . .
165(7) . . .
188(7) . . .
175(7) . . .
161(7) . . .
160(7) . . .
168(7) . . .
181(7) . . .
170(7) . . .
167(7) . . .
173(7) . . .
183(7) . . .
175(7) . . .
170(7) . . .
181(7) . . .
162(7) . . .
175(7) . . .
191(7) . . .
176(7) . . .
184(7) . . .
160(7) . . .
170(7) . . .
172(7) . . .
194(7) . . .
185(7) . . .
181(7) . . .
184(7) . . .
183(7) . . .
173(7) . . .
182(7) . . .
159(7) . . .
167(7) . . .
171(7) . . .
168(7) . . .
139(6) . . .
183(7) . . .
177(7) . . .
161(7) . . .
166(7) . . .
179(7) . . .
171(7) . . .
163(7) . . .
160(7) . . .
148(6) . . .
159(7) . . .
181(7) . . .
171(7) . . .
199(7) . . .
177(7) . . .
170(7) . . .
165(7) . . .
171(7) . . .
165(7) . . .
159(7) . . .
155(7) . . .
199(8) . . .
182(7) . . .
184(7) . . .
187(7) . . .
183(7) . . .
164(7) . . .
171(7) . . .
188(7) . . .
180(7) . . .
175(7) . . .
180(7) . . .
184(7) . . .
189(7) . . .
184(7) . . .
206(8) . . .
176(7) . . .
166(7) . . .
181(7) . . .
184(7) . . .
159(7) . . .
168(7) . . .
191(7) . . .
153(6) . . .
171(7) . . .
173(7) . . .
177(7) . . .
180(7) . . .
192(7) . . .
190(8) . . .
165(7) . . .
178(7) . . .
160(7) . . .
186(7) . . .
185(8) . . .
181(7) . . .
163(7) . . .
164(7) . . .
179(7) . . .
166(7) . . .
179(7) . . .
192(7) . . .
173(7) . . .
176(7) . . .
165(7) . . .
182(7) . . .
154(6) . . .
158(7) . . .
179(7) . . .
184(7) . . .
190(7) . . .
159(7) . . .
166(7) . . .
176(7) . . .
178(7) . . .
178(7) . . .
186(7) . . .
184(7) . . .
163(7) . . .
180(8) . . .
171(7) . . .
171(7) . . .
162(7) . . .
158(7) . . .
172(7) . . .
176(7) . . .
169(7) . . .
179(7) . . .
177(7) . . .
169(7) . . .
177(8) . . .
189(7) . . .
172(7) . . .
147(6) . . .
157(7) . . .
194(7) . . .
183(7) . . .
185(7) . . .
176(7) . . .
173(7) . . .
183(7) . . .
170(7) . . .
179(7) . . .
175(7) . . .
187(7) . . .
149(6) . . .
164(7) . . .
160(7) . . .
181(8) . . .
167(7) . . .
165(7) . . .
192(7) . . .
183(7) . . .
157(7) . . .
181(7) . . .
182(7) . . .
167(7) . . .
180(7) . . .
182(7) . . .
156(6) . . .
181(7) . . .
185(7) . . .
204(8) . . .
183(8) . . .
174(7) . . .
189(7) . . .
184(7) . . .
181(7) . . .
189(8) . . .
174(7) . . .
168(7) . . .
175(7) . . .
183(7) . . .
182(7) . . .
174(7) . . .
169(7) . . .
184(7) . . .
192(8) . . .
167(7) . . .
178(7) . . .
169(7) . . .
181(7) . . .
175(7) . . .
178(7) . . .
186(7) . . .
181(7) . . .
191(7) . . .
188(7) . . .
193(7) . . .
162(7) . . .
162(7) . . .
183(7) . . .
209(8) . . .
196(8) . . .
178(7) . . .
168(7) . . .
163(7) . . .
181(7) . . .
188(7) . . .
166(7) . . .
177(7) . . .
186(7) . . .
203(8) . . .
164(7) . . .
167(7) . . .
179(7) . . .
184(7) . . .
174(7) . . .
203(8) . . .
202(7) . . .
178(7) . . .
169(7) . . .
173(7) . . .
190(7) . . .
186(7) . . .
171(7) . . .
192(7) . . .
182(8) . . .
177(7) . . .
193(7) . . .
200(7) . . .
192(7) . . .
178(7) . . .
201(8) . . .
179(7) . . .
193(7) . . .
180(7) . . .
177(7) . . .
172(7) . . .
165(7) . . .
175(7) . . .
154(7) . . .
175(7) . . .
171(7) . . .
195(7) . . .
195(7) . . .
188(7) . . .
185(7) . . .
161(7) . . .
163(7) . . .
192(7) . . .
170(7) . . .
161(7) . . .
182(7) . . .
177(7) . . .
198(7) . . .
156(7) . . .
178(7) . . .
186(7) . . .
166(7) . . .
164(7) . . .
181(8) . . .
173(7) . . .
157(7) . . .
142(6) . . .
179(7) . . .
182(7) . . .
197(7) . . .
184(7) . . .
174(7) . . .
165(7) . . .
180(7) . . .
175(7) . . .
161(7) . . .
145(6) . . .
160(7) . . .
174(7) . . .
150(7) . . .
163(7) . . .
149(6) . . .
174(7) . . .
167(7) . . .
148(7) . . .
147(6) . . .
174(7) . . .
163(7) . . .
159(7) . . .
170(7) . . .
170(7) . . .
182(7) . . .
174(7) . . .
182(7) . . .
189(7) . . .
191(7) . . .
171(7) . . .
181(7) . . .
178(7) . . .
175(7) . . .
157(6) . . .
163(7) . . .
177(7) . . .
171(7) . . .
162(7) . . .
171(7) . . .
175(7) . . .
178(7) . . .
182(7) . . .
169(7) . . .
160(7) . . .
171(7) . . .
172(7) . . .
170(7) . . .
175(7) . . .
189(7) . . .
205(8) . . .
184(7) . . .
173(7) . . .
179(7) . . .
175(7) . . .
184(7) . . .
168(7) . . .
177(7) . . .
173(7) . . .
163(7) . . .
175(7) . . .
169(7) . . .
166(7) . . .
168(7) . . .
179(7) . . .
151(6) . . .
166(7) . . .
179(7) . . .
178(7) . . .
160(7) . . .
157(7) . . .
184(8) . . .
168(7) . . .
156(6) . . .
182(7) . . .
193(7) . . .
185(7) . . .
165(7) . . .
176(7) . . .
179(7) . . .
178(7) . . .
184(7) . . .
186(7) . . .
188(7) . . .
186(7) . . .
180(7) . . .
190(8) . . .
183(7) . . .
173(7) . . .
179(7) . . .
188(7) . . .
180(7) . . .
170(7) . . .
186(7) . . .
178(7) . . .
186(7) . . .
165(7) . . .
180(7) . . .
155(6) . . .
169(7) . . .
175(7) . . .
158(7) . . .
175(7) . . .
189(7) . . .
178(7) . . .
173(7) . . .
187(7) . . .
170(7) . . .
155(6) . . .
165(7) . . .
169(7) . . .
171(7) . . .
162(7) . . .
179(7) . . .
183(7) . . .
155(7) . . .
176(7) . . .
162(7) . . .
167(7) . . .
170(7) . . .
165(7) . . .
166(7) . . .
171(7) . . .
159(7) . . .
173(7) . . .
181(7) . . .
169(7) . . .
171(7) . . .
189(7) . . .
178(7) . . .
170(7) . . .
165(7) . . .
149(6) . . .
161(7) . . .
179(7) . . .
161(7) . . .
165(7) . . .
169(7) . . .
174(7) . . .
174(7) . . .
155(7) . . .
174(7) . . .
182(7) . . .
178(7) . . .
160(7) . . .
170(7) . . .
179(7) . . .
178(7) . . .
160(7) . . .
161(7) . . .
165(7) . . .
169(7) . . .
174(7) . . .
171(7) . . .
161(7) . . .
157(7) . . .
164(7) . . .
174(7) . . .
184(7) . . .
196(8) . . .
165(7) . . .
167(7) . . .
176(7) . . .
186(7) . . .
162(7) . . .
164(7) . . .
165(7) . . .
170(7) . . .
161(7) . . .
175(7) . . .
150(7) . . .
175(7) . . .
170(7) . . .
183(7) . . .
185(8) . . .
159(7) . . .
177(7) . . .
159(7) . . .
175(7) . . .
185(7) . . .
177(7) . . .
173(7) . . .
169(7) . . .
159(7) . . .
162(7) . . .
177(7) . . .
170(7) . . .
172(7) . . .
179(7) . . .
164(7) . . .
184(7) . . .
169(7) . . .
172(7) . . .
176(7) . . .
184(8) . . .
164(7) . . .
164(7) . . .
167(7) . . .
169(7) . . .
193(8) . . .
177(7) . . .
171(7) . . .
158(7) . . .
173(8) . . .
185(7) . . .
183(7) . . .
157(6) . . .
168(7) . . .
180(7) . . .
163(7) . . .
182(7) . . .
193(7) . . .
179(7) . . .
188(7) . . .
184(7) . . .
186(7) . . .
183(7) . . .
184(7) . . .
178(7) . . .
177(7) . . .
154(7) . . .
178(7) . . .
165(7) . . .
187(8) . . .
166(7) . . .
171(7) . . .
166(7) . . .
174(7) . . .
171(7) . . .
157(7) . . .
188(7) . . .
165(7) . . .
180(7) . . .
167(7) . . .
163(7) . . .
156(6) . . .
184(7) . . .
188(8) . . .
150(7) . . .
163(7) . . .
145(6) . . .
179(7) . . .
177(7) . . .
187(7) . . .
177(7) . . .
158(7) . . .
152(7) . . .
174(7) . . .
169(7) . . .
162(7) . . .
161(7) . . .
191(7) . . .
196(8) . . .
177(7) . . .
179(7) . . .
150(6) . . .
173(7) . . .
166(7) . . .
157(7) . . .
155(6) . . .
154(6) . . .
160(7) . . .
181(8) . . .
166(7) . . .
169(7) . . .
163(7) . . .
169(7) . . .
156(7) . . .
164(7) . . .
175(7) . . .
176(7) . . .
175(7) . . .
166(7) . . .
160(7) . . .
183(7) . . .
189(7) . . .
168(7) . . .
172(7) . . .
169(7) . . .
173(7) . . .
164(7) . . .
159(7) . . .
158(7) . . .
155(7) . . .
151(6) . . .
170(7) . . .
163(7) . . .
156(7) . . .
179(7) . . .
180(7) . . .
180(7) . . .
185(7) . . .
170(7) . . .
182(7) . . .
162(7) . . .
154(7) . . .
157(7) . . .
186(7) . . .
167(7) . . .
145(6) . . .
186(8) . . .
160(7) . . .
160(7) . . .
171(7) . . .
163(7) . . .
193(8) . . .
177(7) . . .
177(7) . . .
167(7) . . .
177(7) . . .
173(7) . . .
194(8) . . .
171(7) . . .
168(7) . . .
163(7) . . .
171(7) . . .
174(7) . . .
183(7) . . .
182(7) . . .
167(7) . . .
170(7) . . .
184(8) . . .
162(7) . . .
173(7) . . .
182(7) . . .
165(7) . . .
174(7) . . .
176(7) . . .
166(7) . . .
165(7) . . .
166(7) . . .
170(7) . . .
198(8) . . .
165(7) . . .
162(7) . . .
165(7) . . .
174(8) . . .
167(7) . . .
175(7) . . .
166(7) . . .
151(7) . . .
176(7) . . .
169(7) . . .
167(7) . . .
160(7) . . .
153(7) . . .
159(7) . . .
158(7) . . .
187(7) . . .
179(7) . . .
202(8) . . .
180(7) . . .
171(7) . . .
181(7) . . .
163(7) . . .
151(7) . . .
167(7) . . .
171(7) . . .
164(7) . . .
164(7) . . .
183(7) . . .
164(7) . . .
162(7) . . .
168(7) . . .
149(6) . . .
166(7) . . .
160(7) . . .
164(7) . . .
165(7) . . .
177(7) . . .
165(7) . . .
169(7) . . .
170(7) . . .
146(6) . . .
160(7) . . .
183(7) . . .
159(7) . . .
160(7) . . .
175(7) . . .
164(7) . . .
166(7) . . .
168(7) . . .
165(7) . . .
167(7) . . .
159(7) . . .
157(7) . . .
161(7) . . .
169(7) . . .
174(7) . . .
159(7) . . .
158(7) . . .
153(7) . . .
161(7) . . .
167(7) . . .
158(7) . . .
153(7) . . .
159(7) . . .
165(7) . . .
171(7) . . .
160(7) . . .
166(7) . . .
160(7) . . .
155(6) . . .
164(7) . . .
174(7) . . .
170(7) . . .
170(7) . . .
159(7) . . .
154(7) . . .
164(7) . . .
173(7) . . .
178(7) . . .
172(7) . . .
178(7) . . .
166(7) . . .
171(7) . . .
157(7) . . .
162(7) . . .
156(7) . . .
174(7) . . .
166(7) . . .
175(7) . . .
179(7) . . .
162(7) . . .
170(7) . . .
163(7) . . .
163(7) . . .
170(7) . . .
159(7) . . .
144(6) . . .
167(7) . . .
178(7) . . .
174(7) . . .
167(7) . . .
162(7) . . .
156(7) . . .
163(7) . . .
178(7) . . .
202(8) . . .
174(7) . . .
168(7) . . .
173(7) . . .
164(7) . . .
168(7) . . .
177(7) . . .
150(6) . . .
178(7) . . .
161(7) . . .
171(7) . . .
171(7) . . .
167(7) . . .
185(7) . . .
169(7) . . .
148(7) . . .
171(7) . . .
174(7) . . .
172(7) . . .
177(7) . . .
173(7) . . .
172(7) . . .
170(7) . . .
171(7) . . .
187(7) . . .
174(7) . . .
165(7) . . .
174(7) . . .
167(7) . . .
182(7) . . .
173(8) . . .
175(7) . . .
176(7) . . .
166(7) . . .
163(7) . . .
176(7) . . .
161(7) . . .
162(7) . . .
186(7) . . .
181(7) . . .
180(7) . . .
160(7) . . .
168(7) . . .
160(7) . . .
161(7) . . .
158(7) . . .
184(7) . . .
165(7) . . .
164(7) . . .
179(7) . . .
172(7) . . .
155(6) . . .
161(7) . . .
166(7) . . .
162(7) . . .
171(7) . . .
165(7) . . .
169(7) . . .
150(7) . . .
150(7) . . .
160(7) . . .
171(7) . . .
176(7) . . .
166(7) . . .
157(7) . . .
161(7) . . .
187(7) . . .
183(7) . . .
164(7) . . .
175(8) . . .
180(7) . . .
170(7) . . .
168(7) . . .
160(7) . . .
148(7) . . .
160(7) . . .
150(6) . . .
175(7) . . .
164(7) . . .
147(7) . . .
149(6) . . .
161(7) . . .
153(7) . . .
149(7) . . .
150(7) . . .
180(7) . . .
172(7) . . .
184(7) . . .
167(7) . . .
165(7) . . .
168(7) . . .
154(6) . . .
168(7) . . .
183(7) . . .
177(8) . . .
172(7) . . .
174(7) . . .
171(7) . . .
180(7) . . .
173(7) . . .
172(7) . . .
171(7) . . .
168(7) . . .
157(7) . . .
170(7) . . .
166(7) . . .
175(7) . . .
163(7) . . .
145(7) . . .
154(7) . . .
173(7) . . .
193(7) . . .
170(7) . . .
159(7) . . .
165(7) . . .
169(7) . . .
190(7) . . .
162(7) . . .
165(7) . . .
174(7) . . .
160(7) . . .
180(7) . . .
175(7) . . .
152(7) . . .
166(7) . . .
163(7) . . .
156(7) . . .
158(7) . . .
169(7) . . .
169(7) . . .
162(7) . . .
152(6) . . .
177(7) . . .
171(7) . . .
168(7) . . .
166(7) . . .
172(7) . . .
180(7) . . .
172(7) . . .
177(7) . . .
160(7) . . .
185(7) . . .
177(7) . . .
171(7) . . .
165(7) . . .
166(7) . . .
161(7) . . .
177(7) . . .
171(7) . . .
156(7) . . .
158(7) . . .
168(7) . . .
170(7) . . .
178(7) . . .
162(7) . . .
183(7) . . .
181(7) . . .
165(7) . . .
158(7) . . .
161(7) . . .
199(7) . . .
176(7) . . .
169(7) . . .
192(8) . . .
162(7) . . .
172(7) . . .
178(7) . . .
184(8) . . .
164(7) . . .
184(7) . . .
167(7) . . .
173(7) . . .
148(7) . . .
169(7) . . .
171(7) . . .
152(6) . . .
159(7) . . .
164(7) . . .
167(7) . . .
163(7) . . .
167(7) . . .
173(7) . . .
157(7) . . .
167(7) . . .
150(6) . . .
159(7) . . .
160(7) . . .
161(7) . . .
172(7) . . .
171(7) . . .
152(6) . . .
158(7) . . .
153(7) . . .
156(7) . . .
183(7) . . .
155(7) . . .
156(7) . . .
156(7) . . .
150(7) . . .
171(7) . . .
172(7) . . .
159(7) . . .
170(7) . . .
173(7) . . .
159(7) . . .
173(7) . . .
170(7) . . .
170(7) . . .
178(7) . . .
170(7) . . .
165(7) . . .
162(7) . . .
152(7) . . .
157(7) . . .
169(7) . . .
167(7) . . .
158(7) . . .
169(7) . . .
167(7) . . .
161(7) . . .
145(6) . . .
158(7) . . .
150(6) . . .
166(7) . . .
165(7) . . .
137(6) . . .
165(7) . . .
166(7) . . .
163(7) . . .
168(7) . . .
152(7) . . .
164(7) . . .
154(7) . . .
167(7) . . .
156(7) . . .
168(7) . . .
158(7) . . .
163(7) . . .
180(7) . . .
179(7) . . .
167(7) . . .
167(7) . . .
169(7) . . .
154(6) . . .
168(7) . . .
174(7) . . .
173(7) . . .
152(7) . . .
167(7) . . .
165(7) . . .
157(7) . . .
166(7) . . .
166(7) . . .
151(6) . . .
159(7) . . .
146(7) . . .
169(7) . . .
160(7) . . .
150(6) . . .
158(7) . . .
173(7) . . .
171(7) . . .
150(6) . . .
149(6) . . .
168(7) . . .
165(7) . . .
169(7) . . .
158(7) . . .
171(7) . . .
160(7) . . .
174(7) . . .
153(6) . . .
173(7) . . .
144(6) . . .
156(7) . . .
153(7) . . .
171(7) . . .
165(7) . . .
158(7) . . .
173(7) . . .
180(8) . . .
164(7) . . .
159(7) . . .
157(7) . . .
177(7) . . .
170(7) . . .
178(7) . . .
175(7) . . .
150(6) . . .
165(7) . . .
165(7) . . .
177(7) . . .
163(7) . . .
173(7) . . .
166(7) . . .
155(7) . . .
155(7) . . .
157(7) . . .
162(7) . . .
169(7) . . .
183(7) . . .
170(7) . . .
162(7) . . .
162(7) . . .
166(7) . . .
159(7) . . .
170(7) . . .
166(7) . . .
169(7) . . .
164(7) . . .
174(7) . . .
172(7) . . .
170(7) . . .
168(7) . . .
183(8) . . .
135(6) . . .
165(7) . . .
151(6) . . .
176(7) . . .
164(7) . . .
174(7) . . .
164(7) . . .
164(7) . . .
159(7) . . .
155(7) . . .
166(7) . . .
161(7) . . .
158(6) . . .
165(7) . . .
155(7) . . .
171(7) . . .
167(7) . . .
150(6) . . .
172(7) . . .
175(7) . . .
170(7) . . .
171(7) . . .
166(7) . . .
144(7) . . .
156(7) . . .
169(7) . . .
161(7) . . .
158(7) . . .
192(8) . . .
157(7) . . .
168(7) . . .
169(7) . . .
184(7) . . .
169(7) . . .
167(7) . . .
163(7) . . .
157(7) . . .
157(7) . . .
166(7) . . .
152(6) . . .
179(7) . . .
148(6) . . .
156(7) . . .
161(7) . . .
161(7) . . .
154(6) . . .
159(7) . . .
173(7) . . .
153(7) . . .
152(7) . . .
173(7) . . .
170(7) . . .
179(7) . . .
172(7) . . .
174(7) . . .
160(7) . . .
150(6) . . .
163(7) . . .
160(7) . . .
176(7) . . .
172(7) . . .
174(7) . . .
172(7) . . .
162(7) . . .
143(6) . . .
151(6) . . .
170(7) . . .
173(7) . . .
163(7) . . .
139(6) . . .
163(7) . . .
147(6) . . .
159(7) . . .
166(7) . . .
153(7) . . .
144(6) . . .
186(7) . . .
160(7) . . .
163(7) . . .
160(7) . . .
142(6) . . .
154(7) . . .
168(7) . . .
150(7) . . .
155(7) . . .
150(6) . . .
167(7) . . .
159(7) . . .
171(7) . . .
182(7) . . .
171(7) . . .
175(7) . . .
155(7) . . .
154(7) . . .
170(7) . . .
155(6) . . .
151(7) . . .
172(7) . . .
158(7) . . .
163(7) . . .
165(7) . . .
163(7) . . .
160(7) . . .
174(7) . . .
156(7) . . .
157(7) . . .
140(6) . . .
142(7) . . .
173(7) . . .
147(6) . . .
149(6) . . .
162(7) . . .
160(7) . . .
147(7) . . .
145(6) . . .
142(6) . . .
150(7) . . .
166(7) . . .
155(7) . . .
183(7) . . .
163(7) . . .
149(7) . . .
170(7) . . .
165(7) . . .
156(7) . . .
172(7) . . .
158(7) . . .
138(6) . . .
160(7) . . .
159(7) . . .
156(7) . . .
167(7) . . .
147(7) . . .
136(6) . . .
156(6) . . .
157(7) . . .
162(7) . . .
152(7) . . .
153(7) . . .
140(6) . . .
155(7) . . .
153(7) . . .
177(7) . . .
131(6) . . .
168(7) . . .
154(7) . . .
156(7) . . .
158(7) . . .
161(7) . . .
164(7) . . .
157(7) . . .
159(7) . . .
162(7) . . .
173(7) . . .
151(6) . . .
155(7) . . .
157(7) . . .
169(7) . . .
161(7) . . .
144(6) . . .
170(7) . . .
169(7) . . .
177(7) . . .
164(7) . . .
169(7) . . .
165(7) . . .
161(7) . . .
159(7) . . .
167(7) . . .
143(6) . . .
181(7) . . .
151(7) . . .
148(6) . . .
161(7) . . .
145(6) . . .
161(7) . . .
164(7) . . .
166(7) . . .
147(6) . . .
141(6) . . .
168(7) . . .
150(7) . . .
162(7) . . .
168(7) . . .
163(7) . . .
154(7) . . .
159(7) . . .
161(7) . . .
163(7) . . .
152(7) . . .
176(7) . . .
149(7) . . .
164(7) . . .
171(7) . . .
158(7) . . .
162(7) . . .
137(6) . . .
143(6) . . .
140(6) . . .
166(7) . . .
164(7) . . .
159(7) . . .
154(7) . . .
160(7) . . .
143(6) . . .
165(7) . . .
175(7) . . .
156(7) . . .
158(7) . . .
156(7) . . .
154(7) . . .
164(7) . . .
155(6) . . .
161(7) . . .
156(7) . . .
160(7) . . .
157(7) . . .
169(7) . . .
158(7) . . .
158(7) . . .
146(7) . . .
149(6) . . .
166(7) . . .
179(7) . . .
158(7) . . .
163(7) . . .
152(7) . . .
153(6) . . .
159(7) . . .
160(7) . . .
161(7) . . .
163(7) . . .
177(7) . . .
163(7) . . .
143(6) . . .
162(7) . . .
149(7) . . .
156(7) . . .
157(7) . . .
148(6) . . .
160(7) . . .
160(7) . . .
152(6) . . .
158(7) . . .
163(7) . . .
154(7) . . .
144(6) . . .
162(7) . . .
160(7) . . .
169(7) . . .
143(6) . . .
163(7) . . .
141(6) . . .
153(7) . . .
166(7) . . .
147(7) . . .
145(6) . . .
149(6) . . .
166(7) . . .
147(7) . . .
161(7) . . .
156(7) . . .
176(7) . . .
161(7) . . .
163(7) . . .
166(7) . . .
138(6) . . .
164(7) . . .
165(7) . . .
148(7) . . .
167(7) . . .
165(7) . . .
134(6) . . .
146(7) . . .
148(7) . . .
169(7) . . .
166(7) . . .
155(7) . . .
161(7) . . .
163(7) . . .
163(7) . . .
163(7) . . .
181(7) . . .
162(7) . . .
162(7) . . .
178(7) . . .
166(7) . . .
145(6) . . .
146(6) . . .
160(7) . . .
153(7) . . .
150(6) . . .
149(6) . . .
157(7) . . .
147(7) . . .
159(7) . . .
173(7) . . .
168(7) . . .
138(6) . . .
162(7) . . .
147(6) . . .
151(6) . . .
154(7) . . .
146(7) . . .
156(7) . . .
169(7) . . .
165(7) . . .
157(7) . . .
169(7) . . .
172(7) . . .
155(6) . . .
166(7) . . .
149(7) . . .
158(7) . . .
158(7) . . .
150(6) . . .
155(7) . . .
163(7) . . .
155(7) . . .
153(7) . . .
168(7) . . .
152(6) . . .
163(7) . . .
144(7) . . .
155(7) . . .
158(7) . . .
153(6) . . .
168(7) . . .
149(7) . . .
170(7) . . .
176(7) . . .
154(7) . . .
145(7) . . .
145(7) . . .
149(6) . . .
158(7) . . .
161(7) . . .
171(7) . . .
181(8) . . .
151(7) . . .
168(7) . . .
155(7) . . .
174(7) . . .
190(8) . . .
171(7) . . .
156(6) . . .
153(7) . . .
166(7) . . .
138(6) . . .
155(7) . . .
160(7) . . .
153(7) . . .
154(7) . . .
167(7) . . .
165(7) . . .
163(7) . . .
164(7) . . .
162(7) . . .
145(6) . . .
160(7) . . .
163(7) . . .
161(7) . . .
159(7) . . .
161(7) . . .
168(7) . . .
176(7) . . .
174(7) . . .
165(7) . . .
167(7) . . .
175(7) . . .
174(7) . . .
168(7) . . .
166(7) . . .
169(7) . . .
167(7) . . .
169(7) . . .
168(7) . . .
151(7) . . .
156(7) . . .
159(7) . . .
162(7) . . .
163(7) . . .
163(7) . . .
165(7) . . .
162(7) . . .
187(7) . . .
183(7) . . .
164(7) . . .
141(6) . . .
164(7) . . .
144(6) . . .
174(7) . . .
169(7) . . .
168(7) . . .
170(7) . . .
155(7) . . .
154(7) . . .
161(7) . . .
183(7) . . .
172(7) . . .
158(7) . . .
169(7) . . .
182(7) . . .
177(7) . . .
169(7) . . .
157(7) . . .
160(7) . . .
155(7) . . .
148(6) . . .
148(6) . . .
157(7) . . .
164(7) . . .
155(7) . . .
144(6) . . .
168(7) . . .
159(7) . . .
158(7) . . .
162(7) . . .
161(7) . . .
157(7) . . .
151(7) . . .
150(7) . . .
152(7) . . .
159(7) . . .
137(6) . . .
158(7) . . .
152(7) . . .
165(7) . . .
161(7) . . .
148(6) . . .
165(7) . . .
141(6) . . .
155(7) . . .
152(6) . . .
169(7) . . .
146(6) . . .
155(7) . . .
158(7) . . .
132(6) . . .
169(7) . . .
183(7) . . .
161(7) . . .
144(6) . . .
172(7) . . .
161(7) . . .
159(7) . . .
157(7) . . .
154(7) . . .
145(6) . . .
177(7) . . .
150(7) . . .
128(6) . . .
160(7) . . .
164(7) . . .
152(7) . . .
159(7) . . .
164(7) . . .
142(6) . . .
151(6) . . .
170(7) . . .
175(7) . . .
173(7) . . .
162(7) . . .
169(7) . . .
163(7) . . .
148(7) . . .
178(7) . . .
176(7) . . .
157(6) . . .
153(7) . . .
163(7) . . .
150(6) . . .
150(6) . . .
158(7) . . .
142(6) . . .
144(6) . . .
157(7) . . .
168(7) . . .
159(7) . . .
167(7) . . .
153(7) . . .
142(6) . . .
162(7) . . .
166(7) . . .
166(7) . . .
151(7) . . .
151(7) . . .
169(7) . . .
150(6) . . .
158(7) . . .
153(7) . . .
153(7) . . .
161(7) . . .
155(7) . . .
142(6) . . .
149(7) . . .
140(6) . . .
149(6) . . .
145(6) . . .
148(7) . . .
169(7) . . .
163(7) . . .
157(7) . . .
169(7) . . .
177(7) . . .
174(7) . . .
160(7) . . .
159(7) . . .
157(7) . . .
144(6) . . .
151(6) . . .
172(7) . . .
150(6) . . .
160(7) . . .
178(8) . . .
169(7) . . .
156(6) . . .
143(6) . . .
155(7) . . .
162(7) . . .
147(6) . . .
146(6) . . .
135(6) . . .
156(7) . . .
143(6) . . .
157(7) . . .
161(7) . . .
159(7) . . .
171(7) . . .
138(6) . . .
152(7) . . .
162(7) . . .
170(7) . . .
167(7) . . .
166(7) . . .
137(6) . . .
142(6) . . .
156(7) . . .
156(7) . . .
171(7) . . .
168(7) . . .
149(6) . . .
161(7) . . .
143(7) . . .
165(7) . . .
162(7) . . .
181(7) . . .
167(7) . . .
159(7) . . .
159(7) . . .
163(7) . . .
176(7) . . .
142(7) . . .
155(7) . . .
148(7) . . .
149(6) . . .
166(7) . . .
161(7) . . .
153(7) . . .
149(7) . . .
171(7) . . .
160(6) . . .
173(7) . . .
164(7) . . .
164(7) . . .
166(7) . . .
143(6) . . .
153(7) . . .
167(7) . . .
158(7) . . .
133(6) . . .
154(7) . . .
140(6) . . .
157(7) . . .
171(7) . . .
156(7) . . .
151(6) . . .
156(7) . . .
162(7) . . .
164(7) . . .
169(7) . . .
147(6) . . .
170(7) . . .
169(7) . . .
160(7) . . .
155(6) . . .
130(6) . . .
147(7) . . .
151(7) . . .
148(7) . . .
171(7) . . .
154(7) . . .
160(7) . . .
170(7) . . .
162(7) . . .
158(7) . . .
169(7) . . .
145(6) . . .
143(7) . . .
146(6) . . .
169(7) . . .
147(6) . . .
146(7) . . .
179(7) . . .
162(7) . . .
159(7) . . .
125(6) . . .
150(7) . . .
148(7) . . .
153(6) . . .
159(6) . . .
139(6) . . .
148(7) . . .
155(7) . . .
170(7) . . .
159(7) . . .
156(7) . . .
151(7) . . .
142(7) . . .
151(6) . . .
145(6) . . .
146(7) . . .
144(7) . . .
155(7) . . .
167(7) . . .
165(7) . . .
174(7) . . .
153(7) . . .
152(7) . . .
168(7) . . .
132(6) . . .
150(7) . . .
144(6) . . .
153(7) . . .
145(6) . . .
163(7) . . .
149(6) . . .
176(7) . . .
160(7) . . .
164(7) . . .
151(6) . . .
168(7) . . .
150(6) . . .
160(7) . . .
153(6) . . .
172(7) . . .
150(6) . . .
146(7) . . .
158(7) . . .
142(6) . . .
150(7) . . .
127(6) . . .
152(7) . . .
160(7) . . .
140(6) . . .
153(7) . . .
173(7) . . .
158(7) . . .
156(7) . . .
149(6) . . .
151(7) . . .
139(7) . . .
149(7) . . .
150(6) . . .
171(7) . . .
146(6) . . .
171(7) . . .
153(7) . . .
142(6) . . .
160(7) . . .
149(6) . . .
157(7) . . .
144(6) . . .
151(6) . . .
160(7) . . .
135(6) . . .
155(7) . . .
147(6) . . .
150(6) . . .
156(6) . . .
153(7) . . .
161(7) . . .
171(7) . . .
170(7) . . .
139(6) . . .
171(7) . . .
155(7) . . .
154(7) . . .
163(7) . . .
172(7) . . .
157(7) . . .
148(6) . . .
151(6) . . .
160(7) . . .
149(6) . . .
156(7) . . .
149(6) . . .
166(7) . . .
152(6) . . .
147(7) . . .
140(6) . . .
144(7) . . .
156(7) . . .
166(7) . . .
179(7) . . .
160(7) . . .
160(7) . . .
163(7) . . .
160(7) . . .
144(6) . . .
164(7) . . .
163(7) . . .
157(7) . . .
154(6) . . .
158(7) . . .
153(7) . . .
135(6) . . .
139(6) . . .
147(6) . . .
138(6) . . .
168(7) . . .
166(7) . . .
147(6) . . .
146(6) . . .
148(7) . . .
158(7) . . .
170(7) . . .
155(6) . . .
168(7) . . .
158(7) . . .
146(7) . . .
162(7) . . .
151(6) . . .
151(7) . . .
148(7) . . .
152(7) . . .
166(7) . . .
169(7) . . .
170(7) . . .
145(6) . . .
154(7) . . .
163(7) . . .
145(6) . . .
140(6) . . .
157(7) . . .
146(6) . . .
164(7) . . .
152(6) . . .
149(7) . . .
155(7) . . .
151(7) . . .
160(7) . . .
142(6) . . .
156(7) . . .
157(7) . . .
170(7) . . .
161(7) . . .
151(6) . . .
148(6) . . .
159(7) . . .
154(7) . . .
161(7) . . .
152(6) . . .
150(7) . . .
171(7) . . .
159(7) . . .
158(7) . . .
140(6) . . .
157(7) . . .
159(7) . . .
155(7) . . .
164(7) . . .
140(6) . . .
147(7) . . .
152(7) . . .
136(6) . . .
144(6) . . .
144(6) . . .
152(6) . . .
155(7) . . .
155(7) . . .
149(6) . . .
179(7) . . .
160(7) . . .
160(7) . . .
162(7) . . .
140(6) . . .
151(7) . . .
146(6) . . .
132(6) . . .
160(7) . . .
159(7) . . .
147(6) . . .
144(6) . . .
160(7) . . .
161(7) . . .
143(6) . . .
148(6) . . .
158(7) . . .
136(6) . . .
158(7) . . .
125(6) . . .
137(6) . . .
152(7) . . .
149(6) . . .
144(6) . . .
150(6) . . .
144(7) . . .
166(7) . . .
148(6) . . .
159(7) . . .
130(6) . . .
164(7) . . .
163(7) . . .
148(6) . . .
157(6) . . .
142(6) . . .
141(6) . . .
150(7) . . .
162(7) . . .
143(6) . . .
143(6) . . .
149(7) . . .
148(7) . . .
152(6) . . .
151(6) . . .
151(6) . . .
163(7) . . .
170(7) . . .
154(7) . . .
137(6) . . .
156(7) . . .
149(6) . . .
143(6) . . .
169(7) . . .
140(6) . . .
155(7) . . .
166(7) . . .
161(7) . . .
151(7) . . .
149(6) . . .
158(7) . . .
159(7) . . .
154(7) . . .
163(7) . . .
156(6) . . .
149(7) . . .
143(7) . . .
146(7) . . .
138(6) . . .
137(6) . . .
129(6) . . .
155(7) . . .
143(7) . . .
133(6) . . .
135(6) . . .
152(7) . . .
149(7) . . .
141(6) . . .
144(6) . . .
133(6) . . .
161(7) . . .
146(7) . . .
156(7) . . .
146(6) . . .
152(6) . . .
145(6) . . .
144(7) . . .
160(7) . . .
151(6) . . .
142(6) . . .
141(6) . . .
148(7) . . .
151(7) . . .
136(6) . . .
156(6) . . .
157(7) . . .
136(6) . . .
154(7) . . .
139(6) . . .
146(6) . . .
149(7) . . .
163(7) . . .
160(7) . . .
160(7) . . .
130(6) . . .
148(7) . . .
141(6) . . .
144(6) . . .
139(6) . . .
119(6) . . .
150(7) . . .
164(7) . . .
160(7) . . .
134(6) . . .
151(7) . . .
138(6) . . .
146(6) . . .
140(6) . . .
138(6) . . .
143(6) . . .
149(7) . . .
158(7) . . .
137(6) . . .
169(7) . . .
148(7) . . .
174(7) . . .
166(7) . . .
143(6) . . .
167(7) . . .
164(7) . . .
140(6) . . .
145(7) . . .
136(6) . . .
164(7) . . .
170(7) . . .
158(7) . . .
155(7) . . .
152(7) . . .
160(7) . . .
159(7) . . .
153(7) . . .
148(6) . . .
123(6) . . .
169(7) . . .
164(7) . . .
171(7) . . .
174(7) . . .
153(6) . . .
162(7) . . .
146(7) . . .
149(7) . . .
179(7) . . .
167(7) . . .
175(7) . . .
164(7) . . .
150(7) . . .
159(7) . . .
158(7) . . .
156(7) . . .
143(6) . . .
175(7) . . .
167(7) . . .
157(7) . . .
160(7) . . .
157(7) . . .
162(7) . . .
146(6) . . .
160(7) . . .
155(7) . . .
133(6) . . .
165(7) . . .
153(6) . . .
153(6) . . .
150(6) . . .
144(6) . . .
174(7) . . .
159(7) . . .
161(7) . . .
163(7) . . .
169(7) . . .
160(7) . . .
147(6) . . .
172(7) . . .
160(7) . . .
161(7) . . .
150(7) . . .
141(6) . . .
151(6) . . .
158(7) . . .
144(7) . . .
158(7) . . .
155(6) . . .
160(7) . . .
156(7) . . .
148(7) . . .
178(7) . . .
150(6) . . .
155(7) . . .
137(6) . . .
134(6) . . .
139(6) . . .
143(6) . . .
153(6) . . .
164(7) . . .
136(6) . . .
144(6) . . .
168(7) . . .
145(6) . . .
142(7) . . .
151(7) . . .
154(7) . . .
163(7) . . .
151(7) . . .
152(7) . . .
147(7) . . .
141(6) . . .
160(7) . . .
154(7) . . .
149(6) . . .
160(7) . . .
157(7) . . .
138(6) . . .
147(7) . . .
138(6) . . .
146(6) . . .
145(6) . . .
153(6) . . .
158(7) . . .
144(7) . . .
127(6) . . .
155(7) . . .
149(6) . . .
161(7) . . .
156(7) . . .
136(6) . . .
152(6) . . .
148(6) . . .
139(6) . . .
145(7) . . .
139(6) . . .
176(7) . . .
152(7) . . .
144(6) . . .
142(7) . . .
152(7) . . .
152(6) . . .
145(6) . . .
146(7) . . .
157(7) . . .
165(7) . . .
147(6) . . .
151(6) . . .
161(7) . . .
155(7) . . .
155(7) . . .
166(7) . . .
158(7) . . .
153(7) . . .
141(6) . . .
140(6) . . .
152(6) . . .
166(7) . . .
159(7) . . .
156(7) . . .
146(6) . . .
149(6) . . .
144(6) . . .
149(7) . . .
162(7) . . .
149(6) . . .
147(6) . . .
144(7) . . .
149(7) . . .
169(7) . . .
151(6) . . .
158(7) . . .
173(7) . . .
141(7) . . .
133(6) . . .
162(7) . . .
166(7) . . .
151(7) . . .
146(6) . . .
156(7) . . .
153(6) . . .
157(7) . . .
148(6) . . .
150(7) . . .
157(7) . . .
162(7) . . .
137(6) . . .
150(6) . . .
168(7) . . .
154(6) . . .
163(7) . . .
153(7) . . .
152(7) . . .
152(7) . . .
147(7) . . .
148(6) . . .
148(6) . . .
154(7) . . .
159(7) . . .
163(7) . . .
157(6) . . .
149(6) . . .
159(7) . . .
166(7) . . .
149(6) . . .
171(7) . . .
145(6) . . .
145(7) . . .
149(7) . . .
159(7) . . .
143(6) . . .
144(6) . . .
160(7) . . .
158(7) . . .
145(6) . . .
160(7) . . .
155(7) . . .
143(6) . . .
155(7) . . .
143(6) . . .
149(6) . . .
161(7) . . .
144(7) . . .
139(6) . . .
166(7) . . .
150(6) . . .
147(7) . . .
159(7) . . .
147(6) . . .
168(7) . . .
142(6) . . .
164(7) . . .
149(7) . . .
156(7) . . .
163(7) . . .
155(6) . . .
154(7) . . .
167(7) . . .
170(7) . . .
147(6) . . .
150(6) . . .
138(6) . . .
159(7) . . .
147(7) . . .
149(6) . . .
157(7) . . .
158(7) . . .
150(7) . . .
146(6) . . .
138(6) . . .
161(7) . . .
141(7) . . .
147(7) . . .
151(7) . . .
155(6) . . .
143(6) . . .
167(7) . . .
162(7) . . .
158(7) . . .
139(6) . . .
162(7) . . .
156(7) . . .
143(6) . . .
146(6) . . .
154(6) . . .
153(6) . . .
150(7) . . .
149(7) . . .
152(6) . . .
144(6) . . .
135(6) . . .
154(7) . . .
140(6) . . .
143(6) . . .
135(6) . . .
152(7) . . .
144(7) . . .
150(7) . . .
136(6) . . .
129(6) . . .
137(6) . . .
150(7) . . .
154(7) . . .
145(6) . . .
139(6) . . .
128(6) . . .
146(7) . . .
143(6) . . .
149(6) . . .
155(7) . . .
159(7) . . .
156(7) . . .
159(7) . . .
160(7) . . .
153(6) . . .
136(6) . . .
138(6) . . .
148(7) . . .
155(7) . . .
129(6) . . .
140(6) . . .
146(7) . . .
146(6) . . .
151(6) . . .
137(6) . . .
147(7) . . .
147(7) . . .
141(6) . . .
151(6) . . .
143(6) . . .
155(7) . . .
143(7) . . .
136(6) . . .
147(6) . . .
161(7) . . .
138(6) . . .
136(6) . . .
154(7) . . .
139(6) . . .
157(7) . . .
133(6) . . .
133(6) . . .
139(6) . . .
147(6) . . .
142(7) . . .
157(7) . . .
151(6) . . .
156(7) . . .
150(6) . . .
146(6) . . .
144(7) . . .
147(6) . . .
123(6) . . .
138(6) . . .
155(7) . . .
158(7) . . .
157(7) . . .
154(6) . . .
140(6) . . .
152(7) . . .
135(6) . . .
156(7) . . .
138(6) . . .
140(6) . . .
168(7) . . .
159(7) . . .
132(6) . . .
143(6) . . .
137(6) . . .
154(7) . . .
142(6) . . .
144(6) . . .
143(6) . . .
159(7) . . .
142(7) . . .
135(6) . . .
139(6) . . .
131(6) . . .
147(6) . . .
157(7) . . .
148(7) . . .
150(6) . . .
142(6) . . .
147(7) . . .
123(6) . . .
155(7) . . .
130(6) . . .
170(7) . . .
153(7) . . .
146(7) . . .
140(6) . . .
161(7) . . .
150(6) . . .
140(6) . . .
133(6) . . .
134(6) . . .
134(6) . . .
135(6) . . .
129(6) . . .
131(6) . . .
139(6) . . .
141(6) . . .
145(6) . . .
127(6) . . .
145(7) . . .
140(6) . . .
143(6) . . .
134(6) . . .
146(7) . . .
143(7) . . .
142(6) . . .
143(6) . . .
152(6) . . .
146(7) . . .
130(6) . . .
144(6) . . .
143(6) . . .
145(6) . . .
125(6) . . .
138(6) . . .
147(6) . . .
136(6) . . .
156(7) . . .
154(7) . . .
137(6) . . .
149(6) . . .
152(6) . . .
150(6) . . .
143(6) . . .
143(6) . . .
140(6) . . .
148(6) . . .
134(6) . . .
137(6) . . .
130(6) . . .
134(6) . . .
146(6) . . .
142(6) . . .
139(6) . . .
129(6) . . .
134(6) . . .
148(6) . . .
147(6) . . .
151(7) . . .
149(6) . . .
164(7) . . .
158(7) . . .
143(6) . . .
131(6) . . .
142(6) . . .
145(6) . . .
145(6) . . .
139(6) . . .
142(7) . . .
147(7) . . .
131(6) . . .
136(6) . . .
149(6) . . .
168(7) . . .
153(7) . . .
150(6) . . .
131(6) . . .
137(6) . . .
152(7) . . .
161(7) . . .
170(7) . . .
134(6) . . .
144(6) . . .
135(6) . . .
148(6) . . .
150(6) . . .
147(6) . . .
142(6) . . .
164(7) . . .
150(7) . . .
139(6) . . .
151(7) . . .
160(7) . . .
147(6) . . .
146(6) . . .
144(6) . . .
139(6) . . .
144(7) . . .
132(6) . . .
144(6) . . .
142(6) . . .
140(6) . . .
145(7) . . .
150(7) . . .
151(7) . . .
131(6) . . .
132(6) . . .
140(6) . . .
139(6) . . .
140(6) . . .
124(6) . . .
132(6) . . .
153(7) . . .
143(6) . . .
149(6) . . .
147(6) . . .
149(6) . . .
137(6) . . .
153(7) . . .
139(6) . . .
138(6) . . .
135(6) . . .
128(6) . . .
143(6) . . .
161(7) . . .
134(6) . . .
146(6) . . .
145(7) . . .
137(6) . . .
143(6) . . .
137(6) . . .
135(6) . . .
155(7) . . .
143(7) . . .
131(6) . . .
136(6) . . .
136(6) . . .
143(7) . . .
132(6) . . .
138(6) . . .
128(6) . . .
128(6) . . .
154(7) . . .
139(6) . . .
129(6) . . .
120(6) . . .
136(6) . . .
139(6) . . .
142(6) . . .
126(6) . . .
137(6) . . .
133(6) . . .
143(6) . . .
135(6) . . .
145(6) . . .
157(7) . . .
135(6) . . .
128(6) . . .
135(6) . . .
150(6) . . .
135(6) . . .
133(6) . . .
141(6) . . .
138(6) . . .
137(6) . . .
137(6) . . .
150(7) . . .
139(6) . . .
155(6) . . .
143(6) . . .
138(6) . . .
144(7) . . .
128(6) . . .
149(6) . . .
138(6) . . .
149(6) . . .
134(6) . . .
150(7) . . .
142(6) . . .
127(6) . . .
159(7) . . .
128(6) . . .
142(6) . . .
146(6) . . .
144(6) . . .
150(7) . . .
132(6) . . .
128(6) . . .
154(6) . . .
144(7) . . .
132(6) . . .
144(7) . . .
133(6) . . .
144(6) . . .
149(7) . . .
140(6) . . .
143(7) . . .
133(6) . . .
145(6) . . .
159(7) . . .
149(7) . . .
143(6) . . .
154(6) . . .
146(6) . . .
139(6) . . .
135(6) . . .
151(7) . . .
139(6) . . .
144(6) . . .
148(7) . . .
132(6) . . .
147(6) . . .
157(7) . . .
140(6) . . .
127(6) . . .
160(7) . . .
132(6) . . .
149(6) . . .
144(6) . . .
123(6) . . .
139(7) . . .
142(6) . . .
158(7) . . .
147(6) . . .
145(6) . . .
159(7) . . .
146(7) . . .
111(5) . . .
130(6) . . .
145(7) . . .
151(7) . . .
133(6) . . .
137(6) . . .
130(6) . . .
138(6) . . .
129(6) . . .
157(7) . . .
150(6) . . .
147(6) . . .
117(6) . . .
158(7) . . .
142(6) . . .
131(6) . . .
134(6) . . .
139(6) . . .
147(7) . . .
143(6) . . .
138(6) . . .
137(6) . . .
121(6) . . .
136(6) . . .
151(6) . . .
153(6) . . .
149(7) . . .
132(6) . . .
134(6) . . .
142(6) . . .
137(6) . . .
135(6) . . .
130(6) . . .
132(6) . . .
126(6) . . .
152(6) . . .
140(6) . . .
129(6) . . .
146(7) . . .
144(6) . . .
150(6) . . .
135(6) . . .
136(6) . . .
152(7) . . .
145(6) . . .
133(6) . . .
128(6) . . .
135(7) . . .
129(6) . . .
151(6) . . .
133(6) . . .
146(6) . . .
158(7) . . .
127(6) . . .
129(6) . . .
141(6) . . .
144(6) . . .
137(6) . . .
147(6) . . .
147(6) . . .
145(6) . . .
143(6) . . .
146(7) . . .
139(6) . . .
140(6) . . .
134(6) . . .
133(6) . . .
122(6) . . .
139(6) . . .
132(6) . . .
134(6) . . .
129(6) . . .
142(7) . . .
143(6) . . .
151(6) . . .
152(7) . . .
160(7) . . .
144(6) . . .
148(6) . . .
136(6) . . .
141(6) . . .
149(7) . . .
136(6) . . .
151(6) . . .
148(6) . . .
147(6) . . .
143(7) . . .
135(6) . . .
134(6) . . .
137(6) . . .
138(6) . . .
135(6) . . .
122(6) . . .
138(6) . . .
139(6) . . .
142(6) . . .
137(6) . . .
142(7) . . .
132(6) . . .
144(6) . . .
132(6) . . .
141(7) . . .
117(6) . . .
142(6) . . .
138(6) . . .
150(7) . . .
138(7) . . .
141(6) . . .
125(6) . . .
152(6) . . .
145(7) . . .
121(6) . . .
131(6) . . .
143(6) . . .
119(6) . . .
125(6) . . .
126(6) . . .
136(6) . . .
136(6) . . .
120(6) . . .
128(6) . . .
145(7) . . .
147(6) . . .
138(6) . . .
130(6) . . .
110(6) . . .
125(6) . . .
121(6) . . .
126(6) . . .
148(7) . . .
126(6) . . .
130(6) . . .
140(6) . . .
123(6) . . .
126(6) . . .
134(7) . . .
128(6) . . .
127(6) . . .
129(6) . . .
133(6) . . .
126(6) . . .
141(6) . . .
129(6) . . .
140(6) . . .
127(6) . . .
112(6) . . .
128(6) . . .
130(6) . . .
128(6) . . .
134(6) . . .
132(6) . . .
141(6) . . .
127(6) . . .
144(6) . . .
138(6) . . .
149(7) . . .
131(6) . . .
131(6) . . .
134(6) . . .
143(6) . . .
146(7) . . .
147(6) . . .
147(6) . . .
147(6) . . .
131(6) . . .
124(6) . . .
151(7) . . .
129(6) . . .
149(6) . . .
148(7) . . .
142(7) . . .
121(6) . . .
135(6) . . .
144(6) . . .
144(7) . . .
126(6) . . .
145(6) . . .
143(6) . . .
138(6) . . .
141(7) . . .
138(6) . . .
118(6) . . .
117(6) . . .
121(6) . . .
127(6) . . .
123(6) . . .
140(6) . . .
127(6) . . .
162(7) . . .
140(6) . . .
152(7) . . .
152(6) . . .
159(7) . . .
155(7) . . .
132(6) . . .
130(6) . . .
155(7) . . .
130(6) . . .
121(6) . . .
128(6) . . .
143(6) . . .
142(6) . . .
116(6) . . .
123(6) . . .
133(6) . . .
135(6) . . .
128(6) . . .
129(6) . . .
135(6) . . .
135(7) . . .
123(6) . . .
143(6) . . .
133(6) . . .
142(6) . . .
140(7) . . .
146(7) . . .
126(6) . . .
155(6) . . .
134(6) . . .
149(7) . . .
146(6) . . .
146(6) . . .
135(6) . . .
125(6) . . .
137(6) . . .
144(6) . . .
133(6) . . .
135(6) . . .
148(7) . . .
145(6) . . .
124(6) . . .
133(6) . . .
130(6) . . .
140(7) . . .
127(6) . . .
134(6) . . .
118(6) . . .
138(6) . . .
126(6) . . .
125(6) . . .
127(6) . . .
127(6) . . .
140(6) . . .
140(7) . . .
138(6) . . .
133(6) . . .
120(6) . . .
131(6) . . .
121(6) . . .
134(6) . . .
132(6) . . .
136(6) . . .
119(6) . . .
135(6) . . .
134(6) . . .
133(6) . . .
140(6) . . .
138(6) . . .
133(6) . . .
148(7) . . .
145(6) . . .
136(6) . . .
134(6) . . .
150(7) . . .
132(6) . . .
142(6) . . .
145(6) . . .
153(7) . . .
155(7) . . .
163(7) . . .
134(6) . . .
139(6) . . .
141(6) . . .
143(6) . . .
153(6) . . .
153(6) . . .
127(6) . . .
130(6) . . .
139(6) . . .
129(6) . . .
130(6) . . .
107(5) . . .
117(6) . . .
135(6) . . .
135(6) . . .
133(6) . . .
114(6) . . .
144(7) . . .
124(6) . . .
143(6) . . .
120(6) . . .
140(7) . . .
123(6) . . .
141(6) . . .
140(6) . . .
130(6) . . .
147(7) . . .
143(7) . . .
121(6) . . .
133(6) . . .
137(6) . . .
138(6) . . .
134(7) . . .
128(6) . . .
126(6) . . .
118(6) . . .
130(6) . . .
127(6) . . .
120(6) . . .
143(6) . . .
118(6) . . .
128(6) . . .
133(6) . . .
134(6) . . .
133(6) . . .
142(6) . . .
141(7) . . .
127(6) . . .
126(6) . . .
140(6) . . .
128(6) . . .
129(6) . . .
121(6) . . .
123(6) . . .
121(6) . . .
140(6) . . .
124(6) . . .
133(7) . . .
127(6) . . .
126(6) . . .
122(6) . . .
129(6) . . .
129(6) . . .
128(6) . . .
125(6) . . .
137(6) . . .
134(6) . . .
140(7) . . .
138(6) . . .
131(6) . . .
149(6) . . .
142(6) . . .
145(7) . . .
138(6) . . .
137(6) . . .
131(6) . . .
145(7) . . .
149(6) . . .
124(6) . . .
134(6) . . .
141(6) . . .
136(7) . . .
121(6) . . .
124(6) . . .
144(6) . . .
127(6) . . .
126(6) . . .
118(6) . . .
138(6) . . .
156(6) . . .
147(7) . . .
146(7) . . .
133(6) . . .
140(6) . . .
141(6) . . .
143(6) . . .
130(6) . . .
143(6) . . .
127(6) . . .
120(6) . . .
141(6) . . .
142(6) . . .
134(6) . . .
147(6) . . .
127(6) . . .
141(6) . . .
150(7) . . .
148(6) . . .
138(6) . . .
134(6) . . .
159(7) . . .
147(7) . . .
136(6) . . .
119(6) . . .
104(5) . . .
156(7) . . .
139(6) . . .
127(6) . . .
128(6) . . .
149(7) . . .
136(6) . . .
135(6) . . .
134(6) . . .
126(6) . . .
114(6) . . .
144(7) . . .
124(6) . . .
140(6) . . .
126(6) . . .
139(6) . . .
133(6) . . .
133(6) . . .
151(6) . . .
128(6) . . .
137(7) . . .
120(6) . . .
127(6) . . .
130(6) . . .
142(6) . . .
127(6) . . .
127(6) . . .
132(6) . . .
130(6) . . .
142(6) . . .
131(6) . . .
152(7) . . .
150(7) . . .
122(6) . . .
128(6) . . .
132(6) . . .
134(6) . . .
136(6) . . .
128(6) . . .
142(6) . . .
127(6) . . .
122(6) . . .
134(6) . . .
131(6) . . .
147(7) . . .
125(6) . . .
133(6) . . .
144(6) . . .
126(6) . . .
133(6) . . .
122(6) . . .
122(6) . . .
125(6) . . .
149(6) . . .
146(7) . . .
125(6) . . .
135(6) . . .
139(6) . . .
130(6) . . .
147(6) . . .
139(7) . . .
124(6) . . .
140(6) . . .
128(6) . . .
146(7) . . .
124(6) . . .
144(7) . . .
140(6) . . .
137(6) . . .
139(6) . . .
143(7) . . .
142(6) . . .
128(6) . . .
127(6) . . .
136(6) . . .
136(7) . . .
137(7) . . .
127(6) . . .
113(6) . . .
133(6) . . .
125(6) . . .
120(6) . . .
138(6) . . .
129(6) . . .
118(6) . . .
142(7) . . .
132(6) . . .
129(6) . . .
126(6) . . .
121(6) . . .
134(6) . . .
140(6) . . .
126(6) . . .
145(6) . . .
130(6) . . .
148(7) . . .
140(6) . . .
117(6) . . .
144(6) . . .
150(7) . . .
138(6) . . .
137(6) . . .
132(6) . . .
132(6) . . .
137(6) . . .
134(6) . . .
130(6) . . .
139(6) . . .
123(6) . . .
129(6) . . .
122(6) . . .
136(6) . . .
125(6) . . .
127(6) . . .
134(7) . . .
129(6) . . .
125(6) . . .
142(6) . . .
136(6) . . .
143(7) . . .
123(6) . . .
128(6) . . .
133(6) . . .
119(6) . . .
143(7) . . .
139(6) . . .
132(6) . . .
134(6) . . .
133(6) . . .
128(6) . . .
128(6) . . .
138(6) . . .
125(6) . . .
134(6) . . .
135(6) . . .
131(6) . . .
120(6) . . .
116(6) . . .
124(6) . . .
133(6) . . .
135(6) . . .
127(6) . . .
130(6) . . .
130(6) . . .
151(7) . . .
135(6) . . .
120(6) . . .
115(6) . . .
123(6) . . .
130(6) . . .
135(6) . . .
141(6) . . .
126(6) . . .
150(7) . . .
137(6) . . .
134(6) . . .
131(6) . . .
103(5) . . .
134(7) . . .
139(6) . . .
147(6) . . .
115(6) . . .
133(6) . . .
121(6) . . .
130(6) . . .
138(6) . . .
158(6) . . .
140(6) . . .
154(7) . . .
129(6) . . .
141(6) . . .
144(6) . . .
152(7) . . .
122(6) . . .
127(6) . . .
115(6) . . .
148(6) . . .
125(6) . . .
131(6) . . .
142(6) . . .
137(6) . . .
133(6) . . .
132(6) . . .
130(6) . . .
144(6) . . .
118(6) . . .
132(6) . . .
139(6) . . .
136(6) . . .
130(6) . . .
147(6) . . .
139(6) . . .
121(6) . . .
122(6) . . .
114(6) . . .
118(6) . . .
142(6) . . .
133(6) . . .
133(6) . . .
138(6) . . .
128(6) . . .
120(6) . . .
138(6) . . .
123(6) . . .
130(6) . . .
135(6) . . .
134(6) . . .
120(6) . . .
128(6) . . .
133(6) . . .
126(6) . . .
130(6) . . .
136(7) . . .
129(6) . . .
129(6) . . .
135(6) . . .
138(6) . . .
132(6) . . .
132(6) . . .
130(6) . . .
134(6) . . .
139(6) . . .
150(7) . . .
134(6) . . .
142(6) . . .
152(6) . . .
134(6) . . .
120(6) . . .
125(6) . . .
124(6) . . .
132(6) . . .
130(6) . . .
131(6) . . .
126(6) . . .
130(6) . . .
132(6) . . .
139(6) . . .
121(6) . . .
138(6) . . .
134(6) . . .
149(6) . . .
139(6) . . .
139(6) . . .
136(6) . . .
140(6) . . .
126(6) . . .
115(6) . . .
126(6) . . .
145(6) . . .
144(6) . . .
137(6) . . .
137(6) . . .
133(6) . . .
139(6) . . .
134(6) . . .
126(6) . . .
145(7) . . .
138(6) . . .
114(6) . . .
109(5) . . .
147(7) . . .
134(6) . . .
137(6) . . .
143(6) . . .
138(6) . . .
135(6) . . .
129(6) . . .
130(6) . . .
126(6) . . .
135(6) . . .
136(6) . . .
114(6) . . .
126(6) . . .
135(6) . . .
146(6) . . .
134(6) . . .
126(6) . . .
120(6) . . .
136(6) . . .
124(6) . . .
128(6) . . .
129(6) . . .
118(6) . . .
134(6) . . .
143(6) . . .
138(6) . . .
137(6) . . .
135(6) . . .
129(6) . . .
133(6) . . .
126(6) . . .
122(6) . . .
116(6) . . .
134(6) . . .
127(6) . . .
135(6) . . .
136(6) . . .
134(6) . . .
126(6) . . .
131(6) . . .
149(7) . . .
132(6) . . .
126(6) . . .
136(6) . . .
134(6) . . .
117(6) . . .
135(6) . . .
148(6) . . .
146(6) . . .
135(6) . . .
134(6) . . .
123(6) . . .
128(6) . . .
122(6) . . .
137(6) . . .
131(6) . . .
131(6) . . .
126(6) . . .
121(6) . . .
129(6) . . .
133(6) . . .
133(6) . . .
125(6) . . .
132(6) . . .
131(6) . . .
126(6) . . .
116(6) . . .
142(6) . . .
138(6) . . .
134(6) . . .
144(7) . . .
127(6) . . .
127(6) . . .
134(6) . . .
141(6) . . .
125(6) . . .
129(6) . . .
127(6) . . .
124(6) . . .
122(6) . . .
121(6) . . .
110(5) . . .
114(6) . . .
133(6) . . .
134(6) . . .
119(6) . . .
134(6) . . .
144(6) . . .
127(6) . . .
121(6) . . .
116(6) . . .
141(6) . . .
140(6) . . .
128(6) . . .
135(6) . . .
130(6) . . .
128(6) . . .
117(6) . . .
118(6) . . .
120(6) . . .
134(6) . . .
109(6) . . .
118(6) . . .
123(6) . . .
135(7) . . .
120(6) . . .
126(6) . . .
112(6) . . .
128(6) . . .
131(7) . . .
122(6) . . .
122(6) . . .
128(6) . . .
127(6) . . .
130(6) . . .
135(6) . . .
128(6) . . .
138(6) . . .
137(6) . . .
130(6) . . .
129(6) . . .
130(6) . . .
130(6) . . .
131(6) . . .
136(6) . . .
121(6) . . .
138(6) . . .
122(6) . . .
140(6) . . .
121(6) . . .
117(6) . . .
130(6) . . .
129(6) . . .
117(6) . . .
139(6) . . .
136(6) . . .
126(6) . . .
120(6) . . .
129(6) . . .
140(6) . . .
139(6) . . .
124(6) . . .
125(6) . . .
117(6) . . .
152(7) . . .
137(6) . . .
131(6) . . .
129(6) . . .
127(6) . . .
117(6) . . .
126(6) . . .
126(6) . . .
147(7) . . .
147(7) . . .
133(6) . . .
136(6) . . .
114(6) . . .
140(7) . . .
139(7) . . .
132(6) . . .
120(6) . . .
142(6) . . .
123(6) . . .
128(6) . . .
129(6) . . .
111(5) . . .
126(6) . . .
130(6) . . .
127(6) . . .
137(6) . . .
139(6) . . .
138(6) . . .
131(6) . . .
143(6) . . .
140(6) . . .
121(6) . . .
127(6) . . .
130(6) . . .
137(6) . . .
136(6) . . .
128(6) . . .
137(6) . . .
132(6) . . .
124(6) . . .
128(6) . . .
121(6) . . .
128(6) . . .
121(6) . . .
124(6) . . .
124(6) . . .
125(6) . . .
119(6) . . .
110(6) . . .
134(7) . . .
137(6) . . .
124(6) . . .
147(7) . . .
138(7) . . .
132(6) . . .
127(6) . . .
142(6) . . .
134(6) . . .
119(6) . . .
123(6) . . .
115(6) . . .
121(6) . . .
117(6) . . .
147(7) . . .
140(6) . . .
134(6) . . .
139(6) . . .
141(6) . . .
134(6) . . .
146(6) . . .
135(6) . . .
128(6) . . .
133(6) . . .
139(6) . . .
140(6) . . .
133(6) . . .
125(6) . . .
128(6) . . .
145(7) . . .
129(6) . . .
127(6) . . .
129(6) . . .
112(6) . . .
126(6) . . .
131(6) . . .
147(6) . . .
123(6) . . .
114(6) . . .
123(6) . . .
112(6) . . .
126(6) . . .
146(7) . . .
131(6) . . .
122(6) . . .
131(6) . . .
125(6) . . .
128(6) . . .
134(6) . . .
132(6) . . .
118(6) . . .
126(6) . . .
138(6) . . .
137(7) . . .
143(7) . . .
124(6) . . .
133(6) . . .
116(6) . . .
135(6) . . .
136(6) . . .
120(6) . . .
136(6) . . .
135(6) . . .
138(6) . . .
127(6) . . .
140(6) . . .
147(6) . . .
130(6) . . .
124(6) . . .
140(6) . . .
132(6) . . .
118(6) . . .
142(6) . . .
123(6) . . .
131(6) . . .
126(6) . . .
129(6) . . .
137(6) . . .
129(6) . . .
110(6) . . .
128(6) . . .
123(6) . . .
109(6) . . .
142(6) . . .
141(6) . . .
140(6) . . .
141(6) . . .
130(6) . . .
136(6) . . .
128(6) . . .
136(6) . . .
136(6) . . .
132(6) . . .
152(7) . . .
146(6) . . .
136(6) . . .
146(6) . . .
140(7) . . .
109(6) . . .
128(6) . . .
130(6) . . .
132(6) . . .
119(6) . . .
118(6) . . .
123(6) . . .
128(6) . . .
130(6) . . .
136(6) . . .
118(6) . . .
144(6) . . .
126(6) . . .
121(6) . . .
122(6) . . .
133(6) . . .
123(6) . . .
130(6) . . .
120(6) . . .
131(6) . . .
131(6) . . .
118(6) . . .
127(6) . . .
121(6) . . .
125(6) . . .
123(6) . . .
140(6) . . .
127(6) . . .
132(6) . . .
133(6) . . .
130(6) . . .
124(6) . . .
129(6) . . .
138(6) . . .
127(6) . . .
134(6) . . .
151(6) . . .
127(6) . . .
130(6) . . .
125(6) . . .
135(6) . . .
117(6) . . .
127(6) . . .
119(6) . . .
124(6) . . .
130(6) . . .
123(6) . . .
122(6) . . .
137(6) . . .
132(6) . . .
147(6) . . .
119(6) . . .
139(6) . . .
141(7) . . .
138(6) . . .
116(6) . . .
117(6) . . .
121(6) . . .
114(6) . . .
129(6) . . .
137(6) . . .
117(6) . . .
132(6) . . .
131(6) . . .
133(6) . . .
122(6) . . .
131(6) . . .
129(6) . . .
115(6) . . .
135(7) . . .
119(6) . . .
129(6) . . .
129(6) . . .
112(6) . . .
124(6) . . .
120(6) . . .
136(6) . . .
137(6) . . .
131(6) . . .
134(6) . . .
141(6) . . .
139(6) . . .
129(6) . . .
140(6) . . .
134(6) . . .
134(6) . . .
145(6) . . .
126(6) . . .
129(7) . . .
114(6) . . .
124(6) . . .
136(6) . . .
122(6) . . .
131(6) . . .
129(6) . . .
142(6) . . .
138(6) . . .
111(6) . . .
139(6) . . .
139(6) . . .
120(6) . . .
128(6) . . .
132(6) . . .
121(6) . . .
119(6) . . .
123(6) . . .
122(6) . . .
130(6) . . .
126(6) . . .
128(6) . . .
126(6) . . .
109(6) . . .
138(7) . . .
129(6) . . .
129(6) . . .
115(6) . . .
115(6) . . .
129(6) . . .
125(6) . . .
128(6) . . .
134(6) . . .
142(6) . . .
124(6) . . .
123(6) . . .
130(6) . . .
123(6) . . .
142(6) . . .
139(6) . . .
141(6) . . .
130(6) . . .
138(6) . . .
130(6) . . .
129(6) . . .
124(6) . . .
138(6) . . .
151(7) . . .
146(7) . . .
125(6) . . .
125(6) . . .
138(6) . . .
141(6) . . .
128(6) . . .
127(6) . . .
142(6) . . .
148(6) . . .
147(7) . . .
132(6) . . .
147(7) . . .
126(6) . . .
123(6) . . .
148(7) . . .
134(6) . . .
135(6) . . .
129(6) . . .
143(6) . . .
139(6) . . .
133(6) . . .
135(6) . . .
146(6) . . .
131(6) . . .
141(6) . . .
149(7) . . .
146(6) . . .
129(6) . . .
147(6) . . .
145(6) . . .
136(6) . . .
132(6) . . .
144(6) . . .
126(6) . . .
127(6) . . .
136(6) . . .
135(6) . . .
123(6) . . .
154(7) . . .
132(6) . . .
142(7) . . .
136(6) . . .
132(6) . . .
128(6) . . .
142(6) . . .
133(6) . . .
144(6) . . .
135(6) . . .
141(6) . . .
140(6) . . .
135(6) . . .
141(6) . . .
151(6) . . .
134(6) . . .
123(6) . . .
128(6) . . .
132(6) . . .
128(6) . . .
130(6) . . .
121(6) . . .
129(6) . . .
123(6) . . .
136(6) . . .
146(7) . . .
140(6) . . .
130(6) . . .
147(7) . . .
127(6) . . .
113(6) . . .
125(6) . . .
136(6) . . .
123(6) . . .
134(6) . . .
126(6) . . .
137(7) . . .
121(6) . . .
132(6) . . .
133(6) . . .
131(6) . . .
128(6) . . .
109(6) . . .
107(5) . . .
126(6) . . .
122(6) . . .
114(6) . . .
116(6) . . .
139(6) . . .
126(6) . . .
126(6) . . .
137(6) . . .
137(6) . . .
127(6) . . .
134(6) . . .
136(6) . . .
141(7) . . .
126(6) . . .
144(6) . . .
127(6) . . .
140(6) . . .
143(7) . . .
133(6) . . .
127(6) . . .
133(6) . . .
124(6) . . .
119(6) . . .
129(6) . . .
127(6) . . .
130(6) . . .
120(6) . . .
121(6) . . .
147(6) . . .
123(6) . . .
134(6) . . .
136(6) . . .
127(6) . . .
133(6) . . .
123(6) . . .
126(6) . . .
131(6) . . .
144(7) . . .
124(6) . . .
128(6) . . .
128(6) . . .
128(6) . . .
120(6) . . .
127(6) . . .
122(6) . . .
129(6) . . .
135(7) . . .
137(6) . . .
135(6) . . .
130(6) . . .
125(6) . . .
128(6) . . .
127(6) . . .
148(6) . . .
136(6) . . .
137(6) . . .
126(6) . . .
122(6) . . .
128(6) . . .
126(6) . . .
118(6) . . .
127(6) . . .
136(6) . . .
147(6) . . .
123(6) . . .
126(6) . . .
131(6) . . .
143(6) . . .
141(6) . . .
119(6) . . .
146(7) . . .
130(6) . . .
131(6) . . .
142(6) . . .
135(6) . . .
121(6) . . .
137(6) . . .
146(6) . . .
142(6) . . .
134(6) . . .
140(6) . . .
135(6) . . .
143(6) . . .
151(6) . . .
141(6) . . .
134(7) . . .
118(6) . . .
137(6) . . .
116(6) . . .
144(6) . . .
140(6) . . .
152(7) . . .
124(6) . . .
142(6) . . .
135(6) . . .
136(6) . . .
130(6) . . .
133(6) . . .
147(6) . . .
125(6) . . .
120(6) . . .
137(6) . . .
132(6) . . .
129(6) . . .
142(6) . . .
156(7) . . .
128(6) . . .
132(6) . . .
149(6) . . .
132(6) . . .
145(7) . . .
143(7) . . .
134(6) . . .
143(6) . . .
138(6) . . .
120(6) . . .
135(6) . . .
132(6) . . .
133(6) . . .
114(6) . . .
125(6) . . .
127(6) . . .
123(6) . . .
127(6) . . .
145(7) . . .
144(6) . . .
129(6) . . .
130(6) . . .
139(6) . . .
131(6) . . .
136(6) . . .
140(6) . . .
131(6) . . .
145(7) . . .
138(6) . . .
133(6) . . .
114(6) . . .
132(6) . . .
129(6) . . .
130(6) . . .
139(6) . . .
124(6) . . .
126(6) . . .
128(6) . . .
137(6) . . .
130(6) . . .
138(6) . . .
134(6) . . .
130(6) . . .
128(6) . . .
131(6) . . .
142(6) . . .
128(6) . . .
140(7) . . .
147(7) . . .
135(6) . . .
127(6) . . .
118(6) . . .
149(7) . . .
130(6) . . .
127(6) . . .
128(6) . . .
120(6) . . .
133(6) . . .
147(7) . . .
130(6) . . .
128(6) . . .
141(6) . . .
129(6) . . .
130(6) . . .
135(6) . . .
134(6) . . .
121(6) . . .
132(6) . . .
134(6) . . .
138(6) . . .
117(6) . . .
126(6) . . .
142(7) . . .
141(6) . . .
138(6) . . .
136(6) . . .
126(6) . . .
141(7) . . .
126(6) . . .
129(6) . . .
126(6) . . .
120(6) . . .
130(6) . . .
132(6) . . .
119(6) . . .
136(6) . . .
132(6) . . .
140(7) . . .
153(7) . . .
135(6) . . .
132(6) . . .
123(6) . . .
136(7) . . .
132(6) . . .
136(6) . . .
123(6) . . .
138(6) . . .
133(6) . . .
125(6) . . .
125(6) . . .
128(6) . . .
108(6) . . .
112(6) . . .
136(6) . . .
112(6) . . .
142(6) . . .
133(6) . . .
130(6) . . .
152(7) . . .
149(6) . . .
121(6) . . .
123(6) . . .
115(6) . . .
130(6) . . .
137(6) . . .
132(6) . . .
118(6) . . .
128(6) . . .
138(7) . . .
140(6) . . .
127(6) . . .
134(6) . . .
137(6) . . .
142(6) . . .
125(6) . . .
140(6) . . .
148(7) . . .
124(6) . . .
123(6) . . .
120(6) . . .
144(6) . . .
139(6) . . .
123(6) . . .
119(6) . . .
133(6) . . .
142(6) . . .
129(6) . . .
127(6) . . .
131(6) . . .
125(6) . . .
126(6) . . .
132(6) . . .
126(6) . . .
146(6) . . .
133(6) . . .
136(6) . . .
128(6) . . .
122(6) . . .
147(6) . . .
137(6) . . .
128(6) . . .
116(6) . . .
133(6) . . .
124(6) . . .
136(6) . . .
143(6) . . .
133(6) . . .
131(6) . . .
123(6) . . .
137(6) . . .
123(6) . . .
127(6) . . .
118(6) . . .
119(6) . . .
121(6) . . .
125(6) . . .
135(6) . . .
133(6) . . .
118(6) . . .
111(6) . . .
134(6) . . .
125(6) . . .
124(6) . . .
125(6) . . .
125(6) . . .
112(6) . . .
134(6) . . .
128(6) . . .
126(6) . . .
128(6) . . .
131(6) . . .
127(6) . . .
125(6) . . .
123(6) . . .
139(6) . . .
145(7) . . .
112(6) . . .
134(6) . . .
127(6) . . .
116(6) . . .
129(6) . . .
126(6) . . .
134(6) . . .
114(6) . . .
132(6) . . .
124(6) . . .
115(6) . . .
121(6) . . .
117(6) . . .
118(6) . . .
123(6) . . .
125(6) . . .
132(6) . . .
130(6) . . .
129(6) . . .
136(7) . . .
146(7) . . .
119(6) . . .
125(6) . . .
139(6) . . .
143(7) . . .
121(6) . . .
136(6) . . .
129(6) . . .
148(7) . . .
125(6) . . .
145(7) . . .
121(6) . . .
137(6) . . .
138(7) . . .
133(6) . . .
143(6) . . .
121(6) . . .
116(6) . . .
130(6) . . .
126(6) . . .
129(6) . . .
144(6) . . .
141(7) . . .
125(6) . . .
125(6) . . .
127(6) . . .
131(6) . . .
131(6) . . .
134(6) . . .
132(6) . . .
126(6) . . .
125(6) . . .
116(6) . . .
138(6) . . .
137(6) . . .
121(6) . . .
140(6) . . .
125(6) . . .
126(6) . . .
151(7) . . .
143(6) . . .
112(6) . . .
112(6) . . .
147(7) . . .
129(6) . . .
114(6) . . .
131(6) . . .
135(6) . . .
125(6) . . .
127(6) . . .
127(6) . . .
143(6) . . .
129(6) . . .
137(7) . . .
129(6) . . .
123(6) . . .
118(6) . . .
116(6) . . .
142(7) . . .
137(6) . . .
141(6) . . .
118(6) . . .
123(6) . . .
141(7) . . .
145(7) . . .
103(5) . . .
118(6) . . .
154(7) . . .
126(6) . . .
118(6) . . .
136(6) . . .
134(6) . . .
115(6) . . .
111(6) . . .
116(6) . . .
123(6) . . .
126(6) . . .
136(6) . . .
135(6) . . .
134(6) . . .
141(6) . . .
143(7) . . .
139(7) . . .
129(6) . . .
126(6) . . .
135(6) . . .
133(6) . . .
143(7) . . .
137(6) . . .
133(6) . . .
127(6) . . .
130(6) . . .
133(6) . . .
122(6) . . .
119(6) . . .
133(6) . . .
125(6) . . .
131(6) . . .
134(6) . . .
126(6) . . .
131(6) . . .
140(7) . . .
145(7) . . .
137(6) . . .
123(6) . . .
133(6) . . .
133(6) . . .
137(6) . . .
123(6) . . .
141(6) . . .
140(6) . . .
140(7) . . .
130(6) . . .
116(6) . . .
114(6) . . .
134(6) . . .
135(6) . . .
131(6) . . .
122(6) . . .
121(6) . . .
139(6) . . .
143(7) . . .
133(6) . . .
130(6) . . .
140(6) . . .
122(6) . . .
125(6) . . .
131(6) . . .
120(6) . . .
134(6) . . .
128(6) . . .
129(6) . . .
141(6) . . .
150(6) . . .
131(6) . . .
145(6) . . .
127(6) . . .
118(6) . . .
130(6) . . .
147(6) . . .
138(6) . . .
117(6) . . .
120(6) . . .
125(6) . . .
124(6) . . .
131(6) . . .
121(6) . . .
135(6) . . .
113(6) . . .
126(6) . . .
147(7) . . .
140(7) . . .
129(6) . . .
134(6) . . .
122(6) . . .
125(6) . . .
143(7) . . .
132(6) . . .
119(6) . . .
119(6) . . .
132(6) . . .
149(7) . . .
138(6) . . .
122(6) . . .
115(6) . . .
125(6) . . .
129(6) . . .
141(6) . . .
128(6) . . .
130(6) . . .
114(6) . . .
122(6) . . .
123(6) . . .
118(6) . . .
122(6) . . .
125(6) . . .
113(6) . . .
124(6) . . .
131(6) . . .
133(6) . . .
118(6) . . .
111(6) . . .
113(6) . . .
132(6) . . .
130(6) . . .
114(6) . . .
109(6) . . .
124(6) . . .
117(6) . . .
120(6) . . .
119(6) . . .
127(6) . . .
118(6) . . .
105(6) . . .
100(5) . . .
113(6) . . .
117(6) . . .
132(6) . . .
123(6) . . .
114(6) . . .
132(6) . . .
124(6) . . .
126(6) . . .
119(6) . . .
131(6) . . .
112(6) . . .
129(6) . . .
125(6) . . .
123(6) . . .
117(6) . . .
122(6) . . .
109(6) . . .
110(6) . . .
113(6) . . .
111(5) . . .
120(6) . . .
127(6) . . .
113(6) . . .
129(6) . . .
109(5) . . .
116(6) . . .
120(6) . . .
120(6) . . .
101(5) . . .
122(6) . . .
125(6) . . .
126(6) . . .
111(6) . . .
114(6) . . .
120(6) . . .
117(6) . . .
111(6) . . .
119(6) . . .
113(5) . . .
129(6) . . .
120(6) . . .
114(6) . . .
131(6) . . .
137(6) . . .
116(6) . . .
117(6) . . .
113(6) . . .
138(6) . . .
129(6) . . .
122(6) . . .
144(7) . . .
125(7) . . .
121(6) . . .
122(6) . . .
124(6) . . .
118(6) . . .
116(6) . . .
119(6) . . .
102(5) . . .
118(6) . . .
107(6) . . .
106(6) . . .
123(6) . . .
138(6) . . .
132(6) . . .
121(6) . . .
116(6) . . .
119(6) . . .
112(5) . . .
110(5) . . .
127(6) . . .
122(6) . . .
106(6) . . .
113(5) . . .
123(6) . . .
127(6) . . .
120(6) . . .
123(6) . . .
128(6) . . .
120(6) . . .
115(6) . . .
133(6) . . .
134(6) . . .
119(6) . . .
135(6) . . .
120(6) . . .
138(6) . . .
129(6) . . .
142(6) . . .
123(6) . . .
124(6) . . .
128(6) . . .
120(6) . . .
132(6) . . .
129(6) . . .
121(6) . . .
123(6) . . .
122(6) . . .
126(6) . . .
120(6) . . .
137(7) . . .
117(6) . . .
120(6) . . .
128(6) . . .
112(6) . . .
109(6) . . .
114(6) . . .
101(5) . . .
116(6) . . .
112(6) . . .
120(6) . . .
114(6) . . .
127(6) . . .
122(6) . . .
116(6) . . .
123(6) . . .
113(6) . . .
124(6) . . .
118(6) . . .
117(6) . . .
120(6) . . .
125(6) . . .
104(5) . . .
118(6) . . .
123(6) . . .
124(6) . . .
112(6) . . .
119(6) . . .
134(6) . . .
124(6) . . .
132(6) . . .
128(6) . . .
126(6) . . .
123(6) . . .
121(6) . . .
118(6) . . .
132(6) . . .
127(6) . . .
132(6) . . .
118(6) . . .
117(6) . . .
133(6) . . .
117(6) . . .
110(6) . . .
119(6) . . .
133(6) . . .
125(6) . . .
117(6) . . .
115(6) . . .
111(6) . . .
118(6) . . .
127(6) . . .
116(6) . . .
135(6) . . .
125(6) . . .
117(6) . . .
123(6) . . .
131(6) . . .
111(6) . . .
127(6) . . .
115(6) . . .
119(6) . . .
122(6) . . .
117(6) . . .
132(6) . . .
124(6) . . .
120(6) . . .
135(6) . . .
114(6) . . .
111(6) . . .
134(6) . . .
114(5) . . .
119(6) . . .
118(6) . . .
120(6) . . .
118(6) . . .
113(6) . . .
122(6) . . .
136(7) . . .
124(6) . . .
124(6) . . .
113(6) . . .
121(6) . . .
136(7) . . .
113(6) . . .
113(6) . . .
131(6) . . .
128(6) . . .
135(6) . . .
128(6) . . .
117(6) . . .
129(6) . . .
119(6) . . .
127(6) . . .
119(6) . . .
123(6) . . .
123(6) . . .
113(6) . . .
126(6) . . .
109(6) . . .
120(6) . . .
115(6) . . .
118(6) . . .
112(6) . . .
122(6) . . .
116(6) . . .
112(6) . . .
137(6) . . .
117(6) . . .
118(6) . . .
121(6) . . .
121(6) . . .
118(6) . . .
112(6) . . .
138(6) . . .
109(5) . . .
117(6) . . .
121(6) . . .
122(6) . . .
120(6) . . .
115(6) . . .
120(6) . . .
113(6) . . .
128(6) . . .
140(6) . . .
122(6) . . .
113(6) . . .
140(7) . . .
124(6) . . .
124(6) . . .
121(6) . . .
122(6) . . .
121(6) . . .
117(6) . . .
139(6) . . .
133(6) . . .
133(6) . . .
123(6) . . .
135(6) . . .
116(6) . . .
120(6) . . .
132(6) . . .
129(6) . . .
128(6) . . .
129(6) . . .
133(6) . . .
121(6) . . .
120(6) . . .
119(6) . . .
138(6) . . .
128(6) . . .
102(5) . . .
123(6) . . .
125(6) . . .
111(6) . . .
127(6) . . .
134(6) . . .
129(6) . . .
132(6) . . .
130(6) . . .
115(6) . . .
130(6) . . .
118(6) . . .
132(6) . . .
139(6) . . .
123(6) . . .
113(6) . . .
133(6) . . .
117(6) . . .
132(6) . . .
105(5) . . .
126(6) . . .
131(6) . . .
127(6) . . .
121(6) . . .
108(5) . . .
123(6) . . .
119(6) . . .
122(6) . . .
118(6) . . .
120(6) . . .
123(6) . . .
116(6) . . .
119(6) . . .
116(6) . . .
131(6) . . .
129(6) . . .
131(6) . . .
123(6) . . .
125(6) . . .
125(6) . . .
123(6) . . .
124(6) . . .
103(5) . . .
122(6) . . .
121(6) . . .
124(6) . . .
122(6) . . .
135(6) . . .
129(6) . . .
102(5) . . .
116(6) . . .
122(6) . . .
118(6) . . .
135(6) . . .
121(6) . . .
117(6) . . .
131(6) . . .
129(6) . . .
131(6) . . .
127(6) . . .
109(6) . . .
112(6) . . .
115(6) . . .
120(6) . . .
125(6) . . .
123(6) . . .
123(6) . . .
120(6) . . .
125(6) . . .
133(6) . . .
105(5) . . .
130(6) . . .
122(6) . . .
126(6) . . .
110(6) . . .
110(6) . . .
113(6) . . .
130(6) . . .
120(6) . . .
114(6) . . .
119(6) . . .
117(6) . . .
135(6) . . .
102(5) . . .
116(6) . . .
113(6) . . .
117(6) . . .
144(6) . . .
122(6) . . .
107(6) . . .
123(6) . . .
120(6) . . .
127(6) . . .
114(6) . . .
130(6) . . .
127(6) . . .
136(6) . . .
118(6) . . .
124(6) . . .
126(6) . . .
134(6) . . .
118(6) . . .
109(5) . . .
121(6) . . .
124(6) . . .
128(6) . . .
125(6) . . .
133(6) . . .
123(6) . . .
107(6) . . .
114(6) . . .
126(6) . . .
108(5) . . .
104(6) . . .
104(6) . . .
114(6) . . .
111(5) . . .
126(6) . . .
125(6) . . .
128(6) . . .
120(6) . . .
112(5) . . .
128(6) . . .
121(6) . . .
125(6) . . .
123(6) . . .
108(5) . . .
119(6) . . .
133(6) . . .
146(6) . . .
126(6) . . .
122(6) . . .
139(6) . . .
130(6) . . .
115(6) . . .
117(6) . . .
113(6) . . .
109(5) . . .
116(6) . . .
116(6) . . .
125(6) . . .
112(5) . . .
110(6) . . .
126(6) . . .
143(7) . . .
120(6) . . .
108(5) . . .
123(6) . . .
115(6) . . .
120(6) . . .
116(6) . . .
126(6) . . .
118(6) . . .
126(6) . . .
134(6) . . .
121(6) . . .
107(5) . . .
113(6) . . .
133(6) . . .
136(6) . . .
110(6) . . .
120(6) . . .
116(6) . . .
131(6) . . .
131(6) . . .
118(6) . . .
124(6) . . .
120(6) . . .
120(6) . . .
117(6) . . .
104(5) . . .
119(6) . . .
115(6) . . .
115(6) . . .
109(6) . . .
121(6) . . .
118(6) . . .
147(7) . . .
120(6) . . .
113(6) . . .
123(6) . . .
124(6) . . .
112(6) . . .
131(6) . . .
113(6) . . .
122(6) . . .
112(6) . . .
128(6) . . .
119(6) . . .
118(6) . . .
121(6) . . .
142(6) . . .
137(6) . . .
138(6) . . .
138(6) . . .
139(6) . . .
125(6) . . .
114(6) . . .
128(6) . . .
139(6) . . .
121(6) . . .
108(6) . . .
126(6) . . .
139(6) . . .
117(6) . . .
118(6) . . .
127(6) . . .
109(6) . . .
121(6) . . .
113(6) . . .
114(6) . . .
122(6) . . .
127(6) . . .
123(6) . . .
126(6) . . .
112(6) . . .
129(6) . . .
122(6) . . .
119(6) . . .
127(6) . . .
109(6) . . .
116(6) . . .
113(6) . . .
113(6) . . .
120(6) . . .
117(6) . . .
111(6) . . .
121(6) . . .
124(6) . . .
130(6) . . .
134(6) . . .
114(6) . . .
119(6) . . .
110(6) . . .
113(6) . . .
127(6) . . .
129(6) . . .
118(6) . . .
110(6) . . .
124(6) . . .
135(6) . . .
115(6) . . .
125(6) . . .
136(6) . . .
115(6) . . .
118(6) . . .
120(6) . . .
120(6) . . .
132(6) . . .
113(6) . . .
121(6) . . .
129(6) . . .
118(6) . . .
135(6) . . .
111(5) . . .
128(6) . . .
129(6) . . .
141(6) . . .
119(6) . . .
115(6) . . .
107(6) . . .
116(6) . . .
117(6) . . .
121(6) . . .
120(6) . . .
124(6) . . .
113(6) . . .
119(6) . . .
111(5) . . .
127(6) . . .
113(6) . . .
122(6) . . .
134(6) . . .
128(6) . . .
136(6) . . .
122(6) . . .
120(6) . . .
123(6) . . .
123(6) . . .
126(6) . . .
130(6) . . .
107(6) . . .
113(6) . . .
130(6) . . .
116(6) . . .
118(6) . . .
130(6) . . .
126(6) . . .
119(6) . . .
116(6) . . .
113(6) . . .
117(6) . . .
121(6) . . .
109(5) . . .
118(6) . . .
123(6) . . .
124(6) . . .
117(6) . . .
139(6) . . .
131(6) . . .
120(6) . . .
118(6) . . .
120(6) . . .
115(6) . . .
111(6) . . .
130(6) . . .
136(6) . . .
120(6) . . .
129(6) . . .
125(6) . . .
119(6) . . .
108(5) . . .
126(6) . . .
124(6) . . .
115(6) . . .
121(6) . . .
120(6) . . .
110(5) . . .
115(6) . . .
125(6) . . .
110(6) . . .
105(5) . . .
124(6) . . .
109(6) . . .
122(6) . . .
112(6) . . .
123(6) . . .
129(6) . . .
128(6) . . .
120(6) . . .
130(6) . . .
128(6) . . .
115(6) . . .
115(6) . . .
105(6) . . .
125(6) . . .
123(6) . . .
116(6) . . .
122(6) . . .
134(6) . . .
110(6) . . .
110(5) . . .
105(5) . . .
139(6) . . .
120(6) . . .
124(6) . . .
121(6) . . .
128(6) . . .
119(6) . . .
124(6) . . .
111(6) . . .
122(6) . . .
137(6) . . .
133(6) . . .
113(6) . . .
115(6) . . .
110(5) . . .
116(6) . . .
115(6) . . .
126(6) . . .
116(6) . . .
120(6) . . .
119(6) . . .
120(6) . . .
126(6) . . .
116(6) . . .
99(5) . . .
124(6) . . .
122(6) . . .
127(6) . . .
142(6) . . .
141(6) . . .
115(6) . . .
98(5) . . .
124(6) . . .
127(6) . . .
131(6) . . .
128(6) . . .
116(6) . . .
125(6) . . .
123(6) . . .
118(6) . . .
125(6) . . .
126(6) . . .
120(6) . . .
120(6) . . .
118(6) . . .
117(6) . . .
125(6) . . .
120(6) . . .
109(5) . . .
118(6) . . .
122(6) . . .
116(6) . . .
115(6) . . .
127(6) . . .
116(6) . . .
133(6) . . .
122(6) . . .
120(6) . . .
115(6) . . .
130(6) . . .
123(6) . . .
118(6) . . .
121(6) . . .
116(6) . . .
118(6) . . .
118(6) . . .
125(6) . . .
118(6) . . .
130(6) . . .
114(6) . . .
127(6) . . .
131(6) . . .
128(6) . . .
133(6) . . .
117(6) . . .
108(6) . . .
119(6) . . .
127(6) . . .
121(6) . . .
112(6) . . .
121(6) . . .
134(7) . . .
124(6) . . .
130(6) . . .
134(6) . . .
128(6) . . .
113(6) . . .
135(6) . . .
124(6) . . .
128(6) . . .
115(6) . . .
134(6) . . .
120(6) . . .
138(6) . . .
115(6) . . .
133(6) . . .
127(6) . . .
120(6) . . .
121(6) . . .
125(6) . . .
144(7) . . .
126(6) . . .
140(6) . . .
137(6) . . .
125(6) . . .
140(7) . . .
127(6) . . .
125(6) . . .
130(6) . . .
129(6) . . .
127(6) . . .
123(6) . . .
126(6) . . .
137(6) . . .
139(6) . . .
127(6) . . .
116(6) . . .
133(6) . . .
136(6) . . .
132(6) . . .
129(6) . . .
135(6) . . .
131(6) . . .
126(6) . . .
121(6) . . .
123(6) . . .
128(6) . . .
129(6) . . .
123(6) . . .
120(6) . . .
117(6) . . .
121(6) . . .
128(6) . . .
139(6) . . .
114(6) . . .
125(6) . . .
129(6) . . .
125(6) . . .
123(6) . . .
127(6) . . .
132(6) . . .
138(6) . . .
128(6) . . .
114(6) . . .
130(6) . . .
126(6) . . .
122(6) . . .
125(6) . . .
131(6) . . .
130(6) . . .
129(6) . . .
136(6) . . .
128(6) . . .
141(6) . . .
129(6) . . .
136(6) . . .
127(6) . . .
121(6) . . .
121(6) . . .
130(6) . . .
125(6) . . .
119(6) . . .
117(6) . . .
123(6) . . .
130(6) . . .
140(6) . . .
146(6) . . .
136(6) . . .
111(6) . . .
122(6) . . .
134(6) . . .
124(6) . . .
132(6) . . .
133(6) . . .
130(6) . . .
125(6) . . .
130(6) . . .
115(6) . . .
109(5) . . .
120(6) . . .
126(6) . . .
122(6) . . .
132(6) . . .
125(6) . . .
132(6) . . .
117(6) . . .
130(6) . . .
124(6) . . .
118(6) . . .
130(6) . . .
130(6) . . .
131(6) . . .
123(6) . . .
131(6) . . .
138(6) . . .
145(6) . . .
133(6) . . .
133(6) . . .
132(6) . . .
124(6) . . .
130(6) . . .
139(6) . . .
118(6) . . .
115(6) . . .
118(6) . . .
121(6) . . .
125(6) . . .
119(6) . . .
140(7) . . .
128(6) . . .
124(6) . . .
122(6) . . .
126(6) . . .
129(6) . . .
127(6) . . .
129(6) . . .
126(6) . . .
130(6) . . .
141(7) . . .
130(6) . . .
133(6) . . .
120(6) . . .
127(6) . . .
146(7) . . .
137(6) . . .
132(6) . . .
118(6) . . .
118(6) . . .
136(7) . . .
127(6) . . .
120(6) . . .
112(6) . . .
132(6) . . .
128(6) . . .
121(6) . . .
130(6) . . .
110(6) . . .
112(6) . . .
120(6) . . .
132(6) . . .
132(6) . . .
129(6) . . .
129(6) . . .
136(6) . . .
128(6) . . .
126(6) . . .
119(6) . . .
140(7) . . .
140(6) . . .
134(6) . . .
124(6) . . .
133(6) . . .
137(6) . . .
133(6) . . .
125(6) . . .
125(6) . . .
122(6) . . .
107(5) . . .
124(6) . . .
135(6) . . .
143(6) . . .
127(6) . . .
124(6) . . .
118(6) . . .
133(6) . . .
117(6) . . .
139(6) . . .
120(6) . . .
131(6) . . .
121(6) . . .
128(6) . . .
138(6) . . .
117(6) . . .
134(6) . . .
136(6) . . .
134(6) . . .
127(6) . . .
120(6) . . .
121(6) . . .
112(5) . . .
141(6) . . .
132(6) . . .
125(6) . . .
131(6) . . .
121(6) . . .
131(6) . . .
132(6) . . .
116(6) . . .
140(6) . . .
128(6) . . .
126(6) . . .
140(6) . . .
138(6) . . .
129(6) . . .
127(6) . . .
145(6) . . .
133(6) . . .
132(6) . . .
137(6) . . .
149(6) . . .
137(6) . . .
129(6) . . .
137(6) . . .
113(5) . . .
132(6) . . .
123(6) . . .
141(7) . . .
118(6) . . .
112(6) . . .
127(6) . . .
132(6) . . .
133(6) . . .
135(6) . . .
131(6) . . .
137(6) . . .
122(6) . . .
123(6) . . .
119(6) . . .
109(5) . . .
129(6) . . .
125(6) . . .
125(6) . . .
115(6) . . .
135(6) . . .
125(6) . . .
128(6) . . .
123(6) . . .
110(6) . . .
114(6) . . .
127(6) . . .
134(6) . . .
124(6) . . .
122(6) . . .
117(6) . . .
106(5) . . .
136(6) . . .
126(6) . . .
125(6) . . .
125(6) . . .
118(6) . . .
122(6) . . .
119(6) . . .
126(6) . . .
116(6) . . .
131(6) . . .
122(6) . . .
127(6) . . .
120(6) . . .
115(6) . . .
117(6) . . .
133(6) . . .
139(6) . . .
127(6) . . .
119(6) . . .
133(6) . . .
135(7) . . .
131(6) . . .
134(6) . . .
117(6) . . .
128(6) . . .
123(6) . . .
137(6) . . .
137(6) . . .
133(6) . . .
129(6) . . .
129(7) . . .
128(6) . . .
118(6) . . .
135(6) . . .
125(6) . . .
128(6) . . .
123(6) . . .
119(6) . . .
117(6) . . .
117(6) . . .
134(6) . . .
136(6) . . .
109(5) . . .
110(5) . . .
110(5) . . .
130(6) . . .
143(7) . . .
127(6) . . .
138(6) . . .
131(6) . . .
111(6) . . .
125(6) . . .
121(6) . . .
124(6) . . .
116(6) . . .
128(6) . . .
131(6) . . .
125(6) . . .
122(6) . . .
128(6) . . .
131(6) . . .
127(6) . . .
144(6) . . .
138(6) . . .
131(6) . . .
133(6) . . .
124(6) . . .
110(5) . . .
115(6) . . .
110(6) . . .
132(6) . . .
121(6) . . .
108(5) . . .
120(6) . . .
125(6) . . .
130(6) . . .
124(6) . . .
115(6) . . .
129(6) . . .
123(6) . . .
117(6) . . .
120(6) . . .
126(6) . . .
125(6) . . .
120(6) . . .
135(6) . . .
128(6) . . .
118(6) . . .
113(6) . . .
110(6) . . .
133(6) . . .
140(6) . . .
117(6) . . .
114(6) . . .
111(6) . . .
135(6) . . .
115(6) . . .
134(6) . . .
122(6) . . .
121(6) . . .
125(6) . . .
125(6) . . .
127(6) . . .
122(6) . . .
126(6) . . .
124(6) . . .
130(6) . . .
124(6) . . .
111(6) . . .
128(6) . . .
117(6) . . .
121(6) . . .
116(6) . . .
117(6) . . .
123(6) . . .
140(6) . . .
130(6) . . .
123(6) . . .
125(6) . . .
114(6) . . .
139(6) . . .
130(6) . . .
136(6) . . .
126(6) . . .
130(6) . . .
134(6) . . .
139(6) . . .
130(6) . . .
124(6) . . .
126(6) . . .
126(6) . . .
120(6) . . .
131(6) . . .
119(6) . . .
113(6) . . .
124(6) . . .
113(6) . . .
122(6) . . .
132(6) . . .
125(6) . . .
118(6) . . .
131(6) . . .
135(6) . . .
127(6) . . .
134(6) . . .
113(5) . . .
133(6) . . .
122(6) . . .
119(6) . . .
126(6) . . .
124(6) . . .
135(6) . . .
146(7) . . .
114(6) . . .
122(6) . . .
124(6) . . .
120(6) . . .
126(6) . . .
128(6) . . .
126(6) . . .
124(6) . . .
104(5) . . .
125(6) . . .
129(6) . . .
125(6) . . .
124(6) . . .
118(6) . . .
113(6) . . .
128(6) . . .
122(6) . . .
139(6) . . .
140(6) . . .
139(7) . . .
124(6) . . .
141(6) . . .
130(6) . . .
127(6) . . .
125(6) . . .
131(6) . . .
132(6) . . .
109(5) . . .
116(6) . . .
120(6) . . .
127(6) . . .
132(6) . . .
124(6) . . .
129(6) . . .
129(6) . . .
136(6) . . .
132(6) . . .
126(6) . . .
136(6) . . .
114(6) . . .
122(6) . . .
105(5) . . .
103(5) . . .
130(6) . . .
135(6) . . .
126(6) . . .
114(6) . . .
117(6) . . .
123(6) . . .
113(6) . . .
120(6) . . .
122(6) . . .
121(6) . . .
122(6) . . .
125(6) . . .
141(6) . . .
120(6) . . .
118(6) . . .
128(6) . . .
125(6) . . .
129(6) . . .
117(6) . . .
117(6) . . .
126(6) . . .
116(6) . . .
129(6) . . .
137(6) . . .
138(6) . . .
125(6) . . .
127(6) . . .
143(6) . . .
127(6) . . .
115(6) . . .
122(6) . . .
125(6) . . .
102(5) . . .
133(6) . . .
117(6) . . .
128(6) . . .
125(6) . . .
122(6) . . .
144(6) . . .
114(6) . . .
108(6) . . .
132(6) . . .
130(6) . . .
131(6) . . .
131(6) . . .
130(6) . . .
126(6) . . .
106(5) . . .
118(6) . . .
134(6) . . .
122(6) . . .
126(6) . . .
123(6) . . .
122(6) . . .
140(6) . . .
116(6) . . .
131(6) . . .
126(6) . . .
124(6) . . .
119(6) . . .
115(6) . . .
116(6) . . .
133(6) . . .
124(6) . . .
121(6) . . .
113(6) . . .
118(6) . . .
135(6) . . .
127(6) . . .
128(6) . . .
126(6) . . .
139(6) . . .
131(6) . . .
131(6) . . .
117(6) . . .
125(6) . . .
116(6) . . .
121(6) . . .
121(6) . . .
121(6) . . .
137(6) . . .
126(6) . . .
115(6) . . .
125(6) . . .
123(6) . . .
121(6) . . .
123(6) . . .
124(6) . . .
122(6) . . .
130(6) . . .
131(6) . . .
144(6) . . .
123(6) . . .
130(6) . . .
129(6) . . .
121(6) . . .
133(6) . . .
102(5) . . .
127(6) . . .
115(6) . . .
140(6) . . .
130(6) . . .
124(6) . . .
145(7) . . .
129(6) . . .
127(6) . . .
115(6) . . .
122(6) . . .
107(6) . . .
123(6) . . .
116(6) . . .
112(5) . . .
108(6) . . .
130(6) . . .
126(6) . . .
136(6) . . .
127(6) . . .
118(6) . . .
111(6) . . .
121(6) . . .
122(6) . . .
138(6) . . .
133(6) . . .
116(6) . . .
121(6) . . .
130(6) . . .
124(6) . . .
146(7) . . .
112(6) . . .
115(6) . . .
121(6) . . .
118(6) . . .
127(6) . . .
124(6) . . .
121(6) . . .
116(6) . . .
126(6) . . .
130(6) . . .
130(6) . . .
123(6) . . .
132(6) . . .
119(6) . . .
128(6) . . .
118(6) . . .
130(6) . . .
124(6) . . .
123(6) . . .
122(6) . . .
140(6) . . .
120(6) . . .
122(6) . . .
123(6) . . .
118(6) . . .
121(6) . . .
129(6) . . .
131(6) . . .
135(6) . . .
117(6) . . .
121(6) . . .
122(6) . . .
103(5) . . .
117(6) . . .
132(7) . . .
124(6) . . .
117(6) . . .
131(6) . . .
143(6) . . .
136(7) . . .
126(6) . . .
130(6) . . .
129(6) . . .
119(6) . . .
110(6) . . .
132(6) . . .
109(5) . . .
114(6) . . .
125(6) . . .
127(6) . . .
121(6) . . .
134(6) . . .
115(6) . . .
123(6) . . .
125(6) . . .
133(6) . . .
128(6) . . .
115(6) . . .
114(6) . . .
117(6) . . .
126(6) . . .
123(6) . . .
115(6) . . .
116(6) . . .
124(6) . . .
135(6) . . .
119(6) . . .
134(6) . . .
120(6) . . .
110(6) . . .
132(6) . . .
133(6) . . .
126(6) . . .
129(6) . . .
131(6) . . .
123(6) . . .
146(6) . . .
120(6) . . .
121(6) . . .
116(6) . . .
121(6) . . .
126(6) . . .
137(6) . . .
137(6) . . .
124(6) . . .
124(6) . . .
117(6) . . .
120(6) . . .
131(6) . . .
121(6) . . .
125(6) . . .
137(6) . . .
113(6) . . .
124(6) . . .
128(6) . . .
139(6) . . .
118(6) . . .
118(6) . . .
126(6) . . .
130(6) . . .
133(6) . . .
127(6) . . .
121(6) . . .
120(6) . . .
124(6) . . .
121(6) . . .
110(5) . . .
121(6) . . .
131(7) . . .
114(6) . . .
126(6) . . .
119(6) . . .
121(6) . . .
146(7) . . .
123(6) . . .
131(6) . . .
123(6) . . .
128(6) . . .
118(6) . . .
124(6) . . .
119(6) . . .
127(6) . . .
114(6) . . .
118(6) . . .
116(6) . . .
126(6) . . .
106(5) . . .
108(6) . . .
124(6) . . .
114(6) . . .
121(6) . . .
125(6) . . .
129(6) . . .
125(6) . . .
117(6) . . .
128(6) . . .
124(6) . . .
120(6) . . .
111(6) . . .
125(6) . . .
132(6) . . .
136(6) . . .
135(6) . . .
114(6) . . .
137(6) . . .
114(6) . . .
118(6) . . .
106(6) . . .
113(6) . . .
126(6) . . .
114(6) . . .
122(6) . . .
137(7) . . .
128(6) . . .
122(6) . . .
143(6) . . .
110(6) . . .
117(6) . . .
122(6) . . .
129(6) . . .
132(6) . . .
138(7) . . .
135(7) . . .
115(6) . . .
126(6) . . .
116(6) . . .
130(6) . . .
104(5) . . .
120(6) . . .
123(6) . . .
107(6) . . .
133(6) . . .
132(6) . . .
117(6) . . .
133(6) . . .
124(6) . . .
131(6) . . .
149(7) . . .
140(6) . . .
119(6) . . .
108(5) . . .
126(6) . . .
116(6) . . .
121(6) . . .
119(6) . . .
129(6) . . .
130(6) . . .
147(7) . . .
120(6) . . .
130(6) . . .
117(6) . . .
109(6) . . .
121(6) . . .
99(5) . . .
129(6) . . .
139(6) . . .
124(6) . . .
123(6) . . .
126(6) . . .
116(6) . . .
124(6) . . .
124(6) . . .
119(6) . . .
114(6) . . .
134(6) . . .
130(6) . . .
125(6) . . .
129(6) . . .
139(6) . . .
120(6) . . .
113(5) . . .
115(6) . . .
113(6) . . .
120(6) . . .
120(6) . . .
132(6) . . .
126(6) . . .
107(5) . . .
127(6) . . .
116(6) . . .
123(6) . . .
124(6) . . .
128(6) . . .
134(6) . . .
123(6) . . .
124(6) . . .
128(6) . . .
131(6) . . .
126(6) . . .
121(6) . . .
135(7) . . .
126(6) . . .
126(6) . . .
117(6) . . .
121(6) . . .
122(6) . . .
113(6) . . .
132(6) . . .
114(6) . . .
148(7) . . .
132(6) . . .
129(6) . . .
123(6) . . .
135(6) . . .
133(6) . . .
132(6) . . .
113(6) . . .
114(6) . . .
122(6) . . .
121(6) . . .
113(6) . . .
113(6) . . .
133(6) . . .
122(6) . . .
121(6) . . .
114(6) . . .
121(6) . . .
110(5) . . .
112(6) . . .
119(6) . . .
118(6) . . .
115(6) . . .
128(6) . . .
118(6) . . .
124(6) . . .
133(6) . . .
122(6) . . .
114(6) . . .
115(6) . . .
135(6) . . .
123(6) . . .
114(6) . . .
116(6) . . .
118(6) . . .
119(6) . . .
117(6) . . .
115(6) . . .
111(5) . . .
125(6) . . .
136(6) . . .
118(6) . . .
113(6) . . .
124(6) . . .
111(6) . . .
123(6) . . .
119(6) . . .
122(6) . . .
117(6) . . .
117(6) . . .
117(6) . . .
127(6) . . .
136(6) . . .
119(6) . . .
125(6) . . .
133(6) . . .
125(6) . . .
114(6) . . .
117(6) . . .
124(6) . . .
106(6) . . .
114(6) . . .
124(6) . . .
128(6) . . .
121(6) . . .
126(6) . . .
125(6) . . .
122(6) . . .
131(6) . . .
135(6) . . .
107(6) . . .
114(6) . . .
123(6) . . .
113(6) . . .
108(5) . . .
113(6) . . .
113(6) . . .
114(6) . . .
124(6) . . .
131(6) . . .
130(6) . . .
126(6) . . .
117(6) . . .
133(6) . . .
116(6) . . .
126(6) . . .
134(6) . . .
121(6) . . .
133(6) . . .
131(6) . . .
141(6) . . .
128(6) . . .
113(6) . . .
117(6) . . .
122(6) . . .
112(6) . . .
111(6) . . .
127(6) . . .
128(6) . . .
124(6) . . .
118(6) . . .
116(6) . . .
124(6) . . .
119(6) . . .
141(7) . . .
139(6) . . .
131(6) . . .
148(6) . . .
130(6) . . .
132(6) . . .
125(6) . . .
124(6) . . .
126(6) . . .
121(6) . . .
127(6) . . .
121(6) . . .
120(6) . . .
115(6) . . .
137(6) . . .
137(6) . . .
131(6) . . .
131(6) . . .
120(6) . . .
125(6) . . .
129(6) . . .
125(6) . . .
116(6) . . .
132(6) . . .
124(6) . . .
125(6) . . .
119(6) . . .
121(6) . . .
114(6) . . .
113(6) . . .
121(6) . . .
111(6) . . .
107(5) . . .
115(6) . . .
119(6) . . .
107(5) . . .
113(6) . . .
133(6) . . .
143(6) . . .
116(6) . . .
110(6) . . .
126(6) . . .
112(5) . . .
120(6) . . .
120(6) . . .
127(6) . . .
128(6) . . .
131(6) . . .
124(6) . . .
125(6) . . .
141(7) . . .
125(6) . . .
128(6) . . .
122(6) . . .
135(7) . . .
109(6) . . .
132(6) . . .
142(6) . . .
121(6) . . .
124(6) . . .
127(6) . . .
116(6) . . .
105(5) . . .
117(6) . . .
120(6) . . .
121(6) . . .
122(6) . . .
105(5) . . .
118(6) . . .
131(6) . . .
119(6) . . .
115(6) . . .
130(6) . . .
138(6) . . .
118(6) . . .
117(6) . . .
116(6) . . .
113(6) . . .
111(6) . . .
125(6) . . .
109(6) . . .
120(6) . . .
125(6) . . .
131(6) . . .
122(6) . . .
113(6) . . .
117(6) . . .
125(6) . . .
130(6) . . .
121(6) . . .
119(6) . . .
121(6) . . .
113(6) . . .
120(6) . . .
138(6) . . .
116(6) . . .
116(6) . . .
130(6) . . .
119(6) . . .
125(6) . . .
121(6) . . .
124(6) . . .
123(6) . . .
130(6) . . .
109(6) . . .
137(6) . . .
105(5) . . .
122(6) . . .
120(6) . . .
110(6) . . .
124(6) . . .
120(6) . . .
108(5) . . .
126(6) . . .
129(6) . . .
127(6) . . .
118(6) . . .
126(6) . . .
130(6) . . .
128(6) . . .
120(6) . . .
121(6) . . .
132(6) . . .
121(6) . . .
106(6) . . .
105(5) . . .
123(6) . . .
121(6) . . .
115(6) . . .
106(5) . . .
110(5) . . .
122(6) . . .
128(6) . . .
117(6) . . .
108(6) . . .
111(6) . . .
107(5) . . .
126(6) . . .
122(6) . . .
111(6) . . .
116(6) . . .
113(6) . . .
126(6) . . .
115(6) . . .
109(5) . . .
120(6) . . .
109(6) . . .
112(6) . . .
109(5) . . .
118(6) . . .
114(6) . . .
133(6) . . .
121(6) . . .
119(6) . . .
117(6) . . .
129(6) . . .
131(6) . . .
133(7) . . .
136(6) . . .
127(6) . . .
113(6) . . .
128(6) . . .
128(6) . . .
130(6) . . .
122(6) . . .
114(6) . . .
118(6) . . .
125(6) . . .
121(6) . . .
118(6) . . .
120(6) . . .
141(7) . . .
112(6) . . .
110(6) . . .
122(6) . . .
105(5) . . .
135(6) . . .
126(6) . . .
120(6) . . .
137(6) . . .
103(5) . . .
110(6) . . .
125(6) . . .
117(6) . . .
132(6) . . .
112(5) . . .
121(6) . . .
122(6) . . .
122(6) . . .
122(6) . . .
112(6) . . .
126(6) . . .
131(6) . . .
114(6) . . .
119(6) . . .
123(6) . . .
133(6) . . .
122(6) . . .
126(6) . . .
130(6) . . .
121(6) . . .
121(6) . . .
115(6) . . .
124(6) . . .
132(6) . . .
133(6) . . .
107(6) . . .
122(6) . . .
125(6) . . .
105(5) . . .
117(6) . . .
104(6) . . .
123(6) . . .
128(6) . . .
111(5) . . .
116(6) . . .
134(6) . . .
138(6) . . .
110(5) . . .
116(6) . . .
110(6) . . .
128(6) . . .
107(6) . . .
106(5) . . .
120(6) . . .
121(6) . . .
98(5) . . .
117(6) . . .
122(6) . . .
127(6) . . .
125(6) . . .
116(6) . . .
125(6) . . .
108(5) . . .
130(6) . . .
113(6) . . .
119(6) . . .
123(6) . . .
122(6) . . .
113(6) . . .
113(6) . . .
123(6) . . .
103(5) . . .
98(5) . . .
116(6) . . .
125(6) . . .
123(6) . . .
127(6) . . .
121(6) . . .
111(6) . . .
109(6) . . .
119(6) . . .
115(6) . . .
123(6) . . .
124(6) . . .
119(6) . . .
97(5) . . .
126(6) . . .
141(6) . . .
128(6) . . .
117(6) . . .
144(6) . . .
132(6) . . .
131(6) . . .
107(5) . . .
107(6) . . .
122(6) . . .
118(6) . . .
125(6) . . .
128(6) . . .
118(6) . . .
115(6) . . .
117(6) . . .
128(6) . . .
114(6) . . .
115(6) . . .
127(6) . . .
109(5) . . .
111(6) . . .
109(6) . . .
117(6) . . .
114(6) . . .
106(5) . . .
132(6) . . .
124(6) . . .
125(6) . . .
125(6) . . .
123(6) . . .
115(6) . . .
112(6) . . .
125(6) . . .
112(5) . . .
127(6) . . .
112(6) . . .
104(6) . . .
119(6) . . .
123(6) . . .
148(6) . . .
130(6) . . .
128(6) . . .
131(6) . . .
127(6) . . .
123(6) . . .
124(6) . . .
108(6) . . .
105(6) . . .
107(5) . . .
119(6) . . .
123(6) . . .
117(6) . . .
108(6) . . .
119(6) . . .
130(6) . . .
128(6) . . .
128(6) . . .
120(6) . . .
130(6) . . .
123(6) . . .
118(6) . . .
108(6) . . .
111(6) . . .
126(6) . . .
123(6) . . .
114(6) . . .
119(6) . . .
119(6) . . .
104(5) . . .
124(6) . . .
117(6) . . .
108(6) . . .
117(6) . . .
115(6) . . .
124(6) . . .
108(6) . . .
117(6) . . .
116(6) . . .
108(5) . . .
115(6) . . .
111(6) . . .
130(6) . . .
112(6) . . .
116(6) . . .
118(6) . . .
126(6) . . .
123(6) . . .
118(6) . . .
124(6) . . .
124(6) . . .
122(6) . . .
111(6) . . .
116(6) . . .
114(6) . . .
118(6) . . .
129(6) . . .
128(6) . . .
121(6) . . .
128(6) . . .
113(6) . . .
121(6) . . .
115(6) . . .
134(6) . . .
133(6) . . .
129(6) . . .
111(6) . . .
124(6) . . .
116(6) . . .
116(6) . . .
124(6) . . .
115(6) . . .
123(6) . . .
125(6) . . .
120(6) . . .
131(6) . . .
129(6) . . .
114(6) . . .
119(6) . . .
114(6) . . .
106(6) . . .
107(6) . . .
118(6) . . .
125(6) . . .
125(6) . . .
114(6) . . .
118(6) . . .
128(6) . . .
123(6) . . .
134(6) . . .
121(6) . . .
127(6) . . .
126(6) . . .
122(6) . . .
114(6) . . .
126(6) . . .
129(6) . . .
119(6) . . .
117(6) . . .
128(6) . . .
118(6) . . .
116(6) . . .
117(6) . . .
133(6) . . .
127(6) . . .
120(6) . . .
135(6) . . .
114(6) . . .
119(6) . . .
125(6) . . .
125(6) . . .
129(6) . . .
118(6) . . .
128(6) . . .
136(6) . . .
116(6) . . .
131(6) . . .
132(6) . . .
135(6) . . .
115(6) . . .
108(6) . . .
119(6) . . .
121(6) . . .
131(6) . . .
123(6) . . .
121(6) . . .
116(6) . . .
123(6) . . .
123(6) . . .
114(6) . . .
113(6) . . .
113(6) . . .
125(6) . . .
133(6) . . .
137(6) . . .
118(6) . . .
118(6) . . .
127(6) . . .
126(6) . . .
117(6) . . .
115(6) . . .
106(5) . . .
124(6) . . .
125(6) . . .
120(6) . . .
122(6) . . .
119(6) . . .
122(6) . . .
128(6) . . .
119(6) . . .
113(6) . . .
126(6) . . .
142(6) . . .
113(6) . . .
119(6) . . .
135(6) . . .
121(6) . . .
112(6) . . .
133(6) . . .
122(6) . . .
109(6) . . .
113(6) . . .
114(6) . . .
124(6) . . .
134(7) . . .
122(6) . . .
130(6) . . .
141(6) . . .
133(6) . . .
119(6) . . .
114(6) . . .
117(6) . . .
131(6) . . .
115(6) . . .
130(6) . . .
114(6) . . .
118(6) . . .
116(6) . . .
117(6) . . .
116(6) . . .
125(6) . . .
112(5) . . .
117(6) . . .
128(6) . . .
119(6) . . .
120(6) . . .
121(6) . . .
110(6) . . .
101(6) . . .
109(6) . . .
108(6) . . .
115(6) . . .
117(6) . . .
123(6) . . .
109(6) . . .
117(6) . . .
131(6) . . .
123(6) . . .
110(6) . . .
123(6) . . .
119(6) . . .
128(6) . . .
122(6) . . .
128(6) . . .
111(6) . . .
121(6) . . .
121(6) . . .
102(5) . . .
110(6) . . .
126(6) . . .
115(6) . . .
116(6) . . .
116(6) . . .
111(6) . . .
110(6) . . .
109(5) . . .
109(5) . . .
108(6) . . .
109(6) . . .
109(6) . . .
119(6) . . .
118(6) . . .
120(6) . . .
118(6) . . .
121(6) . . .
111(5) . . .
112(5) . . .
105(5) . . .
108(6) . . .
133(6) . . .
125(6) . . .
116(6) . . .
117(6) . . .
119(6) . . .
130(6) . . .
111(5) . . .
117(6) . . .
98(5) . . .
114(6) . . .
116(6) . . .
135(6) . . .
117(6) . . .
123(6) . . .
119(6) . . .
116(6) . . .
117(6) . . .
108(5) . . .
125(6) . . .
120(6) . . .
117(6) . . .
118(6) . . .
110(6) . . .
105(6) . . .
122(6) . . .
126(6) . . .
115(6) . . .
114(6) . . .
127(6) . . .
123(6) . . .
136(6) . . .
107(5) . . .
119(6) . . .
116(6) . . .
113(6) . . .
111(5) . . .
117(6) . . .
119(6) . . .
122(6) . . .
111(6) . . .
138(6) . . .
121(6) . . .
116(6) . . .
131(6) . . .
129(6) . . .
122(6) . . .
127(6) . . .
117(6) . . .
112(6) . . .
109(6) . . .
117(6) . . .
109(5) . . .
128(6) . . .
116(6) . . .
135(6) . . .
119(6) . . .
122(6) . . .
122(6) . . .
123(6) . . .
115(6) . . .
111(5) . . .
119(6) . . .
107(5) . . .
113(6) . . .
128(6) . . .
105(5) . . .
122(6) . . .
123(6) . . .
115(6) . . .
107(5) . . .
102(5) . . .
131(6) . . .
128(6) . . .
132(6) . . .
119(6) . . .
118(6) . . .
121(6) . . .
125(6) . . .
123(6) . . .
116(6) . . .
120(6) . . .
114(6) . . .
111(6) . . .
117(6) . . .
123(6) . . .
116(6) . . .
122(6) . . .
123(6) . . .
115(6) . . .
122(6) . . .
121(6) . . .
121(6) . . .
120(6) . . .
107(5) . . .
97(5) . . .
121(6) . . .
105(5) . . .
104(6) . . .
116(6) . . .
119(6) . . .
133(6) . . .
110(6) . . .
111(6) . . .
118(6) . . .
112(6) . . .
125(6) . . .
114(6) . . .
130(6) . . .
102(5) . . .
109(5) . . .
110(5) . . .
108(6) . . .
106(6) . . .
112(6) . . .
113(6) . . .
117(6) . . .
112(6) . . .
118(6) . . .
116(6) . . .
119(6) . . .
118(6) . . .
114(6) . . .
136(6) . . .
110(6) . . .
121(6) . . .
128(6) . . .
106(6) . . .
129(6) . . .
113(5) . . .
113(5) . . .
106(6) . . .
104(6) . . .
130(6) . . .
120(6) . . .
119(6) . . .
128(6) . . .
135(6) . . .
101(5) . . .
105(5) . . .
129(6) . . .
114(6) . . .
117(6) . . .
114(6) . . .
120(6) . . .
126(6) . . .
112(6) . . .
108(6) . . .
116(6) . . .
101(5) . . .
135(6) . . .
106(5) . . .
111(6) . . .
120(6) . . .
116(6) . . .
121(6) . . .
117(6) . . .
111(6) . . .
121(6) . . .
120(6) . . .
107(5) . . .
127(6) . . .
125(6) . . .
129(6) . . .
100(5) . . .
107(6) . . .
116(6) . . .
119(6) . . .
103(5) . . .
123(6) . . .
110(5) . . .
111(6) . . .
116(6) . . .
117(6) . . .
118(6) . . .
124(6) . . .
124(6) . . .
119(6) . . .
110(6) . . .
112(6) . . .
120(6) . . .
119(6) . . .
114(6) . . .
101(5) . . .
120(6) . . .
109(6) . . .
94(5) . . .
130(6) . . .
114(6) . . .
106(5) . . .
113(6) . . .
109(6) . . .
118(6) . . .
120(6) . . .
116(6) . . .
113(6) . . .
110(6) . . .
133(6) . . .
113(6) . . .
121(6) . . .
115(6) . . .
111(6) . . .
110(6) . . .
115(6) . . .
119(6) . . .
118(6) . . .
109(5) . . .
128(6) . . .
110(5) . . .
102(5) . . .
110(6) . . .
112(6) . . .
114(6) . . .
119(6) . . .
109(5) . . .
104(5) . . .
117(6) . . .
123(6) . . .
125(6) . . .
119(6) . . .
111(6) . . .
98(5) . . .
111(6) . . .
134(6) . . .
119(6) . . .
115(6) . . .
118(6) . . .
117(6) . . .
131(6) . . .
121(6) . . .
112(6) . . .
98(5) . . .
120(6) . . .
124(6) . . .
112(6) . . .
115(6) . . .
128(6) . . .
129(6) . . .
119(6) . . .
100(5) . . .
106(6) . . .
124(6) . . .
123(6) . . .
117(6) . . .
118(6) . . .
115(6) . . .
108(5) . . .
108(5) . . .
114(6) . . .
124(6) . . .
115(6) . . .
127(6) . . .
124(6) . . .
122(6) . . .
109(6) . . .
105(6) . . .
106(5) . . .
111(5) . . .
112(5) . . .
112(6) . . .
105(6) . . .
110(6) . . .
127(6) . . .
120(6) . . .
121(6) . . .
108(6) . . .
104(6) . . .
109(5) . . .
109(5) . . .
114(6) . . .
114(6) . . .
102(5) . . .
124(6) . . .
119(6) . . .
112(6) . . .
104(5) . . .
103(5) . . .
100(5) . . .
125(6) . . .
115(6) . . .
110(6) . . .
103(5) . . .
116(6) . . .
108(5) . . .
103(5) . . .
118(6) . . .
110(5) . . .
114(6) . . .
103(5) . . .
106(6) . . .
116(6) . . .
122(6) . . .
117(6) . . .
115(6) . . .
118(6) . . .
119(6) . . .
128(6) . . .
106(5) . . .
113(6) . . .
124(6) . . .
98(5) . . .
104(5) . . .
114(6) . . .
116(6) . . .
126(6) . . .
119(6) . . .
104(5) . . .
120(6) . . .
112(6) . . .
121(6) . . .
121(6) . . .
101(5) . . .
109(6) . . .
120(6) . . .
124(6) . . .
101(5) . . .
106(5) . . .
122(6) . . .
113(6) . . .
113(6) . . .
118(6) . . .
116(6) . . .
115(6) . . .
118(6) . . .
116(6) . . .
118(6) . . .
99(5) . . .
108(6) . . .
122(6) . . .
115(6) . . .
122(6) . . .
117(6) . . .
112(6) . . .
119(6) . . .
113(6) . . .
125(6) . . .
131(6) . . .
121(6) . . .
118(6) . . .
113(6) . . .
118(6) . . .
113(6) . . .
134(6) . . .
124(6) . . .
99(5) . . .
114(6) . . .
118(6) . . .
111(6) . . .
109(6) . . .
106(5) . . .
113(6) . . .
101(5) . . .
118(6) . . .
111(6) . . .
110(6) . . .
106(5) . . .
105(5) . . .
117(6) . . .
116(6) . . .
130(6) . . .
101(5) . . .
111(5) . . .
115(6) . . .
117(6) . . .
120(6) . . .
119(6) . . .
114(6) . . .
110(6) . . .
110(6) . . .
122(6) . . .
115(6) . . .
119(6) . . .
120(6) . . .
109(6) . . .
103(5) . . .
125(6) . . .
116(6) . . .
112(6) . . .
112(6) . . .
108(5) . . .
108(5) . . .
110(6) . . .
110(6) . . .
106(6) . . .
116(6) . . .
109(6) . . .
109(6) . . .
104(6) . . .
100(5) . . .
124(6) . . .
113(6) . . .
117(6) . . .
128(7) . . .
99(5) . . .
109(5) . . .
113(6) . . .
121(6) . . .
124(6) . . .
124(6) . . .
97(5) . . .
110(5) . . .
127(6) . . .
124(6) . . .
125(6) . . .
105(5) . . .
121(6) . . .
108(5) . . .
109(6) . . .
129(6) . . .
113(6) . . .
109(5) . . .
112(6) . . .
104(6) . . .
109(6) . . .
114(6) . . .
118(6) . . .
118(6) . . .
103(5) . . .
110(6) . . .
105(5) . . .
111(6) . . .
119(6) . . .
117(6) . . .
119(6) . . .
107(5) . . .
100(5) . . .
114(6) . . .
120(6) . . .
114(6) . . .
120(6) . . .
115(6) . . .
101(6) . . .
104(6) . . .
113(6) . . .
112(6) . . .
106(6) . . .
105(6) . . .
112(6) . . .
107(5) . . .
117(6) . . .
106(5) . . .
123(6) . . .
114(6) . . .
122(6) . . .
116(6) . . .
119(6) . . .
116(6) . . .
118(6) . . .
122(6) . . .
113(6) . . .
105(6) . . .
112(6) . . .
106(5) . . .
104(5) . . .
127(6) . . .
107(5) . . .
113(6) . . .
102(6) . . .
107(5) . . .
114(6) . . .
106(5) . . .
116(6) . . .
121(6) . . .
95(5) . . .
116(6) . . .
121(6) . . .
112(6) . . .
103(5) . . .
99(5) . . .
113(6) . . .
111(6) . . .
134(6) . . .
116(6) . . .
114(6) . . .
118(6) . . .
112(6) . . .
115(6) . . .
103(5) . . .
112(6) . . .
112(6) . . .
125(6) . . .
116(6) . . .
119(6) . . .
98(5) . . .
125(6) . . .
112(6) . . .
117(6) . . .
133(6) . . .
105(5) . . .
108(6) . . .
123(6) . . .
110(6) . . .
118(6) . . .
99(5) . . .
110(6) . . .
119(6) . . .
129(6) . . .
107(5) . . .
108(5) . . .
116(6) . . .
124(6) . . .
108(6) . . .
127(6) . . .
120(6) . . .
110(6) . . .
116(6) . . .
113(6) . . .
115(6) . . .
116(6) . . .
116(6) . . .
121(6) . . .
106(5) . . .
98(5) . . .
111(6) . . .
106(6) . . .
112(6) . . .
98(5) . . .
115(6) . . .
114(6) . . .
121(6) . . .
115(6) . . .
99(5) . . .
101(5) . . .
103(5) . . .
119(6) . . .
128(6) . . .
114(6) . . .
121(6) . . .
103(6) . . .
107(6) . . .
131(6) . . .
114(6) . . .
120(6) . . .
114(6) . . .
116(6) . . .
118(6) . . .
99(5) . . .
105(5) . . .
121(6) . . .
112(6) . . .
105(5) . . .
106(5) . . .
106(5) . . .
122(6) . . .
105(6) . . .
120(6) . . .
92(5) . . .
110(5) . . .
106(6) . . .
109(6) . . .
99(5) . . .
106(5) . . .
117(6) . . .
108(6) . . .
102(6) . . .
116(6) . . .
102(5) . . .
110(6) . . .
117(6) . . .
127(6) . . .
105(6) . . .
113(5) . . .
109(5) . . .
114(6) . . .
123(6) . . .
121(6) . . .
122(6) . . .
117(6) . . .
115(6) . . .
118(6) . . .
114(6) . . .
123(6) . . .
109(6) . . .
98(5) . . .
115(6) . . .
121(6) . . .
109(5) . . .
104(5) . . .
123(6) . . .
122(6) . . .
104(5) . . .
108(5) . . .
105(5) . . .
100(6) . . .
125(6) . . .
108(5) . . .
113(6) . . .
111(6) . . .
107(6) . . .
103(5) . . .
112(6) . . .
107(5) . . .
135(6) . . .
114(6) . . .
104(5) . . .
115(6) . . .
118(6) . . .
120(6) . . .
104(6) . . .
111(6) . . .
103(5) . . .
118(6) . . .
101(5) . . .
111(6) . . .
111(6) . . .
109(5) . . .
113(5) . . .
114(6) . . .
130(6) . . .
118(6) . . .
126(6) . . .
119(6) . . .
100(5) . . .
111(6) . . .
111(6) . . .
104(5) . . .
112(6) . . .
118(6) . . .
109(6) . . .
121(6) . . .
103(5) . . .
116(6) . . .
102(5) . . .
128(6) . . .
119(6) . . .
107(5) . . .
118(6) . . .
110(6) . . .
116(6) . . .
111(5) . . .
110(5) . . .
117(6) . . .
118(6) . . .
108(5) . . .
109(5) . . .
108(5) . . .
100(5) . . .
100(6) . . .
109(6) . . .
109(5) . . .
126(6) . . .
112(6) . . .
106(6) . . .
128(6) . . .
115(6) . . .
114(6) . . .
101(5) . . .
113(6) . . .
100(5) . . .
107(5) . . .
109(5) . . .
107(6) . . .
104(6) . . .
109(6) . . .
110(5) . . .
121(6) . . .
105(5) . . .
119(6) . . .
87(5) . . .
122(6) . . .
99(5) . . .
120(6) . . .
114(6) . . .
102(5) . . .
133(6) . . .
123(6) . . .
103(5) . . .
104(6) . . .
112(6) . . .
115(6) . . .
115(6) . . .
119(6) . . .
107(6) . . .
109(6) . . .
111(5) . . .
114(6) . . .
107(5) . . .
108(6) . . .
99(5) . . .
115(6) . . .
106(6) . . .
118(6) . . .
113(6) . . .
103(6) . . .
100(5) . . .
107(6) . . .
116(6) . . .
106(6) . . .
104(5) . . .
109(5) . . .
100(6) . . .
92(5) . . .
114(6) . . .
107(5) . . .
99(5) . . .
114(6) . . .
123(6) . . .
110(6) . . .
114(6) . . .
115(6) . . .
95(5) . . .
103(6) . . .
118(6) . . .
101(5) . . .
112(6) . . .
109(6) . . .
105(6) . . .
117(6) . . .
102(5) . . .
115(6) . . .
124(6) . . .
131(6) . . .
121(6) . . .
111(5) . . .
113(6) . . .
107(6) . . .
110(6) . . .
108(5) . . .
114(6) . . .
119(6) . . .
114(6) . . .
100(5) . . .
114(6) . . .
109(5) . . .
102(5) . . .
115(6) . . .
114(6) . . .
134(6) . . .
124(6) . . .
115(6) . . .
108(6) . . .
110(6) . . .
109(6) . . .
112(5) . . .
109(6) . . .
127(6) . . .
107(6) . . .
105(6) . . .
106(5) . . .
100(5) . . .
111(6) . . .
119(6) . . .
107(5) . . .
106(5) . . .
121(6) . . .
113(6) . . .
114(6) . . .
90(5) . . .
99(5) . . .
118(6) . . .
113(6) . . .
99(5) . . .
105(5) . . .
104(5) . . .
109(6) . . .
105(6) . . .
89(5) . . .
103(5) . . .
105(5) . . .
103(5) . . .
125(6) . . .
108(6) . . .
108(5) . . .
112(6) . . .
109(6) . . .
113(6) . . .
99(5) . . .
104(5) . . .
100(5) . . .
94(5) . . .
114(6) . . .
106(5) . . .
108(5) . . .
124(6) . . .
122(6) . . .
115(6) . . .
105(5) . . .
123(6) . . .
118(6) . . .
103(6) . . .
102(6) . . .
107(5) . . .
103(5) . . .
106(6) . . .
101(5) . . .
103(6) . . .
103(5) . . .
100(5) . . .
113(6) . . .
101(5) . . .
112(6) . . .
118(6) . . .
112(5) . . .
120(6) . . .
114(6) . . .
109(6) . . .
112(5) . . .
123(6) . . .
101(5) . . .
108(6) . . .
96(5) . . .
105(5) . . .
108(5) . . .
128(6) . . .
115(6) . . .
101(5) . . .
104(5) . . .
105(5) . . .
99(5) . . .
104(6) . . .
110(6) . . .
109(5) . . .
108(5) . . .
105(5) . . .
102(5) . . .
116(6) . . .
97(5) . . .
104(5) . . .
118(6) . . .
102(5) . . .
113(6) . . .
113(6) . . .
111(6) . . .
125(6) . . .
112(6) . . .
100(5) . . .
118(6) . . .
112(6) . . .
112(6) . . .
111(6) . . .
120(6) . . .
113(6) . . .
108(6) . . .
112(6) . . .
103(5) . . .
114(6) . . .
119(6) . . .
118(6) . . .
119(6) . . .
127(6) . . .
95(5) . . .
100(5) . . .
113(6) . . .
117(6) . . .
128(6) . . .
117(6) . . .
109(5) . . .
93(5) . . .
102(6) . . .
104(5) . . .
109(5) . . .
113(6) . . .
122(6) . . .
108(5) . . .
111(6) . . .
118(6) . . .
108(5) . . .
120(6) . . .
108(6) . . .
97(5) . . .
112(5) . . .
108(5) . . .
97(5) . . .
94(5) . . .
99(6) . . .
98(5) . . .
110(6) . . .
97(5) . . .
108(6) . . .
110(5) . . .
97(5) . . .
115(6) . . .
92(5) . . .
97(5) . . .
97(5) . . .
100(5) . . .
115(6) . . .
104(6) . . .
111(6) . . .
106(5) . . .
104(5) . . .
106(6) . . .
111(6) . . .
108(5) . . .
104(6) . . .
97(5) . . .
111(6) . . .
111(6) . . .
110(6) . . .
111(5) . . .
101(5) . . .
102(5) . . .
118(6) . . .
96(5) . . .
101(5) . . .
105(5) . . .
118(6) . . .
109(6) . . .
112(6) . . .
105(5) . . .
111(6) . . .
109(6) . . .
104(6) . . .
107(6) . . .
104(5) . . .
114(6) . . .
116(6) . . .
105(6) . . .
104(5) . . .
105(5) . . .
98(5) . . .
111(6) . . .
105(6) . . .
112(6) . . .
108(5) . . .
120(6) . . .
109(6) . . .
112(6) . . .
116(6) . . .
113(6) . . .
111(6) . . .
113(6) . . .
100(5) . . .
112(6) . . .
120(6) . . .
101(5) . . .
105(6) . . .
104(6) . . .
113(6) . . .
122(6) . . .
117(6) . . .
99(5) . . .
96(5) . . .
117(6) . . .
103(5) . . .
105(6) . . .
112(6) . . .
110(6) . . .
113(6) . . .
119(6) . . .
112(6) . . .
106(6) . . .
99(5) . . .
116(6) . . .
112(5) . . .
118(6) . . .
115(6) . . .
113(6) . . .
112(5) . . .
109(5) . . .
103(5) . . .
112(6) . . .
99(5) . . .
107(5) . . .
107(5) . . .
106(6) . . .
117(6) . . .
95(5) . . .
110(5) . . .
96(5) . . .
99(6) . . .
119(6) . . .
104(6) . . .
99(5) . . .
98(5) . . .
105(6) . . .
100(5) . . .
112(6) . . .
113(6) . . .
103(5) . . .
109(6) . . .
110(6) . . .
105(6) . . .
100(5) . . .
115(6) . . .
101(5) . . .
109(6) . . .
110(6) . . .
93(5) . . .
119(6) . . .
124(6) . . .
99(5) . . .
101(5) . . .
108(5) . . .
99(5) . . .
103(6) . . .
111(6) . . .
121(6) . . .
116(6) . . .
110(6) . . .
114(6) . . .
106(5) . . .
111(6) . . .
106(5) . . .
100(5) . . .
108(6) . . .
107(6) . . .
106(5) . . .
106(5) . . .
100(5) . . .
107(6) . . .
116(6) . . .
97(5) . . .
97(5) . . .
98(5) . . .
99(5) . . .
102(5) . . .
96(5) . . .
110(5) . . .
102(6) . . .
112(6) . . .
102(5) . . .
101(5) . . .
95(5) . . .
107(6) . . .
101(5) . . .
111(6) . . .
112(5) . . .
112(6) . . .
112(6) . . .
103(6) . . .
104(5) . . .
127(6) . . .
106(6) . . .
107(6) . . .
103(6) . . .
101(5) . . .
101(5) . . .
112(6) . . .
110(6) . . .
111(6) . . .
120(6) . . .
91(5) . . .
97(5) . . .
117(6) . . .
118(6) . . .
121(6) . . .
109(5) . . .
110(6) . . .
114(6) . . .
115(6) . . .
121(6) . . .
109(5) . . .
98(5) . . .
108(6) . . .
108(6) . . .
95(5) . . .
103(5) . . .
114(6) . . .
112(6) . . .
104(5) . . .
105(5) . . .
107(5) . . .
106(5) . . .
108(6) . . .
111(5) . . .
110(5) . . .
95(5) . . .
110(6) . . .
108(6) . . .
108(6) . . .
109(5) . . .
99(5) . . .
119(6) . . .
114(6) . . .
106(6) . . .
106(5) . . .
109(6) . . .
96(5) . . .
103(6) . . .
113(6) . . .
103(5) . . .
106(5) . . .
92(5) . . .
89(5) . . .
104(6) . . .
97(5) . . .
95(5) . . .
89(5) . . .
102(6) . . .
93(5) . . .
93(5) . . .
98(5) . . .
107(6) . . .
105(6) . . .
108(5) . . .
113(6) . . .
116(6) . . .
98(5) . . .
108(6) . . .
110(5) . . .
118(6) . . .
118(6) . . .
115(6) . . .
101(5) . . .
112(5) . . .
105(5) . . .
111(6) . . .
117(6) . . .
111(6) . . .
101(5) . . .
114(6) . . .
103(5) . . .
107(6) . . .
110(6) . . .
118(6) . . .
118(6) . . .
98(5) . . .
100(6) . . .
101(5) . . .
105(5) . . .
105(5) . . .
104(6) . . .
109(6) . . .
105(5) . . .
115(6) . . .
91(5) . . .
94(5) . . .
107(6) . . .
113(6) . . .
108(5) . . .
111(6) . . .
121(6) . . .
105(5) . . .
108(6) . . .
122(6) . . .
107(6) . . .
107(6) . . .
103(5) . . .
122(6) . . .
104(5) . . .
103(6) . . .
105(6) . . .
104(5) . . .
100(5) . . .
98(5) . . .
108(6) . . .
118(6) . . .
102(5) . . .
110(5) . . .
111(5) . . .
113(6) . . .
102(6) . . .
102(5) . . .
111(6) . . .
122(6) . . .
109(5) . . .
96(5) . . .
98(5) . . .
116(6) . . .
117(6) . . .
105(5) . . .
106(6) . . .
115(6) . . .
102(5) . . .
122(6) . . .
112(6) . . .
113(6) . . .
122(6) . . .
107(5) . . .
108(5) . . .
101(5) . . .
107(6) . . .
120(6) . . .
107(5) . . .
118(6) . . .
92(5) . . .
96(5) . . .
103(6) . . .
115(6) . . .
111(6) . . .
106(6) . . .
111(6) . . .
109(6) . . .
103(5) . . .
107(5) . . .
116(6) . . .
106(5) . . .
101(5) . . .
105(5) . . .
104(5) . . .
104(6) . . .
113(6) . . .
109(5) . . .
110(5) . . .
122(6) . . .
107(6) . . .
109(6) . . .
97(5) . . .
98(5) . . .
117(6) . . .
116(6) . . .
98(5) . . .
101(5) . . .
98(5) . . .
102(6) . . .
117(6) . . .
112(6) . . .
110(5) . . .
116(6) . . .
116(6) . . .
100(6) . . .
118(6) . . .
109(5) . . .
107(5) . . .
132(6) . . .
130(6) . . .
123(6) . . .
93(5) . . .
108(5) . . .
107(5) . . .
94(5) . . .
105(6) . . .
104(5) . . .
103(5) . . .
101(5) . . .
101(6) . . .
96(5) . . .
110(5) . . .
118(6) . . .
121(6) . . .
104(5) . . .
115(6) . . .
104(5) . . .
117(6) . . .
109(6) . . .
97(5) . . .
111(6) . . .
111(5) . . .
107(6) . . .
113(6) . . .
110(6) . . .
110(6) . . .
106(5) . . .
111(6) . . .
109(6) . . .
84(5) . . .
94(5) . . .
93(5) . . .
103(6) . . .
109(6) . . .
104(5) . . .
102(5) . . .
99(5) . . .
110(5) . . .
108(6) . . .
92(5) . . .
81(5) . . .
109(5) . . .
107(6) . . .
99(5) . . .
106(5) . . .
110(5) . . .
92(5) . . .
90(5) . . .
110(6) . . .
116(6) . . .
109(5) . . .
107(5) . . .
102(5) . . .
113(6) . . .
114(6) . . .
99(5) . . .
109(5) . . .
94(5) . . .
100(5) . . .
105(5) . . .
97(5) . . .
115(6) . . .
109(6) . . .
106(6) . . .
112(6) . . .
123(6) . . .
94(5) . . .
104(5) . . .
123(6) . . .
116(6) . . .
118(6) . . .
98(5) . . .
112(6) . . .
122(6) . . .
105(5) . . .
111(5) . . .
107(6) . . .
100(5) . . .
102(5) . . .
101(5) . . .
115(6) . . .
110(6) . . .
104(6) . . .
110(6) . . .
120(6) . . .
100(5) . . .
109(6) . . .
93(5) . . .
105(6) . . .
105(5) . . .
100(5) . . .
98(5) . . .
99(6) . . .
93(5) . . .
122(6) . . .
113(6) . . .
115(6) . . .
112(6) . . .
104(5) . . .
125(6) . . .
104(5) . . .
106(6) . . .
92(5) . . .
96(5) . . .
98(5) . . .
114(6) . . .
96(5) . . .
109(6) . . .
90(5) . . .
96(5) . . .
116(6) . . .
97(5) . . .
98(5) . . .
90(5) . . .
106(5) . . .
114(6) . . .
107(6) . . .
106(6) . . .
107(6) . . .
115(6) . . .
97(5) . . .
97(5) . . .
90(5) . . .
115(6) . . .
108(5) . . .
108(6) . . .
98(5) . . .
115(6) . . .
119(6) . . .
109(5) . . .
93(5) . . .
107(6) . . .
100(5) . . .
96(5) . . .
100(5) . . .
107(6) . . .
112(6) . . .
109(6) . . .
100(5) . . .
101(5) . . .
115(6) . . .
121(6) . . .
104(5) . . .
105(5) . . .
102(5) . . .
100(5) . . .
97(5) . . .
94(5) . . .
101(5) . . .
109(5) . . .
108(6) . . .
121(6) . . .
113(6) . . .
108(5) . . .
107(5) . . .
124(6) . . .
110(6) . . .
97(5) . . .
103(5) . . .
104(5) . . .
97(5) . . .
93(5) . . .
113(6) . . .
107(5) . . .
107(5) . . .
107(6) . . .
102(5) . . .
98(5) . . .
106(5) . . .
87(5) . . .
94(5) . . .
102(6) . . .
94(5) . . .
97(5) . . .
90(5) . . .
114(6) . . .
91(5) . . .
111(6) . . .
106(5) . . .
106(6) . . .
97(5) . . .
97(5) . . .
108(5) . . .
111(5) . . .
109(6) . . .
103(6) . . .
110(6) . . .
104(5) . . .
106(5) . . .
111(6) . . .
108(6) . . .
99(5) . . .
97(5) . . .
102(5) . . .
100(5) . . .
119(6) . . .
116(6) . . .
105(5) . . .
103(5) . . .
121(6) . . .
115(6) . . .
96(5) . . .
91(5) . . .
118(6) . . .
97(5) . . .
113(6) . . .
85(5) . . .
109(5) . . .
90(5) . . .
96(5) . . .
105(6) . . .
99(5) . . .
112(6) . . .
111(5) . . .
118(6) . . .
101(5) . . .
121(6) . . .
94(5) . . .
98(5) . . .
98(5) . . .
92(5) . . .
100(5) . . .
98(5) . . .
108(6) . . .
109(6) . . .
122(6) . . .
109(5) . . .
108(5) . . .
112(6) . . .
95(5) . . .
114(6) . . .
111(6) . . .
105(5) . . .
120(6) . . .
112(6) . . .
109(6) . . .
110(5) . . .
118(6) . . .
107(6) . . .
109(6) . . .
98(5) . . .
111(6) . . .
108(5) . . .
114(6) . . .
96(6) . . .
104(6) . . .
101(5) . . .
112(6) . . .
98(5) . . .
122(6) . . .
101(5) . . .
109(5) . . .
104(5) . . .
110(6) . . .
113(6) . . .
107(6) . . .
102(5) . . .
110(5) . . .
107(5) . . .
96(5) . . .
118(6) . . .
119(6) . . .
115(6) . . .
100(6) . . .
102(5) . . .
120(6) . . .
121(6) . . .
106(5) . . .
103(5) . . .
100(5) . . .
102(5) . . .
104(5) . . .
91(5) . . .
105(6) . . .
110(6) . . .
114(6) . . .
101(5) . . .
115(6) . . .
109(6) . . .
99(5) . . .
94(5) . . .
109(5) . . .
116(6) . . .
105(5) . . .
98(5) . . .
111(6) . . .
103(5) . . .
89(5) . . .
92(5) . . .
102(5) . . .
108(5) . . .
98(5) . . .
99(5) . . .
95(5) . . .
105(6) . . .
93(5) . . .
112(5) . . .
121(6) . . .
100(6) . . .
107(5) . . .
102(5) . . .
88(5) . . .
96(5) . . .
107(6) . . .
104(5) . . .
98(5) . . .
110(5) . . .
107(6) . . .
102(5) . . .
103(5) . . .
94(5) . . .
104(5) . . .
113(6) . . .
108(6) . . .
110(6) . . .
113(5) . . .
105(6) . . .
92(5) . . .
108(6) . . .
104(5) . . .
97(5) . . .
109(6) . . .
97(6) . . .
103(6) . . .
100(5) . . .
97(5) . . .
100(5) . . .
102(6) . . .
93(5) . . .
103(5) . . .
97(5) . . .
106(5) . . .
113(6) . . .
110(6) . . .
103(5) . . .
104(5) . . .
106(6) . . .
112(6) . . .
98(6) . . .
103(5) . . .
97(5) . . .
90(5) . . .
89(5) . . .
95(5) . . .
101(5) . . .
109(5) . . .
96(5) . . .
116(6) . . .
100(5) . . .
97(5) . . .
97(5) . . .
109(6) . . .
102(6) . . .
110(6) . . .
112(6) . . .
95(5) . . .
98(6) . . .
102(6) . . .
107(6) . . .
103(5) . . .
103(5) . . .
96(5) . . .
107(6) . . .
101(5) . . .
116(6) . . .
110(6) . . .
92(5) . . .
102(5) . . .
101(5) . . .
105(5) . . .
109(6) . . .
109(6) . . .
92(5) . . .
101(5) . . .
102(5) . . .
110(6) . . .
96(5) . . .
98(5) . . .
98(5) . . .
103(5) . . .
107(5) . . .
93(5) . . .
104(5) . . .
104(5) . . .
112(5) . . .
106(5) . . .
106(6) . . .
93(5) . . .
96(5) . . .
89(5) . . .
95(5) . . .
112(6) . . .
97(5) . . .
96(5) . . .
93(5) . . .
113(6) . . .
109(6) . . .
101(5) . . .
115(6) . . .
100(5) . . .
96(5) . . .
105(6) . . .
98(5) . . .
96(5) . . .
109(5) . . .
106(6) . . .
95(5) . . .
97(5) . . .
109(5) . . .
117(6) . . .
103(5) . . .
109(6) . . .
97(5) . . .
96(5) . . .
93(5) . . .
101(5) . . .
90(5) . . .
109(6) . . .
107(5) . . .
97(5) . . .
100(5) . . .
105(6) . . .
89(5) . . .
103(5) . . .
101(5) . . .
96(5) . . .
95(5) . . .
99(5) . . .
91(5) . . .
114(6) . . .
106(6) . . .
90(5) . . .
99(5) . . .
100(5) . . .
95(5) . . .
94(5) . . .
106(5) . . .
105(5) . . .
94(5) . . .
96(5) . . .
96(5) . . .
96(5) . . .
109(5) . . .
99(5) . . .
104(5) . . .
102(6) . . .
99(5) . . .
96(5) . . .
101(5) . . .
91(5) . . .
96(5) . . .
88(5) . . .
93(5) . . .
95(5) . . .
105(6) . . .
112(6) . . .
99(5) . . .
101(5) . . .
99(5) . . .
106(5) . . .
107(5) . . .
89(5) . . .
105(5) . . .
98(5) . . .
97(5) . . .
110(6) . . .
100(5) . . .
104(5) . . .
112(6) . . .
101(5) . . .
106(6) . . .
108(6) . . .
100(5) . . .
94(5) . . .
100(5) . . .
92(5) . . .
98(5) . . .
103(5) . . .
101(5) . . .
83(5) . . .
100(5) . . .
86(5) . . .
86(5) . . .
107(6) . . .
91(5) . . .
96(5) . . .
96(5) . . .
90(5) . . .
102(5) . . .
91(5) . . .
102(5) . . .
111(5) . . .
86(5) . . .
97(5) . . .
94(5) . . .
105(5) . . .
99(5) . . .
92(5) . . .
94(5) . . .
92(5) . . .
91(5) . . .
92(5) . . .
113(6) . . .
112(6) . . .
103(6) . . .
89(5) . . .
98(5) . . .
98(5) . . .
115(6) . . .
100(5) . . .
102(6) . . .
102(5) . . .
106(5) . . .
98(5) . . .
100(5) . . .
96(5) . . .
98(5) . . .
100(5) . . .
107(6) . . .
92(5) . . .
101(5) . . .
104(5) . . .
94(5) . . .
95(5) . . .
95(5) . . .
96(5) . . .
94(5) . . .
84(5) . . .
88(5) . . .
82(5) . . .
95(5) . . .
85(5) . . .
86(5) . . .
90(5) . . .
98(5) . . .
111(5) . . .
90(5) . . .
87(5) . . .
99(5) . . .
95(5) . . .
105(5) . . .
93(5) . . .
92(5) . . .
88(5) . . .
99(5) . . .
104(5) . . .
108(5) . . .
108(6) . . .
99(5) . . .
102(6) . . .
89(5) . . .
104(5) . . .
92(5) . . .
91(5) . . .
89(5) . . .
85(5) . . .
97(5) . . .
106(6) . . .
103(6) . . .
107(5) . . .
104(5) . . .
101(5) . . .
87(5) . . .
103(6) . . .
91(5) . . .
100(5) . . .
102(5) . . .
97(5) . . .
103(5) . . .
114(6) . . .
103(5) . . .
101(5) . . .
96(5) . . .
92(5) . . .
110(6) . . .
97(5) . . .
106(6) . . .
99(5) . . .
91(5) . . .
109(5) . . .
108(5) . . .
93(5) . . .
100(6) . . .
96(5) . . .
112(6) . . .
97(5) . . .
105(6) . . .
95(6) . . .
87(5) . . .
95(5) . . .
98(5) . . .
101(6) . . .
91(5) . . .
85(5) . . .
110(6) . . .
95(5) . . .
95(5) . . .
94(5) . . .
99(5) . . .
99(5) . . .
102(5) . . .
94(5) . . .
105(6) . . .
102(5) . . .
100(5) . . .
87(5) . . .
103(5) . . .
104(6) . . .
93(5) . . .
92(5) . . .
99(5) . . .
105(6) . . .
110(6) . . .
91(5) . . .
101(5) . . .
97(5) . . .
98(5) . . .
92(5) . . .
87(5) . . .
105(5) . . .
92(5) . . .
80(5) . . .
82(5) . . .
88(5) . . .
93(5) . . .
111(6) . . .
101(5) . . .
102(5) . . .
95(5) . . .
98(5) . . .
98(5) . . .
90(5) . . .
89(5) . . .
95(5) . . .
104(5) . . .
95(5) . . .
94(5) . . .
94(5) . . .
96(5) . . .
95(5) . . .
98(5) . . .
103(6) . . .
101(5) . . .
102(5) . . .
93(5) . . .
90(5) . . .
105(6) . . .
83(5) . . .
94(5) . . .
88(5) . . .
93(5) . . .
91(5) . . .
76(5) . . .
95(5) . . .
89(5) . . .
85(5) . . .
102(5) . . .
97(5) . . .
98(5) . . .
98(5) . . .
102(5) . . .
82(5) . . .
95(5) . . .
110(5) . . .
96(5) . . .
95(5) . . .
118(6) . . .
98(5) . . .
100(5) . . .
103(5) . . .
112(6) . . .
93(5) . . .
99(5) . . .
116(6) . . .
109(6) . . .
99(5) . . .
103(5) . . .
99(5) . . .
78(5) . . .
98(5) . . .
88(5) . . .
101(5) . . .
119(6) . . .
99(5) . . .
92(5) . . .
103(6) . . .
125(6) . . .
102(5) . . .
110(6) . . .
91(5) . . .
106(6) . . .
105(6) . . .
102(5) . . .
91(5) . . .
100(5) . . .
108(6) . . .
104(6) . . .
117(6) . . .
93(5) . . .
92(5) . . .
111(6) . . .
95(5) . . .
104(5) . . .
97(5) . . .
114(6) . . .
97(6) . . .
100(5) . . .
103(5) . . .
102(5) . . .
90(5) . . .
109(6) . . .
90(5) . . .
95(5) . . .
88(5) . . .
96(6) . . .
98(5) . . .
104(5) . . .
95(5) . . .
102(5) . . .
96(5) . . .
102(6) . . .
95(5) . . .
94(5) . . .
96(5) . . .
89(5) . . .
112(6) . . .
97(5) . . .
98(5) . . .
91(5) . . .
98(6) . . .
89(5) . . .
97(5) . . .
96(5) . . .
99(5) . . .
91(5) . . .
99(5) . . .
116(6) . . .
96(5) . . .
92(5) . . .
97(5) . . .
106(6) . . .
104(5) . . .
101(5) . . .
91(5) . . .
85(5) . . .
103(5) . . .
102(5) . . .
102(5) . . .
97(5) . . .
100(6) . . .
97(5) . . .
100(5) . . .
101(5) . . .
93(5) . . .
95(5) . . .
98(5) . . .
95(5) . . .
98(5) . . .
92(5) . . .
100(6) . . .
90(5) . . .
98(5) . . .
102(5) . . .
92(5) . . .
97(6) . . .
91(5) . . .
97(5) . . .
97(5) . . .
113(6) . . .
89(5) . . .
104(6) . . .
100(5) . . .
104(6) . . .
116(6) . . .
113(6) . . .
98(5) . . .
99(5) . . .
94(5) . . .
102(6) . . .
105(6) . . .
97(5) . . .
97(5) . . .
112(6) . . .
101(5) . . .
102(5) . . .
84(5) . . .
95(5) . . .
80(5) . . .
92(5) . . .
94(5) . . .
113(6) . . .
107(5) . . .
109(5) . . .
96(5) . . .
98(6) . . .
92(5) . . .
96(5) . . .
87(5) . . .
83(5) . . .
98(5) . . .
100(5) . . .
100(5) . . .
102(5) . . .
86(5) . . .
83(5) . . .
85(5) . . .
94(5) . . .
97(5) . . .
100(6) . . .
88(5) . . .
87(5) . . .
96(5) . . .
90(5) . . .
106(6) . . .
100(5) . . .
103(5) . . .
95(5) . . .
82(5) . . .
103(6) . . .
96(5) . . .
94(5) . . .
79(5) . . .
87(5) . . .
92(5) . . .
95(5) . . .
93(5) . . .
91(5) . . .
93(5) . . .
92(5) . . .
102(5) . . .
100(5) . . .
98(5) . . .
103(6) . . .
89(5) . . .
103(5) . . .
96(5) . . .
73(5) . . .
87(5) . . .
106(6) . . .
103(5) . . .
90(5) . . .
107(6) . . .
94(5) . . .
98(5) . . .
106(5) . . .
91(5) . . .
94(5) . . .
100(5) . . .
103(5) . . .
97(5) . . .
100(5) . . .
104(6) . . .
105(6) . . .
103(5) . . .
79(5) . . .
107(5) . . .
98(6) . . .
111(6) . . .
90(5) . . .
88(5) . . .
97(5) . . .
107(6) . . .
98(6) . . .
83(5) . . .
99(5) . . .
86(5) . . .
108(6) . . .
94(5) . . .
104(6) . . .
96(5) . . .
92(5) . . .
95(5) . . .
95(5) . . .
86(5) . . .
96(5) . . .
100(5) . . .
95(5) . . .
92(5) . . .
99(5) . . .
90(5) . . .
94(5) . . .
91(5) . . .
102(5) . . .
98(5) . . .
87(5) . . .
104(5) . . .
88(5) . . .
93(5) . . .
91(5) . . .
104(5) . . .
101(5) . . .
103(6) . . .
102(5) . . .
86(5) . . .
99(5) . . .
113(6) . . .
95(5) . . .
101(5) . . .
102(5) . . .
110(5) . . .
89(5) . . .
90(5) . . .
92(5) . . .
90(5) . . .
88(5) . . .
104(6) . . .
88(5) . . .
76(5) . . .
96(5) . . .
101(5) . . .
92(5) . . .
92(5) . . .
85(5) . . .
91(5) . . .
87(5) . . .
109(6) . . .
100(5) . . .
100(5) . . .
98(5) . . .
105(5) . . .
96(5) . . .
102(5) . . .
96(5) . . .
105(5) . . .
100(5) . . .
89(5) . . .
97(5) . . .
94(5) . . .
99(5) . . .
109(6) . . .
100(6) . . .
97(5) . . .
99(5) . . .
88(5) . . .
100(5) . . .
97(5) . . .
86(5) . . .
92(5) . . .
95(5) . . .
97(5) . . .
87(5) . . .
84(5) . . .
101(5) . . .
88(5) . . .
113(6) . . .
100(5) . . .
100(5) . . .
97(5) . . .
102(5) . . .
91(5) . . .
103(6) . . .
95(5) . . .
81(5) . . .
107(6) . . .
99(6) . . .
92(5) . . .
106(6) . . .
103(5) . . .
88(5) . . .
103(6) . . .
103(6) . . .
90(5) . . .
108(5) . . .
95(5) . . .
82(5) . . .
94(5) . . .
102(5) . . .
96(5) . . .
94(5) . . .
95(5) . . .
100(5) . . .
94(5) . . .
90(5) . . .
95(5) . . .
102(6) . . .
94(5) . . .
98(5) . . .
96(5) . . .
97(5) . . .
107(6) . . .
90(5) . . .
84(5) . . .
94(5) . . .
88(5) . . .
95(5) . . .
92(5) . . .
108(6) . . .
94(5) . . .
95(5) . . .
101(5) . . .
98(5) . . .
100(5) . . .
106(5) . . .
106(6) . . .
96(6) . . .
91(5) . . .
95(5) . . .
104(5) . . .
100(5) . . .
88(5) . . .
98(5) . . .
101(5) . . .
100(5) . . .
96(5) . . .
89(5) . . .
96(5) . . .
96(5) . . .
105(5) . . .
101(6) . . .
86(5) . . .
92(5) . . .
97(5) . . .
90(5) . . .
102(5) . . .
103(6) . . .
87(5) . . .
91(5) . . .
101(5) . . .
97(5) . . .
98(5) . . .
89(5) . . .
92(5) . . .
81(5) . . .
100(5) . . .
115(6) . . .
108(5) . . .
92(5) . . .
99(5) . . .
112(6) . . .
98(5) . . .
93(5) . . .
108(5) . . .
94(5) . . .
95(5) . . .
96(5) . . .
91(5) . . .
90(5) . . .
106(6) . . .
95(5) . . .
102(5) . . .
82(5) . . .
91(5) . . .
84(5) . . .
77(5) . . .
104(6) . . .
94(5) . . .
113(5) . . .
108(5) . . .
87(5) . . .
96(5) . . .
111(5) . . .
95(5) . . .
97(5) . . .
100(6) . . .
89(5) . . .
95(5) . . .
99(5) . . .
83(5) . . .
98(6) . . .
88(5) . . .
87(5) . . .
76(5) . . .
83(5) . . .
93(5) . . .
98(6) . . .
92(5) . . .
97(5) . . .
99(5) . . .
92(5) . . .
94(5) . . .
106(5) . . .
105(5) . . .
104(6) . . .
92(5) . . .
96(5) . . .
94(5) . . .
93(5) . . .
110(6) . . .
100(5) . . .
106(5) . . .
95(5) . . .
93(5) . . .
107(6) . . .
85(5) . . .
93(5) . . .
98(5) . . .
99(5) . . .
97(5) . . .
93(5) . . .
94(5) . . .
94(5) . . .
99(5) . . .
102(5) . . .
87(5) . . .
95(5) . . .
101(5) . . .
102(5) . . .
94(5) . . .
107(6) . . .
86(5) . . .
90(5) . . .
86(5) . . .
97(6) . . .
90(5) . . .
104(5) . . .
97(5) . . .
104(5) . . .
98(5) . . .
88(5) . . .
109(5) . . .
97(5) . . .
100(5) . . .
88(5) . . .
98(6) . . .
101(5) . . .
91(5) . . .
87(5) . . .
91(5) . . .
89(5) . . .
86(5) . . .
91(5) . . .
109(6) . . .
99(5) . . .
85(5) . . .
102(5) . . .
105(5) . . .
96(5) . . .
92(5) . . .
96(5) . . .
87(5) . . .
95(5) . . .
92(5) . . .
94(5) . . .
104(5) . . .
93(5) . . .
81(5) . . .
86(5) . . .
106(6) . . .
97(5) . . .
98(5) . . .
108(6) . . .
99(5) . . .
93(5) . . .
90(5) . . .
93(5) . . .
98(5) . . .
86(5) . . .
95(5) . . .
85(5) . . .
100(5) . . .
96(5) . . .
93(6) . . .
81(5) . . .
79(5) . . .
95(5) . . .
102(5) . . .
85(5) . . .
88(5) . . .
95(5) . . .
102(5) . . .
100(5) . . .
88(5) . . .
83(5) . . .
105(5) . . .
100(5) . . .
83(5) . . .
93(5) . . .
94(5) . . .
110(5) . . .
89(5) . . .
89(5) . . .
91(5) . . .
84(5) . . .
93(5) . . .
99(5) . . .
90(5) . . .
92(5) . . .
109(6) . . .
89(5) . . .
98(5) . . .
110(6) . . .
87(5) . . .
91(5) . . .
82(5) . . .
84(5) . . .
90(5) . . .
105(6) . . .
100(5) . . .
86(5) . . .
84(5) . . .
96(5) . . .
97(5) . . .
107(5) . . .
85(5) . . .
85(5) . . .
100(6) . . .
84(5) . . .
100(5) . . .
82(5) . . .
86(5) . . .
89(5) . . .
103(5) . . .
101(5) . . .
95(5) . . .
90(5) . . .
106(6) . . .
96(5) . . .
88(5) . . .
96(5) . . .
100(6) . . .
88(5) . . .
89(5) . . .
89(5) . . .
86(5) . . .
94(5) . . .
78(5) . . .
73(5) . . .
88(5) . . .
104(5) . . .
102(5) . . .
93(5) . . .
91(5) . . .
106(5) . . .
95(5) . . .
98(6) . . .
92(5) . . .
81(5) . . .
87(5) . . .
93(5) . . .
79(5) . . .
87(5) . . .
98(5) . . .
83(5) . . .
93(5) . . .
94(5) . . .
96(5) . . .
103(5) . . .
97(5) . . .
95(5) . . .
92(5) . . .
95(5) . . .
108(5) . . .
96(5) . . .
85(5) . . .
90(5) . . .
89(5) . . .
91(5) . . .
108(5) . . .
92(5) . . .
93(6) . . .
94(5) . . .
85(5) . . .
76(5) . . .
83(5) . . .
91(5) . . .
93(5) . . .
100(5) . . .
89(5) . . .
82(5) . . .
98(6) . . .
106(6) . . .
102(5) . . .
85(5) . . .
90(5) . . .
81(5) . . .
84(5) . . .
101(5) . . .
90(5) . . .
101(6) . . .
95(5) . . .
92(5) . . .
88(5) . . .
94(5) . . .
89(5) . . .
94(5) . . .
95(5) . . .
93(5) . . .
102(6) . . .
93(5) . . .
87(5) . . .
90(5) . . .
96(5) . . .
72(5) . . .
83(5) . . .
88(5) . . .
104(5) . . .
114(6) . . .
104(6) . . .
88(5) . . .
90(5) . . .
91(5) . . .
100(5) . . .
91(5) . . .
92(5) . . .
92(5) . . .
90(5) . . .
86(5) . . .
82(5) . . .
86(5) . . .
93(5) . . .
90(5) . . .
98(5) . . .
85(5) . . .
92(5) . . .
97(6) . . .
99(5) . . .
88(5) . . .
87(5) . . .
107(6) . . .
87(5) . . .
83(5) . . .
92(5) . . .
95(5) . . .
88(5) . . .
90(5) . . .
103(5) . . .
101(5) . . .
89(5) . . .
91(5) . . .
103(6) . . .
100(5) . . .
101(5) . . .
98(5) . . .
97(5) . . .
110(6) . . .
97(5) . . .
94(5) . . .
101(5) . . .
103(5) . . .
87(5) . . .
95(5) . . .
79(5) . . .
78(5) . . .
76(5) . . .
86(5) . . .
91(5) . . .
97(5) . . .
108(6) . . .
85(5) . . .
89(5) . . .
97(5) . . .
97(5) . . .
85(5) . . .
95(5) . . .
91(5) . . .
88(5) . . .
97(5) . . .
88(5) . . .
90(5) . . .
112(6) . . .
95(5) . . .
89(5) . . .
91(5) . . .
89(5) . . .
78(5) . . .
86(5) . . .
94(5) . . .
84(5) . . .
94(5) . . .
92(5) . . .
88(5) . . .
88(5) . . .
91(5) . . .
90(5) . . .
91(5) . . .
96(5) . . .
101(6) . . .
103(6) . . .
102(5) . . .
93(5) . . .
90(5) . . .
89(5) . . .
88(5) . . .
92(5) . . .
90(5) . . .
101(6) . . .
94(5) . . .
85(5) . . .
96(5) . . .
101(5) . . .
102(5) . . .
86(5) . . .
87(5) . . .
104(5) . . .
99(5) . . .
90(5) . . .
98(5) . . .
101(5) . . .
107(6) . . .
96(5) . . .
82(5) . . .
100(6) . . .
94(5) . . .
101(5) . . .
105(5) . . .
90(5) . . .
90(5) . . .
91(5) . . .
90(5) . . .
87(5) . . .
91(5) . . .
79(5) . . .
91(5) . . .
84(5) . . .
92(5) . . .
93(5) . . .
90(6) . . .
100(6) . . .
95(5) . . .
93(5) . . .
79(5) . . .
81(5) . . .
99(5) . . .
86(5) . . .
95(5) . . .
66(4) . . .
88(5) . . .
89(5) . . .
95(5) . . .
81(5) . . .
97(5) . . .
105(6) . . .
86(5) . . .
88(5) . . .
90(5) . . .
86(5) . . .
83(5) . . .
90(5) . . .
89(5) . . .
94(5) . . .
101(6) . . .
92(5) . . .
80(5) . . .
87(5) . . .
87(5) . . .
98(5) . . .
90(5) . . .
99(5) . . .
97(5) . . .
90(5) . . .
87(5) . . .
92(5) . . .
104(5) . . .
93(5) . . .
90(5) . . .
97(5) . . .
91(5) . . .
102(5) . . .
96(5) . . .
90(5) . . .
90(5) . . .
98(6) . . .
90(5) . . .
96(5) . . .
96(5) . . .
91(5) . . .
88(5) . . .
87(5) . . .
84(5) . . .
92(5) . . .
109(6) . . .
88(5) . . .
83(5) . . .
93(5) . . .
91(5) . . .
90(5) . . .
95(5) . . .
86(5) . . .
101(5) . . .
101(5) . . .
103(6) . . .
83(5) . . .
94(5) . . .
85(5) . . .
86(5) . . .
81(5) . . .
92(5) . . .
98(5) . . .
97(5) . . .
90(5) . . .
105(6) . . .
93(5) . . .
93(5) . . .
89(5) . . .
80(5) . . .
88(5) . . .
101(5) . . .
94(5) . . .
88(5) . . .
83(5) . . .
89(5) . . .
86(5) . . .
94(5) . . .
91(5) . . .
96(5) . . .
92(5) . . .
78(5) . . .
96(5) . . .
90(5) . . .
99(6) . . .
88(5) . . .
79(5) . . .
92(5) . . .
87(5) . . .
93(5) . . .
92(5) . . .
84(5) . . .
91(5) . . .
79(5) . . .
94(5) . . .
83(5) . . .
97(5) . . .
99(5) . . .
92(5) . . .
89(5) . . .
91(5) . . .
80(5) . . .
81(5) . . .
78(5) . . .
93(5) . . .
86(5) . . .
80(5) . . .
89(5) . . .
96(5) . . .
90(5) . . .
89(5) . . .
91(5) . . .
82(5) . . .
88(5) . . .
96(5) . . .
103(5) . . .
83(5) . . .
100(5) . . .
95(5) . . .
91(5) . . .
86(5) . . .
86(5) . . .
103(6) . . .
87(5) . . .
89(5) . . .
78(5) . . .
75(4) . . .
96(5) . . .
93(5) . . .
81(5) . . .
91(5) . . .
93(5) . . .
91(5) . . .
86(5) . . .
88(5) . . .
88(5) . . .
89(5) . . .
94(5) . . .
98(6) . . .
73(5) . . .
78(5) . . .
86(5) . . .
79(5) . . .
95(5) . . .
85(5) . . .
91(5) . . .
89(5) . . .
92(5) . . .
96(5) . . .
91(5) . . .
89(5) . . .
85(5) . . .
93(5) . . .
109(6) . . .
95(5) . . .
91(5) . . .
96(5) . . .
90(5) . . .
84(5) . . .
83(5) . . .
83(5) . . .
90(5) . . .
102(6) . . .
85(5) . . .
71(4) . . .
93(5) . . .
94(5) . . .
80(5) . . .
85(5) . . .
76(5) . . .
91(5) . . .
79(5) . . .
90(5) . . .
86(5) . . .
88(5) . . .
84(5) . . .
84(5) . . .
73(5) . . .
87(5) . . .
99(5) . . .
77(5) . . .
78(5) . . .
89(5) . . .
90(5) . . .
82(5) . . .
73(4) . . .
88(5) . . .
87(5) . . .
99(5) . . .
91(5) . . .
97(5) . . .
93(5) . . .
95(5) . . .
93(5) . . .
90(5) . . .
82(5) . . .
76(5) . . .
98(6) . . .
90(5) . . .
98(5) . . .
78(5) . . .
82(5) . . .
89(5) . . .
101(5) . . .
85(5) . . .
82(5) . . .
89(5) . . .
93(5) . . .
99(5) . . .
82(5) . . .
88(5) . . .
82(5) . . .
83(5) . . .
94(5) . . .
102(5) . . .
100(5) . . .
98(5) . . .
97(5) . . .
91(5) . . .
85(5) . . .
83(5) . . .
91(5) . . .
94(5) . . .
90(5) . . .
85(5) . . .
96(5) . . .
86(5) . . .
89(5) . . .
86(5) . . .
97(5) . . .
85(5) . . .
79(5) . . .
96(5) . . .
90(5) . . .
92(5) . . .
99(5) . . .
81(5) . . .
79(5) . . .
75(4) . . .
88(5) . . .
93(5) . . .
90(5) . . .
85(5) . . .
92(5) . . .
75(4) . . .
91(5) . . .
86(5) . . .
100(5) . . .
94(5) . . .
85(5) . . .
84(5) . . .
86(5) . . .
81(5) . . .
90(5) . . .
88(5) . . .
77(5) . . .
83(5) . . .
84(5) . . .
92(5) . . .
91(5) . . .
83(5) . . .
84(5) . . .
94(5) . . .
96(5) . . .
85(5) . . .
83(5) . . .
81(5) . . .
86(5) . . .
94(5) . . .
101(5) . . .
75(5) . . .
86(5) . . .
87(5) . . .
84(5) . . .
85(5) . . .
93(5) . . .
91(5) . . .
80(5) . . .
97(5) . . .
92(5) . . .
84(5) . . .
91(5) . . .
102(5) . . .
91(5) . . .
73(5) . . .
82(5) . . .
82(5) . . .
81(5) . . .
84(5) . . .
85(5) . . .
91(5) . . .
97(5) . . .
88(5) . . .
86(5) . . .
91(5) . . .
89(5) . . .
70(5) . . .
85(5) . . .
82(5) . . .
93(5) . . .
88(5) . . .
83(5) . . .
87(5) . . .
93(5) . . .
82(5) . . .
83(5) . . .
90(5) . . .
82(5) . . .
89(5) . . .
99(5) . . .
78(5) . . .
76(5) . . .
89(5) . . .
89(5) . . .
95(5) . . .
91(5) . . .
78(5) . . .
95(5) . . .
78(5) . . .
76(5) . . .
76(5) . . .
85(5) . . .
101(5) . . .
93(5) . . .
96(5) . . .
98(5) . . .
92(5) . . .
103(5) . . .
78(5) . . .
81(5) . . .
92(5) . . .
84(5) . . .
93(5) . . .
87(5) . . .
92(5) . . .
83(5) . . .
85(5) . . .
82(5) . . .
78(5) . . .
97(6) . . .
91(5) . . .
89(5) . . .
80(5) . . .
85(5) . . .
77(5) . . .
86(5) . . .
81(5) . . .
80(5) . . .
85(5) . . .
94(6) . . .
88(5) . . .
84(5) . . .
94(5) . . .
83(5) . . .
99(6) . . .
80(5) . . .
93(5) . . .
87(5) . . .
82(5) . . .
87(5) . . .
88(5) . . .
90(5) . . .
78(5) . . .
79(5) . . .
104(6) . . .
98(5) . . .
87(5) . . .
86(5) . . .
80(5) . . .
77(5) . . .
77(5) . . .
81(5) . . .
75(5) . . .
82(5) . . .
96(5) . . .
80(5) . . .
81(5) . . .
89(5) . . .
95(5) . . .
86(5) . . .
83(5) . . .
75(5) . . .
87(5) . . .
98(6) . . .
91(5) . . .
99(5) . . .
90(5) . . .
88(5) . . .
88(5) . . .
93(5) . . .
78(5) . . .
90(5) . . .
72(4) . . .
88(5) . . .
99(5) . . .
84(5) . . .
94(5) . . .
83(5) . . .
74(5) . . .
81(5) . . .
77(5) . . .
73(4) . . .
83(5) . . .
93(5) . . .
83(5) . . .
87(5) . . .
88(5) . . .
87(5) . . .
83(5) . . .
86(5) . . .
81(5) . . .
92(5) . . .
86(5) . . .
82(5) . . .
81(5) . . .
85(5) . . .
86(5) . . .
94(5) . . .
98(5) . . .
80(5) . . .
77(5) . . .
92(5) . . .
84(5) . . .
89(5) . . .
89(5) . . .
92(5) . . .
86(5) . . .
89(5) . . .
85(5) . . .
75(5) . . .
84(5) . . .
80(5) . . .
84(5) . . .
87(5) . . .
96(5) . . .
100(5) . . .
88(5) . . .
90(5) . . .
76(5) . . .
79(5) . . .
96(5) . . .
89(5) . . .
88(5) . . .
100(5) . . .
88(5) . . .
103(5) . . .
80(5) . . .
84(5) . . .
102(5) . . .
87(5) . . .
84(5) . . .
81(5) . . .
89(5) . . .
87(5) . . .
83(5) . . .
78(5) . . .
79(5) . . .
88(5) . . .
84(5) . . .
96(5) . . .
83(5) . . .
83(5) . . .
79(5) . . .
86(5) . . .
87(5) . . .
79(5) . . .
79(5) . . .
77(5) . . .
84(5) . . .
82(5) . . .
82(5) . . .
90(5) . . .
82(5) . . .
84(5) . . .
82(5) . . .
72(5) . . .
82(5) . . .
79(5) . . .
89(5) . . .
88(5) . . .
85(5) . . .
85(5) . . .
81(5) . . .
97(5) . . .
74(4) . . .
78(5) . . .
76(5) . . .
90(5) . . .
89(5) . . .
86(5) . . .
82(5) . . .
85(5) . . .
89(5) . . .
88(5) . . .
84(5) . . .
99(5) . . .
72(5) . . .
88(5) . . .
83(5) . . .
82(5) . . .
78(5) . . .
82(5) . . .
86(5) . . .
88(5) . . .
95(5) . . .
90(5) . . .
81(5) . . .
86(5) . . .
88(5) . . .
82(5) . . .
80(5) . . .
88(5) . . .
88(5) . . .
90(5) . . .
84(5) . . .
94(5) . . .
103(6) . . .
75(5) . . .
76(5) . . .
90(5) . . .
91(5) . . .
100(5) . . .
85(5) . . .
81(5) . . .
82(5) . . .
70(5) . . .
74(5) . . .
91(5) . . .
82(5) . . .
82(5) . . .
77(5) . . .
86(5) . . .
79(5) . . .
86(5) . . .
84(5) . . .
90(5) . . .
79(5) . . .
83(5) . . .
84(5) . . .
84(5) . . .
81(5) . . .
82(5) . . .
92(5) . . .
94(5) . . .
90(5) . . .
84(5) . . .
80(5) . . .
72(4) . . .
97(5) . . .
81(5) . . .
81(5) . . .
93(5) . . .
86(5) . . .
89(5) . . .
95(5) . . .
88(5) . . .
73(5) . . .
99(5) . . .
84(5) . . .
81(5) . . .
92(5) . . .
81(5) . . .
80(5) . . .
88(5) . . .
82(5) . . .
80(5) . . .
84(5) . . .
78(5) . . .
83(5) . . .
86(5) . . .
88(5) . . .
70(4) . . .
83(5) . . .
94(5) . . .
94(5) . . .
95(5) . . .
78(5) . . .
78(5) . . .
85(5) . . .
81(5) . . .
86(5) . . .
75(4) . . .
94(5) . . .
94(5) . . .
96(5) . . .
92(5) . . .
83(5) . . .
75(5) . . .
94(5) . . .
82(5) . . .
88(5) . . .
86(5) . . .
75(5) . . .
92(5) . . .
86(5) . . .
84(5) . . .
83(5) . . .
82(5) . . .
92(5) . . .
92(5) . . .
87(5) . . .
78(5) . . .
79(5) . . .
83(5) . . .
91(5) . . .
86(5) . . .
87(5) . . .
75(5) . . .
81(5) . . .
92(5) . . .
87(5) . . .
95(5) . . .
95(5) . . .
97(5) . . .
96(5) . . .
96(5) . . .
92(5) . . .
77(5) . . .
80(5) . . .
100(6) . . .
89(5) . . .
79(5) . . .
87(5) . . .
110(6) . . .
82(5) . . .
77(5) . . .
76(5) . . .
82(5) . . .
105(6) . . .
91(5) . . .
93(5) . . .
86(5) . . .
82(5) . . .
91(5) . . .
84(5) . . .
73(4) . . .
85(5) . . .
84(5) . . .
87(5) . . .
75(5) . . .
80(5) . . .
81(5) . . .
85(5) . . .
90(6) . . .
85(5) . . .
102(5) . . .
97(5) . . .
83(5) . . .
90(5) . . .
91(5) . . .
98(5) . . .
89(5) . . .
75(5) . . .
81(5) . . .
77(5) . . .
92(5) . . .
83(5) . . .
86(5) . . .
83(5) . . .
85(5) . . .
78(5) . . .
94(5) . . .
79(5) . . .
82(5) . . .
90(5) . . .
89(5) . . .
75(5) . . .
78(5) . . .
80(5) . . .
69(4) . . .
70(4) . . .
80(5) . . .
89(5) . . .
84(5) . . .
85(5) . . .
80(5) . . .
94(5) . . .
78(5) . . .
78(5) . . .
77(5) . . .
82(5) . . .
82(5) . . .
88(5) . . .
85(5) . . .
73(4) . . .
82(5) . . .
93(5) . . .
78(5) . . .
88(5) . . .
82(5) . . .
85(5) . . .
92(5) . . .
84(5) . . .
70(5) . . .
80(5) . . .
71(4) . . .
98(5) . . .
94(5) . . .
91(5) . . .
97(5) . . .
92(5) . . .
94(5) . . .
98(5) . . .
88(5) . . .
86(5) . . .
80(5) . . .
84(5) . . .
81(5) . . .
85(5) . . .
82(5) . . .
76(5) . . .
92(5) . . .
81(5) . . .
84(5) . . .
76(5) . . .
82(5) . . .
90(5) . . .
86(5) . . .
85(5) . . .
89(5) . . .
90(5) . . .
75(5) . . .
80(5) . . .
78(5) . . .
77(5) . . .
84(5) . . .
85(5) . . .
85(5) . . .
91(5) . . .
83(5) . . .
91(5) . . .
95(5) . . .
94(5) . . .
100(5) . . .
76(5) . . .
73(5) . . .
83(5) . . .
81(5) . . .
88(5) . . .
100(5) . . .
75(5) . . .
73(5) . . .
74(5) . . .
74(4) . . .
82(5) . . .
80(5) . . .
77(5) . . .
83(5) . . .
80(5) . . .
89(5) . . .
74(5) . . .
85(5) . . .
93(5) . . .
88(5) . . .
85(5) . . .
87(5) . . .
79(5) . . .
91(5) . . .
90(5) . . .
80(5) . . .
85(5) . . .
78(5) . . .
83(5) . . .
89(5) . . .
89(5) . . .
84(5) . . .
82(5) . . .
83(5) . . .
77(5) . . .
79(5) . . .
88(5) . . .
86(5) . . .
81(5) . . .
85(5) . . .
80(5) . . .
92(6) . . .
71(5) . . .
89(5) . . .
88(5) . . .
78(5) . . .
84(5) . . .
82(5) . . .
72(5) . . .
81(5) . . .
73(4) . . .
89(5) . . .
93(5) . . .
77(5) . . .
78(5) . . .
86(5) . . .
88(5) . . .
87(5) . . .
73(4) . . .
78(5) . . .
81(5) . . .
87(5) . . .
89(5) . . .
71(4) . . .
91(5) . . .
99(5) . . .
97(5) . . .
82(5) . . .
77(5) . . .
82(5) . . .
86(5) . . .
79(5) . . .
76(5) . . .
87(5) . . .
72(5) . . .
86(5) . . .
75(5) . . .
80(5) . . .
78(5) . . .
79(5) . . .
82(5) . . .
92(5) . . .
84(5) . . .
83(5) . . .
83(5) . . .
77(5) . . .
79(5) . . .
82(5) . . .
82(5) . . .
85(5) . . .
85(5) . . .
84(5) . . .
88(5) . . .
73(4) . . .
82(5) . . .
81(5) . . .
74(4) . . .
85(5) . . .
92(5) . . .
86(5) . . .
62(4) . . .
90(5) . . .
98(5) . . .
90(5) . . .
88(5) . . .
69(5) . . .
76(5) . . .
71(5) . . .
83(5) . . .
77(5) . . .
76(5) . . .
78(5) . . .
91(5) . . .
86(5) . . .
88(5) . . .
73(5) . . .
84(5) . . .
79(5) . . .
90(5) . . .
83(5) . . .
84(5) . . .
73(4) . . .
85(5) . . .
88(5) . . .
80(5) . . .
79(5) . . .
76(5) . . .
88(5) . . .
87(5) . . .
82(5) . . .
82(5) . . .
78(5) . . .
71(4) . . .
87(5) . . .
90(5) . . .
77(5) . . .
70(5) . . .
75(4) . . .
84(5) . . .
82(5) . . .
91(5) . . .
81(5) . . .
78(5) . . .
83(5) . . .
67(4) . . .
79(5) . . .
87(5) . . .
93(5) . . .
89(5) . . .
71(5) . . .
80(5) . . .
83(5) . . .
71(4) . . .
83(5) . . .
76(5) . . .
76(5) . . .
80(5) . . .
83(5) . . .
80(5) . . .
82(5) . . .
90(5) . . .
86(5) . . .
73(4) . . .
76(5) . . .
87(5) . . .
83(5) . . .
98(5) . . .
84(5) . . .
87(5) . . .
79(5) . . .
81(5) . . .
86(5) . . .
85(5) . . .
73(5) . . .
79(5) . . .
90(5) . . .
88(5) . . .
73(5) . . .
79(5) . . .
80(5) . . .
86(5) . . .
76(5) . . .
73(5) . . .
70(4) . . .
69(4) . . .
75(5) . . .
84(5) . . .
76(5) . . .
89(5) . . .
90(5) . . .
81(5) . . .
83(5) . . .
81(5) . . .
90(5) . . .
90(5) . . .
79(5) . . .
81(5) . . .
85(5) . . .
81(5) . . .
86(5) . . .
83(5) . . .
73(4) . . .
83(5) . . .
88(5) . . .
78(5) . . .
75(4) . . .
86(5) . . .
80(5) . . .
81(5) . . .
80(5) . . .
88(5) . . .
84(5) . . .
69(4) . . .
89(5) . . .
91(5) . . .
59(4) . . .
99(5) . . .
84(5) . . .
84(5) . . .
91(5) . . .
87(5) . . .
85(5) . . .
80(5) . . .
71(5) . . .
70(4) . . .
89(5) . . .
84(5) . . .
82(5) . . .
80(5) . . .
84(5) . . .
79(5) . . .
71(4) . . .
90(5) . . .
85(5) . . .
94(5) . . .
76(5) . . .
79(5) . . .
80(5) . . .
76(5) . . .
85(5) . . .
79(5) . . .
77(5) . . .
71(4) . . .
73(5) . . .
77(5) . . .
74(4) . . .
79(5) . . .
77(5) . . .
80(5) . . .
78(5) . . .
96(5) . . .
86(5) . . .
79(5) . . .
85(5) . . .
85(5) . . .
76(5) . . .
83(5) . . .
71(5) . . .
82(5) . . .
83(5) . . .
81(5) . . .
88(5) . . .
79(5) . . .
75(5) . . .
86(5) . . .
91(5) . . .
72(5) . . .
69(5) . . .
74(5) . . .
79(5) . . .
68(4) . . .
71(5) . . .
80(5) . . .
93(5) . . .
69(4) . . .
81(5) . . .
78(5) . . .
74(5) . . .
84(5) . . .
89(5) . . .
75(5) . . .
65(5) . . .
72(5) . . .
76(5) . . .
94(5) . . .
82(5) . . .
76(5) . . .
72(5) . . .
78(5) . . .
80(5) . . .
68(4) . . .
90(5) . . .
88(5) . . .
75(5) . . .
85(5) . . .
79(5) . . .
79(5) . . .
85(5) . . .
82(5) . . .
69(4) . . .
72(4) . . .
84(5) . . .
87(5) . . .
79(5) . . .
78(5) . . .
83(5) . . .
72(5) . . .
73(5) . . .
69(4) . . .
80(5) . . .
88(5) . . .
85(5) . . .
94(5) . . .
81(5) . . .
82(5) . . .
86(5) . . .
77(5) . . .
86(5) . . .
84(5) . . .
85(5) . . .
81(5) . . .
87(5) . . .
83(5) . . .
97(5) . . .
73(5) . . .
79(5) . . .
85(5) . . .
85(5) . . .
75(4) . . .
90(5) . . .
86(5) . . .
71(5) . . .
71(5) . . .
72(4) . . .
83(5) . . .
84(5) . . .
91(5) . . .
81(5) . . .
76(5) . . .
67(4) . . .
76(5) . . .
69(4) . . .
77(5) . . .
76(4) . . .
85(5) . . .
90(5) . . .
88(5) . . .
81(5) . . .
70(4) . . .
67(4) . . .
89(5) . . .
100(5) . . .
84(5) . . .
76(5) . . .
73(5) . . .
84(5) . . .
76(5) . . .
87(5) . . .
81(5) . . .
85(5) . . .
81(5) . . .
82(5) . . .
75(5) . . .
84(5) . . .
78(5) . . .
81(5) . . .
96(6) . . .
77(5) . . .
87(5) . . .
87(5) . . .
71(5) . . .
80(5) . . .
85(5) . . .
91(5) . . .
80(5) . . .
83(5) . . .
69(4) . . .
79(5) . . .
80(5) . . .
82(5) . . .
81(5) . . .
80(5) . . .
85(5) . . .
99(5) . . .
95(5) . . .
81(5) . . .
77(5) . . .
74(4) . . .
71(5) . . .
84(5) . . .
76(5) . . .
77(5) . . .
77(5) . . .
73(4) . . .
76(5) . . .
78(5) . . .
76(5) . . .
85(5) . . .
93(5) . . .
80(5) . . .
65(4) . . .
90(5) . . .
79(5) . . .
80(5) . . .
82(5) . . .
78(5) . . .
89(5) . . .
78(5) . . .
81(5) . . .
82(5) . . .
87(5) . . .
87(5) . . .
75(5) . . .
91(5) . . .
77(5) . . .
79(5) . . .
88(5) . . .
88(5) . . .
82(5) . . .
76(5) . . .
75(5) . . .
84(5) . . .
74(4) . . .
85(5) . . .
70(5) . . .
82(5) . . .
73(4) . . .
66(4) . . .
79(5) . . .
72(5) . . .
70(4) . . .
84(5) . . .
77(5) . . .
81(5) . . .
74(5) . . .
73(5) . . .
80(5) . . .
71(4) . . .
73(5) . . .
73(5) . . .
75(5) . . .
69(4) . . .
77(5) . . .
86(5) . . .
76(4) . . .
91(5) . . .
86(5) . . .
75(5) . . .
74(5) . . .
70(5) . . .
72(4) . . .
67(4) . . .
85(5) . . .
80(5) . . .
65(4) . . .
83(5) . . .
85(5) . . .
77(5) . . .
75(5) . . .
77(5) . . .
79(5) . . .
69(4) . . .
84(5) . . .
79(5) . . .
75(5) . . .
85(5) . . .
68(4) . . .
66(4) . . .
82(5) . . .
70(5) . . .
63(4) . . .
88(5) . . .
81(5) . . .
76(5) . . .
78(5) . . .
77(5) . . .
69(4) . . .
73(5) . . .
80(5) . . .
65(4) . . .
86(5) . . .
75(5) . . .
76(5) . . .
79(5) . . .
80(5) . . .
60(4) . . .
65(4) . . .
76(5) . . .
71(5) . . .
79(5) . . .
84(5) . . .
70(4) . . .
80(5) . . .
71(5) . . .
73(5) . . .
77(5) . . .
64(4) . . .
69(5) . . .
95(6) . . .
71(5) . . .
70(4) . . .
75(5) . . .
75(5) . . .
68(4) . . .
81(5) . . .
79(5) . . .
85(5) . . .
83(5) . . .
79(5) . . .
70(4) . . .
82(5) . . .
83(5) . . .
78(5) . . .
73(5) . . .
84(5) . . .
81(5) . . .
74(5) . . .
78(5) . . .
73(5) . . .
73(4) . . .
78(5) . . .
74(5) . . .
76(5) . . .
78(5) . . .
79(5) . . .
78(5) . . .
82(5) . . .
92(5) . . .
98(5) . . .
88(5) . . .
80(5) . . .
85(5) . . .
88(5) . . .
84(5) . . .
80(5) . . .
71(5) . . .
78(5) . . .
78(5) . . .
87(5) . . .
79(5) . . .
85(5) . . .
76(5) . . .
78(5) . . .
76(5) . . .
69(4) . . .
80(5) . . .
81(5) . . .
76(5) . . .
63(4) . . .
90(5) . . .
83(5) . . .
89(5) . . .
81(5) . . .
73(5) . . .
81(5) . . .
75(5) . . .
81(5) . . .
81(5) . . .
71(4) . . .
87(5) . . .
77(5) . . .
88(5) . . .
91(5) . . .
77(5) . . .
77(5) . . .
80(5) . . .
85(5) . . .
78(5) . . .
75(5) . . .
76(5) . . .
73(5) . . .
75(5) . . .
78(5) . . .
78(5) . . .
85(5) . . .
85(5) . . .
74(5) . . .
78(5) . . .
83(5) . . .
82(5) . . .
78(5) . . .
82(5) . . .
86(5) . . .
88(5) . . .
79(5) . . .
90(5) . . .
89(5) . . .
75(5) . . .
85(5) . . .
81(5) . . .
92(5) . . .
72(5) . . .
88(5) . . .
80(5) . . .
65(4) . . .
81(5) . . .
78(5) . . .
73(5) . . .
66(4) . . .
73(5) . . .
74(5) . . .
80(5) . . .
69(4) . . .
65(4) . . .
78(5) . . .
75(5) . . .
76(5) . . .
76(5) . . .
76(5) . . .
72(4) . . .
84(5) . . .
79(5) . . .
80(5) . . .
78(5) . . .
73(4) . . .
78(5) . . .
88(5) . . .
77(5) . . .
78(5) . . .
71(4) . . .
81(5) . . .
80(5) . . .
73(4) . . .
70(4) . . .
86(5) . . .
76(5) . . .
68(4) . . .
74(4) . . .
87(5) . . .
70(4) . . .
80(5) . . .
88(5) . . .
62(4) . . .
68(4) . . .
83(5) . . .
78(5) . . .
76(5) . . .
77(5) . . .
71(5) . . .
75(5) . . .
76(5) . . .
80(5) . . .
76(5) . . .
78(5) . . .
81(5) . . .
84(5) . . .
68(4) . . .
76(5) . . .
88(5) . . .
78(5) . . .
79(5) . . .
91(5) . . .
83(5) . . .
81(5) . . .
82(5) . . .
77(5) . . .
84(5) . . .
90(5) . . .
82(5) . . .
74(5) . . .
67(4) . . .
71(4) . . .
83(5) . . .
70(4) . . .
81(5) . . .
87(5) . . .
68(4) . . .
80(5) . . .
78(5) . . .
81(5) . . .
77(5) . . .
79(5) . . .
70(4) . . .
72(5) . . .
79(5) . . .
79(5) . . .
77(5) . . .
76(5) . . .
72(5) . . .
76(5) . . .
73(5) . . .
85(5) . . .
92(5) . . .
89(5) . . .
82(5) . . .
89(5) . . .
76(5) . . .
80(5) . . .
74(5) . . .
85(5) . . .
82(5) . . .
75(4) . . .
76(5) . . .
73(5) . . .
70(4) . . .
69(5) . . .
75(5) . . .
75(5) . . .
76(5) . . .
78(5) . . .
69(4) . . .
70(4) . . .
75(5) . . .
78(5) . . .
85(5) . . .
80(5) . . .
69(4) . . .
71(5) . . .
67(4) . . .
70(4) . . .
69(4) . . .
74(4) . . .
71(5) . . .
84(5) . . .
83(5) . . .
83(5) . . .
85(5) . . .
79(5) . . .
83(5) . . .
76(5) . . .
72(4) . . .
77(5) . . .
74(5) . . .
78(5) . . .
73(5) . . .
75(5) . . .
80(5) . . .
74(5) . . .
75(5) . . .
76(5) . . .
68(4) . . .
70(4) . . .
85(5) . . .
68(4) . . .
78(5) . . .
76(5) . . .
72(4) . . .
86(5) . . .
76(5) . . .
86(5) . . .
80(5) . . .
80(5) . . .
81(5) . . .
83(5) . . .
78(5) . . .
86(5) . . .
70(4) . . .
75(5) . . .
85(5) . . .
78(5) . . .
64(4) . . .
74(5) . . .
74(5) . . .
82(5) . . .
70(4) . . .
82(5) . . .
73(5) . . .
70(4) . . .
79(5) . . .
72(4) . . .
81(5) . . .
81(5) . . .
66(4) . . .
73(5) . . .
82(5) . . .
90(5) . . .
82(5) . . .
82(5) . . .
71(4) . . .
64(4) . . .
65(4) . . .
78(5) . . .
84(5) . . .
91(5) . . .
94(5) . . .
74(4) . . .
65(4) . . .
74(5) . . .
76(5) . . .
65(4) . . .
79(5) . . .
75(5) . . .
78(5) . . .
77(5) . . .
74(4) . . .
85(5) . . .
81(5) . . .
73(5) . . .
72(5) . . .
77(5) . . .
71(4) . . .
79(5) . . .
95(5) . . .
81(5) . . .
91(5) . . .
72(4) . . .
70(4) . . .
87(5) . . .
86(5) . . .
82(5) . . .
71(5) . . .
67(4) . . .
84(5) . . .
86(5) . . .
89(5) . . .
73(5) . . .
78(5) . . .
71(4) . . .
71(4) . . .
77(5) . . .
75(5) . . .
64(4) . . .
75(5) . . .
83(5) . . .
84(5) . . .
79(5) . . .
78(5) . . .
70(4) . . .
70(4) . . .
73(5) . . .
61(4) . . .
79(5) . . .
78(5) . . .
83(5) . . .
80(5) . . .
74(5) . . .
81(5) . . .
91(5) . . .
93(5) . . .
82(5) . . .
83(5) . . .
74(5) . . .
86(5) . . .
70(4) . . .
75(5) . . .
85(5) . . .
85(5) . . .
82(5) . . .
79(5) . . .
75(5) . . .
70(4) . . .
79(5) . . .
67(4) . . .
80(5) . . .
74(5) . . .
69(5) . . .
69(5) . . .
63(4) . . .
71(4) . . .
76(5) . . .
64(4) . . .
74(5) . . .
71(4) . . .
74(4) . . .
82(5) . . .
81(5) . . .
78(5) . . .
72(4) . . .
78(5) . . .
82(5) . . .
80(5) . . .
92(5) . . .
70(4) . . .
69(4) . . .
82(5) . . .
82(5) . . .
77(5) . . .
75(4) . . .
91(5) . . .
72(4) . . .
79(5) . . .
87(5) . . .
74(4) . . .
72(4) . . .
64(4) . . .
66(4) . . .
65(4) . . .
71(4) . . .
75(5) . . .
75(5) . . .
72(5) . . .
72(5) . . .
78(5) . . .
69(4) . . .
66(4) . . .
70(5) . . .
75(5) . . .
82(5) . . .
76(5) . . .
80(5) . . .
77(5) . . .
77(5) . . .
86(5) . . .
82(5) . . .
77(5) . . .
67(4) . . .
64(4) . . .
81(5) . . .
87(5) . . .
72(5) . . .
86(5) . . .
75(5) . . .
67(4) . . .
82(5) . . .
74(5) . . .
74(5) . . .
71(4) . . .
91(5) . . .
64(4) . . .
68(5) . . .
82(5) . . .
83(5) . . .
82(5) . . .
78(5) . . .
77(5) . . .
84(5) . . .
83(5) . . .
70(4) . . .
80(5) . . .
79(5) . . .
91(5) . . .
78(5) . . .
73(4) . . .
73(5) . . .
85(5) . . .
68(4) . . .
68(4) . . .
67(4) . . .
68(4) . . .
76(5) . . .
81(5) . . .
81(5) . . .
82(5) . . .
69(4) . . .
70(5) . . .
75(5) . . .
82(5) . . .
76(5) . . .
82(5) . . .
75(5) . . .
81(5) . . .
66(4) . . .
69(4) . . .
77(5) . . .
68(4) . . .
86(5) . . .
78(5) . . .
73(5) . . .
77(5) . . .
69(4) . . .
73(4) . . .
72(4) . . .
74(5) . . .
75(5) . . .
72(4) . . .
78(5) . . .
76(5) . . .
68(4) . . .
81(5) . . .
81(5) . . .
83(5) . . .
77(5) . . .
79(5) . . .
87(5) . . .
83(5) . . .
80(5) . . .
89(5) . . .
77(5) . . .
83(5) . . .
75(5) . . .
77(4) . . .
85(5) . . .
86(5) . . .
77(5) . . .
79(5) . . .
76(4) . . .
88(5) . . .
78(5) . . .
67(5) . . .
78(5) . . .
68(4) . . .
68(4) . . .
67(4) . . .
77(5) . . .
84(5) . . .
84(5) . . .
78(5) . . .
80(5) . . .
66(4) . . .
71(5) . . .
78(5) . . .
82(5) . . .
74(5) . . .
77(5) . . .
70(4) . . .
77(5) . . .
76(5) . . .
80(5) . . .
78(5) . . .
83(5) . . .
84(5) . . .
72(4) . . .
65(4) . . .
69(4) . . .
83(5) . . .
81(5) . . .
75(5) . . .
67(4) . . .
78(5) . . .
79(5) . . .
67(4) . . .
91(5) . . .
80(5) . . .
81(5) . . .
77(5) . . .
75(4) . . .
81(5) . . .
77(5) . . .
82(5) . . .
85(5) . . .
83(5) . . .
69(4) . . .
75(5) . . .
73(5) . . .
72(4) . . .
79(5) . . .
77(5) . . .
76(5) . . .
71(5) . . .
71(4) . . .
70(4) . . .
78(5) . . .
67(5) . . .
67(4) . . .
71(4) . . .
80(5) . . .
72(5) . . .
64(4) . . .
70(4) . . .
62(4) . . .
71(5) . . .
71(4) . . .
83(5) . . .
66(4) . . .
64(4) . . .
78(5) . . .
71(4) . . .
80(5) . . .
84(5) . . .
88(5) . . .
92(5) . . .
81(5) . . .
76(5) . . .
72(4) . . .
76(5) . . .
73(5) . . .
71(4) . . .
82(5) . . .
74(5) . . .
74(4) . . .
67(4) . . .
75(5) . . .
67(4) . . .
79(5) . . .
72(4) . . .
69(5) . . .
67(5) . . .
83(5) . . .
74(4) . . .
76(5) . . .
70(5) . . .
80(5) . . .
84(5) . . .
80(5) . . .
73(4) . . .
73(5) . . .
79(5) . . .
82(5) . . .
72(4) . . .
79(5) . . .
74(4) . . .
81(5) . . .
75(5) . . .
69(4) . . .
74(5) . . .
66(4) . . .
85(5) . . .
71(5) . . .
70(4) . . .
72(5) . . .
69(4) . . .
71(5) . . .
80(5) . . .
87(5) . . .
70(5) . . .
89(6) . . .
74(5) . . .
65(4) . . .
73(4) . . .
68(4) . . .
73(5) . . .
62(4) . . .
85(5) . . .
82(5) . . .
73(5) . . .
83(5) . . .
74(5) . . .
77(5) . . .
79(5) . . .
70(4) . . .
68(5) . . .
76(5) . . .
76(4) . . .
70(4) . . .
65(4) . . .
76(5) . . .
73(5) . . .
73(4) . . .
68(4) . . .
76(5) . . .
81(5) . . .
73(5) . . .
64(4) . . .
75(5) . . .
78(5) . . .
80(5) . . .
82(5) . . .
69(4) . . .
77(5) . . .
77(5) . . .
72(5) . . .
74(5) . . .
79(5) . . .
66(4) . . .
72(5) . . .
70(5) . . .
60(4) . . .
73(4) . . .
83(5) . . .
82(5) . . .
73(5) . . .
70(4) . . .
73(4) . . .
78(5) . . .
78(5) . . .
66(4) . . .
70(4) . . .
61(4) . . .
69(5) . . .
73(5) . . .
74(5) . . .
72(4) . . .
78(5) . . .
75(5) . . .
82(5) . . .
79(5) . . .
80(5) . . .
78(5) . . .
77(5) . . .
70(5) . . .
64(4) . . .
84(5) . . .
79(5) . . .
72(5) . . .
68(5) . . .
69(4) . . .
90(5) . . .
80(5) . . .
70(4) . . .
91(5) . . .
76(5) . . .
71(4) . . .
71(4) . . .
77(5) . . .
66(4) . . .
79(5) . . .
72(4) . . .
72(4) . . .
69(4) . . .
82(5) . . .
80(5) . . .
67(4) . . .
73(5) . . .
76(5) . . .
79(5) . . .
79(5) . . .
72(4) . . .
73(5) . . .
78(5) . . .
66(4) . . .
71(4) . . .
65(4) . . .
82(5) . . .
79(5) . . .
71(4) . . .
91(5) . . .
74(4) . . .
73(5) . . .
74(5) . . .
82(5) . . .
79(5) . . .
75(4) . . .
77(5) . . .
70(4) . . .
76(5) . . .
74(5) . . .
75(4) . . .
77(5) . . .
79(5) . . .
77(5) . . .
74(4) . . .
76(4) . . .
66(4) . . .
71(5) . . .
67(4) . . .
73(4) . . .
69(4) . . .
62(4) . . .
75(5) . . .
66(4) . . .
75(5) . . .
69(5) . . .
69(5) . . .
66(4) . . .
81(5) . . .
69(4) . . .
85(5) . . .
76(5) . . .
77(5) . . .
85(5) . . .
78(5) . . .
80(5) . . .
74(5) . . .
69(5) . . .
63(4) . . .
60(4) . . .
71(4) . . .
80(5) . . .
67(4) . . .
77(5) . . .
73(4) . . .
80(5) . . .
71(4) . . .
76(5) . . .
80(5) . . .
77(5) . . .
62(4) . . .
72(5) . . .
64(4) . . .
72(5) . . .
70(4) . . .
61(4) . . .
68(5) . . .
76(5) . . .
76(5) . . .
76(5) . . .
68(4) . . .
76(5) . . .
71(5) . . .
76(5) . . .
67(4) . . .
78(5) . . .
80(5) . . .
82(5) . . .
67(4) . . .
67(4) . . .
70(4) . . .
67(5) . . .
73(5) . . .
77(5) . . .
74(4) . . .
66(4) . . .
74(5) . . .
67(4) . . .
75(4) . . .
78(5) . . .
75(5) . . .
67(5) . . .
75(5) . . .
66(4) . . .
76(5) . . .
73(5) . . .
71(5) . . .
67(4) . . .
62(4) . . .
64(4) . . .
71(5) . . .
73(5) . . .
71(5) . . .
77(5) . . .
73(4) . . .
78(5) . . .
69(4) . . .
72(5) . . .
71(4) . . .
81(5) . . .
79(5) . . .
70(4) . . .
77(5) . . .
89(5) . . .
75(5) . . .
77(5) . . .
78(5) . . .
69(4) . . .
78(5) . . .
76(5) . . .
72(5) . . .
65(4) . . .
67(4) . . .
66(4) . . .
62(4) . . .
76(5) . . .
71(4) . . .
75(5) . . .
78(5) . . .
66(4) . . .
72(5) . . .
70(4) . . .
63(4) . . .
80(5) . . .
68(4) . . .
68(4) . . .
73(5) . . .
70(4) . . .
68(4) . . .
77(5) . . .
72(5) . . .
81(5) . . .
75(4) . . .
72(4) . . .
73(5) . . .
69(5) . . .
73(5) . . .
73(4) . . .
62(4) . . .
67(4) . . .
59(4) . . .
66(4) . . .
70(4) . . .
63(4) . . .
62(4) . . .
73(5) . . .
64(4) . . .
60(4) . . .
78(5) . . .
67(4) . . .
70(5) . . .
73(5) . . .
75(5) . . .
74(5) . . .
66(4) . . .
70(4) . . .
78(5) . . .
71(4) . . .
64(4) . . .
73(5) . . .
84(5) . . .
76(5) . . .
82(5) . . .
69(4) . . .
62(4) . . .
76(5) . . .
66(4) . . .
73(5) . . .
69(4) . . .
75(5) . . .
74(5) . . .
69(4) . . .
83(5) . . .
73(5) . . .
79(5) . . .
70(4) . . .
77(5) . . .
74(5) . . .
71(4) . . .
83(5) . . .
73(5) . . .
72(4) . . .
78(5) . . .
75(5) . . .
70(5) . . .
84(5) . . .
77(5) . . .
71(5) . . .
80(5) . . .
75(5) . . .
74(5) . . .
80(5) . . .
68(4) . . .
75(5) . . .
84(5) . . .
78(5) . . .
71(4) . . .
86(5) . . .
64(4) . . .
61(4) . . .
82(5) . . .
89(5) . . .
81(5) . . .
72(5) . . .
81(5) . . .
81(5) . . .
69(4) . . .
67(5) . . .
68(5) . . .
68(4) . . .
76(5) . . .
75(4) . . .
81(5) . . .
72(5) . . .
67(4) . . .
67(4) . . .
72(4) . . .
54(4) . . .
63(4) . . .
59(4) . . .
70(4) . . .
74(4) . . .
72(4) . . .
80(5) . . .
66(4) . . .
62(4) . . .
76(5) . . .
80(5) . . .
72(5) . . .
82(5) . . .
72(4) . . .
85(5) . . .
75(5) . . .
79(5) . . .
80(5) . . .
75(5) . . .
71(4) . . .
77(5) . . .
85(5) . . .
78(5) . . .
81(5) . . .
70(4) . . .
74(5) . . .
82(5) . . .
79(5) . . .
58(4) . . .
77(5) . . .
69(4) . . .
65(4) . . .
75(5) . . .
75(5) . . .
85(5) . . .
65(4) . . .
61(4) . . .
66(4) . . .
78(5) . . .
73(5) . . .
72(5) . . .
66(4) . . .
62(4) . . .
68(4) . . .
76(5) . . .
70(5) . . .
82(5) . . .
62(4) . . .
72(4) . . .
69(4) . . .
66(5) . . .
55(4) . . .
77(5) . . .
77(5) . . .
73(5) . . .
74(5) . . .
86(5) . . .
77(5) . . .
67(4) . . .
73(5) . . .
65(4) . . .
67(4) . . .
75(4) . . .
75(4) . . .
76(5) . . .
82(5) . . .
65(4) . . .
77(5) . . .
79(5) . . .
71(4) . . .
75(5) . . .
74(5) . . .
73(4) . . .
68(4) . . .
68(5) . . .
85(5) . . .
69(5) . . .
70(4) . . .
69(4) . . .
78(5) . . .
69(5) . . .
78(5) . . .
68(4) . . .
87(5) . . .
67(4) . . .
76(5) . . .
70(4) . . .
63(4) . . .
72(5) . . .
84(5) . . .
64(4) . . .
76(5) . . .
66(4) . . .
68(4) . . .
69(5) . . .
72(5) . . .
71(4) . . .
76(5) . . .
76(5) . . .
67(5) . . .
79(5) . . .
70(4) . . .
60(4) . . .
69(5) . . .
80(5) . . .
70(5) . . .
74(5) . . .
66(4) . . .
72(5) . . .
81(5) . . .
74(5) . . .
88(5) . . .
67(4) . . .
57(4) . . .
65(5) . . .
67(4) . . .
70(4) . . .
71(5) . . .
67(5) . . .
71(5) . . .
80(5) . . .
81(5) . . .
72(4) . . .
79(5) . . .
84(5) . . .
60(4) . . .
78(5) . . .
71(4) . . .
66(4) . . .
69(4) . . .
74(4) . . .
68(4) . . .
74(4) . . .
66(4) . . .
75(5) . . .
71(5) . . .
70(4) . . .
76(5) . . .
77(5) . . .
75(5) . . .
68(4) . . .
82(5) . . .
70(4) . . .
74(5) . . .
73(5) . . .
81(5) . . .
79(5) . . .
72(5) . . .
73(5) . . .
86(5) . . .
68(4) . . .
75(4) . . .
69(4) . . .
78(5) . . .
58(4) . . .
60(4) . . .
61(4) . . .
74(5) . . .
64(4) . . .
68(4) . . .
72(4) . . .
75(5) . . .
74(5) . . .
65(4) . . .
74(5) . . .
67(4) . . .
62(4) . . .
65(5) . . .
72(5) . . .
67(4) . . .
77(5) . . .
66(4) . . .
75(5) . . .
72(5) . . .
71(4) . . .
78(5) . . .
70(4) . . .
74(5) . . .
70(4) . . .
76(5) . . .
73(4) . . .
65(4) . . .
78(5) . . .
73(5) . . .
76(5) . . .
67(4) . . .
66(4) . . .
65(4) . . .
70(5) . . .
81(5) . . .
84(5) . . .
67(4) . . .
53(4) . . .
79(5) . . .
77(5) . . .
70(4) . . .
75(5) . . .
70(4) . . .
75(5) . . .
60(4) . . .
76(5) . . .
63(4) . . .
63(4) . . .
73(5) . . .
81(5) . . .
75(5) . . .
68(5) . . .
67(5) . . .
72(5) . . .
81(5) . . .
73(4) . . .
77(5) . . .
67(5) . . .
79(5) . . .
81(5) . . .
60(4) . . .
77(5) . . .
78(5) . . .
81(5) . . .
76(5) . . .
71(5) . . .
76(5) . . .
74(5) . . .
74(5) . . .
69(4) . . .
58(4) . . .
76(5) . . .
66(5) . . .
65(4) . . .
65(4) . . .
72(5) . . .
76(5) . . .
73(5) . . .
77(5) . . .
77(5) . . .
64(4) . . .
70(5) . . .
78(5) . . .
65(4) . . .
67(4) . . .
75(5) . . .
78(5) . . .
69(4) . . .
79(5) . . .
63(4) . . .
76(5) . . .
70(5) . . .
63(4) . . .
68(4) . . .
69(4) . . .
75(5) . . .
76(5) . . .
62(4) . . .
64(4) . . .
70(4) . . .
66(4) . . .
74(5) . . .
68(4) . . .
59(4) . . .
68(4) . . .
81(5) . . .
72(5) . . .
66(4) . . .
74(4) . . .
76(4) . . .
71(5) . . .
58(4) . . .
72(5) . . .
57(4) . . .
64(4) . . .
75(5) . . .
65(4) . . .
76(5) . . .
61(4) . . .
69(4) . . .
83(5) . . .
84(5) . . .
75(5) . . .
74(4) . . .
66(4) . . .
70(5) . . .
68(4) . . .
64(4) . . .
83(5) . . .
66(4) . . .
66(4) . . .
82(5) . . .
61(4) . . .
64(4) . . .
76(5) . . .
73(5) . . .
90(5) . . .
66(4) . . .
67(4) . . .
55(4) . . .
73(5) . . .
81(5) . . .
76(5) . . .
66(4) . . .
68(5) . . .
74(5) . . .
62(4) . . .
72(5) . . .
71(4) . . .
64(4) . . .
71(5) . . .
72(5) . . .
69(4) . . .
65(4) . . .
66(4) . . .
69(5) . . .
72(5) . . .
73(4) . . .
59(4) . . .
63(4) . . .
74(5) . . .
65(4) . . .
73(4) . . .
70(4) . . .
74(5) . . .
69(5) . . .
70(4) . . .
65(4) . . .
73(5) . . .
76(5) . . .
75(5) . . .
76(5) . . .
68(4) . . .
73(5) . . .
62(4) . . .
64(4) . . .
63(4) . . .
68(4) . . .
60(4) . . .
67(4) . . .
72(5) . . .
59(4) . . .
68(4) . . .
74(5) . . .
65(4) . . .
79(5) . . .
82(5) . . .
70(4) . . .
72(5) . . .
70(5) . . .
76(5) . . .
65(4) . . .
67(4) . . .
79(5) . . .
65(5) . . .
58(4) . . .
63(4) . . .
62(4) . . .
72(5) . . .
67(5) . . .
57(4) . . .
72(4) . . .
72(4) . . .
60(4) . . .
59(4) . . .
65(4) . . .
74(4) . . .
72(4) . . .
60(4) . . .
67(5) . . .
62(4) . . .
71(5) . . .
64(4) . . .
68(4) . . .
59(4) . . .
74(5) . . .
72(4) . . .
90(5) . . .
68(4) . . .
72(5) . . .
73(5) . . .
75(4) . . .
72(5) . . .
84(5) . . .
80(5) . . .
67(4) . . .
71(4) . . .
77(5) . . .
70(5) . . .
67(4) . . .
56(4) . . .
63(4) . . .
69(4) . . .
70(5) . . .
67(5) . . .
70(4) . . .
62(4) . . .
75(5) . . .
69(5) . . .
67(5) . . .
62(4) . . .
73(4) . . .
65(4) . . .
60(4) . . .
73(5) . . .
61(4) . . .
70(4) . . .
70(5) . . .
67(4) . . .
79(5) . . .
72(4) . . .
69(4) . . .
70(5) . . .
59(4) . . .
64(4) . . .
77(5) . . .
71(4) . . .
67(4) . . .
76(5) . . .
59(4) . . .
63(4) . . .
63(4) . . .
67(4) . . .
64(4) . . .
69(4) . . .
73(4) . . .
67(4) . . .
65(4) . . .
61(4) . . .
62(4) . . .
68(4) . . .
67(4) . . .
70(5) . . .
71(5) . . .
73(5) . . .
70(4) . . .
64(4) . . .
73(5) . . .
69(5) . . .
77(5) . . .
69(4) . . .
70(4) . . .
72(5) . . .
68(4) . . .
73(4) . . .
64(4) . . .
69(4) . . .
64(4) . . .
69(5) . . .
61(4) . . .
71(4) . . .
72(5) . . .
68(4) . . .
73(5) . . .
54(4) . . .
73(4) . . .
75(5) . . .
72(5) . . .
65(4) . . .
62(4) . . .
66(4) . . .
59(4) . . .
67(4) . . .
81(5) . . .
63(4) . . .
58(4) . . .
76(5) . . .
66(5) . . .
68(4) . . .
84(5) . . .
63(4) . . .
59(4) . . .
59(4) . . .
65(4) . . .
60(4) . . .
72(4) . . .
65(4) . . .
64(5) . . .
64(4) . . .
62(4) . . .
62(4) . . .
62(4) . . .
73(5) . . .
66(4) . . .
61(4) . . .
71(5) . . .
64(4) . . .
69(4) . . .
61(4) . . .
55(4) . . .
59(4) . . .
60(4) . . .
68(5) . . .
75(5) . . .
66(4) . . .
66(4) . . .
71(5) . . .
78(5) . . .
64(4) . . .
72(4) . . .
70(4) . . .
66(4) . . .
59(4) . . .
71(4) . . .
65(4) . . .
61(4) . . .
72(5) . . .
75(5) . . .
73(4) . . .
70(4) . . .
61(4) . . .
58(4) . . .
83(5) . . .
71(4) . . .
69(4) . . .
68(5) . . .
67(5) . . .
79(5) . . .
72(4) . . .
65(4) . . .
59(4) . . .
67(5) . . .
71(5) . . .
75(5) . . .
61(4) . . .
67(4) . . .
71(5) . . .
77(5) . . .
68(4) . . .
63(4) . . .
58(4) . . .
76(5) . . .
71(5) . . .
65(4) . . .
66(4) . . .
74(5) . . .
69(5) . . .
71(5) . . .
66(4) . . .
77(5) . . .
92(5) . . .
66(4) . . .
71(4) . . .
81(5) . . .
75(5) . . .
77(5) . . .
59(4) . . .
63(4) . . .
77(5) . . .
65(4) . . .
62(4) . . .
70(5) . . .
68(4) . . .
60(4) . . .
76(5) . . .
73(5) . . .
75(5) . . .
73(5) . . .
61(4) . . .
60(4) . . .
65(4) . . .
72(4) . . .
73(4) . . .
73(4) . . .
71(4) . . .
57(4) . . .
69(4) . . .
72(4) . . .
65(4) . . .
62(4) . . .
67(4) . . .
72(5) . . .
55(4) . . .
79(5) . . .
60(4) . . .
69(5) . . .
71(5) . . .
63(4) . . .
75(5) . . .
57(4) . . .
73(5) . . .
76(5) . . .
77(5) . . .
67(4) . . .
71(5) . . .
72(5) . . .
74(5) . . .
61(4) . . .
60(4) . . .
63(4) . . .
78(5) . . .
64(4) . . .
72(4) . . .
74(4) . . .
81(5) . . .
74(5) . . .
72(4) . . .
65(4) . . .
71(5) . . .
64(4) . . .
65(4) . . .
77(5) . . .
78(5) . . .
68(4) . . .
71(5) . . .
65(4) . . .
74(5) . . .
63(4) . . .
64(4) . . .
78(5) . . .
71(5) . . .
63(4) . . .
73(4) . . .
76(5) . . .
81(5) . . .
56(4) . . .
75(5) . . .
68(4) . . .
61(4) . . .
53(4) . . .
68(4) . . .
65(4) . . .
65(4) . . .
69(4) . . .
78(5) . . .
68(4) . . .
72(4) . . .
67(4) . . .
73(5) . . .
70(4) . . .
80(5) . . .
69(4) . . .
59(4) . . .
75(5) . . .
77(5) . . .
61(4) . . .
69(4) . . .
60(4) . . .
68(4) . . .
65(4) . . .
68(4) . . .
68(4) . . .
70(5) . . .
74(5) . . .
55(4) . . .
73(5) . . .
73(4) . . .
64(4) . . .
75(5) . . .
68(5) . . .
62(4) . . .
72(4) . . .
63(4) . . .
60(4) . . .
69(5) . . .
76(5) . . .
71(4) . . .
75(5) . . .
59(4) . . .
70(4) . . .
71(4) . . .
57(4) . . .
61(4) . . .
65(4) . . .
66(4) . . .
68(4) . . .
61(4) . . .
55(4) . . .
73(5) . . .
70(5) . . .
70(4) . . .
54(4) . . .
69(4) . . .
72(5) . . .
65(4) . . .
60(4) . . .
55(4) . . .
72(5) . . .
68(4) . . .
69(4) . . .
68(4) . . .
65(4) . . .
68(4) . . .
63(4) . . .
59(4) . . .
71(4) . . .
59(4) . . .
66(4) . . .
74(5) . . .
73(4) . . .
68(4) . . .
71(5) . . .
69(5) . . .
56(4) . . .
67(4) . . .
64(4) . . .
71(5) . . .
72(5) . . .
65(4) . . .
64(4) . . .
61(4) . . .
69(4) . . .
67(5) . . .
61(4) . . .
61(4) . . .
72(5) . . .
66(4) . . .
65(4) . . .
63(4) . . .
61(4) . . .
64(4) . . .
69(4) . . .
66(5) . . .
65(4) . . .
68(4) . . .
61(4) . . .
59(4) . . .
73(5) . . .
75(5) . . .
68(4) . . .
68(4) . . .
70(4) . . .
67(4) . . .
64(4) . . .
59(4) . . .
63(4) . . .
64(4) . . .
73(5) . . .
61(4) . . .
54(4) . . .
62(4) . . .
74(5) . . .
72(5) . . .
67(4) . . .
63(4) . . .
71(5) . . .
60(4) . . .
64(4) . . .
67(4) . . .
71(4) . . .
65(4) . . .
65(4) . . .
80(5) . . .
63(4) . . .
57(4) . . .
68(4) . . .
66(4) . . .
61(4) . . .
70(4) . . .
64(4) . . .
75(5) . . .
62(4) . . .
69(5) . . .
61(4) . . .
65(4) . . .
73(5) . . .
71(5) . . .
67(4) . . .
59(4) . . .
64(4) . . .
61(4) . . .
62(4) . . .
67(4) . . .
73(4) . . .
74(4) . . .
67(4) . . .
73(5) . . .
62(4) . . .
79(5) . . .
73(4) . . .
70(4) . . .
64(4) . . .
72(4) . . .
75(4) . . .
71(4) . . .
70(5) . . .
63(4) . . .
64(4) . . .
67(4) . . .
63(4) . . .
60(4) . . .
59(4) . . .
71(5) . . .
61(4) . . .
68(4) . . .
70(4) . . .
69(5) . . .
65(4) . . .
60(4) . . .
57(4) . . .
57(4) . . .
54(4) . . .
60(4) . . .
65(4) . . .
64(4) . . .
67(4) . . .
67(5) . . .
59(4) . . .
78(5) . . .
72(5) . . .
64(4) . . .
62(4) . . .
63(4) . . .
61(4) . . .
63(4) . . .
67(4) . . .
73(4) . . .
75(4) . . .
59(4) . . .
56(4) . . .
65(5) . . .
67(4) . . .
49(4) . . .
69(4) . . .
73(5) . . .
62(4) . . .
65(4) . . .
55(4) . . .
60(4) . . .
52(4) . . .
69(5) . . .
64(4) . . .
70(4) . . .
67(4) . . .
71(5) . . .
60(4) . . .
56(4) . . .
63(4) . . .
63(4) . . .
74(5) . . .
64(5) . . .
57(4) . . .
65(4) . . .
63(4) . . .
79(5) . . .
74(5) . . .
60(4) . . .
57(4) . . .
64(4) . . .
70(5) . . .
63(4) . . .
68(5) . . .
66(4) . . .
66(4) . . .
80(5) . . .
73(5) . . .
63(4) . . .
75(5) . . .
62(4) . . .
69(5) . . .
64(4) . . .
68(4) . . .
67(4) . . .
61(4) . . .
69(5) . . .
73(5) . . .
62(4) . . .
58(4) . . .
68(4) . . .
70(5) . . .
70(5) . . .
66(4) . . .
65(4) . . .
57(4) . . .
59(4) . . .
68(5) . . .
70(4) . . .
60(4) . . .
65(4) . . .
68(5) . . .
65(4) . . .
56(4) . . .
58(4) . . .
62(4) . . .
72(5) . . .
67(4) . . .
75(5) . . .
75(5) . . .
70(4) . . .
70(5) . . .
70(4) . . .
59(4) . . .
65(4) . . .
77(5) . . .
63(4) . . .
70(5) . . .
61(4) . . .
63(4) . . .
61(4) . . .
56(4) . . .
72(4) . . .
67(4) . . .
68(4) . . .
73(5) . . .
55(4) . . .
65(4) . . .
65(4) . . .
55(4) . . .
59(4) . . .
72(5) . . .
63(4) . . .
62(4) . . .
51(4) . . .
65(5) . . .
66(4) . . .
73(5) . . .
64(4) . . .
65(4) . . .
67(4) . . .
77(5) . . .
69(4) . . .
65(4) . . .
67(4) . . .
73(5) . . .
76(5) . . .
68(4) . . .
54(4) . . .
56(4) . . .
68(5) . . .
61(4) . . .
62(4) . . .
61(4) . . .
57(4) . . .
69(5) . . .
67(4) . . .
64(4) . . .
72(4) . . .
53(4) . . .
62(4) . . .
59(4) . . .
71(4) . . .
63(4) . . .
60(4) . . .
67(4) . . .
67(4) . . .
58(4) . . .
56(4) . . .
60(4) . . .
61(4) . . .
60(4) . . .
72(4) . . .
72(5) . . .
63(4) . . .
59(4) . . .
57(4) . . .
64(4) . . .
67(4) . . .
75(5) . . .
70(4) . . .
54(4) . . .
71(4) . . .
65(4) . . .
68(5) . . .
63(4) . . .
69(4) . . .
65(4) . . .
55(4) . . .
68(5) . . .
54(4) . . .
62(4) . . .
67(4) . . .
60(4) . . .
65(4) . . .
63(4) . . .
57(4) . . .
66(4) . . .
62(4) . . .
70(5) . . .
69(4) . . .
73(4) . . .
66(4) . . .
64(4) . . .
63(4) . . .
64(4) . . .
62(4) . . .
59(4) . . .
65(4) . . .
73(5) . . .
73(4) . . .
73(4) . . .
67(4) . . .
60(4) . . .
66(5) . . .
54(4) . . .
52(4) . . .
61(4) . . .
66(4) . . .
70(5) . . .
63(4) . . .
64(4) . . .
70(4) . . .
65(4) . . .
66(4) . . .
75(5) . . .
76(5) . . .
64(4) . . .
73(5) . . .
62(4) . . .
73(4) . . .
60(4) . . .
52(4) . . .
62(4) . . .
64(4) . . .
74(5) . . .
70(4) . . .
64(4) . . .
61(4) . . .
70(5) . . .
61(4) . . .
58(4) . . .
75(5) . . .
65(4) . . .
73(5) . . .
76(5) . . .
68(4) . . .
64(4) . . .
58(4) . . .
55(4) . . .
60(4) . . .
70(4) . . .
65(5) . . .
62(4) . . .
69(4) . . .
55(4) . . .
61(4) . . .
59(4) . . .
57(4) . . .
68(5) . . .
68(4) . . .
69(4) . . .
60(4) . . .
68(5) . . .
68(4) . . .
72(4) . . .
67(4) . . .
56(4) . . .
67(4) . . .
76(5) . . .
62(4) . . .
69(4) . . .
66(4) . . .
65(4) . . .
66(4) . . .
67(4) . . .
64(4) . . .
73(5) . . .
73(5) . . .
67(4) . . .
72(4) . . .
69(5) . . .
62(4) . . .
78(5) . . .
76(5) . . .
60(4) . . .
50(4) . . .
70(5) . . .
58(4) . . .
70(4) . . .
57(4) . . .
54(4) . . .
55(4) . . .
66(4) . . .
65(4) . . .
62(4) . . .
71(4) . . .
63(4) . . .
72(5) . . .
75(5) . . .
72(4) . . .
64(4) . . .
68(5) . . .
63(4) . . .
61(4) . . .
72(4) . . .
71(5) . . .
59(4) . . .
63(4) . . .
63(4) . . .
70(4) . . .
64(4) . . .
53(4) . . .
58(4) . . .
68(4) . . .
69(4) . . .
67(4) . . .
64(4) . . .
56(4) . . .
69(4) . . .
60(4) . . .
58(4) . . .
60(4) . . .
68(4) . . .
66(4) . . .
74(5) . . .
63(4) . . .
50(4) . . .
57(4) . . .
58(4) . . .
70(5) . . .
70(5) . . .
63(4) . . .
72(4) . . .
72(4) . . .
54(4) . . .
53(4) . . .
72(5) . . .
56(4) . . .
56(4) . . .
71(5) . . .
69(5) . . .
70(4) . . .
66(4) . . .
73(4) . . .
72(4) . . .
65(4) . . .
68(5) . . .
61(4) . . .
64(4) . . .
75(5) . . .
63(4) . . .
76(5) . . .
64(4) . . .
60(4) . . .
59(4) . . .
63(4) . . .
74(5) . . .
67(4) . . .
66(4) . . .
84(5) . . .
72(5) . . .
59(4) . . .
59(4) . . .
71(4) . . .
68(4) . . .
64(4) . . .
64(4) . . .
76(5) . . .
67(4) . . .
65(4) . . .
52(4) . . .
70(4) . . .
66(4) . . .
58(4) . . .
71(5) . . .
59(4) . . .
56(4) . . .
56(4) . . .
58(4) . . .
64(4) . . .
59(4) . . .
63(4) . . .
71(4) . . .
46(4) . . .
52(4) . . .
59(4) . . .
59(4) . . .
70(4) . . .
63(4) . . .
64(4) . . .
67(4) . . .
61(4) . . .
59(4) . . .
56(4) . . .
58(4) . . .
55(4) . . .
63(4) . . .
63(4) . . .
57(4) . . .
68(4) . . .
72(4) . . .
76(4) . . .
55(4) . . .
64(4) . . .
66(5) . . .
53(4) . . .
65(4) . . .
66(4) . . .
67(4) . . .
61(4) . . .
65(5) . . .
61(4) . . .
67(4) . . .
63(4) . . .
66(4) . . .
63(4) . . .
63(4) . . .
61(4) . . .
60(4) . . .
60(4) . . .
65(4) . . .
63(4) . . .
63(4) . . .
64(4) . . .
79(5) . . .
50(4) . . .
69(4) . . .
71(5) . . .
69(4) . . .
80(5) . . .
60(4) . . .
66(4) . . .
58(4) . . .
68(4) . . .
64(4) . . .
69(5) . . .
74(4) . . .
68(4) . . .
66(4) . . .
68(5) . . .
59(4) . . .
65(4) . . .
68(4) . . .
72(5) . . .
65(4) . . .
78(5) . . .
77(5) . . .
55(4) . . .
61(4) . . .
66(4) . . .
61(4) . . .
70(4) . . .
70(5) . . .
55(4) . . .
58(4) . . .
75(4) . . .
58(4) . . .
58(4) . . .
67(4) . . .
63(4) . . .
67(4) . . .
67(4) . . .
56(4) . . .
61(4) . . .
59(4) . . .
63(4) . . .
67(5) . . .
65(4) . . .
69(5) . . .
72(4) . . .
80(5) . . .
72(5) . . .
62(4) . . .
67(4) . . .
64(4) . . .
57(4) . . .
64(4) . . .
65(4) . . .
58(4) . . .
59(4) . . .
65(4) . . .
63(4) . . .
66(4) . . .
69(4) . . .
71(5) . . .
64(4) . . .
60(4) . . .
59(4) . . .
58(4) . . .
60(4) . . .
76(5) . . .
60(4) . . .
58(4) . . .
57(4) . . .
49(4) . . .
68(4) . . .
57(4) . . .
49(4) . . .
62(4) . . .
50(4) . . .
59(4) . . .
63(4) . . .
60(4) . . .
66(4) . . .
66(4) . . .
73(4) . . .
75(5) . . .
62(4) . . .
63(4) . . .
60(4) . . .
62(4) . . .
61(4) . . .
66(4) . . .
68(5) . . .
59(4) . . .
63(4) . . .
74(5) . . .
57(4) . . .
63(4) . . .
63(4) . . .
67(5) . . .
58(4) . . .
62(4) . . .
61(4) . . .
55(4) . . .
66(4) . . .
54(4) . . .
70(5) . . .
57(4) . . .
62(4) . . .
65(4) . . .
63(4) . . .
65(4) . . .
65(4) . . .
71(4) . . .
59(4) . . .
54(4) . . .
60(4) . . .
72(5) . . .
52(4) . . .
59(4) . . .
67(4) . . .
66(4) . . .
66(4) . . .
72(4) . . .
52(4) . . .
59(5) . . .
50(4) . . .
63(4) . . .
66(4) . . .
67(4) . . .
55(4) . . .
66(4) . . .
59(4) . . .
61(4) . . .
51(4) . . .
69(5) . . .
57(4) . . .
71(4) . . .
67(4) . . .
67(4) . . .
60(4) . . .
66(4) . . .
47(4) . . .
52(4) . . .
58(4) . . .
62(4) . . .
65(4) . . .
70(4) . . .
55(4) . . .
58(4) . . .
54(4) . . .
61(4) . . .
60(4) . . .
65(4) . . .
59(4) . . .
56(4) . . .
60(4) . . .
65(4) . . .
70(4) . . .
64(4) . . .
65(4) . . .
64(4) . . .
66(4) . . .
51(4) . . .
50(4) . . .
65(4) . . .
71(5) . . .
62(4) . . .
72(5) . . .
60(4) . . .
54(4) . . .
64(4) . . .
70(4) . . .
68(4) . . .
66(5) . . .
68(5) . . .
66(4) . . .
60(4) . . .
67(5) . . .
66(5) . . .
62(4) . . .
64(4) . . .
55(4) . . .
63(4) . . .
54(4) . . .
64(4) . . .
51(4) . . .
60(4) . . .
60(4) . . .
59(4) . . .
59(4) . . .
61(4) . . .
72(5) . . .
59(4) . . .
64(4) . . .
70(4) . . .
67(4) . . .
57(4) . . .
63(4) . . .
61(4) . . .
55(4) . . .
56(4) . . .
58(4) . . .
72(5) . . .
56(4) . . .
56(4) . . .
64(4) . . .
53(4) . . .
55(4) . . .
61(4) . . .
67(4) . . .
60(4) . . .
59(4) . . .
75(5) . . .
77(5) . . .
65(4) . . .
69(4) . . .
61(4) . . .
65(4) . . .
66(5) . . .
61(4) . . .
63(4) . . .
64(4) . . .
60(4) . . .
64(5) . . .
60(4) . . .
65(4) . . .
66(4) . . .
59(4) . . .
58(4) . . .
61(4) . . .
66(4) . . .
84(5) . . .
63(4) . . .
73(5) . . .
61(4) . . .
59(4) . . .
68(5) . . .
65(4) . . .
71(4) . . .
62(4) . . .
52(4) . . .
65(5) . . .
61(4) . . .
62(4) . . .
66(4) . . .
65(4) . . .
70(4) . . .
69(5) . . .
67(4) . . .
59(4) . . .
70(4) . . .
67(4) . . .
64(4) . . .
59(4) . . .
57(4) . . .
63(4) . . .
66(4) . . .
66(4) . . .
67(4) . . .
62(4) . . .
64(4) . . .
58(4) . . .
60(4) . . .
60(4) . . .
48(4) . . .
60(4) . . .
67(5) . . .
55(4) . . .
57(4) . . .
45.2(35) . . .
64(4) . . .
65(4) . . .
54(4) . . .
67(4) . . .
60(4) . . .
61(4) . . .
72(5) . . .
63(4) . . .
61(4) . . .
64(4) . . .
65(4) . . .
65(4) . . .
62(4) . . .
69(4) . . .
60(4) . . .
64(4) . . .
67(5) . . .
72(5) . . .
65(4) . . .
64(4) . . .
65(4) . . .
70(5) . . .
57(4) . . .
60(4) . . .
60(4) . . .
63(4) . . .
57(4) . . .
53(4) . . .
59(4) . . .
72(5) . . .
55(4) . . .
61(4) . . .
65(4) . . .
59(4) . . .
67(4) . . .
67(4) . . .
61(4) . . .
61(4) . . .
55(4) . . .
60(4) . . .
65(4) . . .
64(4) . . .
67(4) . . .
61(4) . . .
62(4) . . .
58(4) . . .
61(4) . . .
62(4) . . .
62(4) . . .
60(4) . . .
63(5) . . .
54(4) . . .
60(4) . . .
50(4) . . .
59(4) . . .
58(4) . . .
72(4) . . .
68(4) . . .
78(5) . . .
61(4) . . .
72(5) . . .
56(4) . . .
64(4) . . .
69(4) . . .
48(4) . . .
57(4) . . .
67(4) . . .
69(4) . . .
71(4) . . .
72(5) . . .
57(4) . . .
57(4) . . .
68(4) . . .
68(4) . . .
61(4) . . .
68(5) . . .
55(4) . . .
59(4) . . .
68(4) . . .
63(4) . . .
60(4) . . .
67(4) . . .
65(4) . . .
60(4) . . .
67(4) . . .
71(5) . . .
61(4) . . .
80(5) . . .
67(4) . . .
61(4) . . .
66(4) . . .
69(4) . . .
69(4) . . .
71(5) . . .
75(5) . . .
63(4) . . .
61(4) . . .
63(4) . . .
71(5) . . .
65(5) . . .
58(4) . . .
60(4) . . .
59(4) . . .
60(5) . . .
51(4) . . .
54(4) . . .
54(4) . . .
57(4) . . .
58(4) . . .
56(4) . . .
66(4) . . .
67(4) . . .
62(4) . . .
66(4) . . .
54(4) . . .
54(4) . . .
78(5) . . .
62(4) . . .
56(4) . . .
62(4) . . .
70(4) . . .
62(4) . . .
67(4) . . .
52(4) . . .
55(4) . . .
68(4) . . .
71(4) . . .
54(4) . . .
58(4) . . .
60(4) . . .
64(4) . . .
67(4) . . .
78(5) . . .
71(5) . . .
50(4) . . .
68(4) . . .
67(4) . . .
61(4) . . .
55(4) . . .
62(4) . . .
62(4) . . .
56(4) . . .
54(4) . . .
70(5) . . .
63(4) . . .
61(4) . . .
54(4) . . .
67(4) . . .
69(5) . . .
65(4) . . .
59(4) . . .
67(4) . . .
69(4) . . .
76(5) . . .
62(4) . . .
66(4) . . .
70(4) . . .
68(4) . . .
59(4) . . .
60(4) . . .
66(4) . . .
58(4) . . .
74(5) . . .
60(4) . . .
67(5) . . .
64(4) . . .
57(4) . . .
60(4) . . .
57(4) . . .
60(4) . . .
57(4) . . .
67(4) . . .
60(4) . . .
58(4) . . .
72(5) . . .
63(4) . . .
54(4) . . .
59(4) . . .
59(4) . . .
50(4) . . .
58(4) . . .
63(4) . . .
53(4) . . .
70(5) . . .
52(4) . . .
62(4) . . .
69(5) . . .
52(4) . . .
66(5) . . .
66(4) . . .
69(4) . . .
64(4) . . .
55(4) . . .
54(4) . . .
64(4) . . .
58(4) . . .
62(4) . . .
75(5) . . .
75(5) . . .
65(4) . . .
62(4) . . .
49(4) . . .
58(4) . . .
58(4) . . .
56(4) . . .
54(4) . . .
55(4) . . .
59(4) . . .
59(4) . . .
72(4) . . .
62(4) . . .
60(4) . . .
70(5) . . .
71(4) . . .
74(4) . . .
57(4) . . .
60(4) . . .
62(4) . . .
69(5) . . .
66(4) . . .
59(4) . . .
54(4) . . .
56(4) . . .
72(5) . . .
62(4) . . .
59(4) . . .
69(5) . . .
69(5) . . .
68(4) . . .
56(4) . . .
61(4) . . .
67(4) . . .
67(4) . . .
75(5) . . .
64(4) . . .
62(4) . . .
55(4) . . .
53(4) . . .
57(4) . . .
52(4) . . .
58(4) . . .
67(5) . . .
69(5) . . .
68(4) . . .
77(5) . . .
57(4) . . .
60(4) . . .
57(4) . . .
51(4) . . .
59(4) . . .
54(4) . . .
45(4) . . .
55(4) . . .
70(4) . . .
59(4) . . .
59(4) . . .
63(4) . . .
63(4) . . .
64(4) . . .
57(4) . . .
66(5) . . .
59(4) . . .
59(4) . . .
62(4) . . .
73(4) . . .
69(4) . . .
66(4) . . .
61(4) . . .
54(4) . . .
59(4) . . .
58(4) . . .
71(5) . . .
62(4) . . .
71(4) . . .
76(5) . . .
63(4) . . .
63(4) . . .
67(4) . . .
63(4) . . .
51(4) . . .
57(4) . . .
61(4) . . .
63(4) . . .
59(4) . . .
56(4) . . .
60(4) . . .
64(4) . . .
60(4) . . .
66(4) . . .
60(4) . . .
61(4) . . .
58(4) . . .
61(4) . . .
59(4) . . .
58(4) . . .
57(4) . . .
61(4) . . .
69(4) . . .
72(4) . . .
65(4) . . .
52(4) . . .
63(4) . . .
56(4) . . .
56(4) . . .
57(4) . . .
58(4) . . .
67(4) . . .
60(4) . . .
52(4) . . .
60(4) . . .
73(5) . . .
64(4) . . .
67(4) . . .
65(4) . . .
62(4) . . .
74(5) . . .
62(4) . . .
60(4) . . .
59(4) . . .
60(4) . . .
67(4) . . .
69(4) . . .
63(4) . . .
67(4) . . .
68(4) . . .
66(4) . . .
68(4) . . .
63(4) . . .
61(4) . . .
57(4) . . .
46(4) . . .
50(4) . . .
63(4) . . .
49(4) . . .
67(5) . . .
55(4) . . .
61(4) . . .
69(4) . . .
55(4) . . .
55(4) . . .
65(4) . . .
55(4) . . .
54(4) . . .
49(4) . . .
47(4) . . .
55(4) . . .
61(4) . . .
76(5) . . .
60(4) . . .
55(4) . . .
56(4) . . .
69(4) . . .
62(4) . . .
64(4) . . .
64(4) . . .
55(4) . . .
68(4) . . .
65(4) . . .
68(5) . . .
63(4) . . .
61(4) . . .
59(4) . . .
68(4) . . .
62(4) . . .
74(5) . . .
58(4) . . .
56(4) . . .
62(4) . . .
57(4) . . .
47(4) . . .
54(4) . . .
64(4) . . .
72(5) . . .
62(4) . . .
63(4) . . .
50(4) . . .
48(4) . . .
56(4) . . .
77(5) . . .
74(5) . . .
50(4) . . .
53(4) . . .
47(4) . . .
52(4) . . .
60(4) . . .
58(4) . . .
66(4) . . .
67(4) . . .
73(5) . . .
60(4) . . .
58(4) . . .
62(4) . . .
60(4) . . .
65(5) . . .
62(4) . . .
72(5) . . .
62(4) . . .
60(4) . . .
52(4) . . .
61(4) . . .
59(4) . . .
64(4) . . .
64(4) . . .
51(4) . . .
55(4) . . .
53(4) . . .
62(4) . . .
56(4) . . .
63(5) . . .
55(4) . . .
64(4) . . .
65(4) . . .
64(4) . . .
61(4) . . .
55(4) . . .
66(4) . . .
56(4) . . .
59(4) . . .
51(4) . . .
59(4) . . .
61(4) . . .
65(4) . . .
65(4) . . .
52(4) . . .
64(4) . . .
78(5) . . .
59(4) . . .
55(4) . . .
70(5) . . .
66(4) . . .
59(4) . . .
52(4) . . .
64(4) . . .
57(4) . . .
53(4) . . .
59(4) . . .
59(4) . . .
65(4) . . .
72(5) . . .
58(4) . . .
50(4) . . .
61(4) . . .
56(4) . . .
56(4) . . .
49(4) . . .
61(4) . . .
57(4) . . .
73(5) . . .
58(4) . . .
62(4) . . .
64(4) . . .
78(5) . . .
59(4) . . .
60(4) . . .
57(4) . . .
68(4) . . .
64(4) . . .
63(4) . . .
63(4) . . .
54(4) . . .
60(4) . . .
57(4) . . .
67(5) . . .
67(4) . . .
65(4) . . .
61(4) . . .
70(4) . . .
61(4) . . .
66(4) . . .
60(4) . . .
62(4) . . .
74(5) . . .
67(5) . . .
52(4) . . .
56(4) . . .
60(4) . . .
57(4) . . .
66(4) . . .
59(4) . . .
61(4) . . .
60(4) . . .
57(4) . . .
65(4) . . .
61(4) . . .
62(4) . . .
63(4) . . .
63(4) . . .
62(4) . . .
61(4) . . .
62(4) . . .
65(5) . . .
61(4) . . .
55(4) . . .
67(4) . . .
69(4) . . .
49(4) . . .
65(5) . . .
66(4) . . .
65(4) . . .
64(4) . . .
74(5) . . .
63(5) . . .
63(4) . . .
60(4) . . .
63(4) . . .
62(4) . . .
59(4) . . .
62(4) . . .
58(4) . . .
55(4) . . .
58(4) . . .
55(4) . . .
53(4) . . .
57(4) . . .
71(4) . . .
64(4) . . .
72(5) . . .
61(4) . . .
52(4) . . .
51(4) . . .
72(5) . . .
71(5) . . .
64(4) . . .
71(5) . . .
70(4) . . .
63(4) . . .
67(4) . . .
67(4) . . .
60(4) . . .
61(4) . . .
58(4) . . .
70(5) . . .
64(4) . . .
59(4) . . .
56(4) . . .
61(4) . . .
58(4) . . .
67(4) . . .
59(4) . . .
69(5) . . .
49(4) . . .
62(4) . . .
58(4) . . .
58(4) . . .
66(4) . . .
63(4) . . .
60(4) . . .
67(4) . . .
67(4) . . .
58(4) . . .
59(4) . . .
50(4) . . .
61(4) . . .
68(4) . . .
56(4) . . .
56(4) . . .
63(5) . . .
61(4) . . .
60(4) . . .
57(4) . . .
64(4) . . .
64(4) . . .
75(5) . . .
62(4) . . .
62(4) . . .
59(4) . . .
59(4) . . .
68(4) . . .
46(4) . . .
63(4) . . .
65(5) . . .
65(4) . . .
61(4) . . .
69(4) . . .
63(4) . . .
60(4) . . .
63(4) . . .
70(4) . . .
66(4) . . .
56(4) . . .
58(4) . . .
74(5) . . .
70(4) . . .
59(4) . . .
58(4) . . .
61(4) . . .
60(4) . . .
62(4) . . .
56(4) . . .
58(4) . . .
58(4) . . .
52(4) . . .
60(4) . . .
57(4) . . .
53(4) . . .
55(4) . . .
51(4) . . .
62(4) . . .
74(5) . . .
61(4) . . .
62(4) . . .
62(4) . . .
75(4) . . .
61(4) . . .
67(5) . . .
65(4) . . .
58(4) . . .
53(4) . . .
54(4) . . .
55(4) . . .
56(4) . . .
53(4) . . .
67(4) . . .
58(4) . . .
64(4) . . .
61(4) . . .
63(4) . . .
52(4) . . .
53(4) . . .
72(5) . . .
71(5) . . .
57(4) . . .
56(4) . . .
57(4) . . .
48(4) . . .
61(4) . . .
52(4) . . .
58(4) . . .
56(4) . . .
58(4) . . .
67(4) . . .
60(4) . . .
57(4) . . .
66(4) . . .
69(5) . . .
61(4) . . .
61(4) . . .
54(4) . . .
54(4) . . .
68(5) . . .
69(4) . . .
59(4) . . .
50(4) . . .
65(4) . . .
63(4) . . .
57(4) . . .
59(4) . . .
55(4) . . .
56(4) . . .
51(4) . . .
61(4) . . .
65(4) . . .
71(5) . . .
62(4) . . .
75(5) . . .
63(4) . . .
51(4) . . .
64(5) . . .
64(5) . . .
63(4) . . .
58(4) . . .
49(4) . . .
66(4) . . .
51(4) . . .
59(4) . . .
69(4) . . .
54(4) . . .
63(4) . . .
73(5) . . .
71(4) . . .
60(4) . . .
59(4) . . .
53(4) . . .
74(5) . . .
56(4) . . .
72(4) . . .
63(4) . . .
52(4) . . .
63(4) . . .
67(5) . . .
53(4) . . .
53(4) . . .
61(4) . . .
69(4) . . .
54(4) . . .
59(4) . . .
63(4) . . .
66(4) . . .
59(4) . . .
55(4) . . .
61(4) . . .
54(4) . . .
64(4) . . .
54(4) . . .
63(4) . . .
63(4) . . .
62(4) . . .
56(4) . . .
56(4) . . .
57(4) . . .
58(4) . . .
64(4) . . .
63(4) . . .
65(4) . . .
65(4) . . .
57(4) . . .
50(4) . . .
63(4) . . .
55(4) . . .
53(4) . . .
67(4) . . .
51(4) . . .
69(5) . . .
66(4) . . .
78(5) . . .
65(4) . . .
59(4) . . .
54(4) . . .
62(4) . . .
50(4) . . .
51(4) . . .
57(4) . . .
51(4) . . .
61(4) . . .
65(4) . . .
68(4) . . .
49(4) . . .
65(4) . . .
57(4) . . .
56(4) . . .
60(4) . . .
58(4) . . .
60(4) . . .
55(4) . . .
59(4) . . .
65(4) . . .
63(4) . . .
61(4) . . .
60(4) . . .
59(4) . . .
57(4) . . .
51(4) . . .
61(4) . . .
61(4) . . .
73(4) . . .
57(4) . . .
59(4) . . .
52(4) . . .
70(4) . . .
69(4) . . .
60(4) . . .
65(4) . . .
57(4) . . .
62(4) . . .
61(4) . . .
63(4) . . .
54(4) . . .
53(4) . . .
65(4) . . .
64(4) . . .
62(4) . . .
52(4) . . .
54(4) . . .
53(4) . . .
48(4) . . .
52(4) . . .
53(4) . . .
59(4) . . .
56(4) . . .
77(5) . . .
51(4) . . .
60(4) . . .
61(4) . . .
59(4) . . .
54(4) . . .
58(4) . . .
60(4) . . .
63(4) . . .
53(4) . . .
59(4) . . .
62(4) . . .
55(4) . . .
58(4) . . .
70(4) . . .
65(4) . . .
54(4) . . .
54(4) . . .
71(4) . . .
55(4) . . .
59(4) . . .
63(5) . . .
68(4) . . .
78(5) . . .
68(4) . . .
63(4) . . .
59(4) . . .
57(4) . . .
60(4) . . .
70(4) . . .
63(4) . . .
61(4) . . .
60(4) . . .
64(4) . . .
53(4) . . .
55(4) . . .
51(4) . . .
49(4) . . .
58(4) . . .
58(4) . . .
60(4) . . .
68(5) . . .
66(4) . . .
60(4) . . .
52(4) . . .
54(4) . . .
59(4) . . .
66(4) . . .
63(4) . . .
50(4) . . .
62(4) . . .
52(4) . . .
58(4) . . .
61(4) . . .
73(5) . . .
59(4) . . .
64(4) . . .
73(5) . . .
66(4) . . .
66(4) . . .
52(4) . . .
51(4) . . .
64(4) . . .
63(4) . . .
61(4) . . .
65(4) . . .
70(5) . . .
61(4) . . .
58(4) . . .
58(4) . . .
65(4) . . .
74(5) . . .
67(4) . . .
52(4) . . .
57(4) . . .
65(4) . . .
67(5) . . .
61(4) . . .
58(4) . . .
64(4) . . .
73(5) . . .
66(4) . . .
69(4) . . .
71(4) . . .
65(5) . . .
58(4) . . .
62(4) . . .
54(4) . . .
65(4) . . .
62(4) . . .
54(4) . . .
56(4) . . .
76(5) . . .
59(4) . . .
69(5) . . .
50(4) . . .
55(4) . . .
61(4) . . .
52(4) . . .
63(5) . . .
59(5) . . .
59(4) . . .
72(4) . . .
53(4) . . .
56(4) . . .
53(4) . . .
56(4) . . .
53(4) . . .
54(4) . . .
60(4) . . .
62(4) . . .
62(4) . . .
54(4) . . .
60(4) . . .
65(4) . . .
66(5) . . .
56(4) . . .
61(4) . . .
63(4) . . .
75(5) . . .
65(4) . . .
65(4) . . .
61(4) . . .
65(5) . . .
53(4) . . .
53(4) . . .
63(4) . . .
54(4) . . .
61(4) . . .
51(4) . . .
62(4) . . .
62(4) . . .
58(4) . . .
58(4) . . .
63(4) . . .
55(4) . . .
55(4) . . .
59(4) . . .
67(5) . . .
57(4) . . .
63(4) . . .
56(4) . . .
47(4) . . .
53(4) . . .
58(4) . . .
58(4) . . .
57(4) . . .
52(4) . . .
59(4) . . .
64(4) . . .
57(4) . . .
63(4) . . .
56(4) . . .
66(5) . . .
57(4) . . .
61(4) . . .
63(4) . . .
64(4) . . .
62(4) . . .
68(5) . . .
56(4) . . .
53(4) . . .
71(4) . . .
53(4) . . .
54(4) . . .
63(4) . . .
58(4) . . .
60(4) . . .
69(5) . . .
60(4) . . .
65(4) . . .
72(4) . . .
77(5) . . .
62(4) . . .
48(4) . . .
54(4) . . .
61(4) . . .
60(4) . . .
59(4) . . .
63(4) . . .
62(4) . . .
74(4) . . .
66(4) . . .
66(4) . . .
61(4) . . .
61(4) . . .
63(4) . . .
51(4) . . .
61(4) . . .
55(4) . . .
67(4) . . .
64(4) . . .
67(4) . . .
64(4) . . .
51(4) . . .
52(4) . . .
59(4) . . .
66(4) . . .
61(4) . . .
54(4) . . .
61(4) . . .
51(4) . . .
62(4) . . .
60(4) . . .
63(4) . . .
59(4) . . .
48(4) . . .
53(4) . . .
56(4) . . .
58(4) . . .
57(4) . . .
57(4) . . .
60(4) . . .
59(4) . . .
57(4) . . .
56(4) . . .
67(4) . . .
66(4) . . .
57(4) . . .
45.5(35) . . .
64(4) . . .
57(4) . . .
62(4) . . .
64(4) . . .
64(4) . . .
59(4) . . .
59(4) . . .
59(4) . . .
58(4) . . .
52(4) . . .
58(4) . . .
67(4) . . .
62(4) . . .
54(4) . . .
65(4) . . .
57(4) . . .
49(4) . . .
57(4) . . .
60(4) . . .
48(4) . . .
63(4) . . .
60(4) . . .
48(4) . . .
53(4) . . .
64(4) . . .
57(4) . . .
67(4) . . .
53(4) . . .
55(4) . . .
65(4) . . .
66(4) . . .
58(4) . . .
51(4) . . .
53(4) . . .
50(4) . . .
56(4) . . .
63(4) . . .
59(4) . . .
62(4) . . .
69(4) . . .
65(4) . . .
66(4) . . .
55(4) . . .
62(4) . . .
56(4) . . .
66(4) . . .
50(4) . . .
63(4) . . .
61(4) . . .
59(4) . . .
56(4) . . .
59(4) . . .
63(4) . . .
64(4) . . .
49(4) . . .
59(4) . . .
67(5) . . .
62(4) . . .
53(4) . . .
56(4) . . .
52(4) . . .
63(5) . . .
59(4) . . .
55(4) . . .
70(4) . . .
60(4) . . .
57(4) . . .
65(4) . . .
55(4) . . .
55(4) . . .
55(4) . . .
54(4) . . .
56(4) . . .
70(4) . . .
55(4) . . .
56(4) . . .
55(4) . . .
61(4) . . .
53(4) . . .
58(4) . . .
57(4) . . .
51(4) . . .
55(4) . . .
66(4) . . .
58(4) . . .
60(4) . . .
59(4) . . .
64(4) . . .
61(4) . . .
58(4) . . .
55(4) . . .
63(4) . . .
59(4) . . .
57(4) . . .
54(4) . . .
56(4) . . .
54(4) . . .
59(4) . . .
64(4) . . .
61(4) . . .
64(5) . . .
52(4) . . .
58(4) . . .
61(4) . . .
54(4) . . .
59(4) . . .
53(4) . . .
58(4) . . .
54(4) . . .
57(4) . . .
70(5) . . .
56(4) . . .
50(4) . . .
52(4) . . .
52(4) . . .
57(4) . . .
56(4) . . .
59(4) . . .
57(4) . . .
49(4) . . .
54(4) . . .
51(4) . . .
54(4) . . .
60(4) . . .
60(4) . . .
69(5) . . .
61(4) . . .
58(4) . . .
50(4) . . .
62(4) . . .
39.1(35) . . .
52(4) . . .
60(4) . . .
56(4) . . .
58(4) . . .
58(4) . . .
62(4) . . .
54(4) . . .
64(4) . . .
68(4) . . .
58(4) . . .
54(4) . . .
41.3(33) . . .
55(4) . . .
61(4) . . .
46(4) . . .
61(4) . . .
65(4) . . .
54(4) . . .
57(4) . . .
64(5) . . .
61(4) . . .
51(4) . . .
57(4) . . .
55(4) . . .
63(4) . . .
46(4) . . .
50(4) . . .
65(4) . . .
58(4) . . .
55(4) . . .
66(4) . . .
55(4) . . .
53(4) . . .
60(4) . . .
60(4) . . .
54(4) . . .
56(4) . . .
56(4) . . .
64(5) . . .
54(4) . . .
48(4) . . .
69(4) . . .
55(4) . . .
63(4) . . .
65(4) . . .
63(4) . . .
60(4) . . .
63(4) . . .
50(4) . . .
52(4) . . .
54(4) . . .
58(4) . . .
51(4) . . .
63(4) . . .
60(4) . . .
59(4) . . .
57(4) . . .
59(4) . . .
64(4) . . .
58(4) . . .
61(4) . . .
60(4) . . .
66(5) . . .
60(4) . . .
70(4) . . .
74(5) . . .
53(4) . . .
47(4) . . .
54(4) . . .
50(4) . . .
62(4) . . .
57(4) . . .
69(5) . . .
65(4) . . .
69(4) . . .
54(4) . . .
63(4) . . .
62(4) . . .
57(4) . . .
51(4) . . .
53(4) . . .
62(4) . . .
54(4) . . .
62(4) . . .
60(4) . . .
60(4) . . .
72(5) . . .
62(4) . . .
51(4) . . .
47(4) . . .
75(5) . . .
64(4) . . .
63(5) . . .
55(4) . . .
70(4) . . .
60(4) . . .
54(4) . . .
59(5) . . .
58(4) . . .
58(4) . . .
52(4) . . .
69(5) . . .
56(4) . . .
51(4) . . .
65(4) . . .
62(4) . . .
65(4) . . .
58(4) . . .
59(4) . . .
58(4) . . .
65(4) . . .
52(4) . . .
50(4) . . .
55(4) . . .
49(4) . . .
50(4) . . .
68(5) . . .
62(4) . . .
75(5) . . .
64(4) . . .
57(4) . . .
63(4) . . .
68(5) . . .
69(4) . . .
64(4) . . .
61(4) . . .
59(4) . . .
50(4) . . .
52(4) . . .
66(4) . . .
64(4) . . .
67(4) . . .
72(5) . . .
65(4) . . .
51(4) . . .
76(5) . . .
60(4) . . .
67(4) . . .
68(4) . . .
66(4) . . .
59(4) . . .
64(4) . . .
64(4) . . .
46(4) . . .
53(4) . . .
53(4) . . .
63(4) . . .
64(4) . . .
69(4) . . .
66(4) . . .
54(4) . . .
56(4) . . .
61(4) . . .
66(4) . . .
55(4) . . .
55(4) . . .
54(4) . . .
65(4) . . .
59(4) . . .
59(4) . . .
61(4) . . .
63(4) . . .
52(4) . . .
53(4) . . .
53(4) . . .
51(4) . . .
60(4) . . .
60(4) . . .
57(4) . . .
63(4) . . .
59(4) . . .
64(4) . . .
62(4) . . .
53(4) . . .
53(4) . . .
62(4) . . .
55(4) . . .
53(4) . . .
54(4) . . .
51(4) . . .
55(4) . . .
63(4) . . .
56(4) . . .
50(4) . . .
58(4) . . .
57(4) . . .
56(4) . . .
50(4) . . .
58(4) . . .
62(4) . . .
64(4) . . .
64(4) . . .
56(4) . . .
64(4) . . .
78(5) . . .
72(5) . . .
64(4) . . .
53(4) . . .
55(4) . . .
72(5) . . .
67(4) . . .
60(4) . . .
58(4) . . .
68(4) . . .
56(4) . . .
57(4) . . .
68(5) . . .
61(4) . . .
61(4) . . .
56(4) . . .
61(4) . . .
63(4) . . .
63(4) . . .
45(4) . . .
53(4) . . .
52(4) . . .
54(4) . . .
57(4) . . .
57(4) . . .
65(4) . . .
56(4) . . .
57(4) . . .
48(4) . . .
55(4) . . .
61(4) . . .
64(4) . . .
65(4) . . .
59(4) . . .
55(4) . . .
67(4) . . .
71(5) . . .
56(4) . . .
60(4) . . .
65(4) . . .
72(5) . . .
67(4) . . .
70(4) . . .
55(4) . . .
58(4) . . .
58(4) . . .
62(4) . . .
56(4) . . .
73(4) . . .
70(5) . . .
66(5) . . .
59(4) . . .
74(5) . . .
69(4) . . .
52(4) . . .
57(4) . . .
57(4) . . .
67(4) . . .
59(4) . . .
56(4) . . .
52(4) . . .
58(4) . . .
68(4) . . .
54(4) . . .
63(4) . . .
59(4) . . .
63(4) . . .
57(4) . . .
66(4) . . .
58(4) . . .
59(4) . . .
63(4) . . .
65(4) . . .
55(4) . . .
51(4) . . .
51(4) . . .
71(4) . . .
73(4) . . .
58(4) . . .
62(4) . . .
62(4) . . .
60(4) . . .
65(4) . . .
57(4) . . .
58(4) . . .
56(4) . . .
65(4) . . .
61(4) . . .
63(4) . . .
61(4) . . .
47(4) . . .
63(4) . . .
58(4) . . .
55(4) . . .
67(5) . . .
59(4) . . .
49(4) . . .
56(4) . . .
63(4) . . .
67(4) . . .
56(4) . . .
64(4) . . .
56(4) . . .
60(4) . . .
60(4) . . .
61(4) . . .
62(4) . . .
49(4) . . .
52(4) . . .
55(4) . . .
60(4) . . .
64(4) . . .
55(4) . . .
57(4) . . .
61(4) . . .
60(4) . . .
56(4) . . .
57(4) . . .
56(4) . . .
56(4) . . .
59(4) . . .
64(4) . . .
53(4) . . .
51(4) . . .
60(4) . . .
60(4) . . .
57(4) . . .
59(4) . . .
60(4) . . .
58(4) . . .
59(4) . . .
56(4) . . .
58(4) . . .
56(4) . . .
65(4) . . .
62(4) . . .
61(4) . . .
56(4) . . .
59(4) . . .
54(4) . . .
56(4) . . .
63(4) . . .
62(4) . . .
61(4) . . .
68(4) . . .
62(4) . . .
51(4) . . .
60(4) . . .
54(4) . . .
50(4) . . .
61(4) . . .
73(4) . . .
58(4) . . .
60(4) . . .
53(4) . . .
54(4) . . .
51(4) . . .
53(4) . . .
58(4) . . .
55(4) . . .
55(4) . . .
78(5) . . .
62(4) . . .
63(4) . . .
53(4) . . .
58(4) . . .
53(4) . . .
65(4) . . .
70(5) . . .
65(4) . . .
59(4) . . .
55(4) . . .
55(4) . . .
58(4) . . .
59(4) . . .
57(4) . . .
55(4) . . .
62(4) . . .
48(4) . . .
60(4) . . .
48(4) . . .
68(4) . . .
65(4) . . .
65(4) . . .
51(4) . . .
51(4) . . .
56(4) . . .
53(4) . . .
67(5) . . .
62(4) . . .
56(4) . . .
47(4) . . .
50(4) . . .
53(4) . . .
62(4) . . .
51(4) . . .
55(4) . . .
64(4) . . .
67(4) . . .
61(4) . . .
57(4) . . .
66(4) . . .
52(4) . . .
57(4) . . .
68(4) . . .
56(4) . . .
68(4) . . .
58(4) . . .
66(4) . . .
62(4) . . .
54(4) . . .
58(4) . . .
57(4) . . .
61(4) . . .
52(4) . . .
57(4) . . .
51(4) . . .
47(4) . . .
43.4(35) . . .
66(4) . . .
53(4) . . .
52(4) . . .
45(4) . . .
54(4) . . .
56(4) . . .
58(4) . . .
57(4) . . .
57(4) . . .
57(4) . . .
67(4) . . .
53(4) . . .
56(4) . . .
64(4) . . .
60(4) . . .
70(4) . . .
59(4) . . .
55(4) . . .
63(4) . . .
57(4) . . .
50(4) . . .
48(4) . . .
52(4) . . .
50(4) . . .
52(4) . . .
52(4) . . .
55(4) . . .
53(4) . . .
60(4) . . .
54(4) . . .
49(4) . . .
57(4) . . .
71(5) . . .
68(4) . . .
64(4) . . .
57(4) . . .
49(4) . . .
56(4) . . .
58(4) . . .
57(4) . . .
56(4) . . .
62(4) . . .
59(4) . . .
54(4) . . .
62(4) . . .
59(4) . . .
54(4) . . .
61(4) . . .
58(4) . . .
54(4) . . .
52(4) . . .
62(4) . . .
50(4) . . .
48(4) . . .
53(4) . . .
59(4) . . .
56(4) . . .
47(4) . . .
60(4) . . .
40.6(33) . . .
53(4) . . .
61(5) . . .
66(5) . . .
53(4) . . .
63(4) . . .
49(4) . . .
51(4) . . .
59(4) . . .
66(4) . . .
72(4) . . .
53(4) . . .
66(4) . . .
57(4) . . .
65(4) . . .
52(4) . . .
52(4) . . .
66(5) . . .
68(4) . . .
64(4) . . .
52(4) . . .
58(4) . . .
61(4) . . .
60(4) . . .
61(4) . . .
59(4) . . .
53(4) . . .
68(5) . . .
56(4) . . .
53(4) . . .
51(4) . . .
64(4) . . .
63(4) . . .
57(4) . . .
55(4) . . .
55(4) . . .
53(4) . . .
59(4) . . .
59(4) . . .
53(4) . . .
47(4) . . .
63(4) . . .
63(4) . . .
54(4) . . .
54(4) . . .
54(4) . . .
50(4) . . .
54(4) . . .
61(4) . . .
64(4) . . .
60(4) . . .
52(4) . . .
53(4) . . .
57(4) . . .
53(4) . . .
63(4) . . .
57(4) . . .
60(4) . . .
59(4) . . .
58(4) . . .
50(4) . . .
53(4) . . .
53(4) . . .
64(4) . . .
59(4) . . .
61(4) . . .
57(4) . . .
54(4) . . .
62(4) . . .
51(4) . . .
72(5) . . .
58(4) . . .
55(4) . . .
55(4) . . .
53(4) . . .
48(4) . . .
54(4) . . .
67(4) . . .
57(4) . . .
57(4) . . .
58(4) . . .
58(4) . . .
48(4) . . .
48(4) . . .
55(4) . . .
59(4) . . .
53(4) . . .
47(4) . . .
47(4) . . .
68(4) . . .
70(4) . . .
61(4) . . .
49(4) . . .
62(4) . . .
49(4) . . .
66(5) . . .
60(4) . . .
60(4) . . .
49(4) . . .
54(4) . . .
60(4) . . .
61(4) . . .
62(4) . . .
51(4) . . .
57(4) . . .
55(4) . . .
54(4) . . .
55(4) . . .
58(4) . . .
48(4) . . .
63(4) . . .
68(4) . . .
54(4) . . .
49(4) . . .
51(4) . . .
44.8(35) . . .
52(4) . . .
62(4) . . .
53(4) . . .
61(4) . . .
60(4) . . .
66(4) . . .
67(4) . . .
57(4) . . .
51(4) . . .
57(4) . . .
62(4) . . .
77(5) . . .
61(4) . . .
57(4) . . .
55(4) . . .
64(4) . . .
56(4) . . .
50(4) . . .
55(4) . . .
63(4) . . .
53(4) . . .
51(4) . . .
55(4) . . .
57(4) . . .
58(4) . . .
61(4) . . .
58(4) . . .
51(4) . . .
50(4) . . .
55(4) . . .
67(4) . . .
52(4) . . .
57(4) . . .
67(4) . . .
60(4) . . .
62(4) . . .
53(4) . . .
59(4) . . .
59(4) . . .
55(4) . . .
63(4) . . .
61(4) . . .
58(4) . . .
62(4) . . .
58(4) . . .
51(4) . . .
48(4) . . .
44(4) . . .
43.1(35) . . .
61(4) . . .
60(4) . . .
52(4) . . .
68(5) . . .
52(4) . . .
67(4) . . .
63(4) . . .
54(4) . . .
52(4) . . .
61(4) . . .
54(4) . . .
56(4) . . .
58(4) . . .
58(4) . . .
66(4) . . .
53(4) . . .
62(4) . . .
57(4) . . .
47(4) . . .
58(4) . . .
58(4) . . .
66(4) . . .
69(5) . . .
63(4) . . .
62(4) . . .
64(4) . . .
59(4) . . .
54(4) . . .
47(4) . . .
55(4) . . .
55(4) . . .
60(4) . . .
59(4) . . .
61(4) . . .
57(4) . . .
58(4) . . .
55(4) . . .
56(4) . . .
61(4) . . .
44.3(35) . . .
58(4) . . .
58(4) . . .
52(4) . . .
52(4) . . .
58(4) . . .
56(4) . . .
62(4) . . .
54(4) . . .
56(4) . . .
59(4) . . .
64(4) . . .
59(4) . . .
59(4) . . .
44.4(35) . . .
55(4) . . .
59(4) . . .
49(4) . . .
58(4) . . .
54(4) . . .
57(4) . . .
69(5) . . .
63(4) . . .
58(4) . . .
51(4) . . .
57(4) . . .
66(4) . . .
62(4) . . .
60(4) . . .
55(4) . . .
54(4) . . .
51(4) . . .
58(4) . . .
60(4) . . .
51(4) . . .
60(4) . . .
52(4) . . .
58(4) . . .
64(4) . . .
60(4) . . .
46(4) . . .
52(4) . . .
54(4) . . .
47(4) . . .
61(4) . . .
64(4) . . .
60(4) . . .
55(4) . . .
52(4) . . .
51(4) . . .
51(4) . . .
41.9(34) . . .
63(4) . . .
51(4) . . .
58(4) . . .
55(4) . . .
54(4) . . .
61(4) . . .
56(4) . . .
62(4) . . .
57(4) . . .
60(4) . . .
68(4) . . .
49(4) . . .
65(4) . . .
59(4) . . .
60(4) . . .
56(4) . . .
49(4) . . .
49(4) . . .
59(4) . . .
53(4) . . .
58(4) . . .
62(4) . . .
58(4) . . .
55(4) . . .
62(4) . . .
54(4) . . .
63(4) . . .
55(4) . . .
53(4) . . .
55(4) . . .
54(4) . . .
57(4) . . .
52(4) . . .
55(4) . . .
57(4) . . .
61(4) . . .
65(4) . . .
60(4) . . .
63(4) . . .
58(4) . . .
60(4) . . .
62(4) . . .
61(4) . . .
52(4) . . .
50(4) . . .
66(4) . . .
59(4) . . .
52(4) . . .
66(5) . . .
59(4) . . .
48(4) . . .
53(4) . . .
63(4) . . .
47(4) . . .
65(4) . . .
57(4) . . .
51(4) . . .
60(4) . . .
52(4) . . .
56(4) . . .
63(4) . . .
62(4) . . .
51(4) . . .
50(4) . . .
52(4) . . .
49(4) . . .
54(4) . . .
52(4) . . .
53(4) . . .
70(5) . . .
58(4) . . .
61(4) . . .
54(4) . . .
53(4) . . .
54(4) . . .
60(4) . . .
55(4) . . .
58(4) . . .
60(4) . . .
60(4) . . .
70(4) . . .
59(4) . . .
51(4) . . .
49(4) . . .
55(4) . . .
54(4) . . .
54(4) . . .
54(4) . . .
41.2(34) . . .
52(4) . . .
61(4) . . .
58(4) . . .
57(4) . . .
60(4) . . .
62(4) . . .
55(4) . . .
59(4) . . .
60(4) . . .
61(4) . . .
64(4) . . .
49(4) . . .
53(4) . . .
56(4) . . .
64(4) . . .
56(4) . . .
56(4) . . .
59(4) . . .
61(4) . . .
51(4) . . .
54(4) . . .
52(4) . . .
54(4) . . .
46(4) . . .
55(4) . . .
54(4) . . .
59(4) . . .
57(4) . . .
54(4) . . .
58(4) . . .
54(4) . . .
53(4) . . .
54(4) . . .
54(4) . . .
45(4) . . .
52(4) . . .
52(4) . . .
55(4) . . .
59(4) . . .
53(4) . . .
60(4) . . .
56(4) . . .
56(4) . . .
58(4) . . .
54(4) . . .
61(4) . . .
54(4) . . .
62(4) . . .
54(4) . . .
56(4) . . .
63(4) . . .
58(4) . . .
56(4) . . .
57(4) . . .
52(4) . . .
57(4) . . .
65(4) . . .
57(4) . . .
58(4) . . .
63(4) . . .
59(4) . . .
50(4) . . .
62(4) . . .
55(4) . . .
52(4) . . .
59(4) . . .
57(4) . . .
63(4) . . .
64(4) . . .
56(4) . . .
50(4) . . .
46(4) . . .
56(4) . . .
56(4) . . .
57(4) . . .
52(4) . . .
58(4) . . .
66(5) . . .
60(4) . . .
53(4) . . .
67(4) . . .
58(4) . . .
51(4) . . .
52(4) . . .
49(4) . . .
54(4) . . .
55(4) . . .
56(4) . . .
68(4) . . .
63(4) . . .
52(4) . . .
46(4) . . .
51(4) . . .
58(4) . . .
69(4) . . .
62(4) . . .
57(4) . . .
55(4) . . .
50(4) . . .
43.7(35) . . .
56(4) . . .
54(4) . . .
56(4) . . .
58(4) . . .
62(4) . . .
58(4) . . .
58(4) . . .
61(4) . . .
67(4) . . .
56(4) . . .
67(4) . . .
57(4) . . .
47(4) . . .
56(4) . . .
39.3(33) . . .
48(4) . . .
57(4) . . .
53(4) . . .
58(4) . . .
69(4) . . .
52(4) . . .
59(4) . . .
65(4) . . .
59(4) . . .
60(4) . . .
50(4) . . .
54(4) . . .
45(4) . . .
52(4) . . .
59(4) . . .
50(4) . . .
55(4) . . .
58(4) . . .
50(4) . . .
52(4) . . .
56(4) . . .
58(4) . . .
58(4) . . .
51(4) . . .
61(4) . . .
66(4) . . .
56(4) . . .
55(4) . . .
58(4) . . .
55(4) . . .
52(4) . . .
54(4) . . .
55(4) . . .
48(4) . . .
52(4) . . .
63(4) . . .
58(4) . . .
60(4) . . .
55(4) . . .
55(4) . . .
56(4) . . .
62(4) . . .
65(4) . . .
42.5(34) . . .
54(4) . . .
62(4) . . .
61(4) . . .
62(4) . . .
60(4) . . .
54(4) . . .
56(4) . . .
55(4) . . .
62(4) . . .
57(4) . . .
58(4) . . .
54(4) . . .
51(4) . . .
49(4) . . .
60(4) . . .
62(4) . . .
61(4) . . .
51(4) . . .
63(4) . . .
57(4) . . .
52(4) . . .
48(4) . . .
58(4) . . .
47(4) . . .
62(4) . . .
63(4) . . .
52(4) . . .
49(4) . . .
48(4) . . .
51(4) . . .
62(4) . . .
59(4) . . .
53(4) . . .
52(4) . . .
53(4) . . .
44.2(35) . . .
63(4) . . .
53(4) . . .
50(4) . . .
57(4) . . .
60(4) . . .
61(4) . . .
57(4) . . .
51(4) . . .
54(4) . . .
59(4) . . .
50(4) . . .
58(4) . . .
60(4) . . .
61(4) . . .
53(4) . . .
53(4) . . .
55(4) . . .
63(4) . . .
43(4) . . .
52(4) . . .
66(4) . . .
59(4) . . .
61(4) . . .
61(4) . . .
58(4) . . .
53(4) . . .
56(4) . . .
58(4) . . .
60(4) . . .
43.7(34) . . .
62(4) . . .
63(4) . . .
51(4) . . .
49(4) . . .
61(5) . . .
50(4) . . .
58(4) . . .
58(4) . . .
53(4) . . .
65(5) . . .
46(4) . . .
58(4) . . .
50(4) . . .
66(4) . . .
59(4) . . .
54(4) . . .
52(4) . . .
57(4) . . .
53(4) . . .
57(4) . . .
49(4) . . .
61(4) . . .
51(4) . . .
54(4) . . .
54(4) . . .
57(4) . . .
47(4) . . .
56(4) . . .
59(4) . . .
66(5) . . .
54(4) . . .
61(4) . . .
52(4) . . .
53(4) . . .
58(4) . . .
55(4) . . .
57(4) . . .
57(4) . . .
53(4) . . .
57(4) . . .
47(4) . . .
56(4) . . .
55(4) . . .
44(4) . . .
52(4) . . .
53(4) . . .
56(4) . . .
60(4) . . .
53(4) . . .
54(4) . . .
57(4) . . .
66(4) . . .
54(4) . . .
52(4) . . .
56(4) . . .
54(4) . . .
49(4) . . .
57(4) . . .
49(4) . . .
57(4) . . .
57(4) . . .
62(4) . . .
63(4) . . .
55(4) . . .
50(4) . . .
49(4) . . .
62(4) . . .
65(5) . . .
48(4) . . .
55(4) . . .
67(4) . . .
52(4) . . .
46(4) . . .
54(4) . . .
51(4) . . .
62(4) . . .
55(4) . . .
56(4) . . .
60(5) . . .
52(4) . . .
59(4) . . .
59(4) . . .
57(4) . . .
56(4) . . .
58(4) . . .
60(4) . . .
64(4) . . .
56(4) . . .
60(4) . . .
53(4) . . .
53(4) . . .
53(4) . . .
55(4) . . .
58(4) . . .
66(4) . . .
48(4) . . .
62(4) . . .
54(4) . . .
62(4) . . .
67(4) . . .
56(4) . . .
56(4) . . .
56(4) . . .
54(4) . . .
55(4) . . .
47(4) . . .
54(4) . . .
57(4) . . .
59(4) . . .
61(4) . . .
61(4) . . .
47(4) . . .
54(4) . . .
58(4) . . .
51(4) . . .
56(4) . . .
54(4) . . .
50(4) . . .
54(4) . . .
45(4) . . .
47(4) . . .
54(4) . . .
48(4) . . .
53(4) . . .
53(4) . . .
44.4(34) . . .
55(4) . . .
53(4) . . .
54(4) . . .
43.9(35) . . .
58(4) . . .
52(4) . . .
59(4) . . .
62(4) . . .
50(4) . . .
53(4) . . .
62(4) . . .
58(4) . . .
66(4) . . .
53(4) . . .
51(4) . . .
50(4) . . .
58(4) . . .
57(4) . . .
47(4) . . .
58(4) . . .
58(4) . . .
55(4) . . .
52(4) . . .
57(4) . . .
49(4) . . .
53(4) . . .
59(4) . . .
56(4) . . .
52(4) . . .
60(4) . . .
54(4) . . .
48(4) . . .
50(4) . . .
54(4) . . .
51(4) . . .
55(4) . . .
55(4) . . .
54(4) . . .
50(4) . . .
59(4) . . .
57(4) . . .
51(4) . . .
46(4) . . .
56(4) . . .
50(4) . . .
55(4) . . .
66(4) . . .
57(4) . . .
52(4) . . .
59(4) . . .
56(4) . . .
45(4) . . .
48(4) . . .
54(4) . . .
56(4) . . .
58(4) . . .
53(4) . . .
68(4) . . .
61(4) . . .
61(4) . . .
53(4) . . .
53(4) . . .
57(4) . . .
52(4) . . .
52(4) . . .
58(4) . . .
51(4) . . .
62(4) . . .
49(4) . . .
48(4) . . .
58(4) . . .
60(4) . . .
56(4) . . .
50(4) . . .
57(4) . . .
53(4) . . .
54(4) . . .
48(4) . . .
45(4) . . .
55(4) . . .
50(4) . . .
54(4) . . .
55(4) . . .
58(4) . . .
54(4) . . .
59(4) . . .
55(4) . . .
50(4) . . .
54(4) . . .
46(4) . . .
48(4) . . .
53(4) . . .
60(4) . . .
49(4) . . .
56(4) . . .
57(4) . . .
61(4) . . .
43.4(34) . . .
57(4) . . .
51(4) . . .
54(4) . . .
46(4) . . .
48(4) . . .
48(4) . . .
49(4) . . .
51(4) . . .
43.8(35) . . .
60(4) . . .
56(4) . . .
56(4) . . .
64(4) . . .
58(4) . . .
61(4) . . .
67(5) . . .
52(4) . . .
49(4) . . .
47(4) . . .
54(4) . . .
54(4) . . .
37.2(31) . . .
50(4) . . .
61(4) . . .
54(4) . . .
54(4) . . .
56(4) . . .
50(4) . . .
51(4) . . .
55(4) . . .
58(4) . . .
56(4) . . .
75(5) . . .
64(4) . . .
54(4) . . .
56(4) . . .
59(4) . . .
47(4) . . .
47(4) . . .
57(4) . . .
55(4) . . .
52(4) . . .
49(4) . . .
60(4) . . .
55(4) . . .
51(4) . . .
55(4) . . .
55(4) . . .
54(4) . . .
47(4) . . .
62(4) . . .
51(4) . . .
51(4) . . .
48(4) . . .
47(4) . . .
54(4) . . .
70(4) . . .
57(4) . . .
62(4) . . .
70(5) . . .
54(4) . . .
55(4) . . .
50(4) . . .
45(4) . . .
59(4) . . .
49(4) . . .
58(4) . . .
52(4) . . .
56(4) . . .
55(4) . . .
56(4) . . .
55(4) . . .
56(4) . . .
62(4) . . .
52(4) . . .
50(4) . . .
57(4) . . .
62(4) . . .
60(4) . . .
54(4) . . .
56(4) . . .
56(4) . . .
54(4) . . .
50(4) . . .
48(4) . . .
46(4) . . .
58(4) . . .
62(4) . . .
51(4) . . .
49(4) . . .
51(4) . . .
61(4) . . .
58(4) . . .
50(4) . . .
58(4) . . .
53(4) . . .
54(4) . . .
56(4) . . .
61(4) . . .
56(4) . . .
65(5) . . .
50(4) . . .
40.1(32) . . .
52(4) . . .
58(4) . . .
48(4) . . .
68(4) . . .
56(4) . . .
56(4) . . .
61(4) . . .
62(4) . . .
47(4) . . .
52(4) . . .
51(4) . . .
54(4) . . .
55(4) . . .
59(4) . . .
52(4) . . .
58(4) . . .
59(4) . . .
55(4) . . .
50(4) . . .
50(4) . . .
59(4) . . .
54(4) . . .
59(4) . . .
57(4) . . .
47(4) . . .
48(4) . . .
56(4) . . .
47(4) . . .
57(4) . . .
50(4) . . .
54(4) . . .
49(4) . . .
55(4) . . .
49(4) . . .
60(4) . . .
50(4) . . .
57(4) . . .
55(4) . . .
59(4) . . .
62(4) . . .
45(4) . . .
49(4) . . .
60(4) . . .
50(4) . . .
55(4) . . .
65(4) . . .
62(4) . . .
51(4) . . .
39.5(33) . . .
55(4) . . .
56(4) . . .
62(4) . . .
51(4) . . .
45.4(35) . . .
48(4) . . .
48(4) . . .
51(4) . . .
55(4) . . .
56(4) . . .
65(4) . . .
58(4) . . .
51(4) . . .
68(4) . . .
62(4) . . .
58(4) . . .
51(4) . . .
55(4) . . .
61(4) . . .
59(4) . . .
60(4) . . .
51(4) . . .
47(4) . . .
61(4) . . .
51(4) . . .
65(5) . . .
49(4) . . .
43.6(34) . . .
43.7(34) . . .
57(4) . . .
51(4) . . .
51(4) . . .
49(4) . . .
58(4) . . .
55(4) . . .
51(4) . . .
54(4) . . .
47(4) . . .
59(4) . . .
52(4) . . .
60(4) . . .
53(4) . . .
57(4) . . .
52(4) . . .
42.8(35) . . .
58(4) . . .
49(4) . . .
53(4) . . .
60(4) . . .
59(4) . . .
52(4) . . .
53(4) . . .
53(4) . . .
60(4) . . .
58(4) . . .
52(4) . . .
53(4) . . .
66(4) . . .
54(4) . . .
55(4) . . .
61(4) . . .
54(4) . . .
61(4) . . .
55(4) . . .
56(4) . . .
56(4) . . .
53(4) . . .
52(4) . . .
52(4) . . .
46(4) . . .
58(4) . . .
54(4) . . .
55(4) . . .
59(4) . . .
52(4) . . .
48(4) . . .
53(4) . . .
57(4) . . .
58(4) . . .
61(4) . . .
54(4) . . .
54(4) . . .
53(4) . . .
46(4) . . .
59(4) . . .
47(4) . . .
57(4) . . .
69(4) . . .
60(4) . . .
49(4) . . .
62(5) . . .
49(4) . . .
50(4) . . .
62(4) . . .
53(4) . . .
52(4) . . .
60(4) . . .
52(4) . . .
52(4) . . .
51(4) . . .
59(4) . . .
56(4) . . .
53(4) . . .
54(4) . . .
55(4) . . .
49(4) . . .
53(4) . . .
57(4) . . .
58(4) . . .
53(4) . . .
57(4) . . .
61(4) . . .
44.1(35) . . .
49(4) . . .
48(4) . . .
61(4) . . .
53(4) . . .
46(4) . . .
51(4) . . .
51(4) . . .
53(4) . . .
56(4) . . .
50(4) . . .
51(4) . . .
60(4) . . .
51(4) . . .
46(4) . . .
57(4) . . .
46(4) . . .
48(4) . . .
51(4) . . .
49(4) . . .
53(4) . . .
52(4) . . .
49(4) . . .
59(4) . . .
62(4) . . .
56(4) . . .
50(4) . . .
53(4) . . .
50(4) . . .
55(4) . . .
56(4) . . .
51(4) . . .
50(4) . . .
46(4) . . .
48(4) . . .
57(4) . . .
55(4) . . .
47(4) . . .
53(4) . . .
50(4) . . .
45(4) . . .
55(4) . . .
67(5) . . .
54(4) . . .
39.6(32) . . .
64(4) . . .
56(4) . . .
55(4) . . .
60(4) . . .
52(4) . . .
50(4) . . .
43(4) . . .
44(4) . . .
52(4) . . .
56(4) . . .
53(4) . . .
48(4) . . .
49(4) . . .
47(4) . . .
54(4) . . .
57(4) . . .
44.5(35) . . .
50(4) . . .
56(4) . . .
62(4) . . .
55(4) . . .
55(4) . . .
55(4) . . .
59(4) . . .
54(4) . . .
48(4) . . .
50(4) . . .
60(4) . . .
53(4) . . .
49(4) . . .
56(4) . . .
56(4) . . .
48(4) . . .
47(4) . . .
48(4) . . .
55(4) . . .
50(4) . . .
60(4) . . .
51(4) . . .
49(4) . . .
52(4) . . .
54(4) . . .
57(4) . . .
52(4) . . .
49(4) . . .
43.4(34) . . .
51(4) . . .
57(4) . . .
48(4) . . .
55(4) . . .
47(4) . . .
56(4) . . .
49(4) . . .
55(4) . . .
55(4) . . .
53(4) . . .
51(4) . . .
57(4) . . .
49(4) . . .
44(4) . . .
49(4) . . .
48(4) . . .
39.0(32) . . .
54(4) . . .
47(4) . . .
62(4) . . .
53(4) . . .
44.7(35) . . .
46(4) . . .
58(4) . . .
50(4) . . .
54(4) . . .
68(4) . . .
49(4) . . .
67(5) . . .
56(4) . . .
53(4) . . .
53(4) . . .
54(4) . . .
51(4) . . .
48(4) . . .
49(4) . . .
54(4) . . .
59(4) . . .
54(4) . . .
43.3(35) . . .
47(4) . . .
53(4) . . .
49(4) . . .
57(4) . . .
50(4) . . .
60(4) . . .
45(4) . . .
50(4) . . .
43(4) . . .
60(4) . . .
55(4) . . .
55(4) . . .
40.9(34) . . .
56(4) . . .
55(4) . . .
51(4) . . .
58(4) . . .
43.7(35) . . .
45(4) . . .
47(4) . . .
53(4) . . .
52(4) . . .
51(4) . . .
57(4) . . .
55(4) . . .
47(4) . . .
52(4) . . .
55(4) . . .
52(4) . . .
64(4) . . .
42.1(34) . . .
65(4) . . .
55(4) . . .
47(4) . . .
56(4) . . .
50(4) . . .
56(4) . . .
60(4) . . .
48(4) . . .
57(4) . . .
51(4) . . .
52(4) . . .
40.8(34) . . .
60(4) . . .
59(4) . . .
63(4) . . .
52(4) . . .
56(4) . . .
58(4) . . .
60(4) . . .
45.1(35) . . .
59(4) . . .
47(4) . . .
50(4) . . .
48(4) . . .
51(4) . . .
45(4) . . .
50(4) . . .
48(4) . . .
55(4) . . .
46(4) . . .
52(4) . . .
59(4) . . .
59(4) . . .
54(4) . . .
54(4) . . .
55(4) . . .
48(4) . . .
46(4) . . .
54(4) . . .
60(4) . . .
55(4) . . .
49(4) . . .
52(4) . . .
57(4) . . .
54(4) . . .
49(4) . . .
49(4) . . .
44.4(35) . . .
47(4) . . .
55(4) . . .
43(4) . . .
47(4) . . .
50(4) . . .
47(4) . . .
57(4) . . .
52(4) . . .
37.5(32) . . .
49(4) . . .
56(4) . . .
48(4) . . .
44(4) . . .
48(4) . . .
52(4) . . .
47(4) . . .
47(4) . . .
56(4) . . .
50(4) . . .
47(4) . . .
42.7(35) . . .
44(4) . . .
48(4) . . .
61(4) . . .
57(4) . . .
44(4) . . .
45(4) . . .
52(4) . . .
51(4) . . .
53(4) . . .
51(4) . . .
57(4) . . .
60(4) . . .
58(4) . . .
54(4) . . .
55(4) . . .
39.8(34) . . .
47(4) . . .
52(4) . . .
41.0(34) . . .
52(4) . . .
47(4) . . .
55(4) . . .
46(4) . . .
44.4(35) . . .
61(4) . . .
46(4) . . .
54(4) . . .
52(4) . . .
56(4) . . .
43(4) . . .
42.5(35) . . .
49(4) . . .
50(4) . . .
53(4) . . .
54(4) . . .
46(4) . . .
50(4) . . .
49(4) . . .
58(4) . . .
53(4) . . .
48(4) . . .
49(4) . . .
52(4) . . .
60(4) . . .
47(4) . . .
49(4) . . .
51(4) . . .
59(4) . . .
52(4) . . .
44(4) . . .
51(4) . . .
57(4) . . .
54(4) . . .
44.2(35) . . .
46(4) . . .
53(4) . . .
49(4) . . .
50(4) . . .
50(4) . . .
53(4) . . .
49(4) . . .
45(4) . . .
53(4) . . .
59(4) . . .
57(4) . . .
54(4) . . .
52(4) . . .
52(4) . . .
40.4(33) . . .
44.7(35) . . .
51(4) . . .
52(4) . . .
45.1(35) . . .
51(4) . . .
55(4) . . .
53(4) . . .
48(4) . . .
52(4) . . .
47(4) . . .
50(4) . . .
58(4) . . .
56(4) . . .
50(4) . . .
58(4) . . .
57(4) . . .
58(4) . . .
48(4) . . .
46(4) . . .
50(4) . . .
53(4) . . .
43(4) . . .
52(4) . . .
45.1(35) . . .
56(4) . . .
48(4) . . .
48(4) . . .
54(4) . . .
48(4) . . .
55(4) . . .
45(4) . . .
46(4) . . .
54(4) . . .
57(4) . . .
48(4) . . .
46(4) . . .
58(4) . . .
46(4) . . .
56(4) . . .
49(4) . . .
49(4) . . .
52(4) . . .
60(4) . . .
56(4) . . .
51(4) . . .
51(4) . . .
55(4) . . .
47(4) . . .
50(4) . . .
50(4) . . .
54(4) . . .
53(4) . . .
53(4) . . .
55(4) . . .
55(4) . . .
58(4) . . .
52(4) . . .
43.9(35) . . .
49(4) . . .
58(4) . . .
51(4) . . .
56(4) . . .
46(4) . . .
49(4) . . .
57(4) . . .
55(4) . . .
47(4) . . .
49(4) . . .
61(4) . . .
44(4) . . .
53(4) . . .
45.8(35) . . .
54(4) . . .
51(4) . . .
49(4) . . .
58(4) . . .
49(4) . . .
51(4) . . .
55(4) . . .
50(4) . . .
53(4) . . .
48(4) . . .
49(4) . . .
48(4) . . .
49(4) . . .
56(4) . . .
58(4) . . .
56(4) . . .
55(4) . . .
56(4) . . .
51(4) . . .
48(4) . . .
57(4) . . .
57(4) . . .
47(4) . . .
47(4) . . .
50(4) . . .
52(4) . . .
48(4) . . .
50(4) . . .
48(4) . . .
48(4) . . .
46(4) . . .
42(4) . . .
48(4) . . .
45(4) . . .
51(4) . . .
48(4) . . .
61(4) . . .
51(4) . . .
49(4) . . .
49(4) . . .
47(4) . . .
47(4) . . .
60(5) . . .
53(4) . . .
62(4) . . .
47(4) . . .
46(4) . . .
61(4) . . .
53(4) . . .
43.0(34) . . .
45(4) . . .
49(4) . . .
47(4) . . .
50(4) . . .
64(4) . . .
40.6(33) . . .
50(4) . . .
46(4) . . .
50(4) . . .
45.2(35) . . .
66(5) . . .
45(4) . . .
45(4) . . .
48(4) . . .
55(4) . . .
61(4) . . .
54(4) . . .
57(4) . . .
47(4) . . .
55(4) . . .
58(4) . . .
50(4) . . .
46(4) . . .
60(4) . . .
52(4) . . .
50(4) . . .
64(4) . . .
50(4) . . .
44.7(34) . . .
50(4) . . .
47(4) . . .
51(4) . . .
49(4) . . .
50(4) . . .
49(4) . . .
42.8(35) . . .
46(4) . . .
52(4) . . .
48(4) . . .
58(4) . . .
52(4) . . .
53(4) . . .
50(4) . . .
49(4) . . .
52(4) . . .
56(4) . . .
55(4) . . .
43(4) . . .
49(4) . . .
47(4) . . .
54(4) . . .
49(4) . . .
43(4) . . .
54(4) . . .
50(4) . . .
48(4) . . .
53(4) . . .
45(4) . . .
64(4) . . .
52(4) . . .
49(4) . . .
51(4) . . .
53(4) . . .
45(4) . . .
44(4) . . .
44(4) . . .
57(4) . . .
52(4) . . .
54(4) . . .
57(4) . . .
51(4) . . .
52(4) . . .
55(4) . . .
47(4) . . .
52(4) . . .
51(4) . . .
53(4) . . .
44.5(34) . . .
36.6(32) . . .
47(4) . . .
55(4) . . .
45(4) . . .
48(4) . . .
52(4) . . .
56(4) . . .
44(4) . . .
51(4) . . .
47(4) . . .
56(4) . . .
47(4) . . .
60(4) . . .
65(4) . . .
53(4) . . .
51(4) . . .
43(4) . . .
53(4) . . .
60(4) . . .
48(4) . . .
54(4) . . .
52(4) . . .
55(4) . . .
53(4) . . .
45(4) . . .
46(4) . . .
52(4) . . .
54(4) . . .
55(4) . . .
55(4) . . .
55(4) . . .
52(4) . . .
59(4) . . .
51(4) . . .
56(4) . . .
45.1(35) . . .
60(5) . . .
47(4) . . .
54(4) . . .
44.9(34) . . .
49(4) . . .
58(4) . . .
44.3(34) . . .
47(4) . . .
53(4) . . .
52(4) . . .
44(4) . . .
53(4) . . .
50(4) . . .
48(4) . . .
53(4) . . .
52(4) . . .
51(4) . . .
51(4) . . .
58(4) . . .
51(4) . . .
47(4) . . .
57(4) . . .
46(4) . . .
52(4) . . .
48(4) . . .
51(4) . . .
54(4) . . .
45.3(35) . . .
48(4) . . .
43(4) . . .
56(4) . . .
51(4) . . .
48(4) . . .
54(4) . . .
48(4) . . .
46(4) . . .
51(4) . . .
42.7(34) . . .
52(4) . . .
51(4) . . .
45.7(35) . . .
47(4) . . .
55(4) . . .
43(4) . . .
47(4) . . .
51(4) . . .
42.0(34) . . .
49(4) . . .
53(4) . . .
61(5) . . .
48(4) . . .
43.4(35) . . .
42.3(34) . . .
49(4) . . .
47(4) . . .
45(4) . . .
59(4) . . .
51(4) . . .
56(4) . . .
44(4) . . .
51(4) . . .
49(4) . . .
52(4) . . .
59(4) . . .
58(4) . . .
46(4) . . .
51(4) . . .
57(4) . . .
54(4) . . .
53(4) . . .
50(4) . . .
43.8(34) . . .
49(4) . . .
52(4) . . .
53(4) . . .
49(4) . . .
55(4) . . .
48(4) . . .
53(4) . . .
51(4) . . .
61(4) . . .
46(4) . . .
46(4) . . .
55(4) . . .
51(4) . . .
50(4) . . .
54(4) . . .
48(4) . . .
52(4) . . .
53(4) . . .
41.1(34) . . .
47(4) . . .
50(4) . . .
53(4) . . .
53(4) . . .
53(4) . . .
53(4) . . .
61(4) . . .
59(4) . . .
49(4) . . .
47(4) . . .
53(4) . . .
46(4) . . .
42(4) . . .
53(4) . . .
57(4) . . .
51(4) . . .
54(4) . . .
59(4) . . .
44.3(35) . . .
44.4(35) . . .
54(4) . . .
46(4) . . .
50(4) . . .
45(4) . . .
49(4) . . .
53(4) . . .
52(4) . . .
57(4) . . .
57(4) . . .
53(4) . . .
43.7(34) . . .
50(4) . . .
51(4) . . .
54(4) . . .
47(4) . . .
50(4) . . .
53(4) . . .
48(4) . . .
44.9(35) . . .
54(4) . . .
54(4) . . .
56(4) . . .
55(4) . . .
57(4) . . .
58(4) . . .
51(4) . . .
50(4) . . .
52(4) . . .
45.0(34) . . .
46(4) . . .
46(4) . . .
47(4) . . .
49(4) . . .
44.2(34) . . .
42.3(34) . . .
51(4) . . .
45(4) . . .
53(4) . . .
51(4) . . .
54(4) . . .
49(4) . . .
52(4) . . .
53(4) . . .
52(4) . . .
52(4) . . .
52(4) . . .
56(4) . . .
54(4) . . .
54(4) . . .
37.9(33) . . .
50(4) . . .
53(4) . . .
58(4) . . .
49(4) . . .
43.9(34) . . .
44(4) . . .
50(4) . . .
59(4) . . .
48(4) . . .
45(4) . . .
59(5) . . .
45(4) . . .
48(4) . . .
47(4) . . .
58(4) . . .
49(4) . . .
57(4) . . .
51(4) . . .
33.8(31) . . .
57(4) . . .
46(4) . . .
54(4) . . .
53(4) . . .
46(4) . . .
50(4) . . .
61(4) . . .
47(4) . . .
47(4) . . .
48(4) . . .
50(4) . . .
55(4) . . .
52(4) . . .
54(4) . . .
54(4) . . .
53(4) . . .
49(4) . . .
52(4) . . .
62(4) . . .
46(4) . . .
53(4) . . .
55(4) . . .
55(4) . . .
40.8(34) . . .
50(4) . . .
46(4) . . .
40.1(35) . . .
54(4) . . .
45.5(35) . . .
48(4) . . .
47(4) . . .
47(4) . . .
46(4) . . .
49(4) . . .
41.3(34) . . .
58(4) . . .
52(4) . . .
49(4) . . .
44.4(34) . . .
60(4) . . .
45(4) . . .
55(4) . . .
54(4) . . .
49(4) . . .
48(4) . . .
47(4) . . .
48(4) . . .
45(4) . . .
39.5(33) . . .
45(4) . . .
40.0(32) . . .
53(4) . . .
49(4) . . .
47(4) . . .
49(4) . . .
38.3(34) . . .
46(4) . . .
51(4) . . .
49(4) . . .
53(4) . . .
52(4) . . .
53(4) . . .
49(4) . . .
53(4) . . .
55(4) . . .
46(4) . . .
49(4) . . .
54(4) . . .
58(4) . . .
52(4) . . .
57(4) . . .
55(4) . . .
54(4) . . .
43.2(34) . . .
39.1(33) . . .
45(4) . . .
54(4) . . .
52(4) . . .
53(4) . . .
47(4) . . .
51(4) . . .
52(4) . . .
50(4) . . .
53(4) . . .
53(4) . . .
57(4) . . .
48(4) . . .
38.3(33) . . .
48(4) . . .
44(4) . . .
36.7(33) . . .
43.4(35) . . .
58(4) . . .
48(4) . . .
48(4) . . .
47(4) . . .
60(4) . . .
51(4) . . .
45(4) . . .
54(4) . . .
51(4) . . .
45.4(35) . . .
46(4) . . .
51(4) . . .
48(4) . . .
46(4) . . .
46(4) . . .
50(4) . . .
45(4) . . .
38.2(35) . . .
47(4) . . .
51(4) . . .
50(4) . . .
45(4) . . .
49(4) . . .
48(4) . . .
48(4) . . .
47(4) . . .
52(4) . . .
45(4) . . .
50(4) . . .
49(4) . . .
38.1(32) . . .
47(4) . . .
52(4) . . .
60(4) . . .
51(4) . . .
50(4) . . .
54(4) . . .
49(4) . . .
51(4) . . .
52(4) . . .
51(4) . . .
42(4) . . .
42(4) . . .
52(4) . . .
50(4) . . .
45(4) . . .
47(4) . . .
48(4) . . .
37.8(35) . . .
52(4) . . .
55(4) . . .
53(4) . . .
42.0(34) . . .
47(4) . . .
57(4) . . .
44(4) . . .
45(4) . . .
60(4) . . .
53(4) . . .
54(4) . . .
46(4) . . .
50(4) . . .
59(4) . . .
40.4(33) . . .
45(4) . . .
51(4) . . .
52(4) . . .
51(4) . . .
50(4) . . .
50(4) . . .
52(4) . . .
54(4) . . .
45.0(35) . . .
45.8(35) . . .
44.4(35) . . .
44(4) . . .
49(4) . . .
47(4) . . .
51(4) . . .
44.3(35) . . .
52(4) . . .
44(4) . . .
48(4) . . .
52(4) . . .
51(4) . . .
53(4) . . .
43(4) . . .
50(4) . . .
50(4) . . .
51(4) . . .
47(4) . . .
50(4) . . .
48(4) . . .
56(4) . . .
40.8(33) . . .
43.9(34) . . .
57(4) . . .
52(4) . . .
46(4) . . .
42(4) . . .
49(4) . . .
48(4) . . .
54(4) . . .
45.8(35) . . .
50(4) . . .
54(4) . . .
48(4) . . .
45.7(35) . . .
50(4) . . .
42(4) . . .
44(4) . . .
46(4) . . .
49(4) . . .
46.8(35) . . .
52(4) . . .
47(4) . . .
51(4) . . .
51(4) . . .
42.6(34) . . .
44(4) . . .
57(4) . . .
61(4) . . .
53(4) . . .
55(4) . . .
43.8(34) . . .
50(4) . . .
49(4) . . .
42.3(35) . . .
48(4) . . .
48(4) . . .
55(4) . . .
45(4) . . .
46(4) . . .
48(4) . . .
54(4) . . .
49(4) . . .
49(4) . . .
55(4) . . .
55(4) . . .
45(4) . . .
44(4) . . .
42.7(34) . . .
48(4) . . .
51(4) . . .
49(4) . . .
46(4) . . .
54(4) . . .
43.5(35) . . .
36.9(32) . . .
47(4) . . .
55(4) . . .
48(4) . . .
43.0(34) . . .
55(4) . . .
54(4) . . .
55(4) . . .
53(4) . . .
50(4) . . .
56(4) . . .
49(4) . . .
49(4) . . .
46(4) . . .
51(4) . . .
50(4) . . .
49(4) . . .
47(4) . . .
47(4) . . .
54(4) . . .
49(4) . . .
45(4) . . .
49(4) . . .
50(4) . . .
48(4) . . .
54(4) . . .
54(4) . . .
52(4) . . .
46(4) . . .
50(4) . . .
50(4) . . .
60(4) . . .
42.0(34) . . .
51(4) . . .
51(4) . . .
47(4) . . .
53(4) . . .
51(4) . . .
44.0(34) . . .
52(4) . . .
38.4(34) . . .
34.5(33) . . .
47(4) . . .
48(4) . . .
52(4) . . .
49(4) . . .
41(4) . . .
36.7(31) . . .
46(4) . . .
38.4(32) . . .
56(4) . . .
50(4) . . .
54(4) . . .
43.4(35) . . .
49(4) . . .
61(4) . . .
50(4) . . .
47(4) . . .
46(4) . . .
51(4) . . .
53(4) . . .
46(4) . . .
48(4) . . .
47(4) . . .
46(4) . . .
51(4) . . .
35.0(30) . . .
46(4) . . .
47(4) . . .
50(4) . . .
48(4) . . .
57(4) . . .
49(4) . . .
55(4) . . .
51(4) . . .
53(4) . . .
51(4) . . .
50(4) . . .
48(4) . . .
50(4) . . .
45.7(35) . . .
45.1(35) . . .
54(4) . . .
46.1(35) . . .
47(4) . . .
54(4) . . .
55(4) . . .
51(4) . . .
56(4) . . .
60(4) . . .
47(4) . . .
48(4) . . .
34.6(31) . . .
50(4) . . .
49(4) . . .
56(4) . . .
46(4) . . .
40.9(33) . . .
38.2(34) . . .
51(4) . . .
42(4) . . .
42.8(34) . . .
49(4) . . .
44(4) . . .
40.5(33) . . .
54(4) . . .
50(4) . . .
49(4) . . .
49(4) . . .
49(4) . . .
40.4(35) . . .
47(4) . . .
46(4) . . .
46(4) . . .
51(4) . . .
47(4) . . .
45.2(35) . . .
45.1(35) . . .
53(4) . . .
50(4) . . .
39.0(32) . . .
48(4) . . .
46.5(35) . . .
53(4) . . .
39.8(34) . . .
54(4) . . .
46.0(35) . . .
49(4) . . .
45(4) . . .
55(4) . . .
40.2(35) . . .
46(4) . . .
60(4) . . .
46(4) . . .
45(4) . . .
38.5(34) . . .
52(4) . . .
34.7(30) . . .
45(4) . . .
46(4) . . .
48(4) . . .
51(4) . . .
54(4) . . .
45(4) . . .
53(4) . . .
53(4) . . .
51(4) . . .
47(4) . . .
63(4) . . .
44(4) . . .
46(4) . . .
51(4) . . .
44(4) . . .
47(4) . . .
57(4) . . .
50(4) . . .
47(4) . . .
43.4(35) . . .
43(4) . . .
53(4) . . .
49(4) . . .
52(4) . . .
50(4) . . .
56(4) . . .
58(4) . . .
52(4) . . .
48(4) . . .
48(4) . . .
46(4) . . .
41.6(35) . . .
46(4) . . .
48(4) . . .
46(4) . . .
51(4) . . .
49(4) . . .
42.1(34) . . .
49(4) . . .
51(4) . . .
51(4) . . .
52(4) . . .
46(4) . . .
45(4) . . .
54(4) . . .
53(4) . . .
53(4) . . .
63(4) . . .
45.4(35) . . .
55(4) . . .
48(4) . . .
50(4) . . .
43.6(35) . . .
37.8(32) . . .
55(4) . . .
45(4) . . .
47(4) . . .
52(4) . . .
56(4) . . .
46(4) . . .
47(4) . . .
51(4) . . .
50(4) . . .
51(4) . . .
49(4) . . .
47(4) . . .
45(4) . . .
43.3(35) . . .
49(4) . . .
53(4) . . .
51(4) . . .
55(4) . . .
52(4) . . .
49(4) . . .
48(4) . . .
40(4) . . .
44(4) . . .
53(4) . . .
53(4) . . .
47(4) . . .
49(4) . . .
60(4) . . .
60(4) . . .
50(4) . . .
42.3(35) . . .
48(4) . . .
44.5(34) . . .
62(4) . . .
54(4) . . .
52(4) . . .
59(4) . . .
45.7(35) . . .
52(4) . . .
43.5(35) . . .
63(4) . . .
53(4) . . .
44.2(35) . . .
48(4) . . .
49(4) . . .
52(4) . . .
52(4) . . .
49(4) . . .
46.2(35) . . .
49(4) . . .
48(4) . . .
47(4) . . .
45.8(35) . . .
48(4) . . .
45(4) . . .
50(4) . . .
39.2(33) . . .
50(4) . . .
43.3(34) . . .
55(4) . . .
50(4) . . .
52(4) . . .
48(4) . . .
35.8(32) . . .
41(4) . . .
46(4) . . .
44(4) . . .
47(4) . . .
54(4) . . .
47(4) . . .
48(4) . . .
58(4) . . .
52(4) . . .
46(4) . . .
41.3(33) . . .
51(4) . . .
48(4) . . .
40.3(33) . . .
47(4) . . .
45(4) . . .
50(4) . . .
45(4) . . .
47(4) . . .
43(4) . . .
48(4) . . .
51(4) . . .
46.8(35) . . .
44.1(35) . . .
44(4) . . .
51(4) . . .
44.6(35) . . .
49(4) . . .
54(4) . . .
48(4) . . .
51(4) . . .
43.6(35) . . .
53(4) . . .
50(4) . . .
48(4) . . .
50(4) . . .
44(4) . . .
50(4) . . .
51(4) . . .
49(4) . . .
49(4) . . .
49(4) . . .
35.6(31) . . .
48(4) . . .
51(4) . . .
45(4) . . .
41.1(34) . . .
40.7(33) . . .
51(4) . . .
50(4) . . .
49(4) . . .
41.5(34) . . .
40.1(33) . . .
46(4) . . .
42.0(34) . . .
49(4) . . .
45(4) . . .
53(4) . . .
48(4) . . .
51(4) . . .
55(4) . . .
43.5(34) . . .
43.7(34) . . .
43.5(34) . . .
55(4) . . .
39.6(34) . . .
40.9(34) . . .
54(4) . . .
52(4) . . .
43(4) . . .
55(4) . . .
48(4) . . .
50(4) . . .
51(4) . . .
47(4) . . .
49(4) . . .
52(4) . . .
45.0(34) . . .
54(4) . . .
48(4) . . .
48(4) . . .
54(4) . . .
47(4) . . .
49(4) . . .
42(4) . . .
45(4) . . .
55(4) . . .
42.8(34) . . .
47(4) . . .
53(4) . . .
48(4) . . .
54(4) . . .
48(4) . . .
53(4) . . .
54(4) . . .
46(4) . . .
45.1(35) . . .
51(4) . . .
57(4) . . .
50(4) . . .
44(4) . . .
47(4) . . .
39.9(33) . . .
53(4) . . .
40.8(33) . . .
43.6(34) . . .
47(4) . . .
54(4) . . .
45.9(34) . . .
47(4) . . .
52(4) . . .
50(4) . . .
54(4) . . .
47(4) . . .
49(4) . . .
45(4) . . .
48(4) . . .
52(4) . . .
58(4) . . .
52(4) . . .
50(4) . . .
50(4) . . .
58(4) . . .
53(4) . . .
45(4) . . .
52(4) . . .
46(4) . . .
51(4) . . .
49(4) . . .
50(4) . . .
41.1(34) . . .
49(4) . . .
54(4) . . .
51(4) . . .
48(4) . . .
48(4) . . .
57(4) . . .
42.6(35) . . .
44(4) . . .
52(4) . . .
49(4) . . .
50(4) . . .
38.4(33) . . .
39.6(34) . . .
54(4) . . .
58(4) . . .
48(4) . . .
49(4) . . .
46(4) . . .
43.0(34) . . .
55(4) . . .
37.3(32) . . .
44(4) . . .
48(4) . . .
43.6(35) . . .
64(4) . . .
54(4) . . .
52(4) . . .
53(4) . . .
54(4) . . .
43.2(34) . . .
45(4) . . .
48(4) . . .
51(4) . . .
40.3(33) . . .
48(4) . . .
50(4) . . .
47(4) . . .
53(4) . . .
46(4) . . .
43.8(34) . . .
48(4) . . .
55(4) . . .
48(4) . . .
49(4) . . .
56(4) . . .
47(4) . . .
41(4) . . .
45(4) . . .
50(4) . . .
53(4) . . .
49(4) . . .
51(4) . . .
46(4) . . .
39.2(33) . . .
48(4) . . .
54(4) . . .
40.0(35) . . .
54(4) . . .
58(4) . . .
46(4) . . .
49(4) . . .
63(4) . . .
48(4) . . .
43.5(34) . . .
57(4) . . .
53(4) . . .
49(4) . . .
47(4) . . .
50(4) . . .
50(4) . . .
47(4) . . .
41.4(34) . . .
57(4) . . .
53(4) . . .
51(4) . . .
47(4) . . .
50(4) . . .
50(4) . . .
47(4) . . .
57(4) . . .
51(4) . . .
40.4(33) . . .
43.7(35) . . .
48(4) . . .
41.0(34) . . .
47(4) . . .
51(4) . . .
48(4) . . .
53(4) . . .
56(4) . . .
53(4) . . .
52(4) . . .
53(4) . . .
42.4(34) . . .
56(4) . . .
53(4) . . .
42.6(34) . . .
43.9(34) . . .
52(4) . . .
50(4) . . .
55(4) . . .
44(4) . . .
36.4(31) . . .
33.7(30) . . .
40.5(34) . . .
35.7(32) . . .
40.1(34) . . .
51(4) . . .
41.0(34) . . .
50(4) . . .
42(4) . . .
51(4) . . .
49(4) . . .
41.6(35) . . .
47(4) . . .
45(4) . . .
48(4) . . .
47(4) . . .
46(4) . . .
49(4) . . .
52(4) . . .
43.2(34) . . .
56(4) . . .
54(4) . . .
48(4) . . .
46(4) . . .
40.9(33) . . .
47(4) . . .
49(4) . . .
51(4) . . .
44(4) . . .
44.9(35) . . .
40.2(34) . . .
49(4) . . .
55(4) . . .
49(4) . . .
48(4) . . .
49(4) . . .
47(4) . . .
47(4) . . .
44.0(35) . . .
48(4) . . .
53(4) . . .
46(4) . . .
51(4) . . .
38.3(32) . . .
46(4) . . .
44.2(34) . . .
48(4) . . .
49(4) . . .
53(4) . . .
48(4) . . .
48(4) . . .
52(4) . . .
50(4) . . .
41.0(34) . . .
42.8(35) . . .
46(4) . . .
47(4) . . .
45(4) . . .
35.4(31) . . .
51(4) . . .
40.6(33) . . .
48(4) . . .
43(4) . . .
60(4) . . .
54(4) . . .
46(4) . . .
35.6(31) . . .
43.6(35) . . .
49(4) . . .
51(4) . . .
53(4) . . .
49(4) . . .
41.0(34) . . .
51(4) . . .
52(4) . . .
50(4) . . .
53(4) . . .
56(4) . . .
53(4) . . .
39.7(33) . . .
49(4) . . .
46(4) . . .
56(4) . . .
58(4) . . .
49(4) . . .
54(4) . . .
47(4) . . .
49(4) . . .
48(4) . . .
48(4) . . .
42.7(35) . . .
40.4(33) . . .
51(4) . . .
54(4) . . .
52(4) . . .
43(4) . . .
50(4) . . .
52(4) . . .
43.6(34) . . .
47(4) . . .
54(4) . . .
44(4) . . .
49(4) . . .
44.4(35) . . .
56(4) . . .
46(4) . . .
50(4) . . .
49(4) . . .
54(4) . . .
47(4) . . .
49(4) . . .
41.2(35) . . .
51(4) . . .
46(4) . . .
53(4) . . .
56(4) . . .
53(4) . . .
56(4) . . .
49(4) . . .
48(4) . . .
51(4) . . .
53(4) . . .
54(4) . . .
52(4) . . .
47(4) . . .
44(4) . . .
50(4) . . .
60(4) . . .
51(4) . . .
52(4) . . .
55(4) . . .
47(4) . . .
47(4) . . .
52(4) . . .
57(4) . . .
49(4) . . .
47(4) . . .
54(4) . . .
48(4) . . .
44.7(34) . . .
46(4) . . .
52(4) . . .
42.2(33) . . .
54(4) . . .
42.2(34) . . .
48(4) . . .
51(4) . . .
42.2(34) . . .
48(4) . . .
52(4) . . .
42(4) . . .
47(4) . . .
52(4) . . .
49(4) . . .
51(4) . . .
44(4) . . .
44(4) . . .
50(4) . . .
53(4) . . .
45(4) . . .
46(4) . . .
51(4) . . .
44.1(35) . . .
45(4) . . .
52(4) . . .
48(4) . . .
49(4) . . .
53(4) . . .
48(4) . . .
56(4) . . .
51(4) . . .
52(4) . . .
45.0(35) . . .
46(4) . . .
48(4) . . .
47(4) . . .
44(4) . . .
48(4) . . .
46(4) . . .
49(4) . . .
60(4) . . .
48(4) . . .
44.2(35) . . .
45(4) . . .
49(4) . . .
65(5) . . .
46(4) . . .
43.7(34) . . .
45(4) . . .
47(4) . . .
39.2(33) . . .
51(4) . . .
54(4) . . .
40.3(33) . . .
45(4) . . .
44(4) . . .
45(4) . . .
48(4) . . .
49(4) . . .
48(4) . . .
46(4) . . .
45.6(35) . . .
50(4) . . .
50(4) . . .
48(4) . . .
53(4) . . .
43.5(35) . . .
40.6(34) . . .
48(4) . . .
47(4) . . .
43.4(35) . . .
47(4) . . .
52(4) . . .
52(4) . . .
54(4) . . .
48(4) . . .
51(4) . . .
52(4) . . .
46(4) . . .
47(4) . . .
57(4) . . .
52(4) . . .
50(4) . . .
49(4) . . .
47(4) . . .
51(4) . . .
52(4) . . .
48(4) . . .
50(4) . . .
54(4) . . .
47(4) . . .
47.0(35) . . .
61(5) . . .
48(4) . . .
46(4) . . .
47(4) . . .
46(4) . . .
49(4) . . .
54(4) . . .
44(4) . . .
46(4) . . .
50(4) . . .
46(4) . . .
43.5(35) . . .
47(4) . . .
41.6(35) . . .
45(4) . . .
47(4) . . .
50(4) . . .
49(4) . . .
48(4) . . .
45(4) . . .
50(4) . . .
35.7(31) . . .
46(4) . . .
48(4) . . .
49(4) . . .
48(4) . . .
59(4) . . .
51(4) . . .
44.3(35) . . .
45.0(35) . . .
48(4) . . .
45(4) . . .
45(4) . . .
50(4) . . .
42.2(35) . . .
50(4) . . .
49(4) . . .
46(4) . . .
49(4) . . .
58(4) . . .
52(4) . . .
39.7(33) . . .
50(4) . . .
52(4) . . .
56(4) . . .
52(4) . . .
48(4) . . .
45(4) . . .
46(4) . . .
45(4) . . .
41.5(34) . . .
47(4) . . .
60(4) . . .
52(4) . . .
35.7(31) . . .
47(4) . . .
47(4) . . .
50(4) . . .
49(4) . . .
47(4) . . .
46(4) . . .
48(4) . . .
50(4) . . .
53(4) . . .
44.8(34) . . .
56(4) . . .
51(4) . . .
54(4) . . .
58(4) . . .
44.1(34) . . .
62(5) . . .
47(4) . . .
48(4) . . .
47(4) . . .
46(4) . . .
60(4) . . .
53(4) . . .
53(4) . . .
50(4) . . .
46(4) . . .
46(4) . . .
55(4) . . .
44.2(34) . . .
57(4) . . .
41(4) . . .
48(4) . . .
61(4) . . .
55(4) . . .
42(4) . . .
42.0(34) . . .
51(4) . . .
53(4) . . .
41.2(33) . . .
43(4) . . .
41.8(34) . . .
46(4) . . .
44.3(35) . . .
43.7(34) . . .
48(4) . . .
35.2(32) . . .
47(4) . . .
58(4) . . .
49(4) . . .
54(4) . . .
49(4) . . .
49(4) . . .
54(4) . . .
49(4) . . .
58(4) . . .
52(4) . . .
55(4) . . .
47(4) . . .
52(4) . . .
41.7(34) . . .
52(4) . . .
52(4) . . .
47(4) . . .
42.1(33) . . .
47(4) . . .
54(4) . . .
45(4) . . .
46(4) . . .
52(4) . . .
46(4) . . .
48(4) . . .
45(4) . . .
46(4) . . .
50(4) . . .
43(4) . . .
47(4) . . .
47(4) . . .
48(4) . . .
55(4) . . .
44.2(33) . . .
41.0(34) . . .
51(4) . . .
54(4) . . .
54(4) . . .
43.4(35) . . .
51(4) . . .
46(4) . . .
46(4) . . .
50(4) . . .
57(4) . . .
54(4) . . .
51(4) . . .
50(4) . . .
50(4) . . .
52(4) . . .
41.8(35) . . .
46(4) . . .
50(4) . . .
57(4) . . .
48(4) . . .
44(4) . . .
42.9(35) . . .
46.0(35) . . .
50(4) . . .
45(4) . . .
37.2(32) . . .
49(4) . . .
42.8(34) . . .
50(4) . . .
40(4) . . .
45(4) . . .
49(4) . . .
50(4) . . .
46(4) . . .
51(4) . . .
39.1(34) . . .
59(4) . . .
50(4) . . .
39.1(33) . . .
43(4) . . .
51(4) . . .
38.8(33) . . .
43.4(35) . . .
54(4) . . .
58(4) . . .
50(4) . . .
38.7(32) . . .
52(4) . . .
51(4) . . .
37.2(31) . . .
46(4) . . .
53(4) . . .
47(4) . . .
44.2(34) . . .
51(4) . . .
40.0(34) . . .
59(4) . . .
42(4) . . .
48(4) . . .
55(4) . . .
48(4) . . .
52(4) . . .
48(4) . . .
44(4) . . .
42.6(35) . . .
58(4) . . .
52(4) . . .
51(4) . . .
56(4) . . .
47(4) . . .
59(4) . . .
57(4) . . .
53(4) . . .
43(4) . . .
47(4) . . .
47(4) . . .
42.8(34) . . .
45(4) . . .
52(4) . . .
41.1(34) . . .
49(4) . . .
48(4) . . .
42(4) . . .
48(4) . . .
41.8(34) . . .
49(4) . . .
52(4) . . .
38.4(32) . . .
52(4) . . .
64(5) . . .
44.1(35) . . .
38.4(33) . . .
45.2(35) . . .
43.2(35) . . .
46(4) . . .
48(4) . . .
42.3(34) . . .
44(4) . . .
46(4) . . .
45(4) . . .
42.0(34) . . .
53(4) . . .
44.3(35) . . .
49(4) . . .
42.9(34) . . .
36.3(31) . . .
55(4) . . .
51(4) . . .
51(4) . . .
49(4) . . .
46(4) . . .
53(4) . . .
47(4) . . .
46(4) . . .
49(4) . . .
40.5(33) . . .
47(4) . . .
47(4) . . .
56(4) . . .
52(4) . . .
43.7(34) . . .
41.1(33) . . .
43(4) . . .
45(4) . . .
47(4) . . .
47(4) . . .
56(4) . . .
39(4) . . .
46(4) . . .
48(4) . . .
45.3(35) . . .
42(4) . . .
49(4) . . .
45(4) . . .
50(4) . . .
54(4) . . .
52(4) . . .
49(4) . . .
46(4) . . .
51(4) . . .
46(4) . . .
45(4) . . .
43(4) . . .
53(4) . . .
41.6(33) . . .
57(4) . . .
52(4) . . .
42.7(34) . . .
47(4) . . .
42.5(34) . . .
44(4) . . .
50(4) . . .
41.4(34) . . .
50(4) . . .
45.2(35) . . .
51(4) . . .
61(4) . . .
52(4) . . .
50(4) . . .
57(4) . . .
54(4) . . .
43(4) . . .
43(4) . . .
54(4) . . .
48(4) . . .
51(4) . . .
49(4) . . .
37.6(32) . . .
49(4) . . .
44.7(35) . . .
45(4) . . .
48(4) . . .
54(4) . . .
52(4) . . .
52(4) . . .
49(4) . . .
46(4) . . .
53(4) . . .
40.9(33) . . .
51(4) . . .
38.0(33) . . .
41.2(34) . . .
53(4) . . .
51(4) . . .
45(4) . . .
47(4) . . .
50(4) . . .
48(4) . . .
51(4) . . .
40.4(33) . . .
52(4) . . .
40.4(34) . . .
44(4) . . .
52(4) . . .
42.6(34) . . .
49(4) . . .
43(4) . . .
47(4) . . .
39.8(33) . . .
51(4) . . .
51(4) . . .
42.0(35) . . .
39.2(33) . . .
58(4) . . .
51(4) . . .
42.3(34) . . .
48(4) . . .
47(4) . . .
46(4) . . .
42(4) . . .
47(4) . . .
55(4) . . .
51(4) . . .
48(4) . . .
49(4) . . .
41(4) . . .
45(4) . . .
40.2(33) . . .
40.2(34) . . .
51(4) . . .
55(4) . . .
46(4) . . .
42.6(34) . . .
34.2(31) . . .
36.0(33) . . .
47(4) . . .
43(4) . . .
49(4) . . .
47(4) . . .
42.6(35) . . .
50(4) . . .
44(4) . . .
49(4) . . .
41.0(33) . . .
55(4) . . .
45(4) . . .
43(4) . . .
49(4) . . .
50(4) . . .
48(4) . . .
36.5(33) . . .
52(4) . . .
45.2(35) . . .
55(4) . . .
45(4) . . .
45(4) . . .
45(4) . . .
49(4) . . .
52(4) . . .
49(4) . . .
51(4) . . .
47(4) . . .
40.7(33) . . .
44(4) . . .
42.9(34) . . .
44.4(34) . . .
48(4) . . .
45.0(35) . . .
53(4) . . .
49(4) . . .
50(4) . . .
54(4) . . .
50(4) . . .
38.5(33) . . .
41(4) . . .
41.4(34) . . .
45(4) . . .
41.8(34) . . .
47(4) . . .
50(4) . . .
37.5(33) . . .
48(4) . . .
43.0(34) . . .
59(4) . . .
48(4) . . .
40(4) . . .
34.0(31) . . .
50(4) . . .
48(4) . . .
43(4) . . .
50(4) . . .
44.8(35) . . .
40.1(33) . . .
36.9(31) . . .
42(4) . . .
40.4(34) . . .
46(4) . . .
43.7(34) . . .
44.6(34) . . .
36.1(32) . . .
46(4) . . .
37.9(32) . . .
41.8(35) . . .
56(4) . . .
42(4) . . .
45(4) . . .
47(4) . . .
40.8(33) . . .
46(4) . . .
43.2(34) . . .
50(4) . . .
54(4) . . .
38.8(33) . . .
57(4) . . .
47(4) . . .
48(4) . . .
46(4) . . .
55(4) . . .
45(4) . . .
52(4) . . .
43(4) . . .
50(4) . . .
47(4) . . .
50(4) . . .
46(4) . . .
48(4) . . .
39.4(33) . . .
52(4) . . .
54(4) . . .
44(4) . . .
43.1(34) . . .
46(4) . . .
41.6(34) . . .
46(4) . . .
47(4) . . .
48(4) . . .
57(4) . . .
51(4) . . .
45(4) . . .
48(4) . . .
50(4) . . .
50(4) . . .
54(4) . . .
46(4) . . .
48(4) . . .
47(4) . . .
51(4) . . .
50(4) . . .
46(4) . . .
46(4) . . .
37.5(32) . . .
49(4) . . .
47(4) . . .
44(4) . . .
51(4) . . .
48(4) . . .
44(4) . . .
48(4) . . .
47(4) . . .
53(4) . . .
50(4) . . .
44.3(35) . . .
47(4) . . .
46(4) . . .
46(4) . . .
59(4) . . .
61(4) . . .
55(4) . . .
44(4) . . .
39.3(33) . . .
42.8(34) . . .
56(4) . . .
43(4) . . .
40.6(34) . . .
52(4) . . .
50(4) . . .
45.6(35) . . .
42.1(35) . . .
45(4) . . .
48(4) . . .
45.5(35) . . .
46(4) . . .
42(4) . . .
43(4) . . .
47(4) . . .
55(4) . . .
43(4) . . .
43(4) . . .
53(4) . . .
38.2(32) . . .
40.9(33) . . .
41.7(34) . . .
48(4) . . .
52(4) . . .
36.8(32) . . .
51(4) . . .
43(4) . . .
47(4) . . .
41.6(34) . . .
39.2(32) . . .
47(4) . . .
39.9(33) . . .
48(4) . . .
52(4) . . .
55(4) . . .
52(4) . . .
50(4) . . .
42.7(34) . . .
45(4) . . .
46(4) . . .
46(4) . . .
39.5(32) . . .
46(4) . . .
43(4) . . .
47(4) . . .
47(4) . . .
41.3(34) . . .
52(4) . . .
50(4) . . .
45.4(35) . . .
49(4) . . .
44(4) . . .
40.1(35) . . .
45.6(35) . . .
43.5(34) . . .
46(4) . . .
42(4) . . .
47(4) . . .
46(4) . . .
43(4) . . .
49(4) . . .
52(4) . . .
38.5(32) . . .
51(4) . . .
46(4) . . .
55(4) . . .
50(4) . . .
50(4) . . .
39.1(33) . . .
50(4) . . .
55(4) . . .
48(4) . . .
44(4) . . .
47(4) . . .
49(4) . . .
47(4) . . .
45(4) . . .
43.1(35) . . .
49(4) . . .
46(4) . . .
44(4) . . .
42.1(35) . . .
37.0(34) . . .
55(4) . . .
44(4) . . .
47(4) . . .
48(4) . . .
40.0(35) . . .
46(4) . . .
45(4) . . .
42.7(35) . . .
43.1(35) . . .
43(4) . . .
39.1(32) . . .
40.4(34) . . .
47(4) . . .
42.6(35) . . .
49(4) . . .
46(4) . . .
50(4) . . .
49(4) . . .
47(4) . . .
50(4) . . .
53(4) . . .
45(4) . . .
39.6(35) . . .
44.7(35) . . .
50(4) . . .
48(4) . . .
46(4) . . .
39(4) . . .
48(4) . . .
59(4) . . .
50(4) . . .
43.5(34) . . .
48(4) . . .
50(4) . . .
48(4) . . .
43.3(34) . . .
46(4) . . .
40.9(34) . . .
50(4) . . .
52(4) . . .
40.8(33) . . .
51(4) . . .
55(4) . . .
36.5(33) . . .
48(4) . . .
53(4) . . .
46.1(34) . . .
49(4) . . .
41.1(33) . . .
43.5(34) . . .
53(4) . . .
49(4) . . .
45(4) . . .
47(4) . . .
51(4) . . .
47(4) . . .
39.7(34) . . .
41.3(35) . . .
35.6(32) . . .
48(4) . . .
44(4) . . .
38.7(33) . . .
45(4) . . .
43.8(35) . . .
51(4) . . .
52(4) . . .
44.9(35) . . .
56(4) . . .
55(4) . . .
39.9(33) . . .
45(4) . . .
43(4) . . .
51(4) . . .
45(4) . . .
51(4) . . .
48(4) . . .
45(4) . . .
47(4) . . .
41.5(34) . . .
56(4) . . .
47(4) . . .
55(4) . . .
53(4) . . .
46(4) . . .
39.8(33) . . .
40.5(34) . . .
44(4) . . .
46(4) . . .
42.3(33) . . .
40.4(33) . . .
53(4) . . .
40(4) . . .
51(4) . . .
47(4) . . .
51(4) . . .
42.4(34) . . .
46(4) . . .
40.9(35) . . .
51(4) . . .
59(4) . . .
50(4) . . .
40(4) . . .
46(4) . . .
42.6(34) . . .
42(4) . . .
49(4) . . .
45(4) . . .
45(4) . . .
42.5(34) . . .
44.1(34) . . .
48(4) . . .
45(4) . . .
35.7(31) . . .
45.8(35) . . .
43(4) . . .
54(4) . . .
46(4) . . .
54(4) . . .
49(4) . . .
40.7(33) . . .
39.7(34) . . .
40.3(33) . . .
51(4) . . .
48(4) . . .
43.6(35) . . .
52(4) . . .
50(4) . . .
55(4) . . .
48(4) . . .
46(4) . . .
40.4(34) . . .
45(4) . . .
50(4) . . .
48(4) . . .
44(4) . . .
48(4) . . .
44(4) . . .
52(4) . . .
51(4) . . .
58(4) . . .
45(4) . . .
51(4) . . .
51(4) . . .
47(4) . . .
38.1(31) . . .
43.2(34) . . .
56(4) . . .
53(4) . . .
42.7(35) . . .
50(4) . . .
44(4) . . .
37.7(33) . . .
52(4) . . .
44.6(35) . . .
48(4) . . .
47(4) . . .
51(4) . . .
58(4) . . .
48(4) . . .
52(4) . . .
54(4) . . .
45.0(35) . . .
49(4) . . .
46(4) . . .
42(4) . . .
49(4) . . .
50(4) . . .
56(4) . . .
46(4) . . .
43.6(33) . . .
51(4) . . .
44(4) . . .
48(4) . . .
39.3(33) . . .
42(4) . . .
35.2(33) . . .
49(4) . . .
49(4) . . .
54(4) . . .
48(4) . . .
52(4) . . .
54(4) . . .
48(4) . . .
39.4(34) . . .
37.5(34) . . .
40.7(35) . . .
49(4) . . .
47(4) . . .
34.2(31) . . .
42(4) . . .
45.0(34) . . .
51(4) . . .
43(4) . . .
43.4(35) . . .
39.6(34) . . .
47(4) . . .
54(4) . . .
51(4) . . .
46(4) . . .
44(4) . . .
43.0(34) . . .
48(4) . . .
40.2(34) . . .
54(4) . . .
46(4) . . .
51(4) . . .
49(4) . . .
42.3(34) . . .
47(4) . . .
52(4) . . .
56(4) . . .
43.4(34) . . .
50(4) . . .
49(4) . . .
42.5(34) . . .
42(4) . . .
38.8(33) . . .
43(4) . . .
45(4) . . .
52(4) . . .
49(4) . . .
50(4) . . .
49(4) . . .
54(4) . . .
39.2(33) . . .
43(4) . . .
42.3(34) . . .
46(4) . . .
53(4) . . .
46(4) . . .
43.1(34) . . .
49(4) . . .
30.3(29) . . .
47(4) . . .
47(4) . . .
41.7(34) . . .
45.2(35) . . .
61(4) . . .
50(4) . . .
51(4) . . .
44(4) . . .
45(4) . . .
43.5(35) . . .
41(4) . . .
41.8(34) . . .
39.4(33) . . .
32.0(30) . . .
52(4) . . .
49(4) . . .
49(4) . . .
42.2(34) . . .
41.9(34) . . .
37.7(35) . . .
40(4) . . .
42.0(35) . . .
39.2(33) . . .
51(4) . . .
42.8(34) . . .
47(4) . . .
46(4) . . .
48(4) . . .
38.5(33) . . .
46(4) . . .
45(4) . . .
35.9(32) . . .
45(4) . . .
50(4) . . .
51(4) . . .
40.6(34) . . .
48(4) . . .
43.2(35) . . .
50(4) . . .
50(4) . . .
47(4) . . .
49(4) . . .
43.1(34) . . .
44(4) . . .
44(4) . . .
51(4) . . .
48(4) . . .
48(4) . . .
46(4) . . .
48(4) . . .
48(4) . . .
44.2(35) . . .
47(4) . . .
48(4) . . .
49(4) . . .
42(4) . . .
42.8(34) . . .
52(4) . . .
47(4) . . .
47(4) . . .
55(4) . . .
46(4) . . .
46(4) . . .
47(4) . . .
43(4) . . .
52(4) . . .
46(4) . . .
36.0(33) . . .
41.7(35) . . .
53(4) . . .
44(4) . . .
46(4) . . .
46(4) . . .
47(4) . . .
42(4) . . .
34.5(33) . . .
47(4) . . .
48(4) . . .
56(4) . . .
60(4) . . .
49(4) . . .
46(4) . . .
46(4) . . .
35.7(32) . . .
41.4(34) . . .
40.5(35) . . .
51(4) . . .
49(4) . . .
47(4) . . .
44(4) . . .
52(4) . . .
40.8(33) . . .
45(4) . . .
50(4) . . .
46(4) . . .
36.4(32) . . .
49(4) . . .
42.7(34) . . .
53(4) . . .
46(4) . . .
39.5(33) . . .
43.8(34) . . .
39.5(34) . . .
49(4) . . .
50(4) . . .
43.8(34) . . .
52(4) . . .
40.4(33) . . .
44(4) . . .
48(4) . . .
44.8(35) . . .
46(4) . . .
51(4) . . .
51(4) . . .
54(4) . . .
50(4) . . .
37.2(34) . . .
47(4) . . .
37.4(33) . . .
53(4) . . .
51(4) . . .
49(4) . . .
50(4) . . .
48(4) . . .
40.9(34) . . .
38.8(32) . . .
45(4) . . .
47(4) . . .
42(4) . . .
53(4) . . .
49(4) . . .
56(4) . . .
42.9(34) . . .
43(4) . . .
40.7(34) . . .
45(4) . . .
50(4) . . .
49(4) . . .
52(4) . . .
47(4) . . .
43.9(34) . . .
43.0(34) . . .
55(4) . . .
50(4) . . .
45(4) . . .
52(4) . . .
47(4) . . .
48(4) . . .
50(4) . . .
53(4) . . .
47(4) . . .
48(4) . . .
40.0(35) . . .
46(4) . . .
44(4) . . .
51(4) . . .
47(4) . . .
51(4) . . .
52(4) . . .
36.9(31) . . .
42.1(34) . . .
40.1(34) . . .
46(4) . . .
46(4) . . .
53(4) . . .
45(4) . . .
48(4) . . .
53(4) . . .
57(4) . . .
38.5(32) . . .
55(4) . . .
39.7(34) . . .
52(4) . . .
59(4) . . .
45(4) . . .
39.2(33) . . .
48(4) . . .
45(4) . . .
46(4) . . .
54(4) . . .
41.4(35) . . .
45(4) . . .
37.8(32) . . .
46(4) . . .
38.0(32) . . .
48(4) . . .
52(4) . . .
45(4) . . .
51(4) . . .
39.0(33) . . .
52(4) . . .
47(4) . . .
45(4) . . .
49(4) . . .
51(4) . . .
37.8(32) . . .
50(4) . . .
52(4) . . .
47(4) . . .
53(4) . . .
49(4) . . .
48(4) . . .
52(4) . . .
42.4(34) . . .
46(4) . . .
47(4) . . .
43(4) . . .
43(4) . . .
49(4) . . .
46(4) . . .
42.1(34) . . .
55(4) . . .
50(4) . . .
53(4) . . .
49(4) . . .
51(4) . . .
46(4) . . .
42(4) . . .
59(4) . . .
45(4) . . .
47(4) . . .
48(4) . . .
44(4) . . .
54(4) . . .
54(4) . . .
47(4) . . .
41.7(34) . . .
42.4(34) . . .
49(4) . . .
46(4) . . .
33.9(30) . . .
45(4) . . .
51(4) . . .
44.3(35) . . .
51(4) . . .
39.8(35) . . .
39.3(35) . . .
45(4) . . .
49(4) . . .
37.4(33) . . .
35.6(32) . . .
40.6(34) . . .
43.7(35) . . .
50(4) . . .
43(4) . . .
38.7(34) . . .
38.8(34) . . .
52(4) . . .
53(4) . . .
47(4) . . .
47(4) . . .
45(4) . . .
43(4) . . .
39.7(33) . . .
46(4) . . .
42(4) . . .
41(4) . . .
49(4) . . .
40.6(33) . . .
47(4) . . .
48(4) . . .
47(4) . . .
52(4) . . .
49(4) . . .
49(4) . . .
44(4) . . .
42.0(34) . . .
37.5(32) . . .
45(4) . . .
45(4) . . .
44(4) . . .
41.9(35) . . .
44(4) . . .
40.9(33) . . .
52(4) . . .
53(4) . . .
53(4) . . .
44.7(35) . . .
45.1(35) . . .
52(4) . . .
46(4) . . .
43(4) . . .
42.4(34) . . .
46(4) . . .
48(4) . . .
47(4) . . .
52(4) . . .
46(4) . . .
40.5(34) . . .
53(4) . . .
40.5(34) . . .
45(4) . . .
44.4(35) . . .
56(4) . . .
48(4) . . .
49(4) . . .
42.2(35) . . .
53(4) . . .
37.3(32) . . .
52(4) . . .
47(4) . . .
43.2(34) . . .
47(4) . . .
50(4) . . .
51(4) . . .
40.7(33) . . .
41.6(34) . . .
49(4) . . .
41.6(34) . . .
50(4) . . .
41.3(35) . . .
40.5(34) . . .
44.4(34) . . .
47(4) . . .
51(4) . . .
57(4) . . .
54(4) . . .
43.2(34) . . .
48(4) . . .
46(4) . . .
39.0(32) . . .
50(4) . . .
38.8(33) . . .
46(4) . . .
45.9(35) . . .
46(4) . . .
43.5(35) . . .
44(4) . . .
56(4) . . .
47(4) . . .
43(4) . . .
40.1(33) . . .
47(4) . . .
37.4(32) . . .
38.0(33) . . .
40.3(33) . . .
43.5(34) . . .
42.5(34) . . .
48(4) . . .
41.4(35) . . .
56(4) . . .
49(4) . . .
47(4) . . .
46(4) . . .
51(4) . . .
51(4) . . .
48(4) . . .
47(4) . . .
46(4) . . .
38.3(33) . . .
51(4) . . .
44.4(34) . . .
45(4) . . .
39.1(35) . . .
36.4(33) . . .
43.3(34) . . .
48(4) . . .
50(4) . . .
43(4) . . .
42.2(34) . . .
44.8(35) . . .
46(4) . . .
43(4) . . .
38.5(34) . . .
31.9(29) . . .
44.0(35) . . .
49(4) . . .
49(4) . . .
49(4) . . .
55(4) . . .
46(4) . . .
47(4) . . .
46(4) . . .
52(4) . . .
50(4) . . .
47(4) . . .
46(4) . . .
41.1(34) . . .
41.8(33) . . .
52(4) . . .
45.2(35) . . .
36.3(32) . . .
48(4) . . .
52(4) . . .
51(4) . . .
43.5(35) . . .
51(4) . . .
45(4) . . .
41.0(35) . . .
45(4) . . .
56(4) . . .
43(4) . . .
47(4) . . .
50(4) . . .
53(4) . . .
49(4) . . .
40.8(35) . . .
41(4) . . .
42.2(34) . . .
51(4) . . .
43.0(35) . . .
45(4) . . .
45(4) . . .
45(4) . . .
53(4) . . .
41.1(33) . . .
48(4) . . .
46(4) . . .
46(4) . . .
52(4) . . .
45.0(35) . . .
50(4) . . .
41.5(34) . . .
42.6(35) . . .
52(4) . . .
46(4) . . .
52(4) . . .
52(4) . . .
50(4) . . .
50(4) . . .
57(4) . . .
37.7(32) . . .
41(4) . . .
46(4) . . .
42.7(34) . . .
43.6(35) . . .
50(4) . . .
48(4) . . .
44(4) . . .
47(4) . . .
46(4) . . .
46(4) . . .
48(4) . . .
49(4) . . .
44.0(35) . . .
43.0(35) . . .
48(4) . . .
41(4) . . .
34.9(31) . . .
48(4) . . .
43(4) . . .
42(4) . . .
46(4) . . .
35.0(31) . . .
39.5(33) . . .
46.0(35) . . .
54(4) . . .
44(4) . . .
46(4) . . .
48(4) . . .
41.5(35) . . .
44(4) . . .
48(4) . . .
42.4(34) . . .
43.0(34) . . .
39.4(32) . . .
43(4) . . .
40.6(34) . . .
47(4) . . .
41.1(34) . . .
41.0(33) . . .
53(4) . . .
49(4) . . .
42.0(33) . . .
40.2(33) . . .
42(4) . . .
42(4) . . .
47(4) . . .
48(4) . . .
47(4) . . .
46(4) . . .
46(4) . . .
49(4) . . .
58(4) . . .
54(4) . . .
49(4) . . .
48(4) . . .
43.5(34) . . .
47(4) . . .
38.8(33) . . .
47(4) . . .
38(4) . . .
49(4) . . .
49(4) . . .
54(4) . . .
51(4) . . .
47(4) . . .
45(4) . . .
44.7(35) . . .
40.2(34) . . .
46(4) . . .
50(4) . . .
44(4) . . .
48(4) . . .
62(4) . . .
49(4) . . .
43(4) . . .
41.1(34) . . .
39.9(33) . . .
46(4) . . .
42.4(35) . . .
62(4) . . .
60(4) . . .
49(4) . . .
45.5(35) . . .
42(4) . . .
43(4) . . .
34.2(30) . . .
52(4) . . .
45.4(35) . . .
54(4) . . .
44(4) . . .
51(4) . . .
47(4) . . .
41.9(34) . . .
46(4) . . .
46(4) . . .
39.2(33) . . .
49(4) . . .
44(4) . . .
46(4) . . .
51(4) . . .
54(4) . . .
43.9(34) . . .
45(4) . . .
55(4) . . .
45(4) . . .
46(4) . . .
40.1(34) . . .
40.3(34) . . .
38.9(34) . . .
44(4) . . .
52(4) . . .
45(4) . . .
45(4) . . .
47(4) . . .
42.4(35) . . .
42.8(34) . . .
44(4) . . .
38.0(33) . . .
33.1(30) . . .
44(4) . . .
50(4) . . .
46(4) . . .
47(4) . . .
39.6(33) . . .
47(4) . . .
48(4) . . .
45(4) . . .
48(4) . . .
50(4) . . .
43.2(34) . . .
48(4) . . .
49(4) . . .
42.0(34) . . .
50(4) . . .
53(4) . . .
49(4) . . .
45(4) . . .
41(4) . . .
45(4) . . .
47(4) . . .
37.6(31) . . .
43.8(35) . . .
47(4) . . .
41.9(34) . . .
51(4) . . .
42.6(34) . . .
46(4) . . .
46(4) . . .
45(4) . . .
49(4) . . .
45(4) . . .
44(4) . . .
38.7(31) . . .
49(4) . . .
35.8(32) . . .
48(4) . . .
42.3(34) . . .
47(4) . . .
45(4) . . .
52(4) . . .
46(4) . . .
47(4) . . .
49(4) . . .
49(4) . . .
51(4) . . .
43(4) . . .
42.0(35) . . .
44(4) . . .
39.3(32) . . .
50(4) . . .
48(4) . . .
41(4) . . .
44(4) . . .
47(4) . . .
46(4) . . .
48(4) . . .
41(4) . . .
50(4) . . .
57(4) . . .
48(4) . . .
54(4) . . .
47(4) . . .
38.8(33) . . .
38.0(32) . . .
37.8(32) . . .
42.1(35) . . .
40(4) . . .
45(4) . . .
42.1(34) . . .
35.4(31) . . .
51(4) . . .
54(4) . . .
46(4) . . .
44.9(35) . . .
50(4) . . .
57(4) . . .
47(4) . . .
52(4) . . .
53(4) . . .
48(4) . . .
49(4) . . .
42.1(34) . . .
44(4) . . .
38.3(33) . . .
46(4) . . .
48(4) . . .
53(4) . . .
54(4) . . .
44(4) . . .
48(4) . . .
46(4) . . .
49(4) . . .
40.5(33) . . .
34.2(31) . . .
36.4(34) . . .
46(4) . . .
55(4) . . .
57(4) . . .
48(4) . . .
49(4) . . .
56(4) . . .
43(4) . . .
45(4) . . .
49(4) . . .
46(4) . . .
45(4) . . .
39.7(34) . . .
39.4(32) . . .
49(4) . . .
50(4) . . .
42(4) . . .
46(4) . . .
49(4) . . .
52(4) . . .
49(4) . . .
48(4) . . .
45(4) . . .
54(4) . . .
50(4) . . .
56(4) . . .
46(4) . . .
54(4) . . .
38.8(34) . . .
45.8(35) . . .
54(4) . . .
46(4) . . .
43(4) . . .
50(4) . . .
44.7(35) . . .
50(4) . . .
45(4) . . .
39.9(34) . . .
50(4) . . .
49(4) . . .
43(4) . . .
43(4) . . .
55(4) . . .
41.6(34) . . .
50(4) . . .
55(4) . . .
45(4) . . .
47(4) . . .
60(4) . . .
60(4) . . .
48(4) . . .
48(4) . . .
52(4) . . .
53(4) . . .
42.0(35) . . .
46(4) . . .
45(4) . . .
48(4) . . .
59(4) . . .
43(4) . . .
42.9(35) . . .
46(4) . . .
37.7(32) . . .
40.9(33) . . .
44(4) . . .
53(4) . . .
49(4) . . .
40.7(33) . . .
43.8(34) . . .
46(4) . . .
46(4) . . .
45(4) . . .
49(4) . . .
50(4) . . .
43.5(35) . . .
43(4) . . .
48(4) . . .
56(4) . . .
47(4) . . .
52(4) . . .
53(4) . . .
49(4) . . .
57(4) . . .
39.8(32) . . .
46(4) . . .
39.3(34) . . .
57(4) . . .
39.2(33) . . .
45(4) . . .
50(4) . . .
35.5(32) . . .
45(4) . . .
51(4) . . .
41.7(35) . . .
46(4) . . .
53(4) . . .
47(4) . . .
50(4) . . .
44(4) . . .
48(4) . . .
51(4) . . .
35.4(31) . . .
43.2(34) . . .
45(4) . . .
49(4) . . .
53(4) . . .
52(4) . . .
53(4) . . .
44(4) . . .
51(4) . . .
52(4) . . .
55(4) . . .
41.4(33) . . .
40.5(33) . . .
42.7(34) . . .
41.7(33) . . .
48(4) . . .
45(4) . . .
48(4) . . .
49(4) . . .
39.8(33) . . .
42.8(34) . . .
46(4) . . .
40.8(34) . . .
37.5(34) . . .
39.1(33) . . .
40.0(33) . . .
52(4) . . .
43(4) . . .
48(4) . . .
38.6(34) . . .
53(4) . . .
52(4) . . .
46(4) . . .
39.2(34) . . .
44(4) . . .
51(4) . . .
50(4) . . .
50(4) . . .
47(4) . . .
41(4) . . .
40.9(34) . . .
55(4) . . .
40.5(33) . . .
38.1(33) . . .
47(4) . . .
51(4) . . .
44(4) . . .
45(4) . . .
52(4) . . .
51(4) . . .
56(4) . . .
45(4) . . .
55(4) . . .
57(4) . . .
42.2(35) . . .
44.3(35) . . .
48(4) . . .
38.1(33) . . .
43(4) . . .
38.8(32) . . .
45.9(35) . . .
43.3(34) . . .
46(4) . . .
40.9(35) . . .
37.3(34) . . .
42.2(33) . . .
47(4) . . .
51(4) . . .
47(4) . . .
50(4) . . .
46(4) . . .
46(4) . . .
51(4) . . .
48(4) . . .
52(4) . . .
47(4) . . .
46(4) . . .
49(4) . . .
49(4) . . .
41(4) . . .
44.6(34) . . .
47(4) . . .
50(4) . . .
49(4) . . .
43.7(34) . . .
50(4) . . .
36.6(31) . . .
38.1(33) . . .
47(4) . . .
40.5(34) . . .
42.1(35) . . .
42(4) . . .
45(4) . . .
40.2(34) . . .
42.0(33) . . .
54(4) . . .
53(4) . . .
46(4) . . .
45(4) . . .
45(4) . . .
48(4) . . .
46(4) . . .
53(4) . . .
48(4) . . .
61(4) . . .
51(4) . . .
43(4) . . .
46(4) . . .
52(4) . . .
43.3(34) . . .
60(5) . . .
46(4) . . .
43(4) . . .
49(4) . . .
53(4) . . .
43.9(35) . . .
62(4) . . .
40.5(33) . . .
34.2(30) . . .
48(4) . . .
43(4) . . .
50(4) . . .
41.5(35) . . .
38.9(33) . . .
41.5(34) . . .
44.6(35) . . .
57(4) . . .
43.5(34) . . .
43.0(34) . . .
54(4) . . .
60(4) . . .
50(4) . . .
53(4) . . .
37.5(32) . . .
46(4) . . .
42(4) . . .
43(4) . . .
41.7(34) . . .
42.8(34) . . .
48(4) . . .
53(4) . . .
43(4) . . .
42.8(34) . . .
37.5(32) . . .
35.2(31) . . .
45(4) . . .
52(4) . . .
51(4) . . .
46.7(35) . . .
45(4) . . .
45(4) . . .
45(4) . . .
55(4) . . .
40.6(34) . . .
49(4) . . .
43(4) . . .
43(4) . . .
48(4) . . .
51(4) . . .
37.4(32) . . .
40.7(33) . . .
51(4) . . .
55(4) . . .
52(4) . . .
44(4) . . .
48(4) . . .
49(4) . . .
52(4) . . .
43.8(34) . . .
37.2(32) . . .
47(4) . . .
45(4) . . .
40.8(34) . . .
42.3(34) . . .
48(4) . . .
51(4) . . .
45(4) . . .
45.0(35) . . .
43.7(35) . . .
48(4) . . .
51(4) . . .
39.9(34) . . .
44.5(35) . . .
41.6(34) . . .
48(4) . . .
50(4) . . .
45(4) . . .
52(4) . . .
52(4) . . .
40.9(33) . . .
46(4) . . .
46(4) . . .
48(4) . . .
46.3(35) . . .
48(4) . . .
47(4) . . .
52(4) . . .
49(4) . . .
54(4) . . .
46(4) . . .
48(4) . . .
58(4) . . .
39.1(32) . . .
49(4) . . .
45(4) . . .
49(4) . . .
51(4) . . .
52(4) . . .
46(4) . . .
46(4) . . .
43.3(35) . . .
48(4) . . .
44.2(34) . . .
39.5(34) . . .
43(4) . . .
55(4) . . .
52(4) . . .
39.3(33) . . .
40.7(35) . . .
48(4) . . .
43(4) . . .
53(4) . . .
36.6(31) . . .
46(4) . . .
53(4) . . .
44(4) . . .
42.3(35) . . .
43.7(34) . . .
46(4) . . .
56(4) . . .
55(4) . . .
47(4) . . .
52(4) . . .
47(4) . . .
47(4) . . .
47(4) . . .
57(4) . . .
51(4) . . .
46(4) . . .
51(4) . . .
58(4) . . .
50(4) . . .
48(4) . . .
47(4) . . .
46(4) . . .
46(4) . . .
49(4) . . .
42.6(34) . . .
43(4) . . .
51(4) . . .
52(4) . . .
42.0(34) . . .
51(4) . . .
38.2(32) . . .
39.1(34) . . .
48(4) . . .
52(4) . . .
46(4) . . .
48(4) . . .
57(4) . . .
49(4) . . .
45.5(35) . . .
42.9(35) . . .
32.8(30) . . .
47(4) . . .
40.2(34) . . .
46(4) . . .
49(4) . . .
49(4) . . .
42.6(35) . . .
41.0(33) . . .
56(4) . . .
53(4) . . .
45(4) . . .
48(4) . . .
50(4) . . .
51(4) . . .
48(4) . . .
43(4) . . .
47(4) . . .
41.8(33) . . .
40.1(33) . . .
38.9(34) . . .
44(4) . . .
51(4) . . .
58(4) . . .
48(4) . . .
41.0(33) . . .
40.4(33) . . .
52(4) . . .
42.1(34) . . .
51(4) . . .
51(4) . . .
42(4) . . .
37.2(34) . . .
52(4) . . .
42.5(34) . . .
50(4) . . .
43(4) . . .
49(4) . . .
49(4) . . .
43.0(35) . . .
45(4) . . .
48(4) . . .
54(4) . . .
42.7(34) . . .
50(4) . . .
49(4) . . .
44(4) . . .
53(4) . . .
41.8(34) . . .
46(4) . . .
46(4) . . .
40.9(34) . . .
46(4) . . .
42.5(34) . . .
42.8(35) . . .
49(4) . . .
44(4) . . .
38.6(33) . . .
44.3(35) . . .
48(4) . . .
49(4) . . .
43(4) . . .
45.7(35) . . .
43.5(35) . . .
43(4) . . .
35.6(31) . . .
54(4) . . .
45.3(34) . . .
48(4) . . .
51(4) . . .
44(4) . . .
44(4) . . .
42.6(35) . . .
40.7(33) . . .
44(4) . . .
53(4) . . .
50(4) . . .
55(4) . . .
43.2(34) . . .
51(4) . . .
42.2(34) . . .
42.2(34) . . .
50(4) . . .
45(4) . . .
41(4) . . .
38.4(33) . . .
56(4) . . .
53(4) . . .
55(4) . . .
47(4) . . .
37.7(33) . . .
54(4) . . .
52(4) . . .
40.8(33) . . .
38.3(33) . . .
47(4) . . .
36.7(32) . . .
49(4) . . .
45(4) . . .
48(4) . . .
46(4) . . .
45.2(35) . . .
45(4) . . .
43(4) . . .
49(4) . . .
49(4) . . .
52(4) . . .
57(4) . . .
47(4) . . .
46(4) . . .
44(4) . . .
35.0(31) . . .
46(4) . . .
53(4) . . .
44(4) . . .
41(4) . . .
39.7(33) . . .
56(4) . . .
54(4) . . .
46(4) . . .
38.8(33) . . .
47(4) . . .
47(4) . . .
35.9(31) . . .
38.9(34) . . .
35.1(30) . . .
43.9(35) . . .
47(4) . . .
40.0(35) . . .
46(4) . . .
44(4) . . .
43.6(35) . . .
45(4) . . .
39.3(32) . . .
46(4) . . .
46(4) . . .
48(4) . . .
44(4) . . .
41.4(34) . . .
51(4) . . .
49(4) . . .
48(4) . . .
50(4) . . .
41.7(35) . . .
60(4) . . .
46(4) . . .
49(4) . . .
46(4) . . .
47(4) . . .
57(4) . . .
42.9(34) . . .
55(4) . . .
44(4) . . .
44(4) . . .
56(4) . . .
50(4) . . .
54(4) . . .
37.3(31) . . .
55(4) . . .
45(4) . . .
57(4) . . .
52(4) . . .
55(4) . . .
53(4) . . .
64(4) . . .
45(4) . . .
44(4) . . .
45.0(35) . . .
42(4) . . .
40(4) . . .
55(4) . . .
49(4) . . .
40.8(35) . . .
46(4) . . .
46(4) . . .
42.0(35) . . .
48(4) . . .
50(4) . . .
50(4) . . .
48(4) . . .
45.4(35) . . .
42.1(34) . . .
44(4) . . .
45(4) . . .
46(4) . . .
49(4) . . .
47(4) . . .
41(4) . . .
44(4) . . .
54(4) . . .
47(4) . . .
42.4(35) . . .
43(4) . . .
35.7(35) . . .
39.5(34) . . .
46(4) . . .
41.8(34) . . .
45(4) . . .
44(4) . . .
43.6(35) . . .
47(4) . . .
49(4) . . .
38.3(33) . . .
44(4) . . .
46(4) . . .
41.7(34) . . .
44(4) . . .
43(4) . . .
49(4) . . .
55(4) . . .
38.8(32) . . .
43.0(35) . . .
48(4) . . .
41.5(33) . . .
54(4) . . .
51(4) . . .
36.3(33) . . .
39.6(35) . . .
42(4) . . .
43.9(34) . . .
46(4) . . .
38.9(32) . . .
36.3(31) . . .
41.0(34) . . .
46(4) . . .
43.3(35) . . .
36.6(34) . . .
39(4) . . .
51(4) . . .
47(4) . . .
49(4) . . .
50(4) . . .
47(4) . . .
47(4) . . .
51(4) . . .
48(4) . . .
45(4) . . .
54(4) . . .
41.3(34) . . .
46.1(35) . . .
47(4) . . .
45(4) . . .
37.7(33) . . .
50(4) . . .
52(4) . . .
61(4) . . .
53(4) . . .
54(4) . . .
52(4) . . .
46(4) . . .
39.3(33) . . .
40.2(34) . . .
56(4) . . .
45.0(35) . . .
53(4) . . .
48(4) . . .
47(4) . . .
54(4) . . .
43.7(35) . . .
54(4) . . .
40.1(35) . . .
38.5(34) . . .
39.8(34) . . .
35.2(31) . . .
47(4) . . .
51(4) . . .
53(4) . . .
52(4) . . .
51(4) . . .
57(4) . . .
50(4) . . .
54(4) . . .
49(4) . . .
47(4) . . .
52(4) . . .
49(4) . . .
47(4) . . .
51(4) . . .
40.0(33) . . .
42.5(35) . . .
42.8(35) . . .
45(4) . . .
59(4) . . .
49(4) . . .
46(4) . . .
48(4) . . .
38.7(32) . . .
45(4) . . .
58(4) . . .
47(4) . . .
50(4) . . .
56(4) . . .
46(4) . . .
38.8(32) . . .
38.1(34) . . .
44(4) . . .
39.6(34) . . .
44(4) . . .
52(4) . . .
48(4) . . .
56(4) . . .
49(4) . . .
40.1(33) . . .
40.6(33) . . .
40.3(34) . . .
49(4) . . .
39.2(33) . . .
45(4) . . .
45.8(35) . . .
46(4) . . .
45(4) . . .
60(4) . . .
48(4) . . .
50(4) . . .
51(4) . . .
43(4) . . .
35.4(31) . . .
47(4) . . .
48(4) . . .
46(4) . . .
50(4) . . .
40.5(34) . . .
46.4(35) . . .
44(4) . . .
43(4) . . .
36.3(31) . . .
54(4) . . .
48(4) . . .
42.2(35) . . .
39.6(32) . . .
47(4) . . .
41.2(34) . . .
38.6(32) . . .
40.9(33) . . .
44(4) . . .
59(4) . . .
47(4) . . .
41.4(33) . . .
55(4) . . .
41(4) . . .
46(4) . . .
50(4) . . .
45.7(35) . . .
43.1(34) . . .
42.0(35) . . .
41.0(35) . . .
48(4) . . .
47(4) . . .
51(4) . . .
44(4) . . .
45(4) . . .
51(4) . . .
47(4) . . .
51(4) . . .
48(4) . . .
42.4(34) . . .
47(4) . . .
51(4) . . .
52(4) . . .
45(4) . . .
48(4) . . .
50(4) . . .
39.7(33) . . .
36.0(34) . . .
44(4) . . .
56(4) . . .
49(4) . . .
42.7(34) . . .
52(4) . . .
50(4) . . .
54(4) . . .
40.4(33) . . .
47(4) . . .
51(4) . . .
43(4) . . .
47(4) . . .
51(4) . . .
47(4) . . .
41(4) . . .
45(4) . . .
62(4) . . .
50(4) . . .
50(4) . . .
44(4) . . .
41(4) . . .
43(4) . . .
48(4) . . .
51(4) . . .
49(4) . . .
50(4) . . .
45(4) . . .
38.1(32) . . .
46(4) . . .
47(4) . . .
48(4) . . .
38.8(32) . . .
42.2(34) . . .
46(4) . . .
42.3(35) . . .
48(4) . . .
42.0(34) . . .
48(4) . . .
43(4) . . .
42(4) . . .
41(4) . . .
51(4) . . .
44.1(34) . . .
40(4) . . .
37.8(34) . . .
40(4) . . .
39.8(33) . . .
46(4) . . .
48(4) . . .
45(4) . . .
49(4) . . .
53(4) . . .
40.9(33) . . .
42(4) . . .
43.2(35) . . .
53(4) . . .
56(4) . . .
39.5(33) . . .
46(4) . . .
54(4) . . .
41.9(34) . . .
42.0(33) . . .
47(4) . . .
44(4) . . .
47(4) . . .
52(4) . . .
47(4) . . .
43.1(35) . . .
50(4) . . .
49(4) . . .
52(4) . . .
43.7(34) . . .
47(4) . . .
44(4) . . .
40.8(33) . . .
59(4) . . .
54(4) . . .
47(4) . . .
52(4) . . .
34.9(32) . . .
40.0(35) . . .
45(4) . . .
47(4) . . .
50(4) . . .
46(4) . . .
38.6(32) . . .
50(4) . . .
50(4) . . .
54(4) . . .
48(4) . . .
46(4) . . .
44.5(35) . . .
52(4) . . .
49(4) . . .
51(4) . . .
42.5(35) . . .
51(4) . . .
42(4) . . .
49(4) . . .
49(4) . . .
55(4) . . .
52(4) . . .
40.1(34) . . .
55(4) . . .
44(4) . . .
36.4(32) . . .
53(4) . . .
54(4) . . .
54(4) . . .
45(4) . . .
41.6(33) . . .
50(4) . . .
41.0(35) . . .
48(4) . . .
51(4) . . .
47(4) . . .
50(4) . . .
48(4) . . .
37.4(32) . . .
46(4) . . .
42.5(34) . . .
47(4) . . .
46(4) . . .
49(4) . . .
47(4) . . .
42.7(34) . . .
46(4) . . .
46(4) . . .
42(4) . . .
43.3(34) . . .
41.1(34) . . .
46(4) . . .
43(4) . . .
33.3(29) . . .
48(4) . . .
47(4) . . .
47(4) . . .
44.6(34) . . .
40.7(33) . . .
44(4) . . .
49(4) . . .
44(4) . . .
58(4) . . .
56(4) . . .
49(4) . . .
43.1(34) . . .
57(4) . . .
55(4) . . .
48(4) . . .
43.8(34) . . .
43.3(34) . . .
32.6(30) . . .
43(4) . . .
45(4) . . .
46(4) . . .
41.2(34) . . .
33.5(30) . . .
45(4) . . .
43.5(34) . . .
36.0(32) . . .
39.8(33) . . .
42(4) . . .
45(4) . . .
53(4) . . .
43.7(34) . . .
52(4) . . .
41.0(34) . . .
38.8(35) . . .
39.8(34) . . .
42.9(34) . . .
43.1(34) . . .
43.7(35) . . .
50(4) . . .
36.1(32) . . .
51(4) . . .
48(4) . . .
44(4) . . .
48(4) . . .
45(4) . . .
58(4) . . .
55(4) . . .
57(4) . . .
51(4) . . .
61(4) . . .
50(4) . . .
50(4) . . .
49(4) . . .
44(4) . . .
44.7(35) . . .
49(4) . . .
44.0(34) . . .
45(4) . . .
45(4) . . .
53(4) . . .
52(4) . . .
54(4) . . .
49(4) . . .
56(4) . . .
46.4(35) . . .
47(4) . . .
46(4) . . .
55(4) . . .
41.0(32) . . .
45(4) . . .
42.2(34) . . .
42.5(35) . . .
45(4) . . .
40.0(34) . . .
47(4) . . .
51(4) . . .
35.7(32) . . .
46(4) . . .
42(4) . . .
47(4) . . .
44(4) . . .
35.9(33) . . .
43(4) . . .
45(4) . . .
40.5(33) . . .
45(4) . . .
55(4) . . .
47(4) . . .
42.7(35) . . .
48(4) . . .
52(4) . . .
41.6(34) . . .
44(4) . . .
44(4) . . .
40.8(33) . . .
40.3(34) . . .
47(4) . . .
42.9(34) . . .
51(4) . . .
47(4) . . .
49(4) . . .
55(4) . . .
44.0(35) . . .
41.6(34) . . .
47(4) . . .
52(4) . . .
48(4) . . .
48(4) . . .
50(4) . . .
41.2(33) . . .
42(4) . . .
44(4) . . .
42(4) . . .
41.1(33) . . .
50(4) . . .
40.8(35) . . .
45(4) . . .
55(4) . . .
45.1(35) . . .
49(4) . . .
34.8(32) . . .
41.0(35) . . .
48(4) . . .
53(4) . . .
44.8(34) . . .
45(4) . . .
45(4) . . .
42(4) . . .
46(4) . . .
46.0(35) . . .
52(4) . . .
45(4) . . .
41.2(34) . . .
47(4) . . .
56(4) . . .
50(4) . . .
44(4) . . .
52(4) . . .
55(4) . . .
46(4) . . .
44(4) . . .
41.4(35) . . .
35.8(32) . . .
44.9(35) . . .
38.1(32) . . .
57(4) . . .
45(4) . . .
52(4) . . .
47(4) . . .
45(4) . . .
50(4) . . .
51(4) . . .
59(4) . . .
52(4) . . .
45(4) . . .
50(4) . . .
48(4) . . .
49(4) . . .
39.9(33) . . .
42.4(34) . . .
45(4) . . .
45(4) . . .
42.2(34) . . .
35.8(31) . . .
51(4) . . .
39.9(34) . . .
38.1(34) . . .
44.0(35) . . .
47(4) . . .
47(4) . . .
46(4) . . .
44(4) . . .
46(4) . . .
46(4) . . .
42.5(34) . . .
45(4) . . .
53(4) . . .
53(4) . . .
45.3(35) . . .
45(4) . . .
42(4) . . .
49(4) . . .
51(4) . . .
45(4) . . .
36.1(34) . . .
43(4) . . .
52(4) . . .
38.3(32) . . .
45(4) . . .
48(4) . . .
50(4) . . .
52(4) . . .
49(4) . . .
36.3(32) . . .
42.1(34) . . .
56(4) . . .
57(4) . . .
45.3(35) . . .
47(4) . . .
43(4) . . .
48(4) . . .
42.9(34) . . .
49(4) . . .
40.9(34) . . .
40.8(35) . . .
50(4) . . .
51(4) . . .
53(4) . . .
52(4) . . .
49(4) . . .
48(4) . . .
45.3(35) . . .
54(4) . . .
47(4) . . .
51(4) . . .
36.4(32) . . .
49(4) . . .
45(4) . . .
50(4) . . .
54(4) . . .
42.2(35) . . .
32.3(31) . . .
34.5(31) . . .
41.9(34) . . .
41(4) . . .
46(4) . . .
36.5(31) . . .
38.9(32) . . .
43(4) . . .
45(4) . . .
46(4) . . .
43.3(34) . . .
50(4) . . .
50(4) . . .
42(4) . . .
41.4(34) . . .
45(4) . . .
45.6(35) . . .
52(4) . . .
50(4) . . .
47(4) . . .
45.0(35) . . .
45(4) . . .
55(4) . . .
44(4) . . .
50(4) . . .
38.2(32) . . .
51(4) . . .
53(4) . . .
44(4) . . .
54(4) . . .
49(4) . . .
43(4) . . .
48(4) . . .
46(4) . . .
57(4) . . .
52(4) . . .
47(4) . . .
34.1(30) . . .
42.3(34) . . .
40.4(33) . . .
53(4) . . .
51(4) . . .
47(4) . . .
47(4) . . .
51(4) . . .
45(4) . . .
39.8(33) . . .
37.0(31) . . .
55(4) . . .
62(4) . . .
42.5(34) . . .
38.4(32) . . .
44(4) . . .
46(4) . . .
42.5(34) . . .
46(4) . . .
45(4) . . .
52(4) . . .
43.6(35) . . .
47(4) . . .
53(4) . . .
50(4) . . .
45(4) . . .
47(4) . . .
49(4) . . .
47(4) . . .
46(4) . . .
42.7(35) . . .
41.0(34) . . .
50(4) . . .
42.2(33) . . .
43.8(34) . . .
42.2(35) . . .
41.8(34) . . .
44.9(35) . . .
47(4) . . .
48(4) . . .
51(4) . . .
48(4) . . .
41.8(34) . . .
50(4) . . .
50(4) . . .
55(4) . . .
53(4) . . .
50(4) . . .
48(4) . . .
49(4) . . .
53(4) . . .
43.8(34) . . .
53(4) . . .
44(4) . . .
50(4) . . .
45(4) . . .
44.6(35) . . .
41.8(34) . . .
46(4) . . .
45(4) . . .
47(4) . . .
42.7(34) . . .
50(4) . . .
51(4) . . .
44(4) . . .
41.7(34) . . .
46(4) . . .
48(4) . . .
46(4) . . .
46(4) . . .
54(4) . . .
48(4) . . .
43.5(35) . . .
43.9(35) . . .
50(4) . . .
45(4) . . .
44(4) . . .
42.7(34) . . .
56(4) . . .
44(4) . . .
37.7(32) . . .
48(4) . . .
40(4) . . .
45(4) . . .
42(4) . . .
52(4) . . .
49(4) . . .
44.9(35) . . .
43(4) . . .
42(4) . . .
47(4) . . .
34.3(31) . . .
59(4) . . .
54(4) . . .
42(4) . . .
46(4) . . .
44(4) . . .
44(4) . . .
40(4) . . .
50(4) . . .
55(4) . . .
52(4) . . .
41.8(35) . . .
49(4) . . .
42.4(33) . . .
53(4) . . .
48(4) . . .
40.3(33) . . .
43.3(35) . . .
60(4) . . .
50(4) . . .
40.8(33) . . .
51(4) . . .
51(4) . . .
52(4) . . .
51(4) . . .
47(4) . . .
47(4) . . .
45(4) . . .
50(4) . . .
45(4) . . .
46(4) . . .
39.8(35) . . .
39.2(34) . . .
39.5(34) . . .
43.4(34) . . .
45(4) . . .
37.8(32) . . .
40(4) . . .
44(4) . . .
47(4) . . .
44(4) . . .
51(4) . . .
48(4) . . .
44.5(35) . . .
39.9(32) . . .
47(4) . . .
44.3(34) . . .
54(4) . . .
46(4) . . .
54(4) . . .
48(4) . . .
42(4) . . .
44(4) . . .
45(4) . . .
35.1(31) . . .
48(4) . . .
45(4) . . .
47(4) . . .
45(4) . . .
47(4) . . .
39.1(32) . . .
38.0(34) . . .
40(4) . . .
49(4) . . .
45(4) . . .
46(4) . . .
45(4) . . .
46(4) . . .
44(4) . . .
48(4) . . .
42(4) . . .
48(4) . . .
52(4) . . .
53(4) . . .
49(4) . . .
43.6(35) . . .
45(4) . . .
37.5(31) . . .
46(4) . . .
41.9(34) . . .
37.1(33) . . .
57(4) . . .
51(4) . . .
41.8(34) . . .
52(4) . . .
51(4) . . .
52(4) . . .
50(4) . . .
46(4) . . .
42.1(34) . . .
37.7(33) . . .
50(4) . . .
41(4) . . .
45.3(35) . . .
52(4) . . .
49(4) . . .
44(4) . . .
47(4) . . .
42.0(34) . . .
49(4) . . .
50(4) . . .
56(4) . . .
40.9(33) . . .
59(4) . . .
46(4) . . .
45(4) . . .
50(4) . . .
46(4) . . .
47(4) . . .
55(4) . . .
50(4) . . .
47(4) . . .
48(4) . . .
54(4) . . .
41.6(33) . . .
42.4(35) . . .
42(4) . . .
36.9(31) . . .
44.3(34) . . .
49(4) . . .
46(4) . . .
50(4) . . .
49(4) . . .
36.1(31) . . .
43.3(35) . . .
41(4) . . .
39.4(34) . . .
48(4) . . .
52(4) . . .
50(4) . . .
43(4) . . .
45(4) . . .
41.9(34) . . .
48(4) . . .
43.3(35) . . .
52(4) . . .
49(4) . . .
43.1(34) . . .
43.8(34) . . .
46(4) . . .
38.6(34) . . .
47(4) . . .
50(4) . . .
45(4) . . .
39.9(35) . . .
44(4) . . .
35.2(31) . . .
47(4) . . .
49(4) . . .
49(4) . . .
53(4) . . .
55(4) . . .
44.8(34) . . .
42(4) . . .
45(4) . . .
45(4) . . .
44.4(35) . . .
47(4) . . .
46(4) . . .
38.0(34) . . .
51(4) . . .
47(4) . . .
47(4) . . .
48(4) . . .
44(4) . . .
39.4(33) . . .
37.0(32) . . .
46(4) . . .
47(4) . . .
46(4) . . .
43(4) . . .
46.0(35) . . .
44(4) . . .
46(4) . . .
40(4) . . .
45(4) . . .
40.1(32) . . .
46(4) . . .
46(4) . . .
51(4) . . .
48(4) . . .
49(4) . . .
47(4) . . .
41.5(34) . . .
41.8(35) . . .
44(4) . . .
50(4) . . .
43(4) . . .
50(4) . . .
54(4) . . .
50(4) . . .
45(4) . . .
41(4) . . .
49(4) . . .
47(4) . . .
37.0(33) . . .
40.2(33) . . .
48(4) . . .
48(4) . . .
53(4) . . .
47(4) . . .
49(4) . . .
45.3(35) . . .
50(4) . . .
42.8(33) . . .
59(4) . . .
53(4) . . .
47(4) . . .
43(4) . . .
42.6(34) . . .
46(4) . . .
51(4) . . .
47(4) . . .
49(4) . . .
54(4) . . .
51(4) . . .
44.1(34) . . .
50(4) . . .
47(4) . . .
36.6(33) . . .
33.1(30) . . .
39.6(33) . . .
49(4) . . .
50(4) . . .
49(4) . . .
51(4) . . .
42.9(35) . . .
49(4) . . .
58(4) . . .
46(4) . . .
46(4) . . .
53(4) . . .
51(4) . . .
45(4) . . .
39.8(34) . . .
48(4) . . .
43.1(35) . . .
50(4) . . .
52(4) . . .
44(4) . . .
58(4) . . .
52(4) . . .
43(4) . . .
39.6(34) . . .
53(4) . . .
63(4) . . .
51(4) . . .
43(4) . . .
36.6(33) . . .
48(4) . . .
48(4) . . .
45(4) . . .
48(4) . . .
46(4) . . .
46(4) . . .
40.3(33) . . .
43(4) . . .
49(4) . . .
46(4) . . .
46(4) . . .
53(4) . . .
49(4) . . .
53(4) . . .
49(4) . . .
45(4) . . .
48(4) . . .
47(4) . . .
43(4) . . .
51(4) . . .
56(4) . . .
62(4) . . .
39.2(34) . . .
43(4) . . .
40.7(35) . . .
44.5(34) . . .
38.5(32) . . .
45(4) . . .
43(4) . . .
53(4) . . .
46(4) . . .
43(4) . . .
37.2(33) . . .
48(4) . . .
43(4) . . .
46(4) . . .
41.8(34) . . .
46(4) . . .
51(4) . . .
47(4) . . .
40.2(33) . . .
45(4) . . .
49(4) . . .
44(4) . . .
38.9(33) . . .
60(4) . . .
42.5(34) . . .
48(4) . . .
42(4) . . .
40.0(35) . . .
56(4) . . .
55(4) . . .
50(4) . . .
49(4) . . .
40.9(34) . . .
50(4) . . .
46(4) . . .
47(4) . . .
44(4) . . .
52(4) . . .
53(4) . . .
49(4) . . .
61(4) . . .
47(4) . . .
59(4) . . .
52(4) . . .
40(4) . . .
35.4(34) . . .
48(4) . . .
53(4) . . .
51(4) . . .
44(4) . . .
53(4) . . .
45(4) . . .
46(4) . . .
49(4) . . .
44(4) . . .
38.5(34) . . .
46(4) . . .
53(4) . . .
50(4) . . .
42.4(34) . . .
41.3(35) . . .
53(4) . . .
48(4) . . .
45(4) . . .
53(4) . . .
50(4) . . .
40.9(34) . . .
45(4) . . .
49(4) . . .
43(4) . . .
46(4) . . .
49(4) . . .
43.6(34) . . .
53(4) . . .
51(4) . . .
39.6(32) . . .
47(4) . . .
39.6(33) . . .
46(4) . . .
43(4) . . .
39(4) . . .
39.6(34) . . .
42.5(34) . . .
42.8(34) . . .
41(4) . . .
39.3(33) . . .
46(4) . . .
44.1(35) . . .
49(4) . . .
49(4) . . .
47(4) . . .
44.3(35) . . .
40.8(33) . . .
54(4) . . .
53(4) . . .
47(4) . . .
38.9(33) . . .
55(4) . . .
55(4) . . .
40.6(33) . . .
48(4) . . .
45(4) . . .
51(4) . . .
51(4) . . .
42.3(35) . . .
41.4(35) . . .
41.5(33) . . .
55(4) . . .
48(4) . . .
45(4) . . .
45(4) . . .
44.5(34) . . .
55(4) . . .
52(4) . . .
43(4) . . .
45(4) . . .
41.5(33) . . .
50(4) . . .
47(4) . . .
48(4) . . .
40(4) . . .
49(4) . . .
41.6(33) . . .
41.7(34) . . .
42(4) . . .
46(4) . . .
52(4) . . .
41.5(34) . . .
46(4) . . .
38.3(35) . . .
40.2(34) . . .
47(4) . . .
40.9(34) . . .
43(4) . . .
37.8(33) . . .
52(4) . . .
42.7(34) . . .
47(4) . . .
47(4) . . .
44(4) . . .
38.6(32) . . .
48(4) . . .
49(4) . . .
45(4) . . .
47(4) . . .
51(4) . . .
46(4) . . .
49(4) . . .
48(4) . . .
48(4) . . .
41.9(33) . . .
51(4) . . .
41.8(35) . . .
41.4(34) . . .
51(4) . . .
47(4) . . .
45.1(35) . . .
49(4) . . .
53(4) . . .
57(4) . . .
54(4) . . .
51(4) . . .
47(4) . . .
57(4) . . .
39.8(33) . . .
41.5(33) . . .
36.5(33) . . .
46(4) . . .
48(4) . . .
47(4) . . .
47(4) . . .
43(4) . . .
55(4) . . .
47(4) . . .
48(4) . . .
37.9(33) . . .
50(4) . . .
51(4) . . .
50(4) . . .
45(4) . . .
43.2(35) . . .
55(4) . . .
43.8(35) . . .
52(4) . . .
39.3(33) . . .
43.8(34) . . .
43.7(35) . . .
35.7(32) . . .
39.8(34) . . .
42.1(34) . . .
39.5(33) . . .
46(4) . . .
45(4) . . .
46(4) . . .
39.2(33) . . .
42.8(35) . . .
50(4) . . .
50(4) . . .
36.1(33) . . .
35.2(31) . . .
49(4) . . .
46(4) . . .
44(4) . . .
39.4(34) . . .
52(4) . . .
46(4) . . .
56(4) . . .
48(4) . . .
41.5(34) . . .
51(4) . . .
44.6(35) . . .
49(4) . . .
42.2(34) . . .
52(4) . . .
45(4) . . .
47(4) . . .
39.6(34) . . .
49(4) . . .
59(4) . . .
44.7(35) . . .
42.3(34) . . .
62(4) . . .
41(4) . . .
40.2(34) . . .
46(4) . . .
45.1(35) . . .
42(4) . . .
38.1(34) . . .
42.0(34) . . .
41.7(34) . . .
43(4) . . .
50(4) . . .
47(4) . . .
49(4) . . .
42.2(34) . . .
47(4) . . .
41.0(34) . . .
48(4) . . .
38.1(33) . . .
55(4) . . .
45(4) . . .
42(4) . . .
44(4) . . .
44.5(34) . . .
46(4) . . .
51(4) . . .
53(4) . . .
39.4(32) . . .
58(4) . . .
49(4) . . .
63(4) . . .
44(4) . . .
41.8(35) . . .
42.8(34) . . .
40.9(33) . . .
43(4) . . .
50(4) . . .
42.2(34) . . .
57(4) . . .
29.2(28) . . .
37.2(34) . . .
36.4(32) . . .
47(4) . . .
46(4) . . .
43.7(34) . . .
47(4) . . .
50(4) . . .
55(4) . . .
44.3(35) . . .
41.9(34) . . .
39.2(33) . . .
46(4) . . .
52(4) . . .
47(4) . . .
49(4) . . .
47(4) . . .
45(4) . . .
52(4) . . .
48(4) . . .
42.5(34) . . .
39.8(34) . . .
40.8(34) . . .
46(4) . . .
42.8(34) . . .
46(4) . . .
49(4) . . .
53(4) . . .
46(4) . . .
54(4) . . .
51(4) . . .
45(4) . . .
41.4(33) . . .
57(4) . . .
47(4) . . .
50(4) . . .
50(4) . . .
48(4) . . .
64(4) . . .
49(4) . . .
43.2(35) . . .
45(4) . . .
50(4) . . .
53(4) . . .
48(4) . . .
49(4) . . .
46(4) . . .
42.2(35) . . .
44.6(35) . . .
47(4) . . .
42(4) . . .
47(4) . . .
46(4) . . .
45(4) . . .
39.0(32) . . .
45(4) . . .
54(4) . . .
48(4) . . .
41.8(34) . . .
46(4) . . .
42.1(33) . . .
53(4) . . .
46(4) . . .
44.3(35) . . .
38.7(34) . . .
49(4) . . .
43(4) . . .
38.8(33) . . .
38.3(32) . . .
42.3(34) . . .
51(4) . . .
47(4) . . .
52(4) . . .
58(4) . . .
49(4) . . .
49(4) . . .
55(4) . . .
51(4) . . .
40.1(33) . . .
47(4) . . .
45(4) . . .
49(4) . . .
46.7(35) . . .
42.4(34) . . .
48(4) . . .
55(4) . . .
47(4) . . .
41.1(34) . . .
54(4) . . .
47(4) . . .
47(4) . . .
41.0(35) . . .
40.1(34) . . .
50(4) . . .
46(4) . . .
47(4) . . .
55(4) . . .
52(4) . . .
48(4) . . .
50(4) . . .
41(4) . . .
52(4) . . .
48(4) . . .
51(4) . . .
47(4) . . .
43.2(35) . . .
48(4) . . .
48(4) . . .
54(4) . . .
53(4) . . .
48(4) . . .
45(4) . . .
46(4) . . .
49(4) . . .
45(4) . . .
45(4) . . .
51(4) . . .
47(4) . . .
42.5(35) . . .
46(4) . . .
44(4) . . .
47(4) . . .
58(4) . . .
44(4) . . .
46(4) . . .
37.3(34) . . .
38.8(34) . . .
43(4) . . .
39.6(33) . . .
48(4) . . .
44(4) . . .
42.0(34) . . .
49(4) . . .
50(4) . . .
48(4) . . .
39.0(33) . . .
54(4) . . .
49(4) . . .
47(4) . . .
45(4) . . .
38.9(33) . . .
51(4) . . .
41.0(33) . . .
42.7(34) . . .
49(4) . . .
40.2(35) . . .
46(4) . . .
49(4) . . .
46(4) . . .
51(4) . . .
48(4) . . .
43.0(35) . . .
43.5(35) . . .
50(4) . . .
39.5(34) . . .
42.7(35) . . .
41.5(34) . . .
47(4) . . .
51(4) . . .
54(4) . . .
40.6(34) . . .
52(4) . . .
44(4) . . .
43(4) . . .
55(4) . . .
56(4) . . .
49(4) . . .
44(4) . . .
39.1(33) . . .
41.0(35) . . .
48(4) . . .
50(4) . . .
37.2(33) . . .
53(4) . . .
41.7(34) . . .
48(4) . . .
51(4) . . .
55(4) . . .
51(4) . . .
41.3(34) . . .
39.1(32) . . .
38.4(32) . . .
43(4) . . .
41(4) . . .
43.7(35) . . .
46(4) . . .
30.8(28) . . .
46(4) . . .
40.8(34) . . .
48(4) . . .
50(4) . . .
57(4) . . .
47(4) . . .
50(4) . . .
54(4) . . .
55(4) . . .
44.4(35) . . .
43(4) . . .
51(4) . . .
56(4) . . .
40.3(34) . . .
36.9(32) . . .
40.5(34) . . .
52(4) . . .
58(4) . . .
46(4) . . .
47(4) . . .
40.1(33) . . .
46(4) . . .
42(4) . . .
42.9(33) . . .
43.9(34) . . .
48(4) . . .
43.8(34) . . .
51(4) . . .
45.0(34) . . .
49(4) . . .
38.5(34) . . .
42(4) . . .
48(4) . . .
42.0(34) . . .
42.4(35) . . .
34.8(30) . . .
42.3(35) . . .
45(4) . . .
54(4) . . .
53(4) . . .
53(4) . . .
34.5(33) . . .
46(4) . . .
39.2(33) . . .
49(4) . . .
42(4) . . .
43(4) . . .
47(4) . . .
51(4) . . .
46(4) . . .
48(4) . . .
49(4) . . .
43.5(34) . . .
47(4) . . .
37.1(32) . . .
46(4) . . .
51(4) . . .
46.1(35) . . .
45(4) . . .
49(4) . . .
44(4) . . .
47(4) . . .
43.4(35) . . .
43.0(34) . . .
37.5(32) . . .
46(4) . . .
42.7(35) . . .
42.6(34) . . .
51(4) . . .
48(4) . . .
46(4) . . .
45(4) . . .
42.8(34) . . .
44(4) . . .
39.4(33) . . .
45(4) . . .
45(4) . . .
48(4) . . .
46(4) . . .
52(4) . . .
45(4) . . .
45.0(35) . . .
53(4) . . .
54(4) . . .
44.8(35) . . .
51(4) . . .
42.8(35) . . .
44.1(35) . . .
47(4) . . .
46(4) . . .
39.9(34) . . .
38.0(33) . . .
52(4) . . .
48(4) . . .
38.5(33) . . .
54(4) . . .
47(4) . . .
54(4) . . .
46(4) . . .
46(4) . . .
37.7(34) . . .
41.8(33) . . .
51(4) . . .
43.9(34) . . .
44(4) . . .
35.8(31) . . .
42.7(34) . . .
45(4) . . .
44(4) . . .
42(4) . . .
39.2(32) . . .
56(4) . . .
43.5(35) . . .
53(4) . . .
46(4) . . .
45(4) . . .
44.9(35) . . .
48(4) . . .
50(4) . . .
46(4) . . .
39.9(34) . . .
43.7(35) . . .
51(4) . . .
47(4) . . .
41.6(35) . . .
44(4) . . .
47.0(35) . . .
46(4) . . .
44(4) . . .
41(4) . . .
49(4) . . .
52(4) . . .
48(4) . . .
42.3(35) . . .
38.8(34) . . .
39.5(33) . . .
42.6(34) . . .
44.5(35) . . .
48(4) . . .
53(4) . . .
51(4) . . .
52(4) . . .
45(4) . . .
44(4) . . .
51(4) . . .
37.4(32) . . .
46(4) . . .
50(4) . . .
39.3(32) . . .
40.9(35) . . .
46(4) . . .
49(4) . . .
54(4) . . .
43(4) . . .
44(4) . . .
42.9(34) . . .
41.7(33) . . .
39.3(33) . . .
46(4) . . .
49(4) . . .
46(4) . . .
41.3(35) . . .
46(4) . . .
47(4) . . .
50(4) . . .
43.0(34) . . .
42.8(35) . . .
51(4) . . .
53(4) . . .
46(4) . . .
46(4) . . .
48(4) . . .
38.8(33) . . .
44(4) . . .
45(4) . . .
45(4) . . .
45.4(34) . . .
51(4) . . .
40.4(33) . . .
43.1(34) . . .
39.7(33) . . .
40.7(34) . . .
52(4) . . .
40.2(32) . . .
59(4) . . .
41.0(33) . . .
44(4) . . .
50(4) . . .
45(4) . . .
42.1(33) . . .
45.5(35) . . .
42.5(35) . . .
44(4) . . .
46(4) . . .
38.3(32) . . .
47(4) . . .
44(4) . . .
43(4) . . .
45.5(35) . . .
45(4) . . .
47(4) . . .
38.9(33) . . .
42.1(35) . . .
44.4(35) . . .
49(4) . . .
43.1(34) . . .
45(4) . . .
48(4) . . .
53(4) . . .
45(4) . . .
45(4) . . .
42.0(34) . . .
48(4) . . .
47(4) . . .
38.0(32) . . .
44(4) . . .
42.3(33) . . .
50(4) . . .
40.5(34) . . .
45.0(35) . . .
39.8(33) . . .
51(4) . . .
53(4) . . .
37.2(32) . . .
36.0(31) . . .
49(4) . . .
44(4) . . .
42(4) . . .
40.0(34) . . .
38.8(33) . . .
45(4) . . .
48(4) . . .
45(4) . . .
40.7(34) . . .
39.3(33) . . .
38.6(33) . . .
46(4) . . .
47(4) . . .
48(4) . . .
49(4) . . .
50(4) . . .
40.6(35) . . .
42(4) . . .
49(4) . . .
42.4(34) . . .
41.3(34) . . .
40.3(34) . . .
45(4) . . .
43.3(34) . . .
40.0(33) . . .
37.7(33) . . .
50(4) . . .
44(4) . . .
44.3(35) . . .
44(4) . . .
40(4) . . .
45(4) . . .
43(4) . . .
49(4) . . .
40.8(33) . . .
50(4) . . .
51(4) . . .
43(4) . . .
40.2(33) . . .
51(4) . . .
44(4) . . .
44(4) . . .
41.6(34) . . .
38.4(32) . . .
43.3(35) . . .
50(4) . . .
45(4) . . .
49(4) . . .
54(4) . . .
62(4) . . .
36.0(31) . . .
45(4) . . .
45(4) . . .
53(4) . . .
44(4) . . .
32.8(29) . . .
43(4) . . .
45(4) . . .
51(4) . . .
46(4) . . .
39.9(34) . . .
49(4) . . .
46(4) . . .
43.5(35) . . .
48(4) . . .
39(4) . . .
42(4) . . .
38.8(34) . . .
35.1(30) . . .
44(4) . . .
50(4) . . .
46(4) . . .
54(4) . . .
48(4) . . .
49(4) . . .
44(4) . . .
41.9(35) . . .
40.2(33) . . .
42.6(34) . . .
51(4) . . .
42.6(35) . . .
53(4) . . .
49(4) . . .
52(4) . . .
49(4) . . .
43(4) . . .
44(4) . . .
47(4) . . .
51(4) . . .
55(4) . . .
45(4) . . .
40.5(34) . . .
50(4) . . .
45.3(35) . . .
45(4) . . .
39(4) . . .
43(4) . . .
52(4) . . .
43.1(35) . . .
46(4) . . .
42(4) . . .
47(4) . . .
40.7(33) . . .
44(4) . . .
47(4) . . .
50(4) . . .
39.4(34) . . .
46(4) . . .
44(4) . . .
35.7(33) . . .
44(4) . . .
44.5(35) . . .
43.4(34) . . .
52(4) . . .
45(4) . . .
58(4) . . .
47(4) . . .
46(4) . . .
50(4) . . .
48(4) . . .
42.5(35) . . .
48(4) . . .
52(4) . . .
47(4) . . .
50(4) . . .
49(4) . . .
49(4) . . .
44(4) . . .
49(4) . . .
53(4) . . .
49(4) . . .
56(4) . . .
47(4) . . .
41.2(34) . . .
51(4) . . .
44(4) . . .
46(4) . . .
48(4) . . .
44(4) . . .
39.1(35) . . .
40.9(33) . . .
45.7(35) . . .
48(4) . . .
44(4) . . .
44(4) . . .
48(4) . . .
52(4) . . .
41.6(34) . . .
36.5(33) . . .
40.7(35) . . .
50(4) . . .
57(4) . . .
48(4) . . .
48(4) . . .
35.2(33) . . .
50(4) . . .
44.2(35) . . .
37.6(32) . . .
40.2(34) . . .
44(4) . . .
42.8(34) . . .
42.7(34) . . .
45(4) . . .
52(4) . . .
49(4) . . .
49(4) . . .
45(4) . . .
38.2(32) . . .
38.1(32) . . .
44(4) . . .
44.8(35) . . .
47(4) . . .
45(4) . . .
52(4) . . .
40.8(35) . . .
39.3(33) . . .
51(4) . . .
41(4) . . .
48(4) . . .
41.1(34) . . .
54(4) . . .
46(4) . . .
47(4) . . .
46(4) . . .
51(4) . . .
46(4) . . .
43.9(34) . . .
44(4) . . .
45(4) . . .
41.7(34) . . .
55(4) . . .
50(4) . . .
49(4) . . .
47(4) . . .
45(4) . . .
41.8(33) . . .
46(4) . . .
44(4) . . .
46(4) . . .
47(4) . . .
50(4) . . .
42.6(34) . . .
37.4(33) . . .
40.7(35) . . .
48(4) . . .
46.1(35) . . .
46(4) . . .
42.2(35) . . .
38.3(34) . . .
47(4) . . .
41.8(34) . . .
39.8(34) . . .
47(4) . . .
46(4) . . .
44.6(35) . . .
41.6(33) . . .
49(4) . . .
48(4) . . .
46(4) . . .
50(4) . . .
54(4) . . .
45(4) . . .
51(4) . . .
50(4) . . .
48(4) . . .
40.2(33) . . .
46(4) . . .
50(4) . . .
45(4) . . .
52(4) . . .
42.8(34) . . .
42.1(34) . . .
48(4) . . .
44.6(34) . . .
43.2(35) . . .
48(4) . . .
50(4) . . .
53(4) . . .
44.2(34) . . .
44.4(35) . . .
65(4) . . .
45(4) . . .
48(4) . . .
52(4) . . .
55(4) . . .
42(4) . . .
42(4) . . .
37(4) . . .
48(4) . . .
47(4) . . .
43(4) . . .
46(4) . . .
36.3(34) . . .
49(4) . . .
42.9(35) . . .
37.8(33) . . .
37.6(35) . . .
44(4) . . .
39.2(35) . . .
41.9(33) . . .
50(4) . . .
50(4) . . .
44(4) . . .
38.8(33) . . .
35.7(31) . . .
45(4) . . .
41.6(35) . . .
39.9(34) . . .
52(4) . . .
39.0(33) . . .
52(4) . . .
48(4) . . .
40.5(35) . . .
43.5(34) . . .
45.4(35) . . .
42(4) . . .
42(4) . . .
42.3(34) . . .
47(4) . . .
40.0(33) . . .
45(4) . . .
48(4) . . .
36.3(33) . . .
43.1(34) . . .
46(4) . . .
42.0(34) . . .
47(4) . . .
44(4) . . .
48(4) . . .
47(4) . . .
44(4) . . .
46(4) . . .
50(4) . . .
47(4) . . .
41.9(34) . . .
47(4) . . .
40.1(35) . . .
49(4) . . .
41.8(34) . . .
51(4) . . .
51(4) . . .
47(4) . . .
45(4) . . .
51(4) . . .
42.5(34) . . .
46(4) . . .
39.6(35) . . .
41.8(35) . . .
46(4) . . .
54(4) . . .
41.0(33) . . .
63(4) . . .
45(4) . . .
41.5(33) . . .
50(4) . . .
44(4) . . .
45(4) . . .
45(4) . . .
44.5(35) . . .
34.0(31) . . .
45(4) . . .
48(4) . . .
55(4) . . .
50(4) . . .
43(4) . . .
44(4) . . .
53(4) . . .
51(4) . . .
38.6(32) . . .
48(4) . . .
51(4) . . .
42.2(34) . . .
43.2(35) . . .
50(4) . . .
41.5(34) . . .
46(4) . . .
50(4) . . .
38.1(33) . . .
52(4) . . .
39.0(33) . . .
40.9(35) . . .
45(4) . . .
51(4) . . .
43.0(34) . . .
41(4) . . .
43(4) . . .
36.6(32) . . .
53(4) . . .
46(4) . . .
48(4) . . .
51(4) . . .
40.2(33) . . .
49(4) . . .
52(4) . . .
50(4) . . .
45(4) . . .
47(4) . . .
42.8(34) . . .
47(4) . . .
43.6(34) . . .
53(4) . . .
51(4) . . .
39.5(33) . . .
45(4) . . .
37.6(32) . . .
45(4) . . .
56(4) . . .
47(4) . . .
40(4) . . .
49(4) . . .
42.7(35) . . .
49(4) . . .
52(4) . . .
48(4) . . .
47(4) . . .
47(4) . . .
43.1(34) . . .
50(4) . . .
48(4) . . .
45(4) . . .
46(4) . . .
35.7(31) . . .
44(4) . . .
36.7(32) . . .
43(4) . . .
49(4) . . .
52(4) . . .
48(4) . . .
51(4) . . .
40.5(35) . . .
44(4) . . .
49(4) . . .
40.9(34) . . .
43(4) . . .
44(4) . . .
39.1(35) . . .
36.0(31) . . .
42.4(34) . . .
46(4) . . .
43(4) . . .
50(4) . . .
53(4) . . .
39.3(33) . . .
38.9(33) . . .
50(4) . . .
54(4) . . .
45(4) . . .
41.1(34) . . .
45(4) . . .
40.2(33) . . .
53(4) . . .
45(4) . . .
45.5(35) . . .
44(4) . . .
44(4) . . .
46(4) . . .
44.3(35) . . .
48(4) . . .
36.0(32) . . .
42(4) . . .
43(4) . . .
50(4) . . .
42.3(35) . . .
49(4) . . .
48(4) . . .
41.0(34) . . .
41.7(33) . . .
33.3(30) . . .
41.1(34) . . .
37.4(33) . . .
43.7(34) . . .
42.2(34) . . .
47(4) . . .
42.0(35) . . .
51(4) . . .
51(4) . . .
44(4) . . .
42(4) . . .
45(4) . . .
41.6(34) . . .
41.4(33) . . .
47(4) . . .
54(4) . . .
48(4) . . .
40.8(34) . . .
44(4) . . .
35.5(30) . . .
46(4) . . .
49(4) . . .
52(4) . . .
45(4) . . .
49(4) . . .
46(4) . . .
41(4) . . .
42.5(35) . . .
48(4) . . .
46(4) . . .
44(4) . . .
50(4) . . .
45(4) . . .
47(4) . . .
42(4) . . .
39.3(33) . . .
41(4) . . .
44(4) . . .
47(4) . . .
44(4) . . .
41(4) . . .
38.8(34) . . .
42(4) . . .
41.8(34) . . .
48(4) . . .
39.8(32) . . .
46(4) . . .
55(4) . . .
44.4(35) . . .
50(4) . . .
46(4) . . .
47(4) . . .
43.0(34) . . .
47(4) . . .
54(4) . . .
46(4) . . .
51(4) . . .
47(4) . . .
42.2(34) . . .
52(4) . . .
54(4) . . .
49(4) . . .
47(4) . . .
38.5(33) . . .
44.2(35) . . .
54(4) . . .
47(4) . . .
37.2(32) . . .
42.1(34) . . .
37.5(33) . . .
38.8(33) . . .
48(4) . . .
42.3(34) . . .
39.2(33) . . .
38.9(33) . . .
49(4) . . .
43(4) . . .
38.1(32) . . .
47(4) . . .
44(4) . . .
48(4) . . .
37.1(32) . . .
37.5(32) . . .
52(4) . . .
47(4) . . .
39.3(33) . . .
36.9(33) . . .
48(4) . . .
40.4(33) . . .
53(4) . . .
49(4) . . .
57(4) . . .
52(4) . . .
53(4) . . .
37.8(32) . . .
48(4) . . .
40.2(33) . . .
39.4(33) . . .
54(4) . . .
33.3(31) . . .
42.3(35) . . .
45(4) . . .
43.6(34) . . .
42.7(35) . . .
50(4) . . .
45(4) . . .
43.0(34) . . .
43.6(34) . . .
43(4) . . .
52(4) . . .
49(4) . . .
46.4(35) . . .
37.3(33) . . .
40.7(34) . . .
49(4) . . .
41.5(34) . . .
45.0(35) . . .
51(4) . . .
40.0(34) . . .
47(4) . . .
43(4) . . .
56(4) . . .
46(4) . . .
40.7(35) . . .
43(4) . . .
38.0(32) . . .
49(4) . . .
43.9(35) . . .
40.8(34) . . .
38.6(34) . . .
43(4) . . .
58(4) . . .
52(4) . . .
58(4) . . .
52(4) . . .
53(4) . . .
36.4(32) . . .
50(4) . . .
57(4) . . .
44(4) . . .
50(4) . . .
42.8(34) . . .
42.8(34) . . .
49(4) . . .
36.1(33) . . .
40.7(34) . . .
46(4) . . .
44(4) . . .
35.3(33) . . .
49(4) . . .
46(4) . . .
42.3(35) . . .
42(4) . . .
42(4) . . .
46(4) . . .
51(4) . . .
42.9(34) . . .
36.9(32) . . .
38.4(35) . . .
42(4) . . .
46(4) . . .
51(4) . . .
43(4) . . .
46(4) . . .
54(4) . . .
41.0(34) . . .
44.0(35) . . .
36.5(31) . . .
46(4) . . .
44.6(35) . . .
51(4) . . .
47(4) . . .
65(5) . . .
47(4) . . .
50(4) . . .
38.5(32) . . .
44.6(35) . . .
40.9(33) . . .
55(4) . . .
44(4) . . .
49(4) . . .
43(4) . . .
42.8(34) . . .
42(4) . . .
42(4) . . .
45(4) . . .
51(4) . . .
49(4) . . .
46(4) . . .
46(4) . . .
51(4) . . .
50(4) . . .
41.0(34) . . .
42.4(35) . . .
48(4) . . .
42.0(34) . . .
45(4) . . .
52(4) . . .
42.1(33) . . .
48(4) . . .
41.4(34) . . .
49(4) . . .
45(4) . . .
49(4) . . .
48(4) . . .
50(4) . . .
41.9(34) . . .
37.2(32) . . .
44.8(34) . . .
49(4) . . .
55(4) . . .
43(4) . . .
46(4) . . .
48(4) . . .
49(4) . . .
56(4) . . .
55(4) . . .
47(4) . . .
42.2(34) . . .
48(4) . . .
50(4) . . .
48(4) . . .
46(4) . . .
43(4) . . .
44.0(35) . . .
45(4) . . .
46(4) . . .
40.1(35) . . .
37.9(33) . . .
43.2(35) . . .
48(4) . . .
36.7(31) . . .
49(4) . . .
38.9(34) . . .
42.9(34) . . .
47(4) . . .
44(4) . . .
40.0(32) . . .
42(4) . . .
40.5(33) . . .
39.6(34) . . .
44(4) . . .
52(4) . . .
38.3(32) . . .
50(4) . . .
52(4) . . .
43(4) . . .
49(4) . . .
41.5(33) . . .
49(4) . . .
44(4) . . .
43(4) . . .
44(4) . . .
44.7(35) . . .
40.3(33) . . .
41(4) . . .
46(4) . . .
53(4) . . .
59(4) . . .
49(4) . . .
45(4) . . .
47(4) . . .
46(4) . . .
42.9(34) . . .
44.8(35) . . .
48(4) . . .
44(4) . . .
43(4) . . .
46(4) . . .
50(4) . . .
46(4) . . .
48(4) . . .
42(4) . . .
42.4(34) . . .
43.7(34) . . .
41.8(34) . . .
49(4) . . .
46(4) . . .
65(4) . . .
45(4) . . .
46(4) . . .
43(4) . . .
49(4) . . .
50(4) . . .
55(4) . . .
42.4(35) . . .
42(4) . . .
54(4) . . .
41.2(33) . . .
48(4) . . .
43.8(35) . . .
43.1(35) . . .
41.2(35) . . .
38.2(33) . . .
46(4) . . .
51(4) . . .
40.7(33) . . .
43.1(35) . . .
40.7(33) . . .
46(4) . . .
47(4) . . .
43.2(35) . . .
48(4) . . .
42.8(34) . . .
38.6(34) . . .
47(4) . . .
54(4) . . .
45(4) . . .
56(4) . . .
39.3(32) . . .
46(4) . . .
43(4) . . .
45(4) . . .
50(4) . . .
45(4) . . .
43(4) . . .
32.9(30) . . .
55(4) . . .
41.7(34) . . .
46(4) . . .
49(4) . . .
53(4) . . .
48(4) . . .
43.4(35) . . .
44(4) . . .
39.3(34) . . .
37.2(33) . . .
46(4) . . .
45.0(35) . . .
40.2(33) . . .
41.0(35) . . .
44(4) . . .
47(4) . . .
46(4) . . .
44.4(34) . . .
44(4) . . .
41.1(34) . . .
53(4) . . .
46(4) . . .
41.9(34) . . .
46(4) . . .
53(4) . . .
38.3(32) . . .
51(4) . . .
45(4) . . .
47(4) . . .
46(4) . . .
39.3(33) . . .
48(4) . . .
48(4) . . .
56(4) . . .
39.2(33) . . .
38.6(32) . . .
43(4) . . .
40(4) . . .
50(4) . . .
51(4) . . .
51(4) . . .
49(4) . . .
43(4) . . .
52(4) . . .
34.9(30) . . .
39.4(33) . . .
44(4) . . .
35.6(32) . . .
45(4) . . .
41.7(34) . . .
43.7(35) . . .
50(4) . . .
42(4) . . .
40.5(35) . . .
40.9(34) . . .
49(4) . . .
47(4) . . .
56(4) . . .
47(4) . . .
54(4) . . .
49(4) . . .
51(4) . . .
49(4) . . .
51(4) . . .
39.6(33) . . .
36.5(31) . . .
46(4) . . .
42(4) . . .
49(4) . . .
48(4) . . .
41(4) . . .
49(4) . . .
50(4) . . .
45.1(34) . . .
52(4) . . .
40.4(34) . . .
47(4) . . .
47(4) . . .
44.0(35) . . .
42.4(34) . . .
47(4) . . .
48(4) . . .
46(4) . . .
44.3(35) . . .
39.6(33) . . .
46(4) . . .
28.8(28) . . .
39.1(33) . . .
51(4) . . .
38.7(33) . . .
57(4) . . .
45(4) . . .
51(4) . . .
39.1(32) . . .
42.5(35) . . .
46(4) . . .
52(4) . . .
39.5(33) . . .
50(4) . . .
42.0(34) . . .
44(4) . . .
41(4) . . .
46(4) . . .
47(4) . . .
40.6(33) . . .
52(4) . . .
39.5(35) . . .
42.0(35) . . .
40.7(33) . . .
49(4) . . .
46(4) . . .
43(4) . . .
50(4) . . .
43.9(35) . . .
42.1(34) . . .
45(4) . . .
52(4) . . .
51(4) . . .
43.8(35) . . .
50(4) . . .
41.6(34) . . .
53(4) . . .
46(4) . . .
46(4) . . .
47(4) . . .
55(4) . . .
46(4) . . .
38.3(32) . . .
56(4) . . .
50(4) . . .
39.0(35) . . .
44(4) . . .
42(4) . . .
50(4) . . .
36.5(31) . . .
48(4) . . .
39.0(33) . . .
47(4) . . .
43.3(34) . . .
50(4) . . .
48(4) . . .
38.0(33) . . .
49(4) . . .
49(4) . . .
42.6(34) . . .
51(4) . . .
50(4) . . .
47(4) . . .
47(4) . . .
62(4) . . .
49(4) . . .
43.0(34) . . .
47(4) . . .
42.6(35) . . .
48(4) . . .
47(4) . . .
45(4) . . .
40.4(33) . . .
32.8(30) . . .
46(4) . . .
39.4(32) . . .
51(4) . . .
44.7(35) . . .
41.7(34) . . .
36.0(32) . . .
40.0(33) . . .
39.5(33) . . .
36.1(31) . . .
43(4) . . .
42.1(35) . . .
50(4) . . .
42.6(35) . . .
33.3(30) . . .
50(4) . . .
40.0(33) . . .
44(4) . . .
54(4) . . .
39.2(32) . . .
49(4) . . .
42(4) . . .
38.8(33) . . .
44.0(35) . . .
39.3(33) . . .
48(4) . . .
53(4) . . .
45(4) . . .
44.5(35) . . .
41.5(33) . . .
49(4) . . .
48(4) . . .
40.2(33) . . .
39.0(33) . . .
46.1(35) . . .
38.0(32) . . .
36.2(34) . . .
40.1(35) . . .
39.4(33) . . .
42.0(34) . . .
35.8(33) . . .
39(4) . . .
48(4) . . .
40.3(33) . . .
43(4) . . .
41.7(34) . . .
46(4) . . .
32.3(30) . . .
51(4) . . .
54(4) . . .
49(4) . . .
44(4) . . .
39.0(34) . . .
42.3(34) . . .
46(4) . . .
46(4) . . .
42.4(35) . . .
36.4(33) . . .
41.2(33) . . .
35.2(31) . . .
35.8(34) . . .
52(4) . . .
45(4) . . .
55(4) . . .
47(4) . . .
50(4) . . .
43(4) . . .
38.7(33) . . .
39.2(33) . . .
46(4) . . .
56(4) . . .
45(4) . . .
43(4) . . .
40.5(34) . . .
41.3(35) . . .
40(4) . . .
57(4) . . .
42.7(34) . . .
41.3(33) . . .
50(4) . . .
48(4) . . .
45(4) . . .
54(4) . . .
42.2(33) . . .
31.8(29) . . .
47(4) . . .
56(4) . . .
44.6(35) . . .
42.5(34) . . .
41.3(33) . . .
40.0(35) . . .
49(4) . . .
49(4) . . .
55(4) . . .
48(4) . . .
45(4) . . .
41.7(34) . . .
49(4) . . .
41.1(33) . . .
42.9(34) . . .
44(4) . . .
44(4) . . .
39.7(33) . . .
46(4) . . .
38.7(32) . . .
41(4) . . .
41.6(35) . . .
42.1(34) . . .
42.3(34) . . .
44(4) . . .
50(4) . . .
46(4) . . .
50(4) . . .
44(4) . . .
40.8(34) . . .
49(4) . . .
43(4) . . .
41.5(33) . . .
42.7(34) . . .
48(4) . . .
41.3(35) . . .
34.7(31) . . .
43.1(35) . . .
50(4) . . .
52(4) . . .
50(4) . . .
40.0(33) . . .
44.7(34) . . .
44(4) . . .
45(4) . . .
42(4) . . .
39.1(32) . . .
53(4) . . .
40(4) . . .
39.3(34) . . .
46(4) . . .
46(4) . . .
42.5(35) . . .
52(4) . . .
44(4) . . .
43.5(35) . . .
44.3(34) . . .
40.0(34) . . .
49(4) . . .
49(4) . . .
46(4) . . .
43.9(34) . . .
41.1(33) . . .
45(4) . . .
48(4) . . .
55(4) . . .
45.4(35) . . .
49(4) . . .
51(4) . . .
36.9(33) . . .
41.9(34) . . .
51(4) . . .
46(4) . . .
43.8(34) . . .
52(4) . . .
51(4) . . .
39.7(33) . . .
39.8(34) . . .
47(4) . . .
38.9(34) . . .
55(4) . . .
53(4) . . .
41.2(35) . . .
51(4) . . .
38.6(33) . . .
37.3(32) . . .
49(4) . . .
50(4) . . .
52(4) . . .
40.3(34) . . .
52(4) . . .
40.7(33) . . .
44(4) . . .
44(4) . . .
45(4) . . .
38.7(33) . . .
48(4) . . .
43.2(34) . . .
47(4) . . .
49(4) . . .
43.8(35) . . .
44.7(34) . . .
37.2(32) . . .
44(4) . . .
41.9(35) . . .
46(4) . . .
51(4) . . .
40.3(33) . . .
32.5(31) . . .
38.6(34) . . .
46(4) . . .
47(4) . . .
53(4) . . .
38.5(32) . . .
48(4) . . .
49(4) . . .
49(4) . . .
43.1(34) . . .
41.8(34) . . .
52(4) . . .
39.3(33) . . .
47(4) . . .
45(4) . . .
48(4) . . .
51(4) . . .
44.5(34) . . .
47(4) . . .
40.8(34) . . .
41(4) . . .
38.6(33) . . .
41.3(33) . . .
48(4) . . .
38.0(32) . . .
42.3(34) . . .
36.6(32) . . .
40.9(33) . . .
44(4) . . .
46(4) . . .
44(4) . . .
46(4) . . .
46(4) . . .
57(4) . . .
43(4) . . .
41(4) . . .
36.9(31) . . .
39.1(32) . . .
37.8(32) . . .
47(4) . . .
43.3(35) . . .
42.8(33) . . .
56(4) . . .
47(4) . . .
37.6(33) . . .
46(4) . . .
36.0(32) . . .
37.6(32) . . .
45(4) . . .
50(4) . . .
55(4) . . .
46(4) . . .
40.4(34) . . .
36.5(32) . . .
45(4) . . .
34.3(30) . . .
53(4) . . .
46(4) . . .
41.1(34) . . .
44(4) . . .
44(4) . . .
42.8(34) . . .
34.9(32) . . .
44(4) . . .
48(4) . . .
45(4) . . .
37.7(32) . . .
47(4) . . .
44(4) . . .
47(4) . . .
49(4) . . .
50(4) . . .
52(4) . . .
46(4) . . .
52(4) . . .
50(4) . . .
42.3(34) . . .
52(4) . . .
45(4) . . .
50(4) . . .
44.3(35) . . .
52(4) . . .
41.5(34) . . .
53(4) . . .
49(4) . . .
43.1(34) . . .
44.9(35) . . .
44(4) . . .
39(4) . . .
42.1(35) . . .
51(4) . . .
39.6(34) . . .
40(4) . . .
43(4) . . .
41(4) . . .
50(4) . . .
46(4) . . .
41.9(34) . . .
46(4) . . .
42(4) . . .
39.9(33) . . .
42.0(34) . . .
53(4) . . .
49(4) . . .
46.2(35) . . .
47(4) . . .
39.6(33) . . .
49(4) . . .
37.1(33) . . .
44(4) . . .
45.3(35) . . .
44.4(34) . . .
51(4) . . .
43.0(35) . . .
41.1(33) . . .
43.1(35) . . .
49(4) . . .
37.3(32) . . .
39.0(34) . . .
59(4) . . .
44.0(35) . . .
44.9(35) . . .
46(4) . . .
40.6(33) . . .
40.7(33) . . .
39.0(33) . . .
51(4) . . .
48(4) . . .
44(4) . . .
48(4) . . .
34.5(30) . . .
40.3(33) . . .
42.8(35) . . .
54(4) . . .
51(4) . . .
38.6(32) . . .
48(4) . . .
40(4) . . .
43(4) . . .
44(4) . . .
38.6(32) . . .
51(4) . . .
45(4) . . .
37.4(32) . . .
43.4(35) . . .
44.2(35) . . .
32.6(30) . . .
52(4) . . .
45(4) . . .
45.2(35) . . .
42(4) . . .
42.7(35) . . .
48(4) . . .
43.6(35) . . .
44.4(35) . . .
45.4(35) . . .
46(4) . . .
38.4(33) . . .
45(4) . . .
33.5(31) . . .
41.0(35) . . .
46(4) . . .
40.3(35) . . .
47(4) . . .
41.7(34) . . .
37.8(33) . . .
43(4) . . .
31.4(30) . . .
42(4) . . .
42.6(34) . . .
42.2(33) . . .
48(4) . . .
38.9(34) . . .
50(4) . . .
48(4) . . .
45(4) . . .
46(4) . . .
41.6(34) . . .
44.4(35) . . .
37.5(32) . . .
53(4) . . .
43.5(35) . . .
40.1(33) . . .
32.9(29) . . .
41.1(33) . . .
37.9(32) . . .
45(4) . . .
38.9(33) . . .
33.1(30) . . .
38.4(33) . . .
50(4) . . .
51(4) . . .
38.6(34) . . .
42.7(33) . . .
48(4) . . .
52(4) . . .
53(4) . . .
46(4) . . .
52(4) . . .
40.8(33) . . .
41.6(35) . . .
42(4) . . .
44(4) . . .
55(4) . . .
38.4(32) . . .
43(4) . . .
42(4) . . .
47(4) . . .
52(4) . . .
47(4) . . .
35.5(32) . . .
42(4) . . .
40.1(35) . . .
52(4) . . .
43(4) . . .
40(4) . . .
50(4) . . .
46(4) . . .
47(4) . . .
43(4) . . .
45(4) . . .
38.7(33) . . .
46(4) . . .
46(4) . . .
50(4) . . .
38.8(35) . . .
36.6(34) . . .
35.0(31) . . .
50(4) . . .
50(4) . . .
36.8(33) . . .
31.8(29) . . .
47(4) . . .
38.6(32) . . .
40.5(34) . . .
44(4) . . .
50(4) . . .
47(4) . . .
46(4) . . .
42.5(35) . . .
42.3(34) . . .
64(4) . . .
45(4) . . .
36.8(32) . . .
40.5(35) . . .
47(4) . . .
41(4) . . .
45.4(35) . . .
39.7(33) . . .
36.9(33) . . .
38.9(35) . . .
47(4) . . .
39.5(33) . . .
49(4) . . .
46(4) . . .
46(4) . . .
38.2(32) . . .
51(4) . . .
33.5(30) . . .
42(4) . . .
38.6(33) . . .
42.3(33) . . .
42.0(33) . . .
51(4) . . .
45.7(35) . . .
42(4) . . .
33.3(32) . . .
34.1(30) . . .
44(4) . . .
48(4) . . .
50(4) . . .
41(4) . . .
49(4) . . .
39.2(33) . . .
37.8(34) . . .
34.9(33) . . .
30.8(30) . . .
39.5(33) . . .
48(4) . . .
39.9(35) . . .
40(4) . . .
44(4) . . .
46(4) . . .
45(4) . . .
49(4) . . .
38.2(32) . . .
44.8(35) . . .
44.5(35) . . .
40.2(33) . . .
50(4) . . .
46(4) . . .
43.4(34) . . .
51(4) . . .
47(4) . . .
43(4) . . .
39.8(34) . . .
44(4) . . .
40.2(33) . . .
39.7(34) . . .
46(4) . . .
47(4) . . .
43.3(34) . . .
41.7(33) . . .
54(4) . . .
41(4) . . .
42(4) . . .
34.2(31) . . .
39.9(33) . . .
47(4) . . .
47(4) . . .
44(4) . . .
37.8(32) . . .
47(4) . . .
45(4) . . .
47(4) . . .
44(4) . . .
48(4) . . .
42.0(34) . . .
38.2(32) . . .
44(4) . . .
49(4) . . .
44.2(34) . . .
43.2(35) . . .
32.6(30) . . .
43(4) . . .
47(4) . . .
42.7(34) . . .
41.7(34) . . .
43(4) . . .
52(4) . . .
52(4) . . .
50(4) . . .
48(4) . . .
49(4) . . .
49(4) . . .
45.0(35) . . .
47(4) . . .
64(4) . . .
37.2(32) . . .
47(4) . . .
58(4) . . .
48(4) . . .
44.4(35) . . .
49(4) . . .
46(4) . . .
44.0(34) . . .
40.3(33) . . .
36.9(32) . . .
47(4) . . .
46(4) . . .
47(4) . . .
43.1(34) . . .
46(4) . . .
51(4) . . .
42.3(34) . . .
44.7(35) . . .
52(4) . . .
39.5(35) . . .
32.8(31) . . .
44(4) . . .
43.2(34) . . .
36.4(31) . . .
38.9(31) . . .
49(4) . . .
45(4) . . .
40.0(33) . . .
40.6(33) . . .
47(4) . . .
45(4) . . .
44(4) . . .
37.2(32) . . .
40.3(33) . . .
43(4) . . .
43(4) . . .
42.2(34) . . .
43.9(35) . . .
52(4) . . .
42(4) . . .
39.7(35) . . .
40.8(34) . . .
48(4) . . .
42.5(34) . . .
47(4) . . .
51(4) . . .
41.8(35) . . .
36.5(31) . . .
50(4) . . .
42(4) . . .
41.3(35) . . .
50(4) . . .
41.5(34) . . .
47(4) . . .
40(4) . . .
45(4) . . .
41.6(34) . . .
46(4) . . .
39.4(33) . . .
48(4) . . .
41.8(34) . . .
48(4) . . .
46(4) . . .
46(4) . . .
47(4) . . .
45(4) . . .
41.8(34) . . .
32.5(30) . . .
53(4) . . .
51(4) . . .
44(4) . . .
39.8(33) . . .
49(4) . . .
44(4) . . .
45(4) . . .
47(4) . . .
41.7(34) . . .
46(4) . . .
49(4) . . .
42(4) . . .
31.8(30) . . .
37.4(32) . . .
31.7(29) . . .
42.8(35) . . .
40.6(33) . . .
41.5(34) . . .
40.8(33) . . .
46(4) . . .
42.0(34) . . .
40.8(35) . . .
46(4) . . .
38.1(32) . . .
44(4) . . .
40.4(34) . . .
36.7(34) . . .
46(4) . . .
41.0(33) . . .
39.7(34) . . .
28.5(28) . . .
46(4) . . .
49(4) . . .
46(4) . . .
43(4) . . .
51(4) . . .
41(4) . . .
42.1(34) . . .
39.8(34) . . .
45(4) . . .
38.9(35) . . .
44(4) . . .
45(4) . . .
38.1(32) . . .
48(4) . . .
38.2(35) . . .
37.4(33) . . .
46(4) . . .
32.5(29) . . .
34.4(35) . . .
39(4) . . .
42(4) . . .
46(4) . . .
47(4) . . .
46(4) . . .
50(4) . . .
37.6(33) . . .
37.8(32) . . .
40.5(33) . . .
54(4) . . .
46(4) . . .
45(4) . . .
44.0(35) . . .
38.5(32) . . .
39.8(33) . . .
44(4) . . .
49(4) . . .
47(4) . . .
46(4) . . .
44(4) . . .
50(4) . . .
49(4) . . .
42.7(34) . . .
39(4) . . .
38.5(34) . . .
38.2(33) . . .
39.8(33) . . .
47(4) . . .
49(4) . . .
41.6(35) . . .
39.9(34) . . .
41.5(34) . . .
37.9(32) . . .
47(4) . . .
41(4) . . .
46(4) . . .
33.2(30) . . .
33.7(30) . . .
34.9(32) . . .
38.3(34) . . .
43(4) . . .
39.1(33) . . .
38.0(32) . . .
42.2(35) . . .
36.2(33) . . .
37.6(33) . . .
42.1(33) . . .
36.5(31) . . .
41.6(34) . . .
44(4) . . .
43(4) . . .
43.7(34) . . .
48(4) . . .
43(4) . . .
43(4) . . .
39.3(35) . . .
47(4) . . .
45(4) . . .
41.0(35) . . .
32.7(32) . . .
35.2(32) . . .
43.5(34) . . .
45(4) . . .
49(4) . . .
45(4) . . .
48(4) . . .
43.3(34) . . .
44.3(35) . . .
42(4) . . .
36.2(32) . . .
42.8(35) . . .
46(4) . . .
46(4) . . .
39.8(35) . . .
31.2(31) . . .
50(4) . . .
46(4) . . .
41.5(34) . . .
47(4) . . .
47(4) . . .
37.9(33) . . .
44.5(35) . . .
39.1(33) . . .
57(4) . . .
43.6(35) . . .
49(4) . . .
49(4) . . .
41.9(35) . . .
47(4) . . .
40.0(34) . . .
45(4) . . .
50(4) . . .
46(4) . . .
49(4) . . .
38.2(32) . . .
32.3(30) . . .
37.0(32) . . .
41.5(35) . . .
34.7(32) . . .
38.3(32) . . .
45(4) . . .
36.5(31) . . .
52(4) . . .
44(4) . . .
42.6(34) . . .
36.5(31) . . .
39.3(32) . . .
41.4(34) . . .
40.9(34) . . .
46(4) . . .
49(4) . . .
37.3(31) . . .
37.1(33) . . .
48(4) . . .
40(4) . . .
50(4) . . .
50(4) . . .
41(4) . . .
34.8(34) . . .
43(4) . . .
47(4) . . .
49(4) . . .
32.9(32) . . .
42(4) . . .
47(4) . . .
44.7(35) . . .
42.4(34) . . .
37.2(32) . . .
42.2(35) . . .
36.5(35) . . .
41.7(34) . . .
38.3(34) . . .
45(4) . . .
44(4) . . .
44.7(35) . . .
41.9(34) . . .
41.5(35) . . .
47(4) . . .
39.1(34) . . .
46(4) . . .
39.9(32) . . .
33.9(32) . . .
48(4) . . .
44(4) . . .
38.1(32) . . .
48(4) . . .
41(4) . . .
43(4) . . .
39.0(33) . . .
28.7(29) . . .
45(4) . . .
36.8(33) . . .
32.9(32) . . .
39.5(34) . . .
47(4) . . .
42.4(34) . . .
39.8(35) . . .
50(4) . . .
46(4) . . .
36.2(31) . . .
53(4) . . .
48(4) . . .
38.1(33) . . .
44(4) . . .
46(4) . . .
38.6(33) . . .
38.9(33) . . .
45(4) . . .
47(4) . . .
36.7(32) . . .
40.6(34) . . .
43(4) . . .
46(4) . . .
47(4) . . .
40.8(34) . . .
41.5(34) . . .
46(4) . . .
43(4) . . .
42.2(33) . . .
45(4) . . .
48(4) . . .
39.2(34) . . .
41.9(35) . . .
46(4) . . .
39.5(32) . . .
43(4) . . .
38.1(33) . . .
43(4) . . .
41.5(34) . . .
39.1(32) . . .
42.2(34) . . .
39.8(34) . . .
39.9(34) . . .
46(4) . . .
45.2(35) . . .
43.4(35) . . .
47(4) . . .
43(4) . . .
48(4) . . .
45(4) . . .
45(4) . . .
47(4) . . .
44(4) . . .
44.4(34) . . .
42.2(34) . . .
33.3(32) . . .
39.5(34) . . .
39.7(33) . . .
38.3(32) . . .
47(4) . . .
40.6(34) . . .
40.1(34) . . .
46(4) . . .
39.5(33) . . .
44.8(35) . . .
48(4) . . .
52(4) . . .
53(4) . . .
48(4) . . .
37.1(32) . . .
33.9(32) . . .
42(4) . . .
34.8(30) . . .
40.4(34) . . .
35.7(32) . . .
52(4) . . .
45(4) . . .
38.5(32) . . .
44.2(35) . . .
52(4) . . .
49(4) . . .
41.0(34) . . .
54(4) . . .
33.0(30) . . .
36.9(32) . . .
47(4) . . .
43(4) . . .
50(4) . . .
43.7(35) . . .
42.5(35) . . .
36.1(34) . . .
41.7(34) . . .
47(4) . . .
37.7(32) . . .
35.7(32) . . .
35.0(33) . . .
41.1(35) . . .
42.6(35) . . .
38.1(32) . . .
41(4) . . .
38(4) . . .
38.6(33) . . .
40.7(33) . . .
46(4) . . .
45(4) . . .
51(4) . . .
45(4) . . .
35.7(31) . . .
49(4) . . .
50(4) . . .
41.7(34) . . .
41.2(35) . . .
38.1(31) . . .
45(4) . . .
38.6(34) . . .
44(4) . . .
48(4) . . .
44.3(35) . . .
44(4) . . .
51(4) . . .
48(4) . . .
44(4) . . .
41.4(34) . . .
39.5(33) . . .
48(4) . . .
35.5(31) . . .
46(4) . . .
41.0(33) . . .
47(4) . . .
44(4) . . .
51(4) . . .
47(4) . . .
37.3(32) . . .
47(4) . . .
45(4) . . .
45(4) . . .
38.7(32) . . .
43.4(34) . . .
38.8(33) . . .
31.2(30) . . .
45(4) . . .
36.0(31) . . .
46.0(35) . . .
51(4) . . .
36.0(34) . . .
36.3(33) . . .
44.5(35) . . .
51(4) . . .
45(4) . . .
48(4) . . .
47(4) . . .
47(4) . . .
38.1(32) . . .
40.1(34) . . .
43(4) . . .
42.4(34) . . .
47(4) . . .
45.4(35) . . .
46(4) . . .
47(4) . . .
43(4) . . .
40.3(33) . . .
46(4) . . .
36.4(32) . . .
37.3(33) . . .
42(4) . . .
42.8(34) . . .
39.6(33) . . .
51(4) . . .
39.5(34) . . .
49(4) . . .
43.9(34) . . .
48(4) . . .
34.0(30) . . .
41(4) . . .
34.5(31) . . .
44.6(35) . . .
39.7(33) . . .
42.8(34) . . .
50(4) . . .
43.9(35) . . .
34.2(31) . . .
41(4) . . .
45(4) . . .
41.7(33) . . .
50(4) . . .
48(4) . . .
41.5(34) . . .
35.5(32) . . .
45(4) . . .
41.6(34) . . .
48(4) . . .
38.9(32) . . .
48(4) . . .
41.5(34) . . .
39.7(33) . . .
39.0(32) . . .
42.5(35) . . .
48(4) . . .
50(4) . . .
41.2(34) . . .
35.6(31) . . .
40(4) . . .
44(4) . . .
38.1(33) . . .
43.6(34) . . .
38.2(33) . . .
35.8(32) . . .
48(4) . . .
38.4(32) . . .
42.5(34) . . .
40.7(33) . . .
44.1(35) . . .
41.8(35) . . .
40.9(34) . . .
38.8(33) . . .
41.9(34) . . .
40(4) . . .
34.9(32) . . .
34.3(30) . . .
39.4(33) . . .
38.8(33) . . .
36.9(34) . . .
39(4) . . .
36.9(33) . . .
34.7(31) . . .
47(4) . . .
39.4(33) . . .
42.3(34) . . .
38.6(33) . . .
39.5(33) . . .
34.5(32) . . .
44(4) . . .
38.2(33) . . .
39.9(34) . . .
37.7(32) . . .
43(4) . . .
34.7(31) . . .
41.2(34) . . .
45.0(34) . . .
52(4) . . .
47(4) . . .
40.0(33) . . .
44.2(35) . . .
42.7(35) . . .
49(4) . . .
49(4) . . .
50(4) . . .
43(4) . . .
46(4) . . .
44.3(35) . . .
46(4) . . .
43(4) . . .
45(4) . . .
47(4) . . .
41.1(33) . . .
46(4) . . .
46(4) . . .
45(4) . . .
49(4) . . .
40.1(33) . . .
46(4) . . .
53(4) . . .
46(4) . . .
44.4(35) . . .
33.5(31) . . .
27.3(29) . . .
33.2(31) . . .
45(4) . . .
43.8(35) . . .
44.5(35) . . .
33.4(32) . . .
33.2(32) . . .
41(4) . . .
38.1(32) . . .
45(4) . . .
33.3(31) . . .
37.4(33) . . .
41.8(34) . . .
39.4(33) . . .
37.4(32) . . .
44(4) . . .
36.2(33) . . .
30.8(30) . . .
37.7(33) . . .
43(4) . . .
37.1(33) . . .
38.7(32) . . .
40.7(33) . . .
42.4(34) . . .
40.7(34) . . .
49(4) . . .
43.0(34) . . .
39.0(33) . . .
43.6(35) . . .
35.8(33) . . .
41(4) . . .
49(4) . . .
51(4) . . .
42.5(34) . . .
40.3(33) . . .
42(4) . . .
35.6(31) . . .
49(4) . . .
37.9(32) . . .
46(4) . . .
45(4) . . .
44(4) . . .
39.7(32) . . .
41.5(34) . . .
38.2(34) . . .
41(4) . . .
43(4) . . .
41.1(33) . . .
42.9(35) . . .
50(4) . . .
34.2(31) . . .
44(4) . . .
38.1(32) . . .
36.5(32) . . .
52(4) . . .
43(4) . . .
44.1(35) . . .
45.0(35) . . .
47(4) . . .
43.0(35) . . .
40.6(33) . . .
45(4) . . .
49(4) . . .
33.8(31) . . .
36.1(34) . . .
31.2(29) . . .
41.6(33) . . .
46(4) . . .
40.9(34) . . .
45(4) . . .
39.6(34) . . .
46(4) . . .
39.0(33) . . .
48(4) . . .
40.1(35) . . .
39(4) . . .
40.7(33) . . .
49(4) . . .
38.1(32) . . .
39.3(34) . . .
54(4) . . .
46.2(35) . . .
48(4) . . .
37.9(32) . . .
46(4) . . .
47(4) . . .
40.3(33) . . .
33.3(30) . . .
43(4) . . .
51(4) . . .
41.0(34) . . .
36.9(34) . . .
43.6(34) . . .
45(4) . . .
41(4) . . .
41.3(34) . . .
53(4) . . .
39.5(34) . . .
47(4) . . .
39.3(34) . . .
40.9(34) . . .
49(4) . . .
38.8(32) . . .
36.5(31) . . .
40.0(34) . . .
47(4) . . .
39.6(33) . . .
46(4) . . .
45(4) . . .
49(4) . . .
46(4) . . .
40.1(33) . . .
40.4(34) . . .
45(4) . . .
43(4) . . .
35.8(31) . . .
46(4) . . .
48(4) . . .
48(4) . . .
52(4) . . .
51(4) . . .
40.8(34) . . .
42(4) . . .
36(4) . . .
39(4) . . .
40.3(33) . . .
31.0(29) . . .
39.1(34) . . .
41(4) . . .
44(4) . . .
44.6(34) . . .
41.8(33) . . .
36.5(32) . . .
46(4) . . .
45(4) . . .
35.5(31) . . .
48(4) . . .
41.8(34) . . .
50(4) . . .
46(4) . . .
39.8(33) . . .
35.1(32) . . .
44(4) . . .
35.7(35) . . .
39(4) . . .
42.7(35) . . .
44(4) . . .
50(4) . . .
37.7(32) . . .
41.5(34) . . .
48(4) . . .
40.7(33) . . .
48(4) . . .
39.0(35) . . .
37.9(33) . . .
42.5(34) . . .
38.0(33) . . .
43(4) . . .
41(4) . . .
44(4) . . .
33.8(30) . . .
37.8(34) . . .
42(4) . . .
40(4) . . .
33.7(32) . . .
37.5(32) . . .
37.1(32) . . .
37.4(33) . . .
38.5(32) . . .
44(4) . . .
49(4) . . .
45(4) . . .
36.1(31) . . .
43.7(35) . . .
47(4) . . .
47(4) . . .
39.1(32) . . .
45(4) . . .
47(4) . . .
39.0(33) . . .
39.0(32) . . .
47(4) . . .
50(4) . . .
47(4) . . .
44.7(35) . . .
36.5(31) . . .
44(4) . . .
37.2(34) . . .
39.5(33) . . .
38.2(33) . . .
43(4) . . .
41.5(35) . . .
34.2(35) . . .
37.3(33) . . .
35.9(31) . . .
36.5(32) . . .
44(4) . . .
42(4) . . .
27.0(29) . . .
37.8(32) . . .
45(4) . . .
47(4) . . .
35.2(32) . . .
40.5(34) . . .
50(4) . . .
35.4(31) . . .
34.6(31) . . .
35.6(33) . . .
37.0(32) . . .
49(4) . . .
49(4) . . .
37.8(34) . . .
41.3(35) . . .
35.5(31) . . .
35.3(31) . . .
44(4) . . .
46(4) . . .
43.2(35) . . .
39.0(33) . . .
44.5(34) . . .
36.4(32) . . .
44(4) . . .
41.7(35) . . .
39.8(33) . . .
49(4) . . .
39.0(34) . . .
39.3(34) . . .
33.2(32) . . .
39.1(34) . . .
34.5(31) . . .
39.1(34) . . .
45(4) . . .
38.8(33) . . .
45(4) . . .
39.6(34) . . .
43(4) . . .
49(4) . . .
49(4) . . .
40.0(33) . . .
48(4) . . .
44(4) . . .
43(4) . . .
47(4) . . .
51(4) . . .
47(4) . . .
45(4) . . .
37(4) . . .
40.7(34) . . .
40.7(33) . . .
43(4) . . .
41.2(34) . . .
37.8(32) . . .
45(4) . . .
45.2(35) . . .
41.2(34) . . .
46(4) . . .
40.8(34) . . .
37.5(32) . . .
44.7(35) . . .
40.1(33) . . .
38.7(33) . . .
36.8(33) . . .
46(4) . . .
54(4) . . .
41.8(34) . . .
42(4) . . .
37.0(33) . . .
41.3(34) . . .
48(4) . . .
36.9(33) . . .
42(4) . . .
43(4) . . .
34.7(31) . . .
36.5(32) . . .
45(4) . . .
35.2(33) . . .
37.2(33) . . .
43.2(35) . . .
46.8(35) . . .
43(4) . . .
45(4) . . .
52(4) . . .
40.1(32) . . .
47(4) . . .
45(4) . . .
45(4) . . .
33.8(32) . . .
35.3(32) . . .
49(4) . . .
34.3(32) . . .
42(4) . . .
46(4) . . .
37.7(33) . . .
43(4) . . .
42(4) . . .
39(4) . . .
34.7(32) . . .
45.9(35) . . .
51(4) . . .
38.2(33) . . .
53(4) . . .
41.9(35) . . .
42.5(34) . . .
39.9(34) . . .
40.8(33) . . .
42.2(34) . . .
33.4(30) . . .
49(4) . . .
37.3(33) . . .
39(4) . . .
36.7(31) . . .
42(4) . . .
40.0(33) . . .
26.5(27) . . .
38.3(35) . . .
50(4) . . .
41.0(35) . . .
45(4) . . .
33.9(31) . . .
40.6(33) . . .
41.8(35) . . .
38.9(33) . . .
35.5(31) . . .
45.2(35) . . .
42.8(34) . . .
41(4) . . .
39.7(32) . . .
42.4(34) . . .
34.7(31) . . .
50(4) . . .
41.2(34) . . .
37.7(32) . . .
40.4(33) . . .
49(4) . . .
38.4(33) . . .
50(4) . . .
45.0(35) . . .
41.2(34) . . .
39.8(33) . . .
42(4) . . .
41.8(35) . . .
40.9(33) . . .
47(4) . . .
50(4) . . .
39.0(34) . . .
39.0(34) . . .
42.5(35) . . .
45.9(35) . . .
42(4) . . .
35.2(34) . . .
44(4) . . .
42.1(34) . . .
41.6(34) . . .
51(4) . . .
47(4) . . .
45.2(35) . . .
37.8(32) . . .
44(4) . . .
39.2(33) . . .
43(4) . . .
41.1(34) . . .
40.9(33) . . .
37.5(32) . . .
45(4) . . .
47(4) . . .
32.3(30) . . .
39.2(32) . . .
35.9(32) . . .
42(4) . . .
49(4) . . .
49(4) . . .
53(4) . . .
43.2(35) . . .
47(4) . . .
48(4) . . .
44.7(35) . . .
43.4(34) . . .
41.2(33) . . .
40.4(34) . . .
49(4) . . .
41.0(33) . . .
37.1(32) . . .
40.5(34) . . .
47(4) . . .
39.9(34) . . .
44.3(34) . . .
43.1(34) . . .
39.8(34) . . .
39(4) . . .
40.2(33) . . .
43.8(34) . . .
33.4(30) . . .
40(4) . . .
44(4) . . .
35.7(32) . . .
46(4) . . .
39.6(35) . . .
37.8(33) . . .
43(4) . . .
43.3(35) . . .
34.9(30) . . .
40.6(33) . . .
40.3(35) . . .
46(4) . . .
42.7(35) . . .
34.1(30) . . .
38.6(34) . . .
40.9(34) . . .
43(4) . . .
43(4) . . .
38.0(32) . . .
40.3(33) . . .
36.0(31) . . .
38.3(32) . . .
40.3(35) . . .
41.7(34) . . .
46(4) . . .
39.0(35) . . .
38.2(34) . . .
49(4) . . .
39.4(33) . . .
35.9(31) . . .
39.7(34) . . .
49(4) . . .
35.1(31) . . .
41.1(33) . . .
34.4(32) . . .
37.9(34) . . .
35.7(30) . . .
42.7(34) . . .
32.3(29) . . .
37.2(33) . . .
45(4) . . .
48(4) . . .
43.4(35) . . .
44.8(35) . . .
38.7(34) . . .
38(4) . . .
39.8(34) . . .
44.0(34) . . .
36.7(33) . . .
36.6(33) . . .
37.4(34) . . .
48(4) . . .
43.1(34) . . .
35.3(32) . . .
45(4) . . .
47(4) . . .
38.7(33) . . .
40.0(33) . . .
49(4) . . .
38.0(31) . . .
50(4) . . .
46(4) . . .
46(4) . . .
43.7(35) . . .
44(4) . . .
38(4) . . .
39.3(35) . . .
40.6(33) . . .
37.6(32) . . .
37.3(33) . . .
37.9(34) . . .
44(4) . . .
38.1(33) . . .
44(4) . . .
36.8(33) . . .
44(4) . . .
35.3(32) . . .
44.0(35) . . .
37.5(32) . . .
42(4) . . .
35.4(31) . . .
40.9(35) . . .
40.5(34) . . .
40.6(34) . . .
43(4) . . .
37.6(33) . . .
45(4) . . .
41.1(34) . . .
46(4) . . .
46(4) . . .
44(4) . . .
50(4) . . .
37.5(32) . . .
44(4) . . .
32.7(31) . . .
40.2(35) . . .
43.8(35) . . .
47(4) . . .
42(4) . . .
41(4) . . .
36.6(32) . . .
52(4) . . .
47(4) . . .
40.1(34) . . .
33.6(34) . . .
36.3(32) . . .
43.3(34) . . .
41.3(35) . . .
41.0(34) . . .
37.8(33) . . .
45(4) . . .
49(4) . . .
43.3(35) . . .
37.1(32) . . .
47(4) . . .
46(4) . . .
46(4) . . .
33.3(31) . . .
37.8(34) . . .
38.2(35) . . .
36.6(32) . . .
35.8(31) . . .
41.4(35) . . .
41(4) . . .
40.0(32) . . .
40.6(33) . . .
39.0(33) . . .
47(4) . . .
44(4) . . .
38.3(33) . . .
33.8(30) . . .
51(4) . . .
43(4) . . .
39(4) . . .
49(4) . . .
39.4(33) . . .
40.6(34) . . .
44(4) . . .
49(4) . . .
43.1(35) . . .
40.2(33) . . .
40.3(32) . . .
33.8(31) . . .
39(4) . . .
36.6(33) . . .
39.3(33) . . .
44(4) . . .
37.7(32) . . .
40.2(35) . . .
45.9(35) . . .
43.9(35) . . .
43.5(34) . . .
39.2(34) . . .
42(4) . . .
46(4) . . .
45.7(35) . . .
40.8(33) . . .
43(4) . . .
46(4) . . .
42.5(34) . . .
42.7(34) . . .
38.5(32) . . .
50(4) . . .
39.1(33) . . .
40.5(34) . . .
31.8(29) . . .
45(4) . . .
32.3(31) . . .
39.2(34) . . .
38.9(32) . . .
45(4) . . .
49(4) . . .
49(4) . . .
39.4(34) . . .
36.8(33) . . .
34.5(31) . . .
30.1(29) . . .
45(4) . . .
38.0(33) . . .
42.3(34) . . .
37.0(31) . . .
38.5(33) . . .
41.1(35) . . .
46(4) . . .
41.3(33) . . .
40.6(33) . . .
34.3(30) . . .
49(4) . . .
42.0(34) . . .
40.4(34) . . .
42.1(33) . . .
41.7(34) . . .
32.8(30) . . .
35.0(30) . . .
41.1(33) . . .
34.8(32) . . .
33.4(31) . . .
39(4) . . .
36.2(31) . . .
38.0(32) . . .
45(4) . . .
33.3(29) . . .
45(4) . . .
42.7(35) . . .
39.3(33) . . .
38.5(32) . . .
46(4) . . .
42(4) . . .
39.1(34) . . .
39.3(33) . . .
36.7(33) . . .
45(4) . . .
46(4) . . .
30.7(30) . . .
33.1(30) . . .
35.5(33) . . .
36.3(34) . . .
41(4) . . .
45(4) . . .
37.3(32) . . .
48(4) . . .
49(4) . . .
32.4(29) . . .
54(4) . . .
36.0(32) . . .
46(4) . . .
43(4) . . .
37.3(34) . . .
34.6(31) . . .
40.8(33) . . .
52(4) . . .
52(4) . . .
36.6(31) . . .
49(4) . . .
40.6(33) . . .
45(4) . . .
35.2(33) . . .
39.0(35) . . .
39.4(34) . . .
36.0(31) . . .
52(4) . . .
41(4) . . .
46(4) . . .
50(4) . . .
42.0(34) . . .
38.2(33) . . .
45(4) . . .
40.5(33) . . .
40.4(33) . . .
46(4) . . .
33.9(31) . . .
44(4) . . .
45(4) . . .
37.8(32) . . .
40.8(33) . . .
38.3(33) . . .
37.3(35) . . .
38.0(32) . . .
36.9(32) . . .
42.5(35) . . .
38.4(34) . . .
39(4) . . .
42.3(34) . . .
46(4) . . .
40.9(33) . . .
36.4(32) . . .
38.0(32) . . .
38.3(34) . . .
36.6(33) . . .
52(4) . . .
41.5(33) . . .
46(4) . . .
45(4) . . .
24.8(27) . . .
46(4) . . .
39.7(34) . . .
39.0(35) . . .
39.3(33) . . .
42.9(34) . . .
41.4(35) . . .
36.3(33) . . .
33.9(33) . . .
42(4) . . .
41.8(34) . . .
43(4) . . .
38.2(33) . . .
32.1(29) . . .
35.9(31) . . .
39.5(33) . . .
39(4) . . .
32.8(32) . . .
48(4) . . .
49(4) . . .
36.6(31) . . .
40.6(34) . . .
45(4) . . .
49(4) . . .
39.8(33) . . .
39.5(33) . . .
41(4) . . .
35.4(32) . . .
42(4) . . .
38.5(32) . . .
53(4) . . .
44(4) . . .
34.7(31) . . .
42.5(34) . . .
44.9(35) . . .
44.1(35) . . .
49(4) . . .
30.6(29) . . .
39.8(34) . . .
33.5(30) . . .
41.8(34) . . .
46(4) . . .
32.3(29) . . .
34.4(31) . . .
35.8(31) . . .
49(4) . . .
47(4) . . .
43(4) . . .
40.8(33) . . .
41.2(33) . . .
34.7(32) . . .
37.2(33) . . .
42(4) . . .
30.7(30) . . .
35.3(31) . . .
38.4(33) . . .
40.1(35) . . .
37.9(33) . . .
40.7(34) . . .
49(4) . . .
42(4) . . .
42(4) . . .
40.2(33) . . .
45(4) . . .
47(4) . . .
58(4) . . .
43(4) . . .
48(4) . . .
46(4) . . .
40.1(33) . . .
32.8(30) . . .
41(4) . . .
33.3(31) . . .
35.4(31) . . .
37.9(32) . . .
34.0(31) . . .
36.8(34) . . .
31.2(30) . . .
44.3(35) . . .
37.9(32) . . .
40.7(33) . . .
47(4) . . .
34.0(30) . . .
36.1(32) . . .
33.6(30) . . .
39.8(34) . . .
38.0(33) . . .
39.0(33) . . .
40.2(33) . . .
41.1(34) . . .
34.7(31) . . .
33.9(31) . . .
36.1(32) . . .
41.6(33) . . .
33.6(31) . . .
44(4) . . .
50(4) . . .
47(4) . . .
48(4) . . .
43.5(35) . . .
32.7(29) . . .
40.9(33) . . .
45(4) . . .
42.6(33) . . .
40.9(33) . . .
43(4) . . .
35.3(32) . . .
36.9(32) . . .
42.7(34) . . .
43.0(35) . . .
44(4) . . .
48(4) . . .
41.6(35) . . .
35.8(31) . . .
44(4) . . .
46(4) . . .
36.3(31) . . .
40.5(34) . . .
40.6(33) . . .
37.6(32) . . .
39(4) . . .
36.4(35) . . .
42.1(34) . . .
41.3(34) . . .
42(4) . . .
28.2(29) . . .
37.5(33) . . .
41.6(33) . . .
41.5(34) . . .
40.4(35) . . .
39.5(34) . . .
39.2(34) . . .
31.3(30) . . .
31.3(30) . . .
34.8(33) . . .
37(4) . . .
38.8(34) . . .
44(4) . . .
28.7(28) . . .
40.0(35) . . .
44(4) . . .
50(4) . . .
42.5(34) . . .
44.2(35) . . .
46(4) . . .
39.3(33) . . .
37.2(31) . . .
38.1(32) . . .
37.2(34) . . .
43(4) . . .
40.4(34) . . .
41.2(34) . . .
47(4) . . .
40.2(35) . . .
47(4) . . .
41(4) . . .
36.7(34) . . .
39.2(32) . . .
29.4(31) . . .
36.4(34) . . .
37.5(33) . . .
33.8(31) . . .
44(4) . . .
39.0(33) . . .
40.8(35) . . .
39.3(33) . . .
38.5(32) . . .
47(4) . . .
36.0(32) . . .
35.4(34) . . .
36.5(32) . . .
40.1(33) . . .
36.8(32) . . .
34.1(32) . . .
38(4) . . .
33.3(29) . . .
43.6(34) . . .
38.1(33) . . .
43(4) . . .
45(4) . . .
39.8(33) . . .
42.9(34) . . .
36.1(31) . . .
39.8(33) . . .
35.0(31) . . .
40.3(34) . . .
48(4) . . .
49(4) . . .
43(4) . . .
43(4) . . .
42(4) . . .
41.3(34) . . .
41.8(35) . . .
36.1(32) . . .
45(4) . . .
41(4) . . .
36.5(31) . . .
39.8(33) . . .
36.5(32) . . .
35.9(33) . . .
39.8(34) . . .
36.7(32) . . .
42(4) . . .
37.0(32) . . .
47(4) . . .
39.6(33) . . .
40.6(33) . . .
42.9(35) . . .
39.4(34) . . .
40.7(35) . . .
42.7(35) . . .
46(4) . . .
42(4) . . .
36.9(32) . . .
36.3(32) . . .
48(4) . . .
35.7(31) . . .
48(4) . . .
50(4) . . .
46(4) . . .
36.3(31) . . .
45(4) . . .
39.3(33) . . .
36.3(34) . . .
35.5(32) . . .
35.5(31) . . .
33.9(30) . . .
32.5(30) . . .
40.0(35) . . .
35.8(32) . . .
47(4) . . .
37.7(32) . . .
33.8(31) . . .
33.6(32) . . .
36.5(32) . . .
37.5(33) . . .
43.0(34) . . .
44(4) . . .
39.7(35) . . .
39.8(34) . . .
38.0(32) . . .
40.4(35) . . .
37.3(34) . . .
41(4) . . .
42.8(35) . . .
37.7(32) . . .
38.3(33) . . .
41(4) . . .
34.6(33) . . .
37.4(33) . . .
48(4) . . .
38.7(33) . . .
35.3(33) . . .
40(4) . . .
35.1(31) . . .
39.5(33) . . .
32.4(31) . . .
48(4) . . .
45(4) . . .
41.1(33) . . .
33.7(31) . . .
42(4) . . .
40(4) . . .
43(4) . . .
39.4(34) . . .
44.1(34) . . .
45(4) . . .
33.8(32) . . .
36.5(34) . . .
37.3(32) . . .
41.4(34) . . .
40.0(33) . . .
43(4) . . .
37.5(31) . . .
43.9(35) . . .
41.5(35) . . .
40.0(34) . . .
36.3(34) . . .
41.1(34) . . .
31.9(29) . . .
38.0(33) . . .
37.7(33) . . .
33.3(30) . . .
36.5(32) . . .
40.1(33) . . .
38.3(32) . . .
39.5(33) . . .
43(4) . . .
39.2(34) . . .
41.8(34) . . .
44(4) . . .
44(4) . . .
40(4) . . .
33.7(32) . . .
51(4) . . .
43.7(35) . . .
40.4(34) . . .
40.5(33) . . .
40.8(34) . . .
49(4) . . .
42(4) . . .
38.0(33) . . .
41(4) . . .
34.9(32) . . .
42.5(34) . . .
43(4) . . .
35.5(32) . . .
35.0(31) . . .
32.9(30) . . .
32.7(30) . . .
33.6(30) . . .
42(4) . . .
42(4) . . .
36.4(32) . . .
36.3(31) . . .
39.2(34) . . .
44(4) . . .
50(4) . . .
50(4) . . .
34.7(31) . . .
37.9(33) . . .
45(4) . . .
38.6(32) . . .
44.4(35) . . .
39.3(33) . . .
36.7(33) . . .
40(4) . . .
35.9(33) . . .
41.2(33) . . .
41(4) . . .
34.5(31) . . .
36.4(33) . . .
46(4) . . .
46(4) . . .
45(4) . . .
41.5(35) . . .
38.9(35) . . .
42(4) . . .
46(4) . . .
42.7(34) . . .
40.2(33) . . .
39.8(35) . . .
38.2(32) . . .
39.1(33) . . .
29.1(29) . . .
40.8(34) . . .
42.1(34) . . .
38.8(33) . . .
39.4(33) . . .
35.8(32) . . .
37.8(35) . . .
46(4) . . .
29.5(28) . . .
35.5(32) . . .
35.7(33) . . .
39.7(35) . . .
46(4) . . .
35.7(33) . . .
42.4(34) . . .
42.8(35) . . .
38.8(34) . . .
35.9(33) . . .
36.5(32) . . .
41.2(33) . . .
31.8(30) . . .
45(4) . . .
36.6(32) . . .
33.3(30) . . .
36.3(31) . . .
45(4) . . .
44(4) . . .
39.7(33) . . .
40.1(33) . . .
38.7(32) . . .
36.5(32) . . .
41(4) . . .
55(4) . . .
47(4) . . .
42.6(34) . . .
34.3(32) . . .
36.2(34) . . .
35.2(31) . . .
39.0(32) . . .
43.4(34) . . .
31.6(29) . . .
46(4) . . .
43(4) . . .
37.8(33) . . .
37.0(32) . . .
41.0(34) . . .
49(4) . . .
29.0(29) . . .
36.9(31) . . .
45(4) . . .
46(4) . . .
31.4(30) . . .
24.8(27) . . .
39.9(33) . . .
36.8(32) . . .
36.0(32) . . .
40(4) . . .
45(4) . . .
41.9(34) . . .
36.3(32) . . .
37(4) . . .
35.2(31) . . .
29.4(28) . . .
47(4) . . .
42(4) . . .
36.7(32) . . .
38.4(34) . . .
37.4(33) . . .
34.2(31) . . .
34.6(32) . . .
43(4) . . .
43.8(35) . . .
42.1(34) . . .
34.1(31) . . .
38(4) . . .
43(4) . . .
41.5(35) . . .
41.9(34) . . .
33.9(30) . . .
31.3(30) . . .
46(4) . . .
42(4) . . .
46(4) . . .
43.8(34) . . .
40.1(34) . . .
39.1(35) . . .
38.9(34) . . .
43.3(35) . . .
44.5(35) . . .
44.8(35) . . .
43.0(34) . . .
36.3(32) . . .
34.8(31) . . .
47(4) . . .
37.2(33) . . .
39.4(33) . . .
45(4) . . .
40.1(33) . . .
49(4) . . .
39.8(33) . . .
36.0(33) . . .
29.3(30) . . .
47(4) . . .
43.0(34) . . .
43(4) . . .
40(4) . . .
43(4) . . .
35.7(31) . . .
33.1(30) . . .
41(4) . . .
32.1(32) . . .
23.9(25) . . .
40.0(33) . . .
39.2(33) . . .
35.8(32) . . .
39.4(33) . . .
41.7(33) . . .
44.1(35) . . .
38.4(33) . . .
36.6(33) . . .
40.6(35) . . .
45(4) . . .
40.6(33) . . .
37.2(32) . . .
40(4) . . .
35.2(32) . . .
41.7(34) . . .
37.5(33) . . .
45(4) . . .
49(4) . . .
37.2(31) . . .
42.3(34) . . .
36.0(32) . . .
43(4) . . .
37.9(33) . . .
45(4) . . .
34.5(31) . . .
42.3(35) . . .
30.0(28) . . .
40.8(35) . . .
40.7(34) . . .
40.3(33) . . .
30.8(29) . . .
41(4) . . .
31.2(31) . . .
38.4(34) . . .
42.4(34) . . .
33.3(31) . . .
44(4) . . .
48(4) . . .
36.9(33) . . .
36.1(32) . . .
31.4(29) . . .
42(4) . . .
43(4) . . .
39.6(34) . . .
33.4(30) . . .
42(4) . . .
37.2(33) . . .
35.8(33) . . .
41.8(35) . . .
35.7(31) . . .
32.0(30) . . .
36.8(32) . . .
48(4) . . .
41.0(33) . . .
38.1(33) . . .
35.5(33) . . .
36.3(33) . . .
35.4(32) . . .
40.7(34) . . .
36.2(31) . . .
37.3(33) . . .
39.3(34) . . .
35.2(30) . . .
39.2(33) . . .
40.6(33) . . .
50(4) . . .
44(4) . . .
35.0(31) . . .
38.4(32) . . .
34.1(30) . . .
41(4) . . .
40.1(34) . . .
42.3(34) . . .
33.3(30) . . .
40.1(33) . . .
40.6(35) . . .
44(4) . . .
47(4) . . .
33.2(30) . . .
27.9(28) . . .
42(4) . . .
42(4) . . .
35.9(33) . . .
34.7(31) . . .
43.4(34) . . .
40.6(34) . . .
38.8(32) . . .
46(4) . . .
37.2(32) . . .
37.0(31) . . .
54(4) . . .
45(4) . . .
42.3(35) . . .
31.6(29) . . .
33.7(31) . . .
42.4(35) . . .
41.4(35) . . .
38.0(33) . . .
37.3(32) . . .
37.7(33) . . .
40(4) . . .
37.3(32) . . .
36.2(31) . . .
34.5(31) . . .
49(4) . . .
35.4(31) . . .
37.5(34) . . .
37.5(32) . . .
33.9(31) . . .
35.8(32) . . .
35.0(33) . . .
35.2(32) . . .
46(4) . . .
36.2(31) . . .
45(4) . . .
37.7(35) . . .
43(4) . . .
46(4) . . .
36.0(31) . . .
34.4(34) . . .
37.8(34) . . .
36.1(33) . . .
32.3(30) . . .
39.3(33) . . .
49(4) . . .
50(4) . . .
37.9(34) . . .
43.0(34) . . .
43.0(35) . . .
42(4) . . .
40.7(35) . . .
38.5(34) . . .
32.7(30) . . .
32.4(29) . . .
35.4(32) . . .
41.1(35) . . .
46(4) . . .
36.5(31) . . .
44.0(35) . . .
44(4) . . .
40(4) . . .
42(4) . . .
41.3(34) . . .
42(4) . . .
44(4) . . .
34.2(30) . . .
33.0(30) . . .
32.3(30) . . .
32.0(31) . . .
40(4) . . .
42(4) . . .
42.8(34) . . .
43.6(34) . . .
30.7(31) . . .
37.9(35) . . .
44(4) . . .
30.3(29) . . .
25.5(26) . . .
41.8(34) . . .
43.9(34) . . .
40.1(34) . . .
34.1(32) . . .
34.8(31) . . .
38.2(34) . . .
40(4) . . .
36.7(33) . . .
33.2(30) . . .
37.9(33) . . .
41.0(34) . . .
38(4) . . .
39.0(35) . . .
38.3(33) . . .
44.2(35) . . .
37.7(33) . . .
40(4) . . .
43(4) . . .
34.4(31) . . .
47(4) . . .
40.4(34) . . .
31.5(30) . . .
31.8(30) . . .
35.2(31) . . .
36.5(32) . . .
33.2(31) . . .
41(4) . . .
46(4) . . .
37.0(32) . . .
48(4) . . .
32.0(31) . . .
35.0(33) . . .
35.8(32) . . .
37.8(32) . . .
37.5(33) . . .
44(4) . . .
35.1(29) . . .
41.3(33) . . .
49(4) . . .
37.2(32) . . .
45(4) . . .
43(4) . . .
35.5(34) . . .
33.6(30) . . .
31.2(30) . . .
42(4) . . .
43(4) . . .
33.4(30) . . .
34.3(30) . . .
33.6(33) . . .
33.7(32) . . .
44(4) . . .
37.3(33) . . .
41.1(33) . . .
48(4) . . .
39.2(35) . . .
41.5(35) . . .
38.4(33) . . .
43.7(35) . . .
36.1(31) . . .
37.0(33) . . .
45(4) . . .
36.8(32) . . .
40.2(33) . . .
34.4(31) . . .
40(4) . . .
40.6(33) . . .
48(4) . . .
48(4) . . .
48(4) . . .
37.4(34) . . .
31.0(30) . . .
35.2(31) . . .
34.7(31) . . .
44(4) . . .
37.7(34) . . .
42(4) . . .
40.4(33) . . .
46(4) . . .
36.2(32) . . .
36.3(32) . . .
46(4) . . .
39.6(33) . . .
40.0(34) . . .
34.6(30) . . .
39.3(34) . . .
34.7(30) . . .
44(4) . . .
45(4) . . .
40.3(34) . . .
44(4) . . .
41.0(34) . . .
40.8(34) . . .
33.3(30) . . .
40.3(35) . . .
34.3(31) . . .
36.7(31) . . .
37.3(33) . . .
35.7(31) . . .
32.6(30) . . .
39.9(33) . . .
36.7(31) . . .
34.0(31) . . .
41.7(33) . . .
38.4(34) . . .
46(4) . . .
51(4) . . .
40.0(33) . . .
33.5(30) . . .
38.6(35) . . .
33.2(32) . . .
46(4) . . .
32.3(29) . . .
41.2(34) . . .
47(4) . . .
42(4) . . .
38.8(32) . . .
40.8(33) . . .
41.7(35) . . .
40(4) . . .
41(4) . . .
31.3(29) . . .
34.7(32) . . .
32.5(31) . . .
33.0(30) . . .
46(4) . . .
41.0(33) . . .
38.0(32) . . .
50(4) . . .
47(4) . . .
39.5(33) . . .
34.0(31) . . .
38.3(32) . . .
40.6(33) . . .
39.2(34) . . .
37.3(34) . . .
36.0(32) . . .
41.3(34) . . .
39.5(33) . . .
38.5(33) . . .
28.6(29) . . .
30.2(29) . . .
37.0(35) . . .
36.9(34) . . .
36.9(34) . . .
36.7(31) . . .
42.1(34) . . .
41.3(34) . . .
38(4) . . .
37.4(32) . . .
38.6(33) . . .
37.7(32) . . .
34.3(31) . . .
36.0(33) . . .
34.5(31) . . .
46(4) . . .
43.0(34) . . .
43.4(34) . . .
43(4) . . .
42(4) . . .
39.6(34) . . .
35.8(31) . . .
45(4) . . .
40.0(35) . . .
51(4) . . .
37.0(32) . . .
41.5(34) . . .
39.7(34) . . .
46(4) . . .
44(4) . . .
36.8(31) . . .
29.2(28) . . .
41.0(34) . . .
41(4) . . .
34.9(32) . . .
42.6(34) . . .
27.9(27) . . .
37.7(33) . . .
43(4) . . .
34.6(31) . . .
43.0(35) . . .
39.8(33) . . .
31.3(32) . . .
34.6(32) . . .
37.5(33) . . .
36.0(31) . . .
38.6(34) . . .
36.7(34) . . .
36.2(33) . . .
34.6(32) . . .
37.5(32) . . .
42.3(35) . . .
33.8(32) . . .
43(4) . . .
43(4) . . .
32.7(30) . . .
41(4) . . .
38.7(35) . . .
33.3(33) . . .
34.0(31) . . .
43.1(34) . . .
39.3(34) . . .
34.5(34) . . .
44(4) . . .
35.8(31) . . .
35.1(31) . . .
39.4(33) . . .
32.2(32) . . .
31.0(31) . . .
35.1(33) . . .
44.9(35) . . .
43(4) . . .
33.5(33) . . .
40.9(35) . . .
42.4(34) . . .
44(4) . . .
39.4(33) . . .
47(4) . . .
31.6(30) . . .
32.7(30) . . .
34.7(32) . . .
34.8(31) . . .
42(4) . . .
44.9(35) . . .
52(4) . . .
44(4) . . .
38.7(34) . . .
37.2(33) . . .
38.5(33) . . .
39.5(32) . . .
42.1(34) . . .
41.6(35) . . .
44(4) . . .
36.0(33) . . .
35.6(31) . . .
41.0(34) . . .
44(4) . . .
40.6(33) . . .
37.2(33) . . .
37.5(32) . . .
51(4) . . .
39.3(34) . . .
28.2(28) . . .
33.6(30) . . .
33.3(31) . . .
37.3(33) . . .
33.6(33) . . .
31.1(31) . . .
30.2(29) . . .
34.8(31) . . .
49(4) . . .
37.6(33) . . .
31.9(29) . . .
38.6(33) . . .
38.2(32) . . .
34.0(30) . . .
45(4) . . .
37.6(34) . . .
38.5(32) . . .
31.8(29) . . .
43(4) . . .
36.2(33) . . .
32.0(30) . . .
41.5(35) . . .
40.4(33) . . .
37.0(33) . . .
29.9(28) . . .
42.6(34) . . .
30.6(29) . . .
50(4) . . .
36.1(32) . . .
39(4) . . .
34.0(32) . . .
30.6(29) . . .
30.8(29) . . .
36.1(31) . . .
36.1(34) . . .
37.1(34) . . .
35.8(31) . . .
41.5(34) . . .
43(4) . . .
41.3(35) . . .
54(4) . . .
45(4) . . .
44.1(35) . . .
39(4) . . .
30.5(29) . . .
37.6(33) . . .
42.6(34) . . .
42.3(34) . . .
31.8(31) . . .
32.6(34) . . .
40.1(35) . . .
35.2(31) . . .
40.5(35) . . .
51(4) . . .
49(4) . . .
40.1(33) . . .
47(4) . . .
39.2(34) . . .
31.5(33) . . .
32.4(32) . . .
38.1(33) . . .
46(4) . . .
44(4) . . .
38.6(33) . . .
35.5(31) . . .
35.8(31) . . .
43.6(34) . . .
35.8(31) . . .
39.9(34) . . .
49(4) . . .
35.8(31) . . .
34.5(30) . . .
43(4) . . .
41(4) . . .
35.1(31) . . .
37.7(32) . . .
35.3(31) . . .
34.8(35) . . .
42(4) . . .
30.1(30) . . .
38.3(32) . . .
33.8(30) . . .
37.3(33) . . .
39.5(34) . . .
29.7(28) . . .
38.2(33) . . .
27.4(27) . . .
41.3(34) . . .
45(4) . . .
46(4) . . .
32.9(30) . . .
38.9(33) . . .
38.5(33) . . .
36.0(32) . . .
33.8(32) . . .
45.9(35) . . .
35.2(31) . . .
41(4) . . .
38.3(34) . . .
39.7(34) . . .
34.7(31) . . .
42.1(33) . . .
42(4) . . .
27.1(26) . . .
32.4(30) . . .
40.2(33) . . .
40.6(34) . . .
40(4) . . .
37.3(34) . . .
36.7(32) . . .
29.3(28) . . .
39.9(35) . . .
45(4) . . .
38.8(34) . . .
40.1(33) . . .
36.8(32) . . .
44(4) . . .
37.7(33) . . .
42(4) . . .
41(4) . . .
38.1(32) . . .
49(4) . . .
37.0(32) . . .
37.0(32) . . .
54(4) . . .
42.5(34) . . .
31.9(30) . . .
41(4) . . .
37.7(32) . . .
48(4) . . .
31.6(30) . . .
37.8(35) . . .
37.2(34) . . .
42(4) . . .
34.6(30) . . .
40.4(34) . . .
36.1(34) . . .
32.5(31) . . .
45(4) . . .
39.8(33) . . .
42.0(34) . . .
34.2(31) . . .
38.8(34) . . .
43(4) . . .
37.2(31) . . .
31.9(31) . . .
29.5(29) . . .
40(4) . . .
37.5(32) . . .
34.5(31) . . .
32.8(32) . . .
38.8(35) . . .
35.4(32) . . .
42.5(35) . . .
43.6(34) . . .
36.9(32) . . .
35.2(33) . . .
37.0(33) . . .
39.6(33) . . .
33.6(31) . . .
32.6(33) . . .
39.0(34) . . .
42.6(34) . . .
39.2(32) . . .
35.5(31) . . .
36.6(32) . . .
40(4) . . .
34.1(30) . . .
41.7(34) . . .
32.8(31) . . .
37.3(33) . . .
33.5(31) . . .
39.6(33) . . .
35.1(31) . . .
30.7(30) . . .
44(4) . . .
42(4) . . .
42(4) . . .
35.1(32) . . .
41.0(34) . . .
42(4) . . .
47(4) . . .
36.6(32) . . .
31.7(29) . . .
33.7(30) . . .
36.3(32) . . .
31.1(30) . . .
39.0(33) . . .
40.5(33) . . .
36.9(32) . . .
30.9(30) . . .
33.4(31) . . .
38.4(34) . . .
37.2(32) . . .
46(4) . . .
39.0(35) . . .
41.1(34) . . .
42.9(34) . . .
38.0(32) . . .
39.0(34) . . .
39.1(34) . . .
47(4) . . .
32.2(29) . . .
29.0(29) . . .
39.3(34) . . .
41(4) . . .
53(4) . . .
49(4) . . .
37.3(32) . . .
41.1(35) . . .
35.9(33) . . .
34.7(34) . . .
37.5(32) . . .
32.9(30) . . .
43(4) . . .
45(4) . . .
41.8(34) . . .
41.9(34) . . .
36.8(32) . . .
33.4(32) . . .
36.4(35) . . .
37.0(33) . . .
37.6(32) . . .
42.3(34) . . .
39.4(33) . . .
35.2(34) . . .
42(4) . . .
43.7(34) . . .
38.8(32) . . .
36.8(32) . . .
32.9(32) . . .
35.7(33) . . .
28.1(28) . . .
29.4(30) . . .
28.0(29) . . .
37(4) . . .
37.7(33) . . .
35.8(31) . . .
33.7(30) . . .
43(4) . . .
33.0(32) . . .
37.5(33) . . .
39.2(33) . . .
27.5(28) . . .
33.4(33) . . .
35.1(33) . . .
38.2(33) . . .
42.8(34) . . .
32.7(30) . . .
32.0(30) . . .
32.6(30) . . .
33.7(30) . . .
39.7(33) . . .
37.0(32) . . .
33.7(31) . . .
47(4) . . .
42.3(35) . . .
30.2(29) . . .
20.8(24) . . .
35.7(33) . . .
33.1(30) . . .
32.7(31) . . .
28.4(28) . . .
40.9(35) . . .
38.5(34) . . .
30.1(28) . . .
34.4(31) . . .
38.0(31) . . .
42.5(35) . . .
43(4) . . .
39.9(34) . . .
31.2(29) . . .
38.1(33) . . .
37.4(34) . . .
40(4) . . .
38.3(32) . . .
43.5(34) . . .
45(4) . . .
33.6(30) . . .
35.9(33) . . .
38.8(34) . . .
38.7(32) . . .
39.7(33) . . .
36.3(31) . . .
35.6(32) . . .
37.9(32) . . .
38.6(32) . . .
37.1(32) . . .
33.2(32) . . .
33.8(31) . . .
36.9(32) . . .
39.0(33) . . .
36.8(32) . . .
37.2(33) . . .
35.7(34) . . .
30.2(29) . . .
35.4(31) . . .
29.3(28) . . .
36.0(32) . . .
45(4) . . .
40.7(34) . . .
33.4(30) . . .
35.8(31) . . .
33.9(31) . . .
42(4) . . .
34.5(31) . . .
33.4(30) . . .
32.4(31) . . .
32.9(32) . . .
38.2(33) . . .
36.9(31) . . .
39.1(33) . . .
35.4(32) . . .
34.5(33) . . .
35.1(32) . . .
37.0(33) . . .
37.1(31) . . .
39.0(34) . . .
34.5(32) . . .
32.3(31) . . .
34.3(30) . . .
36.7(31) . . .
39.1(34) . . .
35.1(34) . . .
40.1(34) . . .
32.4(29) . . .
30.0(29) . . .
34.5(34) . . .
36.6(34) . . .
35.4(32) . . .
30.9(29) . . .
33.1(29) . . .
41.4(34) . . .
39.2(33) . . .
33.4(31) . . .
35.5(31) . . .
43(4) . . .
38.8(33) . . .
33.1(31) . . .
38.2(34) . . .
37.6(32) . . .
38.5(32) . . .
33.9(30) . . .
40.0(34) . . .
36.4(34) . . .
37.8(32) . . .
37.5(31) . . .
37.6(33) . . .
31.3(30) . . .
45(4) . . .
34.3(31) . . .
33.4(31) . . .
37.7(35) . . .
40.4(34) . . .
34.7(31) . . .
37.6(32) . . .
41(4) . . .
38.4(34) . . .
31.0(30) . . .
40.1(34) . . .
41.7(33) . . .
33.9(31) . . .
31.3(30) . . .
37.2(32) . . .
43.3(34) . . .
30.4(28) . . .
32.5(30) . . .
36.0(33) . . .
35.9(33) . . .
41.5(33) . . .
33.1(30) . . .
33.3(31) . . .
37(4) . . .
34.6(32) . . .
43(4) . . .
35.2(30) . . .
41.0(35) . . .
35.7(33) . . .
27.5(27) . . .
39.0(32) . . .
46(4) . . .
46(4) . . .
42(4) . . .
37.3(34) . . .
41.6(34) . . .
36.5(32) . . .
42(4) . . .
35.0(33) . . .
35.6(32) . . .
31.1(29) . . .
34.1(32) . . .
34.3(32) . . .
35.3(32) . . .
32.2(30) . . .
36.8(31) . . .
47(4) . . .
33.4(31) . . .
38.5(34) . . .
45(4) . . .
37.8(32) . . .
34.3(31) . . .
37.2(33) . . .
38.2(34) . . .
31.4(29) . . .
37.8(33) . . .
38.5(32) . . .
34.4(31) . . .
31.3(31) . . .
28.3(28) . . .
35.5(31) . . .
35.8(35) . . .
33.5(33) . . .
40(4) . . .
43.6(35) . . .
37.8(32) . . .
35.5(33) . . .
30.8(30) . . .
40.7(33) . . .
36.8(32) . . .
40.9(33) . . .
41.0(34) . . .
37.3(34) . . .
32.6(31) . . .
30.0(29) . . .
46(4) . . .
38.5(34) . . .
39(4) . . .
41.5(35) . . .
47(4) . . .
31.9(30) . . .
30.7(30) . . .
35.3(34) . . .
44(4) . . .
38.8(32) . . .
41.2(33) . . .
34.1(31) . . .
35.2(32) . . .
42.1(34) . . .
42.8(34) . . .
37.6(32) . . .
33.9(31) . . .
31.5(31) . . .
36.4(34) . . .
40.1(33) . . .
42.2(34) . . .
49(4) . . .
45(4) . . .
43.3(35) . . .
36.9(32) . . .
31.3(30) . . .
32.0(30) . . .
31.9(31) . . .
29.0(29) . . .
43.9(34) . . .
33.8(33) . . .
29.6(30) . . .
30.1(30) . . .
30.2(28) . . .
38.3(33) . . .
36.0(32) . . .
36.1(32) . . .
33.7(31) . . .
35.2(31) . . .
25.1(26) . . .
32.3(32) . . .
34.3(32) . . .
33.8(31) . . .
32.4(29) . . .
36.5(33) . . .
32.5(30) . . .
36.0(35) . . .
35.8(33) . . .
46(4) . . .
38.0(32) . . .
32.5(30) . . .
39.2(34) . . .
45(4) . . .
48(4) . . .
40.6(33) . . .
30.9(30) . . .
31.1(31) . . .
37.7(33) . . .
42.0(34) . . .
39.4(32) . . .
35.2(33) . . .
34.1(32) . . .
50(4) . . .
38.2(32) . . .
31.0(29) . . .
39.8(35) . . .
37.7(35) . . .
30.0(30) . . .
37.8(33) . . .
31.3(29) . . .
35.9(33) . . .
35.2(31) . . .
39.1(33) . . .
34.7(30) . . .
39.3(33) . . .
42(4) . . .
27.1(28) . . .
26.8(28) . . .
28.5(27) . . .
37.5(33) . . .
40.5(34) . . .
43(4) . . .
34.5(31) . . .
32.7(30) . . .
36.1(32) . . .
27.4(30) . . .
37.2(34) . . .
38.5(33) . . .
45.0(35) . . .
39.4(34) . . .
43(4) . . .
32.8(30) . . .
36.0(32) . . .
42.7(33) . . .
38(4) . . .
32.1(31) . . .
42(4) . . .
41.5(34) . . .
34.3(31) . . .
32.4(30) . . .
34.3(31) . . .
33.3(30) . . .
45.5(35) . . .
33.7(30) . . .
36.5(31) . . .
35.3(33) . . .
35.5(34) . . .
42.0(35) . . .
41.5(33) . . .
41.2(35) . . .
33.1(31) . . .
46(4) . . .
36.8(32) . . .
41.2(34) . . .
30.8(29) . . .
38.9(34) . . .
38.2(33) . . .
33.5(30) . . .
30.5(28) . . .
34.3(31) . . .
30.9(30) . . .
33.8(31) . . .
35.1(31) . . .
32.7(29) . . .
44(4) . . .
31.2(29) . . .
36.2(31) . . .
36.4(31) . . .
34.0(32) . . .
33.3(31) . . .
40(4) . . .
39.4(33) . . .
51(4) . . .
34.2(31) . . .
37.3(32) . . .
40.6(35) . . .
38.2(32) . . .
30.3(29) . . .
35.3(32) . . .
32.5(32) . . .
29.4(28) . . .
34.4(31) . . .
35.9(31) . . .
33.8(34) . . .
31.2(31) . . .
31.9(29) . . .
30.4(29) . . .
42.4(34) . . .
32.5(30) . . .
44(4) . . .
34.7(32) . . .
38.3(32) . . .
32.2(29) . . .
39.2(35) . . .
38(4) . . .
36.5(33) . . .
43.5(35) . . .
46(4) . . .
43(4) . . .
40.5(35) . . .
34.6(30) . . .
38.3(32) . . .
37.3(32) . . .
36.8(33) . . .
32.4(29) . . .
44(4) . . .
39.2(32) . . .
34.5(31) . . .
42.0(34) . . .
34.3(29) . . .
38.6(33) . . .
40.7(33) . . .
39.7(33) . . .
36.0(32) . . .
37.5(33) . . .
41(4) . . .
37.3(32) . . .
38.1(33) . . .
38(4) . . .
23.8(26) . . .
38.8(33) . . .
34.6(31) . . .
34.2(32) . . .
35(4) . . .
33.8(32) . . .
39.4(34) . . .
39.7(33) . . .
41(4) . . .
35.9(33) . . .
38(4) . . .
37.5(32) . . .
38.3(32) . . .
41.5(34) . . .
39.8(34) . . .
32.1(30) . . .
35.9(32) . . .
28.6(28) . . .
34.1(33) . . .
32.5(33) . . .
27.1(27) . . .
35.1(31) . . .
37.5(32) . . .
37.2(34) . . .
42(4) . . .
34.7(31) . . .
39.8(32) . . .
45(4) . . .
31.7(29) . . .
42(4) . . .
33.5(30) . . .
41.3(34) . . .
36.9(31) . . .
27.2(27) . . .
27.1(30) . . .
38.3(33) . . .
40.0(33) . . .
39.4(32) . . .
41.3(34) . . .
41.0(35) . . .
28.9(29) . . .
31.7(30) . . .
27.5(27) . . .
36.7(34) . . .
42(4) . . .
22.2(26) . . .
32.1(29) . . .
40.5(35) . . .
39.4(34) . . .
35.5(33) . . .
31.6(30) . . .
30.8(29) . . .
32.3(30) . . .
41.4(35) . . .
44(4) . . .
36.0(32) . . .
36.1(32) . . .
35.4(32) . . .
44(4) . . .
36.9(33) . . .
34.9(31) . . .
35.8(31) . . .
43(4) . . .
34.5(33) . . .
35.3(33) . . .
34.6(32) . . .
29.4(28) . . .
34.0(32) . . .
41.4(35) . . .
40.0(32) . . .
38.1(32) . . .
36.4(32) . . .
33.5(32) . . .
33.3(32) . . .
33.9(31) . . .
38.0(33) . . .
25.5(26) . . .
40.5(35) . . .
35.3(32) . . .
36.6(34) . . .
34.2(31) . . .
37.6(32) . . .
36.1(31) . . .
28.5(29) . . .
36.7(33) . . .
34.0(30) . . .
32.5(30) . . .
38.1(32) . . .
37.8(34) . . .
33.7(32) . . .
24.2(26) . . .
40.5(34) . . .
42.1(34) . . .
37.3(34) . . .
33.0(32) . . .
32.6(30) . . .
43.9(35) . . .
32.9(30) . . .
37.8(34) . . .
30.5(30) . . .
40.1(33) . . .
37.3(32) . . .
33.2(32) . . .
35.0(32) . . .
40.2(33) . . .
34.5(31) . . .
34.5(33) . . .
35.5(32) . . .
33.1(31) . . .
38(4) . . .
31.1(29) . . .
27.0(30) . . .
29.5(29) . . .
39.5(34) . . .
38.1(32) . . .
37.8(32) . . .
42(4) . . .
37.6(34) . . .
34.7(31) . . .
36.9(31) . . .
38.8(35) . . .
42.1(35) . . .
37.3(34) . . .
33.8(31) . . .
37.1(32) . . .
35.7(32) . . .
44.0(34) . . .
32.9(31) . . .
39.8(35) . . .
40.8(33) . . .
36.9(32) . . .
39.1(33) . . .
37.1(33) . . .
35.9(32) . . .
44(4) . . .
37.6(32) . . .
33.7(33) . . .
32.3(33) . . .
32.9(32) . . .
30.3(29) . . .
27.7(27) . . .
32.9(30) . . .
35.1(32) . . .
41(4) . . .
41.2(34) . . .
38.8(33) . . .
40(4) . . .
31.8(29) . . .
40.2(34) . . .
32.9(30) . . .
35.6(32) . . .
31.0(30) . . .
38.2(34) . . .
42.6(35) . . .
43.0(34) . . .
41.0(34) . . .
33.8(32) . . .
34.5(33) . . .
31.6(29) . . .
39.9(33) . . .
26.8(27) . . .
37.5(34) . . .
34.6(31) . . .
40.5(34) . . .
48(4) . . .
45(4) . . .
38.7(35) . . .
30.1(30) . . .
30.7(29) . . .
44.0(35) . . .
33.1(31) . . .
40(4) . . .
37.1(34) . . .
46(4) . . .
44.2(35) . . .
38.9(34) . . .
41(4) . . .
33.9(30) . . .
32.6(30) . . .
30.1(28) . . .
35.9(33) . . .
34.8(32) . . .
41.2(35) . . .
39.5(33) . . .
43(4) . . .
30.2(28) . . .
30.2(31) . . .
35.1(32) . . .
41.7(34) . . .
30.0(29) . . .
31.7(30) . . .
41(4) . . .
29.5(28) . . .
31.5(29) . . .
42(4) . . .
34.5(32) . . .
33.8(31) . . .
37.2(34) . . .
46(4) . . .
37.6(35) . . .
33.2(31) . . .
33.8(31) . . .
33.2(34) . . .
34.5(31) . . .
43.9(35) . . .
40(4) . . .
37.7(34) . . .
36.4(32) . . .
37.7(33) . . .
33.4(31) . . .
30.6(28) . . .
39.7(33) . . .
35.0(30) . . .
35.7(32) . . .
38.7(34) . . .
30.8(32) . . .
38.0(34) . . .
34.8(32) . . .
39.6(33) . . .
46(4) . . .
38.5(33) . . .
33.0(30) . . .
36.1(31) . . .
34.7(31) . . .
42.6(35) . . .
42(4) . . .
43.4(35) . . .
41.4(34) . . .
36.6(32) . . .
38.0(33) . . .
40(4) . . .
38.7(33) . . .
47(4) . . .
33.5(30) . . .
39.1(35) . . .
30.4(32) . . .
29.2(28) . . .
32.4(30) . . .
34.1(30) . . .
36.8(32) . . .
36.7(33) . . .
32.2(30) . . .
31.8(29) . . .
33.7(30) . . .
32.9(31) . . .
27.3(28) . . .
33.2(31) . . .
42.6(34) . . .
41.3(34) . . .
41.4(34) . . .
40.3(34) . . .
30.8(29) . . .
35.6(31) . . .
37.9(33) . . .
36.0(33) . . .
45(4) . . .
35.2(31) . . .
34.3(30) . . .
39(4) . . .
38.2(34) . . .
30.8(30) . . .
34.0(30) . . .
48(4) . . .
44(4) . . .
40(4) . . .
35.1(33) . . .
35.4(32) . . .
35.3(31) . . .
35.5(32) . . .
30.1(31) . . .
25.4(27) . . .
36.1(31) . . .
39.7(34) . . .
33.8(32) . . .
29.0(29) . . .
30.7(30) . . .
37.8(32) . . .
37.3(32) . . .
39.6(33) . . .
38.2(34) . . .
30.2(30) . . .
33.8(31) . . .
32.2(31) . . .
35.8(34) . . .
27.9(29) . . .
34.9(33) . . .
36.8(32) . . .
30.1(28) . . .
34.1(32) . . .
31.4(31) . . .
38.3(33) . . .
43.2(35) . . .
41.8(34) . . .
34.4(30) . . .
33.7(29) . . .
35.7(32) . . .
34.8(31) . . .
43(4) . . .
30.0(29) . . .
41.2(34) . . .
33.5(30) . . .
38.6(32) . . .
25.8(27) . . .
33.2(32) . . .
41(4) . . .
30.8(29) . . .
34.7(31) . . .
32.1(30) . . .
42(4) . . .
32.0(30) . . .
28.6(28) . . .
35.6(31) . . .
38.8(33) . . .
33.2(29) . . .
35.3(31) . . .
34.8(31) . . .
34.6(31) . . .
34.7(33) . . .
37.1(33) . . .
36.2(32) . . .
29.1(28) . . .
37.5(34) . . .
30.3(29) . . .
32.7(32) . . .
32.1(32) . . .
30.1(30) . . .
35.8(32) . . .
37.0(33) . . .
28.2(30) . . .
32.8(30) . . .
26.1(27) . . .
29.6(30) . . .
33.5(29) . . .
38.2(34) . . .
32.3(31) . . .
34.9(31) . . .
34.7(31) . . .
36.2(33) . . .
32.7(33) . . .
31.8(31) . . .
34.1(30) . . .
35.5(31) . . .
30.8(30) . . .
29.4(30) . . .
34.9(31) . . .
37.0(31) . . .
36.5(33) . . .
33.2(30) . . .
33.2(32) . . .
32.5(31) . . .
33.9(30) . . .
38(4) . . .
32.2(31) . . .
39(4) . . .
31.0(30) . . .
39.2(32) . . .
19.3(23) . . .
34.5(34) . . .
35.1(31) . . .
41.2(33) . . .
37.1(32) . . .
37.1(34) . . .
37.0(35) . . .
34.0(32) . . .
32.6(30) . . .
40.4(33) . . .
35.4(32) . . .
30.8(33) . . .
30.9(30) . . .
37.3(32) . . .
44.1(34) . . .
35.7(31) . . .
26.0(27) . . .
31.0(29) . . .
37.7(32) . . .
37.3(32) . . .
38.7(33) . . .
35.2(32) . . .
35.9(32) . . .
29.6(30) . . .
36.4(32) . . .
32.0(34) . . .
33.6(32) . . .
34.5(30) . . .
42.6(34) . . .
31.0(29) . . .
33.8(32) . . .
33.5(31) . . .
36.4(33) . . .
38.3(33) . . .
33.3(30) . . .
30.5(30) . . .
40.0(35) . . .
41.3(34) . . .
38.9(32) . . .
35.1(31) . . .
26.0(26) . . .
39(4) . . .
34.2(33) . . .
35.8(31) . . .
36.6(33) . . .
37.0(33) . . .
25.4(27) . . .
31.8(31) . . .
33.1(30) . . .
41.2(35) . . .
43(4) . . .
40.5(34) . . .
33.2(31) . . .
34.8(31) . . .
24.1(26) . . .
39(4) . . .
43(4) . . .
36.9(32) . . .
35.4(31) . . .
41.2(34) . . .
39.4(34) . . .
35.7(32) . . .
35.7(32) . . .
33.9(30) . . .
34.6(31) . . .
29.7(29) . . .
30.5(28) . . .
33.7(30) . . .
35.1(31) . . .
35.6(32) . . .
35.9(34) . . .
32.3(31) . . .
36.9(33) . . .
31.6(29) . . .
32.9(31) . . .
32.5(31) . . .
32.3(30) . . .
36.1(31) . . .
39.0(33) . . .
33.2(33) . . .
37.0(35) . . .
35.2(34) . . .
35.4(32) . . .
30.6(29) . . .
31.5(28) . . .
24.1(25) . . .
38.8(34) . . .
33.3(30) . . .
27.0(28) . . .
33.7(31) . . .
30.2(29) . . .
33.6(32) . . .
37.8(32) . . .
40.6(34) . . .
37.0(33) . . .
35.0(31) . . .
28.9(29) . . .
38.1(32) . . .
39.4(35) . . .
40.2(33) . . .
38.7(32) . . .
37.6(31) . . .
37.3(32) . . .
36.8(34) . . .
27.7(27) . . .
33.7(30) . . .
37.6(33) . . .
39.5(32) . . .
38.8(33) . . .
37.6(35) . . .
39(4) . . .
24.2(26) . . .
36.9(32) . . .
35.3(34) . . .
34.6(31) . . .
31.6(30) . . .
31.8(30) . . .
38.2(32) . . .
46(4) . . .
39.8(35) . . .
38.9(33) . . .
35.7(32) . . .
33.5(31) . . .
28.1(30) . . .
32.2(31) . . .
35.6(32) . . .
32.8(30) . . .
37.5(34) . . .
34.0(32) . . .
37.9(35) . . .
36.2(33) . . .
24.4(26) . . .
27.9(28) . . .
33.6(32) . . .
32.3(32) . . .
35.6(34) . . .
34.9(31) . . .
42.3(34) . . .
40.7(33) . . .
36.8(33) . . .
31.4(30) . . .
34.0(31) . . .
36.1(31) . . .
45(4) . . .
32.6(30) . . .
33.0(30) . . .
36.7(32) . . .
33.1(31) . . .
32.2(31) . . .
32.5(30) . . .
27.9(28) . . .
31.9(30) . . .
35.9(34) . . .
32.9(33) . . .
34.8(31) . . .
34.6(31) . . .
29.8(29) . . .
46(4) . . .
44(4) . . .
39.1(33) . . .
39.1(33) . . .
28.4(28) . . .
29.6(30) . . .
30.0(31) . . .
34.3(34) . . .
36.9(33) . . .
35.9(31) . . .
38.3(34) . . .
29.0(29) . . .
38.2(33) . . .
31.4(29) . . .
33.8(30) . . .
32.6(31) . . .
43(4) . . .
34.1(32) . . .
32.1(29) . . .
38.3(33) . . .
39(4) . . .
35.7(33) . . .
32.7(30) . . .
38.4(32) . . .
36.4(32) . . .
33.7(32) . . .
35.9(33) . . .
37.6(33) . . .
27.9(27) . . .
37.7(34) . . .
24.5(26) . . .
32.0(32) . . .
32.3(30) . . .
30.6(29) . . .
38.0(32) . . .
29.1(28) . . .
37.1(35) . . .
39.7(34) . . .
36.8(32) . . .
33.3(32) . . .
40.7(34) . . .
40.9(33) . . .
38.9(32) . . .
38.4(32) . . .
36.3(31) . . .
34.5(33) . . .
31.0(32) . . .
34.5(31) . . .
27.8(27) . . .
39(4) . . .
30.9(31) . . .
42(4) . . .
37.0(32) . . .
32.7(29) . . .
39.1(35) . . .
36.9(34) . . .
32.5(30) . . .
34.8(31) . . .
31.0(29) . . .
30.4(29) . . .
26.1(27) . . .
37.6(35) . . .
30.6(30) . . .
34.0(31) . . .
26.4(27) . . .
28.6(30) . . .
31.6(30) . . .
30.4(29) . . .
41.0(33) . . .
40.4(33) . . .
38.4(35) . . .
32.1(31) . . .
42.7(34) . . .
33.6(30) . . .
36.4(34) . . .
34.2(32) . . .
30.7(31) . . .
28.4(27) . . .
38.3(32) . . .
39.8(35) . . .
33.5(31) . . .
37.0(33) . . .
31.1(30) . . .
37.8(33) . . .
38(4) . . .
32.1(32) . . .
29.4(29) . . .
30.3(28) . . .
35.1(33) . . .
30.3(29) . . .
34.3(33) . . .
35.5(33) . . .
36.7(31) . . .
39.6(34) . . .
34.5(32) . . .
33.8(31) . . .
27.9(29) . . .
47(4) . . .
34.1(33) . . .
29.0(31) . . .
39.9(34) . . .
38.4(33) . . .
41.1(34) . . .
35.6(32) . . .
34.6(30) . . .
27.5(27) . . .
33.9(31) . . .
40.5(33) . . .
34.1(31) . . .
30.9(30) . . .
36.4(33) . . .
34.8(32) . . .
37.1(34) . . .
40(4) . . .
25.1(29) . . .
28.7(31) . . .
32.3(32) . . .
36.1(31) . . .
35.2(33) . . .
32.0(31) . . .
35.2(33) . . .
25.8(26) . . .
41.3(34) . . .
40(4) . . .
35.2(32) . . .
32.4(30) . . .
39.3(33) . . .
31.1(29) . . .
32.9(31) . . .
29.3(28) . . .
41(4) . . .
41.3(33) . . .
34.0(31) . . .
42.1(33) . . .
29.6(28) . . .
32.1(31) . . .
40.2(33) . . .
32.5(29) . . .
38.2(33) . . .
36.0(31) . . .
39.3(33) . . .
32.1(29) . . .
44(4) . . .
31.9(30) . . .
33.4(32) . . .
33.1(33) . . .
34.9(31) . . .
32.5(30) . . .
44(4) . . .
39.3(34) . . .
36.6(31) . . .
36.7(32) . . .
36.6(32) . . .
35.8(33) . . .
33.3(31) . . .
42.3(34) . . .
34.3(30) . . .
31.7(30) . . .
28.4(30) . . .
22.9(26) . . .
26.8(27) . . .
35.1(31) . . .
30.7(29) . . .
35.1(32) . . .
31.3(30) . . .
34.9(32) . . .
31.2(30) . . .
34.4(31) . . .
42(4) . . .
28.9(28) . . .
36.0(32) . . .
34.3(30) . . .
37.7(32) . . .
42(4) . . .
27.5(29) . . .
27.8(28) . . .
30.7(29) . . .
34.3(33) . . .
38.3(34) . . .
38.4(33) . . .
35.7(32) . . .
32.5(31) . . .
30.0(30) . . .
33.9(31) . . .
38.0(33) . . .
29.3(29) . . .
35.3(32) . . .
29.6(28) . . .
33.3(31) . . .
41.0(33) . . .
33.4(30) . . .
35.8(32) . . .
25.4(27) . . .
37.8(34) . . .
30.6(31) . . .
39.6(33) . . .
34.0(32) . . .
36.6(33) . . .
40.8(34) . . .
30.9(29) . . .
31.1(29) . . .
34.6(32) . . .
29.7(30) . . .
32.9(31) . . .
38.3(32) . . .
31.9(29) . . .
28.8(28) . . .
33.3(32) . . .
37.7(33) . . .
29.7(29) . . .
43.8(35) . . .
39.0(33) . . .
36.3(32) . . .
39.7(33) . . .
26.2(27) . . .
30.0(28) . . .
30.0(34) . . .
37(4) . . .
43(4) . . .
36.7(32) . . .
24.1(26) . . .
35.7(31) . . .
40(4) . . .
31.2(30) . . .
32.3(30) . . .
27.1(27) . . .
25.3(26) . . .
43(4) . . .
27.5(27) . . .
41.8(34) . . .
33.7(30) . . .
43(4) . . .
42(4) . . .
38.1(33) . . .
35.3(30) . . .
39.2(33) . . .
37.0(32) . . .
35.1(33) . . .
29.9(29) . . .
36.3(31) . . .
35.9(31) . . .
41(4) . . .
33.6(31) . . .
39(4) . . .
29.8(29) . . .
31.2(30) . . .
31.8(31) . . .
37.0(34) . . .
41(4) . . .
38.4(32) . . .
32.2(30) . . .
29.3(27) . . .
40.9(35) . . .
34.8(30) . . .
29.4(29) . . .
36.4(33) . . .
35.2(32) . . .
29.7(29) . . .
36.0(32) . . .
37.6(32) . . .
38.2(34) . . .
39.0(34) . . .
31.9(30) . . .
38.2(32) . . .
32.0(31) . . .
26.3(26) . . .
31.6(31) . . .
36.3(33) . . .
39.0(32) . . .
38.6(34) . . .
33.4(30) . . .
39.2(34) . . .
35.0(32) . . .
29.7(28) . . .
31.3(29) . . .
28.6(28) . . .
38.0(32) . . .
34.1(30) . . .
36.2(32) . . .
29.5(28) . . .
35.8(32) . . .
32.6(33) . . .
32.7(32) . . .
27.2(27) . . .
37.6(33) . . .
37.1(34) . . .
34.6(33) . . .
32.3(30) . . .
43.7(34) . . .
31.2(33) . . .
32.7(31) . . .
39.6(34) . . .
31.6(29) . . .
36.2(32) . . .
39.8(34) . . .
35.3(34) . . .
28.1(29) . . .
39.0(35) . . .
34.6(31) . . .
29.5(28) . . .
31.3(32) . . .
36.5(33) . . .
36.8(32) . . .
31.5(30) . . .
30.4(30) . . .
33.7(32) . . .
36.0(33) . . .
36.1(32) . . .
37.0(32) . . .
40.9(33) . . .
45(4) . . .
39.3(33) . . .
33.2(30) . . .
31.2(29) . . .
35.0(32) . . .
30.7(31) . . .
37.1(34) . . .
30.7(29) . . .
34.0(30) . . .
37.6(34) . . .
30.2(32) . . .
31.5(33) . . .
34.2(32) . . .
29.7(29) . . .
27.9(27) . . .
34.9(33) . . .
28.6(27) . . .
24.7(26) . . .
26.1(26) . . .
33.5(32) . . .
37.0(34) . . .
32.4(31) . . .
40.0(34) . . .
32.7(33) . . .
29.8(30) . . .
34.6(31) . . .
33.4(30) . . .
33.3(30) . . .
39.0(32) . . .
44(4) . . .
35.3(31) . . .
36.9(32) . . .
29.0(28) . . .
40.8(33) . . .
37.4(33) . . .
38.9(34) . . .
40.8(34) . . .
30.2(28) . . .
36.6(33) . . .
31.4(30) . . .
40.7(34) . . .
36.3(32) . . .
31.8(29) . . .
23.3(25) . . .
28.6(30) . . .
32.8(32) . . .
31.4(29) . . .
29.7(29) . . .
33.9(31) . . .
36.6(33) . . .
37.1(33) . . .
37.1(33) . . .
34.4(30) . . .
32.1(30) . . .
22.9(24) . . .
30.0(32) . . .
39.1(33) . . .
36.1(32) . . .
41.5(35) . . .
30.6(32) . . .
31.0(29) . . .
39.3(33) . . .
33.8(31) . . .
29.6(28) . . .
30.2(28) . . .
33.6(31) . . .
32.5(30) . . .
28.0(27) . . .
37(4) . . .
36.2(35) . . .
34.1(31) . . .
31.6(29) . . .
28.4(28) . . .
32.7(30) . . .
42(4) . . .
41.5(34) . . .
33.3(30) . . .
39.5(35) . . .
44(4) . . .
24.9(25) . . .
32.7(31) . . .
40.4(34) . . .
38.1(33) . . .
33.1(30) . . .
34.5(32) . . .
34.8(31) . . .
38.6(32) . . .
34.4(33) . . .
27.3(28) . . .
30.0(30) . . .
31.9(30) . . .
27.1(27) . . .
37.4(33) . . .
35.5(32) . . .
29.8(29) . . .
31.1(29) . . .
35.1(31) . . .
32.2(31) . . .
29.1(30) . . .
30.2(29) . . .
37.4(34) . . .
33.6(31) . . .
30.9(33) . . .
39(4) . . .
36.3(33) . . .
37.4(32) . . .
36.9(33) . . .
27.8(28) . . .
28.3(29) . . .
40.5(35) . . .
36.5(32) . . .
31.3(29) . . .
32.9(32) . . .
35.2(33) . . .
42(4) . . .
39.1(33) . . .
32.7(29) . . .
34.7(31) . . .
38.3(33) . . .
42.5(34) . . .
41.4(34) . . .
33.7(31) . . .
30.0(31) . . .
34.0(32) . . .
33.8(30) . . .
25.9(27) . . .
31.8(30) . . .
33.0(31) . . .
29.2(30) . . .
30.1(29) . . .
36.4(32) . . .
35.4(32) . . .
36.8(32) . . .
36.1(32) . . .
32.2(31) . . .
28.8(29) . . .
38.8(33) . . .
40(4) . . .
32.0(31) . . .
28.7(27) . . .
40.3(33) . . .
37.3(33) . . .
32.4(30) . . .
32.4(31) . . .
31.0(29) . . .
32.8(29) . . .
25.8(27) . . .
30.0(31) . . .
33.6(31) . . .
28.8(28) . . .
33.1(30) . . .
45(4) . . .
33.0(31) . . .
38.3(34) . . .
31.3(29) . . .
27.1(27) . . .
31.3(31) . . .
34.6(34) . . .
34.1(32) . . .
33.6(30) . . .
32.4(30) . . .
31.7(31) . . .
24.5(28) . . .
25.6(28) . . .
27.7(27) . . .
29.5(28) . . .
35.6(33) . . .
34.2(32) . . .
43.8(35) . . .
42.8(34) . . .
35.7(32) . . .
38.3(33) . . .
31.8(31) . . .
40(4) . . .
31.5(30) . . .
29.7(30) . . .
37.3(34) . . .
30.7(29) . . .
30.7(31) . . .
32.8(30) . . .
44(4) . . .
32.2(30) . . .
41.3(35) . . .
33.5(30) . . .
37.1(32) . . .
32.6(30) . . .
32.9(31) . . .
32.3(29) . . .
44(4) . . .
37.8(32) . . .
33.2(30) . . .
38.3(34) . . .
34.3(31) . . .
35.2(32) . . .
30.5(29) . . .
37.4(34) . . .
39(4) . . .
27.6(27) . . .
41.1(34) . . .
35.3(31) . . .
36.1(33) . . .
33.6(33) . . .
28.3(28) . . .
36.5(31) . . .
34.0(30) . . .
40.1(34) . . .
39.3(34) . . .
33.9(30) . . .
37.2(31) . . .
35.8(32) . . .
32.8(31) . . .
35.3(32) . . .
38.6(33) . . .
29.9(28) . . .
35.3(31) . . .
27.7(28) . . .
36.2(32) . . .
33.4(30) . . .
33.5(30) . . .
33.4(31) . . .
33.2(32) . . .
40(4) . . .
29.8(29) . . .
29.2(29) . . .
29.4(29) . . .
31.7(31) . . .
33.0(32) . . .
36.6(33) . . .
23.8(26) . . .
27.8(28) . . .
36.9(34) . . .
29.4(31) . . .
31.0(30) . . .
28.6(28) . . .
31.9(31) . . .
37.9(35) . . .
37(4) . . .
33.9(30) . . .
25.8(26) . . .
30.2(31) . . .
34.2(33) . . .
37.7(34) . . .
39(4) . . .
29.6(29) . . .
32.3(30) . . .
33.0(32) . . .
32.2(31) . . .
32.7(30) . . .
28.0(28) . . .
26.2(26) . . .
29.6(29) . . .
35.8(33) . . .
40.9(34) . . .
42(4) . . .
32.2(32) . . .
30.5(31) . . .
34.4(32) . . .
35.0(31) . . .
33.7(31) . . .
37.1(33) . . .
36.3(34) . . .
36.1(32) . . .
36.8(32) . . .
34.3(31) . . .
33.2(31) . . .
38(4) . . .
35.8(33) . . .
40.2(33) . . .
34.0(31) . . .
27.2(27) . . .
35.6(33) . . .
39(4) . . .
31.9(29) . . .
34.0(30) . . .
39.3(34) . . .
36.0(31) . . .
39.0(33) . . .
41.8(34) . . .
36.9(32) . . .
39(4) . . .
38.4(34) . . .
36.4(32) . . .
32.4(30) . . .
30.1(29) . . .
33.5(33) . . .
26.7(27) . . .
36.1(31) . . .
45(4) . . .
32.0(34) . . .
25.6(28) . . .
35.2(33) . . .
33.2(30) . . .
32.3(30) . . .
28.0(29) . . .
35.1(33) . . .
27.9(28) . . .
42(4) . . .
34.6(31) . . .
36.8(32) . . .
30.5(29) . . .
45(4) . . .
32.2(32) . . .
37.1(33) . . .
24.5(28) . . .
28.8(31) . . .
26.4(27) . . .
39.3(33) . . .
31.1(28) . . .
38.0(32) . . .
31.2(31) . . .
31.5(31) . . .
28.4(28) . . .
28.8(28) . . .
38.1(32) . . .
44(4) . . .
33.6(31) . . .
30.6(29) . . .
26.7(28) . . .
33.8(33) . . .
31.9(33) . . .
28.9(30) . . .
29.3(28) . . .
32.6(30) . . .
27.6(28) . . .
35.7(32) . . .
40.0(34) . . .
41.6(34) . . .
38.5(32) . . .
31.8(31) . . .
30.1(29) . . .
34.3(32) . . .
35.1(31) . . .
30.7(29) . . .
35.6(31) . . .
36.5(33) . . .
33.9(31) . . .
47(4) . . .
34.7(31) . . .
40(4) . . .
30.5(29) . . .
31.0(29) . . .
28.1(28) . . .
34.5(33) . . .
36.1(34) . . .
28.0(28) . . .
33.5(32) . . .
36.7(32) . . .
38.9(33) . . .
32.0(31) . . .
33.6(31) . . .
36.5(32) . . .
37.2(31) . . .
36.7(31) . . .
26.1(26) . . .
30.5(31) . . .
30.9(30) . . .
32.9(30) . . .
38.3(32) . . .
38.6(32) . . .
34.4(32) . . .
34.9(31) . . .
32.5(30) . . .
36.6(33) . . .
37.5(33) . . .
35.9(34) . . .
36.5(33) . . .
24.3(27) . . .
33.2(30) . . .
37.0(32) . . .
32.3(30) . . .
36.7(31) . . .
38.9(34) . . .
33.7(33) . . .
33.0(32) . . .
39.7(34) . . .
35.5(31) . . .
39.1(33) . . .
35.6(34) . . .
28.9(28) . . .
30.5(30) . . .
37.4(31) . . .
33.1(31) . . .
29.6(30) . . .
25.2(27) . . .
32.1(31) . . .
34.7(31) . . .
34.6(32) . . .
30.5(31) . . .
29.6(30) . . .
30.2(30) . . .
35.2(30) . . .
39.0(34) . . .
31.9(32) . . .
37.7(35) . . .
33.9(31) . . .
33.3(30) . . .
32.3(30) . . .
31.7(30) . . .
30.4(28) . . .
35.1(31) . . .
29.2(29) . . .
39(4) . . .
30.2(28) . . .
32.5(30) . . .
34.5(32) . . .
35.2(31) . . .
33.4(30) . . .
38.8(34) . . .
35.5(31) . . .
27.2(27) . . .
36.8(32) . . .
40.1(34) . . .
34.6(31) . . .
32.1(30) . . .
32.4(30) . . .
27.3(28) . . .
29.1(29) . . .
40(4) . . .
31.2(30) . . .
31.9(29) . . .
33.9(31) . . .
30.0(29) . . .
37.5(34) . . .
37.0(32) . . .
44.2(34) . . .
34.3(30) . . .
38.6(32) . . .
41(4) . . .
33.8(31) . . .
31.5(29) . . .
34.9(31) . . .
30.6(29) . . .
42(4) . . .
38.9(34) . . .
39.0(33) . . .
42(4) . . .
34.9(32) . . .
31.0(33) . . .
28.9(29) . . .
32.6(30) . . .
33.5(31) . . .
32.9(33) . . .
36.1(33) . . .
27.7(27) . . .
29.8(30) . . .
28.5(30) . . .
27.9(28) . . .
34.2(32) . . .
37.8(32) . . .
30.0(28) . . .
29.6(29) . . .
31.7(30) . . .
37.1(31) . . .
37.8(32) . . .
34.1(30) . . .
34.9(31) . . .
31.0(31) . . .
39(4) . . .
31.1(29) . . .
33.5(30) . . .
38.0(33) . . .
29.7(29) . . .
31.8(30) . . .
27.1(27) . . .
35.9(31) . . .
30.0(28) . . .
35.1(33) . . .
27.9(28) . . .
32.8(30) . . .
39.4(33) . . .
35.3(32) . . .
34.3(33) . . .
32.3(31) . . .
32.0(29) . . .
35.5(31) . . .
33.8(33) . . .
33.6(33) . . .
34.3(35) . . .
30.4(29) . . .
34.9(31) . . .
36.1(33) . . .
32.9(30) . . .
35.6(32) . . .
37.8(32) . . .
36.0(33) . . .
29.6(31) . . .
28.1(29) . . .
27.1(27) . . .
28.2(27) . . .
34.9(33) . . .
32.4(30) . . .
39.7(34) . . .
33.2(32) . . .
28.0(28) . . .
34.1(31) . . .
45(4) . . .
40.0(33) . . .
33.7(31) . . .
35.3(31) . . .
32.2(31) . . .
37.7(32) . . .
33.7(30) . . .
33.5(30) . . .
41.7(33) . . .
36.2(32) . . .
35.1(31) . . .
33.2(32) . . .
29.4(28) . . .
30.7(29) . . .
33.7(32) . . .
26.4(29) . . .
35.5(32) . . .
42.0(34) . . .
31.2(29) . . .
28.8(29) . . .
40.4(35) . . .
45(4) . . .
24.3(27) . . .
33.3(31) . . .
37(4) . . .
36.1(34) . . .
33.6(31) . . .
34.1(30) . . .
36.7(32) . . .
29.7(28) . . .
35.5(33) . . .
34.9(32) . . .
27.7(27) . . .
34.3(32) . . .
34.3(32) . . .
36.3(34) . . .
34.4(32) . . .
30.4(29) . . .
23.0(26) . . .
32.9(31) . . .
40.1(34) . . .
37.3(33) . . .
32.5(30) . . .
36.1(33) . . .
27.7(27) . . .
37.8(33) . . .
29.9(28) . . .
34.7(31) . . .
36.5(33) . . .
36.3(32) . . .
33.3(31) . . .
26.5(27) . . .
25.9(27) . . .
33.4(31) . . .
32.2(30) . . .
38.9(33) . . .
35.3(32) . . .
31.2(28) . . .
33.8(31) . . .
30.9(31) . . .
37.6(34) . . .
31.1(29) . . .
30.8(29) . . .
28.5(28) . . .
31.8(33) . . .
30.0(29) . . .
29.5(28) . . .
36.3(31) . . .
37.9(32) . . .
33.7(33) . . .
28.5(28) . . .
39.1(32) . . .
33.8(30) . . .
24.7(27) . . .
38.2(34) . . .
38.4(33) . . .
34.7(31) . . .
30.1(29) . . .
41.7(34) . . .
36.9(33) . . .
38(4) . . .
39.7(33) . . .
32.6(30) . . .
36.5(33) . . .
35.1(34) . . .
40.3(35) . . .
37.9(32) . . .
42(4) . . .
26.5(26) . . .
36.6(33) . . .
38.7(33) . . .
31.2(29) . . .
38.2(32) . . .
29.8(30) . . .
29.1(30) . . .
33.6(30) . . .
37.9(32) . . .
29.6(32) . . .
27.6(31) . . .
30.6(29) . . .
35.8(31) . . .
33.0(30) . . .
38.4(33) . . .
28.4(28) . . .
26.7(28) . . .
21.3(24) . . .
18.9(23) . . .
33.8(32) . . .
30.0(31) . . .
33.9(32) . . .
39.3(34) . . .
33.3(30) . . .
39.7(34) . . .
37.2(33) . . .
40.3(33) . . .
38.8(33) . . .
47(4) . . .
38.4(33) . . .
34.2(32) . . .
30.8(29) . . .
37.9(32) . . .
28.1(27) . . .
34.2(32) . . .
34.3(32) . . .
23.2(25) . . .
33.7(30) . . .
32.3(30) . . .
32.2(30) . . .
36.3(34) . . .
36.2(33) . . .
36.7(32) . . .
37.5(32) . . .
31.6(30) . . .
24.7(25) . . .
32.9(30) . . .
31.6(29) . . .
28.4(27) . . .
37(4) . . .
31.9(31) . . .
32.1(31) . . .
32.5(29) . . .
24.8(26) . . .
36.7(34) . . .
26.1(28) . . .
30.3(30) . . .
28.8(28) . . .
25.5(27) . . .
39.5(34) . . .
35.4(31) . . .
33.2(30) . . .
38.1(33) . . .
42.8(34) . . .
34.3(31) . . .
29.6(30) . . .
42.2(34) . . .
29.7(30) . . .
31.4(32) . . .
26.4(28) . . .
35.2(33) . . .
29.0(30) . . .
31.2(29) . . .
29.5(28) . . .
33.4(32) . . .
32.0(30) . . .
29.2(29) . . .
35.0(30) . . .
31.2(30) . . .
35.2(34) . . .
31.9(31) . . .
35.3(32) . . .
26.6(28) . . .
38.3(34) . . .
30.8(30) . . .
37(4) . . .
39.7(33) . . .
33.9(30) . . .
36.5(33) . . .
32.7(32) . . .
33.5(31) . . .
29.6(28) . . .
31.0(29) . . .
31.0(29) . . .
36(4) . . .
35.5(31) . . .
33.1(30) . . .
23.0(26) . . .
28.5(27) . . .
43(4) . . .
34.5(31) . . .
32.1(29) . . .
37.3(31) . . .
41(4) . . .
26.4(28) . . .
31.1(30) . . .
34.8(31) . . .
34.2(31) . . .
36.7(32) . . .
36.4(31) . . .
36.9(32) . . .
31.1(29) . . .
32.4(30) . . .
33.5(32) . . .
36.2(32) . . .
39.9(33) . . .
34.0(31) . . .
42.7(35) . . .
37.5(33) . . .
30.8(31) . . .
30.3(29) . . .
36.5(31) . . .
43(4) . . .
29.7(30) . . .
32.5(31) . . .
41.0(33) . . .
29.3(29) . . .
36.9(34) . . .
38(4) . . .
38.7(35) . . .
32.5(31) . . .
30.9(29) . . .
33.7(31) . . .
29.2(28) . . .
42(4) . . .
31.8(29) . . .
29.6(28) . . .
27.8(29) . . .
30.5(31) . . .
29.8(30) . . .
37.3(32) . . .
30.1(29) . . .
26.5(27) . . .
34.9(33) . . .
42(4) . . .
34.0(30) . . .
37.9(32) . . .
31.3(30) . . .
35.6(34) . . .
30.6(30) . . .
33.1(30) . . .
30.5(29) . . .
37.3(34) . . .
30.5(29) . . .
31.4(29) . . .
34.6(31) . . .
32.3(31) . . .
38(4) . . .
27.5(28) . . .
30.7(29) . . .
30.5(28) . . .
33.2(30) . . .
37.7(34) . . .
40.8(35) . . .
31.0(29) . . .
35.4(31) . . .
37.7(34) . . .
23.2(26) . . .
28.0(29) . . .
31.5(30) . . .
34.2(31) . . .
30.0(29) . . .
31.7(30) . . .
32.5(31) . . .
38.4(32) . . .
28.1(28) . . .
33.6(32) . . .
39(4) . . .
35.5(32) . . .
33.0(30) . . .
30.8(29) . . .
25.8(30) . . .
31.6(33) . . .
37.8(33) . . .
45.8(35) . . .
28.0(29) . . .
28.7(28) . . .
30.5(29) . . .
28.4(28) . . .
28.0(28) . . .
35.6(32) . . .
29.8(30) . . .
37.1(34) . . .
33.6(32) . . .
35.4(32) . . .
32.1(31) . . .
29.2(29) . . .
26.3(26) . . .
29.6(29) . . .
38.2(32) . . .
31.1(29) . . .
39.4(34) . . .
42(4) . . .
25.5(26) . . .
28.7(28) . . .
29.5(30) . . .
28.5(30) . . .
28.6(29) . . .
30.8(30) . . .
34.5(31) . . .
35.3(31) . . .
35.9(35) . . .
32.1(33) . . .
31.4(31) . . .
38.3(32) . . .
35.4(32) . . .
31.6(30) . . .
30.7(29) . . .
38.6(32) . . .
29.4(28) . . .
39.4(34) . . .
28.9(29) . . .
37.7(34) . . .
33.5(30) . . .
35.7(31) . . .
34.5(32) . . .
37.8(34) . . .
41.2(34) . . .
36.3(31) . . .
39.4(33) . . .
39.4(34) . . .
27.9(27) . . .
29.8(30) . . .
34.6(30) . . .
24.9(26) . . .
31.4(31) . . .
32.8(32) . . .
32.0(29) . . .
33.4(30) . . .
39.0(32) . . .
33.4(30) . . .
24.4(27) . . .
35.0(33) . . .
38.8(32) . . .
27.5(28) . . .
33.4(34) . . .
26.4(27) . . .
29.5(29) . . .
31.8(30) . . .
31.3(29) . . .
41.1(35) . . .
27.9(28) . . .
28.8(28) . . .
30.6(29) . . .
34.6(32) . . .
39(4) . . .
35.3(32) . . .
30.8(29) . . .
26.4(27) . . .
30.4(29) . . .
31.4(31) . . .
30.8(30) . . .
29.2(28) . . .
30.4(30) . . .
21.1(24) . . .
28.3(29) . . .
31.3(29) . . .
29.0(28) . . .
32.9(30) . . .
33.1(31) . . .
37.1(34) . . .
27.8(28) . . .
32.5(30) . . .
32.2(29) . . .
37.5(34) . . .
40.5(33) . . .
37.7(32) . . .
35.3(31) . . .
31.6(30) . . .
30.5(29) . . .
26.2(28) . . .
33.9(32) . . .
35.9(31) . . .
35.5(31) . . .
33.4(34) . . .
36.2(32) . . .
39.4(33) . . .
33.0(30) . . .
32.8(31) . . .
35.3(32) . . .
33.7(31) . . .
39.7(33) . . .
36.7(32) . . .
36.6(33) . . .
29.6(30) . . .
25.6(28) . . .
36(4) . . .
37.1(32) . . .
42.0(34) . . .
34.6(30) . . .
37.8(33) . . .
37.9(32) . . .
31.0(29) . . .
28.0(29) . . .
30.1(31) . . .
31.2(32) . . .
29.3(28) . . .
29.8(29) . . .
31.8(33) . . .
33.2(32) . . .
29.7(28) . . .
27.8(28) . . .
40.3(33) . . .
28.7(29) . . .
28.5(30) . . .
31.4(30) . . .
28.1(28) . . .
29.0(28) . . .
25.5(27) . . .
32.5(35) . . .
36.6(34) . . .
29.7(29) . . .
34.8(31) . . .
36.4(32) . . .
27.8(30) . . .
29.4(32) . . .
25.8(27) . . .
34.5(30) . . .
37.3(32) . . .
37.2(31) . . .
28.0(28) . . .
30.2(29) . . .
32.9(30) . . .
32.0(30) . . .
36.6(34) . . .
34.5(31) . . .
32.9(30) . . .
36.1(32) . . .
33.0(31) . . .
34.7(34) . . .
24.9(29) . . .
37.8(32) . . .
36.5(31) . . .
41.0(35) . . .
38.8(34) . . .
33.0(31) . . .
39.6(33) . . .
32.4(32) . . .
35.2(32) . . .
34.3(31) . . .
28.8(28) . . .
32.1(29) . . .
29.5(29) . . .
24.9(25) . . .
30.9(28) . . .
38.4(33) . . .
39.6(32) . . .
33.5(31) . . .
37.8(34) . . .
35.6(33) . . .
35.3(31) . . .
26.0(27) . . .
30.9(30) . . .
25.2(28) . . .
29.8(28) . . .
27.4(27) . . .
29.2(27) . . .
32.8(30) . . .
39.7(33) . . .
31.7(29) . . .
30.0(30) . . .
36.6(32) . . .
40.9(34) . . .
32.6(30) . . .
30.4(31) . . .
33.3(30) . . .
30.0(29) . . .
36.1(33) . . .
40(4) . . .
35.1(30) . . .
28.2(28) . . .
37.5(32) . . .
34.1(30) . . .
30.1(31) . . .
27.6(28) . . .
26.7(27) . . .
31.7(30) . . .
27.6(28) . . .
35.3(35) . . .
34.0(33) . . .
40.2(33) . . .
35.7(34) . . .
42(4) . . .
37.4(32) . . .
40.2(35) . . .
28.1(28) . . .
30.7(29) . . .
30.8(29) . . .
31.7(31) . . .
31.6(29) . . .
27.4(27) . . .
28.6(28) . . .
28.1(31) . . .
37.0(32) . . .
37.9(32) . . .
39.0(33) . . .
36.0(32) . . .
36.1(33) . . .
33.8(31) . . .
32.8(30) . . .
34.5(31) . . .
38(4) . . .
31.5(30) . . .
34.5(31) . . .
32.1(29) . . .
25.0(27) . . .
31.4(30) . . .
38.1(34) . . .
23.6(26) . . .
30.1(29) . . .
33.5(30) . . .
30.1(32) . . .
30.2(31) . . .
36.6(33) . . .
36.4(31) . . .
35.5(31) . . .
35.2(33) . . .
35.4(33) . . .
26.7(29) . . .
29.4(28) . . .
40.2(33) . . .
41.3(34) . . .
34.1(34) . . .
27.2(28) . . .
27.8(27) . . .
29.1(28) . . .
25.8(27) . . .
38.1(35) . . .
38.3(34) . . .
27.2(27) . . .
33.7(30) . . .
39.0(33) . . .
33.0(30) . . .
31.0(29) . . .
34.7(31) . . .
35.8(32) . . .
36.1(34) . . .
28.8(30) . . .
32.1(32) . . .
37.6(32) . . .
29.0(29) . . .
38(4) . . .
30.7(30) . . .
30.6(31) . . .
27.5(28) . . .
37.8(34) . . .
35.6(31) . . .
36.3(31) . . .
33.3(31) . . .
28.4(28) . . .
25.7(29) . . .
24.5(28) . . .
37(4) . . .
29.5(29) . . .
29.3(29) . . .
35.1(31) . . .
28.0(28) . . .
34.3(31) . . .
43(4) . . .
37.1(32) . . .
22.4(25) . . .
28.9(30) . . .
41(4) . . .
27.7(28) . . .
29.8(28) . . .
32.4(32) . . .
39(4) . . .
33.9(31) . . .
27.1(27) . . .
30.1(31) . . .
31.9(31) . . .
32.9(31) . . .
31.0(29) . . .
31.9(30) . . .
28.8(28) . . .
28.2(28) . . .
35.6(34) . . .
45(4) . . .
33.0(30) . . .
25.5(27) . . .
33.8(32) . . .
30.4(31) . . .
28.5(28) . . .
33.2(31) . . .
30.6(29) . . .
31.8(30) . . .
32.4(30) . . .
45(4) . . .
46(4) . . .
31.3(32) . . .
29.1(30) . . .
26.4(28) . . .
38.5(34) . . .
26.3(27) . . .
29.2(30) . . .
28.7(30) . . .
29.8(31) . . .
31.0(30) . . .
31.6(30) . . .
28.4(28) . . .
34.1(33) . . .
28.0(28) . . .
40.6(33) . . .
30.6(29) . . .
29.8(29) . . .
29.7(29) . . .
32.7(33) . . .
45(4) . . .
40.9(34) . . .
38.1(34) . . .
38.4(35) . . .
37.2(33) . . .
26.7(27) . . .
29.3(28) . . .
31.1(30) . . .
24.6(28) . . .
35.7(33) . . .
37.5(32) . . .
33.9(31) . . .
39(4) . . .
39(4) . . .
37.9(34) . . .
37.5(32) . . .
35.5(32) . . .
30.2(28) . . .
36.4(35) . . .
31.6(31) . . .
36.1(31) . . .
31.5(30) . . .
28.9(28) . . .
32.2(33) . . .
31.0(30) . . .
35.3(30) . . .
38.9(34) . . .
26.4(26) . . .
31.1(30) . . .
40.3(35) . . .
36.9(32) . . .
22.1(25) . . .
25.5(27) . . .
29.0(30) . . .
36.7(33) . . .
41.9(34) . . .
31.3(30) . . .
33.4(31) . . .
32.2(30) . . .
32.1(30) . . .
35.9(31) . . .
32.6(31) . . .
33.1(33) . . .
26.4(26) . . .
37.8(33) . . .
25.6(27) . . .
33.8(31) . . .
31.2(30) . . .
31.4(31) . . .
35.1(32) . . .
31.7(30) . . .
34.9(34) . . .
28.7(30) . . .
30.9(30) . . .
45(4) . . .
26.4(26) . . .
37.1(34) . . .
32.3(32) . . .
39.4(35) . . .
29.0(28) . . .
33.6(31) . . .
40.7(35) . . .
38.4(33) . . .
33.9(30) . . .
33.1(30) . . .
40.3(33) . . .
30.2(28) . . .
28.7(28) . . .
33.4(33) . . .
29.3(29) . . .
35.5(31) . . .
36.3(32) . . .
29.2(30) . . .
27.9(30) . . .
28.1(27) . . .
24.8(28) . . .
35.1(34) . . .
28.3(27) . . .
36.3(33) . . .
35.9(31) . . .
37.4(32) . . .
35.9(31) . . .
33.1(31) . . .
34.0(32) . . .
31.4(29) . . .
34.8(31) . . .
32.9(32) . . .
29.4(32) . . .
32.0(32) . . .
39.1(32) . . .
31.7(30) . . .
27.6(28) . . .
36.0(33) . . .
26.9(27) . . .
33.9(30) . . .
25.6(27) . . .
29.3(30) . . .
25.4(26) . . .
25.3(27) . . .
34.4(31) . . .
41.2(34) . . .
37.1(32) . . .
28.7(29) . . .
35.5(31) . . .
29.2(28) . . .
31.4(29) . . .
34.3(32) . . .
36.2(35) . . .
37.3(33) . . .
30.0(28) . . .
35.9(32) . . .
39(4) . . .
35.5(33) . . .
31.7(29) . . .
26.9(27) . . .
28.9(30) . . .
26.6(28) . . .
37.3(34) . . .
28.2(28) . . .
30.6(29) . . .
32.3(31) . . .
35.1(33) . . .
39.6(34) . . .
37.6(32) . . .
28.3(28) . . .
33.1(30) . . .
27.4(28) . . .
32.7(32) . . .
34.9(31) . . .
33.4(30) . . .
34.4(33) . . .
38(4) . . .
25.8(27) . . .
27.2(28) . . .
32.7(31) . . .
32.2(33) . . .
30.1(30) . . .
27.8(29) . . .
36.9(33) . . .
27.2(27) . . .
25.9(28) . . .
28.0(28) . . .
33.8(30) . . .
39.9(33) . . .
39.2(33) . . .
29.8(29) . . .
34.9(35) . . .
38.1(33) . . .
35.1(31) . . .
32.3(30) . . .
33.2(32) . . .
33.8(30) . . .
27.4(27) . . .
29.6(29) . . .
30.9(30) . . .
29.6(29) . . .
36.6(33) . . .
26.1(27) . . .
32.0(30) . . .
30.4(29) . . .
32.3(30) . . .
38.4(33) . . .
33.0(30) . . .
32.6(31) . . .
34.7(31) . . .
33.7(33) . . .
34.6(33) . . .
25.1(27) . . .
32.6(30) . . .
28.8(28) . . .
39.2(34) . . .
38.5(33) . . .
39.9(34) . . .
27.3(27) . . .
31.3(30) . . .
34.6(33) . . .
31.5(31) . . .
39.7(33) . . .
35.5(31) . . .
31.0(29) . . .
27.7(28) . . .
24.7(28) . . .
26.0(27) . . .
25.3(28) . . .
26.1(26) . . .
48(4) . . .
32.4(30) . . .
31.0(29) . . .
30.7(29) . . .
35.4(31) . . .
28.8(28) . . .
31.7(30) . . .
39.8(33) . . .
34.7(32) . . .
35.9(33) . . .
30.7(29) . . .
28.6(27) . . .
34.5(31) . . .
34.5(32) . . .
33.8(32) . . .
27.1(28) . . .
34.6(32) . . .
29.9(29) . . .
29.8(31) . . .
36.4(34) . . .
31.2(30) . . .
27.9(28) . . .
35.4(31) . . .
24.4(26) . . .
35.3(34) . . .
36.9(32) . . .
40.1(33) . . .
36.6(33) . . .
31.3(30) . . .
37.0(33) . . .
23.8(26) . . .
27.7(28) . . .
31.0(29) . . .
30.2(29) . . .
24.6(27) . . .
25.2(27) . . .
32.2(30) . . .
31.6(29) . . .
30.7(32) . . .
22.7(27) . . .
26.8(27) . . .
36.0(31) . . .
25.5(26) . . .
33.3(31) . . .
32.4(32) . . .
28.0(28) . . .
32.0(29) . . .
28.6(28) . . .
32.8(31) . . .
25.4(27) . . .
35.0(33) . . .
35.7(31) . . .
33.8(30) . . .
22.7(27) . . .
32.4(33) . . .
28.5(28) . . .
28.3(27) . . .
35.0(32) . . .
27.9(27) . . .
31.9(30) . . .
29.6(28) . . .
30.0(29) . . .
37.5(33) . . .
30.1(28) . . .
33.3(30) . . .
36.9(32) . . .
32.5(30) . . .
31.6(34) . . .
32.3(31) . . .
32.1(29) . . .
32.6(29) . . .
40.7(34) . . .
37.4(35) . . .
25.7(26) . . .
30.5(29) . . .
32.8(29) . . .
31.6(29) . . .
33.6(32) . . .
29.8(30) . . .
33.4(31) . . .
38.6(32) . . .
21.6(24) . . .
34.0(31) . . .
31.0(29) . . .
38.4(32) . . .
30.9(30) . . .
32.7(29) . . .
33.7(31) . . .
32.4(31) . . .
22.5(24) . . .
27.0(27) . . .
28.0(30) . . .
27.1(28) . . .
28.6(31) . . .
32.2(30) . . .
32.8(30) . . .
27.7(27) . . .
32.4(30) . . .
37(4) . . .
37.1(33) . . .
37.2(32) . . .
29.3(29) . . .
33.4(33) . . .
30.2(31) . . .
33.3(32) . . .
28.9(28) . . .
39.0(34) . . .
28.2(29) . . .
33.5(35) . . .
29.6(29) . . .
37.0(31) . . .
31.6(32) . . .
30.8(33) . . .
31.0(31) . . .
31.5(29) . . .
29.1(28) . . .
32.6(31) . . .
25.8(27) . . .
29.8(29) . . .
38.3(32) . . .
31.6(29) . . .
34.5(31) . . .
33.8(32) . . .
34.2(32) . . .
33.6(30) . . .
38.0(32) . . .
31.2(29) . . .
34.2(33) . . .
45(4) . . .
41.7(34) . . .
26.5(27) . . .
22.6(25) . . .
31.2(32) . . .
32.4(32) . . .
36.7(32) . . .
37.3(32) . . .
29.4(29) . . .
30.6(30) . . .
34.3(31) . . .
32.6(30) . . .
35.7(31) . . .
30.1(29) . . .
24.0(26) . . .
33.8(31) . . .
30.1(28) . . .
32.6(31) . . .
32.3(30) . . .
34.1(35) . . .
29.5(29) . . .
31.1(29) . . .
28.7(29) . . .
29.5(31) . . .
30.6(30) . . .
34.9(32) . . .
38.4(32) . . .
33.7(31) . . .
30.9(30) . . .
26.2(28) . . .
37.8(32) . . .
30.8(29) . . .
28.9(30) . . .
29.7(31) . . .
32.3(30) . . .
33.0(31) . . .
26.6(27) . . .
26.0(29) . . .
34.0(31) . . .
32.8(31) . . .
33.1(31) . . .
31.8(30) . . .
36.2(32) . . .
38(4) . . .
25.7(26) . . .
35.8(32) . . .
27.3(28) . . .
33.7(33) . . .
26.6(29) . . .
31.7(34) . . .
36.6(31) . . .
35.9(31) . . .
37.0(34) . . .
40.2(35) . . .
38.5(33) . . .
41.7(34) . . .
30.5(29) . . .
32.3(30) . . .
30.2(30) . . .
34.5(32) . . .
41.4(34) . . .
28.7(29) . . .
34.6(33) . . .
34.8(35) . . .
27.7(30) . . .
32.7(30) . . .
39.0(34) . . .
30.5(32) . . .
37(4) . . .
35.6(33) . . .
35.3(31) . . .
26.8(27) . . .
31.3(32) . . .
27.6(29) . . .
26.5(27) . . .
29.0(28) . . .
38.9(32) . . .
39.4(34) . . .
38.5(35) . . .
38.8(33) . . .
34.8(32) . . .
28.2(29) . . .
32.1(30) . . .
28.0(28) . . .
35.3(32) . . .
30.3(30) . . .
37.9(34) . . .
30.6(30) . . .
29.4(29) . . .
37.7(32) . . .
29.5(29) . . .
38(4) . . .
28.0(29) . . .
32.5(30) . . .
31.3(30) . . .
31.3(29) . . .
38.4(33) . . .
27.6(29) . . .
26.4(28) . . .
33.9(30) . . .
37.4(32) . . .
30.2(29) . . .
29.8(30) . . .
35.0(31) . . .
35.7(32) . . .
34.0(31) . . .
26.6(27) . . .
28.0(29) . . .
31.2(30) . . .
27.6(28) . . .
36.7(32) . . .
27.1(28) . . .
32.5(32) . . .
33.1(30) . . .
32.8(30) . . .
28.9(29) . . .
32.6(31) . . .
38(4) . . .
34.2(31) . . .
36.0(31) . . .
30.3(31) . . .
34.3(33) . . .
26.0(28) . . .
26.6(28) . . .
26.1(26) . . .
36.0(32) . . .
30.7(30) . . .
29.0(29) . . .
27.5(27) . . .
32.2(29) . . .
37.1(32) . . .
38.9(35) . . .
38.7(34) . . .
29.1(30) . . .
25.5(27) . . .
27.1(28) . . .
36.1(35) . . .
41(4) . . .
38.4(32) . . .
35.4(31) . . .
26.7(26) . . .
35.9(34) . . .
33.4(32) . . .
30.8(29) . . .
32.8(30) . . .
36.0(32) . . .
35.3(33) . . .
42.5(35) . . .
30.4(29) . . .
37.8(32) . . .
27.7(28) . . .
31.0(32) . . .
35.5(32) . . .
34.2(31) . . .
31.4(29) . . .
27.9(27) . . .
34.6(34) . . .
31.2(29) . . .
36.2(31) . . .
29.8(28) . . .
36.5(34) . . .
27.9(28) . . .
29.6(30) . . .
34.6(31) . . .
38.9(33) . . .
30.3(29) . . .
30.5(29) . . .
30.4(29) . . .
34.7(31) . . .
30.7(29) . . .
26.4(28) . . .
26.8(30) . . .
32.7(31) . . .
36.0(31) . . .
32.5(32) . . .
31.8(32) . . .
23.5(28) . . .
28.5(30) . . .
34.1(30) . . .
29.9(31) . . .
37(4) . . .
35.9(32) . . .
35.0(32) . . .
37.4(33) . . .
42.2(35) . . .
34.8(31) . . .
33.3(30) . . .
38.5(34) . . .
30.8(29) . . .
32.2(30) . . .
33.0(30) . . .
37.5(32) . . .
35.5(31) . . .
29.0(28) . . .
32.2(30) . . .
35.5(32) . . .
31.8(29) . . .
31.7(30) . . .
28.5(27) . . .
34.8(32) . . .
30.8(29) . . .
38.0(33) . . .
32.8(29) . . .
37.9(32) . . .
34.1(31) . . .
37(4) . . .
29.7(28) . . .
33.5(30) . . .
25.2(26) . . .
35.3(31) . . .
38.2(34) . . .
36.5(32) . . .
28.6(28) . . .
34.3(32) . . .
33.8(30) . . .
33.9(32) . . .
33.2(31) . . .
36.5(32) . . .
34.9(32) . . .
24.3(26) . . .
31.1(31) . . .
33.4(32) . . .
33.5(31) . . .
25.4(26) . . .
25.5(27) . . .
42(4) . . .
32.6(31) . . .
27.7(28) . . .
32.2(30) . . .
32.3(31) . . .
30.7(31) . . .
28.9(28) . . .
31.0(29) . . .
32.0(29) . . .
35.9(33) . . .
36.7(32) . . .
33.2(30) . . .
36.2(31) . . .
26.5(28) . . .
31.7(30) . . .
29.4(29) . . .
28.4(28) . . .
33.7(31) . . .
34.6(32) . . .
26.5(27) . . .
31.0(29) . . .
34.9(30) . . .
34.2(30) . . .
26.5(27) . . .
33.5(32) . . .
34.3(31) . . .
29.4(28) . . .
33.6(31) . . .
27.1(29) . . .
34.9(35) . . .
33.0(31) . . .
27.8(27) . . .
39.4(33) . . .
28.9(28) . . .
18.6(22) . . .
31.6(30) . . .
32.4(30) . . .
27.4(28) . . .
24.9(26) . . .
26.2(30) . . .
33.7(33) . . .
35.2(31) . . .
25.6(27) . . .
37.6(33) . . .
32.5(31) . . .
32.2(31) . . .
30.7(29) . . .
28.8(28) . . .
43(4) . . .
33.3(31) . . .
37.2(32) . . .
33.3(30) . . .
28.3(29) . . .
35.4(31) . . .
31.4(32) . . .
27.1(29) . . .
26.7(26) . . .
32.5(31) . . .
25.9(26) . . .
34.3(31) . . .
29.0(28) . . .
28.6(28) . . .
37.0(33) . . .
34.6(35) . . .
27.1(32) . . .
29.8(28) . . .
29.4(29) . . .
25.4(26) . . .
30.2(29) . . .
37.7(33) . . .
36.4(31) . . .
34.8(31) . . .
37.8(32) . . .
37.3(33) . . .
38.4(34) . . .
29.5(28) . . .
31.4(29) . . .
34.8(32) . . .
26.4(29) . . .
21.1(24) . . .
37.8(32) . . .
33.0(30) . . .
28.9(29) . . .
34.4(33) . . .
33.1(31) . . .
37.5(32) . . .
31.2(29) . . .
35.6(32) . . .
35.0(31) . . .
32.7(30) . . .
36.5(31) . . .
35.0(31) . . .
31.7(30) . . .
34.9(33) . . .
30.3(30) . . .
32.8(30) . . .
35.7(31) . . .
25.6(28) . . .
29.4(30) . . .
26.1(27) . . .
29.4(29) . . .
35.9(32) . . .
39(4) . . .
34.6(31) . . .
36.7(32) . . .
34.2(31) . . .
33.9(31) . . .
26.9(31) . . .
40(4) . . .
33.6(31) . . .
37.2(32) . . .
29.4(29) . . .
35.0(31) . . .
25.8(27) . . .
31.6(30) . . .
31.3(29) . . .
34.0(31) . . .
32.5(31) . . .
23.9(26) . . .
31.7(30) . . .
31.1(29) . . .
31.5(31) . . .
34.2(32) . . .
30.2(30) . . .
30.0(30) . . .
24.2(26) . . .
27.2(27) . . .
37(4) . . .
36.1(33) . . .
30.4(29) . . .
31.0(30) . . .
25.3(27) . . .
31.3(30) . . .
34.7(30) . . .
35.2(31) . . .
26.5(27) . . .
30.3(29) . . .
41(4) . . .
32.9(31) . . .
30.6(28) . . .
32.1(30) . . .
35.9(32) . . .
42(4) . . .
33.2(31) . . .
33.9(30) . . .
33.7(32) . . .
33.9(31) . . .
32.8(32) . . .
31.0(29) . . .
35.5(31) . . .
36.1(31) . . .
40(4) . . .
38.8(33) . . .
30.3(29) . . .
32.3(30) . . .
24.9(27) . . .
30.1(32) . . .
30.9(32) . . .
26.0(28) . . .
31.9(29) . . .
28.9(29) . . .
31.3(32) . . .
29.2(31) . . .
30.0(29) . . .
27.4(27) . . .
29.7(29) . . .
33.7(33) . . .
28.2(28) . . .
41.6(34) . . .
28.2(28) . . .
30.2(30) . . .
30.2(30) . . .
40(4) . . .
39.7(33) . . .
27.6(30) . . .
29.2(29) . . .
23.1(27) . . .
28.0(29) . . .
40.9(34) . . .
38.8(32) . . .
30.0(28) . . .
25.5(28) . . .
34.8(33) . . .
30.1(30) . . .
31.4(29) . . .
27.2(31) . . .
31.6(32) . . .
37.6(35) . . .
37.4(32) . . .
29.6(28) . . .
34.3(31) . . .
30.7(29) . . .
31.5(32) . . .
32.4(30) . . .
32.9(29) . . .
27.9(28) . . .
32.0(32) . . .
37.0(33) . . .
28.8(28) . . .
33.4(31) . . .
32.8(32) . . .
30.9(31) . . .
25.4(26) . . .
35.5(31) . . .
35.1(33) . . .
33.0(29) . . .
45(4) . . .
25.4(26) . . .
35.0(31) . . .
33.9(31) . . .
31.4(30) . . .
39.1(34) . . .
26.6(27) . . .
24.3(26) . . .
29.4(30) . . .
30.7(30) . . .
36.7(32) . . .
34.3(30) . . .
32.7(30) . . .
32.1(29) . . .
33.9(33) . . .
29.4(28) . . .
37.1(32) . . .
29.8(28) . . .
31.2(30) . . .
29.8(29) . . .
33.8(31) . . .
37.5(31) . . .
33.1(30) . . .
26.7(26) . . .
32.7(32) . . .
33.2(33) . . .
32.4(30) . . .
29.8(28) . . .
36.1(34) . . .
36.8(34) . . .
33.9(30) . . .
27.7(27) . . .
22.3(25) . . .
35.2(34) . . .
27.2(28) . . .
32.3(31) . . .
36.4(31) . . .
30.3(30) . . .
21.5(24) . . .
28.1(30) . . .
28.5(29) . . .
31.3(29) . . .
29.7(29) . . .
34.4(31) . . .
34.6(33) . . .
33.2(32) . . .
30.8(29) . . .
34.8(31) . . .
25.3(26) . . .
33.8(33) . . .
32.5(31) . . .
28.6(28) . . .
28.9(28) . . .
32.5(31) . . .
27.8(27) . . .
47(4) . . .
34.6(31) . . .
29.5(29) . . .
30.1(30) . . .
28.4(29) . . .
30.6(30) . . .
35.6(31) . . .
28.2(29) . . .
34.4(32) . . .
36.3(32) . . .
31.7(29) . . .
30.2(29) . . .
31.5(32) . . .
29.8(32) . . .
32.8(33) . . .
26.4(27) . . .
30.9(29) . . .
29.3(30) . . .
31.8(32) . . .
28.0(28) . . .
27.0(28) . . .
29.6(28) . . .
37.3(34) . . .
28.3(30) . . .
33.0(32) . . .
32.7(30) . . .
31.3(30) . . .
32.4(31) . . .
27.1(30) . . .
29.5(29) . . .
33.4(30) . . .
33.3(30) . . .
28.1(28) . . .
36.5(34) . . .
32.0(33) . . .
30.6(29) . . .
33.5(31) . . .
33.1(31) . . .
28.1(28) . . .
26.4(27) . . .
31.8(29) . . .
34.7(32) . . .
35.4(32) . . .
29.2(29) . . .
29.8(28) . . .
32.1(30) . . .
31.2(29) . . .
33.9(33) . . .
37.5(34) . . .
37.8(33) . . .
33.4(30) . . .
26.0(26) . . .
27.2(29) . . .
24.3(27) . . .
29.9(29) . . .
32.3(30) . . .
37(4) . . .
31.8(31) . . .
38.5(35) . . .
24.9(26) . . .
28.7(28) . . .
36.6(33) . . .
36.7(34) . . .
34.9(32) . . .
27.7(29) . . .
31.3(29) . . .
32.3(31) . . .
32.3(31) . . .
29.8(28) . . .
27.9(28) . . .
21.4(24) . . .
30.1(29) . . .
35.7(34) . . .
28.7(29) . . .
35.8(31) . . .
29.4(29) . . .
31.3(31) . . .
33.2(33) . . .
34.0(31) . . .
41.1(34) . . .
37.1(32) . . .
32.6(34) . . .
31.9(31) . . .
33.5(32) . . .
41.8(33) . . .
29.0(28) . . .
23.7(25) . . .
35.0(32) . . .
34.6(30) . . .
33.0(30) . . .
36.5(33) . . .
37.2(33) . . .
27.0(27) . . .
34.8(32) . . .
32.4(29) . . .
32.8(30) . . .
40(4) . . .
29.5(29) . . .
24.6(25) . . .
25.6(28) . . .
34.4(34) . . .
29.9(29) . . .
33.5(31) . . .
32.5(31) . . .
30.3(29) . . .
29.4(32) . . .
27.9(28) . . .
35.5(32) . . .
27.7(28) . . .
32.2(29) . . .
35.0(33) . . .
23.3(28) . . .
28.2(29) . . .
34.9(32) . . .
30.8(28) . . .
36.1(31) . . .
36.0(32) . . .
35.0(30) . . .
26.8(27) . . .
30.9(29) . . .
26.5(28) . . .
31.5(32) . . .
35.5(32) . . .
38.5(32) . . .
28.2(28) . . .
36.2(33) . . .
42(4) . . .
32.7(30) . . .
35.1(31) . . .
41.2(33) . . .
50(4) . . .
41.5(35) . . .
34.1(32) . . .
29.1(29) . . .
27.1(27) . . .
36.6(33) . . .
35.5(33) . . .
25.8(27) . . .
36.3(31) . . .
37.3(33) . . .
36.0(32) . . .
38.9(34) . . .
29.2(29) . . .
30.4(29) . . .
32.8(32) . . .
21.5(25) . . .
29.0(31) . . .
34.5(32) . . .
23.5(25) . . .
26.7(27) . . .
25.4(27) . . .
33.1(31) . . .
26.5(26) . . .
27.4(28) . . .
27.0(28) . . .
25.9(28) . . .
33.5(31) . . .
23.0(25) . . .
36.2(32) . . .
29.5(31) . . .
34.8(33) . . .
27.5(28) . . .
29.4(30) . . .
32.2(29) . . .
44(4) . . .
31.3(32) . . .
30.6(29) . . .
33.7(31) . . .
35.6(31) . . .
28.0(27) . . .
29.8(28) . . .
31.1(29) . . .
29.0(29) . . .
27.3(28) . . .
35.0(33) . . .
29.3(32) . . .
28.1(30) . . .
29.2(28) . . .
30.4(29) . . .
28.3(28) . . .
30.2(30) . . .
39.0(33) . . .
33.0(30) . . .
25.7(28) . . .
39(4) . . .
30.0(29) . . .
36.4(32) . . .
33.9(30) . . .
32.7(29) . . .
34.1(31) . . .
32.5(31) . . .
36.0(32) . . .
31.1(29) . . .
31.2(33) . . .
34.1(33) . . .
30.1(29) . . .
35.4(34) . . .
36.6(32) . . .
24.4(26) . . .
22.3(24) . . .
33.5(32) . . .
33.5(30) . . .
34.3(31) . . .
33.6(33) . . .
28.4(30) . . .
27.1(28) . . .
31.7(29) . . .
41.0(33) . . .
25.7(26) . . .
31.9(30) . . .
33.0(32) . . .
37.3(32) . . .
28.8(28) . . .
25.5(27) . . .
37(4) . . .
28.0(28) . . .
29.5(28) . . .
23.5(27) . . .
29.6(31) . . .
33.7(32) . . .
29.0(30) . . .
25.5(27) . . .
30.1(29) . . .
30.3(30) . . .
28.6(30) . . .
29.8(30) . . .
38.3(32) . . .
29.7(30) . . .
26.8(28) . . .
24.8(27) . . .
28.4(28) . . .
24.4(26) . . .
36.6(32) . . .
36.8(32) . . .
32.9(32) . . .
36.8(35) . . .
35.9(31) . . .
32.8(31) . . .
29.5(31) . . .
30.6(31) . . .
31.1(29) . . .
31.3(29) . . .
21.6(24) . . .
37(4) . . .
36(4) . . .
33.3(30) . . .
35.3(31) . . .
24.9(26) . . .
32.0(31) . . .
29.0(28) . . .
33.3(30) . . .
22.9(25) . . .
34.9(31) . . .
33.6(32) . . .
34.5(31) . . .
38.7(33) . . .
31.5(30) . . .
33.4(34) . . .
33.4(31) . . .
29.1(29) . . .
28.6(29) . . .
33.8(31) . . .
34.4(31) . . .
34.3(31) . . .
24.4(27) . . .
34.5(30) . . .
28.3(28) . . .
36.5(33) . . .
29.4(30) . . .
29.6(29) . . .
31.7(30) . . .
30.5(28) . . .
29.8(29) . . .
38.8(34) . . .
31.4(30) . . .
32.2(30) . . .
38.2(31) . . .
35.6(31) . . .
47(4) . . .
34.7(33) . . .
31.9(29) . . .
34.8(31) . . .
30.6(31) . . .
27.4(31) . . .
24.5(28) . . .
26.3(28) . . .
32.8(30) . . .
23.2(25) . . .
34.0(31) . . .
26.7(27) . . .
32.8(30) . . .
27.2(28) . . .
33.0(32) . . .
29.3(30) . . .
27.8(28) . . .
23.0(25) . . .
26.5(27) . . .
30.3(29) . . .
37.8(34) . . .
40.0(33) . . .
28.4(28) . . .
32.2(30) . . .
34.3(31) . . .
36.7(32) . . .
39(4) . . .
32.7(30) . . .
31.2(29) . . .
32.5(30) . . .
32.5(30) . . .
31.8(29) . . .
32.5(30) . . .
31.6(31) . . .
30.3(30) . . .
33.8(32) . . .
24.7(25) . . .
24.0(27) . . .
35.2(33) . . .
34.0(34) . . .
31.2(30) . . .
32.0(30) . . .
29.5(28) . . .
27.5(28) . . .
27.6(30) . . .
26.5(28) . . .
29.8(29) . . .
30.5(28) . . .
35.0(31) . . .
27.7(30) . . .
33.9(34) . . .
31.9(29) . . .
31.6(29) . . .
40.6(34) . . .
27.6(27) . . .
29.5(29) . . .
34.9(30) . . .
33.3(30) . . .
31.4(29) . . .
33.5(31) . . .
35.4(33) . . .
29.5(29) . . .
31.0(29) . . .
38.9(33) . . .
35.9(33) . . .
34.3(32) . . .
29.3(28) . . .
23.2(25) . . .
25.8(28) . . .
31.5(30) . . .
32.0(30) . . .
25.8(27) . . .
25.3(26) . . .
33.7(32) . . .
30.9(30) . . .
25.4(26) . . .
33.4(30) . . .
33.4(31) . . .
29.2(30) . . .
25.1(27) . . .
32.4(29) . . .
40.3(33) . . .
38.0(33) . . .
30.2(30) . . .
25.8(26) . . .
29.7(28) . . .
31.9(29) . . .
28.3(29) . . .
26.7(28) . . .
36.8(33) . . .
25.4(27) . . .
33.4(30) . . .
29.0(28) . . .
30.2(30) . . .
38.6(34) . . .
32.2(29) . . .
28.8(28) . . .
26.0(27) . . .
30.5(31) . . .
30.7(29) . . .
30.3(30) . . .
33.3(30) . . .
33.8(31) . . .
30.8(31) . . .
32.3(31) . . .
47(4) . . .
37.1(31) . . .
33.8(30) . . .
33.5(33) . . .
22.5(25) . . .
37.0(31) . . .
35.0(32) . . .
33.9(32) . . .
27.4(28) . . .
25.4(27) . . .
35.5(31) . . .
32.1(30) . . .
32.6(31) . . .
31.8(31) . . .
32.9(31) . . .
29.1(28) . . .
31.9(30) . . .
35.1(32) . . .
32.5(31) . . .
30.0(29) . . .
29.3(28) . . .
35.7(32) . . .
29.8(28) . . .
31.9(31) . . .
24.6(28) . . .
32.0(29) . . .
27.2(30) . . .
33.9(33) . . .
34.9(31) . . .
29.1(28) . . .
35.3(31) . . .
39.8(35) . . .
37.5(35) . . .
37.3(32) . . .
34.0(31) . . .
39.4(33) . . .
23.3(26) . . .
28.7(29) . . .
27.8(27) . . .
33.2(30) . . .
26.8(27) . . .
29.5(30) . . .
44(4) . . .
32.1(31) . . .
36.7(31) . . .
40.8(33) . . .
37.9(34) . . .
34(4) . . .
29.0(31) . . .
32.2(30) . . .
32.3(29) . . .
32.1(31) . . .
30.9(29) . . .
34.2(30) . . .
34.4(30) . . .
36.9(33) . . .
34.5(31) . . .
32.1(31) . . .
29.9(29) . . .
27.4(27) . . .
33.1(31) . . .
31.4(31) . . .
39(4) . . .
31.3(30) . . .
29.7(29) . . .
32.4(31) . . .
31.8(30) . . .
37.2(34) . . .
35.7(31) . . .
37.0(32) . . .
27.0(29) . . .
30.1(31) . . .
31.1(30) . . .
39.5(33) . . .
31.3(29) . . .
35.9(32) . . .
31.2(31) . . .
27.3(29) . . .
30.7(28) . . .
35.6(32) . . .
27.5(28) . . .
31.9(32) . . .
32.4(30) . . .
30.5(29) . . .
31.2(29) . . .
37.0(32) . . .
29.6(29) . . .
31.4(32) . . .
33.7(30) . . .
31.3(30) . . .
32.5(30) . . .
32.5(32) . . .
30.6(29) . . .
31.6(30) . . .
34.2(30) . . .
22.6(24) . . .
28.0(26) . . .
30.0(30) . . .
37.7(32) . . .
37.6(32) . . .
29.0(29) . . .
29.6(29) . . .
41(4) . . .
33.0(30) . . .
30.8(29) . . .
26.4(28) . . .
32.1(32) . . .
28.0(31) . . .
26.5(27) . . .
31.1(29) . . .
32.3(30) . . .
26.8(26) . . .
32.3(30) . . .
28.6(28) . . .
30.6(30) . . .
33.5(30) . . .
30.2(29) . . .
35.9(31) . . .
42.8(34) . . .
38(4) . . .
33.7(31) . . .
33.8(32) . . .
29.2(29) . . .
26.0(26) . . .
32.1(33) . . .
40(4) . . .
40.6(34) . . .
35.0(31) . . .
32.0(30) . . .
33.8(31) . . .
28.0(29) . . .
32.5(30) . . .
36.0(31) . . .
28.2(28) . . .
30.9(29) . . .
37(4) . . .
30.2(29) . . .
27.8(27) . . .
35.5(31) . . .
32.1(30) . . .
32.2(33) . . .
29.1(29) . . .
25.4(27) . . .
31.7(29) . . .
25.5(27) . . .
34.0(34) . . .
36.5(33) . . .
31.0(29) . . .
34.4(31) . . .
27.6(27) . . .
29.3(30) . . .
25.1(26) . . .
37.5(32) . . .
38.3(34) . . .
34.5(33) . . .
26.7(29) . . .
29.3(30) . . .
35.2(31) . . .
34.8(31) . . .
27.0(29) . . .
30.0(31) . . .
28.3(28) . . .
35.0(31) . . .
36.1(31) . . .
34.7(32) . . .
29.4(30) . . .
34.3(32) . . .
31.0(29) . . .
28.0(27) . . .
32.0(32) . . .
27.9(28) . . .
36.8(32) . . .
32.1(29) . . .
37.5(35) . . .
27.6(28) . . .
30.3(29) . . .
30.8(29) . . .
33.1(30) . . .
33.4(33) . . .
33.3(32) . . .
32.1(30) . . .
21.9(24) . . .
27.9(27) . . .
25.6(28) . . .
30.6(31) . . .
32.4(32) . . .
31.6(30) . . .
29.4(28) . . .
32.2(30) . . .
28.4(30) . . .
32.5(30) . . .
30.0(29) . . .
35.6(31) . . .
36.2(33) . . .
27.0(29) . . .
34.9(32) . . .
33.2(31) . . .
31.0(29) . . .
30.8(31) . . .
36.3(35) . . .
31.1(31) . . .
37.2(31) . . .
30.4(29) . . .
36.9(33) . . .
31.7(30) . . .
36.3(33) . . .
31.7(29) . . .
33.5(30) . . .
34.3(33) . . .
22.9(24) . . .
42.0(35) . . .
37.4(32) . . .
26.5(28) . . .
33.9(31) . . .
28.1(27) . . .
34.2(34) . . .
31.1(30) . . .
33.7(31) . . .
26.8(27) . . .
29.5(31) . . .
31.8(29) . . .
33.9(31) . . .
33.1(31) . . .
28.7(29) . . .
30.0(29) . . .
34.0(32) . . .
30.5(29) . . .
25.7(27) . . .
39(4) . . .
29.6(30) . . .
32.7(30) . . .
30.4(29) . . .
31.9(32) . . .
33.5(31) . . .
38.9(32) . . .
36.1(32) . . .
30.9(29) . . .
31.4(30) . . .
32.8(32) . . .
29.8(29) . . .
28.1(27) . . .
27.4(28) . . .
26.1(26) . . .
34.8(35) . . .
36(4) . . .
30.7(29) . . .
27.5(28) . . .
28.4(28) . . .
29.1(31) . . .
23.4(25) . . .
36.9(31) . . .
29.0(30) . . .
28.2(30) . . .
26.1(29) . . .
29.3(29) . . .
31.3(29) . . .
32.3(29) . . .
29.8(30) . . .
31.6(30) . . .
37.2(33) . . .
32.6(30) . . .
29.7(28) . . .
24.7(27) . . .
31.0(30) . . .
22.9(25) . . .
35.0(30) . . .
34.7(31) . . .
32.4(31) . . .
32.9(32) . . .
25.7(26) . . .
37.2(32) . . .
37.3(32) . . .
30.5(28) . . .
36.5(34) . . .
24.2(26) . . .
32.2(30) . . .
43(4) . . .
27.2(27) . . .
30.5(31) . . .
30.2(30) . . .
28.3(28) . . .
33.3(32) . . .
31.3(31) . . .
27.9(28) . . .
36.5(33) . . .
33.3(30) . . .
29.5(29) . . .
30.3(30) . . .
34.9(32) . . .
30.8(29) . . .
34.8(31) . . .
27.5(31) . . .
27.1(29) . . .
29.8(29) . . .
33.8(30) . . .
31.7(29) . . .
31.8(32) . . .
27.9(29) . . .
24.6(27) . . .
29.5(30) . . .
27.7(28) . . .
37.6(33) . . .
38.4(33) . . .
30.6(30) . . .
21.5(24) . . .
31.3(29) . . .
31.1(30) . . .
28.1(29) . . .
27.6(28) . . .
25.3(26) . . .
28.7(30) . . .
39.7(34) . . .
28.6(29) . . .
23.5(26) . . .
34.4(31) . . .
38.4(33) . . .
41(4) . . .
29.5(29) . . .
29.2(29) . . .
32.9(30) . . .
36.8(32) . . .
30.0(31) . . .
31.5(31) . . .
41.9(34) . . .
39.5(34) . . .
27.9(27) . . .
34.8(32) . . .
33.4(33) . . .
26.5(28) . . .
30.0(29) . . .
29.8(29) . . .
36.6(32) . . .
33.0(30) . . .
31.5(30) . . .
29.1(28) . . .
30.2(29) . . .
30.2(30) . . .
30.6(28) . . .
35.2(32) . . .
31.8(30) . . .
40.2(34) . . .
30.9(31) . . .
29.9(29) . . .
36.1(31) . . .
28.3(29) . . .
27.3(29) . . .
29.1(30) . . .
36.5(33) . . .
35.4(30) . . .
37.2(32) . . .
31.1(29) . . .
35.8(35) . . .
24.4(26) . . .
33.5(32) . . .
30.6(28) . . .
51(4) . . .
30.0(31) . . .
23.7(28) . . .
27.3(27) . . .
30.6(29) . . .
32.9(31) . . .
30.1(31) . . .
33.5(32) . . .
27.5(27) . . .
24.6(27) . . .
30.5(32) . . .
25.6(26) . . .
34.2(30) . . .
34.9(31) . . .
24.6(26) . . .
32.4(31) . . .
30.9(30) . . .
40.3(34) . . .
28.0(27) . . .
22.9(27) . . .
30.1(32) . . .
29.4(29) . . .
29.0(28) . . .
26.9(27) . . .
30.0(30) . . .
33.2(31) . . .
38.1(33) . . .
30.7(30) . . .
29.5(28) . . .
43(4) . . .
31.0(33) . . .
29.0(29) . . .
33.4(31) . . .
34.9(31) . . .
31.5(30) . . .
35.7(34) . . .
25.5(28) . . .
29.0(28) . . .
34.0(30) . . .
25.6(29) . . .
30.5(31) . . .
28.2(27) . . .
35.4(31) . . .
28.5(28) . . .
33.8(31) . . .
25.4(27) . . .
28.0(28) . . .
21.6(24) . . .
22.7(26) . . .
38(4) . . .
32.2(31) . . .
44(4) . . .
37.3(32) . . .
29.6(29) . . .
37.2(33) . . .
28.3(28) . . .
33.9(31) . . .
33.3(30) . . .
32.0(32) . . .
36.1(33) . . .
32.7(31) . . .
31.2(31) . . .
32.2(29) . . .
41.3(35) . . .
25.8(27) . . .
33.7(32) . . .
31.7(30) . . .
43.5(35) . . .
25.1(26) . . .
29.5(30) . . .
27.9(28) . . .
34.2(30) . . .
37.2(33) . . .
30.4(29) . . .
40.0(34) . . .
36.9(32) . . .
36.1(31) . . .
35.7(31) . . .
31.5(30) . . .
32.9(31) . . .
36.1(32) . . .
27.6(28) . . .
25.7(27) . . .
28.5(29) . . .
26.3(29) . . .
32.0(31) . . .
25.6(27) . . .
34.1(30) . . .
31.6(30) . . .
32.9(32) . . .
35.0(32) . . .
32.1(29) . . .
33.5(30) . . .
26.8(30) . . .
35(4) . . .
28.8(29) . . .
27.6(27) . . .
28.5(28) . . .
24.7(26) . . .
29.0(29) . . .
24.7(26) . . .
34.4(30) . . .
37.5(34) . . .
33.6(31) . . .
31.9(30) . . .
34.9(32) . . .
31.5(30) . . .
23.4(25) . . .
25.4(26) . . .
32.8(31) . . .
30.4(29) . . .
32.2(29) . . .
30.2(29) . . .
24.8(27) . . .
29.1(29) . . .
30.0(29) . . .
26.0(26) . . .
23.7(28) . . .
23.6(26) . . .
33.8(31) . . .
29.6(28) . . .
27.0(28) . . .
31.3(31) . . .
26.3(30) . . .
31.6(31) . . .
34.0(30) . . .
36.0(31) . . .
27.1(28) . . .
31.8(31) . . .
33.1(32) . . .
25.6(27) . . .
35.5(31) . . .
25.4(26) . . .
24.3(26) . . .
33.2(31) . . .
28.3(29) . . .
29.8(29) . . .
31.5(30) . . .
34.2(33) . . .
32.9(31) . . .
27.7(27) . . .
30.4(30) . . .
34.1(31) . . .
29.2(29) . . .
37.3(33) . . .
34.0(31) . . .
30.2(29) . . .
35.9(33) . . .
33.6(32) . . .
34.8(32) . . .
34.0(31) . . .
28.8(28) . . .
31.2(29) . . .
27.5(29) . . .
29.0(30) . . .
31.5(29) . . .
30.8(30) . . .
33.8(32) . . .
34.5(32) . . .
35.1(32) . . .
24.5(26) . . .
30.1(29) . . .
28.2(27) . . .
25.8(26) . . .
30.6(30) . . .
23.1(26) . . .
23.3(25) . . .
33.5(33) . . .
25.2(26) . . .
27.7(28) . . .
30.3(29) . . .
27.5(27) . . .
29.4(30) . . .
30.6(31) . . .
32.2(30) . . .
36.1(31) . . .
41.2(34) . . .
32.9(31) . . .
26.0(27) . . .
26.6(27) . . .
32.2(29) . . .
34.1(32) . . .
32.2(31) . . .
32.3(31) . . .
30.7(29) . . .
29.2(28) . . .
33.9(33) . . .
37(4) . . .
40(4) . . .
31.4(29) . . .
26.3(27) . . .
26.5(26) . . .
37(4) . . .
32.9(31) . . .
20.3(23) . . .
32.9(31) . . .
31.5(31) . . .
27.9(28) . . .
27.2(27) . . .
42.1(34) . . .
32.1(30) . . .
37(4) . . .
34.1(33) . . .
32.1(31) . . .
31.7(30) . . .
33.5(30) . . .
35.7(35) . . .
30.9(31) . . .
32.4(32) . . .
39.6(33) . . .
32.3(31) . . .
30.9(31) . . .
26.1(28) . . .
30.6(29) . . .
38.8(32) . . .
34.2(32) . . .
27.9(29) . . .
31.9(31) . . .
27.3(28) . . .
24.5(26) . . .
31.3(30) . . .
29.6(30) . . .
23.9(25) . . .
26.2(27) . . .
26.5(27) . . .
33.0(30) . . .
25.6(26) . . .
33.7(32) . . .
33.6(32) . . .
27.5(28) . . .
36.3(31) . . .
31.5(30) . . .
30.9(29) . . .
41.2(34) . . .
32.8(29) . . .
25.5(26) . . .
33.0(31) . . .
32.2(29) . . .
34.3(31) . . .
33.6(31) . . .
35.0(31) . . .
37.4(33) . . .
32.0(31) . . .
27.6(28) . . .
31.9(29) . . .
34.8(31) . . .
38.0(33) . . .
29.3(29) . . .
34.4(31) . . .
29.9(29) . . .
38.3(35) . . .
26.8(28) . . .
30.0(30) . . .
26.3(27) . . .
28.6(28) . . .
30.5(29) . . .
31.7(31) . . .
30.9(30) . . .
35.4(31) . . .
30.9(29) . . .
33.5(33) . . .
26.6(28) . . .
34.9(32) . . .
35.3(31) . . .
32.3(29) . . .
35.6(33) . . .
34.0(32) . . .
30.8(30) . . .
28.0(28) . . .
25.5(26) . . .
25.0(27) . . .
28.5(29) . . .
30.5(29) . . .
27.1(28) . . .
30.0(29) . . .
27.2(28) . . .
28.4(29) . . .
31.7(29) . . .
32.6(30) . . .
31.5(31) . . .
30.4(31) . . .
39.2(34) . . .
35.9(32) . . .
26.0(27) . . .
26.6(27) . . .
29.6(32) . . .
30.0(32) . . .
30.6(30) . . .
26.0(27) . . .
31.1(31) . . .
38(4) . . .
28.1(29) . . .
33.3(30) . . .
30.1(29) . . .
32.2(31) . . .
35.8(32) . . .
32.2(29) . . .
33.0(30) . . .
30.4(29) . . .
24.0(28) . . .
28.3(31) . . .
31.8(31) . . .
37.5(33) . . .
34.8(30) . . .
31.5(31) . . .
32.4(31) . . .
26.6(28) . . .
27.2(28) . . .
25.5(26) . . .
31.1(33) . . .
31.5(31) . . .
31.7(29) . . .
28.4(28) . . .
35.2(33) . . .
26.0(29) . . .
30.1(31) . . .
32.7(30) . . .
38.3(32) . . .
26.5(28) . . .
32.2(32) . . .
29.7(30) . . .
33.8(32) . . .
31.3(29) . . .
29.2(30) . . .
24.5(28) . . .
34.9(33) . . .
25.7(27) . . .
28.6(28) . . .
35.8(34) . . .
30.1(31) . . .
29.8(29) . . .
39.9(33) . . .
21.1(25) . . .
26.0(27) . . .
25.4(27) . . .
26.4(27) . . .
22.9(25) . . .
30.2(29) . . .
25.6(26) . . .
31.9(31) . . .
33.7(31) . . .
24.2(26) . . .
28.9(28) . . .
24.8(27) . . .
43(4) . . .
29.7(29) . . .
28.1(27) . . .
34.4(30) . . .
28.9(28) . . .
30.4(31) . . .
27.3(28) . . .
33.0(30) . . .
31.1(29) . . .
27.1(28) . . .
38(4) . . .
28.8(29) . . .
25.3(26) . . .
40.5(34) . . .
32.1(32) . . .
29.2(31) . . .
22.8(25) . . .
25.4(26) . . .
29.5(29) . . .
29.2(30) . . .
26.8(27) . . .
33.1(30) . . .
28.2(28) . . .
27.6(28) . . .
32.9(33) . . .
27.7(29) . . .
27.3(28) . . .
34.3(30) . . .
44(4) . . .
33.8(32) . . .
34.6(34) . . .
30.8(29) . . .
28.5(28) . . .
25.8(27) . . .
30.5(32) . . .
34.0(33) . . .
21.1(24) . . .
34.9(31) . . .
28.1(27) . . .
28.0(28) . . .
31.4(32) . . .
29.8(29) . . .
38.9(32) . . .
27.3(28) . . .
30.1(32) . . .
28.9(30) . . .
25.9(28) . . .
36.7(31) . . .
34.0(30) . . .
31.6(31) . . .
35.5(33) . . .
33.4(31) . . .
30.4(29) . . .
30.5(29) . . .
42(4) . . .
32.9(31) . . .
39.8(32) . . .
27.2(28) . . .
27.5(28) . . .
30.7(32) . . .
39(4) . . .
32.8(30) . . .
28.3(27) . . .
42(4) . . .
33.1(30) . . .
36.9(32) . . .
28.7(28) . . .
26.2(26) . . .
32.8(32) . . .
38.7(34) . . .
35.2(32) . . .
32.6(30) . . .
27.4(27) . . .
28.7(28) . . .
31.7(30) . . .
26.0(26) . . .
30.4(29) . . .
37.6(32) . . .
37.5(34) . . .
30.8(30) . . .
36.3(32) . . .
33.8(30) . . .
31.1(30) . . .
39(4) . . .
29.9(29) . . .
28.1(29) . . .
32.0(30) . . .
26.0(26) . . .
32.0(32) . . .
23.5(26) . . .
31.8(30) . . .
31.2(29) . . .
31.9(32) . . .
33.0(34) . . .
25.5(29) . . .
30.8(30) . . .
32.5(30) . . .
35.6(32) . . .
29.4(31) . . .
23.5(27) . . .
34.5(33) . . .
31.1(30) . . .
29.5(29) . . .
29.9(29) . . .
35.1(31) . . .
33.8(31) . . .
29.4(29) . . .
37.8(34) . . .
27.6(28) . . .
28.1(28) . . .
36.8(32) . . .
38.5(33) . . .
23.2(26) . . .
34.3(33) . . .
27.6(28) . . .
34.6(30) . . .
26.4(27) . . .
30.6(31) . . .
28.0(28) . . .
24.5(27) . . .
22.6(25) . . .
21.9(27) . . .
37(4) . . .
29.8(27) . . .
25.7(26) . . .
23.0(25) . . .
25.5(27) . . .
34.8(30) . . .
38.9(33) . . .
34.9(31) . . .
31.2(29) . . .
32.1(30) . . .
20.9(25) . . .
27.3(29) . . .
24.9(26) . . .
30.9(29) . . .
33.2(31) . . .
38(4) . . .
31.6(32) . . .
34.5(30) . . .
29.6(29) . . .
37.9(35) . . .
31.2(31) . . .
29.9(29) . . .
37.4(33) . . .
29.7(28) . . .
29.3(28) . . .
30.2(30) . . .
33.1(31) . . .
32.6(30) . . .
29.2(28) . . .
30.1(30) . . .
32.7(29) . . .
40.1(33) . . .
35.8(31) . . .
35.5(31) . . .
45(4) . . .
29.5(30) . . .
38.1(33) . . .
34.0(30) . . .
30.6(30) . . .
26.2(27) . . .
32.9(33) . . .
30.6(31) . . .
25.7(26) . . .
25.4(26) . . .
28.5(30) . . .
29.2(30) . . .
30.3(30) . . .
34.6(31) . . .
32.8(30) . . .
28.3(28) . . .
26.5(28) . . .
26.1(27) . . .
26.7(27) . . .
32.6(33) . . .
31.0(31) . . .
34.6(33) . . .
33.4(33) . . .
28.6(28) . . .
34.5(33) . . .
30.6(31) . . .
41(4) . . .
30.0(30) . . .
29.1(29) . . .
34.3(33) . . .
39(4) . . .
30.4(30) . . .
32.7(30) . . .
35.7(31) . . .
36.9(34) . . .
30.1(29) . . .
36.6(35) . . .
32.2(30) . . .
27.3(27) . . .
28.1(27) . . .
39.2(35) . . .
28.2(27) . . .
31.5(30) . . .
23.0(25) . . .
28.5(30) . . .
28.4(30) . . .
30.4(29) . . .
33.9(31) . . .
25.6(26) . . .
27.6(27) . . .
37(4) . . .
34.5(33) . . .
20.1(24) . . .
32.3(30) . . .
31.0(30) . . .
35.6(33) . . .
34.7(32) . . .
42.4(34) . . .
39.5(34) . . .
25.6(28) . . .
27.6(31) . . .
19.9(24) . . .
30.1(29) . . .
32.6(30) . . .
30.7(29) . . .
27.8(29) . . .
32.5(31) . . .
38.3(32) . . .
43(4) . . .
36(4) . . .
30.7(29) . . .
36.0(32) . . .
27.1(28) . . .
25.3(29) . . .
30.1(29) . . .
33.8(31) . . .
22.8(25) . . .
38.1(32) . . .
27.8(29) . . .
20.8(24) . . .
28.0(28) . . .
32.8(31) . . .
33.9(30) . . .
29.6(30) . . .
29.1(29) . . .
31.5(29) . . .
30.5(29) . . .
31.7(30) . . .
25.3(27) . . .
29.5(31) . . .
35.2(32) . . .
33.6(30) . . .
31.0(29) . . .
31.8(31) . . .
32.6(30) . . .
31.3(30) . . .
31.9(30) . . .
30.7(29) . . .
33.3(31) . . .
38.4(34) . . .
31.5(31) . . .
31.6(29) . . .
31.7(30) . . .
25.5(26) . . .
34.0(32) . . .
37.0(34) . . .
28.0(28) . . .
31.9(29) . . .
40.3(34) . . .
28.2(29) . . .
36.7(32) . . .
34.0(30) . . .
31.7(30) . . .
27.6(29) . . .
20.5(25) . . .
34.2(32) . . .
29.6(29) . . .
29.6(30) . . .
26.8(30) . . .
25.1(26) . . .
34.2(31) . . .
25.9(27) . . .
34.4(31) . . .
39.6(34) . . .
26.1(28) . . .
32.9(32) . . .
35.9(31) . . .
26.4(29) . . .
29.7(33) . . .
26.3(28) . . .
26.1(27) . . .
30.5(29) . . .
27.9(29) . . .
27.0(29) . . .
27.0(28) . . .
30.8(29) . . .
29.8(29) . . .
34.6(33) . . .
31.3(33) . . .
33.3(30) . . .
31.4(29) . . .
21.0(24) . . .
26.1(29) . . .
29.6(32) . . .
30.7(30) . . .
25.5(26) . . .
34.2(32) . . .
29.7(31) . . .
26.8(30) . . .
31.5(31) . . .
35.3(31) . . .
30.5(30) . . .
24.8(28) . . .
26.6(28) . . .
26.9(29) . . .
34.0(30) . . .
38.3(32) . . .
28.6(28) . . .
28.3(30) . . .
36.2(32) . . .
35.5(31) . . .
33.5(32) . . .
29.8(29) . . .
30.9(30) . . .
27.7(28) . . .
30.5(29) . . .
34.8(32) . . .
22.8(24) . . .
29.2(30) . . .
34.2(31) . . .
28.1(28) . . .
37.4(33) . . .
31.7(32) . . .
22.2(26) . . .
24.8(27) . . .
31.5(29) . . .
30.5(31) . . .
30.2(30) . . .
29.3(31) . . .
33.3(30) . . .
37.3(33) . . .
31.6(30) . . .
33.4(31) . . .
26.5(27) . . .
34.1(30) . . .
33.2(30) . . .
31.4(32) . . .
35.3(32) . . .
30.6(28) . . .
34.2(30) . . .
33.4(31) . . .
31.5(29) . . .
26.2(28) . . .
28.5(30) . . .
25.1(26) . . .
36.5(32) . . .
34.1(30) . . .
31.8(33) . . .
26.1(28) . . .
35.8(31) . . .
32.8(30) . . .
31.3(30) . . .
33.7(33) . . .
27.0(27) . . .
26.8(27) . . .
25.8(27) . . .
27.5(29) . . .
30.4(29) . . .
29.6(29) . . .
31.4(29) . . .
35.3(34) . . .
34.6(33) . . .
36.7(33) . . .
31.9(29) . . .
30.4(29) . . .
35.2(32) . . .
23.1(26) . . .
33.0(32) . . .
31.6(30) . . .
34.5(30) . . .
34.4(31) . . .
33.8(31) . . .
34.9(33) . . .
28.6(28) . . .
34.7(31) . . .
27.5(27) . . .
30.0(29) . . .
23.0(25) . . .
34.6(31) . . .
37.7(33) . . .
33.2(31) . . .
33.9(32) . . .
32.2(30) . . .
31.6(29) . . .
28.8(28) . . .
32.2(31) . . .
24.4(27) . . .
28.7(30) . . .
34.6(31) . . .
27.2(27) . . .
30.6(30) . . .
21.0(23) . . .
30.0(29) . . .
34.1(31) . . .
36.5(32) . . .
29.7(29) . . .
33.2(31) . . .
34.6(31) . . .
29.5(28) . . .
36.2(33) . . .
35.1(32) . . .
31.1(30) . . .
28.9(29) . . .
35.9(31) . . .
33.7(32) . . .
33.0(32) . . .
34.6(34) . . .
25.6(26) . . .
29.5(28) . . .
27.1(28) . . .
28.9(30) . . .
30.4(32) . . .
23.8(26) . . .
20.6(25) . . .
29.0(30) . . .
20.5(24) . . .
29.0(31) . . .
35.5(32) . . .
32.2(30) . . .
30.3(30) . . .
25.0(28) . . .
30.7(31) . . .
29.1(29) . . .
37.7(32) . . .
35.9(32) . . .
29.5(30) . . .
26.3(29) . . .
27.4(27) . . .
31.6(30) . . .
31.0(31) . . .
34.9(32) . . .
35.4(32) . . .
32.9(30) . . .
26.8(27) . . .
28.1(28) . . .
29.8(29) . . .
33.8(31) . . .
30.4(29) . . .
32.9(30) . . .
32.0(32) . . .
23.0(26) . . .
33.4(31) . . .
26.4(27) . . .
25.4(27) . . .
33.5(34) . . .
28.6(30) . . .
27.9(28) . . .
24.4(26) . . .
31.3(29) . . .
29.4(28) . . .
31.5(32) . . .
28.5(28) . . .
35.1(31) . . .
33.9(30) . . .
27.3(27) . . .
23.1(25) . . .
29.1(29) . . .
31.2(29) . . .
32.2(30) . . .
26.9(27) . . .
30.2(29) . . .
26.1(28) . . .
29.9(29) . . .
28.0(29) . . .
32.5(31) . . .
37.3(35) . . .
32.2(31) . . .
31.5(30) . . .
37.8(32) . . .
31.1(29) . . .
32.5(31) . . .
26.3(27) . . .
35.0(31) . . .
34.7(31) . . .
33.0(30) . . .
33.0(30) . . .
27.7(27) . . .
25.6(27) . . .
26.7(28) . . .
25.6(27) . . .
29.4(30) . . .
30.7(29) . . .
27.4(27) . . .
29.7(28) . . .
32.5(31) . . .
29.6(28) . . .
27.6(28) . . .
26.9(27) . . .
28.4(28) . . .
30.5(31) . . .
27.1(29) . . .
22.0(24) . . .
33.0(31) . . .
31.2(33) . . .
31.2(32) . . .
38.4(33) . . .
36.4(31) . . .
35.2(31) . . .
30.0(27) . . .
36.1(33) . . .
32.6(30) . . .
41.2(34) . . .
32.0(29) . . .
23.2(26) . . .
29.6(32) . . .
31.3(30) . . .
35.5(32) . . .
29.8(30) . . .
28.5(29) . . .
28.2(31) . . .
25.1(27) . . .
39.5(33) . . .
29.6(29) . . .
32.7(31) . . .
24.7(26) . . .
30.0(29) . . .
33.0(30) . . .
30.4(30) . . .
25.3(29) . . .
18.5(23) . . .
32.1(33) . . .
22.8(25) . . .
29.9(31) . . .
31.5(29) . . .
25.5(27) . . .
32.2(30) . . .
28.2(28) . . .
26.8(27) . . .
37.5(33) . . .
34.5(31) . . .
30.9(30) . . .
25.5(26) . . .
23.1(25) . . .
36.7(35) . . .
28.9(27) . . .
28.7(28) . . .
22.6(25) . . .
20.6(24) . . .
31.5(31) . . .
29.5(29) . . .
28.9(29) . . .
27.6(28) . . .
28.1(28) . . .
37(4) . . .
32.1(29) . . .
30.6(29) . . .
33.7(30) . . .
34.0(32) . . .
28.7(30) . . .
29.6(29) . . .
30.8(29) . . .
28.6(28) . . .
25.5(27) . . .
30.7(30) . . .
33.8(31) . . .
24.1(25) . . .
28.7(28) . . .
31.6(29) . . .
38.2(33) . . .
30.8(29) . . .
37.6(32) . . .
32.3(30) . . .
31.0(33) . . .
32.0(32) . . .
34.4(31) . . .
39.6(33) . . .
30.6(29) . . .
27.5(28) . . .
23.6(25) . . .
38.9(33) . . .
27.8(28) . . .
28.1(29) . . .
28.9(29) . . .
30.8(31) . . .
29.9(30) . . .
33.1(30) . . .
20.6(23) . . .
33.9(31) . . .
38.3(33) . . .
29.4(29) . . .
25.8(27) . . .
27.8(28) . . .
36.2(34) . . .
26.1(28) . . .
23.5(25) . . .
32.4(30) . . .
33.3(32) . . .
28.2(30) . . .
26.1(27) . . .
34.1(31) . . .
31.4(29) . . .
29.7(29) . . .
23.5(28) . . .
29.4(30) . . .
29.5(30) . . .
33.4(30) . . .
33.3(31) . . .
25.7(28) . . .
41(4) . . .
32.5(30) . . .
30.2(29) . . .
32.4(30) . . .
32.3(32) . . .
30.8(29) . . .
35.4(31) . . .
27.0(27) . . .
34.7(33) . . .
30.5(29) . . .
40.0(34) . . .
36.9(32) . . .
33.1(30) . . .
28.7(28) . . .
30.1(29) . . .
30.1(29) . . .
26.7(27) . . .
29.6(28) . . .
33.8(34) . . .
27.9(29) . . .
28.8(30) . . .
28.9(28) . . .
32.6(31) . . .
27.6(28) . . .
28.3(28) . . .
26.1(26) . . .
30.5(30) . . .
28.9(29) . . .
35.1(35) . . .
28.9(28) . . .
29.1(28) . . .
32.7(31) . . .
29.9(30) . . .
27.1(29) . . .
27.5(31) . . .
24.5(25) . . .
31.4(29) . . .
35.2(32) . . .
34.3(32) . . .
29.0(28) . . .
27.7(27) . . .
30.3(30) . . .
29.3(31) . . .
28.0(30) . . .
27.5(29) . . .
26.1(27) . . .
30.2(29) . . .
26.1(27) . . .
23.5(30) . . .
31.4(31) . . .
35.4(31) . . .
33.6(31) . . .
26.2(28) . . .
26.8(28) . . .
33.2(32) . . .
28.9(28) . . .
34.5(31) . . .
28.1(27) . . .
27.6(29) . . .
26.3(28) . . .
27.0(26) . . .
21.2(25) . . .
21.7(24) . . .
28.6(27) . . .
33.5(31) . . .
31.8(29) . . .
25.4(29) . . .
30.5(30) . . .
43(4) . . .
26.8(28) . . .
21.7(24) . . .
31.5(32) . . .
29.9(30) . . .
33.6(32) . . .
36.0(32) . . .
30.1(29) . . .
26.7(29) . . .
39.2(34) . . .
31.8(30) . . .
35.2(31) . . .
44.8(35) . . .
34.8(32) . . .
27.9(29) . . .
33.4(31) . . .
31.1(29) . . .
29.0(28) . . .
37.0(33) . . .
25.9(27) . . .
26.0(27) . . .
26.7(27) . . .
32.6(30) . . .
35.9(33) . . .
21.6(24) . . .
29.0(30) . . .
22.0(25) . . .
28.1(28) . . .
26.4(28) . . .
26.4(30) . . .
23.6(26) . . .
27.7(27) . . .
27.2(27) . . .
30.4(28) . . .
31.6(31) . . .
31.5(33) . . .
29.0(28) . . .
31.1(32) . . .
28.2(28) . . .
33.6(33) . . .
32.3(32) . . .
28.6(28) . . .
33.0(31) . . .
30.6(30) . . .
35.2(33) . . .
27.8(27) . . .
37.5(32) . . .
29.4(30) . . .
33.2(32) . . .
32.6(31) . . .
31.8(30) . . .
34.4(31) . . .
27.4(28) . . .
34.7(32) . . .
32.7(31) . . .
26.4(28) . . .
33.3(30) . . .
36.2(32) . . .
33.1(32) . . .
26.9(28) . . .
29.2(30) . . .
24.6(26) . . .
34.2(34) . . .
29.5(32) . . .
28.0(28) . . .
29.6(28) . . .
20.1(23) . . .
32.5(33) . . .
31.5(29) . . .
31.4(31) . . .
26.2(27) . . .
34.3(30) . . .
32.7(31) . . .
28.4(32) . . .
26.6(30) . . .
29.2(29) . . .
34.3(30) . . .
26.1(26) . . .
30.2(31) . . .
29.2(28) . . .
26.8(27) . . .
34.4(31) . . .
33.5(31) . . .
30.1(32) . . .
36.2(32) . . .
28.3(28) . . .
33.6(31) . . .
34.6(31) . . .
25.7(26) . . .
28.5(29) . . .
28.3(28) . . .
30.2(29) . . .
25.3(26) . . .
30.2(31) . . .
30.7(31) . . .
36.2(32) . . .
24.5(26) . . .
38.5(34) . . .
35.1(32) . . .
24.8(26) . . .
34.0(30) . . .
27.1(28) . . .
32.3(31) . . .
22.5(24) . . .
29.1(29) . . .
34.8(31) . . .
29.4(30) . . .
25.6(30) . . .
26.0(28) . . .
27.7(28) . . .
27.8(27) . . .
28.1(29) . . .
32.7(32) . . .
38(4) . . .
29.3(28) . . .
23.7(26) . . .
24.0(26) . . .
33.0(31) . . .
27.6(27) . . .
24.4(26) . . .
25.3(29) . . .
33.5(34) . . .
24.7(27) . . .
27.2(27) . . .
34.9(32) . . .
28.4(27) . . .
24.9(27) . . .
27.5(29) . . .
35.5(34) . . .
23.0(25) . . .
30.1(29) . . .
33.9(31) . . .
29.7(30) . . .
33.7(31) . . .
30.0(28) . . .
36.1(33) . . .
39.4(33) . . .
33.0(31) . . .
37(4) . . .
29.3(28) . . .
30.5(29) . . .
33.9(31) . . .
33.0(33) . . .
36.6(34) . . .
39.2(32) . . .
28.2(28) . . .
35.1(32) . . .
31.8(32) . . .
29.1(29) . . .
30.6(29) . . .
21.3(24) . . .
28.8(28) . . .
29.4(30) . . .
28.2(28) . . .
30.0(28) . . .
30.7(31) . . .
37.1(33) . . .
30.2(30) . . .
36.3(33) . . .
28.9(28) . . .
32.0(31) . . .
27.4(30) . . .
30.0(31) . . .
30.3(29) . . .
35.6(31) . . .
34.6(31) . . .
32.8(31) . . .
40.3(35) . . .
26.8(27) . . .
33.8(30) . . .
33.4(31) . . .
30.6(30) . . .
29.6(29) . . .
24.0(25) . . .
34.5(31) . . .
31.0(29) . . .
29.3(30) . . .
31.2(28) . . .
37.2(33) . . .
31.2(29) . . .
22.3(26) . . .
25.6(28) . . .
31.7(30) . . .
34.7(31) . . .
22.8(26) . . .
34.3(31) . . .
43(4) . . .
29.7(31) . . .
25.4(26) . . .
24.5(27) . . .
29.0(30) . . .
19.1(25) . . .
25.5(30) . . .
33.3(31) . . .
32.2(29) . . .
33.5(31) . . .
29.8(30) . . .
28.1(30) . . .
16.3(22) . . .
27.5(27) . . .
36.3(33) . . .
34.3(32) . . .
35.2(32) . . .
23.0(26) . . .
21.1(24) . . .
30.1(30) . . .
34.8(33) . . .
31.7(30) . . .
33.6(30) . . .
32.6(30) . . .
23.1(27) . . .
27.7(27) . . .
24.8(25) . . .
28.3(28) . . .
25.0(28) . . .
26.9(28) . . .
36.3(33) . . .
28.2(28) . . .
32.8(30) . . .
34.8(32) . . .
39.4(34) . . .
25.1(26) . . .
23.1(25) . . .
33.3(31) . . .
31.2(32) . . .
24.1(27) . . .
35(4) . . .
25.1(26) . . .
29.5(29) . . .
33.1(32) . . .
34.2(32) . . .
33.8(30) . . .
22.1(24) . . .
28.8(28) . . .
33.8(31) . . .
31.1(30) . . .
33.9(32) . . .
20.9(24) . . .
34.6(30) . . .
33.6(31) . . .
32.6(31) . . .
29.5(30) . . .
30.5(29) . . .
27.9(29) . . .
30.0(28) . . .
28.8(29) . . .
28.5(28) . . .
28.2(28) . . .
32.2(31) . . .
29.4(28) . . .
26.5(27) . . .
30.9(31) . . .
25.7(26) . . .
29.8(29) . . .
32.1(30) . . .
30.1(30) . . .
32.7(30) . . .
35.3(31) . . .
25.3(28) . . .
27.1(28) . . .
32.6(31) . . .
33.6(31) . . .
29.3(28) . . .
27.6(28) . . .
22.4(23) . . .
22.9(24) . . .
28.3(28) . . .
27.8(27) . . .
33.8(32) . . .
24.8(26) . . .
31.7(30) . . .
34.8(32) . . .
33.0(30) . . .
33.3(33) . . .
32.6(33) . . .
35.1(33) . . .
32.9(30) . . .
33.5(30) . . .
27.3(29) . . .
27.9(31) . . .
28.5(28) . . .
33.6(30) . . .
35.4(32) . . .
25.0(26) . . .
29.0(31) . . .
26.1(27) . . .
32.9(30) . . .
26.3(28) . . .
30.2(30) . . .
30.4(29) . . .
36.1(35) . . .
27.6(28) . . .
32.3(29) . . .
35.7(33) . . .
32.9(31) . . .
33.8(30) . . .
25.6(27) . . .
26.3(26) . . .
30.6(30) . . .
27.6(30) . . .
33.1(31) . . .
26.8(28) . . .
24.3(27) . . .
27.5(27) . . .
29.2(29) . . .
29.5(29) . . .
23.0(25) . . .
24.9(27) . . .
28.0(30) . . .
32.1(32) . . .
28.0(29) . . .
31.1(30) . . .
28.1(28) . . .
35.2(32) . . .
34.8(31) . . .
30.2(29) . . .
33.7(30) . . .
27.2(29) . . .
32.0(34) . . .
33.4(32) . . .
31.3(30) . . .
25.6(26) . . .
25.7(26) . . .
31.2(31) . . .
30.6(29) . . .
34.6(31) . . .
38.4(33) . . .
37.2(34) . . .
30.6(31) . . .
40(4) . . .
33.0(30) . . .
31.2(30) . . .
27.5(30) . . .
27.4(31) . . .
25.2(27) . . .
27.7(27) . . .
35.9(31) . . .
31.8(31) . . .
29.6(30) . . .
32.3(33) . . .
30.8(29) . . .
29.4(28) . . .
34.7(32) . . .
33.4(32) . . .
26.9(27) . . .
26.9(27) . . .
32.9(32) . . .
35.2(32) . . .
27.7(28) . . .
28.5(31) . . .
26.2(27) . . .
31.4(30) . . .
29.5(30) . . .
32.3(31) . . .
27.1(27) . . .
28.1(28) . . .
33.4(32) . . .
26.7(28) . . .
28.6(28) . . .
21.8(24) . . .
29.9(28) . . .
22.2(26) . . .
28.1(29) . . .
31.7(31) . . .
33.8(33) . . .
28.4(28) . . .
31.1(30) . . .
39(4) . . .
27.9(28) . . .
36.9(32) . . .
38.8(33) . . .
29.8(29) . . .
27.8(29) . . .
23.3(26) . . .
28.5(28) . . .
33.0(31) . . .
29.9(29) . . .
36.5(34) . . .
34.7(33) . . .
28.0(27) . . .
30.3(29) . . .
30.0(29) . . .
39(4) . . .
34.6(31) . . .
35.9(31) . . .
33.1(32) . . .
23.7(25) . . .
33.1(32) . . .
22.5(25) . . .
26.4(27) . . .
30.7(30) . . .
27.1(28) . . .
28.0(28) . . .
29.3(28) . . .
29.6(28) . . .
26.9(29) . . .
24.8(28) . . .
28.5(31) . . .
31.0(30) . . .
35.5(31) . . .
35.6(32) . . .
29.9(31) . . .
25.9(28) . . .
30.1(29) . . .
27.8(28) . . .
25.8(28) . . .
25.2(27) . . .
23.3(25) . . .
30.1(31) . . .
27.3(27) . . .
36.0(32) . . .
27.5(28) . . .
31.7(30) . . .
31.5(29) . . .
29.5(29) . . .
38.6(34) . . .
28.6(28) . . .
30.0(29) . . .
27.5(28) . . .
29.7(29) . . .
32.2(30) . . .
32.6(31) . . .
31.3(31) . . .
32.2(29) . . .
26.8(28) . . .
29.2(29) . . .
36.0(35) . . .
37.8(34) . . .
29.2(28) . . .
27.1(27) . . .
32.3(30) . . .
33.2(33) . . .
28.4(29) . . .
29.0(28) . . .
33.3(30) . . .
31.2(29) . . .
30.5(33) . . .
30.3(31) . . .
36.7(33) . . .
33.1(30) . . .
36.2(32) . . .
34.7(33) . . .
25.4(27) . . .
27.1(28) . . .
37.7(31) . . .
35.9(33) . . .
37(4) . . .
37.5(33) . . .
31.0(29) . . .
21.9(29) . . .
23.9(28) . . .
34.2(34) . . .
28.0(29) . . .
24.6(26) . . .
33.9(32) . . .
37.7(34) . . .
31.3(31) . . .
31.9(30) . . .
30.3(28) . . .
27.9(28) . . .
25.2(29) . . .
26.8(32) . . .
31.4(29) . . .
30.2(29) . . .
28.5(28) . . .
34.0(33) . . .
29.8(28) . . .
34.1(32) . . .
31.0(29) . . .
36.1(33) . . .
25.8(27) . . .
30.8(31) . . .
31.1(30) . . .
32.6(30) . . .
28.3(28) . . .
26.0(27) . . .
36.2(31) . . .
31.9(29) . . .
31.7(29) . . .
30.5(30) . . .
35.8(34) . . .
26.0(28) . . .
28.8(28) . . .
32.6(31) . . .
37.9(34) . . .
28.5(29) . . .
28.6(28) . . .
36.1(31) . . .
28.5(28) . . .
31.9(31) . . .
26.9(30) . . .
31.0(32) . . .
22.0(25) . . .
30.2(29) . . .
30.8(30) . . .
30.9(31) . . .
26.3(28) . . .
31.5(30) . . .
37.2(32) . . .
30.3(29) . . .
33.0(32) . . .
34.5(32) . . .
36.5(31) . . .
31.0(30) . . .
33.3(31) . . .
34(4) . . .
31.5(30) . . .
22.9(26) . . .
23.4(26) . . .
29.0(29) . . .
30.2(30) . . .
28.1(29) . . .
28.2(28) . . .
26.2(27) . . .
24.6(27) . . .
28.4(28) . . .
34.2(30) . . .
34.2(31) . . .
34.0(34) . . .
35(4) . . .
31.8(33) . . .
30.4(28) . . .
32.0(29) . . .
36.9(32) . . .
34.0(32) . . .
37.3(32) . . .
27.0(27) . . .
26.2(27) . . .
23.9(25) . . .
33.2(32) . . .
33.8(31) . . .
27.2(28) . . .
33.4(30) . . .
32.3(31) . . .
37(4) . . .
33.7(31) . . .
30.5(29) . . .
31.0(28) . . .
29.1(29) . . .
27.9(28) . . .
29.3(30) . . .
32.9(30) . . .
29.5(28) . . .
27.5(28) . . .
37.0(33) . . .
34.2(31) . . .
37.6(32) . . .
34.9(31) . . .
34.1(31) . . .
28.5(29) . . .
25.6(28) . . .
28.2(28) . . .
33.1(30) . . .
26.3(27) . . .
33.1(31) . . .
29.8(28) . . .
32.9(31) . . .
32.9(31) . . .
28.4(30) . . .
29.8(29) . . .
33.8(30) . . .
26.9(27) . . .
35.3(32) . . .
33.6(31) . . .
33.4(31) . . .
29.5(29) . . .
24.2(25) . . .
20.4(24) . . .
30.2(32) . . .
25.1(27) . . .
30.5(30) . . .
38.4(32) . . .
25.1(27) . . .
30.9(33) . . .
28.6(29) . . .
24.3(26) . . .
25.7(27) . . .
28.9(28) . . .
37.7(32) . . .
37.8(33) . . .
28.7(28) . . .
26.7(27) . . .
32.7(30) . . .
30.9(32) . . .
24.4(27) . . .
28.4(29) . . .
27.2(27) . . .
29.7(29) . . .
25.9(26) . . .
34.5(32) . . .
23.1(27) . . .
34.7(31) . . .
35.7(34) . . .
29.5(31) . . .
28.3(28) . . .
27.1(27) . . .
24.7(26) . . .
36.2(33) . . .
31.4(30) . . .
27.5(29) . . .
37.3(32) . . .
29.6(29) . . .
33.6(31) . . .
30.0(29) . . .
32.3(31) . . .
28.0(28) . . .
38(4) . . .
31.7(29) . . .
23.1(25) . . .
26.6(27) . . .
33.2(30) . . .
32.3(30) . . .
31.1(28) . . .
32.7(30) . . .
21.6(24) . . .
33.0(30) . . .
27.3(27) . . .
31.6(30) . . .
32.2(29) . . .
31.0(30) . . .
29.1(28) . . .
30.1(29) . . .
34.3(33) . . .
28.6(30) . . .
27.3(27) . . .
33.5(31) . . .
31.6(31) . . .
26.8(29) . . .
26.4(28) . . .
28.9(28) . . .
32.8(30) . . .
30.1(28) . . .
30.4(31) . . .
24.7(27) . . .
25.7(27) . . .
31.6(29) . . .
25.1(26) . . .
23.0(28) . . .
25.9(29) . . .
18.8(23) . . .
29.4(29) . . .
26.2(26) . . .
24.8(27) . . .
26.2(27) . . .
26.8(27) . . .
30.5(30) . . .
19.6(24) . . .
21.4(26) . . .
30.6(31) . . .
29.3(29) . . .
29.5(30) . . .
29.1(28) . . .
23.3(25) . . .
27.3(28) . . .
32.0(30) . . .
32.0(33) . . .
27.7(28) . . .
34.1(31) . . .
34.8(32) . . .
37.3(32) . . .
30.7(29) . . .
26.8(29) . . .
35.1(34) . . .
25.5(29) . . .
27.7(27) . . .
37.1(35) . . .
21.7(25) . . .
29.8(30) . . .
24.0(26) . . .
19.2(23) . . .
27.3(28) . . .
31.6(29) . . .
32.5(30) . . .
37.9(32) . . .
33.1(30) . . .
33.3(32) . . .
27.3(29) . . .
30.0(29) . . .
27.2(27) . . .
33.9(31) . . .
30.5(30) . . .
30.6(31) . . .
41(4) . . .
29.3(28) . . .
33.6(31) . . .
30.3(30) . . .
36.9(34) . . .
31.9(33) . . .
28.6(28) . . .
35.7(32) . . .
27.6(28) . . .
28.0(29) . . .
24.5(26) . . .
37.0(31) . . .
33.7(30) . . .
30.7(32) . . .
36.9(35) . . .
30.5(32) . . .
24.7(26) . . .
28.0(30) . . .
27.3(28) . . .
32.3(32) . . .
30.1(29) . . .
24.9(26) . . .
32.7(32) . . .
25.7(28) . . .
24.9(28) . . .
27.8(29) . . .
25.0(28) . . .
31.9(31) . . .
40(4) . . .
31.5(31) . . .
29.1(29) . . .
27.5(27) . . .
31.6(30) . . .
34.0(31) . . .
29.8(27) . . .
37.0(33) . . .
29.3(28) . . .
41(4) . . .
30.4(30) . . .
25.2(26) . . .
29.6(30) . . .
28.7(28) . . .
25.6(28) . . .
34.0(31) . . .
29.5(28) . . .
29.7(29) . . .
22.9(25) . . .
26.1(26) . . .
28.8(29) . . .
31.4(30) . . .
37.5(32) . . .
37.7(32) . . .
35.3(32) . . .
27.6(28) . . .
30.0(30) . . .
28.6(27) . . .
33.3(31) . . .
25.7(29) . . .
28.2(28) . . .
40(4) . . .
31.3(29) . . .
34.9(32) . . .
31.0(29) . . .
25.7(29) . . .
32.1(32) . . .
30.5(29) . . .
32.0(31) . . .
32.1(30) . . .
27.6(28) . . .
28.7(31) . . .
36.6(31) . . .
31.7(30) . . .
27.2(28) . . .
27.9(29) . . .
27.7(29) . . .
27.9(28) . . .
27.3(28) . . .
26.8(28) . . .
26.7(28) . . .
28.0(28) . . .
24.3(26) . . .
30.2(32) . . .
35.3(32) . . .
29.2(29) . . .
26.5(27) . . .
28.9(29) . . .
27.5(29) . . .
37.2(34) . . .
32.7(31) . . .
28.8(28) . . .
32.0(29) . . .
35.8(33) . . .
35.7(33) . . .
32.8(32) . . .
30.4(29) . . .
27.8(27) . . .
35.8(34) . . .
26.4(27) . . .
31.4(30) . . .
32.0(31) . . .
30.4(29) . . .
33.0(32) . . .
23.9(29) . . .
24.4(26) . . .
29.3(28) . . .
32.0(30) . . .
27.5(29) . . .
26.8(29) . . .
26.2(30) . . .
26.5(28) . . .
38.0(34) . . .
36.3(31) . . .
31.0(30) . . .
32.1(30) . . .
29.1(28) . . .
38.3(32) . . .
26.0(26) . . .
27.5(31) . . .
24.6(26) . . .
24.2(25) . . .
31.1(32) . . .
27.5(29) . . .
27.5(27) . . .
44(4) . . .
29.1(30) . . .
30.5(30) . . .
27.8(28) . . .
32.8(32) . . .
27.5(27) . . .
37.0(32) . . .
34.0(31) . . .
41(4) . . .
34.2(31) . . .
39.0(33) . . .
24.0(25) . . .
29.8(29) . . .
29.8(28) . . .
34.3(32) . . .
30.7(30) . . .
30.6(29) . . .
26.0(28) . . .
25.9(29) . . .
24.8(26) . . .
29.6(28) . . .
27.0(27) . . .
32.1(29) . . .
32.2(30) . . .
36.7(34) . . .
34.3(30) . . .
27.0(27) . . .
24.5(27) . . .
35(4) . . .
31.2(29) . . .
30.9(29) . . .
30.0(29) . . .
26.9(28) . . .
31.0(33) . . .
30.5(31) . . .
32.3(30) . . .
32.9(30) . . .
33.0(31) . . .
32.0(32) . . .
28.7(28) . . .
30.3(29) . . .
28.4(27) . . .
29.3(29) . . .
21.9(24) . . .
30.3(32) . . .
29.2(29) . . .
33.3(32) . . .
28.4(30) . . .
26.7(29) . . .
29.7(29) . . .
21.7(24) . . .
20.0(24) . . .
30.6(31) . . .
30.9(30) . . .
32.0(30) . . .
33.8(31) . . .
31.1(30) . . .
29.8(30) . . .
28.6(28) . . .
32.1(30) . . .
32.6(30) . . .
38.7(33) . . .
30.1(29) . . .
31.8(29) . . .
33.6(30) . . .
39.6(33) . . .
31.1(30) . . .
33.7(33) . . .
37.8(34) . . .
32.1(30) . . .
26.6(27) . . .
31.5(31) . . .
33.9(34) . . .
27.4(28) . . .
23.4(25) . . .
28.2(27) . . .
27.2(27) . . .
30.6(32) . . .
35.8(32) . . .
27.8(27) . . .
26.6(28) . . .
26.5(28) . . .
34.7(34) . . .
26.7(27) . . .
35.3(31) . . .
37.7(33) . . .
34.9(32) . . .
32.1(32) . . .
30.5(29) . . .
35.1(31) . . .
31.5(29) . . .
31.3(30) . . .
36(4) . . .
27.2(28) . . .
34.7(30) . . .
33.3(32) . . .
22.8(26) . . .
29.2(31) . . .
22.1(26) . . .
32.3(30) . . .
37.6(34) . . .
37.2(32) . . .
35.1(32) . . .
28.5(28) . . .
31.3(30) . . .
35.5(32) . . .
32.9(32) . . .
36.3(33) . . .
35.4(32) . . .
28.7(28) . . .
29.3(30) . . .
29.0(30) . . .
34.4(32) . . .
33.2(30) . . .
31.2(29) . . .
28.5(29) . . .
30.9(30) . . .
31.4(30) . . .
20.0(23) . . .
31.9(30) . . .
38.7(32) . . .
31.1(30) . . .
32.8(30) . . .
26.3(27) . . .
33.4(30) . . .
29.1(28) . . .
26.5(27) . . .
30.7(30) . . .
32.2(30) . . .
25.8(26) . . .
26.2(28) . . .
25.0(28) . . .
37.0(35) . . .
27.6(28) . . .
29.1(29) . . .
21.2(27) . . .
33.0(33) . . .
29.1(28) . . .
26.4(26) . . .
30.2(30) . . .
30.5(29) . . .
35.9(31) . . .
29.3(30) . . .
27.8(27) . . .
32.6(31) . . .
26.5(28) . . .
21.1(26) . . .
29.8(30) . . .
32.4(30) . . .
29.0(29) . . .
21.1(24) . . .
23.8(27) . . .
29.6(29) . . .
37.7(32) . . .
27.4(27) . . .
26.6(28) . . .
37.8(34) . . .
36.4(32) . . .
27.0(28) . . .
28.8(32) . . .
28.1(29) . . .
29.4(28) . . .
20.6(24) . . .
26.7(27) . . .
26.9(31) . . .
23.8(29) . . .
34.3(31) . . .
31.9(29) . . .
28.8(28) . . .
35.6(32) . . .
25.8(29) . . .
35.3(32) . . .
30.0(28) . . .
32.0(30) . . .
32.3(31) . . .
32.4(33) . . .
24.4(26) . . .
31.5(29) . . .
25.6(27) . . .
35.5(33) . . .
30.7(30) . . .
34.1(31) . . .
34.7(31) . . .
30.1(30) . . .
28.3(28) . . .
28.4(29) . . .
33.3(30) . . .
30.4(29) . . .
33.4(30) . . .
30.6(30) . . .
32.0(32) . . .
27.4(27) . . .
22.3(25) . . .
28.0(29) . . .
27.0(27) . . .
31.0(30) . . .
31.4(30) . . .
32.7(30) . . .
31.1(30) . . .
27.6(29) . . .
23.2(25) . . .
25.5(26) . . .
31.9(30) . . .
31.3(30) . . .
23.6(25) . . .
32.7(31) . . .
29.8(28) . . .
32.9(30) . . .
41.2(34) . . .
37.2(33) . . .
29.7(29) . . .
34.3(31) . . .
29.1(29) . . .
26.5(27) . . .
31.7(32) . . .
26.6(28) . . .
33.8(32) . . .
32.1(30) . . .
29.7(29) . . .
29.0(29) . . .
32.4(31) . . .
30.4(29) . . .
30.7(28) . . .
28.2(29) . . .
33.8(33) . . .
22.6(26) . . .
23.7(25) . . .
25.9(26) . . .
36.6(32) . . .
31.3(30) . . .
33.1(31) . . .
29.5(30) . . .
26.0(26) . . .
31.4(33) . . .
35.4(34) . . .
34.5(32) . . .
29.3(29) . . .
30.7(29) . . .
26.2(30) . . .
28.5(30) . . .
31.4(30) . . .
33.3(30) . . .
26.7(27) . . .
30.1(30) . . .
26.5(28) . . .
30.5(29) . . .
28.8(29) . . .
33.8(30) . . .
40(4) . . .
27.6(29) . . .
34.1(32) . . .
21.5(24) . . .
32.5(31) . . .
37(4) . . .
30.2(30) . . .
31.7(31) . . .
24.3(26) . . .
28.5(31) . . .
26.9(28) . . .
32.1(31) . . .
27.2(27) . . .
38.6(32) . . .
33.8(31) . . .
28.9(30) . . .
33.3(32) . . .
27.7(27) . . .
30.2(29) . . .
28.7(31) . . .
22.4(24) . . .
29.7(30) . . .
22.9(25) . . .
26.1(27) . . .
35.9(34) . . .
25.6(30) . . .
30.8(33) . . .
25.4(26) . . .
28.4(29) . . .
31.2(30) . . .
28.3(30) . . .
24.8(26) . . .
27.2(27) . . .
28.1(28) . . .
36.4(34) . . .
35.3(35) . . .
24.6(26) . . .
29.1(28) . . .
28.0(30) . . .
25.4(28) . . .
27.3(30) . . .
28.4(29) . . .
28.1(27) . . .
22.2(25) . . .
27.4(28) . . .
28.9(31) . . .
24.3(29) . . .
33.0(30) . . .
29.5(29) . . .
29.3(29) . . .
28.2(30) . . .
30.7(29) . . .
25.0(27) . . .
25.4(27) . . .
26.3(29) . . .
22.9(26) . . .
31.0(30) . . .
32.5(30) . . .
33.0(31) . . .
25.4(27) . . .
29.8(30) . . .
31.9(30) . . .
33.0(30) . . .
35.8(31) . . .
27.8(30) . . .
27.4(30) . . .
34.6(34) . . .
23.5(25) . . .
23.8(25) . . .
34.5(33) . . .
30.6(31) . . .
30.4(31) . . .
24.5(26) . . .
28.4(28) . . .
26.2(28) . . .
24.3(26) . . .
24.4(25) . . .
24.0(26) . . .
26.2(28) . . .
25.8(27) . . .
38.5(33) . . .
27.7(28) . . .
40.5(34) . . .
26.0(29) . . .
25.1(29) . . .
25.0(27) . . .
31.7(30) . . .
23.9(26) . . .
26.4(27) . . .
23.9(25) . . .
30.4(29) . . .
26.5(26) . . .
25.9(27) . . .
23.9(26) . . .
30.2(30) . . .
29.9(28) . . .
30.8(30) . . .
28.5(28) . . .
33.0(30) . . .
32.0(30) . . .
32.7(31) . . .
40.9(33) . . .
27.8(27) . . .
30.9(30) . . .
30.8(31) . . .
39.7(33) . . .
35.3(31) . . .
29.8(29) . . .
33.5(34) . . .
33.7(32) . . .
36.6(32) . . .
35.0(31) . . .
33.1(31) . . .
30.6(31) . . .
24.1(25) . . .
28.1(28) . . .
31.5(30) . . .
28.6(30) . . .
31.0(31) . . .
30.0(32) . . .
33.7(31) . . .
30.8(29) . . .
25.6(30) . . .
29.5(30) . . .
24.5(27) . . .
24.2(27) . . .
36.2(32) . . .
26.0(27) . . .
24.0(28) . . .
30.4(30) . . .
33.5(30) . . .
32.7(29) . . .
30.8(28) . . .
36.6(34) . . .
21.6(24) . . .
22.3(24) . . .
35.0(31) . . .
33.9(31) . . .
45(4) . . .
42.0(34) . . .
26.7(28) . . .
32.7(31) . . .
30.6(30) . . .
24.5(27) . . .
35.4(34) . . .
33.8(31) . . .
27.8(29) . . .
30.6(29) . . .
30.4(29) . . .
39.1(34) . . .
31.9(29) . . .
30.4(28) . . .
33.6(33) . . .
26.0(27) . . .
31.5(31) . . .
28.8(28) . . .
35.5(32) . . .
32.4(31) . . .
27.0(29) . . .
26.0(28) . . .
28.0(28) . . .
24.8(26) . . .
26.0(26) . . .
32.8(34) . . .
31.3(29) . . .
26.5(27) . . .
25.8(28) . . .
24.4(27) . . .
32.5(31) . . .
33.6(31) . . .
23.9(26) . . .
24.3(26) . . .
29.1(31) . . .
36.0(33) . . .
28.0(27) . . .
26.8(27) . . .
31.2(30) . . .
25.7(27) . . .
29.1(30) . . .
29.2(28) . . .
35.4(31) . . .
29.2(31) . . .
29.4(29) . . .
35.4(31) . . .
32.9(30) . . .
33.8(31) . . .
35.5(34) . . .
32.0(32) . . .
29.8(30) . . .
36.2(31) . . .
27.9(27) . . .
23.5(26) . . .
30.3(31) . . .
36.9(32) . . .
30.9(29) . . .
27.7(28) . . .
33.7(32) . . .
34.5(32) . . .
28.4(28) . . .
35.2(31) . . .
26.8(27) . . .
34.5(32) . . .
23.9(26) . . .
28.9(28) . . .
27.3(28) . . .
24.2(26) . . .
22.2(25) . . .
29.8(30) . . .
31.3(29) . . .
33.3(30) . . .
25.3(26) . . .
30.4(29) . . .
28.6(29) . . .
21.5(25) . . .
26.8(27) . . .
27.2(29) . . .
22.6(26) . . .
26.0(28) . . .
33.8(31) . . .
24.0(26) . . .
29.5(30) . . .
31.3(32) . . .
28.1(28) . . .
39.3(33) . . .
27.8(29) . . .
25.6(29) . . .
24.8(28) . . .
32.9(30) . . .
37.8(33) . . .
27.1(26) . . .
34.2(32) . . .
29.0(29) . . .
25.7(27) . . .
33.8(31) . . .
34.4(30) . . .
22.9(26) . . .
30.8(33) . . .
22.6(25) . . .
32.4(29) . . .
31.8(29) . . .
22.4(24) . . .
29.6(31) . . .
28.4(31) . . .
26.1(26) . . .
25.5(26) . . .
30.3(29) . . .
23.9(25) . . .
31.0(34) . . .
32.1(29) . . .
30.9(28) . . .
34.4(33) . . .
32.5(31) . . .
29.2(29) . . .
22.2(25) . . .
29.0(28) . . .
31.3(28) . . .
35.8(32) . . .
39.6(34) . . .
29.7(28) . . .
28.0(31) . . .
37(4) . . .
25.0(28) . . .
29.2(29) . . .
28.0(27) . . .
33.0(32) . . .
32.8(31) . . .
34.2(31) . . .
35.9(32) . . .
27.9(27) . . .
33.1(31) . . .
26.2(27) . . .
31.7(30) . . .
28.7(27) . . .
27.1(27) . . .
31.5(30) . . .
29.7(31) . . .
27.1(29) . . .
23.8(25) . . .
24.1(25) . . .
32.8(33) . . .
28.0(30) . . .
32.0(31) . . .
24.7(26) . . .
27.6(27) . . .
29.8(29) . . .
31.6(31) . . .
25.5(27) . . .
26.8(28) . . .
23.2(24) . . .
30.9(30) . . .
29.6(31) . . .
27.3(28) . . .
25.8(27) . . .
28.4(29) . . .
30.5(30) . . .
32.9(34) . . .
28.0(29) . . .
26.8(27) . . .
35.7(32) . . .
32.9(31) . . .
43(4) . . .
35.1(31) . . .
33.3(30) . . .
23.4(26) . . .
24.9(27) . . .
24.1(26) . . .
26.5(28) . . .
28.9(28) . . .
24.4(26) . . .
27.7(30) . . .
26.9(29) . . .
33.5(31) . . .
32.3(29) . . .
28.6(29) . . .
35.9(33) . . .
27.1(27) . . .
32.6(30) . . .
25.8(27) . . .
26.2(27) . . .
22.3(26) . . .
25.1(27) . . .
32.3(29) . . .
28.0(28) . . .
29.5(28) . . .
29.5(30) . . .
31.4(30) . . .
30.9(29) . . .
32.3(29) . . .
31.3(31) . . .
30.3(29) . . .
25.4(26) . . .
29.1(30) . . .
24.8(26) . . .
34.3(31) . . .
32.3(32) . . .
33.6(33) . . .
26.7(27) . . .
27.7(27) . . .
38.2(34) . . .
28.4(30) . . .
27.3(28) . . .
28.4(28) . . .
28.8(28) . . .
27.6(29) . . .
30.5(31) . . .
32.6(31) . . .
30.7(30) . . .
30.6(30) . . .
29.0(30) . . .
28.6(30) . . .
27.7(28) . . .
28.6(28) . . .
32.2(30) . . .
30.7(30) . . .
36.8(34) . . .
35.1(31) . . .
38.2(32) . . .
26.9(27) . . .
25.4(27) . . .
26.0(27) . . .
23.9(27) . . .
28.5(28) . . .
35.1(34) . . .
23.9(26) . . .
27.5(28) . . .
28.9(28) . . .
33.0(30) . . .
25.6(29) . . .
36.6(35) . . .
29.0(29) . . .
24.3(27) . . .
37.1(31) . . .
35.9(33) . . .
32.1(31) . . .
33.5(30) . . .
37.8(33) . . .
25.0(26) . . .
33.2(31) . . .
32.1(31) . . .
38.4(33) . . .
24.9(27) . . .
34.2(30) . . .
34.0(33) . . .
31.8(31) . . .
33.3(31) . . .
30.7(28) . . .
28.5(29) . . .
27.3(28) . . .
29.8(29) . . .
34.2(34) . . .
30.5(29) . . .
24.3(26) . . .
32.1(33) . . .
27.6(29) . . .
27.0(27) . . .
32.5(30) . . .
27.5(28) . . .
34.0(32) . . .
30.8(32) . . .
30.9(32) . . .
32.2(29) . . .
27.3(29) . . .
28.2(29) . . .
26.9(29) . . .
20.4(25) . . .
24.7(25) . . .
29.4(29) . . .
33.2(33) . . .
24.7(28) . . .
38.5(33) . . .
29.1(29) . . .
29.8(29) . . .
36.4(33) . . .
30.9(31) . . .
31.2(30) . . .
30.9(29) . . .
29.7(29) . . .
34.6(33) . . .
25.7(26) . . .
29.8(29) . . .
32.0(30) . . .
27.2(28) . . .
27.1(29) . . .
24.7(25) . . .
27.2(27) . . .
34.0(31) . . .
29.0(28) . . .
28.4(30) . . .
34.5(32) . . .
25.7(26) . . .
28.9(28) . . .
31.5(30) . . .
30.1(29) . . .
35.3(33) . . .
31.1(29) . . .
30.6(29) . . .
27.6(28) . . .
28.9(30) . . .
26.3(28) . . .
35.3(31) . . .
35.8(32) . . .
32.5(31) . . .
30.2(30) . . .
28.1(29) . . .
19.2(24) . . .
31.1(30) . . .
26.4(27) . . .
31.3(30) . . .
31.6(30) . . .
30.3(29) . . .
30.3(29) . . .
30.3(30) . . .
29.0(30) . . .
31.8(32) . . .
28.9(28) . . .
28.0(29) . . .
25.6(29) . . .
29.6(30) . . .
28.1(27) . . .
34.9(31) . . .
32.8(30) . . .
30.1(29) . . .
26.1(27) . . .
32.2(29) . . .
29.6(28) . . .
30.6(30) . . .
27.6(29) . . .
23.0(25) . . .
25.0(26) . . .
32.3(30) . . .
37(4) . . .
28.4(30) . . .
24.1(28) . . .
33.1(31) . . .
31.6(30) . . .
29.5(30) . . .
28.0(30) . . .
30.4(30) . . .
25.5(26) . . .
32.8(29) . . .
32.1(31) . . .
28.0(29) . . .
28.3(28) . . .
20.5(24) . . .
28.2(27) . . .
25.8(27) . . .
28.2(30) . . .
26.4(28) . . .
31.1(29) . . .
25.1(26) . . .
35.3(34) . . .
27.7(28) . . .
26.3(27) . . .
27.3(27) . . .
30.9(30) . . .
30.0(29) . . .
31.0(33) . . .
26.2(29) . . .
29.3(28) . . .
30.7(29) . . .
33.4(32) . . .
34.4(32) . . .
26.3(27) . . .
31.7(29) . . .
29.0(28) . . .
29.8(30) . . .
24.7(27) . . .
31.4(32) . . .
32.7(30) . . .
38.2(33) . . .
33.3(32) . . .
29.5(30) . . .
27.1(27) . . .
38.4(32) . . .
26.4(28) . . .
32.1(31) . . .
29.9(30) . . .
28.6(28) . . .
35.0(31) . . .
27.8(27) . . .
34.4(31) . . .
38.4(33) . . .
36.6(33) . . .
24.1(26) . . .
31.9(30) . . .
26.8(29) . . .
31.7(31) . . .
34.6(32) . . .
25.4(27) . . .
25.1(26) . . .
26.6(26) . . .
26.0(26) . . .
32.1(29) . . .
27.2(28) . . .
34.0(31) . . .
19.9(23) . . .
27.0(28) . . .
25.5(27) . . .
30.5(29) . . .
28.9(28) . . .
28.4(29) . . .
27.0(27) . . .
31.2(29) . . .
22.0(24) . . .
30.8(31) . . .
29.4(30) . . .
27.1(27) . . .
31.7(30) . . .
24.1(26) . . .
30.0(29) . . .
33.5(32) . . .
28.6(29) . . .
35.9(31) . . .
25.9(27) . . .
26.8(29) . . .
27.2(29) . . .
31.3(29) . . .
39.3(32) . . .
29.7(28) . . .
30.4(30) . . .
31.4(32) . . .
25.5(28) . . .
28.8(28) . . .
27.8(28) . . .
23.2(26) . . .
27.1(28) . . .
35.0(31) . . .
34.8(31) . . .
28.0(28) . . .
31.6(31) . . .
30.4(32) . . .
26.2(28) . . .
25.1(26) . . .
27.7(28) . . .
31.6(33) . . .
29.9(31) . . .
27.7(28) . . .
28.1(28) . . .
22.8(27) . . .
27.5(28) . . .
40(4) . . .
31.3(29) . . .
28.7(29) . . .
29.8(31) . . .
33(4) . . .
31.1(32) . . .
32.9(32) . . .
24.2(26) . . .
24.5(27) . . .
25.8(28) . . .
32.2(31) . . .
32.4(29) . . .
29.7(29) . . .
32.8(32) . . .
33.4(34) . . .
25.1(26) . . .
33.6(30) . . .
29.1(30) . . .
32.5(30) . . .
28.3(29) . . .
28.7(29) . . .
27.9(28) . . .
29.7(28) . . .
34.3(32) . . .
32.0(29) . . .
36.8(32) . . .
29.8(28) . . .
22.3(25) . . .
27.2(29) . . .
23.8(26) . . .
28.9(29) . . .
29.7(29) . . .
25.1(26) . . .
37.3(33) . . .
29.5(28) . . .
31.2(29) . . .
35.2(31) . . .
30.6(30) . . .
25.0(27) . . .
31.6(29) . . .
29.5(28) . . .
24.0(25) . . .
32.1(31) . . .
37.1(34) . . .
29.3(29) . . .
25.6(28) . . .
24.8(26) . . .
31.7(31) . . .
34.1(32) . . .
31.1(31) . . .
37.0(33) . . .
30.9(30) . . .
33.4(32) . . .
37.2(35) . . .
34.0(30) . . .
34.1(30) . . .
27.9(28) . . .
36.4(35) . . .
33.1(34) . . .
33.9(30) . . .
34.0(30) . . .
27.7(27) . . .
32.0(30) . . .
34.0(33) . . .
34.1(31) . . .
31.5(29) . . .
25.1(26) . . .
22.2(26) . . .
29.1(31) . . .
27.6(28) . . .
27.6(28) . . .
35.3(32) . . .
32.6(32) . . .
28.0(29) . . .
29.9(29) . . .
27.2(28) . . .
31.3(29) . . .
29.7(31) . . .
32.9(32) . . .
25.8(28) . . .
39.9(32) . . .
30.9(30) . . .
20.2(25) . . .
21.3(24) . . .
34.4(30) . . .
28.7(28) . . .
24.6(26) . . .
32.4(32) . . .
31.9(30) . . .
23.6(26) . . .
33.6(30) . . .
28.3(28) . . .
28.8(30) . . .
31.9(33) . . .
29.6(29) . . .
30.0(28) . . .
34.3(30) . . .
35.5(33) . . .
30.4(30) . . .
22.9(25) . . .
26.1(27) . . .
32.2(32) . . .
25.2(28) . . .
24.9(27) . . .
24.7(26) . . .
34.8(31) . . .
35.4(32) . . .
30.9(31) . . .
20.8(24) . . .
27.5(27) . . .
27.8(28) . . .
18.6(21) . . .
34.0(34) . . .
29.5(28) . . .
40.5(32) . . .
35.4(32) . . .
21.3(23) . . .
26.1(26) . . .
35.4(32) . . .
30.6(29) . . .
30.1(31) . . .
28.3(30) . . .
23.4(30) . . .
28.4(30) . . .
29.7(28) . . .
26.6(27) . . .
24.1(25) . . .
33.0(33) . . .
29.5(29) . . .
25.5(27) . . .
31.5(30) . . .
34(4) . . .
22.1(25) . . .
30.1(29) . . .
16.3(22) . . .
24.1(27) . . .
26.1(27) . . .
23.5(26) . . .
25.6(26) . . .
30.1(29) . . .
30.4(31) . . .
31.3(30) . . .
29.8(30) . . .
28.0(28) . . .
32.2(29) . . .
32.3(30) . . .
31.6(30) . . .
36(4) . . .
32.9(30) . . .
32.4(30) . . .
27.2(27) . . .
28.5(28) . . .
31.9(30) . . .
29.8(29) . . .
24.0(25) . . .
26.1(31) . . .
27.8(30) . . .
33.9(32) . . .
28.0(28) . . .
29.4(28) . . .
28.6(27) . . .
32.6(32) . . .
29.1(29) . . .
29.7(28) . . .
32.3(30) . . .
34.3(34) . . .
31.0(31) . . .
37.6(34) . . .
24.7(26) . . .
33.8(31) . . .
31.1(29) . . .
27.1(28) . . .
26.9(28) . . .
23.4(26) . . .
25.2(27) . . .
20.4(24) . . .
35.6(33) . . .
32.3(31) . . .
33.0(30) . . .
27.1(27) . . .
25.3(27) . . .
32.7(30) . . .
42.1(34) . . .
31.3(29) . . .
30.3(30) . . .
31.6(32) . . .
32.7(32) . . .
33.8(31) . . .
28.5(28) . . .
28.8(28) . . .
25.5(28) . . .
30.9(32) . . .
27.0(28) . . .
33.8(31) . . .
27.8(27) . . .
37.2(35) . . .
34.0(33) . . .
30.1(28) . . .
26.2(27) . . .
27.5(29) . . .
28.3(31) . . .
29.0(30) . . .
31.4(29) . . .
30.0(29) . . .
28.8(29) . . .
31.1(31) . . .
23.8(26) . . .
20.3(23) . . .
27.3(27) . . .
35.9(33) . . .
31.7(31) . . .
22.1(24) . . .
33.2(31) . . .
31.5(29) . . .
23.8(27) . . .
30.1(34) . . .
28.3(29) . . .
22.5(25) . . .
29.9(28) . . .
30.2(30) . . .
29.0(29) . . .
28.7(28) . . .
35.6(31) . . .
27.6(27) . . .
31.1(30) . . .
30.1(31) . . .
33.0(33) . . .
26.9(27) . . .
35.0(31) . . .
30.1(29) . . .
20.1(23) . . .
23.1(26) . . .
22.9(25) . . .
22.4(28) . . .
22.6(26) . . .
32.7(33) . . .
21.5(24) . . .
33.0(30) . . .
27.0(29) . . .
26.4(28) . . .
30.9(30) . . .
26.5(28) . . .
21.8(25) . . .
21.6(26) . . .
30.5(31) . . .
22.7(24) . . .
32.9(30) . . .
32.7(29) . . .
33.4(31) . . .
34.3(33) . . .
28.8(28) . . .
26.5(27) . . .
36.4(32) . . .
30.4(31) . . .
28.6(31) . . .
19.8(24) . . .
29.0(28) . . .
26.0(27) . . .
27.5(28) . . .
29.8(29) . . .
27.4(29) . . .
27.7(28) . . .
33.0(30) . . .
23.5(27) . . .
28.8(32) . . .
22.3(26) . . .
31.5(29) . . .
37.2(31) . . .
33.6(31) . . .
33.6(32) . . .
25.8(28) . . .
24.2(26) . . .
26.6(28) . . .
23.6(25) . . .
34.2(33) . . .
23.1(25) . . .
36.1(31) . . .
22.4(25) . . .
27.6(29) . . .
34.3(32) . . .
31.0(32) . . .
25.9(26) . . .
31.2(29) . . .
38(4) . . .
30.3(32) . . .
30.7(29) . . .
30.1(29) . . .
21.3(24) . . .
32.5(31) . . .
36.3(34) . . .
29.5(30) . . .
31.2(30) . . .
25.9(27) . . .
31.0(31) . . .
23.8(26) . . .
32.5(30) . . .
29.9(28) . . .
28.1(30) . . .
29.7(30) . . .
31.9(31) . . .
30.1(28) . . .
31.8(30) . . .
25.8(27) . . .
24.8(28) . . .
31.4(33) . . .
28.3(29) . . .
33.6(30) . . .
32.7(31) . . .
24.8(27) . . .
31.3(31) . . .
23.3(25) . . .
31.0(31) . . .
22.3(28) . . .
25.1(30) . . .
28.5(28) . . .
26.4(27) . . .
26.0(27) . . .
30.1(32) . . .
24.1(26) . . .
27.4(28) . . .
31.7(29) . . .
30.4(29) . . .
29.7(30) . . .
37.3(34) . . .
31.3(29) . . .
29.5(28) . . .
35.5(33) . . .
27.4(29) . . .
31.5(32) . . .
33.1(31) . . .
38.9(33) . . .
25.8(27) . . .
35.3(34) . . .
32.7(30) . . .
24.8(26) . . .
18.1(22) . . .
21.3(25) . . .
31.3(32) . . .
27.6(28) . . .
26.5(27) . . .
37.5(32) . . .
29.0(29) . . .
30.3(30) . . .
23.1(25) . . .
28.2(28) . . .
28.7(28) . . .
23.1(26) . . .
24.6(27) . . .
32.2(30) . . .
29.4(28) . . .
36.4(32) . . .
27.9(29) . . .
24.1(25) . . .
26.3(27) . . .
24.9(26) . . .
34.6(31) . . .
33.0(32) . . .
31.9(31) . . .
29.9(28) . . .
26.0(27) . . .
32.1(29) . . .
44(4) . . .
29.8(30) . . .
28.2(28) . . .
31.6(29) . . .
27.0(28) . . .
29.2(28) . . .
38.4(35) . . .
29.8(29) . . .
25.9(27) . . .
26.0(27) . . .
25.5(28) . . .
27.3(28) . . .
30.4(30) . . .
20.6(24) . . .
24.3(26) . . .
30.6(31) . . .
25.6(28) . . .
25.4(26) . . .
36.5(31) . . .
32.4(30) . . .
35.3(33) . . .
28.4(30) . . .
29.2(30) . . .
32.1(30) . . .
29.7(29) . . .
35.4(32) . . .
27.1(28) . . .
29.4(29) . . .
24.2(26) . . .
36(4) . . .
39(4) . . .
29.7(29) . . .
29.7(29) . . .
29.5(28) . . .
35.9(32) . . .
31.6(32) . . .
25.9(30) . . .
29.6(29) . . .
21.2(24) . . .
30.2(30) . . .
28.2(29) . . .
25.2(28) . . .
20.7(25) . . .
33.0(30) . . .
33.3(31) . . .
30.9(30) . . .
28.9(30) . . .
32.4(30) . . .
24.9(26) . . .
26.7(26) . . .
35.0(33) . . .
33.9(32) . . .
25.4(26) . . .
29.4(28) . . .
29.0(28) . . .
30.0(31) . . .
22.8(25) . . .
35.0(31) . . .
21.7(26) . . .
23.4(25) . . .
31.3(30) . . .
26.5(27) . . .
36.2(32) . . .
29.2(28) . . .
34.6(32) . . .
25.3(28) . . .
20.4(24) . . .
31.3(29) . . .
42.0(34) . . .
24.8(27) . . .
28.2(30) . . .
26.5(28) . . .
28.2(28) . . .
30.7(29) . . .
33.4(31) . . .
37.0(34) . . .
27.2(29) . . .
31.9(30) . . .
26.2(28) . . .
27.8(28) . . .
31.2(30) . . .
33.6(31) . . .
17.0(22) . . .
32.8(32) . . .
32.2(31) . . .
28.7(30) . . .
31.2(29) . . .
37.0(33) . . .
22.1(25) . . .
23.5(27) . . .
28.7(32) . . .
30.5(31) . . .
33.0(29) . . .
34.6(31) . . .
27.1(28) . . .
25.3(26) . . .
33.0(30) . . .
33.4(30) . . .
33.6(32) . . .
30.0(31) . . .
21.4(24) . . .
27.7(27) . . .
26.3(28) . . .
29.3(30) . . .
32.7(31) . . .
27.9(29) . . .
34.3(31) . . .
28.5(28) . . .
26.3(28) . . .
35.8(33) . . .
34.2(31) . . .
23.1(25) . . .
30.8(29) . . .
32.6(31) . . .
30.2(30) . . .
30.0(29) . . .
25.7(27) . . .
30.8(29) . . .
31.6(31) . . .
21.3(24) . . .
31.9(31) . . .
28.1(28) . . .
29.4(28) . . .
25.9(29) . . .
30.1(31) . . .
25.4(26) . . .
29.6(28) . . .
29.2(28) . . .
27.9(27) . . .
33.0(32) . . .
37.2(34) . . .
29.9(29) . . .
30.7(31) . . .
27.0(28) . . .
24.4(27) . . .
25.3(26) . . .
32.3(30) . . .
22.4(25) . . .
31.4(33) . . .
33.8(33) . . .
32.3(30) . . .
32.4(30) . . .
29.9(30) . . .
31.6(30) . . .
25.9(26) . . .
28.5(27) . . .
28.4(30) . . .
36(4) . . .
21.3(25) . . .
23.3(26) . . .
39.9(33) . . .
34.0(30) . . .
37.6(34) . . .
33.3(34) . . .
25.5(27) . . .
24.7(26) . . .
29.0(29) . . .
26.2(28) . . .
24.0(27) . . .
29.7(29) . . .
29.8(29) . . .
31.1(31) . . .
26.7(27) . . .
28.3(29) . . .
28.9(29) . . .
18.2(22) . . .
31.2(31) . . .
28.9(29) . . .
30.9(29) . . .
35.7(31) . . .
27.3(28) . . .
28.4(29) . . .
33.6(33) . . .
26.1(28) . . .
23.2(25) . . .
25.1(27) . . .
29.9(30) . . .
31.8(30) . . .
29.7(28) . . .
25.9(29) . . .
27.2(27) . . .
27.5(27) . . .
27.4(29) . . .
30.9(32) . . .
35.1(31) . . .
26.1(27) . . .
29.5(29) . . .
35.9(33) . . .
33.7(31) . . .
30.5(29) . . .
29.1(28) . . .
37.1(34) . . .
32.2(32) . . .
29.8(31) . . .
26.5(27) . . .
31.3(29) . . .
25.5(27) . . .
27.7(28) . . .
27.9(27) . . .
29.1(29) . . .
32.7(31) . . .
24.2(27) . . .
30.3(31) . . .
26.4(27) . . .
39.4(33) . . .
30.4(28) . . .
30.5(30) . . .
34.5(34) . . .
30.0(30) . . .
30.5(29) . . .
35.3(31) . . .
31.8(29) . . .
27.8(29) . . .
26.3(28) . . .
31.8(29) . . .
29.1(28) . . .
29.5(30) . . .
28.6(29) . . .
28.9(30) . . .
29.6(29) . . .
35.0(32) . . .
32.5(33) . . .
25.9(28) . . .
29.5(29) . . .
31.3(29) . . .
29.5(29) . . .
33.4(34) . . .
16.7(20) . . .
29.1(30) . . .
27.7(27) . . .
35.2(32) . . .
27.2(26) . . .
30.1(29) . . .
29.4(28) . . .
34.2(32) . . .
37.1(33) . . .
30.0(30) . . .
29.5(29) . . .
32.9(30) . . .
33.3(30) . . .
36.5(33) . . .
31.7(33) . . .
29.1(30) . . .
27.6(28) . . .
22.9(25) . . .
37.5(33) . . .
34.0(31) . . .
32.4(30) . . .
30.8(29) . . .
35.4(32) . . .
24.5(25) . . .
32.4(32) . . .
30.7(29) . . .
31.0(30) . . .
30.5(29) . . .
35.6(35) . . .
26.3(27) . . .
32.7(31) . . .
32.1(30) . . .
30.2(29) . . .
24.3(30) . . .
27.4(28) . . .
33.4(31) . . .
33.0(30) . . .
28.3(29) . . .
26.6(28) . . .
32.1(32) . . .
33.0(30) . . .
27.7(28) . . .
27.5(27) . . .
25.6(26) . . .
39.1(35) . . .
33.4(30) . . .
40.9(34) . . .
34.3(31) . . .
29.3(29) . . .
36.1(33) . . .
28.4(28) . . .
25.7(27) . . .
26.8(27) . . .
25.4(30) . . .
24.0(28) . . .
31.4(32) . . .
34.8(31) . . .
25.7(28) . . .
38(4) . . .
22.9(25) . . .
26.6(27) . . .
26.1(26) . . .
33.7(34) . . .
23.7(27) . . .
23.8(25) . . .
32.0(30) . . .
32.6(30) . . .
33.1(32) . . .
33.0(31) . . .
27.3(27) . . .
28.6(28) . . .
25.3(28) . . .
27.0(30) . . .
29.9(31) . . .
31.4(30) . . .
25.4(26) . . .
30.3(29) . . .
28.7(28) . . .
27.0(29) . . .
23.0(25) . . .
29.7(29) . . .
21.4(26) . . .
20.4(24) . . .
28.7(30) . . .
29.1(28) . . .
27.1(27) . . .
23.5(27) . . .
23.9(26) . . .
28.0(29) . . .
28.6(29) . . .
21.6(25) . . .
19.8(24) . . .
25.8(31) . . .
30.2(30) . . .
39.0(32) . . .
38.6(33) . . .
29.9(28) . . .
28.3(28) . . .
25.5(27) . . .
24.0(27) . . .
25.8(27) . . .
36.3(33) . . .
29.2(30) . . .
32.0(32) . . .
27.3(31) . . .
28.9(29) . . .
28.0(29) . . .
32.9(32) . . .
37.9(33) . . .
31.8(29) . . .
27.4(27) . . .
28.6(29) . . .
31.1(31) . . .
24.4(28) . . .
27.7(28) . . .
23.2(26) . . .
30.7(33) . . .
25.1(28) . . .
32.8(32) . . .
25.1(27) . . .
28.3(28) . . .
25.3(26) . . .
26.8(29) . . .
28.5(30) . . .
32.6(30) . . .
26.1(27) . . .
31.3(29) . . .
26.7(28) . . .
25.9(26) . . .
29.7(28) . . .
24.0(26) . . .
24.7(28) . . .
33.0(33) . . .
26.0(29) . . .
29.8(28) . . .
24.3(25) . . .
27.5(29) . . .
33.8(33) . . .
33.6(33) . . .
26.8(27) . . .
31.0(29) . . .
25.9(27) . . .
32.5(32) . . .
27.4(28) . . .
40.3(34) . . .
31.6(31) . . .
26.4(30) . . .
19.0(26) . . .
24.4(28) . . .
23.5(25) . . .
22.3(25) . . .
23.8(27) . . .
32.5(33) . . .
27.9(28) . . .
27.3(27) . . .
24.8(27) . . .
30.8(31) . . .
24.5(25) . . .
26.0(27) . . .
32.4(30) . . .
35.7(32) . . .
30.3(29) . . .
27.6(27) . . .
23.1(25) . . .
28.6(28) . . .
30.1(29) . . .
29.0(30) . . .
37.8(33) . . .
27.5(28) . . .
27.9(27) . . .
37.7(33) . . .
34.4(34) . . .
23.8(28) . . .
27.4(28) . . .
26.8(27) . . .
26.2(28) . . .
31.0(33) . . .
39.5(34) . . .
34.2(31) . . .
31.0(30) . . .
25.9(27) . . .
24.8(26) . . .
30.1(29) . . .
31.9(30) . . .
25.1(27) . . .
30.3(30) . . .
27.9(29) . . .
31.0(30) . . .
32.7(29) . . .
29.3(29) . . .
29.1(29) . . .
32.3(32) . . .
25.5(27) . . .
26.5(27) . . .
31.9(30) . . .
34.5(33) . . .
29.7(32) . . .
25.5(28) . . .
32.3(29) . . .
34.6(33) . . .
22.0(26) . . .
25.6(28) . . .
37.6(34) . . .
28.9(28) . . .
37.7(34) . . .
30.7(29) . . .
29.4(30) . . .
30.0(30) . . .
23.0(26) . . .
31.3(34) . . .
25.2(26) . . .
27.3(28) . . .
32.5(31) . . .
29.6(29) . . .
30.1(29) . . .
26.5(28) . . .
22.1(26) . . .
20.9(25) . . .
22.6(26) . . .
30.8(31) . . .
33.8(33) . . .
27.7(29) . . .
25.3(28) . . .
21.8(24) . . .
26.6(28) . . .
29.4(30) . . .
36.6(32) . . .
32.9(30) . . .
29.8(28) . . .
35.0(31) . . .
24.5(26) . . .
28.0(29) . . .
27.3(27) . . .
22.8(26) . . .
29.4(31) . . .
31.3(33) . . .
24.0(28) . . .
25.9(26) . . .
26.2(27) . . .
34.4(32) . . .
19.9(22) . . .
29.2(29) . . .
29.3(28) . . .
23.4(26) . . .
31.0(31) . . .
30.3(31) . . .
24.7(26) . . .
31.2(29) . . .
25.2(27) . . .
26.4(31) . . .
28.6(29) . . .
28.7(30) . . .
27.8(27) . . .
33.8(31) . . .
27.6(28) . . .
34.4(33) . . .
32.5(30) . . .
23.0(25) . . .
28.1(28) . . .
23.5(27) . . .
21.6(25) . . .
27.8(28) . . .
27.4(28) . . .
38(4) . . .
28.4(27) . . .
32.7(32) . . .
27.0(27) . . .
33.9(31) . . .
38.6(32) . . .
33.5(33) . . .
25.9(28) . . .
28.0(27) . . .
29.4(28) . . .
24.9(26) . . .
24.3(27) . . .
33.9(34) . . .
33.3(31) . . .
32.6(31) . . .
35.3(32) . . .
33.6(34) . . .
23.7(26) . . .
35.4(31) . . .
37.7(32) . . .
29.9(29) . . .
29.5(30) . . .
26.9(29) . . .
24.3(26) . . .
25.2(27) . . .
29.2(30) . . .
26.8(28) . . .
31.6(31) . . .
36.9(31) . . .
34.1(30) . . .
30.6(29) . . .
30.0(28) . . .
28.3(30) . . .
26.0(27) . . .
35.7(34) . . .
20.9(24) . . .
29.2(29) . . .
23.0(25) . . .
31.5(30) . . .
32.8(30) . . .
34.1(31) . . .
32.7(30) . . .
29.2(28) . . .
20.6(23) . . .
25.8(27) . . .
28.3(30) . . .
25.1(26) . . .
28.3(32) . . .
32.6(29) . . .
28.5(28) . . .
24.0(28) . . .
26.4(29) . . .
16.8(21) . . .
25.2(27) . . .
37.6(33) . . .
35.2(32) . . .
29.6(28) . . .
28.5(28) . . .
31.9(29) . . .
29.9(30) . . .
25.6(29) . . .
26.9(28) . . .
27.5(29) . . .
27.9(27) . . .
26.1(26) . . .
27.7(28) . . .
29.9(30) . . .
28.5(27) . . .
39.5(35) . . .
31.5(30) . . .
35.8(32) . . .
35.3(32) . . .
27.7(28) . . .
29.2(28) . . .
29.4(30) . . .
21.3(26) . . .
24.1(28) . . .
27.6(28) . . .
25.3(26) . . .
28.1(29) . . .
32.8(32) . . .
27.1(28) . . .
29.2(28) . . .
23.7(26) . . .
28.6(31) . . .
29.0(30) . . .
32.3(30) . . .
35.1(30) . . .
43(4) . . .
36.5(34) . . .
32.1(30) . . .
22.0(25) . . .
24.2(26) . . .
27.7(29) . . .
29.0(28) . . .
32.4(30) . . .
23.1(25) . . .
26.3(27) . . .
34.7(32) . . .
27.9(27) . . .
35.7(33) . . .
24.1(26) . . .
29.6(29) . . .
37.2(33) . . .
31.9(32) . . .
32.5(32) . . .
34.6(31) . . .
29.7(29) . . .
37.2(34) . . .
28.3(30) . . .
30.3(30) . . .
28.6(28) . . .
22.2(24) . . .
26.4(27) . . .
27.2(31) . . .
29.7(30) . . .
35.6(33) . . .
32.3(29) . . .
28.1(28) . . .
27.0(29) . . .
22.7(25) . . .
30.3(28) . . .
25.4(29) . . .
24.0(27) . . .
31.5(32) . . .
27.4(29) . . .
25.7(27) . . .
29.5(30) . . .
33.6(32) . . .
29.7(30) . . .
26.2(29) . . .
31.6(29) . . .
26.4(29) . . .
25.3(30) . . .
24.4(29) . . .
22.1(24) . . .
25.1(26) . . .
31.0(29) . . .
28.2(27) . . .
30.8(31) . . .
25.9(27) . . .
30.6(29) . . .
29.9(28) . . .
28.5(30) . . .
26.7(28) . . .
32.0(29) . . .
30.1(29) . . .
30.8(29) . . .
26.7(27) . . .
25.1(27) . . .
25.3(27) . . .
32.5(31) . . .
27.9(29) . . .
27.4(29) . . .
27.9(29) . . .
22.6(25) . . .
26.0(26) . . .
31.3(30) . . .
26.0(28) . . .
28.0(29) . . .
34.2(32) . . .
31.2(29) . . .
29.7(31) . . .
31.0(31) . . .
28.9(31) . . .
24.1(25) . . .
29.9(29) . . .
33.4(32) . . .
26.2(28) . . .
30.9(31) . . .
29.4(29) . . .
31.4(29) . . .
30.8(29) . . .
29.9(29) . . .
32.9(32) . . .
32.6(30) . . .
24.6(27) . . .
27.8(29) . . .
27.9(29) . . .
28.6(29) . . .
28.6(28) . . .
30.3(29) . . .
22.4(24) . . .
25.5(28) . . .
26.6(27) . . .
31.0(30) . . .
39.0(33) . . .
27.7(30) . . .
29.5(31) . . .
28.1(28) . . .
31.0(29) . . .
28.7(28) . . .
31.0(29) . . .
30.7(30) . . .
25.5(27) . . .
28.2(28) . . .
31.3(31) . . .
28.6(31) . . .
20.0(23) . . .
30.4(29) . . .
22.4(24) . . .
33.5(33) . . .
32.1(31) . . .
35.0(32) . . .
35.4(32) . . .
24.8(26) . . .
33.5(33) . . .
30.0(30) . . .
28.8(29) . . .
28.5(27) . . .
32.1(30) . . .
34.5(31) . . .
33(4) . . .
26.7(27) . . .
43(4) . . .
30.4(28) . . .
29.1(29) . . .
30.8(31) . . .
35.6(32) . . .
27.5(27) . . .
25.3(27) . . .
27.5(29) . . .
35.9(33) . . .
25.3(26) . . .
36.3(31) . . .
25.7(27) . . .
27.4(29) . . .
32.8(29) . . .
29.8(29) . . .
23.1(25) . . .
32.5(31) . . .
30.8(30) . . .
30.5(28) . . .
29.4(29) . . .
28.2(28) . . .
27.4(27) . . .
36(4) . . .
26.4(30) . . .
33.4(31) . . .
33.0(30) . . .
26.7(28) . . .
30.8(32) . . .
30.0(31) . . .
21.8(24) . . .
28.3(28) . . .
27.3(27) . . .
30.0(31) . . .
28.9(31) . . .
26.9(27) . . .
28.5(28) . . .
25.7(32) . . .
27.7(31) . . .
25.5(26) . . .
33.9(30) . . .
36.0(31) . . .
34.9(31) . . .
31.0(31) . . .
43(4) . . .
26.9(27) . . .
22.0(24) . . .
30.0(30) . . .
23.1(27) . . .
27.4(27) . . .
28.0(27) . . .
32.5(32) . . .
28.5(29) . . .
31.4(32) . . .
34.8(34) . . .
29.1(28) . . .
25.7(27) . . .
31.9(30) . . .
26.4(27) . . .
27.1(28) . . .
25.1(26) . . .
20.9(24) . . .
27.3(28) . . .
27.8(28) . . .
34.4(31) . . .
34.2(31) . . .
34.9(31) . . .
23.5(26) . . .
27.3(28) . . .
27.0(27) . . .
30.6(29) . . .
25.5(27) . . .
29.9(30) . . .
32.6(30) . . .
30.7(30) . . .
27.7(28) . . .
25.6(28) . . .
30.4(30) . . .
29.9(30) . . .
26.5(27) . . .
19.5(23) . . .
26.9(28) . . .
31.7(29) . . .
35.6(34) . . .
28.5(30) . . .
30.0(29) . . .
19.2(24) . . .
26.6(30) . . .
29.0(29) . . .
29.1(28) . . .
29.9(28) . . .
42(4) . . .
33.8(33) . . .
28.8(30) . . .
23.0(27) . . .
22.1(25) . . .
22.5(27) . . .
29.6(32) . . .
30.9(30) . . .
34.0(31) . . .
40.5(34) . . .
40.4(34) . . .
38.6(34) . . .
31.2(31) . . .
29.1(28) . . .
26.4(26) . . .
24.5(26) . . .
21.8(26) . . .
27.3(27) . . .
33.5(30) . . .
30.2(31) . . .
33.7(32) . . .
35.3(34) . . .
28.7(30) . . .
24.6(26) . . .
23.2(26) . . .
29.8(31) . . .
22.0(25) . . .
28.8(29) . . .
39.1(33) . . .
32.8(30) . . .
26.5(28) . . .
30.2(32) . . .
29.5(29) . . .
28.6(28) . . .
29.3(29) . . .
29.4(32) . . .
28.0(29) . . .
30.0(29) . . .
37.3(32) . . .
32.2(30) . . .
23.7(27) . . .
33.2(34) . . .
29.5(29) . . .
33.3(30) . . .
36.5(33) . . .
30.3(31) . . .
31.6(30) . . .
37.8(32) . . .
30.7(29) . . .
32.4(30) . . .
25.0(28) . . .
32.2(31) . . .
32.5(29) . . .
26.2(26) . . .
31.7(31) . . .
27.8(28) . . .
29.2(29) . . .
34.7(30) . . .
36.0(32) . . .
21.3(24) . . .
27.0(28) . . .
26.7(28) . . .
30.3(30) . . .
36.9(32) . . .
23.9(26) . . .
23.3(24) . . .
30.3(30) . . .
30.8(29) . . .
31.4(31) . . .
37.9(33) . . .
29.6(31) . . .
25.9(28) . . .
32.4(29) . . .
32.5(29) . . .
25.4(27) . . .
23.0(26) . . .
39(4) . . .
22.9(26) . . .
35.3(32) . . .
39(4) . . .
31.3(31) . . .
27.0(27) . . .
27.0(28) . . .
30.5(30) . . .
21.5(25) . . .
19.9(22) . . .
31.9(31) . . .
24.7(26) . . .
25.8(27) . . .
27.6(28) . . .
20.1(24) . . .
26.8(27) . . .
25.3(26) . . .
24.9(29) . . .
29.4(31) . . .
32.0(32) . . .
40.6(34) . . .
28.5(27) . . .
25.3(28) . . .
33.5(33) . . .
31.9(32) . . .
27.1(27) . . .
29.8(29) . . .
31.3(31) . . .
32.9(31) . . .
32.3(31) . . .
27.4(27) . . .
30.8(30) . . .
34.6(34) . . .
36(4) . . .
23.7(26) . . .
30.2(31) . . .
28.2(27) . . .
27.4(28) . . .
29.9(32) . . .
32.2(32) . . .
25.3(26) . . .
29.3(28) . . .
29.0(30) . . .
27.7(30) . . .
29.7(30) . . .
20.7(24) . . .
29.6(28) . . .
27.1(29) . . .
30.5(30) . . .
23.6(25) . . .
31.2(29) . . .
24.1(27) . . .
28.8(31) . . .
32.4(30) . . .
31.5(31) . . .
28.8(28) . . .
37.5(34) . . .
28.5(29) . . .
21.9(25) . . .
25.6(26) . . .
29.3(28) . . .
27.6(28) . . .
30.9(32) . . .
27.3(28) . . .
27.9(28) . . .
31.3(29) . . .
29.8(28) . . .
29.3(29) . . .
27.0(26) . . .
26.4(28) . . .
26.5(27) . . .
25.8(29) . . .
26.0(28) . . .
28.1(28) . . .
27.9(28) . . .
34.0(30) . . .
31.1(29) . . .
34.6(32) . . .
33.0(33) . . .
23.0(25) . . .
28.7(29) . . .
26.5(27) . . .
25.2(29) . . .
27.3(30) . . .
26.6(27) . . .
25.7(27) . . .
24.7(27) . . .
24.4(27) . . .
27.5(30) . . .
26.3(26) . . .
38.0(32) . . .
24.9(26) . . .
32.1(31) . . .
29.1(29) . . .
26.1(28) . . .
30.5(29) . . .
20.2(24) . . .
28.6(30) . . .
25.8(27) . . .
28.1(28) . . .
28.8(29) . . .
17.5(22) . . .
30.3(32) . . .
19.5(27) . . .
19.8(24) . . .
33.8(30) . . .
32.7(31) . . .
32.8(31) . . .
30.4(29) . . .
23.5(26) . . .
35.5(34) . . .
28.0(31) . . .
29.1(30) . . .
31.5(29) . . .
28.2(28) . . .
25.9(27) . . .
26.2(29) . . .
33.9(32) . . .
28.3(29) . . .
27.8(27) . . .
28.9(30) . . .
29.3(30) . . .
25.6(28) . . .
30.3(30) . . .
26.9(26) . . .
25.6(27) . . .
20.2(24) . . .
30.9(31) . . .
23.9(26) . . .
27.4(27) . . .
22.8(26) . . .
28.0(30) . . .
36.5(34) . . .
24.4(26) . . .
29.8(29) . . .
30.4(30) . . .
35.2(34) . . .
31.1(30) . . .
30.2(28) . . .
29.4(29) . . .
34.3(31) . . .
29.5(31) . . .
22.7(26) . . .
22.2(25) . . .
26.3(28) . . .
30.5(30) . . .
29.0(29) . . .
35.3(35) . . .
33.2(30) . . .
28.7(30) . . .
31.3(32) . . .
28.7(30) . . .
36.0(33) . . .
36.5(32) . . .
22.8(25) . . .
31.0(30) . . .
38.3(34) . . .
29.0(28) . . .
26.9(28) . . .
27.0(27) . . .
30.3(29) . . .
30.1(29) . . .
30.7(29) . . .
30.7(29) . . .
37.6(34) . . .
33.2(30) . . .
38.4(33) . . .
32.7(30) . . .
37.0(31) . . .
32.2(30) . . .
26.7(29) . . .
32.5(32) . . .
31.2(29) . . .
30.2(29) . . .
29.3(28) . . .
24.5(26) . . .
24.6(27) . . .
21.9(24) . . .
29.9(29) . . .
29.2(29) . . .
26.0(28) . . .
26.0(28) . . .
29.5(28) . . .
31.1(29) . . .
28.8(29) . . .
28.8(31) . . .
21.5(25) . . .
30.7(29) . . .
28.4(28) . . .
32.8(33) . . .
19.9(24) . . .
22.1(25) . . .
23.3(25) . . .
26.5(26) . . .
21.6(24) . . .
30.9(32) . . .
23.6(25) . . .
33.7(31) . . .
32.0(29) . . .
32.7(31) . . .
27.8(28) . . .
25.8(26) . . .
26.9(27) . . .
29.0(28) . . .
24.6(26) . . .
26.7(27) . . .
31.0(30) . . .
25.8(27) . . .
28.2(28) . . .
29.2(29) . . .
25.4(27) . . .
26.3(28) . . .
30.1(29) . . .
25.9(27) . . .
27.2(29) . . .
26.9(29) . . .
26.2(27) . . .
22.5(25) . . .
30.2(29) . . .
32.9(32) . . .
28.0(29) . . .
33.2(31) . . .
35.8(31) . . .
27.1(27) . . .
20.5(23) . . .
29.8(30) . . .
30.9(30) . . .
25.7(26) . . .
33.3(31) . . .
28.3(30) . . .
36.7(35) . . .
30.1(29) . . .
27.7(27) . . .
31.7(32) . . .
28.8(29) . . .
31.4(30) . . .
33.5(30) . . .
36.4(31) . . .
28.4(28) . . .
29.6(32) . . .
25.6(29) . . .
31.4(29) . . .
26.2(28) . . .
28.4(29) . . .
25.9(29) . . .
30.9(29) . . .
27.0(28) . . .
31.4(30) . . .
27.7(31) . . .
27.3(30) . . .
32.1(30) . . .
29.1(29) . . .
35.2(31) . . .
40(4) . . .
32.4(32) . . .
33.3(33) . . .
20.7(24) . . .
27.6(27) . . .
22.4(26) . . .
30.2(31) . . .
29.8(28) . . .
31.9(30) . . .
25.2(26) . . .
23.6(25) . . .
35.6(33) . . .
36.8(32) . . .
31.3(29) . . .
38(4) . . .
30.9(29) . . .
30.8(30) . . .
32.5(31) . . .
24.2(25) . . .
25.6(27) . . .
31.0(31) . . .
29.3(28) . . .
27.0(27) . . .
29.8(29) . . .
27.8(29) . . .
21.0(25) . . .
22.5(26) . . .
29.0(29) . . .
33.7(31) . . .
23.1(26) . . .
24.7(29) . . .
34.2(31) . . .
37.4(32) . . .
27.0(27) . . .
28.2(28) . . .
27.9(29) . . .
33.9(31) . . .
29.1(29) . . .
38.4(33) . . .
28.7(28) . . .
28.2(31) . . .
19.5(23) . . .
30.4(29) . . .
28.1(27) . . .
29.2(30) . . .
30.6(32) . . .
27.0(27) . . .
24.2(26) . . .
26.1(26) . . .
22.2(25) . . .
25.9(28) . . .
23.3(28) . . .
26.6(27) . . .
30.3(29) . . .
24.9(28) . . .
30.5(32) . . .
30.8(32) . . .
31.8(29) . . .
26.7(29) . . .
20.8(23) . . .
29.0(28) . . .
29.8(29) . . .
30.9(29) . . .
28.5(30) . . .
32.6(33) . . .
27.8(28) . . .
24.0(26) . . .
22.0(24) . . .
25.0(27) . . .
30.3(31) . . .
28.2(29) . . .
36.1(32) . . .
23.9(26) . . .
24.4(26) . . .
27.7(30) . . .
25.0(27) . . .
31.0(29) . . .
25.4(28) . . .
30.7(31) . . .
29.3(31) . . .
25.7(29) . . .
33.0(30) . . .
27.8(27) . . .
34.0(32) . . .
29.8(29) . . .
25.4(27) . . .
26.3(27) . . .
24.0(25) . . .
35.7(31) . . .
31.5(30) . . .
26.0(27) . . .
32.0(29) . . .
30.1(29) . . .
31.4(30) . . .
24.0(26) . . .
30.3(30) . . .
28.6(29) . . .
36.0(32) . . .
27.5(28) . . .
24.8(26) . . .
22.0(25) . . .
32.5(30) . . .
31.0(30) . . .
32.9(33) . . .
26.2(27) . . .
27.7(27) . . .
28.8(28) . . .
32.0(33) . . .
25.6(28) . . .
25.5(28) . . .
30.4(30) . . .
29.4(29) . . .
30.9(30) . . .
36.5(32) . . .
24.0(28) . . .
23.2(26) . . .
29.2(28) . . .
38.0(34) . . .
27.8(28) . . .
30.3(29) . . .
31.0(29) . . .
23.2(25) . . .
20.5(27) . . .
28.9(30) . . .
22.5(24) . . .
31.0(31) . . .
30.5(28) . . .
27.6(28) . . .
24.6(26) . . .
26.9(29) . . .
22.8(25) . . .
33.6(30) . . .
28.0(28) . . .
26.9(32) . . .
28.0(28) . . .
31.5(30) . . .
33.0(30) . . .
27.0(28) . . .
28.6(28) . . .
35.2(31) . . .
25.2(26) . . .
36.2(31) . . .
33.0(32) . . .
28.5(30) . . .
31.0(30) . . .
30.7(29) . . .
32.0(30) . . .
29.4(30) . . .
32.2(31) . . .
34.4(32) . . .
29.6(28) . . .
26.3(26) . . .
26.7(27) . . .
35.1(33) . . .
29.0(28) . . .
30.2(29) . . .
31.4(29) . . .
26.6(26) . . .
29.5(30) . . .
25.7(26) . . .
24.4(26) . . .
30.7(29) . . .
30.4(31) . . .
27.5(30) . . .
28.7(30) . . .
35.7(32) . . .
29.5(29) . . .
30.6(33) . . .
29.4(30) . . .
35.6(31) . . .
27.2(28) . . .
28.5(29) . . .
29.8(31) . . .
32.6(33) . . .
27.5(29) . . .
31.8(30) . . .
27.5(28) . . .
29.0(29) . . .
30.4(30) . . .
26.1(27) . . .
25.6(26) . . .
34.5(31) . . .
32.6(32) . . .
26.1(27) . . .
25.3(27) . . .
19.0(22) . . .
31.8(30) . . .
29.7(30) . . .
25.7(27) . . .
30.9(29) . . .
30.5(29) . . .
35.9(32) . . .
28.8(29) . . .
25.5(27) . . .
27.6(28) . . .
26.7(27) . . .
29.4(28) . . .
29.8(30) . . .
26.8(27) . . .
30.8(29) . . .
29.1(28) . . .
24.1(27) . . .
24.7(28) . . .
25.0(27) . . .
27.8(28) . . .
33.5(30) . . .
27.0(27) . . .
25.2(28) . . .
23.2(25) . . .
25.3(27) . . .
26.7(30) . . .
32.1(32) . . .
29.8(29) . . .
32.4(31) . . .
30.2(28) . . .
30.6(30) . . .
27.9(29) . . .
30.9(31) . . .
22.8(25) . . .
29.8(29) . . .
23.7(25) . . .
28.0(29) . . .
23.8(26) . . .
23.1(25) . . .
36.4(31) . . .
37.6(34) . . .
27.3(29) . . .
31.0(30) . . .
35.0(31) . . .
33.1(30) . . .
30.5(30) . . .
21.5(26) . . .
27.3(28) . . .
37.6(32) . . .
26.2(29) . . .
22.5(25) . . .
33.3(31) . . .
30.5(29) . . .
41.2(33) . . .
25.0(26) . . .
25.8(29) . . .
29.0(30) . . .
30.5(29) . . .
29.1(28) . . .
28.3(28) . . .
21.8(26) . . .
29.1(30) . . .
36.7(32) . . .
33.1(30) . . .
25.8(26) . . .
31.1(31) . . .
27.1(30) . . .
27.6(29) . . .
25.1(27) . . .
26.8(27) . . .
28.4(30) . . .
30.3(30) . . .
29.1(29) . . .
31.7(30) . . .
32.2(32) . . .
28.4(29) . . .
32.3(30) . . .
31.4(29) . . .
31.0(30) . . .
32.4(31) . . .
20.6(26) . . .
22.0(26) . . .
23.9(26) . . .
34.4(30) . . .
33.0(30) . . .
31.8(33) . . .
33.8(33) . . .
31.7(31) . . .
31.4(29) . . .
25.6(28) . . .
29.4(31) . . .
33.8(32) . . .
26.2(28) . . .
25.4(27) . . .
25.5(30) . . .
24.4(29) . . .
23.0(27) . . .
24.1(26) . . .
23.3(26) . . .
29.7(30) . . .
25.3(30) . . .
22.4(25) . . .
35.1(31) . . .
36.6(32) . . .
26.7(27) . . .
34.5(33) . . .
29.4(29) . . .
25.8(26) . . .
23.9(25) . . .
24.5(27) . . .
27.5(29) . . .
26.9(29) . . .
26.1(27) . . .
24.7(26) . . .
34.7(33) . . .
27.3(28) . . .
30.8(30) . . .
25.6(27) . . .
24.9(26) . . .
25.3(28) . . .
29.0(31) . . .
28.0(27) . . .
26.7(27) . . .
32.5(29) . . .
24.8(25) . . .
27.5(28) . . .
24.6(26) . . .
28.0(28) . . .
34.7(32) . . .
32.4(32) . . .
22.3(25) . . .
28.4(29) . . .
26.6(27) . . .
22.3(25) . . .
27.4(29) . . .
27.0(31) . . .
26.2(27) . . .
25.3(27) . . .
30.7(30) . . .
34.7(33) . . .
29.6(32) . . .
26.5(27) . . .
31.1(29) . . .
21.0(23) . . .
26.7(28) . . .
31.8(30) . . .
34.9(31) . . .
24.1(25) . . .
27.6(28) . . .
22.8(27) . . .
29.0(29) . . .
24.5(26) . . .
31.1(29) . . .
29.0(31) . . .
29.0(31) . . .
30.8(29) . . .
31.8(30) . . .
30.5(30) . . .
26.5(28) . . .
26.4(30) . . .
22.9(26) . . .
30.9(29) . . .
35.1(31) . . .
33.9(31) . . .
34.3(33) . . .
30.5(31) . . .
33.2(30) . . .
24.0(25) . . .
25.5(27) . . .
30.0(31) . . .
30.1(30) . . .
30.2(28) . . .
33.2(31) . . .
34.1(31) . . .
35.3(32) . . .
32.3(30) . . .
29.8(28) . . .
26.5(28) . . .
26.5(29) . . .
25.5(26) . . .
38.3(33) . . .
38.9(33) . . .
28.3(28) . . .
35.6(32) . . .
33.3(31) . . .
26.6(27) . . .
33.3(30) . . .
30.1(33) . . .
32.3(33) . . .
29.3(29) . . .
24.3(26) . . .
32.3(30) . . .
28.9(30) . . .
24.3(28) . . .
27.5(30) . . .
27.6(28) . . .
30.0(29) . . .
27.3(28) . . .
30.9(32) . . .
30.6(29) . . .
25.8(27) . . .
33.2(30) . . .
23.1(25) . . .
32.5(35) . . .
34.8(31) . . .
27.5(27) . . .
28.7(28) . . .
29.9(30) . . .
28.2(29) . . .
28.3(28) . . .
26.4(28) . . .
29.4(29) . . .
23.0(26) . . .
25.1(28) . . .
33.2(33) . . .
26.5(27) . . .
19.5(23) . . .
29.7(29) . . .
34.6(32) . . .
25.2(27) . . .
25.0(27) . . .
30.0(28) . . .
32.6(31) . . .
29.7(31) . . .
29.7(30) . . .
34.4(31) . . .
24.3(25) . . .
26.4(30) . . .
31.3(32) . . .
22.4(24) . . .
31.1(30) . . .
35.3(33) . . .
27.2(28) . . .
34.4(32) . . .
29.1(29) . . .
28.7(27) . . .
36.5(33) . . .
28.5(29) . . .
37.0(34) . . .
28.2(29) . . .
31.7(29) . . .
28.5(29) . . .
26.8(30) . . .
26.6(29) . . .
26.4(27) . . .
28.0(27) . . .
30.0(29) . . .
33.3(32) . . .
31.9(31) . . .
28.3(28) . . .
28.6(28) . . .
27.8(28) . . .
18.5(23) . . .
25.9(27) . . .
29.5(28) . . .
25.5(26) . . .
24.5(26) . . .
29.7(31) . . .
23.6(25) . . .
26.4(27) . . .
29.0(28) . . .
25.5(28) . . .
23.9(28) . . .
24.0(26) . . .
25.2(26) . . .
22.5(24) . . .
21.6(24) . . .
25.2(27) . . .
25.5(28) . . .
22.5(24) . . .
25.5(26) . . .
30.9(30) . . .
26.6(27) . . .
30.8(31) . . .
25.5(27) . . .
24.3(27) . . .
25.8(27) . . .
33.1(31) . . .
32.7(32) . . .
26.6(27) . . .
29.2(29) . . .
26.9(29) . . .
25.3(28) . . .
30.6(29) . . .
22.7(25) . . .
30.1(29) . . .
33.2(31) . . .
25.8(27) . . .
26.9(27) . . .
27.9(27) . . .
32.0(30) . . .
27.5(27) . . .
30.0(29) . . .
28.1(28) . . .
26.7(27) . . .
20.5(25) . . .
23.6(27) . . .
28.6(28) . . .
27.6(28) . . .
24.4(26) . . .
29.0(29) . . .
26.5(28) . . .
27.2(28) . . .
19.0(23) . . .
26.0(26) . . .
33.1(31) . . .
29.6(30) . . .
27.2(29) . . .
29.1(28) . . .
30.9(29) . . .
31.6(30) . . .
34.5(33) . . .
28.7(29) . . .
29.6(28) . . .
30.4(28) . . .
26.4(27) . . .
27.9(30) . . .
31.5(31) . . .
34.0(31) . . .
27.4(28) . . .
30.7(31) . . .
28.5(30) . . .
37.8(33) . . .
29.5(28) . . .
28.2(28) . . .
24.8(27) . . .
24.3(27) . . .
25.1(26) . . .
25.1(26) . . .
25.0(27) . . .
26.5(26) . . .
22.8(24) . . .
26.8(27) . . .
40.6(34) . . .
32.1(31) . . .
36.1(35) . . .
35.0(33) . . .
26.7(28) . . .
31.2(29) . . .
22.7(25) . . .
19.6(25) . . .
25.0(27) . . .
32.0(30) . . .
24.6(26) . . .
33.1(30) . . .
37.3(33) . . .
31.7(30) . . .
33.5(31) . . .
16.8(21) . . .
27.9(32) . . .
25.7(29) . . .
32.8(31) . . .
31.4(31) . . .
29.5(29) . . .
24.7(25) . . .
26.8(28) . . .
29.0(30) . . .
20.6(24) . . .
27.0(27) . . .
28.6(31) . . .
35(4) . . .
23.4(27) . . .
25.9(26) . . .
32.0(29) . . .
25.6(28) . . .
26.5(29) . . .
25.5(28) . . .
31.1(29) . . .
32.3(30) . . .
30.4(30) . . .
26.2(27) . . .
28.6(29) . . .
27.9(28) . . .
26.4(26) . . .
37(4) . . .
22.5(25) . . .
29.4(29) . . .
19.5(23) . . .
28.9(28) . . .
33.2(31) . . .
28.1(28) . . .
37.3(33) . . .
35.6(32) . . .
33.1(33) . . .
34.0(33) . . .
27.5(28) . . .
22.9(25) . . .
32.3(30) . . .
30.8(29) . . .
29.5(29) . . .
24.3(26) . . .
25.4(26) . . .
32.4(30) . . .
27.6(28) . . .
32.3(33) . . .
27.7(27) . . .
29.5(28) . . .
32.5(30) . . .
38.4(32) . . .
31.4(30) . . .
27.4(27) . . .
28.5(28) . . .
30.5(30) . . .
32.8(31) . . .
32.6(33) . . .
26.6(31) . . .
23.4(25) . . .
29.6(28) . . .
26.5(27) . . .
31.9(32) . . .
22.8(25) . . .
32.0(30) . . .
21.4(25) . . .
30.9(32) . . .
33.4(32) . . .
27.0(28) . . .
28.1(28) . . .
23.7(27) . . .
31.3(31) . . .
27.2(29) . . .
24.4(27) . . .
32.1(30) . . .
27.0(29) . . .
28.9(30) . . .
33.5(32) . . .
35.4(33) . . .
22.1(25) . . .
32.3(31) . . .
25.3(27) . . .
28.8(28) . . .
31.0(30) . . .
24.4(26) . . .
27.4(29) . . .
27.3(27) . . .
32.2(30) . . .
32.0(29) . . .
29.8(29) . . .
29.6(31) . . .
29.0(31) . . .
26.6(28) . . .
27.1(29) . . .
29.6(28) . . .
27.7(28) . . .
30.9(31) . . .
30.2(29) . . .
23.3(25) . . .
25.4(26) . . .
25.0(26) . . .
27.1(27) . . .
31.7(29) . . .
29.4(28) . . .
20.2(23) . . .
18.1(22) . . .
29.4(31) . . .
31.3(32) . . .
28.9(28) . . .
26.4(28) . . .
24.9(27) . . .
30.8(31) . . .
25.5(27) . . .
23.0(25) . . .
25.1(26) . . .
26.2(29) . . .
27.1(28) . . .
32.4(31) . . .
29.5(29) . . .
26.2(27) . . .
32.3(31) . . .
33.0(31) . . .
22.4(24) . . .
31.6(30) . . .
27.0(27) . . .
30.4(32) . . .
28.2(29) . . .
27.2(27) . . .
28.4(27) . . .
29.4(30) . . .
26.5(28) . . .
27.3(28) . . .
23.9(28) . . .
21.8(24) . . .
24.1(25) . . .
34.7(32) . . .
31.5(29) . . .
29.1(30) . . .
26.8(27) . . .
28.2(29) . . .
23.0(27) . . .
25.3(27) . . .
35.0(32) . . .
38.8(33) . . .
28.8(29) . . .
33.4(33) . . .
23.2(26) . . .
26.8(27) . . .
27.5(28) . . .
33.3(31) . . .
36(4) . . .
34.7(32) . . .
35.3(31) . . .
33.0(31) . . .
29.7(31) . . .
30.8(32) . . .
30.2(29) . . .
28.8(28) . . .
26.6(27) . . .
25.1(28) . . .
32.3(34) . . .
34.6(33) . . .
27.3(27) . . .
29.0(29) . . .
26.8(28) . . .
26.6(27) . . .
31.9(31) . . .
27.0(27) . . .
27.6(29) . . .
28.9(31) . . .
27.2(30) . . .
26.8(28) . . .
25.1(26) . . .
26.6(27) . . .
29.6(30) . . .
20.8(24) . . .
28.2(29) . . .
26.0(27) . . .
28.1(28) . . .
29.5(29) . . .
29.7(30) . . .
25.1(26) . . .
25.6(27) . . .
28.4(29) . . .
27.3(29) . . .
27.9(28) . . .
30.3(29) . . .
31.7(29) . . .
25.7(28) . . .
31.1(31) . . .
30.6(30) . . .
22.0(25) . . .
29.3(28) . . .
28.2(29) . . .
29.1(30) . . .
32.0(31) . . .
29.4(29) . . .
26.7(27) . . .
26.3(27) . . .
23.9(28) . . .
25.3(28) . . .
26.4(27) . . .
38.2(32) . . .
35.6(31) . . .
36.5(32) . . .
34.2(30) . . .
37.0(31) . . .
30.8(29) . . .
31.2(30) . . .
37.0(34) . . .
33.1(33) . . .
26.0(27) . . .
24.1(26) . . .
24.3(27) . . .
24.5(27) . . .
25.6(28) . . .
23.9(25) . . .
23.5(27) . . .
31.8(31) . . .
27.5(27) . . .
34.3(32) . . .
34.7(31) . . .
29.5(29) . . .
31.9(30) . . .
29.1(28) . . .
25.4(27) . . .
30.1(29) . . .
29.6(28) . . .
33.6(31) . . .
30.9(31) . . .
23.5(27) . . .
23.7(26) . . .
29.0(29) . . .
25.9(28) . . .
25.3(27) . . .
33.6(31) . . .
27.8(28) . . .
31.8(30) . . .
34.2(34) . . .
27.0(31) . . .
28.6(28) . . .
36.6(32) . . .
29.1(29) . . .
36.2(34) . . .
27.7(29) . . .
26.0(28) . . .
28.6(28) . . .
33.5(31) . . .
22.1(25) . . .
36.2(34) . . .
34.2(30) . . .
25.4(27) . . .
25.2(26) . . .
25.9(30) . . .
33.3(31) . . .
33.3(30) . . .
24.4(27) . . .
25.4(28) . . .
33.0(34) . . .
26.8(27) . . .
28.2(28) . . .
32.8(29) . . .
31.6(30) . . .
22.4(25) . . .
31.2(30) . . .
29.5(29) . . .
30.7(29) . . .
26.1(27) . . .
25.5(28) . . .
22.4(25) . . .
39.3(33) . . .
28.4(28) . . .
27.4(29) . . .
26.5(28) . . .
27.6(28) . . .
28.0(28) . . .
29.2(28) . . .
29.4(29) . . .
26.4(27) . . .
29.3(29) . . .
29.4(28) . . .
35.7(33) . . .
28.2(28) . . .
24.5(26) . . .
27.4(28) . . .
32.1(31) . . .
26.8(28) . . .
31.8(32) . . .
22.7(26) . . .
21.0(24) . . .
30.6(29) . . .
26.6(28) . . .
23.9(28) . . .
32.0(31) . . .
23.7(27) . . .
26.0(27) . . .
27.5(28) . . .
25.1(29) . . .
26.8(30) . . .
23.9(26) . . .
34.3(30) . . .
24.6(27) . . .
31.3(32) . . .
31.6(32) . . .
16.5(22) . . .
27.4(27) . . .
25.3(26) . . .
33.6(34) . . .
32.9(32) . . .
30.8(29) . . .
29.2(29) . . .
24.7(27) . . .
30.5(31) . . .
32.8(33) . . .
35.7(31) . . .
26.8(27) . . .
26.5(29) . . .
31.6(32) . . .
28.0(30) . . .
33.4(30) . . .
21.4(24) . . .
27.5(27) . . .
27.6(28) . . .
27.1(29) . . .
30.8(30) . . .
30.3(28) . . .
28.6(29) . . .
31.9(31) . . .
26.2(30) . . .
35.8(31) . . .
34.2(33) . . .
29.6(29) . . .
31.4(29) . . .
27.1(27) . . .
31.1(29) . . .
30.4(29) . . .
32.9(33) . . .
24.3(26) . . .
37.2(33) . . .
29.9(30) . . .
26.1(28) . . .
27.1(29) . . .
27.4(28) . . .
26.7(27) . . .
31.8(29) . . .
30.4(29) . . .
27.6(30) . . .
28.2(29) . . .
29.5(29) . . .
33.9(30) . . .
33.5(31) . . .
20.2(22) . . .
28.9(28) . . .
28.6(28) . . .
29.8(28) . . .
27.8(29) . . .
34.4(34) . . .
28.6(29) . . .
27.0(27) . . .
31.0(29) . . .
26.6(28) . . .
27.8(28) . . .
38(4) . . .
32.6(29) . . .
28.7(28) . . .
25.2(27) . . .
22.7(26) . . .
23.1(26) . . .
24.2(26) . . .
29.3(28) . . .
29.1(28) . . .
25.9(28) . . .
29.3(29) . . .
26.3(27) . . .
31.2(29) . . .
24.3(27) . . .
24.9(29) . . .
21.1(24) . . .
25.5(27) . . .
29.1(28) . . .
35.9(32) . . .
27.9(27) . . .
30.7(31) . . .
26.7(27) . . .
25.8(27) . . .
28.7(31) . . .
29.5(29) . . .
30.9(29) . . .
30.4(29) . . .
29.8(28) . . .
38(4) . . .
33.1(32) . . .
31.0(29) . . .
29.6(29) . . .
27.7(27) . . .
33.5(33) . . .
36.3(32) . . .
35.1(32) . . .
28.9(28) . . .
36.3(32) . . .
32.7(32) . . .
28.9(29) . . .
28.6(28) . . .
31.0(29) . . .
28.0(29) . . .
29.6(32) . . .
26.6(28) . . .
35.5(33) . . .
33.3(31) . . .
25.1(27) . . .
20.8(25) . . .
22.8(26) . . .
30.6(30) . . .
23.0(25) . . .
30.0(31) . . .
24.5(29) . . .
30.5(29) . . .
25.8(26) . . .
28.2(28) . . .
27.2(28) . . .
30.3(31) . . .
25.4(27) . . .
28.7(29) . . .
26.1(26) . . .
30.2(30) . . .
29.9(30) . . .
31.0(31) . . .
35.9(31) . . .
37.7(32) . . .
28.5(28) . . .
25.7(29) . . .
25.2(27) . . .
25.4(27) . . .
25.7(27) . . .
25.8(28) . . .
35.3(34) . . .
29.1(28) . . .
30.9(29) . . .
27.7(30) . . .
29.7(29) . . .
30.1(31) . . .
26.5(28) . . .
28.4(28) . . .
25.5(27) . . .
36.0(32) . . .
30.6(29) . . .
26.8(27) . . .
24.6(26) . . .
29.9(30) . . .
28.2(32) . . .
26.1(28) . . .
25.0(27) . . .
27.7(27) . . .
29.1(30) . . .
27.4(29) . . .
31.1(30) . . .
27.4(27) . . .
26.0(27) . . .
31.2(32) . . .
31.1(32) . . .
20.2(24) . . .
28.7(28) . . .
22.7(25) . . .
31.7(31) . . .
34.3(33) . . .
27.2(27) . . .
32.2(30) . . .
24.8(28) . . .
26.4(28) . . .
30.2(31) . . .
23.1(26) . . .
24.6(26) . . .
25.3(27) . . .
26.2(29) . . .
28.4(30) . . .
35.2(32) . . .
26.4(27) . . .
29.3(31) . . .
30.3(32) . . .
33.6(34) . . .
23.8(26) . . .
24.5(26) . . .
31.1(31) . . .
32.3(30) . . .
31.6(31) . . .
33.4(32) . . .
26.5(27) . . .
30.7(30) . . .
40(4) . . .
34.4(33) . . .
25.4(29) . . .
30.9(29) . . .
27.0(28) . . .
31.4(32) . . .
28.5(29) . . .
29.3(28) . . .
31.9(29) . . .
26.6(28) . . .
35.7(34) . . .
32.7(31) . . .
24.7(26) . . .
31.3(29) . . .
30.7(29) . . .
28.5(32) . . .
26.1(28) . . .
27.8(27) . . .
22.7(24) . . .
31.6(30) . . .
30.2(29) . . .
30.3(31) . . .
32.5(29) . . .
38.0(32) . . .
38.5(32) . . .
32.3(30) . . .
25.5(27) . . .
28.8(28) . . .
31.6(30) . . .
33.2(31) . . .
28.7(30) . . .
22.9(26) . . .
29.6(28) . . .
30.0(29) . . .
27.1(29) . . .
23.6(27) . . .
29.0(30) . . .
33.4(30) . . .
32.5(30) . . .
38(4) . . .
35.7(30) . . .
34.2(32) . . .
33.1(30) . . .
31.0(30) . . .
25.4(28) . . .
26.6(29) . . .
31.1(29) . . .
26.3(28) . . .
34.3(32) . . .
28.1(29) . . .
27.2(27) . . .
33.6(30) . . .
24.1(26) . . .
34.6(34) . . .
21.9(25) . . .
19.6(23) . . .
21.6(25) . . .
24.5(27) . . .
28.3(28) . . .
27.9(27) . . .
30.1(28) . . .
25.4(26) . . .
28.4(27) . . .
31.4(31) . . .
28.8(30) . . .
29.3(30) . . .
21.5(24) . . .
29.6(29) . . .
26.3(27) . . .
27.5(33) . . .
17.7(25) . . .
19.0(22) . . .
24.1(26) . . .
28.9(30) . . .
25.8(28) . . .
26.2(28) . . .
26.9(26) . . .
36.3(32) . . .
31.5(31) . . .
26.1(28) . . .
35.4(32) . . .
33.2(31) . . .
26.0(26) . . .
35.8(31) . . .
34.7(34) . . .
29.7(31) . . .
29.4(28) . . .
26.8(27) . . .
26.3(28) . . .
32.3(33) . . .
27.9(28) . . .
35.9(31) . . .
28.0(28) . . .
29.3(29) . . .
25.0(27) . . .
31.1(30) . . .
27.6(28) . . .
27.1(28) . . .
25.9(28) . . .
30.3(33) . . .
26.0(27) . . .
26.6(27) . . .
29.4(29) . . .
36.1(33) . . .
30.9(30) . . .
34.4(30) . . .
28.2(28) . . .
32.1(31) . . .
29.1(29) . . .
29.6(29) . . .
26.8(27) . . .
26.1(27) . . .
30.9(32) . . .
34(4) . . .
34.5(33) . . .
26.4(27) . . .
28.4(28) . . .
31.0(30) . . .
29.7(31) . . .
31.7(30) . . .
26.2(27) . . .
24.8(27) . . .
28.9(30) . . .
23.6(26) . . .
26.3(30) . . .
26.6(27) . . .
29.3(28) . . .
28.3(29) . . .
27.2(30) . . .
30.1(29) . . .
36.5(32) . . .
31.0(30) . . .
29.4(30) . . .
25.3(29) . . .
28.3(30) . . .
21.9(25) . . .
29.4(30) . . .
24.9(27) . . .
27.2(31) . . .
29.3(30) . . .
33.6(30) . . .
29.7(33) . . .
32.4(32) . . .
32.6(30) . . .
32.9(30) . . .
29.7(29) . . .
36.1(34) . . .
29.2(28) . . .
34.7(33) . . .
23.0(26) . . .
32.8(30) . . .
32.7(30) . . .
25.4(26) . . .
28.8(30) . . .
20.5(24) . . .
27.4(27) . . .
29.3(28) . . .
30.9(31) . . .
28.0(27) . . .
29.3(28) . . .
36.0(31) . . .
32.8(33) . . .
32.7(34) . . .
27.1(28) . . .
31.1(30) . . .
25.8(26) . . .
26.6(27) . . .
25.8(28) . . .
26.5(27) . . .
23.5(25) . . .
31.0(29) . . .
30.0(29) . . .
38(4) . . .
29.0(29) . . .
34.3(31) . . .
33.7(30) . . .
31.5(33) . . .
23.3(28) . . .
25.4(27) . . .
33.1(30) . . .
34.4(31) . . .
31.1(29) . . .
32.5(31) . . .
29.9(29) . . .
30.5(29) . . .
24.9(26) . . .
21.7(26) . . .
35.7(34) . . .
27.0(28) . . .
31.1(29) . . .
35.8(33) . . .
27.8(29) . . .
28.1(29) . . .
33.3(32) . . .
34.0(30) . . .
39.3(33) . . .
28.8(28) . . .
31.7(32) . . .
24.5(26) . . .
28.9(29) . . .
24.3(27) . . .
40(4) . . .
30.1(28) . . .
26.9(29) . . .
23.6(25) . . .
25.6(29) . . .
28.2(30) . . .
33.9(34) . . .
26.8(27) . . .
27.8(28) . . .
33.2(31) . . .
29.6(31) . . .
26.4(30) . . .
30.0(30) . . .
30.8(29) . . .
34.0(32) . . .
28.9(28) . . .
32.9(31) . . .
32.3(30) . . .
27.2(28) . . .
30.5(29) . . .
36.5(33) . . .
37.3(32) . . .
34.4(30) . . .
33.8(31) . . .
21.9(24) . . .
36(4) . . .
34.4(33) . . .
34.5(30) . . .
27.5(28) . . .
34.9(33) . . .
28.5(29) . . .
32.8(34) . . .
31.3(29) . . .
27.8(27) . . .
31.3(32) . . .
28.5(31) . . .
29.4(29) . . .
33.0(30) . . .
24.4(27) . . .
24.5(29) . . .
30.1(30) . . .
29.7(29) . . .
30.1(29) . . .
21.1(26) . . .
20.7(25) . . .
22.6(25) . . .
20.1(23) . . .
21.7(25) . . .
28.9(31) . . .
26.4(30) . . .
32.3(32) . . .
18.1(22) . . .
23.4(26) . . .
31.0(30) . . .
24.5(26) . . .
25.7(27) . . .
23.6(26) . . .
27.7(27) . . .
30.1(31) . . .
27.9(28) . . .
35.8(32) . . .
28.4(28) . . .
29.6(28) . . .
26.0(29) . . .
22.2(26) . . .
21.1(27) . . .
24.2(26) . . .
22.6(25) . . .
28.4(30) . . .
34(4) . . .
24.1(27) . . .
23.3(26) . . .
28.8(28) . . .
26.1(26) . . .
27.8(30) . . .
27.9(29) . . .
26.5(28) . . .
26.8(27) . . .
32.3(28) . . .
30.2(28) . . .
30.3(29) . . .
32.5(30) . . .
38.1(32) . . .
30.2(30) . . .
27.0(28) . . .
34.9(31) . . .
30.5(29) . . .
24.1(26) . . .
30.6(29) . . .
29.8(28) . . .
26.9(28) . . .
31.4(29) . . .
31.2(30) . . .
37.4(34) . . .
29.8(30) . . .
28.3(29) . . .
31.9(29) . . .
28.8(31) . . .
29.9(31) . . .
31.4(33) . . .
21.0(24) . . .
23.8(26) . . .
29.5(29) . . .
29.6(29) . . .
26.3(27) . . .
25.1(26) . . .
29.0(28) . . .
33.6(31) . . .
27.6(29) . . .
30.0(29) . . .
26.0(26) . . .
28.0(28) . . .
32.1(30) . . .
33.0(32) . . .
30.9(32) . . .
29.1(28) . . .
27.5(27) . . .
32.3(31) . . .
30.0(31) . . .
25.8(27) . . .
22.0(25) . . .
28.8(27) . . .
31.8(31) . . .
30.0(31) . . .
29.6(29) . . .
28.9(28) . . .
25.7(26) . . .
24.3(27) . . .
25.6(26) . . .
28.4(28) . . .
18.1(23) . . .
30.6(29) . . .
28.8(28) . . .
34.2(34) . . .
28.5(29) . . .
24.8(27) . . .
27.6(28) . . .
26.3(28) . . .
29.4(31) . . .
30.3(29) . . .
42.9(34) . . .
24.9(26) . . .
24.7(26) . . .
31.0(29) . . .
32.0(31) . . .
26.0(26) . . .
28.2(27) . . .
28.9(28) . . .
29.1(28) . . .
31.2(30) . . .
29.7(30) . . .
28.5(29) . . .
26.0(28) . . .
29.8(28) . . .
37.1(32) . . .
32.1(30) . . .
22.9(26) . . .
27.5(29) . . .
30.8(29) . . .
26.9(27) . . .
31.4(29) . . .
24.8(26) . . .
35(4) . . .
32.0(30) . . .
30.1(29) . . .
25.2(26) . . .
28.9(30) . . .
24.8(28) . . .
30.2(31) . . .
32.3(30) . . .
30.0(28) . . .
33.7(30) . . .
41(4) . . .
35.0(31) . . .
32.1(30) . . .
29.8(29) . . .
28.7(29) . . .
34.2(32) . . .
34.5(32) . . .
31.8(30) . . .
24.6(26) . . .
28.2(27) . . .
27.4(29) . . .
32.5(31) . . .
24.5(26) . . .
23.5(27) . . .
29.4(31) . . .
27.5(28) . . .
30.3(32) . . .
31.1(29) . . .
34.9(31) . . .
34.9(32) . . .
27.3(28) . . .
24.4(27) . . .
28.4(28) . . .
25.8(27) . . .
21.3(26) . . .
23.2(27) . . .
27.8(29) . . .
23.4(25) . . .
32.5(31) . . .
28.6(29) . . .
20.0(23) . . .
28.1(29) . . .
35.6(31) . . .
25.3(27) . . .
29.7(30) . . .
31.6(30) . . .
25.0(26) . . .
32.1(29) . . .
39(4) . . .
29.5(29) . . .
40.2(34) . . .
25.8(28) . . .
29.9(28) . . .
31.1(32) . . .
26.0(28) . . .
24.9(26) . . .
30.3(29) . . .
27.9(29) . . .
27.0(29) . . .
23.6(28) . . .
32.1(31) . . .
25.9(27) . . .
25.5(26) . . .
23.6(26) . . .
29.9(30) . . .
30.2(31) . . .
25.3(26) . . .
31.9(31) . . .
24.7(26) . . .
37.3(34) . . .
35.0(30) . . .
34.7(31) . . .
27.1(28) . . .
36.0(33) . . .
28.0(30) . . .
23.7(28) . . .
30.9(29) . . .
24.5(26) . . .
27.5(29) . . .
27.6(30) . . .
24.7(26) . . .
34.2(30) . . .
26.0(28) . . .
26.8(27) . . .
26.9(27) . . .
33.6(31) . . .
27.4(27) . . .
24.1(26) . . .
25.1(28) . . .
26.0(27) . . .
26.0(27) . . .
27.7(28) . . .
24.8(28) . . .
25.6(28) . . .
26.3(27) . . .
34.3(32) . . .
36.8(31) . . .
31.8(33) . . .
21.5(25) . . .
26.0(26) . . .
32.5(30) . . .
31.5(29) . . .
28.4(29) . . .
24.2(28) . . .
28.0(30) . . .
24.6(26) . . .
25.4(26) . . .
22.5(25) . . .
32.3(32) . . .
24.7(29) . . .
28.0(27) . . .
26.9(26) . . .
36.2(32) . . .
41(4) . . .
24.4(26) . . .
27.5(27) . . .
25.0(26) . . .
29.5(29) . . .
34.3(33) . . .
27.6(29) . . .
22.2(25) . . .
27.2(27) . . .
31.2(30) . . .
30.5(32) . . .
33.2(31) . . .
33.4(30) . . .
28.1(27) . . .
31.2(31) . . .
28.5(29) . . .
32.8(30) . . .
33.0(29) . . .
23.4(27) . . .
23.9(26) . . .
21.0(23) . . .
26.1(26) . . .
27.2(27) . . .
26.2(27) . . .
25.9(27) . . .
29.2(32) . . .
26.9(27) . . .
30.8(29) . . .
30.6(31) . . .
25.7(28) . . .
28.9(29) . . .
29.3(28) . . .
29.4(28) . . .
37.0(33) . . .
31.3(31) . . .
24.5(28) . . .
28.4(31) . . .
23.6(25) . . .
22.1(25) . . .
23.8(27) . . .
28.0(27) . . .
34.0(30) . . .
35.5(31) . . .
27.9(28) . . .
29.9(31) . . .
24.3(26) . . .
24.5(26) . . .
29.9(28) . . .
27.6(28) . . .
31.3(34) . . .
34.3(34) . . .
36.4(33) . . .
34.2(32) . . .
30.6(30) . . .
23.7(29) . . .
21.9(25) . . .
24.8(26) . . .
34.5(31) . . .
17.8(22) . . .
21.6(26) . . .
24.9(26) . . .
28.8(28) . . .
27.4(28) . . .
27.0(29) . . .
34.3(33) . . .
25.4(27) . . .
34.8(30) . . .
25.9(29) . . .
31.4(31) . . .
36.2(33) . . .
24.7(26) . . .
27.5(28) . . .
22.4(25) . . .
24.5(26) . . .
28.2(28) . . .
29.6(30) . . .
34.9(31) . . .
29.3(28) . . .
25.3(27) . . .
30.6(33) . . .
24.3(27) . . .
21.5(24) . . .
22.6(25) . . .
26.8(27) . . .
36.4(32) . . .
27.2(28) . . .
16.2(21) . . .
26.1(27) . . .
28.7(28) . . .
30.5(30) . . .
27.2(27) . . .
27.8(27) . . .
32.2(30) . . .
28.0(28) . . .
28.5(29) . . .
27.0(27) . . .
29.4(29) . . .
28.1(29) . . .
29.8(32) . . .
40.2(34) . . .
34.4(31) . . .
23.9(25) . . .
27.0(29) . . .
29.7(30) . . .
27.5(27) . . .
31.0(29) . . .
27.2(28) . . .
35.6(33) . . .
31.7(30) . . .
30.4(31) . . .
24.3(26) . . .
27.2(27) . . .
33.9(33) . . .
27.8(29) . . .
29.6(30) . . .
24.0(25) . . .
26.2(27) . . .
26.4(31) . . .
27.4(30) . . .
29.2(29) . . .
37.6(31) . . .
27.8(27) . . .
31.8(30) . . .
31.2(29) . . .
25.1(27) . . .
28.9(28) . . .
23.8(25) . . .
31.6(32) . . .
26.5(27) . . .
33.8(33) . . .
23.1(26) . . .
27.1(28) . . .
21.1(24) . . .
30.7(29) . . .
31.8(29) . . .
24.5(26) . . .
28.1(29) . . .
27.2(28) . . .
35.1(32) . . .
29.8(29) . . .
25.8(27) . . .
24.4(28) . . .
26.8(29) . . .
29.6(30) . . .
30.0(29) . . .
32.8(30) . . .
29.8(30) . . .
32.8(32) . . .
30.2(29) . . .
20.4(24) . . .
23.2(25) . . .
27.6(30) . . .
24.6(28) . . .
33.9(32) . . .
31.8(30) . . .
24.4(27) . . .
30.2(31) . . .
32.6(31) . . .
37.0(34) . . .
26.3(27) . . .
32.1(31) . . .
23.1(27) . . .
32.2(32) . . .
31.6(29) . . .
29.2(28) . . .
26.4(27) . . .
30.9(31) . . .
26.8(30) . . .
24.0(25) . . .
28.3(29) . . .
28.3(28) . . .
35.3(34) . . .
29.8(32) . . .
27.3(28) . . .
25.4(26) . . .
25.3(27) . . .
30.6(33) . . .
25.6(29) . . .
27.5(30) . . .
28.6(28) . . .
26.5(28) . . .
28.4(28) . . .
26.4(27) . . .
31.7(29) . . .
20.5(23) . . .
23.3(27) . . .
33.1(32) . . .
38(4) . . .
30.3(28) . . .
32.5(30) . . .
31.9(30) . . .
25.1(26) . . .
24.8(27) . . .
35.8(31) . . .
32.8(29) . . .
37.3(33) . . .
36.6(33) . . .
30.8(30) . . .
24.2(25) . . .
31.3(30) . . .
29.5(29) . . .
23.8(27) . . .
26.0(28) . . .
24.0(26) . . .
18.8(22) . . .
29.1(30) . . .
29.3(30) . . .
27.9(29) . . .
21.4(25) . . .
31.7(31) . . .
31.9(30) . . .
32.4(30) . . .
29.9(28) . . .
34.5(31) . . .
26.7(28) . . .
30.8(30) . . .
31.8(31) . . .
31.1(31) . . .
37.2(31) . . .
29.7(28) . . .
29.5(30) . . .
31.0(31) . . .
31.7(31) . . .
25.2(26) . . .
29.3(30) . . .
32.1(32) . . .
33.1(32) . . .
32.3(31) . . .
20.0(24) . . .
26.7(28) . . .
35.8(33) . . .
41(4) . . .
34.3(31) . . .
30.6(29) . . .
21.8(25) . . .
26.4(28) . . .
26.3(27) . . .
20.2(23) . . .
32.3(30) . . .
38.9(34) . . .
35.1(32) . . .
24.1(26) . . .
24.7(26) . . .
29.1(28) . . .
27.6(28) . . .
32.3(33) . . .
36.9(34) . . .
25.0(26) . . .
30.6(29) . . .
32.4(31) . . .
19.8(26) . . .
14.7(21) . . .
29.0(28) . . .
35.1(31) . . .
26.1(26) . . .
28.4(29) . . .
30.5(31) . . .
30.9(28) . . .
33.3(30) . . .
26.8(27) . . .
25.7(28) . . .
23.5(25) . . .
23.0(25) . . .
28.1(29) . . .
31.7(30) . . .
28.5(31) . . .
21.3(24) . . .
34.9(31) . . .
34.6(31) . . .
31.1(30) . . .
30.4(29) . . .
28.9(30) . . .
24.7(26) . . .
26.0(29) . . .
26.5(26) . . .
30.4(28) . . .
32.2(30) . . .
30.3(29) . . .
28.6(28) . . .
27.9(28) . . .
29.5(31) . . .
26.9(27) . . .
26.9(27) . . .
32.9(30) . . .
33.9(32) . . .
31.5(33) . . .
30.0(29) . . .
25.9(27) . . .
32.0(31) . . .
34.9(32) . . .
29.0(28) . . .
25.6(28) . . .
31.8(29) . . .
29.7(29) . . .
27.9(31) . . .
23.8(26) . . .
26.7(27) . . .
26.3(27) . . .
31.2(29) . . .
30.2(30) . . .
34.7(32) . . .
30.9(29) . . .
24.9(26) . . .
25.0(27) . . .
31.8(33) . . .
30.0(28) . . .
37.8(32) . . .
30.8(29) . . .
34.6(33) . . .
30.6(32) . . .
24.1(25) . . .
25.7(26) . . .
25.9(28) . . .
24.0(26) . . .
38(4) . . .
30.3(29) . . .
33.1(30) . . .
33.1(31) . . .
25.6(27) . . .
29.5(29) . . .
30.4(30) . . .
27.1(27) . . .
25.6(27) . . .
24.6(28) . . .
28.0(28) . . .
28.3(28) . . .
22.8(25) . . .
29.4(28) . . .
30.8(30) . . .
28.4(30) . . .
29.2(29) . . .
25.4(27) . . .
22.3(27) . . .
30.5(32) . . .
30.7(31) . . .
34.1(32) . . .
29.5(28) . . .
26.1(26) . . .
32.0(31) . . .
26.9(26) . . .
31.8(30) . . .
23.6(26) . . .
27.5(28) . . .
19.2(25) . . .
20.4(24) . . .
34.3(31) . . .
30.0(29) . . .
23.3(25) . . .
32.2(33) . . .
27.1(30) . . .
25.1(26) . . .
26.8(27) . . .
27.0(29) . . .
29.8(30) . . .
31.4(30) . . .
42.1(34) . . .
33.3(30) . . .
25.7(27) . . .
26.2(29) . . .
30.9(33) . . .
24.3(25) . . .
22.2(25) . . .
21.3(27) . . .
29.5(30) . . .
29.6(29) . . .
26.0(27) . . .
30.9(31) . . .
31.1(30) . . .
35.5(33) . . .
26.2(28) . . .
25.4(26) . . .
25.9(29) . . .
28.0(29) . . .
29.3(31) . . .
24.5(27) . . .
25.8(26) . . .
33.2(31) . . .
24.9(28) . . .
26.7(28) . . .
28.3(27) . . .
31.1(29) . . .
30.5(29) . . .
32.1(32) . . .
37.0(35) . . .
27.2(28) . . .
31.5(29) . . .
28.0(27) . . .
31.0(31) . . .
34.5(32) . . .
31.6(30) . . .
32.0(29) . . .
25.1(27) . . .
26.5(28) . . .
31.4(32) . . .
25.0(26) . . .
23.4(25) . . .
28.8(32) . . .
29.9(32) . . .
23.1(26) . . .
20.6(24) . . .
25.7(27) . . .
28.1(30) . . .
23.2(28) . . .
28.0(28) . . .
30.9(29) . . .
32.9(30) . . .
27.1(28) . . .
24.9(26) . . .
22.9(26) . . .
24.4(25) . . .
26.0(28) . . .
33.9(32) . . .
35.2(33) . . .
25.7(27) . . .
26.3(26) . . .
30.9(29) . . .
28.6(28) . . .
31.6(30) . . .
27.4(27) . . .
27.9(28) . . .
29.0(28) . . .
31.5(31) . . .
28.1(28) . . .
31.7(29) . . .
35.6(31) . . .
32.3(29) . . .
32.0(31) . . .
35.7(31) . . .
28.8(28) . . .
24.6(26) . . .
36.8(33) . . .
35.1(34) . . .
25.7(28) . . .
30.0(29) . . .
24.0(26) . . .
25.1(27) . . .
26.2(29) . . .
24.3(27) . . .
27.8(28) . . .
32.2(30) . . .
25.3(27) . . .
25.4(29) . . .
28.7(28) . . .
33.3(30) . . .
28.0(28) . . .
32.2(32) . . .
28.1(31) . . .
25.0(27) . . .
26.6(27) . . .
26.7(27) . . .
24.3(27) . . .
27.6(28) . . .
30.0(29) . . .
37.7(31) . . .
32.2(31) . . .
28.6(28) . . .
26.9(29) . . .
25.5(27) . . .
33.5(31) . . .
26.1(26) . . .
27.8(29) . . .
25.2(27) . . .
30.9(29) . . .
33.1(30) . . .
23.9(26) . . .
24.7(29) . . .
28.2(30) . . .
28.6(28) . . .
36.1(31) . . .
25.9(29) . . .
27.9(28) . . .
30.2(30) . . .
28.3(28) . . .
26.5(27) . . .
28.8(30) . . .
25.3(27) . . .
31.3(31) . . .
21.9(24) . . .
31.5(30) . . .
27.1(28) . . .
26.1(27) . . .
31.8(30) . . .
24.8(26) . . .
23.5(25) . . .
25.5(28) . . .
26.1(29) . . .
42(4) . . .
28.0(29) . . .
25.0(26) . . .
22.0(24) . . .
34.8(34) . . .
29.9(29) . . .
29.6(28) . . .
30.4(30) . . .
23.8(30) . . .
28.5(29) . . .
36.6(32) . . .
30.1(28) . . .
32.9(29) . . .
23.5(25) . . .
28.7(29) . . .
23.3(25) . . .
27.5(27) . . .
24.7(26) . . .
29.7(28) . . .
27.5(30) . . .
33.3(33) . . .
25.1(26) . . .
25.8(26) . . .
28.9(30) . . .
33.8(31) . . .
32.4(30) . . .
27.8(28) . . .
43(4) . . .
30.8(30) . . .
32.2(32) . . .
37(4) . . .
26.3(27) . . .
29.7(29) . . .
27.3(28) . . .
27.7(27) . . .
22.1(25) . . .
33.8(30) . . .
21.0(24) . . .
loop_
_refln_index_h
_refln_index_k
_refln_index_l
_refln_observed_status
_refln_F_squared_meas
_refln_F_squared_calc
_refln_phase_calc
_refln_d_spacing
_gsas_i100_meas
0 0 2 o 0.000 326.737 180.00 6.59973 0.00
0 2 0 o 1158.166 1478.735 180.00 8.19639 4.42
0 1 3 o 68.461 29.440 180.00 4.24942 0.14
0 0 4 o 108.690 177.579 180.00 3.29987 0.07
1 0 1 o 12580.693 13367.458 0.00 5.88033 49.46
0 3 1 o 1311.579 1575.107 180.00 5.04874 3.80
0 4 0 o 5446.243 1823.040 0.00 4.09819 5.21
0 2 2 o 33270.684 33627.234 0.00 5.14046 100.00
1 0 3 o 542.981 255.450 180.00 3.65545 0.83
1 1 2 o 4663.168 3968.332 0.00 4.47840 21.29
0 1 5 o 1349.484 1597.871 180.00 2.60631 1.05
1 2 1 o 1817.669 1820.852 0.00 4.77790 9.44
0 2 4 o 1335.163 806.934 0.00 3.06110 1.43
1 1 4 o 0.000 56.687 0.00 2.90207 0.00
0 0 6 o 1720.518 2489.841 0.00 2.19991 0.48
1 0 5 o 451.420 592.324 180.00 2.44945 0.31
0 5 1 o 0.000 1.238 180.00 3.18187 0.00
1 2 3 o 824.463 950.250 0.00 3.33848 2.10
1 4 1 o 773.369 840.106 180.00 3.36221 1.99
0 6 0 o 1382.187 1774.609 0.00 2.73213 0.59
0 1 7 o 21.466 961.542 0.00 1.87329 0.01
1 1 6 o 1104.005 1039.501 180.00 2.06933 1.09
0 2 6 o 643.972 684.439 180.00 2.12471 0.33
0 3 3 o 13864.336 13712.687 0.00 3.42697 18.57
0 0 8 o 158.524 246.138 180.00 1.64993 0.03
1 0 7 o 972.066 1226.116 0.00 1.81243 0.37
1 2 5 o 110.356 474.425 0.00 2.34689 0.14
0 4 2 o 2.762 4.859 0.00 3.48156 0.00
0 3 5 o 0.000 154.133 0.00 2.37702 0.00
1 3 2 o 4112.021 3971.646 0.00 3.54372 11.77
1 6 1 o 668.796 798.799 0.00 2.47775 0.94
0 2 8 o 644.471 1174.646 180.00 1.61749 0.20
1 2 7 o 1176.702 1380.210 180.00 1.76968 0.85
1 3 4 o 40.087 41.890 0.00 2.59494 0.06
0 7 1 o 0.000 217.504 0.00 2.30582 0.00
2 0 0 o 1895.964 2090.116 180.00 3.28406 1.17
0 1 9 o 2205.701 1761.049 0.00 1.46077 0.55
1 1 8 o 905.570 1315.303 0.00 1.59265 0.53
2 0 2 o 264.150 361.264 0.00 2.94016 0.26
2 0 4 o 1397.750 1770.837 180.00 2.32775 0.87
0 3 7 o 1284.166 1513.063 0.00 1.78249 0.47
2 2 0 o 124.887 76.146 0.00 3.04847 0.13
0 8 0 o 166.080 136.648 0.00 2.04910 0.04
2 1 1 o 839.207 862.904 180.00 3.12833 1.87
2 1 3 o 1208.105 1239.384 0.00 2.59850 1.87
0 6 2 o 223.936 497.923 0.00 2.52437 0.16
1 0 9 o 2136.384 1237.474 180.00 1.43136 0.51
1 5 2 o 2746.058 2806.044 180.00 2.68056 4.51
1 3 6 o 1132.789 1005.433 0.00 1.94883 0.99
2 1 5 o 451.225 331.841 180.00 2.04152 0.43
0 4 4 o 10695.070 12086.074 0.00 2.57023 8.09
2 4 0 o 1920.473 2186.105 180.00 2.56274 1.44
2 2 2 o 1990.301 2150.719 180.00 2.76749 3.49
0 0 10 o 5365.971 7688.505 180.00 1.31995 0.55
2 3 1 o 639.989 742.756 0.00 2.75291 1.11
0 4 6 o 3504.053 3033.652 180.00 1.93830 1.52
2 0 6 o 26.677 53.321 0.00 1.82773 0.01
1 4 3 o 5119.029 5713.558 0.00 2.72795 8.71
0 2 10 o 5.099 6.098 0.00 1.30316 0.00
2 2 4 o 0.000 71.452 0.00 2.23920 0.00
1 2 9 o 55.880 46.289 180.00 1.41002 0.03
1 1 10 o 13.217 16.419 0.00 1.29006 0.01
1 8 1 o 702.613 615.745 180.00 1.93498 0.61
2 5 1 o 0.002 0.121 0.00 2.28519 0.00
2 1 7 o 215.165 396.856 0.00 1.62718 0.13
0 9 1 o 3287.337 4052.907 0.00 1.80432 1.24
1 4 5 o 175.488 149.082 180.00 2.10253 0.18
1 3 8 o 74.754 78.557 0.00 1.53572 0.04
0 3 9 o 64.514 51.228 0.00 1.41647 0.02
1 7 2 o 2758.873 2599.392 0.00 2.09206 2.78
2 2 6 o 786.442 909.391 180.00 1.78391 0.58
2 0 8 o 758.722 602.648 180.00 1.47432 0.19
0 8 2 o 2328.276 2075.809 180.00 1.95694 1.03
2 6 0 o 2954.559 2492.379 180.00 2.10032 1.50
0 5 3 o 329.268 406.636 180.00 2.62894 0.26
2 3 3 o 0.000 91.193 180.00 2.37109 0.00
1 4 7 o 130.947 242.146 180.00 1.65756 0.08
2 3 5 o 998.919 824.207 0.00 1.92555 0.85
2 4 2 o 91.301 227.678 180.00 2.38895 0.12
0 4 8 o 93.322 95.622 180.00 1.53055 0.03
0 10 0 o 6911.794 10266.203 180.00 1.63928 1.08
2 1 9 o 1393.365 1572.973 180.00 1.33469 0.58
1 3 10 o 1.467 1.944 0.00 1.25924 0.00
2 3 7 o 2064.142 2304.302 180.00 1.56660 1.18
2 2 8 o 2357.711 1607.410 0.00 1.45104 1.16
2 7 1 o 209.640 605.780 180.00 1.88711 0.17
0 5 5 o 26143.695 24347.184 0.00 2.05618 12.71
2 8 0 o 7.645 12.871 0.00 1.73845 0.00
1 6 3 o 4963.435 4963.527 180.00 2.18842 5.46
0 7 3 o 7367.383 7147.898 0.00 2.06724 3.62
0 4 10 o 67.825 90.260 180.00 1.25639 0.01
2 0 10 o 1789.714 2647.848 0.00 1.22473 0.32
1 4 9 o 0.251 0.267 0.00 1.35131 0.00
2 6 2 o 469.608 623.733 180.00 2.00141 0.43
1 5 4 o 6526.988 6893.935 0.00 2.19239 7.20
0 5 7 o 3.290 5.555 180.00 1.63457 0.00
2 4 4 o 1239.070 998.835 180.00 2.02404 1.17
1 9 2 o 7.374 9.368 0.00 1.69622 0.00
2 2 10 o 661.905 1265.992 180.00 1.21128 0.23
1 10 1 o 248.225 391.194 180.00 1.57907 0.14
1 5 6 o 805.759 1015.608 0.00 1.75997 0.58
2 4 6 o 1812.193 2549.252 0.00 1.66924 1.17
0 10 2 o 862.510 1161.924 0.00 1.59093 0.25
0 11 1 o 7375.460 5355.859 180.00 1.48084 1.88
1 5 8 o 84.981 43.182 180.00 1.43806 0.04
0 5 9 o 16.735 17.246 0.00 1.33876 0.00
3 0 1 o 2815.597 2524.429 180.00 2.15986 1.51
2 3 9 o 1377.029 1603.146 0.00 1.30065 0.55
3 1 2 o 3056.625 3082.152 180.00 2.06152 2.99
3 0 3 o 3802.871 3598.979 0.00 1.96011 1.68
3 1 4 o 3854.961 4075.525 0.00 1.81316 2.93
2 5 3 o 138.141 123.495 0.00 2.05234 0.13
2 9 1 o 24.623 41.710 180.00 1.58136 0.01
3 2 1 o 60.396 60.644 0.00 2.08857 0.06
3 1 6 o 176.778 172.160 180.00 1.54493 0.10
3 0 5 o 2650.958 3046.395 180.00 1.68523 0.87
0 9 3 o 77.455 90.513 180.00 1.68291 0.03
2 8 2 o 53.536 66.118 180.00 1.68110 0.04
1 8 3 o 170.330 198.344 0.00 1.78742 0.13
0 12 0 o 3853.214 3572.716 0.00 1.36606 0.42
3 0 7 o 522.626 306.252 180.00 1.42877 0.12
2 4 8 o 2534.684 2222.042 180.00 1.38728 1.14
3 2 5 o 295.175 454.915 0.00 1.65070 0.19
3 4 1 o 1009.024 807.290 180.00 1.91074 0.85
3 2 3 o 5493.675 4480.020 180.00 1.90635 4.60
0 6 4 o 8713.900 7552.312 180.00 2.10444 4.43
3 1 8 o 814.961 1078.589 180.00 1.31342 0.33
2 10 0 o 93.616 81.930 0.00 1.46671 0.02
3 3 2 o 1213.888 912.696 0.00 1.94231 1.05
1 12 1 o 17.828 22.687 180.00 1.33063 0.01
0 6 6 o 4704.345 7116.854 0.00 1.71349 1.60
2 5 5 o 2008.342 2698.998 180.00 1.74277 1.41
1 11 2 o 122.782 91.233 180.00 1.41931 0.06
0 6 8 o 221.958 190.962 180.00 1.41237 0.05
3 2 7 o 80.487 67.254 0.00 1.40754 0.04
2 7 3 o 1581.595 1794.163 180.00 1.74949 1.12
2 5 7 o 3465.184 2959.031 0.00 1.46333 1.73
0 12 2 o 4498.060 4672.604 180.00 1.33771 0.94
1 6 5 o 545.078 774.770 0.00 1.82380 0.42
3 3 4 o 70.259 427.349 180.00 1.73045 0.05
3 6 1 o 1731.887 2063.054 180.00 1.69436 1.15
1 6 7 o 648.534 411.391 0.00 1.51032 0.34
3 0 9 o 1214.340 2171.308 0.00 1.21848 0.21
2 11 1 o 360.949 392.172 0.00 1.34995 0.15
1 10 3 o 52.961 33.280 180.00 1.49576 0.03
3 3 6 o 22.836 13.884 0.00 1.49280 0.01
2 10 2 o 819.113 437.297 180.00 1.43177 0.39
3 5 2 o 210.132 249.882 0.00 1.75516 0.15
1 7 4 o 349.849 598.013 180.00 1.83383 0.27
0 13 1 o 2745.223 3676.469 0.00 1.25527 0.51
0 8 4 o 984.332 1375.954 0.00 1.74078 0.34
0 11 3 o 1558.433 1323.063 0.00 1.41149 0.36
2 6 4 o 1154.648 1056.505 0.00 1.77186 0.84
3 4 3 o 171.047 185.216 180.00 1.76826 0.12
1 6 9 o 89.352 164.556 180.00 1.26790 0.03
2 5 9 o 2132.771 2233.388 180.00 1.23971 0.77
2 12 0 o 656.357 832.808 180.00 1.26129 0.12
3 3 8 o 8.595 13.311 180.00 1.28094 0.00
2 9 3 o 111.055 73.163 0.00 1.49771 0.06
3 8 1 o 24.247 15.202 0.00 1.48655 0.01
1 13 2 o 25.185 45.843 180.00 1.21713 0.01
3 4 5 o 18.686 22.104 180.00 1.55860 0.01
3 7 2 o 1985.430 2365.244 180.00 1.55432 1.11
1 9 4 o 393.465 431.647 0.00 1.54961 0.22
2 6 6 o 3618.178 3337.162 180.00 1.51914 1.94
0 7 5 o 1255.828 1180.719 180.00 1.75186 0.45
3 4 7 o 269.151 292.597 0.00 1.34913 0.11
0 10 4 o 251.331 234.361 180.00 1.46811 0.06
0 7 7 o 6864.361 6362.877 0.00 1.46870 1.73
1 7 6 o 672.907 830.177 0.00 1.55765 0.38
1 12 3 o 19.355 32.513 180.00 1.27963 0.01
3 5 4 o 416.276 489.725 180.00 1.59417 0.25
3 6 3 o 360.526 446.520 0.00 1.59263 0.21
2 6 8 o 3042.200 3416.690 0.00 1.29747 1.20
1 7 8 o 354.155 607.733 0.00 1.32122 0.15
0 7 9 o 197.639 221.347 0.00 1.24297 0.04
2 12 2 o 1104.505 1117.279 0.00 1.23887 0.40
0 13 3 o 474.843 900.770 180.00 1.21218 0.08
3 10 1 o 34.646 42.204 0.00 1.30578 0.01
2 8 4 o 2706.870 2965.384 180.00 1.53806 1.49
3 9 2 o 42.010 37.691 180.00 1.36973 0.02
2 11 3 o 1250.467 1396.481 180.00 1.29678 0.49
4 2 0 o 197.166 276.167 180.00 1.61004 0.06
4 0 0 o 2702.015 3428.623 0.00 1.64203 0.42
4 1 1 o 1181.030 1313.325 0.00 1.62148 0.72
3 5 6 o 353.496 307.208 180.00 1.40264 0.16
4 0 4 o 1486.199 1387.000 0.00 1.47008 0.37
1 11 4 o 21.801 29.110 180.00 1.33004 0.01
4 0 2 o 138.288 167.465 180.00 1.59345 0.04
4 1 3 o 543.309 661.451 180.00 1.53166 0.30
3 8 3 o 1145.221 1108.154 180.00 1.41642 0.54
2 7 5 o 2007.741 1897.883 0.00 1.54569 1.12
4 4 0 o 1745.386 2114.592 0.00 1.52423 0.47
4 2 2 o 2193.725 2404.240 0.00 1.56417 1.25
4 3 1 o 924.791 993.008 180.00 1.56152 0.52
4 1 5 o 1863.514 1591.293 0.00 1.38929 0.84
4 0 6 o 1149.823 1666.608 180.00 1.31589 0.23
3 5 8 o 345.223 591.870 0.00 1.22261 0.12
4 2 4 o 1472.271 913.961 180.00 1.44699 0.72
0 12 4 o 1.024 1.262 0.00 1.26219 0.00
1 8 5 o 721.480 823.504 180.00 1.57167 0.41
4 1 7 o 720.359 666.179 180.00 1.23480 0.26
4 2 6 o 528.160 586.343 0.00 1.29925 0.21
2 10 4 o 755.419 704.345 0.00 1.34028 0.32
2 7 7 o 4413.275 4076.122 180.00 1.34073 1.86
0 9 5 o 2329.064 1687.759 0.00 1.49920 0.61
4 5 1 o 3366.693 3068.801 0.00 1.45918 1.67
4 6 0 o 5456.715 4556.624 180.00 1.40740 1.26
4 4 2 o 2324.729 1598.800 180.00 1.48514 1.19
0 8 6 o 2244.027 1619.697 180.00 1.49941 0.59
3 11 2 o 230.690 462.474 0.00 1.21102 0.08
4 3 3 o 3921.986 2888.526 0.00 1.48082 2.00
3 7 4 o 50.187 22.160 0.00 1.43918 0.02
3 6 5 o 54.984 26.831 180.00 1.43432 0.03
4 3 5 o 183.266 209.094 180.00 1.35102 0.08
0 8 8 o 1057.755 1341.338 0.00 1.28512 0.21
3 10 3 o 349.431 469.913 180.00 1.25748 0.13
4 7 1 o 3092.004 3123.792 180.00 1.33754 1.30
1 8 7 o 248.527 275.763 0.00 1.35758 0.11
4 3 7 o 136.785 426.058 0.00 1.20770 0.05
3 6 7 o 405.337 656.244 180.00 1.26609 0.15
1 10 5 o 254.613 251.756 0.00 1.36234 0.11
4 8 0 o 1531.380 2390.196 0.00 1.28137 0.30
4 6 2 o 1743.871 1666.252 0.00 1.37645 0.77
4 4 4 o 1408.390 1299.534 0.00 1.38375 0.63
4 5 3 o 752.024 626.328 180.00 1.39269 0.34
0 11 5 o 337.518 368.694 0.00 1.29775 0.07
2 9 5 o 5021.991 4524.292 180.00 1.36381 2.19
4 9 1 o 1142.424 2000.311 0.00 1.21442 0.40
4 4 6 o 80.563 107.905 180.00 1.25289 0.03
3 9 4 o 182.442 231.842 180.00 1.28897 0.07
2 8 6 o 3356.694 2997.738 0.00 1.36397 1.46
4 8 2 o 1777.201 2383.023 180.00 1.25788 0.66
3 7 6 o 64.133 73.381 0.00 1.29359 0.03
4 7 3 o 902.459 1092.705 0.00 1.28577 0.35
4 5 5 o 623.412 832.953 0.00 1.28310 0.24
3 8 5 o 108.902 122.271 180.00 1.30158 0.04
1 9 6 o 424.838 395.502 180.00 1.37201 0.19
0 9 7 o 12.649 14.264 180.00 1.31005 0.00
4 6 4 o 324.820 357.943 180.00 1.29457 0.13
0 10 6 o 7.946 12.033 0.00 1.31447 0.00
5 0 1 o 2222.875 2639.407 0.00 1.30717 0.45
5 2 1 o 694.203 762.911 0.00 1.29085 0.27
5 1 4 o 15.627 29.855 0.00 1.21711 0.01
5 0 3 o 14.498 18.850 0.00 1.25872 0.00
5 1 2 o 434.933 512.861 0.00 1.28439 0.17
5 4 1 o 0.609 0.884 180.00 1.24535 0.00
2 9 7 o 47.354 86.938 0.00 1.21681 0.02
5 2 3 o 348.991 414.357 0.00 1.24413 0.13
5 3 2 o 552.311 749.381 0.00 1.25397 0.20
1 11 6 o 52.087 97.758 0.00 1.21260 0.02
2 10 6 o 219.362 467.843 180.00 1.22035 0.08
1 10 7 o 91.976 146.340 180.00 1.21576 0.03
