#------------------------------------------------------------------------------
#$Date: 2017-11-07 02:27:57 +0200 (Tue, 07 Nov 2017) $
#$Revision: 202662 $
#$URL: file:///home/coder/svn-repositories/cod/cif/4/00/28/4002860.cif $
#------------------------------------------------------------------------------
#
# This file is available in the Crystallography Open Database (COD),
# http://www.crystallography.net/
#
# All data on this site have been placed in the public domain by the
# contributors.
#
data_4002860
loop_
_publ_author_name
'Yu, Muxin'
'Chen, Lian'
'Jiang, Feilong'
'Zhou, Kang'
'Liu, Caiping'
'Sun, Cai'
'Li, Xingjun'
'Yang, Yan'
'Hong, Maochun'
_publ_section_title
;
 Cation-Induced Strategy toward an Hourglass-Shaped Cu6I7-- Cluster and
 Its Color-Tunable Luminescence
;
_journal_issue                   19
_journal_name_full               'Chemistry of Materials'
_journal_page_first              8093
_journal_paper_doi               10.1021/acs.chemmater.7b01790
_journal_volume                  29
_journal_year                    2017
_chemical_formula_sum            'C15 H15 Cu I N6 O P'
_chemical_formula_weight         516.74
_space_group_crystal_system      triclinic
_space_group_IT_number           2
_space_group_name_Hall           '-P 1'
_space_group_name_H-M_alt        'P -1'
_symmetry_space_group_name_Hall  '-P 1'
_symmetry_space_group_name_H-M   'P -1'
_atom_sites_solution_hydrogens   geom
_audit_creation_method           SHELXL-2016/4
_cell_angle_alpha                116.350(6)
_cell_angle_beta                 102.549(6)
_cell_angle_gamma                96.607(5)
_cell_formula_units_Z            2
_cell_length_a                   9.0437(6)
_cell_length_b                   10.8072(6)
_cell_length_c                   10.8381(7)
_cell_measurement_reflns_used    5095
_cell_measurement_temperature    100.00(11)
_cell_measurement_theta_max      72.9520
_cell_measurement_theta_min      4.6790
_cell_volume                     899.05(12)
_computing_structure_refinement  'SHELXL-2016/4 (Sheldrick, 2016)'
_computing_structure_solution    'SHELXT 2014/4 (Sheldrick, 2014)'
_diffrn_ambient_temperature      100.00(11)
_diffrn_detector_area_resol_mean 10.5594
_diffrn_measured_fraction_theta_full 0.994
_diffrn_measured_fraction_theta_max 0.971
_diffrn_measurement_device_type  'SuperNova (Cu) X-ray Source'
_diffrn_measurement_method       '\w scans'
_diffrn_radiation_type           CuK\a
_diffrn_radiation_wavelength     1.54184
_diffrn_reflns_av_R_equivalents  0.0360
_diffrn_reflns_av_unetI/netI     0.0424
_diffrn_reflns_Laue_measured_fraction_full 0.994
_diffrn_reflns_Laue_measured_fraction_max 0.971
_diffrn_reflns_limit_h_max       11
_diffrn_reflns_limit_h_min       -11
_diffrn_reflns_limit_k_max       12
_diffrn_reflns_limit_k_min       -13
_diffrn_reflns_limit_l_max       13
_diffrn_reflns_limit_l_min       -13
_diffrn_reflns_number            8514
_diffrn_reflns_point_group_measured_fraction_full 0.994
_diffrn_reflns_point_group_measured_fraction_max 0.971
_diffrn_reflns_theta_full        67.684
_diffrn_reflns_theta_max         73.141
_diffrn_reflns_theta_min         4.706
_diffrn_source                   'sealed X-ray tube'
_exptl_absorpt_coefficient_mu    16.184
_exptl_absorpt_correction_T_max  1.00000
_exptl_absorpt_correction_T_min  0.56280
_exptl_absorpt_correction_type   multi-scan
_exptl_crystal_colour            colorless
_exptl_crystal_density_diffrn    1.909
_exptl_crystal_description       block
_exptl_crystal_F_000             504
_exptl_crystal_size_max          0.2
_exptl_crystal_size_mid          0.2
_exptl_crystal_size_min          0.1
_refine_diff_density_max         1.689
_refine_diff_density_min         -0.755
_refine_diff_density_rms         0.149
_refine_ls_extinction_method     none
_refine_ls_goodness_of_fit_ref   1.055
_refine_ls_hydrogen_treatment    constr
_refine_ls_matrix_type           full
_refine_ls_number_parameters     226
_refine_ls_number_reflns         3506
_refine_ls_number_restraints     0
_refine_ls_restrained_S_all      1.055
_refine_ls_R_factor_all          0.0345
_refine_ls_R_factor_gt           0.0315
_refine_ls_shift/su_max          0.000
_refine_ls_shift/su_mean         0.000
_refine_ls_structure_factor_coef Fsqd
_refine_ls_weighting_details
'w=1/[\s^2^(Fo^2^)+(0.0504P)^2^] where P=(Fo^2^+2Fc^2^)/3'
_refine_ls_weighting_scheme      calc
_refine_ls_wR_factor_gt          0.0793
_refine_ls_wR_factor_ref         0.0819
_reflns_Friedel_coverage         0.000
_reflns_number_gt                3279
_reflns_number_total             3506
_reflns_threshold_expression     'I > 2\s(I)'
_cod_data_source_file            cm7b01790_si_003.cif
_cod_data_source_block           2
_cod_depositor_comments
'Adding full bibliography for 4002860--4002865.cif.'
_cod_original_cell_volume        899.05(11)
_cod_database_code               4002860
_shelx_shelxl_version_number     2016/4
_shelx_space_group_comment
;
The symmetry employed for this shelxl refinement is uniquely defined
by the following loop, which should always be used as a source of
symmetry information in preference to the above space-group names.
They are only intended as comments.
;
_shelx_res_file
;
CELL 1.54184 9.0437 10.8072 10.8381 116.350 102.549 96.607
ZERR 2.0000 0.0006 0.0006 0.0007 0.006 0.006 0.005
LATT 1
SFAC C H N O P CU I
UNIT 30 30 12 2 2 2 2
MERG 2
FMAP 2
GRID
PLAN 20
TEMP -100
BOND $H
L.S. 10
ACTA
WGHT    0.050400
FVAR       0.41554
I1    7    0.049236    0.222208    0.025657    11.00000    0.01607    0.01814 =
         0.02006    0.00861    0.00461    0.00627
CU1   6   -0.030314    0.051910    0.124566    11.00000    0.01520    0.02048 =
         0.01786    0.00792    0.00334    0.00699
P1    5    0.433693    0.550235    0.816581    11.00000    0.01451    0.02167 =
         0.01485    0.00886    0.00436    0.00824
O1    4    0.356252    0.563342    0.927141    11.00000    0.01956    0.03470 =
         0.01926    0.01517    0.00878    0.01377
N1    3    0.121152    0.121787    0.327038    11.00000    0.01472    0.02365 =
         0.01960    0.00977    0.00384    0.00642
N2    3    0.314359    0.465313    0.648482    11.00000    0.01903    0.02188 =
         0.01573    0.01051    0.00443    0.00806
AFIX  43
H2    2    0.287247    0.517738    0.608371    11.00000   -1.20000
AFIX   0
N5    3    0.519618    0.700091    0.828526    11.00000    0.01399    0.02296 =
         0.02096    0.01009    0.00529    0.00912
AFIX  43
H5    2    0.620275    0.712295    0.838593    11.00000   -1.20000
AFIX   0
N3    3    0.573558    0.467386    0.827276    11.00000    0.01911    0.02675 =
         0.01838    0.01358    0.00798    0.01253
AFIX  43
H3    2    0.589639    0.446695    0.898250    11.00000   -1.20000
AFIX   0
N6    3    0.243485    0.926980    0.839058    11.00000    0.01642    0.02224 =
         0.01702    0.00871    0.00321    0.00792
N4    3    0.744067    0.398917    0.529637    11.00000    0.02347    0.02532 =
         0.02036    0.01237    0.00993    0.00924
C12   1    0.670730    0.425138    0.739049    11.00000    0.01802    0.01840 =
         0.01916    0.00792    0.00638    0.00713
C18   1    0.455031    0.810449    0.824906    11.00000    0.01755    0.01895 =
         0.01359    0.00462    0.00269    0.00722
C11   1    0.135360    0.031857    0.381321    11.00000    0.02720    0.02091 =
         0.02786    0.01256    0.00337    0.00360
AFIX  43
H11   2    0.097212   -0.067596    0.317900    11.00000   -1.20000
AFIX   0
C8    1    0.253142    0.318589    0.565009    11.00000    0.01444    0.02442 =
         0.01955    0.01060    0.00776    0.00845
C17   1    0.304729    0.819045    0.837412    11.00000    0.01645    0.02042 =
         0.01725    0.00919    0.00426    0.00522
AFIX  43
H17   2    0.244457    0.746125    0.844951    11.00000   -1.20000
AFIX   0
C16   1    0.867088    0.353068    0.571292    11.00000    0.02727    0.03521 =
         0.03044    0.01805    0.01739    0.01720
AFIX  43
H16   2    0.935403    0.327946    0.513575    11.00000   -1.20000
AFIX   0
C7    1    0.180869    0.261219    0.417246    11.00000    0.01400    0.02368 =
         0.01950    0.01156    0.00664    0.00818
AFIX  43
H7    2    0.173623    0.324543    0.378497    11.00000   -1.20000
AFIX   0
C15   1    0.897829    0.341129    0.696383    11.00000    0.02513    0.03753 =
         0.03341    0.02315    0.01451    0.01938
AFIX  43
H15   2    0.986191    0.308513    0.723261    11.00000   -1.20000
AFIX   0
C19   1    0.541762    0.917108    0.812180    11.00000    0.01769    0.02458 =
         0.01761    0.00913    0.00563    0.00661
AFIX  43
H19   2    0.643737    0.914377    0.803375    11.00000   -1.20000
AFIX   0
C9    1    0.261728    0.224270    0.620255    11.00000    0.02726    0.02278 =
         0.01757    0.01016   -0.00050    0.00020
AFIX  43
H9    2    0.306667    0.258546    0.720693    11.00000   -1.20000
AFIX   0
C14   1    0.799094    0.376984    0.782022    11.00000    0.02007    0.02659 =
         0.02389    0.01395    0.00737    0.01231
AFIX  43
H14   2    0.818299    0.368989    0.867601    11.00000   -1.20000
AFIX   0
C13   1    0.649030    0.433816    0.612049    11.00000    0.01675    0.02308 =
         0.02164    0.01132    0.00613    0.00834
AFIX  43
H13   2    0.561846    0.466343    0.582395    11.00000   -1.20000
AFIX   0
C20   1    0.476845    1.026805    0.812596    11.00000    0.02219    0.02452 =
         0.02337    0.01290    0.00876    0.00851
AFIX  43
H20   2    0.533292    1.100357    0.803314    11.00000   -1.20000
AFIX   0
C10   1    0.203724    0.079895    0.526408    11.00000    0.04244    0.02872 =
         0.03060    0.02133    0.00286    0.00660
AFIX  43
H10   2    0.210970    0.013951    0.561846    11.00000   -1.20000
AFIX   0
C21   1    0.327523    1.028241    0.826802    11.00000    0.01948    0.02442 =
         0.02264    0.01302    0.00725    0.00893
AFIX  43
H21   2    0.283912    1.104435    0.827787    11.00000   -1.20000
AFIX   0
HKLF 4

END

WGHT      0.0504      0.0000

REM Highest difference peak  1.689,  deepest hole -0.755,  1-sigma level  0.149
Q1    1   0.0429  0.2074  0.1051  11.00000  0.05    1.69
Q2    1   0.0404  0.2257 -0.0558  11.00000  0.05    1.50
Q3    1   0.0379  0.1067 -0.0276  11.00000  0.05    1.16
Q4    1   0.0619  0.3347  0.0686  11.00000  0.05    1.04
Q5    1   0.0052  0.1543  0.1604  11.00000  0.05    0.74
Q6    1  -0.0429 -0.0159  0.1709  11.00000  0.05    0.70
Q7    1  -0.0143  0.0569  0.2145  11.00000  0.05    0.69
Q8    1   0.0000  0.0000  0.0000  10.50000  0.05    0.68
Q9    1   0.1224  0.3018  0.0803  11.00000  0.05    0.67
Q10   1   0.9343  0.5071  0.8218  11.00000  0.05    0.58
Q11   1   0.0794  0.1230  0.2530  11.00000  0.05    0.55
Q12   1   0.4382  0.5631  0.9054  11.00000  0.05    0.49
Q13   1   0.4130  0.5411  0.7237  11.00000  0.05    0.46
Q14   1   1.0295  0.3020  0.8624  11.00000  0.05    0.43
Q15   1   0.4755  0.6405  0.8236  11.00000  0.05    0.42
Q16   1   0.0725  0.3588 -0.0421  11.00000  0.05    0.42
Q17   1   0.2593  0.3753  0.6081  11.00000  0.05    0.42
Q18   1   0.1157  1.0835  0.8121  11.00000  0.05    0.42
Q19   1   0.8109  0.5849  0.8424  11.00000  0.05    0.41
Q20   1   0.2310  0.2845  0.4843  11.00000  0.05    0.41
;
_shelx_res_checksum              88597
_shelx_hkl_file
;
 -11  -1   4   10.24    2.12
 -11   0   3  243.23   10.39
 -11   0   4  127.17    7.55
 -11   0   5   55.78    4.73
 -11   1   2  104.98    7.02
 -11   1   3    1.21    1.41
 -11   1   4  134.32    7.70
 -11   2   1   68.96    5.65
 -11   2   2  240.90   10.63
 -11   2   3  314.90   11.91
 -11   3   1    9.16    2.30
 -11   3   2    1.22    1.22
 -11   3   2    1.31    0.97
 -11   3   3   54.16    4.39
 -10  -4   6   15.03    2.53
 -10  -4   7   71.31    5.12
 -10  -3   2    8.65    2.70
 -10  -3   3    8.59    2.01
 -10  -3   3    3.94    2.18
 -10  -3   4  151.36    8.66
 -10  -3   5  305.74   12.61
 -10  -3   6  304.00   12.49
 -10  -3   7  170.19    8.87
 -10  -3   8   91.17    5.82
 -10  -2   0   42.44    4.25
 -10  -2   1   35.16    4.58
 -10  -2   2   86.13    7.16
 -10  -2   2   91.03    6.78
 -10  -2   3   35.83    4.80
 -10  -2   3   26.10    4.33
 -10  -2   4  110.68    8.27
 -10  -2   5   24.22    4.13
 -10  -2   6   24.93    4.07
 -10  -2   7   -0.37    1.35
 -10  -2   8   20.38    2.89
 -10  -1  -1   -4.29    2.45
 -10  -1   0    0.85    2.25
 -10  -1   1   67.11    6.24
 -10  -1   1   62.53    6.57
 -10  -1   2  209.65   11.57
 -10  -1   2  220.30   11.97
 -10  -1   3  227.58   12.35
 -10  -1   3  204.15   10.62
 -10  -1   4  204.67   11.84
 -10  -1   5   49.29    5.89
 -10  -1   6   56.69    5.97
 -10  -1   7   41.92    4.63
 -10  -1   8  241.80    8.93
 -10   0  -1   87.40    6.59
 -10   0   0  455.11   16.22
 -10   0   0  420.31   15.54
 -10   0   1  481.49   17.81
 -10   0   1  459.27   17.04
 -10   0   2  591.93   19.12
 -10   0   2  609.85   21.09
 -10   0   3  132.12    9.95
 -10   0   4    8.79    3.25
 -10   0   5   25.91    4.30
 -10   0   5   24.67    3.61
 -10   0   6   13.15    2.62
 -10   0   6   13.98    3.15
 -10   0   7   38.79    4.27
 -10   0   7   29.90    3.30
 -10   1  -1   40.24    4.95
 -10   1  -1   39.80    4.75
 -10   1   0   41.37    5.35
 -10   1   0   37.00    4.95
 -10   1   1    4.12    2.44
 -10   1   1    3.20    3.09
 -10   1   1    8.22    2.59
 -10   1   2   10.85    3.63
 -10   1   2   14.67    3.32
 -10   1   2    7.95    2.60
 -10   1   3    5.13    2.76
 -10   1   3    6.89    2.53
 -10   1   4  142.16    9.19
 -10   1   4  134.39    9.86
 -10   1   5   41.48    4.91
 -10   1   5   45.25    5.55
 -10   1   6  296.19   12.06
 -10   1   6  289.53   11.78
 -10   1   7  157.53    7.77
 -10   2  -1  117.80    8.69
 -10   2  -1  110.19    7.55
 -10   2   0  109.13    8.86
 -10   2   0  102.23    7.88
 -10   2   1   33.86    5.50
 -10   2   1   30.16    4.57
 -10   2   2   80.60    7.92
 -10   2   2   67.07    6.85
 -10   2   3  400.65   16.00
 -10   2   3  412.11   17.12
 -10   2   4  294.36   13.33
 -10   2   4  269.64   13.28
 -10   2   5  452.63   15.95
 -10   2   5  440.38   15.18
 -10   2   6  112.51    7.42
 -10   2   7   48.16    4.17
 -10   3  -2  100.30    6.82
 -10   3  -2   81.95    5.69
 -10   3  -1    3.69    2.06
 -10   3  -1    3.48    2.32
 -10   3   0    7.64    2.97
 -10   3   0    3.95    2.30
 -10   3   1   10.26    2.95
 -10   3   1    8.07    2.87
 -10   3   2   18.75    3.76
 -10   3   2   13.29    3.73
 -10   3   3   45.61    5.57
 -10   3   3   53.15    5.90
 -10   3   4   -0.15    1.53
 -10   3   4    1.10    1.76
 -10   3   5    6.06    2.28
 -10   3   6    3.03    1.43
 -10   4  -2   59.20    4.97
 -10   4  -2   72.99    6.06
 -10   4  -1  159.67    9.45
 -10   4  -1  140.24    9.67
 -10   4  -1  130.34    7.53
 -10   4   0  264.05   13.65
 -10   4   0  281.08   13.01
 -10   4   1  384.47   16.10
 -10   4   1  371.75   15.19
 -10   4   2  209.93   11.64
 -10   4   2  242.23   12.08
 -10   4   2  226.59   10.75
 -10   4   3  189.92    9.93
 -10   4   3  206.48   10.90
 -10   4   4   58.93    5.64
 -10   4   5  102.36    6.70
 -10   4   6  150.34    6.93
 -10   5  -2  257.78   11.11
 -10   5  -2  239.98    9.63
 -10   5  -1  404.52   12.62
 -10   5  -1  456.55   15.43
 -10   5   0  447.16   16.26
 -10   5   0  479.92   16.32
 -10   5   1   61.14    5.97
 -10   5   1   56.50    5.23
 -10   5   1   54.48    5.63
 -10   5   2    5.07    2.32
 -10   5   2    8.43    2.34
 -10   5   3   20.12    3.35
 -10   5   4    1.91    1.51
 -10   5   5    1.39    1.05
 -10   6  -2   12.34    2.54
 -10   6  -1    8.51    2.47
 -10   6   0  131.48    7.90
 -10   6   0  131.75    7.19
 -10   6   1  225.74    9.91
 -10   6   1  231.97   10.27
 -10   6   2   75.64    5.77
 -10   6   2   76.47    5.71
 -10   6   3  108.98    6.59
 -10   6   3  110.77    6.31
 -10   7  -1   42.42    3.87
 -10   7   0   27.25    3.17
 -10   7   1  144.29    7.15
  -9  -6   4   57.84    5.33
  -9  -6   5  116.25    6.96
  -9  -5   2  123.21    8.26
  -9  -5   3  183.42   10.67
  -9  -5   4  398.28   15.31
  -9  -5   5  261.30   11.72
  -9  -5   5  246.46   10.80
  -9  -5   6  189.38    9.97
  -9  -5   7    8.02    2.25
  -9  -5   8    4.54    1.83
  -9  -5   9   12.56    2.61
  -9  -4   0   15.52    3.29
  -9  -4   1   11.57    4.29
  -9  -4   2   62.35    7.07
  -9  -4   3  138.93   10.47
  -9  -4   4   -1.13    3.41
  -9  -4   4    4.24    2.19
  -9  -4   5   19.95    3.85
  -9  -4   5   18.84    3.98
  -9  -4   6  160.18   10.56
  -9  -4   7   74.15    7.10
  -9  -4   8  150.54    9.26
  -9  -4   9  153.04    8.41
  -9  -3  -1  117.89    7.25
  -9  -3   0  163.54   10.35
  -9  -3   1  125.96   10.31
  -9  -3   2  292.63   13.48
  -9  -3   2  327.63   16.48
  -9  -3   3  181.26   11.27
  -9  -3   3  184.56   12.40
  -9  -3   4   74.35    7.66
  -9  -3   4   73.58    7.54
  -9  -3   5   69.29    7.59
  -9  -3   6  214.31   12.79
  -9  -3   7  463.51   18.23
  -9  -3   8  397.16   15.64
  -9  -3   9   47.32    4.82
  -9  -2  -2  317.92   11.16
  -9  -2  -1  245.13   12.24
  -9  -2   0  443.56   18.11
  -9  -2   1  203.08   11.89
  -9  -2   1  221.04   14.10
  -9  -2   2   99.00    8.70
  -9  -2   2  115.61   10.60
  -9  -2   3   42.89    6.53
  -9  -2   3   41.50    6.12
  -9  -2   4   -2.41    2.23
  -9  -2   4    8.71    3.75
  -9  -2   5   57.60    7.17
  -9  -2   6   78.46    8.21
  -9  -2   7    4.05    2.66
  -9  -2   8   42.08    5.24
  -9  -2   9  131.25    7.62
  -9  -1  -2   38.54    4.74
  -9  -1  -2   31.16    3.95
  -9  -1  -1    4.94    3.70
  -9  -1   0  165.73   12.35
  -9  -1   0  142.04   10.32
  -9  -1   1  284.84   15.35
  -9  -1   1  302.10   16.89
  -9  -1   2  128.00   10.42
  -9  -1   2  118.70   10.83
  -9  -1   3  290.51   15.39
  -9  -1   3  308.20   16.35
  -9  -1   4  189.89   13.05
  -9  -1   5  240.86   14.51
  -9  -1   6  123.36    8.63
  -9  -1   6  129.52   10.44
  -9  -1   7   78.56    7.54
  -9  -1   7   63.96    5.91
  -9  -1   8  117.45    7.33
  -9  -1   8  124.60    8.41
  -9  -1   9  143.47    7.04
  -9  -1   9  142.33    6.78
  -9   0  -3  127.99    7.92
  -9   0  -3  136.81    7.98
  -9   0  -2  168.67    9.91
  -9   0  -2  164.14    9.92
  -9   0  -2  170.93   10.93
  -9   0  -1  119.79    8.90
  -9   0  -1  117.46   10.26
  -9   0  -1  129.48    9.95
  -9   0   0   52.14    7.58
  -9   0   0   58.89    7.15
  -9   0   1  295.03   16.28
  -9   0   1  272.36   15.56
  -9   0   2  890.51   27.60
  -9   0   2  847.01   27.53
  -9   0   3  330.15   15.72
  -9   0   3  388.06   18.60
  -9   0   4  129.06   10.81
  -9   0   4  118.18    9.39
  -9   0   5    6.02    2.83
  -9   0   5    1.65    1.79
  -9   0   6   78.75    7.34
  -9   0   6   70.22    7.32
  -9   0   7   19.06    3.64
  -9   0   7   14.88    3.42
  -9   0   8   24.89    3.42
  -9   0   8   25.23    3.78
  -9   0   9    5.68    1.57
  -9   1  -4   43.82    4.33
  -9   1  -3    2.67    2.26
  -9   1  -2   14.64    3.85
  -9   1  -2   18.76    4.06
  -9   1  -2   12.02    3.34
  -9   1  -1    7.42    4.57
  -9   1  -1   19.07    4.58
  -9   1  -1   13.24    3.51
  -9   1  -1   22.62    4.31
  -9   1   0    0.56    1.79
  -9   1   0   -2.37    4.43
  -9   1   0    5.00    2.42
  -9   1   1    7.30    3.10
  -9   1   1    2.45    2.80
  -9   1   1    5.06    3.05
  -9   1   2    4.48    2.90
  -9   1   2    3.32    2.55
  -9   1   2    4.48    2.73
  -9   1   3   75.75    8.26
  -9   1   3   63.73    7.36
  -9   1   4  386.61   17.39
  -9   1   4  404.63   18.36
  -9   1   5  534.95   20.48
  -9   1   5  560.17   20.43
  -9   1   6  398.30   16.74
  -9   1   6  401.99   16.38
  -9   1   7  140.59    9.36
  -9   1   7  153.91    8.89
  -9   1   8  125.47    7.82
  -9   1   9   84.78    5.23
  -9   2  -4  189.44    9.76
  -9   2  -4  201.25    9.92
  -9   2  -3  294.02   13.74
  -9   2  -3  269.82   13.38
  -9   2  -2  535.37   20.95
  -9   2  -2  545.18   20.62
  -9   2  -2  494.83   18.96
  -9   2  -2  525.85   19.45
  -9   2  -1  245.90   14.06
  -9   2  -1  250.26   15.28
  -9   2  -1  238.68   14.61
  -9   2  -1  231.75   13.20
  -9   2   0  375.37   18.14
  -9   2   0  378.12   17.53
  -9   2   0  407.98   19.14
  -9   2   1   51.76    6.88
  -9   2   1   61.60    7.82
  -9   2   1   49.96    6.54
  -9   2   2   97.88    9.55
  -9   2   2   94.67    8.93
  -9   2   3  357.28   17.65
  -9   2   3  355.05   17.08
  -9   2   4  120.33    9.95
  -9   2   4  114.12    9.71
  -9   2   5  420.10   17.04
  -9   2   5  440.28   18.35
  -9   2   6  234.42   12.68
  -9   2   7   18.89    3.54
  -9   2   8   10.80    2.47
  -9   3  -5  115.60    6.60
  -9   3  -4  204.67   11.37
  -9   3  -4  188.63   10.41
  -9   3  -3  224.97   12.49
  -9   3  -3  214.29   12.83
  -9   3  -3  218.41   12.04
  -9   3  -2   94.19    8.62
  -9   3  -2   95.76    9.25
  -9   3  -2   98.97    8.83
  -9   3  -2   85.87    8.52
  -9   3  -1   55.44    6.95
  -9   3  -1   66.34    7.37
  -9   3  -1   53.64    6.50
  -9   3  -1   53.89    7.58
  -9   3   0   46.37    5.88
  -9   3   0   60.57    7.67
  -9   3   0   62.27    7.36
  -9   3   0   62.89    7.65
  -9   3   1  119.93   10.66
  -9   3   1  108.01    9.67
  -9   3   1  116.62    9.60
  -9   3   2  145.09   11.40
  -9   3   2  135.96   10.66
  -9   3   3    1.46    2.16
  -9   3   3   -0.59    2.04
  -9   3   4   22.93    4.20
  -9   3   4   22.63    4.57
  -9   3   5    4.02    2.17
  -9   3   6  122.04    8.84
  -9   3   7  287.04   11.95
  -9   3   8  211.53    8.34
  -9   4  -5    4.29    1.94
  -9   4  -5    3.27    1.41
  -9   4  -4    2.39    1.83
  -9   4  -3    3.12    2.29
  -9   4  -3    8.62    3.10
  -9   4  -2  196.15   13.35
  -9   4  -2  202.57   12.53
  -9   4  -2  201.60   12.29
  -9   4  -1  490.46   20.90
  -9   4  -1  440.25   18.06
  -9   4  -1  510.62   19.98
  -9   4   0  563.64   22.71
  -9   4   0  588.86   21.54
  -9   4   1  395.10   17.95
  -9   4   1  400.21   18.54
  -9   4   2  115.96    9.55
  -9   4   2  115.53    9.65
  -9   4   3  189.90   12.11
  -9   4   3  177.71   11.17
  -9   4   4  129.57    9.63
  -9   4   5  148.78    9.76
  -9   4   6   79.84    6.52
  -9   4   7  140.77    7.23
  -9   5  -5   34.76    3.97
  -9   5  -5   39.93    4.69
  -9   5  -4   60.98    6.10
  -9   5  -4   56.00    5.72
  -9   5  -3  317.74   14.48
  -9   5  -3  313.50   14.51
  -9   5  -2  110.78    9.78
  -9   5  -2  118.78    9.42
  -9   5  -2  122.19    9.40
  -9   5  -1  101.59    7.88
  -9   5  -1  105.21    9.74
  -9   5  -1  104.47    8.71
  -9   5  -1  104.50    8.88
  -9   5   0  243.97   14.21
  -9   5   0  238.43   13.56
  -9   5   0  227.20   12.39
  -9   5   0  231.70   12.52
  -9   5   1  118.04    9.49
  -9   5   1  120.89    9.57
  -9   5   2  103.27    8.62
  -9   5   3   12.54    3.58
  -9   5   4   94.84    7.71
  -9   5   5  180.56    9.56
  -9   5   6    3.56    1.52
  -9   6  -5   31.63    4.06
  -9   6  -5   37.92    4.04
  -9   6  -4   33.50    4.34
  -9   6  -4   30.54    4.24
  -9   6  -3  218.68   11.57
  -9   6  -3  212.40   11.33
  -9   6  -2   15.74    3.62
  -9   6  -2   18.28    3.62
  -9   6  -2   16.41    3.20
  -9   6  -1    5.66    2.40
  -9   6  -1    6.23    2.50
  -9   6  -1    3.74    2.70
  -9   6  -1    4.54    2.37
  -9   6   0   16.33    3.68
  -9   6   0   18.26    3.82
  -9   6   0   19.39    4.12
  -9   6   0   17.49    3.55
  -9   6   1  147.09    9.75
  -9   6   1  144.37   10.14
  -9   6   2  565.99   18.30
  -9   6   3  752.07   20.03
  -9   6   4  325.39   12.04
  -9   6   5  133.86    6.61
  -9   7  -5  701.32   15.38
  -9   7  -5  692.15   16.37
  -9   7  -4  255.85   10.76
  -9   7  -3  116.87    7.93
  -9   7  -3  122.27    7.97
  -9   7  -2   93.59    7.32
  -9   7  -2   99.59    7.55
  -9   7  -2   80.85    6.62
  -9   7  -1   28.82    4.16
  -9   7  -1   32.68    4.61
  -9   7  -1   24.13    4.04
  -9   7   0  191.54   10.80
  -9   7   0  179.17    9.90
  -9   7   0  175.48    9.47
  -9   7   1  170.23    9.32
  -9   7   1  181.49   10.44
  -9   7   2   93.10    6.53
  -9   7   2   99.61    7.53
  -9   7   3   22.72    2.97
  -9   7   3   21.67    3.46
  -9   7   4   46.05    4.12
  -9   8  -4    2.13    1.19
  -9   8  -3   -0.09    0.88
  -9   8  -3    1.76    1.73
  -9   8  -3    3.52    1.48
  -9   8  -2   53.27    4.70
  -9   8  -2   61.62    5.39
  -9   8  -2   56.62    5.25
  -9   8  -1  141.15    8.59
  -9   8  -1  126.49    7.13
  -9   8  -1  136.24    7.75
  -9   8   0  223.70   10.67
  -9   8   0  218.34    8.99
  -9   8   0  201.60    8.65
  -9   8   1   67.78    5.80
  -9   8   2    9.64    2.24
  -9   9  -2  547.89   13.80
  -9   9  -1  345.82   11.33
  -9   9   0   47.93    4.21
  -8  -7   2   88.18    6.13
  -8  -7   3  110.19    7.64
  -8  -7   4   55.22    5.99
  -8  -7   5    2.87    1.76
  -8  -7   6    3.15    1.87
  -8  -7   8   -2.91    1.40
  -8  -7   9   10.67    2.12
  -8  -6   1   -0.82    2.84
  -8  -6   2    6.22    2.51
  -8  -6   3  125.50    9.73
  -8  -6   4  351.36   16.56
  -8  -6   5  273.84   14.30
  -8  -6   6  220.70   11.78
  -8  -6   6  225.21   11.64
  -8  -6   7  108.06    8.18
  -8  -6   8   62.28    6.17
  -8  -6   9   74.48    6.41
  -8  -6  10   91.63    6.18
  -8  -5   0   89.99    7.58
  -8  -5   1   86.89    8.16
  -8  -5   2  144.94   11.45
  -8  -5   3  314.63   16.73
  -8  -5   4  235.96   12.35
  -8  -5   4  257.22   15.29
  -8  -5   5  220.58   12.57
  -8  -5   5  223.14   13.65
  -8  -5   6   90.83    8.45
  -8  -5   7   17.40    4.12
  -8  -5  11    7.69    1.78
  -8  -4  -1   22.44    4.83
  -8  -4   0   -1.33    4.31
  -8  -4   1  134.15   10.91
  -8  -4   2   25.16    5.61
  -8  -4   3   14.75    3.21
  -8  -4   3   13.04    4.09
  -8  -4   4   32.06    5.45
  -8  -4   4   27.02    5.38
  -8  -4   5   -0.96    2.26
  -8  -4   5    6.70    3.50
  -8  -4   6  161.90   11.92
  -8  -4  11  128.98    6.15
  -8  -3  -2  223.04   10.91
  -8  -3  -2  235.24   11.38
  -8  -3  -1  256.10   12.64
  -8  -3  -1  275.77   14.75
  -8  -3   0  726.38   25.68
  -8  -3   1  368.64   18.92
  -8  -3   2   72.23    8.91
  -8  -3   2   62.97    7.07
  -8  -3   3   32.14    6.12
  -8  -3   3   37.77    5.94
  -8  -3   4  128.72   11.02
  -8  -3   4  127.13   10.63
  -8  -3   5  393.11   18.88
  -8  -3   8   67.42    7.40
  -8  -3   9   79.78    7.37
  -8  -3  10   12.62    2.67
  -8  -2  -3  155.94    9.40
  -8  -2  -3  152.29    8.72
  -8  -2  -2  380.66   16.52
  -8  -2  -2  347.79   15.49
  -8  -2  -1  161.04   11.14
  -8  -2  -1  195.77   13.37
  -8  -2   0  127.82   10.13
  -8  -2   0  139.38   12.09
  -8  -2   1   68.53    9.04
  -8  -2   1   78.10    8.24
  -8  -2   2    0.79    1.97
  -8  -2   2    6.48    4.18
  -8  -2   3    9.64    3.80
  -8  -2   3    1.30    2.29
  -8  -2   4   71.11    7.99
  -8  -2   4   71.13    8.38
  -8  -2   5   95.25    9.61
  -8  -2   9  146.89    9.59
  -8  -2   9  128.99    7.98
  -8  -2  10  214.00    8.54
  -8  -2  10  222.44    9.38
  -8  -1  -4   56.63    5.62
  -8  -1  -4   47.15    4.37
  -8  -1  -3    7.25    2.96
  -8  -1  -3   -3.94    4.11
  -8  -1  -2   70.69    7.80
  -8  -1  -2   74.39    8.54
  -8  -1  -1    8.13    3.32
  -8  -1  -1   -1.01    1.97
  -8  -1   0   49.18    7.65
  -8  -1   0   46.29    6.86
  -8  -1   1  215.73   15.19
  -8  -1   1  220.29   13.93
  -8  -1   2  996.62   29.46
  -8  -1   2  992.92   31.26
  -8  -1   3 1301.07   34.19
  -8  -1   3 1285.50   33.69
  -8  -1   4  474.52   20.62
  -8  -1   4  440.16   17.96
  -8  -1   5  154.14   12.00
  -8  -1   5  143.59   10.40
  -8  -1   6   13.81    4.11
  -8  -1   6   11.31    3.38
  -8  -1   7  124.60    9.65
  -8  -1   7  130.68   10.59
  -8  -1   8  184.32   11.59
  -8  -1   8  165.89   10.47
  -8  -1   9  135.89    8.43
  -8  -1   9  115.83    7.99
  -8  -1  10  174.56    8.19
  -8   0  -5  433.65   14.06
  -8   0  -4  218.23   12.12
  -8   0  -4  227.68   11.32
  -8   0  -3   56.06    6.97
  -8   0  -3   48.62    6.63
  -8   0  -2   24.39    5.27
  -8   0  -2   30.02    6.66
  -8   0  -2   23.23    4.85
  -8   0  -1  163.55   11.68
  -8   0  -1  153.52   11.82
  -8   0  -1  155.52   11.92
  -8   0  -1  165.53   13.24
  -8   0   0  332.46   16.74
  -8   0   0  335.89   18.47
  -8   0   0  305.58   16.85
  -8   0   0  304.58   15.90
  -8   0   1  698.74   24.79
  -8   0   1  667.77   25.34
  -8   0   1  661.09   23.30
  -8   0   2  106.53   10.14
  -8   0   2  107.04    9.41
  -8   0   2  111.45   10.10
  -8   0   3   13.39    3.45
  -8   0   3   15.17    3.99
  -8   0   4   49.77    6.97
  -8   0   4   40.91    5.99
  -8   0   5    6.50    3.12
  -8   0   5    2.52    2.23
  -8   0   6    3.82    1.89
  -8   0   6    6.29    2.93
  -8   0   7  124.51    9.90
  -8   0   7  118.82    9.52
  -8   0   8   61.43    6.14
  -8   0   8   54.48    6.11
  -8   0   9   42.29    4.92
  -8   0  10    5.40    1.75
  -8   1  -5   11.92    3.18
  -8   1  -4    8.55    2.84
  -8   1  -4   16.23    3.85
  -8   1  -4   11.39    3.43
  -8   1  -3   32.62    5.47
  -8   1  -3   29.75    5.31
  -8   1  -3   41.29    6.48
  -8   1  -2   22.86    4.92
  -8   1  -2   26.78    5.38
  -8   1  -2   26.90    6.18
  -8   1  -2   20.90    4.84
  -8   1  -1   46.03    7.03
  -8   1  -1   38.37    6.46
  -8   1  -1   34.56    6.48
  -8   1  -1   43.78    6.65
  -8   1   0  204.29   14.19
  -8   1   0  199.38   13.62
  -8   1   0  202.03   13.11
  -8   1   0  193.61   12.89
  -8   1   1  116.77   10.61
  -8   1   1   96.75    9.16
  -8   1   1  101.36    9.90
  -8   1   2   37.81    6.09
  -8   1   2   39.56    6.14
  -8   1   2   40.48    5.95
  -8   1   3  213.83   13.83
  -8   1   3  217.83   13.30
  -8   1   4   71.22    7.77
  -8   1   4   78.38    8.45
  -8   1   5  821.84   25.95
  -8   1   5  811.01   25.95
  -8   1   6  783.72   24.29
  -8   1   6  747.26   24.93
  -8   1   7  318.27   15.73
  -8   1   8  257.08   13.07
  -8   1   9   22.99    3.55
  -8   1  10   35.59    3.37
  -8   2  -6    7.22    2.13
  -8   2  -5  123.23    9.29
  -8   2  -5  131.54    9.69
  -8   2  -4  240.02   14.25
  -8   2  -4  224.11   12.92
  -8   2  -3  704.06   25.93
  -8   2  -3  690.64   25.76
  -8   2  -3  730.00   25.30
  -8   2  -3  664.29   24.29
  -8   2  -2  657.02   24.90
  -8   2  -2  633.22   24.60
  -8   2  -2  627.06   24.69
  -8   2  -2  617.97   23.58
  -8   2  -1  443.79   21.10
  -8   2  -1  423.00   19.40
  -8   2  -1  397.49   19.18
  -8   2  -1  397.28   19.60
  -8   2   0   30.61    5.28
  -8   2   0   38.63    6.26
  -8   2   0   44.96    6.42
  -8   2   0   32.86    5.90
  -8   2   1   76.90    8.55
  -8   2   1   84.55    8.57
  -8   2   1   78.57    8.91
  -8   2   2  392.20   18.03
  -8   2   2  418.02   19.01
  -8   2   3  139.67   11.00
  -8   2   3  146.20   11.37
  -8   2   4  320.55   16.51
  -8   2   4  299.86   15.76
  -8   2   5  136.21   10.16
  -8   2   5  139.16   10.95
  -8   2   6  101.84    9.31
  -8   2   7   17.35    3.81
  -8   2   8   -1.52    2.06
  -8   2   9   29.79    3.63
  -8   3  -6   31.83    4.45
  -8   3  -6   30.03    4.15
  -8   3  -5  164.62   10.94
  -8   3  -5  181.30   12.26
  -8   3  -4  234.80   14.30
  -8   3  -4  222.61   13.32
  -8   3  -4  238.52   14.03
  -8   3  -3  138.05   11.35
  -8   3  -3  159.14   12.18
  -8   3  -3  126.95   11.21
  -8   3  -3  142.52   11.99
  -8   3  -2   16.70    4.43
  -8   3  -2   14.84    4.19
  -8   3  -2   11.47    3.87
  -8   3  -2   11.09    3.94
  -8   3  -1    2.93    2.50
  -8   3  -1    5.62    3.24
  -8   3  -1    4.24    2.80
  -8   3  -1    0.40    2.94
  -8   3   0    2.59    2.59
  -8   3   0    2.90    2.68
  -8   3   0    3.91    2.60
  -8   3   0    2.30    2.52
  -8   3   1  258.71   14.81
  -8   3   1  244.63   14.52
  -8   3   1  273.11   15.62
  -8   3   2  193.96   13.25
  -8   3   2  196.25   12.89
  -8   3   3  191.17   12.74
  -8   3   3  199.80   12.94
  -8   3   4  200.81   12.19
  -8   3   4  216.25   13.54
  -8   3   5   28.50    5.12
  -8   3   6   64.99    7.18
  -8   3   7  112.00    8.68
  -8   3   8  382.94   13.71
  -8   3   9  448.65   11.37
  -8   4  -6   91.58    7.84
  -8   4  -6   82.89    6.86
  -8   4  -5  174.50   11.36
  -8   4  -4  106.55    9.65
  -8   4  -4  113.12   10.24
  -8   4  -3   43.48    7.02
  -8   4  -3   50.05    6.89
  -8   4  -3   47.91    7.10
  -8   4  -2  106.32   10.27
  -8   4  -2  104.49    9.81
  -8   4  -2   93.31    9.37
  -8   4  -2  108.90   10.67
  -8   4  -1  405.93   17.15
  -8   4  -1  409.68   19.26
  -8   4  -1  452.15   19.76
  -8   4  -1  418.94   20.37
  -8   4  -1  431.32   20.14
  -8   4   0 1346.65   34.74
  -8   4   0 1359.28   36.28
  -8   4   0 1332.43   33.41
  -8   4   1  724.10   24.37
  -8   4   1  766.46   25.85
  -8   4   2  697.53   23.82
  -8   4   2  723.77   24.24
  -8   4   3  145.42   10.96
  -8   4   4    9.25    3.34
  -8   4   5    9.03    3.25
  -8   4   6   90.61    7.90
  -8   4   7  156.41    9.03
  -8   4   8   41.61    3.83
  -8   5  -7  479.66   12.39
  -8   5  -7  515.47   14.67
  -8   5  -6  479.84   16.15
  -8   5  -6  510.25   18.59
  -8   5  -5   55.51    6.50
  -8   5  -4   13.26    3.97
  -8   5  -4    8.49    3.27
  -8   5  -3    8.65    3.49
  -8   5  -3    8.97    3.79
  -8   5  -3   14.54    4.18
  -8   5  -2   52.84    7.03
  -8   5  -2   43.42    6.92
  -8   5  -2   42.94    6.58
  -8   5  -2   43.63    5.94
  -8   5  -1  392.42   19.65
  -8   5  -1  340.48   16.58
  -8   5  -1  376.34   18.27
  -8   5  -1  411.86   18.71
  -8   5   0  218.57   14.50
  -8   5   0  203.45   13.09
  -8   5   1   61.63    7.69
  -8   5   1   62.96    7.34
  -8   5   2  202.38   12.69
  -8   5   3  158.06   11.12
  -8   5   4   62.11    6.86
  -8   5   5   87.43    7.62
  -8   5   6   63.54    5.74
  -8   5   7   85.20    5.40
  -8   6  -7    0.62    1.44
  -8   6  -7    0.58    1.27
  -8   6  -6   20.64    4.20
  -8   6  -6   13.56    3.04
  -8   6  -5  266.17   13.34
  -8   6  -5  280.52   13.56
  -8   6  -4  169.63   11.50
  -8   6  -4  179.04   12.00
  -8   6  -3  157.72   11.49
  -8   6  -3  161.51   10.73
  -8   6  -3  161.52   11.56
  -8   6  -2  131.73   10.75
  -8   6  -2  125.82   11.12
  -8   6  -2  114.49    9.64
  -8   6  -2  132.03   10.29
  -8   6  -1   35.96    5.61
  -8   6  -1   28.90    5.52
  -8   6  -1   38.73    5.83
  -8   6   0  158.37   11.62
  -8   6   0  148.08   10.67
  -8   6   1  180.28   11.58
  -8   6   2  193.06   11.73
  -8   6   3  515.99   18.43
  -8   6   4  590.28   18.37
  -8   6   5  289.21   11.52
  -8   6   6   81.06    4.93
  -8   7  -6  212.65    9.92
  -8   7  -6  227.09   11.37
  -8   7  -5  232.65   11.88
  -8   7  -4  445.00   17.46
  -8   7  -4  488.36   18.36
  -8   7  -4  431.96   15.90
  -8   7  -3  553.10   20.26
  -8   7  -3  534.12   19.18
  -8   7  -3  521.73   19.16
  -8   7  -2   70.39    7.20
  -8   7  -2   76.19    7.80
  -8   7  -1    3.99    2.36
  -8   7  -1    6.48    2.76
  -8   7   0    2.28    2.36
  -8   7   0    2.66    1.84
  -8   7   1   41.86    5.24
  -8   7   2  246.07   11.84
  -8   7   3   81.60    6.39
  -8   7   4   10.68    2.13
  -8   7   5   49.70    4.11
  -8   8  -6  125.16    7.20
  -8   8  -6  139.74    7.34
  -8   8  -5   52.97    5.35
  -8   8  -5   43.72    4.27
  -8   8  -4    2.80    1.42
  -8   8  -4    2.70    1.69
  -8   8  -4    1.36    2.03
  -8   8  -3   95.60    8.07
  -8   8  -3  102.23    8.33
  -8   8  -3   88.89    7.20
  -8   8  -2  202.16   12.12
  -8   8  -2  204.03   10.92
  -8   8  -1  237.09   11.42
  -8   8  -1  246.23   13.54
  -8   8   0  163.16   10.78
  -8   8   0  151.55    8.80
  -8   8   1  175.76   10.80
  -8   8   2  190.55   10.60
  -8   8   3  111.27    7.14
  -8   9  -5  213.39    8.74
  -8   9  -5  235.50    9.75
  -8   9  -4  202.43    9.87
  -8   9  -4  182.59    9.48
  -8   9  -3  166.95    9.77
  -8   9  -3  165.63    9.49
  -8   9  -2  407.00   15.86
  -8   9  -1  356.90   14.83
  -8   9   0  243.96   11.81
  -8   9   1  161.54    8.92
  -8   9   2   13.39    2.34
  -8  10  -4    3.88    1.26
  -8  10  -4    5.23    1.50
  -8  10  -3   25.37    3.25
  -8  10  -3   25.10    3.43
  -8  10  -2    4.66    1.47
  -8  10  -2    2.74    1.43
  -8  10  -1    2.09    1.28
  -7  -9   4    1.26    1.38
  -7  -9   5    3.71    1.63
  -7  -9   6   28.89    3.74
  -7  -9   7   -0.72    1.21
  -7  -8   2  262.61   10.88
  -7  -8   3  481.85   16.89
  -7  -8   4  125.74    9.44
  -7  -8   5   12.83    3.53
  -7  -8   6   48.61    5.91
  -7  -8   7   48.74    5.29
  -7  -8   9  186.29    8.68
  -7  -7   1  209.35   10.91
  -7  -7   2  179.20   11.53
  -7  -7   3    6.63    3.10
  -7  -7   4   -0.71    3.07
  -7  -7   5   -0.52    3.25
  -7  -7   6   13.03    3.56
  -7  -7   7    4.88    2.81
  -7  -7  10   31.74    3.69
  -7  -6   1   71.86    7.71
  -7  -6   2   38.09    6.39
  -7  -6   3  108.46   10.85
  -7  -6   4  387.12   19.77
  -7  -6   5  292.76   16.93
  -7  -6   5  249.62   13.40
  -7  -6   6  578.14   22.15
  -7  -6   8  103.39    8.17
  -7  -6   9   35.22    4.72
  -7  -6  10   76.44    6.45
  -7  -6  11  129.19    7.15
  -7  -5  -1  133.78    9.46
  -7  -5  -1  154.52    9.78
  -7  -5   0  157.46   11.64
  -7  -5   1   93.92    9.85
  -7  -5   2  211.97   15.26
  -7  -5   3  269.64   17.32
  -7  -5   4  187.08   14.37
  -7  -5   4  188.75   12.21
  -7  -5   5  266.55   16.10
  -7  -5   6   41.52    5.67
  -7  -5   6   34.69    5.65
  -7  -5   7    0.09    1.81
  -7  -5   8   70.19    7.52
  -7  -5   9   23.96    4.44
  -7  -5  10   64.67    6.44
  -7  -5  11   69.65    5.78
  -7  -4  -3   65.84    6.01
  -7  -4  -2   43.68    5.96
  -7  -4  -2   41.60    5.70
  -7  -4  -1   12.42    3.74
  -7  -4  -1   22.19    4.57
  -7  -4   0   13.76    3.83
  -7  -4   0   14.05    4.71
  -7  -4   1    0.66    2.87
  -7  -4   2   18.07    5.32
  -7  -4   3  216.16   15.25
  -7  -4   3  213.37   13.15
  -7  -4   4  197.46   14.16
  -7  -4   4  190.57   12.74
  -7  -4   5  132.10   11.52
  -7  -4   6   47.87    6.57
  -7  -4   7  188.49   12.86
  -7  -4   8  498.33   20.46
  -7  -4   9  704.48   23.58
  -7  -4  10  280.77   13.58
  -7  -4  11   68.46    5.78
  -7  -3  -4  123.80    8.20
  -7  -3  -3  303.79   13.25
  -7  -3  -3  305.75   15.09
  -7  -3  -2  374.90   18.18
  -7  -3  -2  390.92   17.58
  -7  -3  -1  188.14   13.02
  -7  -3  -1  179.54   13.27
  -7  -3   0  306.49   16.46
  -7  -3   0  347.33   18.73
  -7  -3   1  706.19   27.10
  -7  -3   1  697.49   23.15
  -7  -3   2  423.90   18.33
  -7  -3   2  413.69   20.71
  -7  -3   3  347.17   18.67
  -7  -3   3  342.14   16.96
  -7  -3   4   17.55    4.43
  -7  -3   5    6.58    2.79
  -7  -3   6   35.97    5.92
  -7  -3   7  423.06   19.72
  -7  -3   8  309.60   16.72
  -7  -3   9   70.69    7.82
  -7  -3  10    8.96    2.84
  -7  -3  11  143.78    8.13
  -7  -2  -5   35.73    4.53
  -7  -2  -4    8.47    3.18
  -7  -2  -4    2.25    2.25
  -7  -2  -3  115.70    9.65
  -7  -2  -3   88.87    9.21
  -7  -2  -2  109.38   10.40
  -7  -2  -2   98.04    9.94
  -7  -2  -1  306.78   17.30
  -7  -2  -1  299.73   17.01
  -7  -2   0  189.37   12.46
  -7  -2   0  188.83   14.10
  -7  -2   0  182.95   12.97
  -7  -2   1    3.54    2.94
  -7  -2   1    5.22    2.66
  -7  -2   2   58.80    7.05
  -7  -2   2   56.67    7.80
  -7  -2   2   58.29   16.45
  -7  -2   3  192.57   13.38
  -7  -2   3  210.01   30.07
  -7  -2   3  201.99   12.98
  -7  -2   4  143.51   11.23
  -7  -2   4  138.10   23.43
  -7  -2   5   71.01    7.96
  -7  -2   6   28.39    5.38
  -7  -2   7   45.29    6.74
  -7  -2   7   47.82    6.08
  -7  -2   8  137.06   10.06
  -7  -2   8  129.06   10.71
  -7  -2   9  170.88   11.65
  -7  -2   9  154.90   10.15
  -7  -2  10  225.19   11.73
  -7  -2  10  212.16   10.52
  -7  -2  11  326.94   10.65
  -7  -1  -6  128.29    7.08
  -7  -1  -5   88.44    7.90
  -7  -1  -4  129.89   10.94
  -7  -1  -4  104.47    8.66
  -7  -1  -3    5.68    3.23
  -7  -1  -3   14.98    5.75
  -7  -1  -2   55.94    7.99
  -7  -1  -2   44.88    7.22
  -7  -1  -1  113.46   10.97
  -7  -1  -1   95.56    9.18
  -7  -1  -1   94.42    9.84
  -7  -1   0  299.23   16.41
  -7  -1   0  312.96   16.20
  -7  -1   0  333.47   17.97
  -7  -1   1  488.58   44.42
  -7  -1   1  485.53   21.53
  -7  -1   1  474.52   19.49
  -7  -1   2  743.24   24.38
  -7  -1   2  730.22   25.97
  -7  -1   2  752.00   53.93
  -7  -1   3  501.83   20.62
  -7  -1   3  517.91   20.40
  -7  -1   3  533.12   44.85
  -7  -1   4  827.26   55.04
  -7  -1   4  732.88   22.76
  -7  -1   5  618.59   47.52
  -7  -1   5  564.36   20.48
  -7  -1   5  576.37   21.51
  -7  -1   6  255.19   14.06
  -7  -1   6  249.52   14.71
  -7  -1   7   29.42    5.14
  -7  -1   7   33.24    5.74
  -7  -1   8    9.44    3.57
  -7  -1   8    5.68    2.61
  -7  -1   9   54.05    6.37
  -7  -1   9   45.22    5.82
  -7  -1  10  168.35    9.61
  -7  -1  11   71.46    5.05
  -7   0  -6  197.48   10.40
  -7   0  -5  313.90   13.20
  -7   0  -5  358.21   16.78
  -7   0  -4  329.20   17.87
  -7   0  -4  317.91   15.79
  -7   0  -3  258.31   15.77
  -7   0  -3  249.44   15.09
  -7   0  -3  257.18   16.53
  -7   0  -2  124.54   11.61
  -7   0  -2  128.59   10.94
  -7   0  -2  108.50   10.91
  -7   0  -2  115.93   10.37
  -7   0  -1   30.22    5.93
  -7   0  -1   32.21    5.65
  -7   0  -1   31.40    5.60
  -7   0  -1   32.92    6.31
  -7   0   0   31.19   11.88
  -7   0   0   30.12    5.33
  -7   0   0   28.77    5.14
  -7   0   0   27.65    4.80
  -7   0   0   29.33    5.75
  -7   0   1  307.07   16.56
  -7   0   1  315.59   34.92
  -7   0   1  310.92   15.82
  -7   0   1  291.69   14.68
  -7   0   2  407.12   18.32
  -7   0   2  393.54   17.60
  -7   0   2  372.54   37.38
  -7   0   2  382.77   17.11
  -7   0   3  178.55   11.32
  -7   0   3  186.51   12.22
  -7   0   3  178.39   25.01
  -7   0   4   50.65   13.86
  -7   0   4   56.29    6.61
  -7   0   5  339.74   16.37
  -7   0   5  363.92   35.10
  -7   0   5  344.81   16.61
  -7   0   6  534.85   21.15
  -7   0   6  526.70   20.82
  -7   0   7  123.09   10.21
  -7   0   7  110.48    9.88
  -7   0   8  120.45    9.92
  -7   0   8  135.87   10.20
  -7   0   9   50.50    6.10
  -7   0  10   88.67    6.78
  -7   0  11   97.99    5.47
  -7   1  -7   55.97    4.69
  -7   1  -6  153.80   10.25
  -7   1  -6  134.29    9.17
  -7   1  -5   64.01    7.89
  -7   1  -5   59.64    6.51
  -7   1  -5   59.28    7.62
  -7   1  -4   -4.33    5.29
  -7   1  -4    0.23    3.08
  -7   1  -3  247.29   15.64
  -7   1  -3  250.00   15.75
  -7   1  -3  223.21   14.59
  -7   1  -3  242.23   16.08
  -7   1  -2  525.00   22.54
  -7   1  -2  538.44   23.40
  -7   1  -2  537.48   22.76
  -7   1  -2  504.23   21.55
  -7   1  -1  409.17   18.65
  -7   1  -1  420.64   19.86
  -7   1  -1  438.08   19.58
  -7   1  -1  426.92   19.94
  -7   1   0  138.22   10.59
  -7   1   0  144.48   11.49
  -7   1   0  160.98   11.55
  -7   1   0  127.07   22.80
  -7   1   0  145.24   10.75
  -7   1   1   51.11    6.40
  -7   1   1   45.25    6.26
  -7   1   1   38.60   12.27
  -7   1   1   52.35    7.22
  -7   1   2  196.36   12.67
  -7   1   2  214.22   27.12
  -7   1   2  180.31   12.16
  -7   1   2  183.46   11.74
  -7   1   3  759.55   23.52
  -7   1   3  770.01   50.92
  -7   1   3  781.58   24.38
  -7   1   4  508.71   20.08
  -7   1   4  505.58   19.83
  -7   1   4  566.27   42.64
  -7   1   5  470.77   19.15
  -7   1   5  458.02   19.37
  -7   1   6  354.53   17.47
  -7   1   6  367.41   16.61
  -7   1   7  403.11   18.73
  -7   1   8  260.19   14.42
  -7   1   9   71.76    6.87
  -7   1  10   20.71    3.26
  -7   2  -7   69.63    5.88
  -7   2  -7   66.22    6.02
  -7   2  -6  112.64    9.75
  -7   2  -6   98.62    8.85
  -7   2  -5  396.59   19.18
  -7   2  -5  411.67   21.00
  -7   2  -5  371.38   17.16
  -7   2  -4  453.00   20.20
  -7   2  -4  447.89   21.24
  -7   2  -4  442.30   20.72
  -7   2  -4  467.08   22.19
  -7   2  -3  751.84   27.01
  -7   2  -3  732.87   27.79
  -7   2  -3  795.23   27.46
  -7   2  -3  792.54   28.40
  -7   2  -2  386.50   19.26
  -7   2  -2  351.39   18.59
  -7   2  -2  364.04   18.15
  -7   2  -2  368.78   19.13
  -7   2  -1  903.33   61.64
  -7   2  -1  909.63   27.95
  -7   2  -1  875.75   28.67
  -7   2  -1  896.38   28.20
  -7   2  -1  915.88   28.94
  -7   2   0  263.38   31.96
  -7   2   0  249.73   14.72
  -7   2   0  265.60   14.80
  -7   2   0  268.36   14.48
  -7   2   0  262.40   14.79
  -7   2   1   69.54    7.64
  -7   2   1   75.59    7.80
  -7   2   1   52.48    6.77
  -7   2   1   52.44   14.45
  -7   2   2    9.45    3.18
  -7   2   2    7.95    2.48
  -7   2   3  127.40   19.82
  -7   2   3  126.62    9.85
  -7   2   3  130.17    9.97
  -7   2   4  131.29   10.09
  -7   2   4  156.25   11.24
  -7   2   5  331.48   16.74
  -7   2   6   99.82    9.41
  -7   2   7    4.07    2.50
  -7   2   8   77.39    7.64
  -7   2   9  164.80    9.52
  -7   2  10  110.16    6.07
  -7   3  -7   10.81    3.07
  -7   3  -7    6.82    2.67
  -7   3  -6   11.49    4.00
  -7   3  -6   11.84    3.57
  -7   3  -5    1.74    3.76
  -7   3  -5    3.65    3.05
  -7   3  -4   29.43    5.68
  -7   3  -4   20.95    4.97
  -7   3  -4   25.25    5.72
  -7   3  -4   17.35    5.24
  -7   3  -3   77.52    8.94
  -7   3  -3   76.28    8.72
  -7   3  -3   75.66    9.18
  -7   3  -3   86.80   10.00
  -7   3  -2   89.74    9.51
  -7   3  -2  100.05    9.62
  -7   3  -2  105.81   10.35
  -7   3  -2   94.37    9.53
  -7   3  -1   26.89   11.35
  -7   3  -1   41.33    6.28
  -7   3  -1   53.81    7.27
  -7   3  -1   54.78    7.01
  -7   3  -1   36.51    6.05
  -7   3   0  460.07   20.07
  -7   3   0  453.74   41.42
  -7   3   0  468.20   19.76
  -7   3   0  446.70   19.18
  -7   3   1  950.08   27.93
  -7   3   1  918.39   26.64
  -7   3   1  963.01   27.51
  -7   3   1  954.65   57.10
  -7   3   2  136.81   10.36
  -7   3   2  144.36   10.58
  -7   3   2  126.48   20.09
  -7   3   3  114.96    9.52
  -7   3   3  104.75    8.90
  -7   3   4   95.84    8.88
  -7   3   5  166.79   11.81
  -7   3   6  313.92   16.11
  -7   3   7  244.92   13.57
  -7   3   8  251.03   12.37
  -7   3   9  209.32    9.24
  -7   4  -8  265.22   11.06
  -7   4  -7  298.19   13.35
  -7   4  -7  317.79   15.54
  -7   4  -6  104.32   10.47
  -7   4  -6   84.79    8.65
  -7   4  -5   24.69    5.42
  -7   4  -5   35.81    6.20
  -7   4  -4   52.55    7.71
  -7   4  -4   46.86    7.23
  -7   4  -4   52.50    7.28
  -7   4  -4   48.53    7.88
  -7   4  -3  366.01   18.38
  -7   4  -3  358.04   18.71
  -7   4  -3  346.56   19.41
  -7   4  -3  341.98   18.24
  -7   4  -2  553.48   23.19
  -7   4  -2  553.13   22.44
  -7   4  -2  583.88   24.02
  -7   4  -2  521.37   21.95
  -7   4  -1  515.73   20.46
  -7   4  -1  525.27   47.04
  -7   4  -1  480.15   21.51
  -7   4  -1  500.51   21.31
  -7   4   0  339.94   16.98
  -7   4   0  356.39   16.72
  -7   4   0  350.34   36.36
  -7   4   0  376.58   17.92
  -7   4   1  387.12   18.01
  -7   4   1  414.59   37.36
  -7   4   1  410.53   17.67
  -7   4   2 1147.51   29.32
  -7   4   2 1132.84   29.49
  -7   4   3  374.22   17.24
  -7   4   4  122.11    9.99
  -7   4   5   16.43    3.98
  -7   4   6    4.31    2.44
  -7   4   7    0.91    1.59
  -7   4   8   10.06    2.40
  -7   5  -8  208.42   10.40
  -7   5  -8  180.45    7.83
  -7   5  -7  101.46    9.05
  -7   5  -7   88.83    7.41
  -7   5  -6   50.14    6.57
  -7   5  -5   51.66    7.08
  -7   5  -5   51.22    7.16
  -7   5  -4  335.94   19.48
  -7   5  -4  393.01   19.19
  -7   5  -4  371.65   18.60
  -7   5  -3   20.55    4.26
  -7   5  -3   22.85    4.95
  -7   5  -3   15.22    4.56
  -7   5  -3   28.54    5.57
  -7   5  -2   11.52    3.21
  -7   5  -2    6.50    3.42
  -7   5  -2    5.64    2.82
  -7   5  -1    3.97    2.97
  -7   5  -1    2.47    2.15
  -7   5   0   10.40    3.50
  -7   5   0    7.82    3.17
  -7   5   1   74.35    7.71
  -7   5   2    9.88    3.56
  -7   5   3   84.79    8.15
  -7   5   4  997.29   27.31
  -7   5   5  551.15   19.66
  -7   5   6  289.29   13.07
  -7   5   7   34.71    4.06
  -7   6  -8    2.60    1.72
  -7   6  -8    1.45    1.20
  -7   6  -7    6.54    2.87
  -7   6  -7    5.32    2.44
  -7   6  -6   84.94    8.14
  -7   6  -5  148.95   11.51
  -7   6  -5  134.24   10.83
  -7   6  -4  499.69   20.82
  -7   6  -4  457.29   19.22
  -7   6  -4  530.80   21.65
  -7   6  -3  401.57   18.45
  -7   6  -3  390.94   20.39
  -7   6  -3  390.35   18.19
  -7   6  -2  523.42   22.88
  -7   6  -2  513.85   21.04
  -7   6  -2  513.83   20.39
  -7   6  -1  307.76   17.01
  -7   6  -1  301.97   15.42
  -7   6   0  246.25   13.92
  -7   6   1   64.35    6.98
  -7   6   2  366.66   16.33
  -7   6   3  520.70   18.99
  -7   6   4  463.25   17.17
  -7   6   5  256.42   11.77
  -7   6   6   26.20    3.30
  -7   7  -8   84.49    6.25
  -7   7  -7  170.20   10.76
  -7   7  -7  173.70    9.51
  -7   7  -6  822.48   23.37
  -7   7  -5  218.01   12.98
  -7   7  -5  203.66   12.10
  -7   7  -5  222.86   13.37
  -7   7  -4  258.60   15.03
  -7   7  -4  264.28   14.52
  -7   7  -4  253.51   14.44
  -7   7  -3  253.63   14.25
  -7   7  -3  240.16   14.50
  -7   7  -2   15.90    4.35
  -7   7  -2   19.46    4.34
  -7   7  -1   26.67    4.58
  -7   7  -1   26.24    5.33
  -7   7   0   15.62    3.74
  -7   7   1    3.84    2.18
  -7   7   2   68.95    6.80
  -7   7   3   18.58    3.46
  -7   8  -7    6.64    2.34
  -7   8  -7    5.09    1.85
  -7   8  -6    6.26    2.18
  -7   8  -6    5.12    2.37
  -7   8  -5    7.15    2.86
  -7   8  -5    1.55    1.84
  -7   8  -5    4.88    2.71
  -7   8  -4   11.23    3.20
  -7   8  -4    9.95    2.86
  -7   8  -3   53.59    7.25
  -7   8  -3   53.00    6.17
  -7   8  -2  272.09   15.77
  -7   8  -2  237.02   12.71
  -7   8  -1  576.31   22.24
  -7   8  -1  545.61   18.50
  -7   8   0  498.38   20.42
  -7   8   1  441.81   18.45
  -7   8   2   18.81    3.98
  -7   8   3   97.07    7.32
  -7   9  -7   57.79    4.59
  -7   9  -6   24.16    3.63
  -7   9  -6   27.68    3.90
  -7   9  -5   46.52    5.40
  -7   9  -5   47.15    5.70
  -7   9  -4  142.00   10.32
  -7   9  -3  509.75   20.02
  -7   9  -2  473.44   19.64
  -7   9  -1  227.53   13.28
  -7   9   0   29.47    4.67
  -7   9   1   61.37    6.23
  -7   9   2   24.91    3.60
  -7  10  -6   -1.74    1.35
  -7  10  -6    0.70    1.21
  -7  10  -5    0.83    1.29
  -7  10  -5    0.92    1.35
  -7  10  -4   16.50    3.46
  -7  10  -3   14.65    3.44
  -7  10  -2    4.97    2.73
  -7  10  -1   42.48    5.15
  -7  10   0   18.25    3.22
  -7  11  -5  437.89   12.54
  -7  11  -5  424.09   11.14
  -7  11  -4  187.83    8.82
  -7  11  -4  188.63    8.18
  -7  11  -3   30.04    3.72
  -7  11  -2   26.27    3.32
  -6 -10   5   47.53    4.95
  -6 -10   6   76.88    6.19
  -6 -10   7  126.39    7.44
  -6  -9   2   23.74    3.36
  -6  -9   3   69.16    6.73
  -6  -9   4   37.17    5.44
  -6  -9   5    0.69    2.42
  -6  -9   6   24.73    4.64
  -6  -9   7    8.90    2.89
  -6  -9   8  292.52   11.75
  -6  -8   1  252.85   11.84
  -6  -8   2  341.11   15.76
  -6  -8   3  204.33   13.62
  -6  -8   4  195.40   13.58
  -6  -8   5  304.07   16.92
  -6  -8   6   96.57    9.42
  -6  -8   7   90.20    8.45
  -6  -8  10  142.50    7.59
  -6  -8  11   52.22    4.14
  -6  -7   0  121.12    8.89
  -6  -7   1   66.31    7.81
  -6  -7   2  165.22   12.72
  -6  -7   3   84.13    9.90
  -6  -7   4   39.33    7.04
  -6  -7   5   71.07    8.90
  -6  -7   6  365.91   18.71
  -6  -7   7  105.30    9.44
  -6  -7   9   76.18    7.08
  -6  -7  10   35.15    4.73
  -6  -7  11  102.92    6.97
  -6  -7  12  162.96    7.06
  -6  -6  -1   70.03    6.78
  -6  -6   0   32.63    5.78
  -6  -6   1   10.01    4.25
  -6  -6   2  171.55   13.74
  -6  -6   3  626.33   26.10
  -6  -6   4  543.27   24.30
  -6  -6   5  403.41   20.33
  -6  -6   6  237.67   14.82
  -6  -6   7  256.54   13.85
  -6  -6   8  175.67   12.17
  -6  -6   9   41.47    6.02
  -6  -6  10   66.47    6.87
  -6  -6  11    5.07    2.02
  -6  -6  12   88.49    5.76
  -6  -5  -2  331.79   16.34
  -6  -5  -2  312.92   14.15
  -6  -5  -1  123.56   10.71
  -6  -5  -1  132.00   10.60
  -6  -5   0   29.93    5.93
  -6  -5   0   36.08    6.09
  -6  -5   1   23.47    5.37
  -6  -5   1  206.92   18.18
  -6  -5   2   52.83    8.12
  -6  -5   3   68.76    9.02
  -6  -5   4  313.31   18.04
  -6  -5   5   98.34   10.00
  -6  -5   6   38.64    5.84
  -6  -5   6   41.31    5.87
  -6  -5   7   44.36    6.36
  -6  -5   8   78.30    8.63
  -6  -5   9   76.85    8.26
  -6  -5  10  138.31   10.44
  -6  -5  11   76.28    6.97
  -6  -5  12   18.08    2.90
  -6  -4  -4   59.68    6.51
  -6  -4  -3  114.11   10.18
  -6  -4  -2    4.46    3.60
  -6  -4  -2    1.23    2.83
  -6  -4  -1   21.33    5.04
  -6  -4  -1   29.81    5.74
  -6  -4   0  498.71   22.21
  -6  -4   0  425.77   19.96
  -6  -4   1  694.00   26.50
  -6  -4   2   23.28    5.24
  -6  -4   3   18.21    4.71
  -6  -4   4   33.67    5.99
  -6  -4   5  266.53   13.96
  -6  -4   5  248.88   14.77
  -6  -4   6  771.46   25.05
  -6  -4   7  853.72   27.43
  -6  -4   8  361.18   18.49
  -6  -4   9  162.50   12.15
  -6  -4  10  260.79   14.24
  -6  -4  11  160.14    9.81
  -6  -4  12  184.65    8.30
  -6  -3  -5   33.32    4.80
  -6  -3  -4   12.61    4.25
  -6  -3  -3  128.17   10.35
  -6  -3  -3  131.54   11.96
  -6  -3  -2  255.68   15.28
  -6  -3  -2  258.17   16.89
  -6  -3  -1 1618.41   38.94
  -6  -3  -1 1582.31   39.60
  -6  -3   0 1154.28   31.71
  -6  -3   0 1183.11   33.94
  -6  -3   1  308.40   35.18
  -6  -3   1  322.42   17.51
  -6  -3   2  140.09   11.49
  -6  -3   2  128.75   22.48
  -6  -3   2  139.49    9.99
  -6  -3   3   16.97    9.21
  -6  -3   3   32.72    5.90
  -6  -3   4   97.05    8.01
  -6  -3   4  117.72    9.97
  -6  -3   4  108.83   20.26
  -6  -3   5  392.11   17.18
  -6  -3   6   41.25    6.16
  -6  -3   7   16.96    4.42
  -6  -3   8   13.07    4.16
  -6  -3   9    2.05    2.57
  -6  -3   9    1.68    1.70
  -6  -3  10    6.03    2.12
  -6  -3  10    6.04    3.02
  -6  -3  11   47.64    5.27
  -6  -3  11   39.03    4.28
  -6  -3  12  175.85    6.75
  -6  -3  12  211.51    8.08
  -6  -2  -6    6.45    2.44
  -6  -2  -5   22.51    5.00
  -6  -2  -4   20.94    4.87
  -6  -2  -4    8.98    4.33
  -6  -2  -3  291.58   17.79
  -6  -2  -3  297.48   16.02
  -6  -2  -2   73.02    8.59
  -6  -2  -2   66.48    8.87
  -6  -2  -1   21.18    4.92
  -6  -2  -1   27.83    5.64
  -6  -2   0   69.39    8.05
  -6  -2   0   67.10    7.20
  -6  -2   0   66.82    7.84
  -6  -2   1   46.81    6.69
  -6  -2   1   53.24   13.87
  -6  -2   1   40.65    5.54
  -6  -2   2  223.54   13.56
  -6  -2   2  212.43   12.06
  -6  -2   2  200.10   25.78
  -6  -2   3  350.25   34.34
  -6  -2   4  719.11   21.84
  -6  -2   4  757.15   50.02
  -6  -2   5  748.02   50.18
  -6  -2   5  730.96   23.11
  -6  -2   6  112.74    9.65
  -6  -2   6  105.08    8.56
  -6  -2   7  150.35   11.62
  -6  -2   7  154.01   10.70
  -6  -2   8  103.84    9.82
  -6  -2   8   93.35    8.63
  -6  -2   9  183.07   12.39
  -6  -2   9  166.63   11.13
  -6  -2  10  292.77   14.22
  -6  -2  10  267.63   13.14
  -6  -2  11  240.79   10.77
  -6  -2  11  276.50   11.34
  -6  -2  12  125.33    5.85
  -6  -1  -7   21.85    3.16
  -6  -1  -6   10.68    3.31
  -6  -1  -5  277.74   16.49
  -6  -1  -4  354.81   17.08
  -6  -1  -4  360.07   20.06
  -6  -1  -3  596.16   26.11
  -6  -1  -3  622.71   23.68
  -6  -1  -2  234.20   14.68
  -6  -1  -2  252.53   16.29
  -6  -1  -1   51.92    6.33
  -6  -1  -1   43.88    6.48
  -6  -1  -1   44.48    6.56
  -6  -1   0  155.31   23.83
  -6  -1   0  169.94   11.05
  -6  -1   0  157.11   11.78
  -6  -1   0  155.16   11.17
  -6  -1   1  790.68   50.44
  -6  -1   2 1339.87   65.30
  -6  -1   3 1241.43   60.93
  -6  -1   4  689.03   45.65
  -6  -1   5   61.87    6.91
  -6  -1   5   55.13    6.22
  -6  -1   5   70.94   14.63
  -6  -1   6   36.39    5.62
  -6  -1   6   40.45    5.71
  -6  -1   7   38.14    5.81
  -6  -1   7   37.43    5.71
  -6  -1   8   12.11    3.77
  -6  -1   8   14.40    3.66
  -6  -1   9   31.03    5.08
  -6  -1   9   30.49    5.05
  -6  -1  10    4.97    2.17
  -6  -1  10    5.05    2.37
  -6  -1  11   14.50    2.78
  -6   0  -7  263.02   12.01
  -6   0  -6  838.25   26.25
  -6   0  -5  380.07   19.82
  -6   0  -5  392.58   16.94
  -6   0  -5  398.23   20.39
  -6   0  -4  190.65   13.19
  -6   0  -4  201.04   15.29
  -6   0  -3   13.42    3.71
  -6   0  -3   16.13    5.21
  -6   0  -3   15.26    4.67
  -6   0  -3   12.21    4.35
  -6   0  -2   39.92    5.87
  -6   0  -2   35.43   15.24
  -6   0  -2   42.08    5.99
  -6   0  -2   39.82    6.38
  -6   0  -2   53.83    7.64
  -6   0  -1    9.47    2.88
  -6   0  -1    8.70    3.32
  -6   0  -1    4.48    2.20
  -6   0  -1    5.07    2.77
  -6   0   0  -14.75    7.84
  -6   0   1    7.36    5.96
  -6   0   2   33.87    9.77
  -6   0   3    6.54    5.40
  -6   0   4   44.14   11.00
  -6   0   5  102.25    8.71
  -6   0   5   95.23    8.25
  -6   0   5  101.45   17.38
  -6   0   6  417.65   17.91
  -6   0   6  421.56   18.18
  -6   0   7  457.82   19.12
  -6   0   7  441.13   19.17
  -6   0   8  538.72   21.47
  -6   0   8  608.32   21.50
  -6   0   9  142.28   10.59
  -6   0   9  169.52   10.50
  -6   0  10   36.07    4.84
  -6   0  11   47.61    4.49
  -6   1  -8   61.77    4.68
  -6   1  -7   -1.09    2.57
  -6   1  -7    0.92    2.04
  -6   1  -6    6.96    3.07
  -6   1  -6    9.91    3.69
  -6   1  -5    2.94    3.12
  -6   1  -5    2.51    3.30
  -6   1  -5    5.79    4.20
  -6   1  -4   48.37    7.75
  -6   1  -4   32.05    6.14
  -6   1  -4   36.68    6.53
  -6   1  -4   39.87    6.48
  -6   1  -3  118.30   10.53
  -6   1  -3  123.53   21.85
  -6   1  -3  115.87   11.37
  -6   1  -3  109.75   10.35
  -6   1  -3  113.63   10.43
  -6   1  -2  393.15   19.08
  -6   1  -2  409.93   18.34
  -6   1  -2  390.17   17.88
  -6   1  -2  394.37   38.32
  -6   1  -2  413.27   18.97
  -6   1  -1 1227.38   31.40
  -6   1  -1 1250.65   65.96
  -6   1  -1 1220.56   30.16
  -6   1   0  913.58   53.07
  -6   1   1  128.43   19.53
  -6   1   2  461.86   35.50
  -6   1   3   24.19    8.13
  -6   1   4  818.07   23.08
  -6   1   4  806.08   23.07
  -6   1   4  826.02   46.05
  -6   1   5 1202.00   29.57
  -6   1   5 1150.89   28.69
  -6   1   6  973.56   26.82
  -6   1   6 1060.43   29.18
  -6   1   7  589.32   20.76
  -6   1   7  573.73   22.06
  -6   1   8   36.71    5.82
  -6   1   8   38.29    5.25
  -6   1   9    7.14    3.04
  -6   1  10   11.47    2.87
  -6   1  11    1.04    1.07
  -6   2  -8  306.15   11.76
  -6   2  -8  303.03   13.25
  -6   2  -7   17.23    4.06
  -6   2  -7   12.24    3.83
  -6   2  -6   37.69    6.91
  -6   2  -6   51.35    8.00
  -6   2  -5  126.02   10.71
  -6   2  -5  121.42   11.83
  -6   2  -4  533.41   23.27
  -6   2  -4  537.96   22.38
  -6   2  -4  520.78   22.80
  -6   2  -4  523.57   23.48
  -6   2  -3 1196.72   33.85
  -6   2  -3 1171.26   68.55
  -6   2  -3 1255.14   33.69
  -6   2  -3 1227.88   33.25
  -6   2  -3 1272.26   35.00
  -6   2  -2 1117.09   30.06
  -6   2  -2 1124.22   30.72
  -6   2  -2 1134.22   64.75
  -6   2  -2 1048.09   29.98
  -6   2  -2 1073.84   29.25
  -6   2  -1  532.00   43.01
  -6   2  -1  508.13   20.08
  -6   2  -1  525.31   19.48
  -6   2   0   82.38   16.18
  -6   2   1    9.58    6.19
  -6   2   2   15.79    6.78
  -6   2   3   18.24    7.05
  -6   2   3   18.41    3.41
  -6   2   4   -0.58    1.80
  -6   2   5    1.17    1.65
  -6   2   6   51.42    6.78
  -6   2   7   18.73    4.54
  -6   2   8   27.98    5.03
  -6   2   9  270.69   13.11
  -6   2  10  328.47   11.67
  -6   3  -8    0.79    1.65
  -6   3  -8    4.46    2.52
  -6   3  -7   -0.02    2.61
  -6   3  -7    1.67    2.64
  -6   3  -6   -0.63    3.21
  -6   3  -6    2.80    2.94
  -6   3  -5   22.47    5.76
  -6   3  -5   22.15    5.46
  -6   3  -5   28.58    5.67
  -6   3  -4   47.63    6.95
  -6   3  -4   53.62    8.02
  -6   3  -4   47.23    6.99
  -6   3  -4   50.30    7.34
  -6   3  -3    9.79    3.28
  -6   3  -3   15.93    3.80
  -6   3  -3    1.99    4.21
  -6   3  -3    7.62    3.20
  -6   3  -3   10.24    3.82
  -6   3  -2   28.12    4.76
  -6   3  -2   32.69    6.26
  -6   3  -2   30.96    5.70
  -6   3  -2   21.36    4.42
  -6   3  -2   12.57    8.23
  -6   3  -1  181.98   24.80
  -6   3  -1  189.49   12.33
  -6   3  -1  189.58   11.64
  -6   3  -1  190.26   11.98
  -6   3   0  580.79   42.55
  -6   3   1  631.08   42.55
  -6   3   2 1262.36   57.63
  -6   3   2 1177.39   27.28
  -6   3   3 1452.46   31.48
  -6   3   4  304.99   14.98
  -6   3   5   61.32    7.19
  -6   3   6   22.08    4.61
  -6   3   7  198.32   12.66
  -6   3   8  347.95   15.28
  -6   3   9  474.78   15.10
  -6   4  -9   29.29    4.05
  -6   4  -8  135.70   10.63
  -6   4  -8  126.88    8.51
  -6   4  -7  616.30   25.52
  -6   4  -7  627.65   22.33
  -6   4  -6  629.10   24.59
  -6   4  -5  616.96   24.11
  -6   4  -5  670.54   25.72
  -6   4  -5  640.91   25.43
  -6   4  -4  227.72   14.83
  -6   4  -4  212.74   14.15
  -6   4  -4  222.17   15.56
  -6   4  -4  212.61   14.29
  -6   4  -3   20.91   10.12
  -6   4  -3   39.56    6.27
  -6   4  -3   38.91    5.88
  -6   4  -3   33.43    5.71
  -6   4  -3   37.41    6.24
  -6   4  -2   68.80    7.35
  -6   4  -2   71.65    8.02
  -6   4  -2   62.43    7.62
  -6   4  -2   64.47   15.76
  -6   4  -1 1034.44   28.81
  -6   4  -1 1031.88   28.75
  -6   4  -1 1002.78   26.36
  -6   4  -1  976.16   58.48
  -6   4   0 1018.80   26.17
  -6   4   0 1107.28   28.42
  -6   4   0 1123.81   59.01
  -6   4   1 1526.76   65.67
  -6   4   1 1414.36   30.58
  -6   4   2  116.28    8.95
  -6   4   2  140.23   18.97
  -6   4   3   24.10    4.36
  -6   4   4   11.12    3.10
  -6   4   5   12.21    3.20
  -6   4   6   19.56    4.08
  -6   4   7   20.22    3.95
  -6   4   8    7.33    2.32
  -6   4   9   26.71    2.87
  -6   5  -9  120.24    8.20
  -6   5  -8  555.09   21.42
  -6   5  -8  500.82   16.88
  -6   5  -7  655.49   26.15
  -6   5  -7  635.78   22.20
  -6   5  -6  146.15   11.95
  -6   5  -6  156.15   12.06
  -6   5  -5   33.46    6.13
  -6   5  -5   34.93    6.26
  -6   5  -4  270.54   17.31
  -6   5  -4  257.51   14.61
  -6   5  -4  273.38   16.12
  -6   5  -4  274.70   15.74
  -6   5  -3   90.22    8.67
  -6   5  -3   90.95    9.70
  -6   5  -3   88.33   19.86
  -6   5  -3   84.07    8.49
  -6   5  -2   41.46    6.46
  -6   5  -2   20.55    9.98
  -6   5  -2   37.83    5.85
  -6   5  -1   83.99    8.55
  -6   5  -1   82.93    7.78
  -6   5  -1   72.12   16.91
  -6   5   0    7.28    3.33
  -6   5   0    5.76    2.38
  -6   5   1  405.94   16.62
  -6   5   2  165.81   10.75
  -6   5   3   87.54    8.05
  -6   5   4  327.26   15.45
  -6   5   5  328.98   15.28
  -6   5   6  485.18   17.52
  -6   5   7  514.94   15.93
  -6   6  -9    0.32    1.40
  -6   6  -8    2.16    2.62
  -6   6  -8   -3.01    2.61
  -6   6  -7   14.93    4.70
  -6   6  -7    7.32    3.31
  -6   6  -6  489.48   20.96
  -6   6  -6  501.10   20.64
  -6   6  -5  310.85   16.72
  -6   6  -5  285.11   16.27
  -6   6  -5  289.30   15.81
  -6   6  -4  672.37   27.18
  -6   6  -4  706.65   24.62
  -6   6  -4  675.28   24.40
  -6   6  -3  655.00   23.82
  -6   6  -3  695.89   26.99
  -6   6  -3  714.28   23.99
  -6   6  -2  210.73   13.69
  -6   6  -2  223.17   14.77
  -6   6  -2  199.34   12.40
  -6   6  -2  220.31   30.75
  -6   6  -1  276.08   15.44
  -6   6  -1  255.15   30.52
  -6   6  -1  283.79   14.26
  -6   6   0  173.09   11.02
  -6   6   1  186.19   11.45
  -6   6   2  703.37   21.97
  -6   6   3  372.03   16.00
  -6   6   4  219.87   12.07
  -6   6   5  132.63    8.78
  -6   7  -9   42.88    4.74
  -6   7  -8   38.70    5.43
  -6   7  -8   36.60    4.51
  -6   7  -7   79.91    8.70
  -6   7  -7   83.26    7.75
  -6   7  -6  259.68   14.53
  -6   7  -6  237.54   13.81
  -6   7  -6  249.38   14.34
  -6   7  -5  534.22   21.34
  -6   7  -5  467.79   20.49
  -6   7  -5  527.23   21.09
  -6   7  -4  618.42   22.66
  -6   7  -4  606.53   24.01
  -6   7  -3  122.94   10.75
  -6   7  -3  119.55    9.73
  -6   7  -2    9.64    2.60
  -6   7  -2   10.15    3.77
  -6   7  -1   37.21    5.47
  -6   7   0    4.37    2.40
  -6   7   1    9.76    2.73
  -6   8  -8   81.95    6.95
  -6   8  -8   76.61    5.86
  -6   8  -7    3.38    2.35
  -6   8  -7    1.37    1.82
  -6   8  -7    0.30    1.53
  -6   8  -6    3.54    2.33
  -6   8  -6    8.53    3.03
  -6   8  -5   32.33    5.69
  -6   8  -5   29.47    5.04
  -6   8  -4  136.36   11.43
  -6   8  -4  136.60   10.21
  -6   8  -3  243.85   15.24
  -6   8  -2  574.72   23.82
  -6   8  -1  630.69   24.25
  -6   8   0  726.77   25.77
  -6   8   3  157.68    9.69
  -6   9  -8  164.90    8.09
  -6   9  -8  175.69    7.63
  -6   9  -7  255.99   12.42
  -6   9  -7  259.73   11.52
  -6   9  -6  290.56   14.88
  -6   9  -6  316.43   14.10
  -6   9  -5   78.53    8.28
  -6   9  -4   23.41    5.25
  -6   9  -3  145.84   11.72
  -6   9  -2  205.46   13.59
  -6   9  -1  234.90   14.18
  -6   9   0  171.66   11.73
  -6   9   1    1.38    1.82
  -6  10  -8   72.93    4.98
  -6  10  -7   20.21    3.57
  -6  10  -7   16.93    2.67
  -6  10  -6  179.29   10.86
  -6  10  -6  154.82    8.92
  -6  10  -5  105.59    8.96
  -6  10  -4  110.36    9.44
  -6  10  -3   17.63    4.16
  -6  10  -2    8.10    2.91
  -6  10  -1  181.25   11.31
  -6  10   0  105.95    7.83
  -6  11  -7  231.17    9.33
  -6  11  -6  145.80    8.48
  -6  11  -6  139.82    7.06
  -6  11  -5  286.15   12.65
  -6  11  -4  151.02    9.44
  -6  11  -3  193.73   10.57
  -6  11  -2  164.84    9.21
  -6  11  -1   10.64    2.29
  -5 -11   5   61.45    5.21
  -5 -11   6  191.27    9.29
  -5 -11   7  384.51   12.70
  -5 -10   3   14.28    3.05
  -5 -10   4  119.94    8.95
  -5 -10   5  127.65    9.73
  -5 -10   6   59.12    6.69
  -5 -10   7   20.18    4.02
  -5 -10   8    2.41    1.90
  -5  -9   1   14.93    2.72
  -5  -9   2   84.78    7.82
  -5  -9   3  109.74    9.64
  -5  -9   4  129.29   10.98
  -5  -9   5  145.50   12.16
  -5  -9   6   59.93    7.84
  -5  -9   7   65.41    7.45
  -5  -9   8   92.45    7.87
  -5  -8   0  161.03    9.50
  -5  -8   0  327.29   17.02
  -5  -8   1  289.85   15.38
  -5  -8   1  335.11   18.30
  -5  -8   2  756.17   26.65
  -5  -8   2  685.48   26.03
  -5  -8   3  400.29   20.69
  -5  -8   4   70.76    9.30
  -5  -8   5  107.84   11.01
  -5  -8   6    8.90    4.10
  -5  -8   7   63.11    7.59
  -5  -8   8  128.88    9.58
  -5  -8   9   78.20    7.04
  -5  -8  10    6.11    2.15
  -5  -8  11   -0.73    1.90
  -5  -8  12    3.90    1.48
  -5  -7  -1   38.52    4.98
  -5  -7  -1  147.44   13.72
  -5  -7   0   50.16    6.74
  -5  -7   0   68.14    9.74
  -5  -7   1  123.05   11.23
  -5  -7   1  119.92   12.43
  -5  -7   2   12.06    4.24
  -5  -7   2    0.77    3.93
  -5  -7   3   -4.13    3.33
  -5  -7   4   73.75    9.35
  -5  -7   5   80.28    9.59
  -5  -7   6  211.25   14.53
  -5  -7   7  203.27   13.38
  -5  -7   8  345.21   16.57
  -5  -7   9  188.19   12.10
  -5  -7  10   22.05    4.40
  -5  -7  11   51.42    5.79
  -5  -7  12  189.39    9.00
  -5  -6  -3  137.34    9.89
  -5  -6  -2  181.98   13.15
  -5  -6  -2  345.10   20.67
  -5  -6  -1  240.09   15.88
  -5  -6  -1  219.40   13.51
  -5  -6  -1  236.75   15.37
  -5  -6  -1  262.61   18.38
  -5  -6   0  326.67   18.89
  -5  -6   0  282.23   16.55
  -5  -6   0  307.99   20.41
  -5  -6   0  287.72   16.74
  -5  -6   1   79.37   10.33
  -5  -6   1   77.76    8.20
  -5  -6   1   79.52    9.39
  -5  -6   2   58.18    8.42
  -5  -6   2   78.04    9.16
  -5  -6   3  251.85   16.20
  -5  -6   4  447.63   21.36
  -5  -6   5 1355.50   36.09
  -5  -6   6  999.89   29.81
  -5  -6   7  279.19   15.10
  -5  -6   8   22.39    5.03
  -5  -6   9    8.56    3.36
  -5  -6  10   34.64    5.56
  -5  -6  11   26.58    4.42
  -5  -6  12   55.69    5.32
  -5  -6  13   15.51    2.11
  -5  -5  -4  297.55   13.30
  -5  -5  -3  482.07   20.22
  -5  -5  -3  568.97   23.16
  -5  -5  -2  489.05   22.67
  -5  -5  -2  503.33   19.84
  -5  -5  -2  476.75   22.12
  -5  -5  -2  539.55   26.70
  -5  -5  -1  195.27   14.42
  -5  -5  -1  197.40   13.51
  -5  -5  -1  196.55   14.63
  -5  -5  -1  192.86   16.40
  -5  -5   0   -0.26    6.01
  -5  -5   0   11.94    3.72
  -5  -5   0    5.15    2.28
  -5  -5   1   13.06    4.30
  -5  -5   1   10.04    4.80
  -5  -5   2   12.81    3.95
  -5  -5   2    3.44    4.21
  -5  -5   3   55.21    7.43
  -5  -5   4  132.69   11.10
  -5  -5   5   -1.28    2.18
  -5  -5   6   17.85    3.98
  -5  -5   7  236.92   14.41
  -5  -5   8   51.02    7.02
  -5  -5   9  429.80   19.91
  -5  -5  10  370.12   17.72
  -5  -5  11   98.06    8.32
  -5  -5  12  112.94    7.46
  -5  -4  -5   45.80    6.01
  -5  -4  -4   61.25    8.12
  -5  -4  -4   40.27    5.74
  -5  -4  -3   27.73    5.46
  -5  -4  -3   40.03    7.33
  -5  -4  -2   43.57    7.11
  -5  -4  -2   45.19    6.68
  -5  -4  -2   42.72    7.62
  -5  -4  -2   55.29   10.62
  -5  -4  -1  213.55   15.09
  -5  -4  -1  188.05   13.63
  -5  -4  -1  212.94   17.07
  -5  -4  -1  213.74   13.98
  -5  -4   0  382.23   21.84
  -5  -4   0  356.83   17.95
  -5  -4   0  403.38   18.81
  -5  -4   0  388.39   18.68
  -5  -4   1  547.18   24.49
  -5  -4   1  500.59   41.44
  -5  -4   1  470.58   19.91
  -5  -4   1  550.93   22.07
  -5  -4   2  886.35   54.96
  -5  -4   2  817.76   26.14
  -5  -4   3  819.30   52.27
  -5  -4   6   28.34    4.91
  -5  -4   7  716.33   24.37
  -5  -4   8 1179.01   32.54
  -5  -4   9  342.85   17.45
  -5  -4  10  349.25   17.06
  -5  -4  11   27.87    3.80
  -5  -4  11   34.89    5.11
  -5  -4  12    2.78    1.71
  -5  -3  -6  224.83   11.82
  -5  -3  -5  235.15   14.91
  -5  -3  -4  112.13   11.34
  -5  -3  -3  294.88   15.62
  -5  -3  -3  291.02   18.28
  -5  -3  -2  143.87   13.88
  -5  -3  -2  121.67   10.46
  -5  -3  -2  126.50   11.74
  -5  -3  -1  415.83   22.55
  -5  -3  -1  405.74   18.62
  -5  -3  -1  439.78   20.36
  -5  -3   0 1046.46   29.08
  -5  -3   0 1064.57   33.78
  -5  -3   0 1039.31   29.11
  -5  -3   0 1023.99   56.44
  -5  -3   1  709.22   46.56
  -5  -3   2  588.52   41.78
  -5  -3   3   24.48    9.18
  -5  -3   4   42.37   12.03
  -5  -3   6  169.48   11.24
  -5  -3   7   68.83    8.03
  -5  -3   8   74.15    8.21
  -5  -3   9    1.82    2.13
  -5  -3  10  395.49   16.35
  -5  -3  10  444.99   18.66
  -5  -3  11  187.56   10.83
  -5  -3  11  160.05    9.47
  -5  -3  12  128.45    6.89
  -5  -3  12  139.98    7.17
  -5  -2  -7  247.58   11.04
  -5  -2  -6   35.49    5.69
  -5  -2  -5    8.56    4.30
  -5  -2  -4   30.34    6.66
  -5  -2  -3   30.42    5.39
  -5  -2  -3   30.92    6.24
  -5  -2  -2   -2.88    2.71
  -5  -2  -2    7.18    3.75
  -5  -2  -1  162.60   11.56
  -5  -2  -1  159.22   21.87
  -5  -2  -1  157.98   11.78
  -5  -2  -1  182.14   14.30
  -5  -2   0   70.77   14.43
  -5  -2   1   95.06   15.95
  -5  -2   2  364.17   30.84
  -5  -2   3  854.40   46.46
  -5  -2   4 1426.33   60.59
  -5  -2   5  706.15   43.27
  -5  -2   6  427.66   17.52
  -5  -2   7  161.18   11.48
  -5  -2   8  252.71   14.61
  -5  -2   9  261.59   14.73
  -5  -2  10  248.88   13.49
  -5  -2  11  367.20   14.33
  -5  -2  11  405.22   14.38
  -5  -2  12  137.84    7.08
  -5  -1  -7   34.19    5.19
  -5  -1  -6  244.22   15.33
  -5  -1  -5  911.39   31.31
  -5  -1  -4  380.67   17.79
  -5  -1  -4  365.14   20.26
  -5  -1  -3  330.94   16.45
  -5  -1  -3  323.63   18.39
  -5  -1  -2  124.85   10.07
  -5  -1  -2  123.50   10.75
  -5  -1  -2  132.29   19.73
  -5  -1  -1  372.57   32.35
  -5  -1   0  520.17   36.98
  -5  -1   1  943.32   48.68
  -5  -1   2 1240.08   54.18
  -5  -1   3 1160.22   51.35
  -5  -1   4  822.79   44.32
  -5  -1   5  376.62   30.37
  -5  -1   6    2.24    2.16
  -5  -1   7    7.93    2.96
  -5  -1   8  218.77   13.36
  -5  -1   9    5.90    2.76
  -5  -1  10    0.69    1.43
  -5  -1  11    2.18    1.64
  -5  -1  12   66.37    4.59
  -5   0  -8   40.38    4.64
  -5   0  -7  239.57   14.21
  -5   0  -7  250.77   14.24
  -5   0  -6  367.94   20.09
  -5   0  -6  424.16   20.71
  -5   0  -5  498.94   24.52
  -5   0  -5  581.21   25.15
  -5   0  -4  496.60   20.37
  -5   0  -4  471.03   22.35
  -5   0  -3  140.68   10.99
  -5   0  -3  157.61   11.48
  -5   0  -3  147.24   12.21
  -5   0  -2   21.30    8.05
  -5   0  -1  494.55   36.60
  -5   0   0  -16.23    7.51
  -5   0   1   10.69    5.95
  -5   0   2  154.08   18.57
  -5   0   3   82.26   13.39
  -5   0   4  576.47   35.30
  -5   0   5  741.71   40.82
  -5   0   6  379.19   16.27
  -5   0   7  750.04   23.66
  -5   0   8  292.28   14.71
  -5   0   9  408.23   16.11
  -5   0  10  158.51   10.41
  -5   0  11   60.16    5.46
  -5   1  -8   51.04    5.73
  -5   1  -8   50.94    6.31
  -5   1  -7    5.28    3.56
  -5   1  -7    4.37    3.46
  -5   1  -6   90.18   10.14
  -5   1  -6   85.74   10.62
  -5   1  -5    1.06    3.35
  -5   1  -5    1.82    2.85
  -5   1  -4  411.25   19.17
  -5   1  -4  436.35   18.95
  -5   1  -4  462.52   21.62
  -5   1  -4  441.66   20.42
  -5   1  -3 1656.79   73.49
  -5   1  -3 1645.52   35.10
  -5   1  -3 1660.27   38.09
  -5   1  -2 1513.85   66.95
  -5   1  -1  877.75   48.81
  -5   1   0  777.91   43.16
  -5   1   1  228.66   23.60
  -5   1   2 1096.56   47.43
  -5   1   3  317.59   25.08
  -5   1   4  172.71   18.81
  -5   1   6  303.53   14.23
  -5   1   6  289.59   28.51
  -5   1   7  464.91   38.62
  -5   1   7  533.66   19.09
  -5   1   9    5.31    3.35
  -5   1  10   53.00    5.76
  -5   1  11   41.37    3.94
  -5   2  -9  200.98   10.77
  -5   2  -8  165.73   12.56
  -5   2  -8  169.83   10.83
  -5   2  -7   74.32    9.80
  -5   2  -7   73.80    8.46
  -5   2  -6  449.60   18.73
  -5   2  -6  476.71   24.51
  -5   2  -6  436.50   21.51
  -5   2  -5  148.55   12.26
  -5   2  -5  133.73   10.76
  -5   2  -5  148.78   12.36
  -5   2  -4  331.20   34.89
  -5   2  -4  360.79   18.01
  -5   2  -4  369.27   17.62
  -5   2  -4  362.36   18.05
  -5   2  -4  360.30   18.24
  -5   2  -3   92.81   17.66
  -5   2  -2 1219.52   61.32
  -5   2  -1  555.14   38.53
  -5   2   0   40.12   11.07
  -5   2   1    0.94    3.22
  -5   2   2  641.17   35.77
  -5   2   3  302.51   24.04
  -5   2   5    8.19    2.87
  -5   2   6    7.81    3.51
  -5   2   6   11.91    6.98
  -5   2   7   66.16    7.64
  -5   2   8  380.09   17.41
  -5   2   9  451.10   17.35
  -5   2  10  205.87    9.81
  -5   3  -9  118.32    9.52
  -5   3  -8   48.32    7.56
  -5   3  -8   50.48    6.16
  -5   3  -7   81.42   10.22
  -5   3  -7   80.01    8.85
  -5   3  -6  438.02   19.31
  -5   3  -6  434.95   21.07
  -5   3  -5  191.61   12.99
  -5   3  -5  176.40   13.59
  -5   3  -5  180.13   13.53
  -5   3  -5  183.48   13.38
  -5   3  -4   11.27    3.93
  -5   3  -4   13.12    3.59
  -5   3  -4    6.02    2.62
  -5   3  -4   20.05    9.61
  -5   3  -4   12.58    3.86
  -5   3  -3  133.19   22.19
  -5   3  -2   10.67    6.55
  -5   3  -1  283.47   27.75
  -5   3   0 1606.16   63.62
  -5   3   1 1767.30   61.77
  -5   3   2 1303.68   51.26
  -5   3   4  363.91   15.28
  -5   3   5  331.34   15.49
  -5   3   6  372.62   17.08
  -5   3   7  143.92   10.76
  -5   3   8   89.92    8.00
  -5   3   9   94.01    7.03
  -5   3  10  119.91    5.87
  -5   4 -10   15.62    3.06
  -5   4  -9  160.99   11.45
  -5   4  -8  824.62   29.99
  -5   4  -8  790.48   24.07
  -5   4  -7  505.61   21.33
  -5   4  -7  519.54   25.13
  -5   4  -6  360.17   18.58
  -5   4  -6  357.40   18.78
  -5   4  -5  317.08   17.27
  -5   4  -5  346.93   17.99
  -5   4  -5  302.56   17.83
  -5   4  -5  323.84   17.18
  -5   4  -4  256.60   15.62
  -5   4  -4  262.76   15.10
  -5   4  -4  228.30   31.09
  -5   4  -4  260.03   14.79
  -5   4  -4  256.24   14.41
  -5   4  -3  352.73   36.30
  -5   4  -2  211.72   26.85
  -5   4  -1  554.35   40.06
  -5   4   0  361.64   30.69
  -5   4   1  688.91   39.12
  -5   4   3  246.80   12.35
  -5   4   4  100.49    8.39
  -5   4   5  222.77   12.76
  -5   4   6  330.83   15.70
  -5   4   7  168.64   10.80
  -5   4   8   42.91    4.98
  -5   4   9   39.96    3.62
  -5   5 -10  113.53    7.79
  -5   5  -9   74.05    8.15
  -5   5  -8   66.36    8.71
  -5   5  -8   63.10    6.97
  -5   5  -7  391.15   21.65
  -5   5  -7  373.88   18.15
  -5   5  -6   29.80    5.75
  -5   5  -6   30.66    5.73
  -5   5  -5  203.48   13.54
  -5   5  -5  187.31   12.56
  -5   5  -5  218.56   31.29
  -5   5  -5  191.46   13.14
  -5   5  -4   56.71    7.76
  -5   5  -4   61.85    7.10
  -5   5  -4   44.90   14.09
  -5   5  -4   58.92    7.06
  -5   5  -3  585.50   20.85
  -5   5  -3  546.78   46.82
  -5   5  -3  615.34   23.36
  -5   5  -3  604.81   20.42
  -5   5  -2  377.49   36.46
  -5   5  -1  494.12   38.68
  -5   5   0    4.99    3.83
  -5   5   2  143.24    9.38
  -5   5   3 1403.35   30.07
  -5   5   4 1113.14   27.55
  -5   5   5  667.43   21.44
  -5   5   6   85.97    7.51
  -5   5   7   78.75    6.48
  -5   6 -10   94.79    7.17
  -5   6  -9   26.56    5.12
  -5   6  -8   15.79    4.73
  -5   6  -8   13.31    3.18
  -5   6  -7   97.70    9.09
  -5   6  -6  178.22   12.60
  -5   6  -6  177.60   12.83
  -5   6  -6  194.42   13.03
  -5   6  -5  964.72   28.90
  -5   6  -5  935.17   28.98
  -5   6  -4 1217.59   32.17
  -5   6  -4 1198.51   30.56
  -5   6  -4 1150.26   34.16
  -5   6  -4 1118.62   72.68
  -5   6  -3 1417.26   31.37
  -5   6  -3 1350.29   35.28
  -5   6  -3 1322.59   33.22
  -5   6  -3 1270.72   73.24
  -5   6  -2  366.12   36.74
  -5   6  -2  377.21   17.88
  -5   6  -2  416.03   16.38
  -5   6  -1  184.40   24.26
  -5   6  -1  195.75   11.21
  -5   6   0   38.43    4.92
  -5   6   1  168.40   10.09
  -5   6   2   66.48    6.52
  -5   6   3  191.15   11.06
  -5   7 -10  146.60    8.20
  -5   7  -9   90.03    8.15
  -5   7  -8    5.79    2.60
  -5   7  -8   11.20    3.81
  -5   7  -8    7.55    2.66
  -5   7  -7  175.02   12.14
  -5   7  -7  220.04   15.17
  -5   7  -7  196.71   12.47
  -5   7  -6   71.80    8.00
  -5   7  -6   75.25    8.05
  -5   7  -6   72.16    8.38
  -5   7  -5   65.04    7.98
  -5   7  -5   75.72    8.01
  -5   7  -4  245.35   15.06
  -5   7  -4  232.70   13.30
  -5   7  -3   42.75    6.39
  -5   7  -3   38.11    5.31
  -5   7  -2   17.88    9.05
  -5   7  -2    3.86    2.67
  -5   8  -9  126.94    8.58
  -5   8  -8  276.66   14.45
  -5   8  -8  267.19   13.49
  -5   8  -8  280.70   12.56
  -5   8  -7  186.91   12.65
  -5   8  -7  198.84   11.80
  -5   8  -7  193.22   12.88
  -5   8  -6   95.05    9.62
  -5   8  -5   11.16    3.85
  -5   8  -4   33.41    6.04
  -5   8  -3  334.75   18.01
  -5   8  -2  913.20   29.37
  -5   8  -1  855.41   28.35
  -5   8   0  741.91   25.23
  -5   9  -9  465.21   14.12
  -5   9  -8  307.76   14.09
  -5   9  -7   54.79    6.90
  -5   9  -7   53.68    5.87
  -5   9  -6   34.25    6.18
  -5   9  -5   78.48    9.02
  -5   9  -4  168.00   12.88
  -5   9  -3  150.47   12.14
  -5   9  -2  114.87   10.49
  -5   9  -1    2.11    2.47
  -5   9   0  119.24    9.84
  -5   9   1    5.84    2.40
  -5  10  -9   13.31    2.44
  -5  10  -8    0.93    1.63
  -5  10  -7   33.57    4.16
  -5  10  -7   32.73    5.18
  -5  10  -6   61.31    7.50
  -5  10  -5  279.49   15.76
  -5  10  -4  305.54   16.50
  -5  10  -3  195.66   13.29
  -5  10  -2  197.98   12.74
  -5  10  -1   46.77    6.01
  -5  11  -8   95.54    6.57
  -5  11  -7  488.23   16.57
  -5  11  -7  440.62   12.25
  -5  11  -6  535.94   18.82
  -5  11  -5  457.19   17.94
  -5  11  -4  132.60    9.68
  -5  11  -3   13.50    3.32
  -5  11  -2   26.67    4.18
  -5  12  -7    9.42    2.01
  -5  12  -6    0.07    1.27
  -5  12  -5    6.51    2.04
  -5  12  -4   75.24    5.55
  -4 -11   4   97.13    7.39
  -4 -11   5  136.63    9.45
  -4 -11   6  132.58    9.36
  -4 -11   7  182.71   10.81
  -4 -11   8  222.35   10.64
  -4 -11   9  171.05    7.84
  -4 -10   1  309.33   12.94
  -4 -10   2  103.96    7.84
  -4 -10   2   98.72    8.28
  -4 -10   3    6.20    2.95
  -4 -10   4    2.42    2.40
  -4 -10   5    3.15    2.55
  -4 -10   6   78.01    8.56
  -4 -10   7  109.86    9.48
  -4 -10   8   14.93    3.62
  -4 -10   9   44.29    4.85
  -4  -9   0   41.26    6.35
  -4  -9   1   44.16    6.91
  -4  -9   1   53.31    6.24
  -4  -9   2  315.77   17.61
  -4  -9   2  353.15   17.57
  -4  -9   3  364.49   18.25
  -4  -9   3  452.89   20.98
  -4  -9   4  166.63   13.39
  -4  -9   5  303.09   18.11
  -4  -9   6   14.39    4.55
  -4  -9   7  193.35   13.31
  -4  -9   8  232.63   13.32
  -4  -9  10  309.53   12.72
  -4  -9  11  135.21    7.76
  -4  -9  12   94.48    5.50
  -4  -8  -2  170.82   11.27
  -4  -8  -1  364.86   18.35
  -4  -8  -1  225.56   14.81
  -4  -8   0  289.17   18.37
  -4  -8   0  292.29   14.77
  -4  -8   1  215.05   14.27
  -4  -8   1  209.15   16.15
  -4  -8   2  406.27   20.41
  -4  -8   2  390.99   21.63
  -4  -8   3  387.55   20.21
  -4  -8   3  423.86   22.36
  -4  -8   4  361.21   19.97
  -4  -8   5   74.76    9.31
  -4  -8   6    7.03    3.51
  -4  -8   7   75.16    8.55
  -4  -8   8    4.69    2.58
  -4  -8   9    4.37    2.54
  -4  -8  10   26.88    4.46
  -4  -8  11    1.63    1.66
  -4  -8  12   42.50    4.34
  -4  -7  -3   72.81    7.70
  -4  -7  -3  197.38   13.69
  -4  -7  -2   -1.64    3.59
  -4  -7  -2    1.38    3.46
  -4  -7  -1   34.79    6.63
  -4  -7  -1   37.65    5.43
  -4  -7  -1   30.70    7.03
  -4  -7   0   69.41    8.17
  -4  -7   0   56.21    9.28
  -4  -7   0   59.70    8.64
  -4  -7   1   46.57    8.54
  -4  -7   1   63.54    9.11
  -4  -7   1   41.13    7.01
  -4  -7   2   25.35    5.55
  -4  -7   2   38.95    7.47
  -4  -7   3   15.61    4.79
  -4  -7   4  110.34   10.73
  -4  -7   5  773.00   27.67
  -4  -7   6  667.65   25.44
  -4  -7   7  238.32   13.51
  -4  -7   7  258.86   14.86
  -4  -7   8  204.97   12.93
  -4  -7   9   36.26    5.94
  -4  -7  10  126.82    9.96
  -4  -7  11  199.12   11.59
  -4  -7  12  233.82   10.76
  -4  -7  13   58.47    4.28
  -4  -6  -4  182.56   11.53
  -4  -6  -3  357.20   18.50
  -4  -6  -3  390.81   20.18
  -4  -6  -2  571.34   26.77
  -4  -6  -2  568.56   25.40
  -4  -6  -2  561.37   24.80
  -4  -6  -1  274.55   19.56
  -4  -6  -1  250.82   14.96
  -4  -6  -1  248.87   16.84
  -4  -6  -1  256.51   16.57
  -4  -6   0  205.67   14.16
  -4  -6   0  182.78   14.27
  -4  -6   0  184.94   13.22
  -4  -6   0  204.89   16.98
  -4  -6   1  136.18   12.15
  -4  -6   1  159.86   12.34
  -4  -6   1  152.77   14.29
  -4  -6   1  146.26   11.49
  -4  -6   2  231.72   14.75
  -4  -6   2  255.76   15.59
  -4  -6   2  212.99   15.51
  -4  -6   3  305.43   16.84
  -4  -6   4  363.89   18.05
  -4  -6   5  411.90   18.82
  -4  -6   6  488.56   18.58
  -4  -6   6  474.24   19.75
  -4  -6   7  272.06   14.71
  -4  -6   8  116.58   10.20
  -4  -6   9   48.67    6.79
  -4  -6  10  140.71   10.91
  -4  -6  11   16.31    4.01
  -4  -6  12   10.27    2.68
  -4  -6  13   48.27    3.96
  -4  -5  -5  165.89   10.65
  -4  -5  -4  166.32   12.74
  -4  -5  -4  174.75   13.35
  -4  -5  -3  161.61   13.34
  -4  -5  -3  162.74   13.74
  -4  -5  -3  138.52   13.27
  -4  -5  -2  198.51   16.45
  -4  -5  -2  196.91   12.73
  -4  -5  -2  203.80   15.07
  -4  -5  -2  225.29   15.80
  -4  -5  -1  305.85   20.48
  -4  -5  -1  305.18   17.75
  -4  -5  -1  304.31   16.28
  -4  -5  -1  301.33   17.76
  -4  -5   0   38.28    6.34
  -4  -5   0   37.60    6.21
  -4  -5   0   42.09    7.72
  -4  -5   0   34.52    5.95
  -4  -5   1    3.25    3.20
  -4  -5   1    7.19    3.71
  -4  -5   1    4.25    2.05
  -4  -5   2  174.49   11.92
  -4  -5   6   18.47    3.85
  -4  -5   7  183.80   12.20
  -4  -5   8  854.60   26.90
  -4  -5   9 1001.15   29.48
  -4  -5  10  540.24   21.17
  -4  -5  11   39.99    5.61
  -4  -5  12  109.76    7.65
  -4  -5  13  155.18    6.61
  -4  -4  -6   54.34    5.71
  -4  -4  -5   43.47    7.04
  -4  -4  -5   38.77    6.09
  -4  -4  -4    4.17    3.16
  -4  -4  -4   -0.28    3.12
  -4  -4  -3    0.61    4.29
  -4  -4  -3    5.09    3.20
  -4  -4  -3    5.40    3.81
  -4  -4  -2   24.95    6.26
  -4  -4  -2   20.30    4.47
  -4  -4  -2   32.23    5.48
  -4  -4  -2   39.53    6.92
  -4  -4  -1  326.41   20.31
  -4  -4  -1  323.83   16.79
  -4  -4  -1  343.78   16.72
  -4  -4  -1  338.39   17.57
  -4  -4   1 1119.98   54.74
  -4  -4   2 1230.21   57.02
  -4  -4   7  519.87   20.30
  -4  -4   8  125.65   10.40
  -4  -4   9  233.79   14.32
  -4  -4  10  229.61   13.79
  -4  -4  11   71.99    7.24
  -4  -4  12    1.40    1.36
  -4  -4  12    1.39    1.59
  -4  -3  -6  211.19   13.48
  -4  -3  -6  176.45   11.54
  -4  -3  -5   78.99    8.90
  -4  -3  -5  101.02   11.02
  -4  -3  -4  118.34   11.11
  -4  -3  -4  127.44   12.32
  -4  -3  -4  115.05   12.04
  -4  -3  -3  129.95   11.24
  -4  -3  -3  135.12   12.74
  -4  -3  -3  151.05   12.96
  -4  -3  -2  600.22   21.17
  -4  -3  -2  627.28   26.57
  -4  -3  -2  657.25   24.87
  -4  -3  -2  613.22   22.20
  -4  -3   0  778.08   42.91
  -4  -3   1  448.78   32.24
  -4  -3   2  163.13   19.38
  -4  -3   3    6.10    4.93
  -4  -3   4    0.61    3.77
  -4  -3   7  137.11   10.19
  -4  -3   8   34.35    5.63
  -4  -3   9    4.88    2.51
  -4  -3  10  127.59   10.09
  -4  -3  11  323.45   14.27
  -4  -3  12  366.57   11.82
  -4  -2  -7   42.14    5.76
  -4  -2  -6   69.28    7.81
  -4  -2  -6   68.16    8.65
  -4  -2  -5   34.35    6.72
  -4  -2  -5   33.54    6.02
  -4  -2  -4    5.76    2.95
  -4  -2  -4    1.79    3.17
  -4  -2  -3  348.60   16.66
  -4  -2  -3  362.31   16.30
  -4  -2  -3  346.27   18.53
  -4  -2  -3  334.20   18.78
  -4  -2  -1   11.10    5.65
  -4  -2   0   58.18   11.07
  -4  -2   1  115.83   15.40
  -4  -2   2  434.90   29.07
  -4  -2   3 2505.02   69.10
  -4  -2   4 2410.26   69.26
  -4  -2   7  163.51   10.92
  -4  -2   8  173.68   11.73
  -4  -2   9   65.32    7.42
  -4  -2  10  231.49   12.81
  -4  -2  11  182.36    9.82
  -4  -2  12  121.01    7.07
  -4  -1  -8   27.01    4.03
  -4  -1  -7   61.95    7.65
  -4  -1  -6  338.72   19.26
  -4  -1  -6  357.90   19.57
  -4  -1  -5  660.99   27.45
  -4  -1  -5  719.55   27.83
  -4  -1  -4 1158.07   34.35
  -4  -1  -4 1205.72   34.33
  -4  -1  -2  435.12   31.17
  -4  -1  -1   67.92   12.58
  -4  -1   0   38.40    9.65
  -4  -1   1  339.58   25.05
  -4  -1   2  632.04   32.88
  -4  -1   3 1078.91   43.73
  -4  -1   4  652.64   34.17
  -4  -1   4  588.64   26.71
  -4  -1   5  226.43   20.88
  -4  -1   5  197.22   18.01
  -4  -1   6   28.86    8.00
  -4  -1   7  186.05   11.34
  -4  -1   7  178.97   21.61
  -4  -1   8  102.19   18.00
  -4  -1   8  126.28    9.71
  -4  -1   9   45.45    5.82
  -4  -1  12   32.82    3.48
  -4   0  -8   64.63    7.46
  -4   0  -8   65.76    6.77
  -4   0  -7  179.53   14.19
  -4   0  -7  170.53   12.79
  -4   0  -6  133.70   12.98
  -4   0  -6  120.22   11.38
  -4   0  -5  274.96   18.17
  -4   0  -5  308.05   17.89
  -4   0  -4  130.62   11.24
  -4   0  -3  128.81   18.22
  -4   0  -2   83.01   13.91
  -4   0  -1  662.11   36.53
  -4   0   0  650.47   34.97
  -4   0   1  189.60   18.71
  -4   0   2   65.30   10.23
  -4   0   3  474.34   27.31
  -4   0   4  341.80   23.50
  -4   0   5 1052.38   44.89
  -4   0   6 1252.13   54.84
  -4   0   7 1374.33   63.16
  -4   0   7 1344.82   29.89
  -4   0   8  706.93   22.01
  -4   0   8  708.12   48.81
  -4   0  11  150.35    8.77
  -4   0  12   45.03    3.52
  -4   1  -9    9.33    3.16
  -4   1  -8  181.45   13.90
  -4   1  -8  198.33   12.32
  -4   1  -7   76.62   10.05
  -4   1  -7   77.83    8.94
  -4   1  -6   87.75   10.86
  -4   1  -6   66.88    8.54
  -4   1  -5   52.08    7.61
  -4   1  -4   38.15   10.67
  -4   1  -3  241.59   25.35
  -4   1  -2 2396.37   74.44
  -4   1  -1 4318.28   95.38
  -4   1   0 2361.42   64.96
  -4   1   1 1288.22   46.90
  -4   1   2   47.00    8.98
  -4   1   3  222.32   17.86
  -4   1   4  397.44   24.25
  -4   1   6  346.66   30.90
  -4   1   7   69.67   14.23
  -4   1  11   48.00    4.46
  -4   2 -10  256.48   11.43
  -4   2  -9  556.50   22.26
  -4   2  -8  277.68   18.22
  -4   2  -8  279.26   14.92
  -4   2  -7  272.63   18.65
  -4   2  -7  275.82   16.26
  -4   2  -6   32.21    6.66
  -4   2  -6   24.97    5.49
  -4   2  -5    8.88    3.05
  -4   2  -5    1.35    2.95
  -4   2  -5   10.70    3.56
  -4   2  -5    5.78    2.85
  -4   2  -4  433.12   36.62
  -4   2  -3  864.30   48.86
  -4   2  -2 1482.35   59.98
  -4   2  -1  108.91   15.71
  -4   2   0  130.02   16.19
  -4   2   1   78.90   11.21
  -4   2   2 1118.01   41.07
  -4   2   3  545.02   27.47
  -4   2   6   96.50   17.41
  -4   2  10  338.36   12.75
  -4   3 -10   59.36    6.47
  -4   3  -9    6.83    3.20
  -4   3  -8   20.45    5.76
  -4   3  -8   20.68    4.61
  -4   3  -7  217.48   16.62
  -4   3  -7  224.75   14.63
  -4   3  -6   56.69    6.94
  -4   3  -6   63.16    7.89
  -4   3  -5  191.98   13.25
  -4   3  -5  207.44   12.76
  -4   3  -5  241.97   30.19
  -4   3  -5  204.00   13.29
  -4   3  -5  203.46   13.25
  -4   3  -4  688.11   47.91
  -4   3  -3  602.23   41.85
  -4   3  -2  300.07   28.48
  -4   3  -1  136.43   18.11
  -4   3   0  609.17   33.74
  -4   3   1 1710.88   53.12
  -4   3   2 2911.45   64.81
  -4   3   6  -13.31    7.85
  -4   3   8  436.76   17.43
  -4   3   9   35.34    4.48
  -4   3  10   34.18    3.21
  -4   4 -10  175.88   11.53
  -4   4  -9  116.82   11.29
  -4   4  -8  223.57   16.35
  -4   4  -8  218.24   13.20
  -4   4  -7  474.95   24.20
  -4   4  -7  462.47   20.24
  -4   4  -6 1670.55   38.59
  -4   4  -6 1708.14   38.13
  -4   4  -5 1107.64   66.31
  -4   4  -5 1221.46   30.71
  -4   4  -5 1186.62   30.78
  -4   4  -5 1299.47   31.61
  -4   4  -4  168.11   24.28
  -4   4  -3  138.57   21.27
  -4   4  -2   14.69    7.92
  -4   4  -1   49.67   11.79
  -4   4   0  804.30   40.12
  -4   4   1  675.89   33.83
  -4   4   4   65.49    6.31
  -4   4   5  152.51   10.21
  -4   4   6  153.61   10.57
  -4   4   7  233.76   12.55
  -4   4   8  159.68    9.20
  -4   5 -11    3.64    1.54
  -4   5 -10    5.01    2.83
  -4   5  -9   22.21    5.40
  -4   5  -8  264.25   17.63
  -4   5  -8  236.80   13.65
  -4   5  -7  166.35   11.83
  -4   5  -6   13.22    9.26
  -4   5  -6   18.35    3.76
  -4   5  -6   11.39    3.39
  -4   5  -6   23.75    4.76
  -4   5  -5   37.49    5.63
  -4   5  -5   37.44    5.78
  -4   5  -4  336.67   33.90
  -4   5  -4  286.12   33.27
  -4   5  -3  425.95   36.01
  -4   5  -3  420.69   38.06
  -4   5  -2  460.96   34.91
  -4   5  -2  412.32   34.95
  -4   5  -1  338.01   29.51
  -4   5   0  304.65   25.66
  -4   5   4  658.83   20.22
  -4   5   5  796.45   22.75
  -4   5   6 1080.44   25.67
  -4   6 -11   10.42    2.52
  -4   6 -10  136.66   10.25
  -4   6  -9  170.40   13.01
  -4   6  -8  154.77   11.24
  -4   6  -8  167.33   13.64
  -4   6  -7  221.49   14.15
  -4   6  -7  245.92   14.08
  -4   6  -6   27.90   11.57
  -4   6  -6   21.10    4.71
  -4   6  -6   21.98    4.58
  -4   6  -5  566.20   21.92
  -4   6  -5  542.52   49.87
  -4   6  -5  549.11   47.19
  -4   6  -5  537.73   20.16
  -4   6  -4 1254.73   31.05
  -4   6  -4 1323.68   69.52
  -4   6  -3 1551.41   70.89
  -4   6  -3 1337.94   69.81
  -4   6  -2 1043.94   54.63
  -4   6  -2 1025.54   56.88
  -4   6  -1  475.73   33.96
  -4   6  -1  403.61   33.34
  -4   7 -10  179.26   10.97
  -4   7  -9   82.15    7.45
  -4   7  -9   82.42    8.61
  -4   7  -8   27.85    5.22
  -4   7  -8   36.65    6.23
  -4   7  -7   66.54    8.01
  -4   7  -7   68.41    8.59
  -4   7  -7   66.06    7.24
  -4   7  -6   16.59    3.90
  -4   7  -6   16.20    4.38
  -4   7  -5  169.32   12.48
  -4   7  -5  158.15   26.56
  -4   7  -5  153.49   10.84
  -4   7  -4  203.54   28.30
  -4   7  -4  213.62   13.66
  -4   7  -3    1.98    1.93
  -4   7  -3   -3.85    5.03
  -4   7  -2  117.06    9.93
  -4   7  -2  104.67   18.32
  -4   7  -2  102.93   19.22
  -4   8 -10   38.16    4.59
  -4   8  -9  217.09   12.23
  -4   8  -9  230.47   12.94
  -4   8  -8  176.52   12.39
  -4   8  -8  146.34   10.94
  -4   8  -7  477.29   21.41
  -4   8  -7  527.08   19.39
  -4   8  -6  322.93   17.82
  -4   8  -5  341.37   18.52
  -4   8  -4  163.78   12.45
  -4   8  -4  131.62   24.07
  -4   8  -4  150.49   27.94
  -4   8  -3  241.79   15.03
  -4   8  -3  182.81   25.93
  -4   8  -3  244.44   32.40
  -4   8  -2  327.95   16.83
  -4   8  -1  554.36   21.71
  -4   8   0 1265.24   32.01
  -4   9 -10  176.62    8.60
  -4   9  -9  263.06   13.15
  -4   9  -8  440.09   18.91
  -4   9  -7  340.43   17.88
  -4   9  -6  109.06   10.48
  -4   9  -5  113.00   10.78
  -4   9  -4   58.05    7.88
  -4   9  -3   -0.23    2.15
  -4   9  -2  122.12   10.58
  -4   9  -1  184.10   12.52
  -4  10 -10   12.07    2.65
  -4  10  -9   25.15    4.26
  -4  10  -8    1.49    1.93
  -4  10  -7  200.93   13.28
  -4  10  -6  392.49   19.07
  -4  10  -5  496.92   21.52
  -4  10  -4  316.47   17.12
  -4  10  -3   48.92    6.90
  -4  10  -2  391.09   17.76
  -4  11  -9   85.73    6.31
  -4  11  -8  160.69    9.85
  -4  11  -7  136.42    9.93
  -4  11  -6  355.72   16.58
  -4  11  -5  374.01   17.02
  -4  11  -4  253.15   13.81
  -4  11  -3   55.33    6.18
  -4  12  -8    7.03    1.90
  -4  12  -7   -0.12    1.38
  -4  12  -6   18.84    3.41
  -4  12  -5    8.01    2.36
  -3 -12   5    1.10    1.54
  -3 -12   6   20.49    3.62
  -3 -12   7   40.43    4.78
  -3 -12   8  252.72   10.52
  -3 -11   2   99.23    7.08
  -3 -11   3   73.66    6.74
  -3 -11   4  132.53    9.84
  -3 -11   5   85.17    8.49
  -3 -11   6  232.85   13.57
  -3 -11   7  378.27   16.87
  -3 -11   8  127.49    9.21
  -3 -11   9   83.49    6.42
  -3 -10   0  137.51    9.74
  -3 -10   1   75.52    8.18
  -3 -10   2    2.26    2.06
  -3 -10   2    3.55    3.19
  -3 -10   3   -8.62    3.62
  -3 -10   3    1.26    2.46
  -3 -10   4    2.47    2.80
  -3 -10   5   11.04    4.30
  -3 -10   6    5.14    3.38
  -3 -10   7   42.48    6.74
  -3 -10   8    5.20    2.91
  -3 -10   9    5.18    2.22
  -3 -10  11  119.44    6.50
  -3  -9  -2   27.36    4.82
  -3  -9  -1    1.51    2.80
  -3  -9   0   64.34    9.31
  -3  -9   1  150.23   13.57
  -3  -9   1  139.74   10.81
  -3  -9   2  184.06   13.49
  -3  -9   2  189.53   14.98
  -3  -9   3  334.05   18.99
  -3  -9   3  395.67   20.19
  -3  -9   4  452.55   21.96
  -3  -9   5  574.04   25.10
  -3  -9   6  104.73   10.52
  -3  -9   7   42.13    6.69
  -3  -9   8   99.38    9.09
  -3  -9   9   96.68    8.06
  -3  -9  10  297.17   13.53
  -3  -9  11  291.29   12.35
  -3  -9  12   99.46    6.27
  -3  -8  -3  199.82   11.92
  -3  -8  -3  212.03   11.79
  -3  -8  -2   63.02    8.24
  -3  -8  -2   64.90    8.19
  -3  -8  -1  102.78   10.87
  -3  -8  -1  123.36   12.62
  -3  -8   0   12.37    5.25
  -3  -8   0   18.12    4.30
  -3  -8   0   13.58    5.73
  -3  -8   1  483.16   25.31
  -3  -8   1  480.65   23.50
  -3  -8   1  438.39   20.32
  -3  -8   2  554.97   26.28
  -3  -8   2  525.97   23.49
  -3  -8   3  196.69   14.74
  -3  -8   3  202.40   14.99
  -3  -8   4  266.20   16.66
  -3  -8   5   24.97    5.49
  -3  -8   6    7.11    3.00
  -3  -8   7    4.50    2.72
  -3  -8   8   60.55    6.94
  -3  -8   8   59.30    7.08
  -3  -8   9   30.75    5.32
  -3  -8  10   20.41    4.18
  -3  -8  11   20.88    3.93
  -3  -8  12   12.96    2.72
  -3  -8  13  122.52    6.07
  -3  -7  -4    3.83    2.51
  -3  -7  -4   79.84    7.92
  -3  -7  -3   12.41    4.12
  -3  -7  -3   14.96    4.33
  -3  -7  -2   29.02    6.68
  -3  -7  -2   43.88    7.44
  -3  -7  -1    5.09    3.76
  -3  -7  -1    6.19    4.64
  -3  -7   0   19.89    5.96
  -3  -7   0   12.67    3.43
  -3  -7   0   15.58    4.93
  -3  -7   1   86.93   11.05
  -3  -7   1   90.48    9.88
  -3  -7   1   92.77   10.17
  -3  -7   2   57.64    8.28
  -3  -7   2   56.62    7.42
  -3  -7   2   52.79    8.02
  -3  -7   3  201.88   13.84
  -3  -7   4   51.47    7.18
  -3  -7   5  352.40   17.84
  -3  -7   6  931.18   28.38
  -3  -7   7  943.27   26.78
  -3  -7   7 1014.65   28.37
  -3  -7   8  660.54   23.25
  -3  -7   9  178.11   12.29
  -3  -7  10   12.94    3.63
  -3  -7  11   34.65    5.21
  -3  -7  12  118.89    8.02
  -3  -7  13  154.03    7.21
  -3  -6  -5  102.11    8.67
  -3  -6  -4  156.39   12.46
  -3  -6  -4  146.25   11.92
  -3  -6  -3  309.50   19.46
  -3  -6  -3  349.55   20.20
  -3  -6  -2  456.35   24.63
  -3  -6  -2  451.85   22.74
  -3  -6  -2  463.10   23.07
  -3  -6  -1 1109.06   38.18
  -3  -6  -1 1103.31   34.54
  -3  -6  -1 1050.05   29.40
  -3  -6  -1 1044.78   33.19
  -3  -6   0  757.37   31.15
  -3  -6   0  740.64   27.61
  -3  -6   0  722.94   24.58
  -3  -6   0  754.12   26.07
  -3  -6   1   96.78   10.55
  -3  -6   1  100.50    9.89
  -3  -6   1   93.28    8.58
  -3  -6   1   93.21    8.82
  -3  -6   2  113.54   10.12
  -3  -6   2  137.94   10.67
  -3  -6   7   21.21    3.95
  -3  -6   8    1.02    1.82
  -3  -6   9   53.39    6.89
  -3  -6  10  113.37    9.76
  -3  -6  11    0.91    1.99
  -3  -6  12   81.87    7.04
  -3  -6  13   21.46    2.87
  -3  -5  -6   12.68    3.42
  -3  -5  -5   80.08    8.92
  -3  -5  -5  119.70   10.86
  -3  -5  -4  456.45   22.87
  -3  -5  -4  485.74   23.83
  -3  -5  -3  473.05   24.34
  -3  -5  -3  452.76   22.84
  -3  -5  -3  461.02   23.05
  -3  -5  -2  342.81   21.08
  -3  -5  -2  346.90   19.22
  -3  -5  -2  357.26   19.60
  -3  -5  -1   45.83    7.03
  -3  -5  -1   54.36    6.57
  -3  -5  -1   54.27    8.52
  -3  -5  -1   45.29    6.61
  -3  -5   7   26.80    4.56
  -3  -5   8  255.82   14.41
  -3  -5   9  427.10   19.04
  -3  -5  10  715.77   24.24
  -3  -5  11  597.10   20.59
  -3  -5  12  143.48    8.85
  -3  -5  13   13.02    2.26
  -3  -4  -7  108.74    7.77
  -3  -4  -6   18.13    4.79
  -3  -4  -6   29.04    5.39
  -3  -4  -5    2.65    3.35
  -3  -4  -5    3.05    3.40
  -3  -4  -5    3.75    3.78
  -3  -4  -4  109.08   11.94
  -3  -4  -4  103.66   11.76
  -3  -4  -4  126.05   11.70
  -3  -4  -3  211.98   16.04
  -3  -4  -3  206.69   31.53
  -3  -4  -3  205.06   14.57
  -3  -4  -3  208.70   15.21
  -3  -4  -2  579.80   25.57
  -3  -4  -2  597.21   22.88
  -3  -4  -2  534.88   48.57
  -3  -4  -2  591.14   23.70
  -3  -4  -1  200.81   26.71
  -3  -4   8  324.31   15.98
  -3  -4   9 1172.91   30.98
  -3  -4  10    5.94    2.92
  -3  -4  11    6.97    2.09
  -3  -4  12   77.10    6.14
  -3  -4  13   34.41    2.98
  -3  -3  -7  285.91   14.57
  -3  -3  -7  300.12   14.89
  -3  -3  -6  478.04   21.54
  -3  -3  -6  536.93   23.33
  -3  -3  -5   98.93   10.87
  -3  -3  -5  105.77   10.84
  -3  -3  -5   81.11    9.35
  -3  -3  -4  222.41   15.69
  -3  -3  -4  230.22   15.32
  -3  -3  -4  203.15   15.41
  -3  -3  -4  209.01   31.33
  -3  -3  -3   12.06    4.17
  -3  -3  -3    4.79    2.57
  -3  -3  -3    5.45    6.29
  -3  -3  -3    8.18    2.93
  -3  -3  -2   28.41   10.12
  -3  -3  -1  774.81   46.71
  -3  -3   0  172.96   17.24
  -3  -3   1  853.29   37.90
  -3  -3   2  104.80   13.29
  -3  -3   3   21.01    7.19
  -3  -3   6  326.79   24.47
  -3  -3   7  102.06   15.05
  -3  -3   8  124.73    9.87
  -3  -3   8  136.98   19.82
  -3  -3   9  354.18   16.80
  -3  -3  10  102.96    8.90
  -3  -3  11  229.45   11.87
  -3  -2  -8  134.40    9.03
  -3  -2  -7   49.20    6.82
  -3  -2  -7   65.50    7.83
  -3  -2  -6   12.34    3.52
  -3  -2  -6    3.77    3.42
  -3  -2  -5  124.47   11.23
  -3  -2  -5  140.13   12.34
  -3  -2  -5  112.25   20.97
  -3  -2  -5  100.42   10.34
  -3  -2  -4  184.07   13.63
  -3  -2  -4  190.58   28.19
  -3  -2  -4  207.40   13.35
  -3  -2  -4  241.22   15.36
  -3  -2  -3  263.94   30.43
  -3  -2  -2   73.76   15.09
  -3  -2  -1  224.72   23.30
  -3  -2  -1  176.04   16.51
  -3  -2   0  282.91   20.28
  -3  -2   1  671.00   30.70
  -3  -2   2  652.27   30.53
  -3  -2   3 1684.42   49.12
  -3  -2   3 1344.55   24.73
  -3  -2   4 2060.49   56.19
  -3  -2   4 1804.01   42.62
  -3  -2   5 2282.96   57.92
  -3  -2   6 1189.29   48.27
  -3  -2   7  339.73   29.10
  -3  -2   8   28.33    4.74
  -3  -2   8   30.53   10.05
  -3  -2   9   17.83    3.85
  -3  -2  10  171.40   10.74
  -3  -1  -8   65.12    7.14
  -3  -1  -8   63.92    7.73
  -3  -1  -8   74.14    7.43
  -3  -1  -7  151.71   11.91
  -3  -1  -7  140.59   12.68
  -3  -1  -7  178.96   13.21
  -3  -1  -6  406.76   19.96
  -3  -1  -6  393.74   21.77
  -3  -1  -6  451.58   21.57
  -3  -1  -5  640.70   23.67
  -3  -1  -5  634.76   26.66
  -3  -1  -5  655.34   50.20
  -3  -1  -5  714.58   26.50
  -3  -1  -5  642.09   24.02
  -3  -1  -4  924.83   56.05
  -3  -1  -3 1330.28   60.63
  -3  -1  -2 1081.35   48.67
  -3  -1  -2 1079.22   41.22
  -3  -1  -1  188.89   17.29
  -3  -1   0  191.45   16.12
  -3  -1   1   57.67    9.38
  -3  -1   2   46.91    8.47
  -3  -1   3 1028.44   35.65
  -3  -1   4  447.86   23.14
  -3  -1   4  481.14   25.62
  -3  -1   5   23.74    6.50
  -3  -1   6   58.31   11.41
  -3  -1   7  999.63   51.59
  -3  -1   8   91.98   17.34
  -3  -1   8   85.40    7.71
  -3   0  -9   63.13    7.20
  -3   0  -8    4.15    2.37
  -3   0  -8    2.87    3.42
  -3   0  -8    4.19    2.74
  -3   0  -7   26.61    5.07
  -3   0  -7   26.84    6.32
  -3   0  -7   44.12    6.99
  -3   0  -6  156.48   11.81
  -3   0  -6  167.94   14.25
  -3   0  -6  163.19   13.45
  -3   0  -5  260.88   16.75
  -3   0  -5  267.49   15.72
  -3   0  -4  161.30   20.92
  -3   0  -3   32.12    9.22
  -3   0  -3   31.39    8.04
  -3   0  -2 1213.43   44.74
  -3   0  -1  785.82   34.07
  -3   0   0  872.12   33.20
  -3   0   1 2966.77   58.98
  -3   0   2  136.10   12.43
  -3   0   3 1344.62   38.22
  -3   0   4  311.12   19.27
  -3   0   5   61.05   10.85
  -3   0   6  466.51   33.58
  -3   0   7  810.58   48.69
  -3   0   8 1520.06   71.60
  -3   0  12    1.59    0.95
  -3   1 -10  185.29   10.62
  -3   1  -9  325.10   17.99
  -3   1  -8  204.69   15.96
  -3   1  -8  196.09   12.70
  -3   1  -7  122.51   12.89
  -3   1  -7  140.46   11.58
  -3   1  -6  149.49   13.47
  -3   1  -6  145.55   11.73
  -3   1  -4  956.64   46.76
  -3   1  -3  448.71   30.14
  -3   1  -2 1538.15   52.23
  -3   1  -1 2560.55   61.73
  -3   1   0  613.01   29.59
  -3   1   1 4234.11   69.06
  -3   1   2   95.68   10.10
  -3   1   3  179.22   13.40
  -3   1   4    0.12    1.24
  -3   1   6  513.07   37.15
  -3   1   7  373.91   34.89
  -3   1  11  190.89    8.52
  -3   2 -10  186.47   12.23
  -3   2  -9  335.77   19.36
  -3   2  -8  174.21   14.86
  -3   2  -7  245.24   17.57
  -3   2  -7  229.91   14.53
  -3   2  -6   25.73    5.71
  -3   2  -6   28.90    5.14
  -3   2  -5   24.30    8.90
  -3   2  -4  102.80   16.59
  -3   2  -3  188.64   20.48
  -3   2  -2  105.31   14.55
  -3   2  -1  272.03   20.65
  -3   2   0  448.47   24.66
  -3   2   1  563.86   25.19
  -3   2   2 1906.79   43.52
  -3   2   3  872.88   27.52
  -3   2   6  155.32   22.08
  -3   2   7  105.27   20.42
  -3   2  10  231.88   10.35
  -3   3 -11    5.06    2.17
  -3   3 -10   48.95    7.15
  -3   3  -9   31.88    7.05
  -3   3  -8   62.54    9.04
  -3   3  -7  356.25   20.79
  -3   3  -7  338.52   16.75
  -3   3  -6  629.48   46.28
  -3   3  -5  733.00   47.85
  -3   3  -4  306.79   27.49
  -3   3  -3  172.69   19.63
  -3   3  -2   94.21   13.07
  -3   3  -1 1175.36   44.05
  -3   3  -1 1204.45   42.93
  -3   3   0 2341.53   54.22
  -3   3   0 2164.45   55.81
  -3   3   1 1782.73   46.01
  -3   3   2 2422.72   48.36
  -3   3   6    0.86    8.41
  -3   3   9   11.97    2.82
  -3   4 -11    8.84    2.85
  -3   4 -10   46.97    6.94
  -3   4  -9  411.81   21.73
  -3   4  -8  720.06   29.15
  -3   4  -7  948.20   32.75
  -3   4  -7  969.08   27.34
  -3   4  -6  430.60   18.36
  -3   4  -5  242.47   27.33
  -3   4  -4  477.82   35.32
  -3   4  -3  211.22   22.27
  -3   4  -2  477.35   30.63
  -3   4  -1  252.87   20.72
  -3   4   0  108.61   12.29
  -3   4   0  114.45   13.25
  -3   4   1    4.05    2.83
  -3   4   7  150.71    9.83
  -3   4   8   77.87    6.29
  -3   5 -11   25.45    4.46
  -3   5 -10    6.00    3.08
  -3   5  -9    8.05    3.38
  -3   5  -8   61.44    8.66
  -3   5  -7  131.74   10.77
  -3   5  -7  156.64   13.16
  -3   5  -6   62.19    7.23
  -3   5  -6   56.46   14.35
  -3   5  -6   58.28    6.79
  -3   5  -5   88.65   17.04
  -3   5  -4  715.02   45.16
  -3   5  -3 1266.23   56.16
  -3   5  -2 2693.34   77.89
  -3   5  -1  761.92   37.97
  -3   5   0  370.65   23.82
  -3   5   0  414.42   26.52
  -3   6 -11  408.32   16.08
  -3   6 -10  376.85   18.40
  -3   6  -9  231.78   15.66
  -3   6  -9  211.45   13.08
  -3   6  -8   37.83    6.13
  -3   6  -8   40.06    6.90
  -3   6  -7  137.40   11.25
  -3   6  -7  124.32   22.48
  -3   6  -7  166.81   13.03
  -3   6  -6  696.20   24.46
  -3   6  -6  724.17   22.95
  -3   6  -5  664.72   48.46
  -3   6  -4  791.44   50.43
  -3   6  -3  149.36   20.99
  -3   6  -2  538.03   37.04
  -3   6  -1  452.22   31.08
  -3   7 -11   87.28    7.12
  -3   7 -10   48.86    6.49
  -3   7 -10   50.33    5.75
  -3   7  -9    2.85    2.82
  -3   7  -9    0.29    2.57
  -3   7  -8   79.30    8.82
  -3   7  -8   90.84    9.43
  -3   7  -7    2.21    2.82
  -3   7  -7   -0.93    1.80
  -3   7  -6  269.19   33.25
  -3   7  -6  281.88   16.03
  -3   7  -5   -1.08    2.62
  -3   7  -5    0.75    4.06
  -3   7  -4    8.68    6.55
  -3   7  -4    2.77    2.05
  -3   7  -3   50.74   13.42
  -3   7  -2   13.52    6.90
  -3   8 -10   44.00    5.50
  -3   8  -9  347.93   17.26
  -3   8  -8  888.39   29.16
  -3   8  -7  584.56   23.94
  -3   8  -6   97.36    9.83
  -3   8  -5  111.95   21.50
  -3   8  -5  126.40   10.96
  -3   8  -4  144.87   11.34
  -3   8  -4  144.37   23.34
  -3   8  -3  509.79   41.97
  -3   8  -3  536.06   21.09
  -3   8  -2  492.86   19.83
  -3   8  -1  738.20   23.57
  -3   9 -11  160.91    7.61
  -3   9 -10  301.55   13.65
  -3   9  -9  360.03   16.99
  -3   9  -8   51.31    7.08
  -3   9  -7  162.04   12.94
  -3   9  -6   53.69    7.48
  -3   9  -5   -0.21    2.71
  -3   9  -4    1.82    2.33
  -3   9  -3   38.24    6.05
  -3   9  -2  308.02   16.04
  -3  10 -10   36.60    4.68
  -3  10  -9   22.78    4.36
  -3  10  -8   15.22    4.27
  -3  10  -7  183.78   13.05
  -3  10  -6  328.98   17.67
  -3  10  -5  727.04   26.02
  -3  10  -4  956.33   29.33
  -3  10  -3  518.44   20.90
  -3  11 -10  104.96    6.77
  -3  11  -9   31.65    4.49
  -3  11  -8  144.09   10.16
  -3  11  -7   73.79    7.70
  -3  11  -6  417.26   18.19
  -3  11  -5  136.68   10.35
  -3  11  -4   13.40    3.54
  -3  12  -9   17.57    2.83
  -3  12  -8   31.69    4.14
  -3  12  -7   53.80    5.49
  -3  12  -6   54.32    5.62
  -2 -12   4    3.28    1.98
  -2 -12   5   50.75    5.91
  -2 -12   6  148.34    9.92
  -2 -12   7  219.00   11.80
  -2 -12   8  109.25    7.79
  -2 -12   9  131.74    7.37
  -2 -11   1  147.71    9.76
  -2 -11   2  156.85   10.93
  -2 -11   2  150.56    8.97
  -2 -11   3  170.81   11.40
  -2 -11   3  178.46   11.55
  -2 -11   4  120.17   10.09
  -2 -11   5   39.22    6.21
  -2 -11   6  127.06   10.73
  -2 -11   7  165.80   11.79
  -2 -11   8  177.39   11.31
  -2 -11   9  179.29   10.17
  -2 -10  -1   52.18    6.31
  -2 -10   0  199.00   13.61
  -2 -10   1   56.92    8.18
  -2 -10   2    6.39    3.52
  -2 -10   2   -1.26    2.03
  -2 -10   3   23.59    5.39
  -2 -10   3   21.44    5.19
  -2 -10   4  106.33   10.65
  -2 -10   5   73.89    9.00
  -2 -10   6   38.52    6.77
  -2 -10   7   12.36    4.12
  -2 -10   8   95.53    9.03
  -2 -10   9  145.99    9.83
  -2 -10  10  191.14    9.93
  -2 -10  11  151.67    8.05
  -2 -10  12  212.45    8.04
  -2  -9  -3   19.05    3.70
  -2  -9  -2    8.17    3.13
  -2  -9  -2   34.17    6.43
  -2  -9  -1   47.19    7.79
  -2  -9  -1   33.00    6.73
  -2  -9   0  163.67   13.99
  -2  -9   0  143.59   13.77
  -2  -9   1  262.87   18.61
  -2  -9   1  275.90   15.52
  -2  -9   2  444.97   23.58
  -2  -9   2  456.31   21.06
  -2  -9   3  351.27   19.81
  -2  -9   3  345.26   19.24
  -2  -9   4 1069.37   33.69
  -2  -9   5  237.82   15.67
  -2  -9   6  285.91   16.93
  -2  -9   7  131.04   11.19
  -2  -9   8   13.41    3.83
  -2  -9   9   38.20    5.25
  -2  -9   9   32.74    5.15
  -2  -9  10  111.89    8.82
  -2  -9  11   93.92    7.41
  -2  -9  12   81.00    5.94
  -2  -8  -4  184.37   10.55
  -2  -8  -4  207.40   10.45
  -2  -8  -3  138.57   11.22
  -2  -8  -3  123.39   10.87
  -2  -8  -2  201.27   15.39
  -2  -8  -2  193.37   14.59
  -2  -8  -1  118.91   13.06
  -2  -8  -1  119.06   12.13
  -2  -8   0   25.90    5.94
  -2  -8   0   23.14    6.72
  -2  -8   0   38.17    6.02
  -2  -8   1  153.12   14.63
  -2  -8   1  173.92   12.75
  -2  -8   1  158.06   13.48
  -2  -8   2  148.20   13.73
  -2  -8   2  157.74   13.55
  -2  -8   2  147.92   12.39
  -2  -8   3  102.45   10.71
  -2  -8   3   97.58    9.99
  -2  -8   4  126.53   11.08
  -2  -8   5    2.68    2.45
  -2  -8   6  184.66   13.10
  -2  -8   7  282.58   15.61
  -2  -8   8  150.56   10.93
  -2  -8   8  155.43   11.00
  -2  -8   9   37.92    5.72
  -2  -8  10   15.56    3.82
  -2  -8  11   32.32    4.89
  -2  -8  12  133.71    8.21
  -2  -8  13   84.55    5.24
  -2  -7  -5   38.80    5.12
  -2  -7  -4    6.89    3.29
  -2  -7  -4   17.37    5.17
  -2  -7  -3   17.99    5.33
  -2  -7  -3   19.88    5.53
  -2  -7  -2  236.29   17.64
  -2  -7  -2  211.26   16.05
  -2  -7  -1  399.27   23.65
  -2  -7  -1  417.94   21.89
  -2  -7   0  181.63   15.54
  -2  -7   0  190.50   14.31
  -2  -7   0  175.12   12.31
  -2  -7   1  133.31   12.92
  -2  -7   1  134.08   11.62
  -2  -7   1  133.99   10.89
  -2  -7   2   13.23    4.36
  -2  -7   2    6.14    3.34
  -2  -7   2   16.16    3.84
  -2  -7   3   87.20    9.43
  -2  -7   3   45.76    6.37
  -2  -7   4  444.68   19.07
  -2  -7   5 1064.34   29.59
  -2  -7   7  393.33   17.44
  -2  -7   7  428.37   17.93
  -2  -7   8  413.13   18.48
  -2  -7   9  247.89   14.50
  -2  -7  10  120.21   10.03
  -2  -7  11  139.27   10.08
  -2  -7  12    2.77    1.90
  -2  -7  13   19.87    2.75
  -2  -6  -6   14.70    3.32
  -2  -6  -5   99.12    9.83
  -2  -6  -5   99.57    9.03
  -2  -6  -4  271.11   17.34
  -2  -6  -4  317.78   19.03
  -2  -6  -3  784.55   31.30
  -2  -6  -3  820.19   30.86
  -2  -6  -2  705.48   29.85
  -2  -6  -2  738.30   28.64
  -2  -6  -2  714.54   28.08
  -2  -6  -1  697.70   29.17
  -2  -6  -1  650.73   25.29
  -2  -6  -1  712.47   26.99
  -2  -6   0   58.79    8.74
  -2  -6   0   61.50    7.75
  -2  -6   0   54.29    6.37
  -2  -6   0   56.33    7.08
  -2  -6   0   58.55   14.93
  -2  -6   7  136.25   10.20
  -2  -6   8   12.01    3.48
  -2  -6   9  133.98   10.73
  -2  -6  10  318.46   16.24
  -2  -6  11  354.01   15.98
  -2  -6  12   72.66    6.38
  -2  -6  13   51.15    4.13
  -2  -5  -7   50.52    5.37
  -2  -5  -6   31.34    5.80
  -2  -5  -5   28.54    6.45
  -2  -5  -5   18.53    4.73
  -2  -5  -4   27.70    6.65
  -2  -5  -4   23.35    6.28
  -2  -5  -4   23.23    5.71
  -2  -5  -3   49.79    8.14
  -2  -5  -3   58.98    8.74
  -2  -5  -3   51.25    7.95
  -2  -5  -2  229.98   16.23
  -2  -5  -2  209.93   14.19
  -2  -5  -2  189.01   28.66
  -2  -5  -2  189.97   13.77
  -2  -5  -1   64.08   15.22
  -2  -5   0   15.16    7.54
  -2  -5   1  773.22   42.22
  -2  -5   8  760.35   24.33
  -2  -5   9 1070.88   29.76
  -2  -5  10  118.34    9.85
  -2  -5  11  254.16   13.45
  -2  -5  12  163.89    9.21
  -2  -4  -8   -0.49    1.32
  -2  -4  -7  199.13   12.79
  -2  -4  -6  373.81   19.50
  -2  -4  -6  377.48   17.65
  -2  -4  -5  253.81   16.42
  -2  -4  -5  263.29   17.52
  -2  -4  -5  270.16   17.64
  -2  -4  -4  244.77   16.40
  -2  -4  -4  238.13   16.36
  -2  -4  -4  233.88   16.33
  -2  -4  -3   58.05    7.85
  -2  -4  -3   70.59    8.37
  -2  -4  -3   59.39   15.72
  -2  -4  -3   69.43    8.61
  -2  -4  -2   47.09   14.64
  -2  -4  -1 1601.70   67.16
  -2  -4   0 3422.98   88.82
  -2  -4   1 2655.59   68.85
  -2  -4   4  143.40   11.48
  -2  -4   5  180.58   16.03
  -2  -4   6  117.75   14.93
  -2  -4   7   41.36    9.91
  -2  -4   8    3.42    2.50
  -2  -4   8    1.11    1.86
  -2  -4   9  -18.78    8.50
  -2  -4   9    4.03    2.53
  -2  -4  10   25.24    4.71
  -2  -4  11    8.19    2.90
  -2  -4  12   17.82    2.87
  -2  -3  -8  437.60   16.95
  -2  -3  -7  506.26   21.85
  -2  -3  -7  534.40   21.32
  -2  -3  -6  386.39   20.73
  -2  -3  -6  394.22   20.62
  -2  -3  -5   41.98    7.51
  -2  -3  -5   45.33    7.25
  -2  -3  -5   40.51    7.08
  -2  -3  -4   92.46    9.44
  -2  -3  -4   84.10   19.90
  -2  -3  -4   93.95    9.73
  -2  -3  -4   86.91    9.71
  -2  -3  -3   45.78   13.12
  -2  -3  -2   79.40   16.32
  -2  -3  -1   37.17    6.61
  -2  -3  -1   31.61    9.19
  -2  -3   0    4.85    3.04
  -2  -3   0    3.06    4.15
  -2  -3   1  307.19   19.75
  -2  -3   2  107.13   11.91
  -2  -3   3   72.53    6.15
  -2  -3   4 1471.16   38.82
  -2  -3   5  513.24   27.73
  -2  -3   6  819.05   40.18
  -2  -3   7  340.04   29.00
  -2  -3   8   84.23    7.98
  -2  -3   8   81.11   15.60
  -2  -3   9   61.50    6.91
  -2  -3   9   62.23   14.50
  -2  -3  10  193.47   11.76
  -2  -3  11  238.28   11.65
  -2  -2  -9    0.19    1.94
  -2  -2  -8   19.23    4.53
  -2  -2  -7    2.24    3.03
  -2  -2  -7    4.03    3.04
  -2  -2  -6   91.96   10.18
  -2  -2  -6   93.89   10.09
  -2  -2  -5   17.25    8.57
  -2  -2  -5   32.46    5.93
  -2  -2  -5   19.91    4.49
  -2  -2  -5   24.59    5.39
  -2  -2  -4 1016.26   59.05
  -2  -2  -3 1521.24   64.31
  -2  -2  -2 1114.82   49.04
  -2  -2  -1   53.43    7.55
  -2  -2  -1   54.22    9.79
  -2  -2   0  284.26   19.58
  -2  -2   0  260.24   15.85
  -2  -2   1  318.82   17.99
  -2  -2   2 1048.53   32.59
  -2  -2   2  761.85   10.51
  -2  -2   3 2429.17   41.27
  -2  -2   3 2768.10   55.55
  -2  -2   4 1136.10   35.84
  -2  -2   5  828.07   35.68
  -2  -2   6  539.04   32.93
  -2  -2   7  158.41   20.02
  -2  -2   8  116.27    9.00
  -2  -2   8  127.24   19.73
  -2  -2   9   72.35    7.22
  -2  -1  -9   43.04    5.64
  -2  -1  -9   46.45    6.09
  -2  -1  -8   47.44    7.04
  -2  -1  -8   46.74    7.66
  -2  -1  -7  181.88   13.86
  -2  -1  -7  177.35   14.96
  -2  -1  -7  193.34   13.56
  -2  -1  -6  685.99   51.79
  -2  -1  -6  728.18   29.52
  -2  -1  -6  770.66   26.75
  -2  -1  -6  795.01   27.71
  -2  -1  -5  944.43   56.08
  -2  -1  -4  559.25   38.94
  -2  -1  -3  542.99   33.95
  -2  -1  -2  186.44   17.56
  -2  -1  -2  198.08   14.48
  -2  -1  -1  740.84   30.91
  -2  -1  -1  680.60   25.41
  -2  -1   0   19.88    4.68
  -2  -1   1   35.43    5.82
  -2  -1   2  166.14   11.70
  -2  -1   3    2.77    2.72
  -2  -1   3    6.13    3.40
  -2  -1   4  127.11   12.48
  -2  -1   5   78.23   11.74
  -2  -1   6   27.26    8.00
  -2  -1   7  378.89   31.94
  -2  -1   8 1094.27   59.24
  -2   0 -10    7.38    2.11
  -2   0 -10    8.60    2.85
  -2   0  -9    3.63    2.38
  -2   0  -9    4.70    3.27
  -2   0  -8   24.03    5.42
  -2   0  -8   21.40    6.03
  -2   0  -7   41.08    7.66
  -2   0  -7   38.77    6.14
  -2   0  -7   40.98    6.51
  -2   0  -6    0.83    2.02
  -2   0  -6    3.95    3.18
  -2   0  -6    2.04    2.76
  -2   0  -5    7.08    5.44
  -2   0  -4   12.45    5.74
  -2   0  -3   23.09    6.64
  -2   0  -3   27.63    6.54
  -2   0  -2  215.92   16.32
  -2   0  -2  220.95   16.34
  -2   0  -1 2403.59   46.95
  -2   0  -1 2131.44   45.39
  -2   0   0 1669.36   37.04
  -2   0   1 9999.00   86.72
  -2   0   2   79.26    7.56
  -2   0   3  381.33   17.00
  -2   0   5  578.62   32.28
  -2   0   6 1817.05   64.62
  -2   0   7 1318.00   61.52
  -2   0   8  251.12   28.97
  -2   1 -10   82.64    6.93
  -2   1 -10   85.88    8.82
  -2   1  -9  296.34   15.63
  -2   1  -9  342.71   20.14
  -2   1  -8  339.56   17.72
  -2   1  -8  330.00   20.91
  -2   1  -7  467.10   20.54
  -2   1  -7  527.68   25.26
  -2   1  -5  268.68   23.50
  -2   1  -4  117.44   13.66
  -2   1  -4  125.49   15.29
  -2   1  -3 1865.87   46.27
  -2   1  -2 2980.05   50.58
  -2   1  -1 3308.73   57.74
  -2   1   0 3357.46   53.16
  -2   1   1   71.11    7.31
  -2   1   2   21.90    3.97
  -2   1   3    5.78    2.04
  -2   1   5   67.56   12.16
  -2   1   6   32.42    9.74
  -2   1   7   93.76   17.32
  -2   2 -11  162.92   10.23
  -2   2 -10  506.85   17.57
  -2   2 -10  553.03   23.53
  -2   2  -9  598.89   22.19
  -2   2  -9  575.78   26.84
  -2   2  -8  234.74   17.25
  -2   2  -8  209.62   13.59
  -2   2  -7   26.70    5.06
  -2   2  -7   31.00    6.44
  -2   2  -4    3.77    2.47
  -2   2  -4   11.58    5.85
  -2   2  -3   12.89    5.68
  -2   2  -2   35.74    7.13
  -2   2  -1  595.87   25.06
  -2   2   0   57.12    7.10
  -2   2   0   54.22    7.45
  -2   2   1  973.03   27.06
  -2   2   2 1427.81   27.85
  -2   2   5  549.86   36.59
  -2   2   6   73.81   14.77
  -2   2   7   25.85   10.53
  -2   3 -11    2.81    2.64
  -2   3 -10    7.53    4.03
  -2   3  -9   65.77    9.54
  -2   3  -8  230.00   16.59
  -2   3  -7  454.52   21.92
  -2   3  -5 1575.46   60.07
  -2   3  -4 1547.93   55.05
  -2   3  -3  366.57   24.96
  -2   3  -2  367.68   22.85
  -2   3  -1  219.14   16.06
  -2   3   0  443.58   20.41
  -2   3   1 1437.43   30.73
  -2   3   1 1512.51   34.57
  -2   3   5   54.21   12.86
  -2   3   6   26.61   10.14
  -2   4 -12  316.19   11.94
  -2   4 -11  235.64   14.10
  -2   4 -10   25.71    5.95
  -2   4  -9   44.44    7.73
  -2   4  -8  193.36   14.95
  -2   4  -7  670.13   45.64
  -2   4  -7  668.45   25.83
  -2   4  -6 1244.69   59.69
  -2   4  -5  450.40   33.50
  -2   4  -4    7.93    5.23
  -2   4  -3   59.02   11.86
  -2   4  -2  674.42   34.15
  -2   4  -1    8.36    4.03
  -2   4   0  121.51   11.72
  -2   4   1   53.65    6.83
  -2   4   1    1.06    1.76
  -2   4   5  358.88   34.99
  -2   5 -12    6.27    2.37
  -2   5 -11   60.06    7.33
  -2   5 -10   79.93    9.34
  -2   5  -9   37.45    5.47
  -2   5  -9   33.89    6.55
  -2   5  -8   15.01    4.16
  -2   5  -8   24.86    5.49
  -2   5  -7    7.60    2.99
  -2   5  -7   11.52    7.46
  -2   5  -7   10.65    3.31
  -2   5  -6   25.13    9.40
  -2   5  -5  350.03   31.24
  -2   5  -4 1598.59   63.35
  -2   5  -3 1234.87   52.63
  -2   5  -2 1093.15   45.81
  -2   5  -1 1018.86   41.31
  -2   5   0 1061.19   37.60
  -2   6 -12   58.19    5.32
  -2   6 -11  346.24   16.14
  -2   6 -10  419.65   20.01
  -2   6 -10  380.39   17.04
  -2   6  -9  285.20   17.01
  -2   6  -9  266.61   15.64
  -2   6  -8  380.05   18.88
  -2   6  -8  342.00   36.52
  -2   6  -8  399.64   20.01
  -2   6  -7   34.97   11.56
  -2   6  -7   33.27    5.60
  -2   6  -7   32.79    5.54
  -2   6  -6  134.02   10.44
  -2   6  -6  162.09   23.00
  -2   6  -5  498.08   39.46
  -2   6  -4 1134.91   56.91
  -2   6  -3 1163.80   54.92
  -2   6  -2  724.46   41.20
  -2   6  -1   62.74   11.82
  -2   7 -11  196.70   11.43
  -2   7 -11  193.64   10.29
  -2   7 -10  167.96   11.94
  -2   7 -10  154.01   11.18
  -2   7  -9   59.40    7.76
  -2   7  -9   54.88    7.27
  -2   7  -8   16.99    4.48
  -2   7  -7  347.17   17.93
  -2   7  -7  399.92   39.71
  -2   7  -6   53.98   14.50
  -2   7  -6   40.02    6.18
  -2   7  -5    6.20    2.77
  -2   7  -5    9.81    6.65
  -2   7  -4   94.80   17.70
  -2   7  -3  423.01   35.47
  -2   7  -2  652.74   41.96
  -2   8 -11  187.95   10.31
  -2   8 -10  459.81   19.11
  -2   8  -9  294.74   16.73
  -2   8  -8  297.93   17.05
  -2   8  -7  379.46   19.08
  -2   8  -6 1033.56   30.73
  -2   8  -6 1191.69   69.72
  -2   8  -5  454.36   19.77
  -2   8  -5  505.89   44.60
  -2   8  -4  121.60   10.01
  -2   8  -4  129.53   21.75
  -2   8  -3   11.50    3.61
  -2   8  -3   -3.09    5.16
  -2   9 -11   53.48    5.50
  -2   9 -10    6.11    2.32
  -2   9  -9   83.92    8.90
  -2   9  -8  247.27   15.35
  -2   9  -7  229.90   15.07
  -2   9  -6   76.61    8.65
  -2   9  -5  144.52   11.60
  -2   9  -4  323.09   16.77
  -2   9  -4  398.66   39.29
  -2   9  -3   50.03    6.64
  -2  10 -11    7.01    1.96
  -2  10 -10   12.20    3.29
  -2  10  -9   25.05    4.86
  -2  10  -8  328.19   17.18
  -2  10  -7  181.14   12.96
  -2  10  -6  255.67   15.37
  -2  10  -5  548.36   22.09
  -2  10  -4  318.75   16.26
  -2  11 -11  180.38    7.92
  -2  11 -10  122.52    8.09
  -2  11  -9   71.45    6.95
  -2  11  -8    1.84    1.89
  -2  11  -7   92.93    8.59
  -2  11  -6  138.74   10.45
  -2  11  -5   94.32    8.35
  -2  12 -10  121.32    6.45
  -2  12  -9  138.79    7.95
  -2  12  -8   65.08    5.98
  -2  12  -7  126.15    8.37
  -1 -13   6   47.71    4.57
  -1 -13   7   24.28    3.45
  -1 -13   8    2.30    1.34
  -1 -12   3   93.69    6.67
  -1 -12   4   43.70    5.56
  -1 -12   5   14.00    3.64
  -1 -12   6   54.00    6.47
  -1 -12   7  315.30   14.69
  -1 -12   8  402.34   15.41
  -1 -12   9  351.09   12.75
  -1 -11   0  612.10   20.31
  -1 -11   1  401.52   18.40
  -1 -11   2  123.80   10.89
  -1 -11   2  106.76    8.30
  -1 -11   3   53.10    7.14
  -1 -11   3   59.67    7.16
  -1 -11   4   10.29    3.89
  -1 -11   5   70.32    8.50
  -1 -11   6  123.80   11.14
  -1 -11   7   46.11    6.72
  -1 -11   8   13.99    3.64
  -1 -11   9   20.31    3.87
  -1 -11  10    0.12    1.38
  -1 -10  -2   54.58    5.88
  -1 -10  -1  122.06   10.62
  -1 -10   0   72.23    9.28
  -1 -10   1   -0.99    3.62
  -1 -10   2   49.78    8.06
  -1 -10   2   42.46    6.35
  -1 -10   3   79.95    9.71
  -1 -10   3   96.14   10.03
  -1 -10   4  252.25   16.25
  -1 -10   5  106.44   10.72
  -1 -10   6  192.31   14.23
  -1 -10   7   68.75    8.57
  -1 -10   8   51.35    6.77
  -1 -10   9  104.92    8.05
  -1 -10   9  111.68    8.83
  -1 -10  10  126.49    8.51
  -1 -10  11  401.32   13.71
  -1 -10  12  288.82    9.75
  -1  -9  -3  188.14   11.46
  -1  -9  -3  175.34   11.00
  -1  -9  -2  109.04   10.70
  -1  -9  -2   84.53    9.02
  -1  -9  -1   12.87    4.46
  -1  -9  -1   27.93    6.85
  -1  -9   0   10.10    4.70
  -1  -9   0   13.28    5.64
  -1  -9   1  262.33   19.04
  -1  -9   1  272.20   15.54
  -1  -9   1  267.45   17.07
  -1  -9   2  757.82   30.59
  -1  -9   2  727.72   26.20
  -1  -9   2  789.97   28.53
  -1  -9   3  645.00   26.84
  -1  -9   3  702.12   26.36
  -1  -9   4  891.46   29.81
  -1  -9   5   69.18    8.72
  -1  -9   8   58.91    6.78
  -1  -9   9  102.87    8.55
  -1  -9   9   99.44    8.80
  -1  -9  10   17.24    3.83
  -1  -9  11   -0.62    1.63
  -1  -9  12   -0.54    1.41
  -1  -8  -4  458.60   18.18
  -1  -8  -4  452.45   18.85
  -1  -8  -3   91.54   10.22
  -1  -8  -3  110.82   10.75
  -1  -8  -2    7.39    4.13
  -1  -8  -2   11.01    4.91
  -1  -8  -1   27.48    6.43
  -1  -8  -1   23.29    6.30
  -1  -8   0  130.06   13.96
  -1  -8   0  145.95   12.69
  -1  -8   1  166.45   14.86
  -1  -8   1  141.04   12.60
  -1  -8   1  172.83   12.35
  -1  -8   2  102.40    9.97
  -1  -8   2  106.55   11.44
  -1  -8   2   96.57    9.48
  -1  -8   3   74.69    9.00
  -1  -8   3   78.05    8.51
  -1  -8   7  235.63   13.65
  -1  -8   8  406.74   18.55
  -1  -8   9  514.95   20.71
  -1  -8  10  186.36   12.26
  -1  -8  11   35.31    5.10
  -1  -8  12   35.26    4.31
  -1  -8  13  111.19    5.81
  -1  -7  -5    1.10    3.11
  -1  -7  -5    8.90    3.52
  -1  -7  -4    9.29    4.31
  -1  -7  -4   10.00    3.75
  -1  -7  -3   85.05   10.72
  -1  -7  -3   87.08   10.54
  -1  -7  -2  159.67   14.82
  -1  -7  -2  177.97   14.47
  -1  -7  -1  336.14   38.59
  -1  -7  -1  368.92   22.22
  -1  -7  -1  388.93   20.44
  -1  -7   0  736.02   29.89
  -1  -7   0  748.48   26.70
  -1  -7   0  681.56   50.23
  -1  -7   0  718.62   23.14
  -1  -7   1  285.44   17.68
  -1  -7   1  274.68   29.03
  -1  -7   1  265.47   15.34
  -1  -7   1  262.73   14.30
  -1  -7   7  962.44   27.53
  -1  -7   8  411.09   18.56
  -1  -7   9    6.44    3.32
  -1  -7  10   14.57    3.77
  -1  -7  11    2.68    2.11
  -1  -7  12    4.44    2.06
  -1  -7  13    2.63    1.14
  -1  -6  -6  138.60   10.93
  -1  -6  -5  101.91   10.03
  -1  -6  -5   93.92   10.33
  -1  -6  -4  162.51   14.08
  -1  -6  -4  159.40   13.71
  -1  -6  -3  436.56   23.01
  -1  -6  -3  458.74   22.94
  -1  -6  -2 1390.13   40.26
  -1  -6  -2 1422.48   37.99
  -1  -6  -1 1095.72   34.40
  -1  -6  -1 1089.22   30.97
  -1  -6  -1 1046.06   30.10
  -1  -6   0  244.55   27.44
  -1  -6   1  149.40   19.06
  -1  -6   5  206.44   19.20
  -1  -6   6    5.52    3.85
  -1  -6   7   12.43    3.45
  -1  -6   7   10.07    5.87
  -1  -6   8   39.38    5.89
  -1  -6   8   48.59   12.44
  -1  -6   9  326.27   16.55
  -1  -6  10   96.47    8.96
  -1  -6  11  316.10   14.95
  -1  -6  12  205.01   10.35
  -1  -6  13   62.63    4.19
  -1  -5  -7    1.03    2.42
  -1  -5  -6   11.64    4.43
  -1  -5  -5   15.37    5.22
  -1  -5  -5   15.43    4.88
  -1  -5  -4    3.53    3.61
  -1  -5  -4    0.36    2.72
  -1  -5  -4    1.30    2.97
  -1  -5  -3  123.41   11.92
  -1  -5  -3  155.63   12.75
  -1  -5  -3  105.79   22.49
  -1  -5  -3  140.40   12.11
  -1  -5  -2    6.30    3.69
  -1  -5  -2   -0.64    2.67
  -1  -5  -2    4.16    2.49
  -1  -5  -1   80.11   15.79
  -1  -5   0  155.13   18.92
  -1  -5   1 1753.47   55.68
  -1  -5   4  365.80   22.12
  -1  -5   5  579.48   31.50
  -1  -5   6   64.28   12.38
  -1  -5   7   94.81   16.43
  -1  -5   8  327.08   16.02
  -1  -5   8  332.91   31.92
  -1  -5   9  864.68   26.63
  -1  -5   9  806.61   52.56
  -1  -5  10  592.52   21.68
  -1  -5  11  370.31   15.84
  -1  -5  12   45.62    4.84
  -1  -4  -8  167.83   10.54
  -1  -4  -7  255.42   16.04
  -1  -4  -6  253.39   17.16
  -1  -4  -5  295.71   17.35
  -1  -4  -5  298.33   19.21
  -1  -4  -5  299.05   18.09
  -1  -4  -4  363.12   19.15
  -1  -4  -4  383.39   41.60
  -1  -4  -4  407.81   20.56
  -1  -4  -4  374.68   19.49
  -1  -4  -3  433.95   40.76
  -1  -4  -2  114.45   18.94
  -1  -4  -1  871.13   45.02
  -1  -4   0   39.81    8.86
  -1  -4   1 1007.07   37.27
  -1  -4   3 2061.05   43.31
  -1  -4   4   17.75    5.24
  -1  -4   5   81.37   12.02
  -1  -4   6   51.41   10.89
  -1  -4   7    5.72    4.57
  -1  -4   8  264.46   14.11
  -1  -4   8  256.74   28.18
  -1  -4   9   40.38   11.83
  -1  -4   9   10.22    3.68
  -1  -4  10   23.47    4.36
  -1  -4  11  184.50   10.74
  -1  -3  -9   15.54    3.04
  -1  -3  -8  185.06   12.74
  -1  -3  -7  559.26   24.64
  -1  -3  -6  212.36   16.19
  -1  -3  -6  212.04   14.76
  -1  -3  -5  393.08   41.83
  -1  -3  -5  418.06   19.58
  -1  -3  -5  471.54   21.44
  -1  -3  -4   20.49    9.10
  -1  -3  -3  155.33   21.94
  -1  -3  -2    7.11    5.88
  -1  -3  -1  146.71   16.24
  -1  -3   0 1364.78   41.57
  -1  -3   1  189.76   13.88
  -1  -3   2  227.71   11.04
  -1  -3   3  770.22   25.67
  -1  -3   4 1294.52   40.15
  -1  -3   5 1587.96   51.28
  -1  -3   6 1543.01   56.62
  -1  -3   7  601.26   39.43
  -1  -3   8  351.22   15.76
  -1  -3   8  361.66   33.56
  -1  -3   9  161.62   11.06
  -1  -3   9  195.25   25.63
  -1  -3  10  104.94    8.52
  -1  -2  -9    3.87    2.93
  -1  -2  -8   33.00    6.40
  -1  -2  -8   34.35    6.15
  -1  -2  -7   29.87    6.48
  -1  -2  -7   26.32    5.99
  -1  -2  -7   28.33    5.64
  -1  -2  -6   93.17   19.89
  -1  -2  -6   80.43    9.68
  -1  -2  -6   98.57    9.69
  -1  -2  -6   91.81   10.06
  -1  -2  -5  538.17   44.29
  -1  -2  -5  607.29   23.49
  -1  -2  -4 1270.43   61.72
  -1  -2  -3 1071.65   50.50
  -1  -2  -2  793.31   37.24
  -1  -2  -1  970.80   34.76
  -1  -2  -1  874.63   21.30
  -1  -2   0 4196.72   63.39
  -1  -2   0 3914.46   48.51
  -1  -2   1  111.37    8.96
  -1  -2   1  102.08    8.62
  -1  -2   2  755.05   19.09
  -1  -2   3  882.64   27.98
  -1  -2   4 2061.64   50.40
  -1  -2   5 1441.84   48.24
  -1  -2   6  470.61   31.31
  -1  -2   7   -6.88    5.03
  -1  -2   8  168.91   10.66
  -1  -2   8  169.20   23.79
  -1  -1 -10  288.92   12.66
  -1  -1 -10  272.42   12.35
  -1  -1  -9  221.77   14.04
  -1  -1  -9  228.21   15.23
  -1  -1  -8   71.83    9.95
  -1  -1  -8   57.42    8.26
  -1  -1  -7   76.86   10.14
  -1  -1  -7   75.96    9.48
  -1  -1  -6  307.71   33.08
  -1  -1  -6  362.15   18.70
  -1  -1  -6  305.08   18.55
  -1  -1  -6  321.24   16.24
  -1  -1  -5  623.27   42.68
  -1  -1  -4 2589.72   76.72
  -1  -1  -3 1835.20   56.07
  -1  -1  -2   47.32    5.18
  -1  -1  -2   48.25    8.21
  -1  -1  -1 1098.59   30.60
  -1  -1  -1  992.97   21.45
  -1  -1   0 1474.00   29.32
  -1  -1   0 1409.86   24.17
  -1  -1   1   76.81    3.35
  -1  -1   1  104.01    7.11
  -1  -1   2  343.81   13.51
  -1  -1   2  385.55   15.31
  -1  -1   3    2.15    3.15
  -1  -1   4  499.50   25.10
  -1  -1   5   16.64    6.84
  -1  -1   6  891.85   43.84
  -1  -1   7  230.53   25.43
  -1  -1   8  370.59   34.77
  -1   0 -10   83.20    7.79
  -1   0 -10   90.09    8.91
  -1   0  -9  111.95   11.88
  -1   0  -9  122.99   11.16
  -1   0  -8  277.81   19.05
  -1   0  -8  267.81   16.94
  -1   0  -7  268.23   16.50
  -1   0  -7  249.09   17.74
  -1   0  -6    2.16    3.65
  -1   0  -5  423.62   31.18
  -1   0  -4   15.83    4.80
  -1   0  -4   15.60    6.41
  -1   0  -3 2246.23   53.40
  -1   0  -3 2283.65   46.16
  -1   0  -2 5334.52   66.67
  -1   0  -1 1087.09   24.44
  -1   0  -1 1022.39   23.73
  -1   0   0 1267.76   22.34
  -1   0   1  719.23   15.29
  -1   0   2 1381.60   24.01
  -1   0   4  595.63   28.91
  -1   0   5  106.67   13.95
  -1   0   6   75.21   13.10
  -1   0   7  454.70   36.41
  -1   0   8  744.10   50.73
  -1   1 -11  149.01   10.10
  -1   1 -11  135.66    7.93
  -1   1 -10  305.90   15.44
  -1   1 -10  336.57   18.95
  -1   1  -9  775.32   31.32
  -1   1  -9  739.45   26.63
  -1   1  -8  743.18   30.77
  -1   1  -8  721.12   26.82
  -1   1  -7  289.38   16.26
  -1   1  -7  282.79   18.20
  -1   1  -6  159.63   18.86
  -1   1  -5  455.14   28.23
  -1   1  -4   28.79    6.51
  -1   1  -4   22.41    5.79
  -1   1  -3 1309.68   33.33
  -1   1  -3 1432.82   38.07
  -1   1  -2 1582.42   27.61
  -1   1  -2 1670.76   36.50
  -1   1  -1  959.71   24.11
  -1   1   0 3440.70   36.67
  -1   1   1   71.99    4.67
  -1   1   2   92.89    4.79
  -1   1   4  515.99   28.55
  -1   1   5  171.59   19.01
  -1   1   6   10.93    6.23
  -1   1   7   14.63    8.39
  -1   2 -11   26.34    4.01
  -1   2 -11   32.10    5.38
  -1   2 -10  226.50   13.59
  -1   2 -10  245.16   16.81
  -1   2  -9  161.59   12.50
  -1   2  -9  143.64   13.74
  -1   2  -8  289.93   16.62
  -1   2  -8  294.43   18.95
  -1   2  -7  123.36   11.46
  -1   2  -5  747.36   35.31
  -1   2  -5  733.36   29.68
  -1   2  -4   87.63    8.36
  -1   2  -4   86.07   11.27
  -1   2  -3   25.18    3.36
  -1   2  -3   30.44    6.98
  -1   2  -2   99.76   10.21
  -1   2  -1  103.55    9.23
  -1   2   0  210.29   10.94
  -1   2   1 3399.61   34.23
  -1   2   1 3285.61   33.25
  -1   2   5  851.38   45.60
  -1   2   6  352.99   32.35
  -1   3 -12   72.59    6.41
  -1   3 -11   33.77    4.65
  -1   3 -11   34.34    6.15
  -1   3 -10    2.36    2.76
  -1   3 -10   -0.76    3.51
  -1   3  -9    5.33    2.83
  -1   3  -9    1.75    3.49
  -1   3  -8  171.56   12.48
  -1   3  -8  171.39   14.05
  -1   3  -6 1116.47   49.45
  -1   3  -5 2098.88   63.15
  -1   3  -4 1478.39   49.02
  -1   3  -3  767.28   32.47
  -1   3  -2  529.99   24.76
  -1   3  -1  604.94   24.04
  -1   3   0  562.43   21.04
  -1   3   1  521.16   14.86
  -1   3   1  516.46   16.52
  -1   3   5   16.34    7.49
  -1   3   6  400.30   36.60
  -1   4 -12   95.59    7.75
  -1   4 -11   57.91    7.71
  -1   4 -11   51.30    5.62
  -1   4 -10  115.86   11.66
  -1   4 -10  114.75    9.76
  -1   4  -9  241.11   14.78
  -1   4  -9  249.48   16.95
  -1   4  -8  268.11   16.84
  -1   4  -8  242.02   14.68
  -1   4  -7  171.65   22.36
  -1   4  -6  598.26   38.36
  -1   4  -5  265.17   24.11
  -1   4  -4    6.59    4.83
  -1   4  -3    4.88    4.44
  -1   4  -2 1662.00   49.17
  -1   4  -1 1274.37   39.45
  -1   4   0  607.29   25.13
  -1   4   1   14.26    3.48
  -1   4   5  965.61   56.30
  -1   5 -12    5.75    2.49
  -1   5 -11   23.03    5.10
  -1   5 -10  199.52   14.72
  -1   5 -10  213.84   13.44
  -1   5  -9  207.89   14.94
  -1   5  -9  200.11   13.75
  -1   5  -8  376.53   18.71
  -1   5  -8  400.28   19.82
  -1   5  -7   20.32    8.84
  -1   5  -6  152.43   20.82
  -1   5  -5  307.34   27.17
  -1   5  -4 1036.27   48.31
  -1   5  -3 1865.07   61.68
  -1   5  -2 1877.06   57.41
  -1   5  -1 1022.94   39.95
  -1   5   0  558.52   26.94
  -1   5   4   73.87   15.71
  -1   6 -12  329.39   13.73
  -1   6 -11  643.52   23.17
  -1   6 -11  667.66   21.21
  -1   6 -10  560.78   23.27
  -1   6 -10  531.38   21.75
  -1   6  -9   75.71    8.74
  -1   6  -9   68.49    8.41
  -1   6  -8  206.27   14.05
  -1   6  -8  221.53   14.20
  -1   6  -8  230.65   29.14
  -1   6  -7   45.55    6.50
  -1   6  -7   57.33   13.98
  -1   6  -6   33.01   10.45
  -1   6  -5  247.47   26.36
  -1   6  -4   40.58   10.56
  -1   6  -3  441.28   32.06
  -1   6  -2  293.35   25.41
  -1   6  -1   82.54   12.90
  -1   7 -12   30.01    3.61
  -1   7 -11   42.72    5.75
  -1   7 -11   44.46    5.84
  -1   7 -10    9.34    3.70
  -1   7  -9    1.23    2.61
  -1   7  -8   98.15   10.03
  -1   7  -8   77.33   18.20
  -1   7  -7  539.10   21.83
  -1   7  -7  617.13   47.78
  -1   7  -6  335.91   16.47
  -1   7  -6  367.51   35.37
  -1   7  -5  216.67   26.60
  -1   7  -4   54.90   13.10
  -1   7  -3   51.25   11.75
  -1   7  -2  132.01   18.83
  -1   8 -12   17.02    2.92
  -1   8 -11   12.67    3.57
  -1   8 -10  154.90   11.79
  -1   8  -9  758.41   27.10
  -1   8  -8 1195.79   33.85
  -1   8  -7  746.46   26.57
  -1   8  -7  785.73   56.43
  -1   8  -6  200.41   13.37
  -1   8  -6  233.74   30.03
  -1   8  -5    9.72    6.77
  -1   8  -5   19.59    3.99
  -1   8  -4  107.02    9.16
  -1   8  -4  109.38   19.58
  -1   8  -3  267.04   29.16
  -1   9 -12    7.17    2.11
  -1   9 -11   39.00    5.19
  -1   9 -10  221.27   13.49
  -1   9  -9  125.12   11.02
  -1   9  -8   32.37    5.91
  -1   9  -7   28.34    5.37
  -1   9  -6  144.56   11.47
  -1   9  -5   65.10    7.71
  -1   9  -5   69.77   17.54
  -1   9  -4  115.09    9.65
  -1   9  -4  123.26   21.65
  -1  10 -12  155.02    7.25
  -1  10 -11  271.77   12.29
  -1  10 -10  169.16   11.10
  -1  10  -9   40.65    6.02
  -1  10  -8  102.19    9.62
  -1  10  -7  119.28   10.43
  -1  10  -6  677.82   24.14
  -1  10  -5  872.33   26.44
  -1  11 -11   58.54    5.15
  -1  11 -10   13.26    3.25
  -1  11  -9    2.44    2.11
  -1  11  -8    2.76    1.85
  -1  11  -7  141.99   10.32
  -1  11  -6   -0.40    2.19
  -1  12 -10   61.34    4.81
  -1  12  -9  191.21    9.36
  -1  12  -8  372.53   13.50
   0 -13   5   54.10    4.83
   0 -13   6   52.06    5.05
   0 -13   7  107.09    7.10
   0 -13   8   35.91    3.97
   0 -12   1  129.52    8.31
   0 -12   2   91.79    7.79
   0 -12   3   61.36    6.71
   0 -12   3   53.51    5.41
   0 -12   4   71.68    7.10
   0 -12   5  179.53   11.76
   0 -12   6  190.75   12.19
   0 -12   7   57.74    6.61
   0 -12   8  242.01   12.28
   0 -12   9  253.16   11.11
   0 -11  -1   96.90    7.84
   0 -11   0  173.34   12.12
   0 -11   1  277.58   16.43
   0 -11   2  536.43   23.39
   0 -11   2  461.90   17.80
   0 -11   3  210.99   14.69
   0 -11   3  194.00   12.71
   0 -11   4    5.66    2.53
   0 -11   5   28.86    5.67
   0 -11   6   -7.26    3.49
   0 -11   7   47.84    6.81
   0 -11   8   78.76    7.98
   0 -11   9    3.74    2.18
   0 -11  10   39.83    4.22
   0 -11  11  137.25    6.45
   0 -10  -2    1.86    2.27
   0 -10  -1    2.66    3.09
   0 -10   0   45.11    7.60
   0 -10   1   10.02    4.84
   0 -10   2   36.74    7.89
   0 -10   2   52.13    7.19
   0 -10   3  229.70   16.32
   0 -10   3  223.75   15.06
   0 -10   4  804.91   28.48
   0 -10   4  800.18   28.33
   0 -10   9  178.62   10.98
   0 -10  10  163.53    9.90
   0 -10  11  199.98    9.84
   0 -10  12  108.98    5.96
   0  -9  -3  251.24   14.60
   0  -9  -3  197.66   12.27
   0  -9  -2  319.13   19.19
   0  -9  -2  280.36   16.33
   0  -9  -1  226.91   17.84
   0  -9  -1  211.20   14.98
   0  -9   0  263.92   19.50
   0  -9   0  259.36   16.53
   0  -9   1   88.02    9.61
   0  -9   1   87.06   11.01
   0  -9   1   99.82    9.43
   0  -9   2   92.52   11.11
   0  -9   2   79.65    8.79
   0  -9   3  813.66   30.05
   0  -9   3  835.52   28.32
   0  -9   8  103.12    9.29
   0  -9   9    1.19    2.06
   0  -9  10   35.71    5.40
   0  -9  11  106.37    8.02
   0  -9  12    6.42    1.98
   0  -8  -5  129.14    8.54
   0  -8  -4  195.18   12.93
   0  -8  -4  207.31   13.31
   0  -8  -3  201.10   15.15
   0  -8  -3  179.53   13.94
   0  -8  -2  209.77   16.55
   0  -8  -2  187.42   14.40
   0  -8  -1   32.72    6.51
   0  -8  -1   21.69    6.87
   0  -8   0  184.84   13.71
   0  -8   0  184.09   15.58
   0  -8   1   47.17    7.93
   0  -8   1   37.87    6.23
   0  -8   1   50.08    6.53
   0  -8   2    9.57    3.62
   0  -8   2    8.93    3.96
   0  -8   3  325.94   17.86
   0  -8   7  801.66   25.82
   0  -8   8  304.78   16.43
   0  -8   9   48.10    6.67
   0  -8  10   81.48    8.31
   0  -8  11  336.55   14.79
   0  -8  12  210.29    9.93
   0  -7  -6    8.25    2.86
   0  -7  -5    2.69    2.77
   0  -7  -5   -3.56    2.31
   0  -7  -4    5.76    3.68
   0  -7  -4    1.08    3.81
   0  -7  -3  130.06   12.86
   0  -7  -3  119.68   12.02
   0  -7  -2  805.48   31.87
   0  -7  -2  819.50   29.38
   0  -7  -1  696.58   52.86
   0  -7  -1  739.68   26.41
   0  -7  -1  710.51   29.35
   0  -7   0  584.36   25.38
   0  -7   0  586.08   43.88
   0  -7   0  590.86   22.15
   0  -7   1  335.78   29.24
   0  -7   5  392.61   30.45
   0  -7   6  528.92   38.56
   0  -7   7  642.53   23.09
   0  -7   7  651.92   45.22
   0  -7   8  413.63   18.88
   0  -7   8  405.33   37.92
   0  -7   9   65.95    7.84
   0  -7  10   44.11    6.19
   0  -7  11  110.46    8.78
   0  -7  12   25.74    3.78
   0  -6  -7   15.23    3.42
   0  -6  -6   37.18    6.37
   0  -6  -5   76.02    8.78
   0  -6  -5   96.91   10.70
   0  -6  -4  385.40   21.05
   0  -6  -4  412.21   21.79
   0  -6  -3  415.91   22.19
   0  -6  -3  455.35   22.16
   0  -6  -2  464.53   43.99
   0  -6  -2  499.83   23.43
   0  -6  -2  495.40   21.47
   0  -6  -1  300.40   31.79
   0  -6   0  522.95   36.56
   0  -6   1  140.49   16.46
   0  -6   2    6.06    3.61
   0  -6   4  111.86   14.73
   0  -6   5    8.43    5.27
   0  -6   6    3.62    5.21
   0  -6   7    3.80    2.29
   0  -6   7   23.71    9.10
   0  -6   8  102.54   19.50
   0  -6   8  110.96    9.71
   0  -6   9  792.71   26.08
   0  -6  10  521.55   20.45
   0  -6  11  333.27   15.00
   0  -6  12  230.09   10.34
   0  -5  -8   15.06    3.27
   0  -5  -7   11.86    4.12
   0  -5  -6    1.07    3.06
   0  -5  -5   27.90    5.69
   0  -5  -5   20.14    5.93
   0  -5  -4  124.43   11.55
   0  -5  -4  119.65   11.89
   0  -5  -4  108.01   25.23
   0  -5  -3    2.80    2.43
   0  -5  -3    7.50    6.74
   0  -5  -3    4.40    2.56
   0  -5  -3    1.61    2.04
   0  -5  -2    8.74    6.35
   0  -5  -1   34.06    9.59
   0  -5   0  370.29   27.52
   0  -5   1 1548.53   46.51
   0  -5   2 2684.63   53.33
   0  -5   3 1994.30   52.78
   0  -5   4  645.08   32.90
   0  -5   5  688.31   38.76
   0  -5   6   50.42   11.71
   0  -5   7  126.84   19.91
   0  -5   8  525.21   20.50
   0  -5   8  521.70   41.24
   0  -5   9   50.29    6.65
   0  -5  10  379.04   17.27
   0  -5  11  179.93   10.70
   0  -5  12   17.64    2.80
   0  -4  -9    6.53    2.02
   0  -4  -8  142.89   11.04
   0  -4  -7  737.89   28.25
   0  -4  -6  671.82   27.94
   0  -4  -5 1029.04   31.31
   0  -4  -5  977.63   68.27
   0  -4  -5 1035.88   32.61
   0  -4  -4   99.45    9.52
   0  -4  -4  118.27   21.83
   0  -4  -4  118.44   10.79
   0  -4  -4  102.33    9.76
   0  -4  -3  158.50   22.78
   0  -4  -2  404.82   32.13
   0  -4  -1  526.09   31.88
   0  -4   0  917.54   36.25
   0  -4   1 1689.83   41.00
   0  -4   2  390.52   19.70
   0  -4   2  371.41   16.37
   0  -4   3  387.45   21.59
   0  -4   4   30.63    7.23
   0  -4   5   25.23    7.69
   0  -4   6   90.82   14.93
   0  -4   7  498.87   37.04
   0  -4   8   32.87    5.19
   0  -4   8   27.41    9.63
   0  -4   9    5.39    2.89
   0  -4  10    3.85    2.24
   0  -4  11    9.18    2.85
   0  -3  -9  235.84   12.85
   0  -3  -8  210.48   14.74
   0  -3  -7  337.37   19.99
   0  -3  -6   39.62    7.38
   0  -3  -6   38.36    6.26
   0  -3  -5  150.40   12.51
   0  -3  -5  121.60   23.28
   0  -3  -5  141.99   11.20
   0  -3  -4   11.86    7.59
   0  -3  -3  235.44   25.52
   0  -3  -2  430.44   29.40
   0  -3  -1  536.67   27.70
   0  -3   0   49.83    7.24
   0  -3   1  361.09   15.27
   0  -3   2   29.64    5.34
   0  -3   3  884.02   30.80
   0  -3   4  509.18   27.56
   0  -3   5 2615.49   68.87
   0  -3   6 1475.30   57.55
   0  -3   7  361.59   31.44
   0  -3   8  206.34   12.23
   0  -3   8  225.13   26.63
   0  -3   9  140.30   10.15
   0  -2 -10   64.95    6.12
   0  -2  -9  117.74   10.47
   0  -2  -9   98.72    9.36
   0  -2  -8   55.07    8.62
   0  -2  -8   48.38    7.75
   0  -2  -7  122.27   12.02
   0  -2  -7  117.85   12.25
   0  -2  -6    4.70    6.11
   0  -2  -6   21.74    5.22
   0  -2  -6   13.39    4.18
   0  -2  -5  319.63   32.78
   0  -2  -4 1276.32   57.34
   0  -2  -3 2810.12   73.91
   0  -2  -2 1754.50   50.43
   0  -2  -1 2418.64   48.64
   0  -2   0   32.45    5.18
   0  -2   1  342.07   10.73
   0  -2   1  353.67   12.92
   0  -2   2 1997.40   37.48
   0  -2   3 1497.19   40.05
   0  -2   4 1511.39   46.32
   0  -2   5  483.92   29.56
   0  -2   6  134.75   17.87
   0  -2   7   95.54   16.15
   0  -2   8   35.20   10.88
   0  -1 -10  174.10   11.32
   0  -1 -10  175.27   11.91
   0  -1  -9   53.15    8.38
   0  -1  -9   60.03    8.42
   0  -1  -8   92.42   10.60
   0  -1  -8   81.98   10.62
   0  -1  -7  128.79   12.04
   0  -1  -7  129.76   23.40
   0  -1  -7  117.53   12.34
   0  -1  -6  139.38   11.45
   0  -1  -6  110.41   19.13
   0  -1  -5  126.42   18.32
   0  -1  -4  637.48   35.56
   0  -1  -3  671.26   32.08
   0  -1  -2 1248.33   35.87
   0  -1  -1   54.98    6.52
   0  -1   0  100.30    5.51
   0  -1   1 1933.51   25.68
   0  -1   2 2391.55   40.08
   0  -1   3   86.17    9.72
   0  -1   4   14.81    5.57
   0  -1   5   13.10    6.40
   0  -1   6  953.11   46.61
   0  -1   7 1352.87   62.16
   0  -1   8 1340.62   67.34
   0   0 -11    8.01    2.52
   0   0 -11    8.92    2.82
   0   0 -10    0.49    2.49
   0   0 -10   -3.42    3.16
   0   0  -9    4.15    3.40
   0   0  -9   12.61    5.39
   0   0  -8    3.20    3.75
   0   0  -8   -2.42    4.28
   0   0  -7  211.13   26.34
   0   0  -7  228.34   15.11
   0   0  -7  231.18   16.53
   0   0  -6  762.31   44.88
   0   0  -5  813.97   40.56
   0   0  -4   41.31    8.22
   0   0  -3  170.81   13.91
   0   0  -2  227.34    9.03
   0   0  -2  225.67   12.76
   0   0  -1 2335.36   27.46
   0   0  -1 2229.82   19.68
   0   0   1 2286.43   28.17
   0   0   2  224.40   12.76
   0   0   3  170.85   13.66
   0   0   4   47.94    8.90
   0   0   5  842.80   40.05
   0   0   6  859.72   46.29
   0   0   7  249.97   27.51
   0   1 -11   13.10    3.30
   0   1 -11   15.71    3.98
   0   1 -10  195.61   13.55
   0   1 -10  198.14   15.58
   0   1  -9  479.96   22.74
   0   1  -9  454.97   24.43
   0   1  -8 1279.90   36.20
   0   1  -8 1233.13   38.99
   0   1  -7 1280.00   34.09
   0   1  -7 1238.89   36.48
   0   1  -6  854.19   41.79
   0   1  -5   21.69    5.48
   0   1  -5   19.76    4.86
   0   1  -4   12.97    4.65
   0   1  -4   14.51    3.79
   0   1  -3   86.73    8.35
   0   1  -3   86.01    8.08
   0   1  -2 2506.84   37.50
   0   1  -2 2367.74   30.40
   0   1  -1 2063.05   28.40
   0   1   0  119.48    5.57
   0   1   3  679.19   28.69
   0   1   4  676.83   33.68
   0   1   5  143.62   17.95
   0   1   6  140.58   19.72
   0   1   7  136.60   21.14
   0   2 -12   18.47    2.82
   0   2 -12   15.34    3.31
   0   2 -11  145.05   10.34
   0   2 -11  144.75   11.88
   0   2 -10  230.96   15.15
   0   2 -10  234.39   17.16
   0   2  -9  108.51   12.19
   0   2  -9   82.59    9.48
   0   2  -8   24.74    5.81
   0   2  -6  105.96   13.13
   0   2  -5  485.15   26.25
   0   2  -5  497.66   23.84
   0   2  -4 1430.05   40.74
   0   2  -4 1449.56   33.22
   0   2  -3 1503.30   37.68
   0   2  -3 1417.99   25.33
   0   2  -2 1981.15   39.33
   0   2  -1  357.82   15.47
   0   2   0   43.13    5.14
   0   2   1 2207.33   31.74
   0   2   2 1591.79   22.92
   0   2   4 1359.82   51.04
   0   2   5  384.82   31.04
   0   2   6    7.07    5.35
   0   3 -12  125.07    7.56
   0   3 -12  132.00    9.49
   0   3 -11  175.72   13.41
   0   3 -11  203.13   12.49
   0   3 -10   90.35    9.55
   0   3 -10   83.24   10.47
   0   3  -9  130.49   12.62
   0   3  -8  216.51   15.22
   0   3  -8  170.76   12.23
   0   3  -6 1495.31   54.05
   0   3  -5 2530.70   65.06
   0   3  -4  495.01   26.82
   0   3  -4  458.41   14.38
   0   3  -3  913.62   33.70
   0   3  -2   23.48    5.61
   0   3  -1  357.34   18.11
   0   3   0   48.57    6.48
   0   3   0   40.88    2.89
   0   3   1  465.18   18.22
   0   3   4    5.25    3.58
   0   3   5  151.63   20.94
   0   3   6   50.43   14.14
   0   4 -12  186.23    9.64
   0   4 -12  187.36   11.56
   0   4 -11   12.22    3.63
   0   4 -11   14.97    4.70
   0   4 -10    0.71    2.15
   0   4 -10    1.25    2.28
   0   4 -10    3.25    2.78
   0   4  -9    4.01    2.90
   0   4  -9    4.66    3.35
   0   4  -8   30.19    5.58
   0   4  -8   29.13    5.87
   0   4  -7  490.63   34.90
   0   4  -6   87.97   14.47
   0   4  -5   25.45    8.17
   0   4  -4   43.72    9.36
   0   4  -3  399.07   25.11
   0   4  -2  345.70   21.93
   0   4  -1 1480.46   43.06
   0   4   0  876.10   31.64
   0   4   1  491.17   21.42
   0   4   4  131.81   18.89
   0   4   5 1196.09   61.37
   0   5 -12   15.01    2.97
   0   5 -12   15.76    3.70
   0   5 -11  158.71   11.11
   0   5 -11  165.31   12.70
   0   5 -11  166.04   11.28
   0   5 -10  356.53   19.35
   0   5 -10  356.83   18.40
   0   5  -9   54.03    7.75
   0   5  -9   49.34    7.22
   0   5  -8  499.82   21.39
   0   5  -8  531.18   40.85
   0   5  -8  504.31   21.44
   0   5  -7  137.09   19.85
   0   5  -6   61.36   12.90
   0   5  -5  800.04   42.31
   0   5  -4  690.15   37.44
   0   5  -3 2002.44   60.64
   0   5  -2 2658.40   67.37
   0   5  -1 1522.35   48.92
   0   5   0  403.68   24.08
   0   5   3   18.89    7.77
   0   6 -12  181.88    9.16
   0   6 -12  204.19   11.32
   0   6 -12  212.49   10.53
   0   6 -11  296.33   14.48
   0   6 -11  314.06   16.33
   0   6 -11  313.17   15.92
   0   6 -10  516.14   22.15
   0   6 -10  495.00   21.96
   0   6  -9  798.64   27.09
   0   6  -9  771.62   27.38
   0   6  -8  112.28   10.22
   0   6  -8   95.42   17.75
   0   6  -7   -0.47    2.82
   0   6  -7    5.32    2.35
   0   6  -6   -0.28    2.77
   0   6  -5   -3.23    3.76
   0   6  -4  135.96   18.09
   0   6  -3  265.65   24.44
   0   6  -2    0.66    2.75
   0   6  -1  128.71   16.14
   0   7 -12   27.98    4.14
   0   7 -11  111.06    9.58
   0   7 -10   43.95    6.67
   0   7  -9   70.53    8.51
   0   7  -8  376.50   18.91
   0   7  -8  404.16   39.01
   0   7  -7  664.73   23.93
   0   7  -7  668.32   48.16
   0   7  -6  600.86   21.87
   0   7  -6  685.57   46.95
   0   7  -5  445.68   36.82
   0   7  -4  490.34   37.64
   0   7  -3  202.52   23.26
   0   7  -2  122.64   18.35
   0   8 -12  217.70   10.97
   0   8 -11  352.79   16.52
   0   8 -10   88.13    9.23
   0   8  -9   52.56    7.26
   0   8  -8  318.63   17.52
   0   8  -7  832.53   27.26
   0   8  -7  913.28   59.12
   0   8  -6  618.82   22.83
   0   8  -6  691.17   50.34
   0   8  -5  236.20   13.69
   0   8  -5  252.53   29.62
   0   8  -4   44.82   12.34
   0   8  -3  300.57   30.76
   0   9 -12    3.80    1.92
   0   9 -11  106.68    8.85
   0   9 -10   39.02    6.07
   0   9  -9    4.76    3.15
   0   9  -8  100.56    9.84
   0   9  -7   62.67    7.78
   0   9  -6   47.39    6.61
   0   9  -5  831.93   57.05
   0   9  -4  688.17   50.46
   0  10 -12  116.21    6.95
   0  10 -11  238.02   11.93
   0  10 -10  177.16   11.56
   0  10  -9  216.87   13.33
   0  10  -8   41.71    6.35
   0  10  -7  167.35   11.87
   0  10  -6  328.52   16.04
   0  11 -11  174.01    8.82
   0  11 -10   42.18    5.26
   0  11  -9    9.22    3.06
   0  11  -8   71.24    7.00
   0  12 -10  297.40   10.03
   0  12  -9  279.82   10.50
   1 -13   5    1.05    1.37
   1 -13   6    6.68    2.26
   1 -13   7   10.35    2.76
   1 -13   8   44.63    4.38
   1 -12   1  223.06   12.00
   1 -12   2  328.47   15.61
   1 -12   3  333.63   15.85
   1 -12   3  299.73   12.88
   1 -12   4  101.51    8.40
   1 -12   5   49.04    6.39
   1 -12   6   34.30    5.56
   1 -12   7  180.16   11.43
   1 -12   8  360.27   14.83
   1 -12   9  173.57    9.18
   1 -11  -1  303.80   14.45
   1 -11   0  264.84   15.68
   1 -11   1  170.56   13.43
   1 -11   2   67.70    9.01
   1 -11   3    2.22    3.04
   1 -11   3    4.03    2.73
   1 -11   4    0.05    2.79
   1 -11   4    3.35    2.37
   1 -11   5    6.23    3.54
   1 -11  10    7.80    2.21
   1 -11  10   10.98    2.41
   1 -11  11   51.80    3.92
   1 -10  -3   -3.11    1.82
   1 -10  -2    2.62    2.97
   1 -10  -1    6.05    3.65
   1 -10   0   24.85    6.40
   1 -10   1   88.34   11.12
   1 -10   2   16.93    5.44
   1 -10   2   19.84    4.46
   1 -10   3  176.06   14.62
   1 -10   3  143.07   12.08
   1 -10   4  275.15   17.02
   1 -10   8   88.94    8.21
   1 -10   9   36.38    5.15
   1 -10  10  152.73    9.66
   1 -10  11  255.53   10.76
   1 -10  12  146.74    6.46
   1  -9  -4  372.90   14.56
   1  -9  -3  418.10   19.77
   1  -9  -3  335.06   15.70
   1  -9  -2  193.25   15.48
   1  -9  -2  138.35   11.01
   1  -9  -1   28.36    5.39
   1  -9  -1   38.11    7.42
   1  -9   0   99.78   12.33
   1  -9   1  220.00   17.19
   1  -9   1  245.76   16.88
   1  -9   2  373.25   21.52
   1  -9   2  362.07   20.44
   1  -9   3  921.42   32.21
   1  -9   4  120.15   11.31
   1  -9   7   28.50    5.12
   1  -9   8   37.12    5.93
   1  -9   9  119.18   10.01
   1  -9  10  219.10   12.56
   1  -9  11   38.71    4.79
   1  -9  12    5.41    1.68
   1  -8  -5  298.36   12.46
   1  -8  -5  270.58   12.77
   1  -8  -4   95.33    9.49
   1  -8  -4   73.13    8.04
   1  -8  -3   33.03    6.50
   1  -8  -3   25.46    5.40
   1  -8  -2    8.64    4.27
   1  -8  -2    8.35    3.91
   1  -8  -1    1.16    3.89
   1  -8  -1   -0.17    2.20
   1  -8   0    1.62    2.62
   1  -8   0    0.14    3.33
   1  -8   1   18.46    5.36
   1  -8   1   23.83    5.32
   1  -8   2  270.21   17.84
   1  -8   2  296.01   17.06
   1  -8   3  272.15   16.51
   1  -8   3  272.41   16.27
   1  -8   6  198.11   12.99
   1  -8   7  725.14   25.49
   1  -8   7  642.79   48.19
   1  -8   8 1146.88   32.49
   1  -8   9  810.39   26.68
   1  -8  10  159.23   11.29
   1  -8  11   10.86    3.00
   1  -8  12   12.33    2.58
   1  -7  -6   34.65    5.35
   1  -7  -5   66.66    7.75
   1  -7  -5   56.02    7.48
   1  -7  -4   74.60    9.43
   1  -7  -4   66.98    8.93
   1  -7  -3  139.47   13.47
   1  -7  -3  137.05   12.00
   1  -7  -2  436.60   43.98
   1  -7  -2  489.89   24.84
   1  -7  -2  491.52   21.56
   1  -7  -1  855.50   55.70
   1  -7  -1  952.60   28.28
   1  -7  -1  899.15   32.97
   1  -7  -1  950.31   30.63
   1  -7   0 1469.64   64.57
   1  -7   0 1542.67   40.41
   1  -7   5  162.25   21.67
   1  -7   6  324.85   16.36
   1  -7   6  275.64   29.57
   1  -7   7  581.49   22.61
   1  -7   7  516.56   43.14
   1  -7   8  105.24   10.08
   1  -7   8   88.11   18.54
   1  -7   9   -0.25    2.18
   1  -7  10   12.40    3.72
   1  -7  11   47.48    5.66
   1  -7  12   36.15    4.05
   1  -6  -7  205.75   11.75
   1  -6  -6  159.42   12.43
   1  -6  -5   36.22    6.36
   1  -6  -5   30.92    6.59
   1  -6  -4   21.98    5.56
   1  -6  -4   17.32    5.12
   1  -6  -3  177.57   14.22
   1  -6  -3  191.91   13.76
   1  -6  -3  171.69   27.75
   1  -6  -2  565.20   46.21
   1  -6  -2  628.66   25.85
   1  -6  -2  645.60   22.99
   1  -6  -1  386.06   33.88
   1  -6   0  116.31   16.25
   1  -6   1   66.30   10.71
   1  -6   4   35.39   10.64
   1  -6   5  226.65   24.57
   1  -6   6   33.98   11.41
   1  -6   7   52.09    6.97
   1  -6   7   34.59   11.40
   1  -6   8  211.85   13.63
   1  -6   8  234.24   29.28
   1  -6   9   66.65    7.93
   1  -6  10  554.21   20.88
   1  -6  11  668.31   20.37
   1  -6  12  335.80   11.28
   1  -5  -8   12.69    3.45
   1  -5  -7   31.06    5.93
   1  -5  -6   88.78   10.25
   1  -5  -5  408.43   20.05
   1  -5  -5  409.51   21.39
   1  -5  -4  106.36   10.60
   1  -5  -4  106.53   22.10
   1  -5  -4   69.64    8.76
   1  -5  -3   80.12    8.88
   1  -5  -3   73.13   16.82
   1  -5  -2  140.61   20.89
   1  -5  -1   30.40    8.67
   1  -5   0  488.20   28.62
   1  -5   1 1101.22   35.81
   1  -5   2 1938.51   36.89
   1  -5   3 1953.69   57.45
   1  -5   4 1011.72   44.75
   1  -5   5  294.24   26.73
   1  -5   6  135.84   20.37
   1  -5   7   16.56    3.72
   1  -5   7   17.29    8.20
   1  -5   8  403.05   18.51
   1  -5   8  377.75   36.17
   1  -5   9  177.07   12.26
   1  -5  10  225.90   13.04
   1  -5  11   29.89    4.24
   1  -4  -9   60.83    5.99
   1  -4  -8  282.97   16.08
   1  -4  -7  278.26   17.66
   1  -4  -6  345.71   19.89
   1  -4  -5  926.62   31.05
   1  -4  -5  961.77   31.63
   1  -4  -4  660.45   50.06
   1  -4  -3   82.86   16.04
   1  -4  -2  111.97   16.28
   1  -4  -1    5.98    2.98
   1  -4   0  617.30   27.66
   1  -4   1 1339.71   32.24
   1  -4   2 1507.22   23.13
   1  -4   2 1374.97   20.43
   1  -4   3    4.34    4.31
   1  -4   4    6.56    5.57
   1  -4   5  268.15   24.16
   1  -4   6  587.06   38.73
   1  -4   7  203.29   24.74
   1  -4   8  285.75   30.84
   1  -4   8  277.05   14.94
   1  -4   9  252.78   14.13
   1  -4  10  122.70    9.19
   1  -3 -10    4.37    1.90
   1  -3  -9   12.81    3.91
   1  -3  -8   40.37    7.23
   1  -3  -7  190.89   15.26
   1  -3  -7  193.49   15.51
   1  -3  -6  364.55   40.13
   1  -3  -6  416.81   21.32
   1  -3  -6  389.80   21.07
   1  -3  -5   12.65    7.88
   1  -3  -5   21.02    4.74
   1  -3  -4  182.98   24.09
   1  -3  -3  287.47   26.16
   1  -3  -2  840.45   39.87
   1  -3  -1  568.54   27.26
   1  -3   0  597.62   22.94
   1  -3   1  628.78   23.40
   1  -3   1  599.56   16.59
   1  -3   2  565.16   24.41
   1  -3   3  751.56   31.90
   1  -3   4 1534.35   50.89
   1  -3   5 2167.10   67.34
   1  -3   6 1238.42   55.44
   1  -3   7  940.09   52.14
   1  -3   8  170.76   11.35
   1  -3   8  172.04   24.56
   1  -3   9    5.87    2.37
   1  -2 -10  122.66    9.16
   1  -2  -9   11.99    4.49
   1  -2  -9   16.51    4.72
   1  -2  -8   17.58    5.36
   1  -2  -8    9.51    4.85
   1  -2  -7  343.06   19.76
   1  -2  -7  319.99   20.26
   1  -2  -6  270.40   32.38
   1  -2  -6  340.77   18.32
   1  -2  -6  292.08   18.11
   1  -2  -5  763.02   48.19
   1  -2  -4 1018.78   49.35
   1  -2  -3 1771.67   57.60
   1  -2  -2 2334.18   56.17
   1  -2  -1 3780.02   59.02
   1  -2   0  201.23    7.48
   1  -2   0  236.69   11.87
   1  -2   1   96.67    4.68
   1  -2   1  111.99    8.93
   1  -2   2   89.58    9.66
   1  -2   3   32.53    7.30
   1  -2   4   81.99   12.31
   1  -2   5  808.55   40.15
   1  -2   6  148.12   19.15
   1  -2   7  127.22   19.44
   1  -2   8  283.88   31.01
   1  -1 -11  223.30   10.52
   1  -1 -10  240.44   15.37
   1  -1 -10  269.81   15.16
   1  -1  -9  328.24   20.43
   1  -1  -9  335.04   19.15
   1  -1  -8   48.34    7.83
   1  -1  -8   71.25    9.94
   1  -1  -7    8.31    7.15
   1  -1  -7    6.64    3.92
   1  -1  -7    3.82    2.79
   1  -1  -6    2.65    4.53
   1  -1  -5  139.70   18.59
   1  -1  -4  431.78   29.21
   1  -1  -3   15.74    5.90
   1  -1  -2   82.64    9.90
   1  -1  -1   73.40    5.68
   1  -1  -1   66.61    6.95
   1  -1   0 3461.96   30.87
   1  -1   0 3461.74   36.66
   1  -1   1  987.16   23.06
   1  -1   2 1589.31   38.17
   1  -1   3 1401.48   41.78
   1  -1   4   27.69    7.76
   1  -1   5  519.05   32.55
   1  -1   6  154.86   20.48
   1  -1   7  281.84   29.28
   1   0 -11   68.52    6.77
   1   0 -10   43.26    6.94
   1   0 -10   46.81    7.77
   1   0  -9  472.83   22.85
   1   0  -9  399.42   23.21
   1   0  -8  743.31   28.63
   1   0  -8  670.59   29.86
   1   0  -7  444.47   20.77
   1   0  -7  422.02   21.99
   1   0  -7  379.46   34.30
   1   0  -6   68.63   13.62
   1   0  -5  107.96   14.85
   1   0  -4  561.34   29.38
   1   0  -3 1675.25   24.31
   1   0  -3 2014.57   47.32
   1   0  -2 1480.77   31.08
   1   0  -2 1392.71   20.19
   1   0  -1  745.81   16.17
   1   0   0 1243.99   20.07
   1   0   0 1274.52   15.57
   1   0   1 1078.74   24.00
   1   0   2 5048.32   65.93
   1   0   3 2440.03   54.64
   1   0   4   15.08    6.19
   1   0   5  499.61   32.64
   1   0   6   11.83    5.86
   1   0   7  280.49   30.00
   1   1 -12  103.11    6.66
   1   1 -11  212.74   12.78
   1   1 -11  213.50   14.27
   1   1 -10  469.58   21.87
   1   1 -10  483.84   24.50
   1   1  -9  343.12   19.61
   1   1  -9  329.60   21.16
   1   1  -8  411.40   20.70
   1   1  -8  365.73   21.25
   1   1  -7  233.46   24.78
   1   1  -6  843.14   41.38
   1   1  -5   21.39    6.07
   1   1  -5   26.47    5.15
   1   1  -4  486.18   19.56
   1   1  -4  490.14   24.15
   1   1  -3    6.75    2.79
   1   1  -3    5.01    3.39
   1   1  -2  368.85   14.81
   1   1  -2  390.66   14.40
   1   1  -1   98.42    6.04
   1   1   0 1403.01   22.76
   1   1   0 1304.92   17.32
   1   1   1  992.89   24.08
   1   1   2   48.18    7.28
   1   1   3 1847.67   50.14
   1   1   4 2793.17   71.66
   1   1   5  751.31   41.58
   1   1   6  330.46   30.86
   1   2 -12    1.81    1.60
   1   2 -12    2.75    2.20
   1   2 -11    0.48    3.01
   1   2 -11    2.36    3.03
   1   2 -10   -1.37    3.22
   1   2 -10    3.57    3.81
   1   2  -9   63.00    9.35
   1   2  -8  158.87   13.54
   1   2  -8  155.55   11.92
   1   2  -6  336.08   23.66
   1   2  -5 1371.13   41.18
   1   2  -5 1431.62   42.73
   1   2  -4 1996.90   46.20
   1   2  -3  964.90   29.72
   1   2  -3  923.61   27.47
   1   2  -2  781.39   19.92
   1   2  -2  876.61   26.03
   1   2  -1   92.89    5.81
   1   2   0 4151.76   43.40
   1   2   2  775.69   29.64
   1   2   3 1159.98   42.29
   1   2   4 1481.15   54.82
   1   2   5  642.53   40.68
   1   2   6   89.47   17.96
   1   3 -12  233.39   11.79
   1   3 -12  254.58   14.03
   1   3 -11   97.00    9.46
   1   3 -11  106.31   10.84
   1   3 -10  113.66   11.22
   1   3 -10  101.05   11.31
   1   3 -10  110.63   10.16
   1   3  -9  130.31   12.64
   1   3  -9  144.20   12.17
   1   3  -8  332.15   18.52
   1   3  -8  287.66   16.39
   1   3  -6 1525.88   51.41
   1   3  -6 1494.91   44.29
   1   3  -5 1504.67   48.43
   1   3  -5 1604.33   40.54
   1   3  -4 1375.14   42.66
   1   3  -3  809.03   24.79
   1   3  -3  802.58   31.95
   1   3  -2  232.30   10.35
   1   3  -2  225.26   16.17
   1   3  -1  164.40    7.71
   1   3  -1  173.82   13.48
   1   3   0 1394.96   27.23
   1   3   0 1363.70   36.60
   1   3   1  124.50   11.15
   1   3   2   10.93    4.34
   1   3   3  180.46   20.02
   1   3   4   17.72    6.80
   1   3   5  541.46   39.49
   1   4 -12  163.88   10.25
   1   4 -12  170.48   11.69
   1   4 -11  177.83   12.75
   1   4 -11  173.42   13.51
   1   4 -11  173.46   11.92
   1   4 -10   15.59    4.38
   1   4 -10   26.36    5.95
   1   4  -9    5.19    3.11
   1   4  -9    7.46    3.32
   1   4  -8  241.24   15.19
   1   4  -8  249.74   15.11
   1   4  -7    7.44    4.58
   1   4  -6   42.10    9.63
   1   4  -5   74.88   11.97
   1   4  -4   28.64    7.35
   1   4  -3 2286.32   58.29
   1   4  -2 3020.50   34.30
   1   4  -2 3247.52   67.30
   1   4  -1  984.75   17.34
   1   4  -1 1114.16   38.99
   1   4   0   59.07    8.99
   1   4   1  834.77   32.50
   1   4   2   99.61   13.29
   1   4   3  497.65   33.41
   1   5 -12   44.19    5.47
   1   5 -12   45.72    6.04
   1   5 -12   40.45    5.01
   1   5 -11  372.70   18.72
   1   5 -11  340.39   17.31
   1   5 -10  569.70   24.12
   1   5 -10  563.08   23.67
   1   5  -9  854.23   28.90
   1   5  -9  840.07   29.17
   1   5  -8  337.21   30.82
   1   5  -8  336.21   17.55
   1   5  -7  119.49   17.93
   1   5  -6   77.66   13.86
   1   5  -5  615.34   37.35
   1   5  -4  396.27   28.16
   1   5  -3 1005.92   43.32
   1   5  -2  487.29   30.11
   1   5  -1 1654.34   53.41
   1   5   0  165.81   17.23
   1   6 -12  186.56   10.83
   1   6 -12  180.49   10.55
   1   6 -12  196.06   11.23
   1   6 -11  307.24   15.89
   1   6 -11  297.90   16.28
   1   6 -10   75.71    8.91
   1   6  -9  306.98   17.51
   1   6  -8   46.89   12.34
   1   6  -8   42.85    6.54
   1   6  -7    7.87    2.55
   1   6  -7    9.97    5.82
   1   6  -6   19.98    7.52
   1   6  -5  287.40   27.09
   1   6  -4    1.58    3.51
   1   6  -3   12.81    6.45
   1   6  -2  104.10   15.50
   1   6  -1  163.92   18.82
   1   7 -13    4.71    1.55
   1   7 -12    7.09    2.60
   1   7 -12    5.59    2.16
   1   7 -11    2.87    2.96
   1   7 -10   14.22    4.22
   1   7  -9    7.17    3.35
   1   7  -8  364.51   36.23
   1   7  -8  393.70   19.20
   1   7  -7  957.73   28.69
   1   7  -7 1006.04   58.55
   1   7  -6  821.77   51.38
   1   7  -5  813.66   49.68
   1   7  -4  387.23   34.11
   1   7  -3   52.92   12.34
   1   7  -2  415.59   33.30
   1   8 -13  119.44    6.40
   1   8 -12   34.65    4.72
   1   8 -11   22.86    4.75
   1   8 -10  184.59   13.17
   1   8  -9  527.95   22.52
   1   8  -8  459.67   20.79
   1   8  -7  255.81   15.09
   1   8  -7  296.78   34.02
   1   8  -6  123.80   10.10
   1   8  -6  105.30   20.06
   1   8  -5   15.97    7.64
   1   8  -4   30.50    9.96
   1   8  -3   75.29   15.70
   1   9 -12    0.12    1.84
   1   9 -11    1.18    1.84
   1   9 -10   12.70    4.08
   1   9  -9   99.34    9.50
   1   9  -8   53.39    7.14
   1   9  -7  181.89   12.52
   1  10 -12  321.81   11.68
   1  10 -11  302.28   11.98
   1  10 -11  457.09   16.40
   1  10 -10  139.44   10.05
   1  10  -9  116.37    9.53
   1  10  -8   47.30    6.37
   1  11 -11    0.45    1.19
   1  11 -11    0.03    0.94
   1  11 -10    5.15    2.06
   1  11  -9   20.12    3.59
   1  12 -10  108.66    6.60
   2 -13   5    1.32    1.33
   2 -13   6   83.52    6.30
   2 -13   7   10.24    2.41
   2 -13   8  106.30    6.26
   2 -12   0  148.64    8.83
   2 -12   1  167.16   10.88
   2 -12   2  238.57   13.66
   2 -12   3  215.61   13.19
   2 -12   3  190.37   10.14
   2 -12   4  242.97   13.15
   2 -12   4  220.82   12.16
   2 -12   5  139.27   10.13
   2 -12   6   48.30    6.08
   2 -12   8   58.03    6.07
   2 -12   9  127.51    7.50
   2 -11  -1   91.39    8.44
   2 -11   0  115.30   10.74
   2 -11   1  229.65   15.68
   2 -11   2  116.22   11.65
   2 -11   3    3.57    3.43
   2 -11   3    5.13    3.35
   2 -11   4   43.39    6.92
   2 -11   9   54.39    5.17
   2 -11  10  117.95    6.75
   2 -11  10  103.25    6.09
   2 -10  -3  127.99    8.83
   2 -10  -2   60.11    7.73
   2 -10  -1    4.85    4.02
   2 -10   0   43.02    8.23
   2 -10   0   40.64    6.98
   2 -10   1  129.82   13.21
   2 -10   2  129.86   13.88
   2 -10   2  126.48   10.57
   2 -10   3  914.72   33.54
   2 -10   4  284.32   18.17
   2 -10   7  174.67   11.69
   2 -10   8  324.58   15.65
   2 -10   9   27.22    4.69
   2 -10  10    8.15    2.42
   2 -10  11    7.76    2.07
   2  -9  -4  260.89   12.78
   2  -9  -3  250.79   15.60
   2  -9  -2  254.62   17.50
   2  -9  -1  331.54   20.95
   2  -9  -1  313.54   19.33
   2  -9   0   95.00   11.73
   2  -9   0   92.67   10.74
   2  -9   1   25.31    6.32
   2  -9   1   18.83    5.80
   2  -9   2   44.37    7.82
   2  -9   2   44.46    7.78
   2  -9   3   44.37    7.72
   2  -9   4  304.63   18.23
   2  -9   6   70.00    8.25
   2  -9   7  246.68   15.08
   2  -9   8  246.64   14.98
   2  -9   9   95.52    8.94
   2  -9  10    9.94    3.17
   2  -9  11   52.63    5.21
   2  -9  12   55.71    4.05
   2  -8  -4   59.93    7.82
   2  -8  -3  182.63   14.79
   2  -8  -3  169.67   13.64
   2  -8  -2   26.64    6.46
   2  -8  -2   26.40    6.31
   2  -8  -1  265.37   18.73
   2  -8  -1  275.99   17.98
   2  -8   0  400.94   22.53
   2  -8   0  391.87   21.30
   2  -8   1  760.12   30.13
   2  -8   1  804.75   29.19
   2  -8   2   12.54    4.70
   2  -8   2    9.30    3.55
   2  -8   3   11.60    3.87
   2  -8   3    5.76    3.49
   2  -8   4  125.64   10.99
   2  -8   5  421.53   19.39
   2  -8   6 1046.22   31.24
   2  -8   6 1025.28   63.00
   2  -8   7  374.51   19.03
   2  -8   8  303.64   17.04
   2  -8   9  327.64   17.04
   2  -8  10  436.30   18.14
   2  -8  11  170.69    9.75
   2  -8  12   35.18    3.44
   2  -7  -6   12.23    3.14
   2  -7  -5    3.30    2.04
   2  -7  -5    6.01    3.14
   2  -7  -4  136.06   12.56
   2  -7  -4  111.22   10.67
   2  -7  -4  114.43   11.31
   2  -7  -3  606.81   27.16
   2  -7  -3  565.04   22.50
   2  -7  -3  655.96   27.47
   2  -7  -2  532.02   47.37
   2  -7  -2  610.10   27.25
   2  -7  -2  613.18   26.08
   2  -7  -1  673.24   47.82
   2  -7  -1  705.78   28.62
   2  -7  -1  777.63   28.34
   2  -7   0  640.61   25.96
   2  -7   0  602.75   24.92
   2  -7   5   -1.28    4.28
   2  -7   6   36.86    6.07
   2  -7   6   25.62   10.04
   2  -7   7  341.58   17.99
   2  -7   7  317.77   35.13
   2  -7   8   30.30    5.80
   2  -7   9   52.96    7.19
   2  -7  10  170.08   11.54
   2  -7  11  213.51   10.94
   2  -7  12  208.84    7.99
   2  -6  -7   59.23    6.65
   2  -6  -6   61.07    7.80
   2  -6  -5  134.66   11.57
   2  -6  -5  119.65   11.23
   2  -6  -5  146.85   12.99
   2  -6  -4   56.29    8.10
   2  -6  -4   39.83    6.20
   2  -6  -4   64.61    8.73
   2  -6  -3   56.95    7.90
   2  -6  -3   50.36   15.10
   2  -6  -3   51.20    6.71
   2  -6  -3   68.18    8.91
   2  -6  -2   56.18    8.25
   2  -6  -2   64.20   16.12
   2  -6  -2   59.55    7.48
   2  -6  -2   61.78    8.00
   2  -6  -1   76.60   14.93
   2  -6   0  122.28   16.17
   2  -6   4 1183.26   55.14
   2  -6   5  462.36   36.83
   2  -6   6  165.85   23.71
   2  -6   6  143.46   11.06
   2  -6   7   47.17    6.77
   2  -6   7   38.27   12.27
   2  -6   8  382.66   18.82
   2  -6   9  271.09   15.44
   2  -6  10  402.05   17.41
   2  -6  11  337.68   13.38
   2  -5  -8    3.90    2.14
   2  -5  -7   77.31    8.73
   2  -5  -6  112.04   11.50
   2  -5  -6  109.41   11.29
   2  -5  -5  604.50   24.94
   2  -5  -5  600.92   26.91
   2  -5  -4  175.49   13.05
   2  -5  -4  170.26   12.54
   2  -5  -4  170.84   28.41
   2  -5  -4  165.90   13.78
   2  -5  -3  281.64   32.50
   2  -5  -2  590.30   41.51
   2  -5  -1  157.48   18.67
   2  -5   0  991.14   40.02
   2  -5   1  994.67   32.14
   2  -5   3 1319.47   52.56
   2  -5   4 1533.61   60.62
   2  -5   5  309.69   29.11
   2  -5   6   13.60    7.39
   2  -5   7    6.90    3.15
   2  -5   7   12.94    6.67
   2  -5   8   22.58    4.87
   2  -5   8   38.13   11.76
   2  -5   9   34.94    5.94
   2  -5  10   83.22    7.74
   2  -5  11   54.20    5.06
   2  -4  -9  183.76   10.48
   2  -4  -8  353.17   18.02
   2  -4  -7  389.57   20.82
   2  -4  -7  348.78   19.92
   2  -4  -6  933.10   31.67
   2  -4  -6 1004.02   34.79
   2  -4  -5  288.89   35.32
   2  -4  -5  330.47   17.98
   2  -4  -5  347.79   19.99
   2  -4  -4  419.09   39.17
   2  -4  -3  109.58   18.16
   2  -4  -2   55.80   12.03
   2  -4  -1   -0.28    3.09
   2  -4   0  105.48    7.28
   2  -4   0  134.89   13.14
   2  -4   1    3.26    1.68
   2  -4   1   -0.52    1.80
   2  -4   2  628.19   21.53
   2  -4   2  747.21   34.47
   2  -4   3   59.97   10.84
   2  -4   4    7.20    6.42
   2  -4   5  464.40   33.96
   2  -4   6 1329.55   61.39
   2  -4   7  675.83   23.41
   2  -4   7  625.68   45.98
   2  -4   8  192.78   12.80
   2  -4   8  185.93   26.18
   2  -4   9   38.54    5.58
   2  -4  10   29.56    4.38
   2  -3 -10   13.23    2.87
   2  -3  -9    6.46    3.53
   2  -3  -9    9.43    3.15
   2  -3  -8  151.43   12.93
   2  -3  -8  107.73   11.24
   2  -3  -7   11.45    4.47
   2  -3  -7   10.25    4.23
   2  -3  -7    8.94    4.59
   2  -3  -6   19.68    9.46
   2  -3  -6   23.53    5.66
   2  -3  -6   30.54    6.59
   2  -3  -5   49.49   13.42
   2  -3  -4  236.26   27.05
   2  -3  -3  376.42   30.01
   2  -3  -2 1892.78   58.37
   2  -3  -1 1416.62   32.80
   2  -3  -1 1525.58   45.65
   2  -3   0  413.69   15.20
   2  -3   0  413.30   20.36
   2  -3   1  221.46   11.82
   2  -3   1  228.10   16.69
   2  -3   1  201.34   11.14
   2  -3   2  334.61   16.94
   2  -3   2  397.77   22.84
   2  -3   3  337.28   23.38
   2  -3   4 1487.54   55.01
   2  -3   5 1753.99   63.45
   2  -3   6  939.07   50.70
   2  -3   7  437.18   18.31
   2  -3   7  422.17   36.67
   2  -3   8  213.22   12.77
   2  -2 -10  269.35   13.98
   2  -2  -9  141.37   12.23
   2  -2  -9  137.46   12.03
   2  -2  -8  323.37   19.17
   2  -2  -8  327.86   20.90
   2  -2  -7   18.13   10.01
   2  -2  -7   16.85    4.76
   2  -2  -7   16.74    5.30
   2  -2  -6   65.14    8.31
   2  -2  -6   63.91    8.70
   2  -2  -5  499.19   39.43
   2  -2  -4 1697.94   64.05
   2  -2  -3 1642.17   56.13
   2  -2  -2 1321.92   36.00
   2  -2  -2 1362.05   45.87
   2  -2  -1  967.85   25.37
   2  -2   0   52.71    6.08
   2  -2   1  615.38   23.89
   2  -2   1  600.30   20.38
   2  -2   2   41.57    7.44
   2  -2   3   14.22    5.45
   2  -2   4    7.53    5.17
   2  -2   5    4.17    5.15
   2  -2   6   26.84    8.87
   2  -2   7   40.91   12.00
   2  -1 -11  258.74   11.99
   2  -1 -10  137.77   11.36
   2  -1 -10  138.93   11.32
   2  -1  -9   10.65    4.44
   2  -1  -9   13.77    5.23
   2  -1  -8   21.07    5.65
   2  -1  -8   28.81    7.22
   2  -1  -7   74.58    9.01
   2  -1  -7   74.08    9.94
   2  -1  -7   57.01   14.84
   2  -1  -6   42.76   11.57
   2  -1  -5   58.22   12.55
   2  -1  -4    1.79    4.97
   2  -1  -3    2.34    4.54
   2  -1  -3    1.81    0.69
   2  -1  -3    3.21    2.71
   2  -1  -2   19.36    4.78
   2  -1  -1   77.21    7.33
   2  -1   0 3434.83   46.57
   2  -1   0 3214.31   41.96
   2  -1   1 3282.00   50.23
   2  -1   1 3507.22   50.30
   2  -1   2 3213.94   58.33
   2  -1   3 1989.40   53.51
   2  -1   4  131.12   16.01
   2  -1   5  320.43   27.29
   2  -1   6  194.46   23.83
   2  -1   7  535.09   41.40
   2   0 -11    1.23    2.52
   2   0 -11   14.96    3.69
   2   0 -10  106.10   10.66
   2   0 -10  115.84   12.29
   2   0  -9   27.39    6.23
   2   0  -9   30.15    7.18
   2   0  -8  225.12   15.87
   2   0  -8  217.85   17.15
   2   0  -8  255.51   30.81
   2   0  -7 1203.19   36.71
   2   0  -7 1149.43   60.32
   2   0  -6 1616.72   64.48
   2   0  -5  466.55   31.32
   2   0  -4  385.80   24.05
   2   0  -4  368.24   13.90
   2   0  -4  421.97   26.47
   2   0  -3  371.52   19.90
   2   0  -3  358.86   14.15
   2   0  -2   79.52    8.07
   2   0   0 1621.85   33.53
   2   0   0 1610.64   24.52
   2   0   1 2311.20   39.55
   2   0   2  240.15   16.21
   2   0   3   26.84    7.09
   2   0   4   14.29    6.23
   2   0   5    6.86    5.57
   2   0   6    2.60    6.03
   2   1 -12    9.31    2.55
   2   1 -12    7.48    2.01
   2   1 -11   71.03    7.96
   2   1 -11   66.63    8.71
   2   1 -10  155.14   13.06
   2   1 -10  155.85   14.34
   2   1  -9 1190.11   36.39
   2   1  -9 1087.82   38.46
   2   1  -8  936.12   33.58
   2   1  -8  934.49   29.57
   2   1  -8 1026.22   56.56
   2   1  -7  364.27   31.15
   2   1  -6   43.31   10.05
   2   1  -5   65.24   11.20
   2   1  -5   69.05    8.17
   2   1  -4  152.46   14.71
   2   1  -4  128.96   10.66
   2   1  -3    4.23    2.40
   2   1  -3    4.99    3.37
   2   1  -2  168.78   11.15
   2   1  -1   38.14    5.37
   2   1   0   21.76    4.36
   2   1   0   19.55    2.46
   2   1   1  730.31   23.05
   2   1   2  186.95   14.70
   2   1   3  566.75   29.94
   2   1   4  649.09   36.35
   2   1   5 1075.85   52.41
   2   1   6  870.53   50.80
   2   2 -12    2.91    2.14
   2   2 -11   15.42    4.53
   2   2 -11    4.76    3.48
   2   2 -10    0.68    2.30
   2   2 -10    3.51    3.63
   2   2 -10   -1.68    3.99
   2   2  -9   65.65    9.56
   2   2  -9   53.35    7.59
   2   2  -8  102.21   10.93
   2   2  -8  105.28   10.23
   2   2  -7  135.79   17.43
   2   2  -6  528.97   32.30
   2   2  -5  753.77   31.18
   2   2  -4 1191.34   38.09
   2   2  -4 1144.08   36.20
   2   2  -3 2703.26   50.51
   2   2  -3 2729.47   53.50
   2   2  -2 1049.33   27.14
   2   2  -1  321.57   14.75
   2   2   0  272.32   14.85
   2   2   0  254.52   10.16
   2   2   1   53.58    6.95
   2   2   1   49.69    7.39
   2   2   2 1123.28   37.64
   2   2   3 1632.32   53.00
   2   2   4 1287.80   53.45
   2   2   5   12.64    7.83
   2   3 -13  197.43    8.23
   2   3 -12  354.54   15.42
   2   3 -12  360.13   16.78
   2   3 -11  259.31   15.75
   2   3 -11  218.79   15.53
   2   3 -11  236.33   13.86
   2   3 -10  178.27   14.65
   2   3 -10  180.04   13.55
   2   3  -9   55.64    8.25
   2   3  -9   58.36    8.03
   2   3  -8   76.58    9.10
   2   3  -8   73.08    8.51
   2   3  -6  845.29   38.45
   2   3  -6  870.89   37.93
   2   3  -5  514.49   28.52
   2   3  -4 1684.88   44.35
   2   3  -4 1594.81   48.05
   2   3  -3   85.68    8.96
   2   3  -3   88.88   11.29
   2   3  -2   99.85    8.55
   2   3  -2  109.26   12.01
   2   3  -1  344.31   15.77
   2   3   0   -0.89    1.46
   2   3   0    2.80    1.64
   2   3   1   43.41    7.30
   2   3   1   49.73    7.14
   2   3   2   93.06   11.96
   2   3   2  100.55   12.44
   2   3   3   66.84   11.57
   2   4 -13  141.46    7.48
   2   4 -12   19.37    3.45
   2   4 -12   21.33    4.23
   2   4 -12   17.34    3.99
   2   4 -11    4.05    2.79
   2   4 -11    4.16    3.35
   2   4 -10   21.83    5.09
   2   4 -10   16.61    5.15
   2   4  -9    0.58    2.94
   2   4  -9    4.89    3.74
   2   4  -8    5.46    3.34
   2   4  -8    0.05    2.03
   2   4  -8   -0.91    2.38
   2   4  -7   35.85    9.40
   2   4  -6  105.79   15.36
   2   4  -5  196.39   19.63
   2   4  -4  157.13   13.43
   2   4  -4  150.78   16.63
   2   4  -3   88.51    8.86
   2   4  -3   80.67   12.09
   2   4  -2 1053.30   27.56
   2   4  -2 1059.30   41.31
   2   4  -1 2647.73   44.28
   2   4  -1 2609.07   64.98
   2   4   0 3612.91   57.42
   2   4   0 3376.47   74.16
   2   4   1 1638.87   52.40
   2   5 -13   15.38    2.77
   2   5 -12  167.65   11.00
   2   5 -12  155.19   10.67
   2   5 -12  168.38   10.74
   2   5 -11  254.21   15.23
   2   5 -11  258.82   15.54
   2   5 -10  106.45   10.46
   2   5 -10  101.18   10.55
   2   5  -9 1103.95   32.06
   2   5  -9 1020.23   32.30
   2   5  -8  764.96   47.02
   2   5  -8  695.31   25.77
   2   5  -7  628.56   40.73
   2   5  -6  542.33   36.34
   2   5  -5   17.23    6.78
   2   5  -4   99.40   14.99
   2   5  -3  901.29   43.13
   2   5  -2 1444.06   54.23
   2   5  -1  738.02   39.14
   2   5   0   29.61    7.87
   2   6 -13   44.81    4.36
   2   6 -13   51.61    4.49
   2   6 -12   81.81    7.81
   2   6 -11  352.12   17.97
   2   6 -10  345.62   17.50
   2   6 -10  313.81   18.12
   2   6  -9  123.26   11.34
   2   6  -8    9.70    3.33
   2   6  -8   -6.72    4.75
   2   6  -7  144.64   21.71
   2   6  -7  123.17   10.22
   2   6  -6  234.48   26.11
   2   6  -5  116.16   18.20
   2   6  -4  103.58   16.82
   2   6  -3  205.63   23.02
   2   6  -2  258.09   25.56
   2   6  -1  146.53   19.16
   2   7 -13   19.16    3.02
   2   7 -13   14.91    2.46
   2   7 -12    4.07    2.34
   2   7 -11  134.73   10.95
   2   7 -10  117.82   10.44
   2   7 -10  123.78   11.06
   2   7  -9  256.38   15.93
   2   7  -8  466.61   41.48
   2   7  -8  427.14   20.09
   2   7  -7  450.88   39.71
   2   7  -7  439.54   19.54
   2   7  -6  540.37   42.20
   2   7  -6  507.61   19.82
   2   7  -5 1126.75   60.37
   2   7  -4  432.22   36.88
   2   7  -3   51.76   12.53
   2   7  -2   25.71    8.51
   2   8 -13   87.36    5.83
   2   8 -12  136.33    9.25
   2   8 -11   37.02    5.79
   2   8 -11   29.05    4.68
   2   8 -10   16.05    4.58
   2   8 -10   25.37    4.73
   2   8  -9   34.02    6.05
   2   8  -8  147.17   11.72
   2   8  -7  296.92   15.97
   2   8  -6  187.14   26.70
   2   8  -5    6.38    5.55
   2   8  -4  155.01   23.25
   2   8  -3   79.32   16.54
   2   9 -12   76.29    6.41
   2   9 -11   81.46    7.32
   2   9 -11  101.10    8.48
   2   9 -10  111.71    9.68
   2   9  -9   38.42    6.00
   2   9  -8   11.84    3.73
   2  10 -12  251.48   10.00
   2  10 -11  123.36    8.13
   2  10 -11  173.50    9.74
   2  10 -10  227.27   12.14
   2  10  -9  149.11   10.14
   2  11 -11    7.76    1.70
   2  11 -11    6.56    1.86
   2  11 -10    8.65    2.15
   2  11 -10    7.92    2.50
   2  12 -10   85.55    5.70
   3 -13   6   31.97    3.70
   3 -13   7   60.20    4.79
   3 -12   0  173.22    9.55
   3 -12   1  403.68   16.50
   3 -12   2  469.67   18.77
   3 -12   3  133.68   10.34
   3 -12   4   33.77    5.13
   3 -12   4   39.46    5.19
   3 -12   9   15.58    2.54
   3 -11  -1   75.36    7.86
   3 -11   0   47.58    7.31
   3 -11   1   41.63    7.53
   3 -11   2    7.22    3.81
   3 -11   3   21.96    5.62
   3 -11   4   13.03    4.21
   3 -11   8  107.73    7.52
   3 -11   9   26.00    3.43
   3 -11  10   80.70    5.08
   3 -10  -3  113.65    8.42
   3 -10  -2  273.02   15.69
   3 -10  -2  257.19   14.09
   3 -10  -1  194.76   14.95
   3 -10  -1  202.87   14.35
   3 -10   0   69.93    9.94
   3 -10   0   75.98    9.81
   3 -10   1   22.62    6.93
   3 -10   1   18.50    6.44
   3 -10   2  118.06   12.75
   3 -10   3  503.36   24.50
   3 -10   4  914.93   31.54
   3 -10   7  167.70   11.76
   3 -10   8   11.73    3.23
   3 -10   9   23.79    4.24
   3 -10  10   37.14    4.31
   3 -10  11    5.72    1.50
   3  -9  -4  478.75   17.31
   3  -9  -3  771.85   27.11
   3  -9  -3  747.91   25.98
   3  -9  -2  112.30   11.88
   3  -9  -2   97.88   11.01
   3  -9  -1   26.94    6.92
   3  -9  -1   33.69    7.27
   3  -9   0   13.10    4.99
   3  -9   0   13.42    5.34
   3  -9   1    5.18    4.02
   3  -9   1    1.52    3.39
   3  -9   2  337.26   20.73
   3  -9   2  327.52   20.05
   3  -9   3   30.64    7.03
   3  -9   4    3.75    3.01
   3  -9   6   68.64    8.36
   3  -9   7  164.57   12.57
   3  -9   8   56.15    7.32
   3  -9   9  359.84   16.74
   3  -9  10  328.62   13.92
   3  -9  11  175.58    8.28
   3  -8  -4   14.54    4.18
   3  -8  -4   18.20    4.41
   3  -8  -3   31.71    6.40
   3  -8  -3   28.46    6.76
   3  -8  -2   80.68   10.43
   3  -8  -2   72.84   10.34
   3  -8  -1  242.68   18.07
   3  -8  -1  256.87   17.78
   3  -8   0  309.42   20.28
   3  -8   0  323.01   19.60
   3  -8   1  776.59   30.44
   3  -8   1  807.99   29.98
   3  -8   2  539.55   24.60
   3  -8   2  480.80   23.81
   3  -8   3  536.64   24.11
   3  -8   5  119.25   10.95
   3  -8   6  100.17   10.14
   3  -8   7  564.21   23.96
   3  -8   8  896.57   29.29
   3  -8   9  383.35   18.15
   3  -8  10   46.33    5.70
   3  -8  11   11.86    2.50
   3  -7  -6  206.97   12.00
   3  -7  -5  162.57   13.08
   3  -7  -4   57.77    8.14
   3  -7  -4   65.35    9.34
   3  -7  -3  138.42   13.03
   3  -7  -3  137.43   13.38
   3  -7  -2  483.13   24.05
   3  -7  -2  446.04   21.97
   3  -7  -2  422.33   23.37
   3  -7  -1 1089.71   35.41
   3  -7  -1 1075.72   33.05
   3  -7   0 1365.13   38.29
   3  -7   0 1315.22   35.49
   3  -7   1  409.93   19.65
   3  -7   4    2.74    2.49
   3  -7   5    1.25    2.14
   3  -7   5    4.86    6.29
   3  -7   6  252.72   15.94
   3  -7   6  243.83   30.70
   3  -7   7    0.89    2.59
   3  -7   8   84.56    9.36
   3  -7   9    2.52    2.45
   3  -7  10   49.49    6.00
   3  -7  11  104.18    6.80
   3  -6  -7  111.63    8.84
   3  -6  -6    1.15    2.47
   3  -6  -6    3.56    3.01
   3  -6  -5   99.91   11.41
   3  -6  -4   21.07    5.40
   3  -6  -4    4.91    3.49
   3  -6  -3   36.04   12.66
   3  -6  -3   50.50    8.00
   3  -6  -3   48.27    7.29
   3  -6  -3   59.07    8.55
   3  -6  -2   31.92   11.02
   3  -6  -2   44.06    6.81
   3  -6  -2   33.60    5.67
   3  -6  -2   43.47    6.96
   3  -6  -1   63.78   13.41
   3  -6   4  778.52   47.92
   3  -6   5  654.58   46.45
   3  -6   6  720.64   25.99
   3  -6   6  794.29   53.69
   3  -6   7  143.54   11.91
   3  -6   7  133.85   23.52
   3  -6   8   40.65    6.57
   3  -6   9  210.05   13.47
   3  -6  10  357.83   15.31
   3  -6  11  402.93   12.41
   3  -5  -8   50.72    5.81
   3  -5  -8   49.27    5.67
   3  -5  -7   65.32    7.62
   3  -5  -7   69.70    8.79
   3  -5  -6  371.76   18.82
   3  -5  -6  384.79   21.88
   3  -5  -5  299.95   16.54
   3  -5  -5  323.47   20.33
   3  -5  -4  645.62   24.79
   3  -5  -4  639.18   24.29
   3  -5  -4  630.87   26.87
   3  -5  -3  593.73   24.08
   3  -5  -3  528.61   43.59
   3  -5  -2  144.81   20.52
   3  -5  -1  106.99   16.37
   3  -5   0  361.75   24.75
   3  -5   3 1129.08   38.91
   3  -5   3 1144.03   53.73
   3  -5   4  616.70   33.21
   3  -5   4  683.26   42.75
   3  -5   5   55.17   10.80
   3  -5   5   58.83   13.85
   3  -5   6   71.05    8.13
   3  -5   6   64.79   15.22
   3  -5   7  130.72   11.13
   3  -5   7  132.84   21.51
   3  -5   8   62.25    7.79
   3  -5   9    7.97    3.19
   3  -5  10    4.57    2.03
   3  -4  -9   34.21    4.68
   3  -4  -9   42.62    5.11
   3  -4  -8   59.48    7.42
   3  -4  -8   71.51    8.84
   3  -4  -7  138.76   11.96
   3  -4  -7  160.35   14.11
   3  -4  -6 1070.97   32.45
   3  -4  -6 1059.02   37.11
   3  -4  -5  871.62   27.42
   3  -4  -5  940.80   33.28
   3  -4  -5  881.68   62.17
   3  -4  -4   99.54   19.48
   3  -4  -4   96.95   10.22
   3  -4  -3   20.02    8.89
   3  -4  -2  100.46   16.11
   3  -4  -1   -1.82    3.08
   3  -4  -1    2.58    2.34
   3  -4   0  100.68    9.80
   3  -4   0  109.20   12.80
   3  -4   1  242.88   15.28
   3  -4   1  230.18   15.11
   3  -4   2  471.63   23.58
   3  -4   2  514.16   30.92
   3  -4   3  199.85   17.52
   3  -4   3  243.13   22.97
   3  -4   4  407.43   28.16
   3  -4   4  461.13   34.02
   3  -4   5  226.63   25.40
   3  -4   6  452.94   19.40
   3  -4   6  424.28   37.43
   3  -4   7  950.15   29.02
   3  -4   7  936.51   57.47
   3  -4   8  702.39   24.55
   3  -4   9  411.61   17.14
   3  -3 -10   28.68    3.89
   3  -3  -9    8.78    3.52
   3  -3  -9   10.81    4.04
   3  -3  -8    5.90    3.46
   3  -3  -8   10.78    4.80
   3  -3  -7   16.47    4.64
   3  -3  -7   21.18    6.06
   3  -3  -6   27.95   11.41
   3  -3  -6    5.83    2.99
   3  -3  -5  165.75   25.08
   3  -3  -4  287.88   30.88
   3  -3  -3 1219.16   56.10
   3  -3  -2 2053.66   51.90
   3  -3  -2 2091.75   65.23
   3  -3  -1 1723.50   42.44
   3  -3  -1 1685.54   52.42
   3  -3   0 2245.75   46.26
   3  -3   1 1147.22   34.77
   3  -3   1 1275.84   41.12
   3  -3   2  111.46   11.99
   3  -3   2  115.14   13.61
   3  -3   3  132.22   15.04
   3  -3   3  160.32   17.75
   3  -3   4  319.85   26.84
   3  -3   5  746.59   44.78
   3  -3   6  649.66   22.75
   3  -3   6  655.10   44.87
   3  -3   7  350.37   34.58
   3  -3   7  321.93   16.49
   3  -2 -10  198.46   12.00
   3  -2 -10  214.65   12.87
   3  -2  -9  394.11   19.55
   3  -2  -9  428.95   22.31
   3  -2  -8  505.67   23.42
   3  -2  -7  105.01   22.10
   3  -2  -7  112.07   11.06
   3  -2  -7  111.86   12.13
   3  -2  -6  130.77   10.99
   3  -2  -6  140.18   12.76
   3  -2  -5  185.01   24.49
   3  -2  -4  962.86   50.30
   3  -2  -3  793.23   34.94
   3  -2  -3  836.63   42.23
   3  -2  -2 1793.50   45.95
   3  -2  -1  607.82   24.52
   3  -2   0  461.49   20.98
   3  -2   1  290.32   17.91
   3  -2   1  281.32   17.59
   3  -2   2  103.93   11.93
   3  -2   2   96.10   11.78
   3  -2   3  225.35   20.03
   3  -2   4   92.07   14.35
   3  -2   5   19.23    7.85
   3  -2   6   34.44   10.65
   3  -2   7  239.99   28.59
   3  -1 -11  192.05   10.38
   3  -1 -11  194.69   10.67
   3  -1 -10  330.83   17.03
   3  -1 -10  350.24   19.04
   3  -1  -9   43.18    7.47
   3  -1  -8    4.21    3.96
   3  -1  -8   11.54    5.09
   3  -1  -7  386.34   20.03
   3  -1  -7  380.78   22.04
   3  -1  -7  334.45   17.53
   3  -1  -7  392.44   39.12
   3  -1  -6  453.03   38.66
   3  -1  -5   16.63    7.64
   3  -1  -4    4.70    5.10
   3  -1  -4    0.99    3.91
   3  -1  -3  152.16   14.64
   3  -1  -2   89.93   10.27
   3  -1  -1 4213.56   63.74
   3  -1   0  633.48   25.08
   3  -1   0  587.48   20.87
   3  -1   1 2412.99   53.49
   3  -1   1 2554.07   48.26
   3  -1   2 1522.48   46.13
   3  -1   2 1514.32   44.24
   3  -1   3  428.52   26.77
   3  -1   4 1016.92   46.22
   3  -1   5  278.47   26.62
   3  -1   6  130.71   19.76
   3   0 -12   -0.48    1.20
   3   0 -11    5.42    2.60
   3   0 -11    7.96    3.49
   3   0 -10   51.88    7.82
   3   0  -9  335.41   19.53
   3   0  -9  301.65   20.42
   3   0  -8 1414.14   39.08
   3   0  -8 1454.45   43.51
   3   0  -8 1301.84   36.00
   3   0  -8 1360.48   72.35
   3   0  -7  802.78   30.19
   3   0  -7  748.23   50.44
   3   0  -7  770.80   26.30
   3   0  -6  494.09   37.64
   3   0  -5   66.40   13.08
   3   0  -5   80.30   13.21
   3   0  -4  297.99   22.12
   3   0  -4  296.96   16.07
   3   0  -3 1361.43   41.18
   3   0  -2  133.15   11.90
   3   0  -1 3024.72   54.02
   3   0   0  905.05   30.38
   3   0   0  837.10   20.76
   3   0   1  764.56   30.51
   3   0   1  742.24   24.41
   3   0   2 1162.91   42.05
   3   0   2 1190.83   38.06
   3   0   3   42.35    8.80
   3   0   4  186.63   19.95
   3   0   5  271.12   26.88
   3   1 -12   32.69    4.38
   3   1 -12   31.62    4.53
   3   1 -11   95.09    9.14
   3   1 -10  120.67   11.59
   3   1 -10  105.20   11.92
   3   1 -10  106.66    9.92
   3   1  -9  225.04   17.67
   3   1  -9  218.25   15.25
   3   1  -8   69.12   14.39
   3   1  -8   84.01   10.42
   3   1  -8   82.36    9.05
   3   1  -7  891.73   51.84
   3   1  -6   40.06   10.70
   3   1  -5   24.41    5.54
   3   1  -5   17.11    6.89
   3   1  -4  441.89   26.13
   3   1  -4  451.28   22.54
   3   1  -3 1087.18   35.69
   3   1  -2   52.48    7.82
   3   1  -1   69.13    8.43
   3   1   0  184.22   14.67
   3   1   0  154.63    7.20
   3   1   1  208.66   16.77
   3   1   1  196.93   12.29
   3   1   2 1077.72   41.75
   3   1   2 1069.27   36.42
   3   1   3 1403.34   53.09
   3   1   3 1430.35   49.60
   3   1   4 1044.27   47.76
   3   1   5  674.30   45.32
   3   2 -12   84.06    7.49
   3   2 -11  153.39   12.15
   3   2 -11  157.90   13.17
   3   2 -11  124.08    9.78
   3   2 -10  165.95   14.66
   3   2 -10  140.13   12.15
   3   2  -9   17.07    4.63
   3   2  -9   19.96    5.76
   3   2  -8   27.05    5.88
   3   2  -8   28.52    5.44
   3   2  -8   26.83    5.61
   3   2  -7  353.52   30.51
   3   2  -5 2379.42   64.87
   3   2  -5 2270.00   58.03
   3   2  -4 2066.82   53.62
   3   2  -4 1947.63   52.52
   3   2  -3 1695.31   44.88
   3   2  -2  649.03   26.17
   3   2  -1  668.53   26.26
   3   2   0  303.35   19.01
   3   2   1  190.75   16.79
   3   2   2   85.40   12.53
   3   2   3  252.45   23.80
   3   2   4  206.60   23.88
   3   2   5  142.02   21.29
   3   3 -13  405.41   12.25
   3   3 -12  255.27   13.44
   3   3 -12  230.11   11.14
   3   3 -11  245.21   15.68
   3   3 -11  203.21   14.68
   3   3 -11  226.23   14.35
   3   3 -10  102.97   11.40
   3   3 -10   98.53   10.53
   3   3  -9  309.88   19.15
   3   3  -9  332.32   17.97
   3   3  -9  297.07   18.02
   3   3  -8  129.16   11.60
   3   3  -8  121.79   10.93
   3   3  -8  115.99   10.97
   3   3  -7   87.96   14.70
   3   3  -6  312.42   24.79
   3   3  -5  246.64   20.50
   3   3  -5  239.20   21.07
   3   3  -4  439.78   24.73
   3   3  -4  426.79   27.62
   3   3  -3   24.77    7.41
   3   3  -3   30.28    6.34
   3   3  -2  157.56   12.96
   3   3  -1  937.63   32.38
   3   3   0  169.17   14.58
   3   3   1  770.15   34.87
   3   3   2   41.48    9.10
   3   3   3    8.56    5.25
   3   4 -13   36.19    4.08
   3   4 -12   81.71    7.96
   3   4 -12   75.57    7.22
   3   4 -11    5.53    3.54
   3   4 -11    0.49    2.91
   3   4 -10    5.03    3.48
   3   4 -10    7.89    3.85
   3   4  -9 1180.15   34.82
   3   4  -9 1159.69   34.08
   3   4  -9 1100.69   34.34
   3   4  -8  342.20   18.49
   3   4  -8  299.49   17.15
   3   4  -7  128.43   17.70
   3   4  -6   31.92    9.23
   3   4  -5   18.99    7.30
   3   4  -5   22.88    6.12
   3   4  -4  600.86   28.73
   3   4  -4  578.67   34.76
   3   4  -3 1482.65   41.67
   3   4  -3 1447.03   54.62
   3   4  -2 1415.77   39.96
   3   4  -2 1338.81   52.46
   3   4  -1  851.70   31.39
   3   4  -1  843.99   41.40
   3   4   0  770.57   32.44
   3   4   0  740.07   39.47
   3   4   1  201.62   20.87
   3   5 -13   12.66    2.30
   3   5 -13   10.68    2.74
   3   5 -12  139.05   10.05
   3   5 -11  554.89   23.00
   3   5 -10  701.26   25.76
   3   5 -10  693.18   27.16
   3   5  -9  474.54   22.07
   3   5  -9  413.98   21.16
   3   5  -8  254.47   27.68
   3   5  -8  255.77   15.84
   3   5  -7   34.36    5.83
   3   5  -7   36.84   10.03
   3   5  -6  250.83   26.05
   3   5  -5  167.35   16.57
   3   5  -5  141.86   19.80
   3   5  -4  394.48   31.68
   3   5  -3   49.72   11.52
   3   5  -2  218.78   23.42
   3   5  -1   14.76    6.51
   3   5   0  239.68   24.84
   3   6 -13   21.69    3.28
   3   6 -13   18.54    3.15
   3   6 -12   80.65    7.70
   3   6 -11    1.35    3.04
   3   6 -11    4.28    2.39
   3   6 -10  141.95   11.75
   3   6 -10  132.48   11.84
   3   6  -9   45.10    7.01
   3   6  -9   59.41    8.24
   3   6  -8   -0.52    2.57
   3   6  -8   -6.49    4.88
   3   6  -7   17.52    3.95
   3   6  -7   16.77    7.93
   3   6  -6  439.83   37.09
   3   6  -5  694.52   46.26
   3   6  -4  509.14   39.20
   3   6  -3   65.03   14.84
   3   6  -2  130.36   19.68
   3   6  -1  100.88   17.57
   3   7 -13  118.27    6.87
   3   7 -13  147.61    7.85
   3   7 -12  112.04    8.80
   3   7 -11   37.24    6.03
   3   7 -11   33.00    4.97
   3   7 -10    4.17    3.00
   3   7 -10    9.38    4.04
   3   7  -9  201.99   14.09
   3   7  -8  665.87   24.96
   3   7  -7 1067.06   62.74
   3   7  -7  993.02   29.19
   3   7  -6 1010.77   60.49
   3   7  -5  370.11   36.61
   3   7  -4   76.31   16.84
   3   7  -3  184.88   25.98
   3   7  -2   45.78   13.40
   3   8 -13  133.04    6.99
   3   8 -12    5.32    2.30
   3   8 -11   16.51    3.98
   3   8 -11   17.48    3.86
   3   8 -10   18.63    4.51
   3   8 -10   23.93    4.98
   3   8  -9   31.44    5.62
   3   8  -8   62.05    7.48
   3   9 -12   63.80    4.95
   3   9 -12   99.30    6.96
   3   9 -11  268.97   13.00
   3   9 -11  316.37   14.04
   3   9 -10  334.51   16.42
   3   9 -10  320.36   15.23
   3   9  -9  100.17    8.89
   3  10 -11  101.13    7.28
   3  10 -11  135.19    7.80
   3  10 -10  138.72    9.80
   3  10 -10  138.36    8.57
   3  11 -11    3.88    1.56
   3  11 -10   35.72    4.29
   3  11  -9   71.78    6.76
   3  12  -9  223.51    9.13
   3  12  -8  183.28    8.61
   3  12  -7   28.72    3.41
   4 -12   1  207.27   11.41
   4 -12   2  339.14   15.43
   4 -12   3  258.30   13.56
   4 -12   4  160.46   10.08
   4 -12   4  155.52    9.07
   4 -11  -1   19.83    4.19
   4 -11   0   10.65    3.93
   4 -11   1   25.87    5.63
   4 -11   2    4.40    3.36
   4 -11   3   61.38    8.15
   4 -11   4  230.62   14.71
   4 -11   5  348.69   16.34
   4 -11   8  135.31    7.82
   4 -11   9   73.29    5.13
   4 -10  -3  236.49   11.41
   4 -10  -2  288.02   15.61
   4 -10  -2  297.26   15.94
   4 -10  -1  174.43   13.77
   4 -10  -1  189.38   14.29
   4 -10   0  285.64   18.69
   4 -10   0  284.67   18.32
   4 -10   1   66.99    9.88
   4 -10   1   77.61   10.15
   4 -10   2  380.49   21.85
   4 -10   3   48.91    8.13
   4 -10   4  308.85   18.16
   4 -10   5  490.24   21.46
   4 -10   6  329.69   16.39
   4 -10   7  192.80   12.28
   4 -10   8    1.24    2.09
   4 -10   9   30.49    4.22
   4 -10  10    9.41    2.10
   4  -9  -4  106.17    7.86
   4  -9  -4  109.02    8.75
   4  -9  -3  105.44    9.89
   4  -9  -3  108.37   10.70
   4  -9  -2  230.02   16.31
   4  -9  -2  243.88   16.98
   4  -9  -1  251.42   18.45
   4  -9  -1  275.35   19.13
   4  -9   0    6.83    4.15
   4  -9   0    5.52    3.45
   4  -9   1  184.93   16.08
   4  -9   1  197.55   15.87
   4  -9   2  115.20   12.58
   4  -9   2  128.62   13.01
   4  -9   3    3.83    3.00
   4  -9   5  107.38   10.49
   4  -9   6   98.55   10.08
   4  -9   7  363.10   18.67
   4  -9   8  476.20   19.75
   4  -9   9  280.90   13.64
   4  -9  10  188.63    9.36
   4  -8  -5   15.69    4.26
   4  -8  -4   34.35    5.99
   4  -8  -4   39.88    6.84
   4  -8  -3   12.67    4.58
   4  -8  -3   11.41    4.81
   4  -8  -2   72.93   10.00
   4  -8  -2   60.00    9.42
   4  -8  -1  523.02   26.20
   4  -8  -1  561.75   26.23
   4  -8   0 1234.53   39.70
   4  -8   0 1258.09   39.29
   4  -8   1  585.34   26.99
   4  -8   1  594.01   26.00
   4  -8   2  336.49   19.60
   4  -8   3  249.97   17.04
   4  -8   4  145.86   12.22
   4  -8   5  339.39   18.93
   4  -8   6  308.92   18.35
   4  -8   7  539.14   23.40
   4  -8   8  161.15   12.22
   4  -8   9  209.19   12.57
   4  -8  10   37.43    4.54
   4  -8  11    9.40    1.72
   4  -7  -6   34.38    5.73
   4  -7  -5   52.50    7.93
   4  -7  -4  163.76   13.21
   4  -7  -4  143.24   13.88
   4  -7  -3  379.15   21.21
   4  -7  -3  394.26   21.10
   4  -7  -3  375.28   22.07
   4  -7  -2  346.30   20.56
   4  -7  -2  316.77   19.00
   4  -7  -2  360.88   20.86
   4  -7  -1  542.96   25.44
   4  -7  -1  529.30   24.40
   4  -7  -1  571.43   25.11
   4  -7   0  489.32   22.33
   4  -7   0  525.68   23.09
   4  -7   1  447.24   21.53
   4  -7   1  482.26   21.13
   4  -7   2  106.46   10.57
   4  -7   2  111.13   10.58
   4  -7   3   -0.34    2.22
   4  -7   3    2.46    2.52
   4  -7   3   -1.53    2.49
   4  -7   4  203.17   14.05
   4  -7   4  220.76   14.93
   4  -7   5  173.13   13.18
   4  -7   5  160.40   12.95
   4  -7   5  175.82   26.07
   4  -7   6   20.12    4.84
   4  -7   7   61.22    8.20
   4  -7   8   33.64    6.25
   4  -7   9   86.82    8.31
   4  -7  10  178.11    9.81
   4  -6  -7   63.49    7.45
   4  -6  -6   33.60    6.81
   4  -6  -5   12.86    5.48
   4  -6  -4   78.94    9.38
   4  -6  -4   75.12    9.06
   4  -6  -4   78.53   10.53
   4  -6  -3  165.33   13.63
   4  -6  -3  142.47   12.36
   4  -6  -3  154.50   13.62
   4  -6  -2   30.78   10.88
   4  -6  -2   39.86    6.75
   4  -6  -2   41.99    6.57
   4  -6  -2   36.89    6.60
   4  -6  -1   -1.21    1.92
   4  -6  -1    4.20    2.47
   4  -6   4 1250.83   32.70
   4  -6   4 1247.07   33.11
   4  -6   4 1316.55   66.56
   4  -6   5  557.17   22.00
   4  -6   5  541.06   22.94
   4  -6   5  563.80   45.57
   4  -6   6   17.74    4.78
   4  -6   6    7.80    6.85
   4  -6   7  238.62   15.73
   4  -6   8  154.42   12.17
   4  -6   9  171.97   11.54
   4  -6  10  148.79    8.63
   4  -5  -8   18.55    4.42
   4  -5  -7  118.83   11.83
   4  -5  -6 1055.68   36.92
   4  -5  -5  815.08   28.03
   4  -5  -5  806.63   32.23
   4  -5  -4  693.59   25.73
   4  -5  -4  709.46   26.04
   4  -5  -4  665.93   27.88
   4  -5  -4  614.49   52.45
   4  -5  -3  541.32   22.57
   4  -5  -3  574.65   22.57
   4  -5  -3  583.77   24.30
   4  -5  -2   65.43   15.20
   4  -5  -1  275.35   26.49
   4  -5   3  382.13   26.55
   4  -5   3  420.47   34.18
   4  -5   4  276.83   25.41
   4  -5   4  305.40   30.44
   4  -5   5   28.10    4.89
   4  -5   5   26.26    5.21
   4  -5   5   34.50   10.04
   4  -5   5   47.05   12.98
   4  -5   6   19.55    5.04
   4  -5   6   10.61    6.43
   4  -5   6   20.00   10.24
   4  -5   7  170.09   13.16
   4  -5   8  257.50   15.27
   4  -5   9   26.79    4.55
   4  -4  -9   71.14    7.17
   4  -4  -8  120.47    9.50
   4  -4  -8  136.38   12.44
   4  -4  -7  222.49   17.15
   4  -4  -6  157.22   14.74
   4  -4  -5  119.62   23.37
   4  -4  -5  157.16   12.36
   4  -4  -5  157.80   14.05
   4  -4  -4   56.73   15.30
   4  -4  -4   62.70    7.57
   4  -4  -4   78.89    9.24
   4  -4  -3   43.69   13.59
   4  -4  -2   89.56   15.43
   4  -4  -1  605.44   29.97
   4  -4  -1  598.69   36.62
   4  -4   0  772.36   32.65
   4  -4   0  817.67   37.72
   4  -4   1   37.05    8.09
   4  -4   2   15.75    6.20
   4  -4   2   11.91    6.81
   4  -4   3  140.11   16.95
   4  -4   3  154.81   19.37
   4  -4   4  175.86   21.00
   4  -4   4  171.40   21.83
   4  -4   5 1094.56   56.07
   4  -4   5 1161.55   31.41
   4  -4   5 1246.12   62.56
   4  -4   6 1635.87   38.89
   4  -4   6 1511.75   71.05
   4  -4   6 1721.36   77.60
   4  -4   7  449.86   20.42
   4  -4   8  214.93   13.25
   4  -3 -10   34.78    4.65
   4  -3  -9   40.75    5.85
   4  -3  -9   38.12    6.64
   4  -3  -8  405.57   19.23
   4  -3  -8  413.71   23.12
   4  -3  -7   24.12    5.34
   4  -3  -7   18.20    5.55
   4  -3  -6   10.88    3.66
   4  -3  -6   12.55    5.20
   4  -3  -5   13.08    8.91
   4  -3  -5   12.92    4.08
   4  -3  -4  196.19   26.28
   4  -3  -3 1617.17   56.95
   4  -3  -3 1654.97   68.62
   4  -3  -2 2651.06   65.62
   4  -3  -2 2587.12   78.22
   4  -3  -1 1645.24   48.58
   4  -3   0  552.32   27.66
   4  -3   1  142.02   14.82
   4  -3   2  298.55   22.98
   4  -3   2  311.72   24.06
   4  -3   3  576.28   35.23
   4  -3   3  634.94   37.03
   4  -3   4  665.16   41.13
   4  -3   4  718.36   43.40
   4  -3   5  181.77   12.52
   4  -3   5  191.38   24.41
   4  -3   5  185.81   24.10
   4  -3   6   53.17    7.14
   4  -3   6   65.53   15.23
   4  -3   6   52.35   13.34
   4  -3   7  206.04   13.20
   4  -2 -10  304.47   14.03
   4  -2 -10  357.04   17.33
   4  -2  -9  368.23   18.08
   4  -2  -9  420.15   22.49
   4  -2  -8   79.81    9.28
   4  -2  -7   65.88    8.18
   4  -2  -7   64.02    7.73
   4  -2  -7   59.33    7.73
   4  -2  -6   92.25   19.38
   4  -2  -6   91.92    9.11
   4  -2  -6   85.45    8.92
   4  -2  -6   96.39    9.43
   4  -2  -5  350.60   35.16
   4  -2  -4  200.05   21.59
   4  -2  -4  227.57   26.27
   4  -2  -3  490.60   30.00
   4  -2  -2 1053.27   40.59
   4  -2  -1   97.62   11.89
   4  -2   0  147.45   14.46
   4  -2   1  110.17   13.71
   4  -2   1  106.09   12.11
   4  -2   2 1445.11   50.96
   4  -2   2 1439.32   48.49
   4  -2   3  828.87   42.41
   4  -2   3  852.98   41.50
   4  -2   4  501.71   36.48
   4  -2   4  463.41   33.53
   4  -2   5   12.51    6.92
   4  -2   5   10.98    6.45
   4  -2   6   47.46   13.12
   4  -2   6   27.30   10.19
   4  -1 -11   40.82    4.71
   4  -1 -11   44.65    5.59
   4  -1 -10    8.73    3.63
   4  -1 -10    9.08    4.09
   4  -1  -9   -0.16    2.61
   4  -1  -9    0.60    2.54
   4  -1  -8   22.23    4.95
   4  -1  -8   35.63    6.57
   4  -1  -7   88.51   19.48
   4  -1  -7   74.39    8.96
   4  -1  -7   62.04    7.80
   4  -1  -7   75.56    8.71
   4  -1  -6  319.29   34.29
   4  -1  -6  351.43   17.48
   4  -1  -5  842.40   46.37
   4  -1  -5  835.90   51.58
   4  -1  -4  357.56   27.43
   4  -1  -3  235.76   19.93
   4  -1  -2   46.97    8.91
   4  -1  -1 1286.30   41.30
   4  -1   0 2392.55   58.46
   4  -1   1 4305.43   85.16
   4  -1   1 4276.37   69.01
   4  -1   2 2487.84   68.44
   4  -1   2 2366.14   58.11
   4  -1   3  226.75   22.81
   4  -1   3  234.48   21.09
   4  -1   4   58.72   12.35
   4  -1   4   53.73   11.67
   4  -1   5   50.43   14.34
   4   0 -11  139.84    9.77
   4   0 -11  161.07   11.90
   4   0 -10   18.95    4.04
   4   0 -10   33.65    6.42
   4   0  -9  229.36   15.87
   4   0  -9  215.20   15.02
   4   0  -8  636.73   24.68
   4   0  -8  643.89   26.29
   4   0  -7 1370.24   40.14
   4   0  -7 1228.93   34.38
   4   0  -7 1295.40   69.96
   4   0  -7 1294.77   35.63
   4   0  -6 1171.48   63.10
   4   0  -5 1031.08   49.27
   4   0  -4  331.57   25.27
   4   0  -3  484.10   27.56
   4   0  -2   89.27   11.66
   4   0  -1  193.01   16.38
   4   0   0  628.80   30.55
   4   0   1  687.76   34.04
   4   0   1  614.79   23.61
   4   0   2   96.16   14.72
   4   0   2   68.61    9.54
   4   0   3  144.58   18.94
   4   0   4  108.08   17.86
   4   0   5  340.44   33.68
   4   1 -12   29.12    4.07
   4   1 -12   28.17    4.44
   4   1 -11    2.67    1.98
   4   1 -11    7.46    3.36
   4   1 -10   93.21    9.98
   4   1 -10   84.45    9.24
   4   1  -9   32.92    6.55
   4   1  -8  121.57   21.15
   4   1  -8  117.91   12.30
   4   1  -8  110.35   10.73
   4   1  -8  107.94   10.93
   4   1  -7  191.95   14.42
   4   1  -7  182.73   13.54
   4   1  -7  161.50   23.67
   4   1  -7  169.25   13.02
   4   1  -6    7.46    5.95
   4   1  -5  193.38   20.67
   4   1  -5  196.12   17.20
   4   1  -4  671.81   34.72
   4   1  -3 1095.73   41.92
   4   1  -2  588.65   28.66
   4   1  -1  320.56   21.94
   4   1   0   30.50    7.38
   4   1   1   89.57   13.20
   4   1   2  451.87   31.47
   4   1   3  950.01   49.84
   4   1   4 1220.89   60.94
   4   2 -12  118.17    8.41
   4   2 -11  177.90   12.74
   4   2 -11  163.46   11.58
   4   2 -10  198.28   14.64
   4   2  -9   64.26    9.39
   4   2  -9   48.66    7.16
   4   2  -9   61.46    8.65
   4   2  -8  177.23   24.53
   4   2  -8  161.16   13.79
   4   2  -8  173.41   13.65
   4   2  -8  158.54   13.12
   4   2  -7  153.28   12.44
   4   2  -7  150.96   22.56
   4   2  -7  139.29   11.45
   4   2  -6  266.36   26.06
   4   2  -5  591.55   35.03
   4   2  -5  608.72   33.48
   4   2  -4 2344.97   63.25
   4   2  -3 2473.54   61.90
   4   2  -2  413.74   24.79
   4   2  -1  135.99   14.39
   4   2   0   40.46    8.91
   4   2   1    8.36    5.03
   4   2   2  268.72   24.89
   4   2   3  375.53   31.99
   4   2   4  -29.35   10.35
   4   3 -13  203.48    8.38
   4   3 -13  124.08    7.22
   4   3 -12  364.54   15.54
   4   3 -12  360.12   14.47
   4   3 -11  323.83   17.12
   4   3 -10  131.12   11.20
   4   3 -10  118.46   11.61
   4   3  -9    5.21    3.07
   4   3  -9    5.57    2.91
   4   3  -8   34.49    6.54
   4   3  -8   29.43    5.91
   4   3  -8   30.74    6.01
   4   3  -7  134.55   11.69
   4   3  -7  139.78   11.47
   4   3  -6  206.56   22.56
   4   3  -6  214.03   22.15
   4   3  -5  641.52   35.83
   4   3  -5  603.71   36.98
   4   3  -4    1.61    3.30
   4   3  -4    0.27    2.71
   4   3  -3   11.67    4.86
   4   3  -2  148.14   15.12
   4   3  -1  493.05   28.10
   4   3   0  807.37   37.26
   4   3   1  690.91   37.27
   4   3   2  671.46   40.09
   4   4 -13   90.74    6.11
   4   4 -12    6.02    2.87
   4   4 -12    4.75    2.64
   4   4 -11   68.53    8.35
   4   4 -10  234.98   15.27
   4   4 -10  209.91   15.41
   4   4  -9  223.84   15.68
   4   4  -9  196.93   15.01
   4   4  -8  114.26   11.32
   4   4  -8  108.90   10.82
   4   4  -7  528.36   38.20
   4   4  -7  555.80   23.76
   4   4  -7  496.89   21.40
   4   4  -6  775.84   42.66
   4   4  -6  781.38   45.57
   4   4  -5  347.25   26.46
   4   4  -5  351.55   30.51
   4   4  -4  113.43   14.48
   4   4  -4  121.64   17.53
   4   4  -3  323.96   22.98
   4   4  -3  308.13   28.10
   4   4  -2 1321.90   45.52
   4   4  -2 1286.64   57.65
   4   4  -1 1226.01   44.96
   4   5 -13  128.66    7.47
   4   5 -13  167.67    8.04
   4   5 -12  108.74    8.86
   4   5 -11   39.86    6.42
   4   5 -11   42.92    5.81
   4   5 -10  508.45   22.65
   4   5 -10  492.22   22.76
   4   5  -9  968.11   32.74
   4   5  -9  932.55   31.62
   4   5  -8  851.98   30.58
   4   5  -8  773.67   28.04
   4   5  -7  185.94   24.08
   4   5  -7  160.84   12.16
   4   5  -6   13.43    7.18
   4   5  -6   29.98    9.07
   4   5  -5  143.80   21.22
   4   5  -4    9.51    6.07
   4   5  -3   59.47   13.38
   4   5  -2  179.68   23.40
   4   5  -1   13.56    6.83
   4   5   0   47.49   12.47
   4   6 -13   47.34    4.49
   4   6 -13   45.66    4.39
   4   6 -12   15.31    3.72
   4   6 -11   17.88    4.56
   4   6 -11   11.46    3.37
   4   6 -10  143.31   12.11
   4   6 -10  119.58   11.17
   4   6  -9   48.73    7.68
   4   6  -9   52.39    7.60
   4   6  -8  132.41   12.14
   4   6  -8  109.09   10.57
   4   6  -7  264.75   30.94
   4   6  -7  258.84   15.23
   4   6  -6  563.36   45.11
   4   6  -5  417.53   38.61
   4   6  -4  400.94   37.55
   4   6  -3  261.17   30.60
   4   6  -2  222.19   27.64
   4   6  -1  149.98   22.84
   4   7 -13   43.81    4.11
   4   7 -13   57.86    4.73
   4   7 -12  188.92    9.50
   4   7 -12  238.97   12.14
   4   7 -11  196.19   12.29
   4   7 -11  212.26   13.04
   4   7 -10  127.96   11.12
   4   7 -10  112.41   10.35
   4   7  -9   36.20    6.26
   4   7  -9   38.93    6.73
   4   7  -8  210.24   13.82
   4   7  -5  784.07   55.58
   4   7  -4   99.01   20.90
   4   8 -12   26.99    3.54
   4   8 -12   45.07    4.94
   4   8 -11    0.51    2.00
   4   8 -11   -0.44    2.00
   4   8 -10   26.81    4.97
   4   8 -10   27.80    5.44
   4   8  -9    0.72    2.46
   4   8  -9    1.59    2.98
   4   9 -12   78.91    5.36
   4   9 -12  101.17    6.17
   4   9 -11  135.95    9.06
   4   9 -11  164.19    9.16
   4   9 -10  343.47   16.11
   4   9 -10  369.15   14.79
   4   9  -9  226.50   14.10
   4  10 -11  156.44    8.36
   4  10 -10  139.44    9.13
   4  10  -9   43.10    5.66
   4  10  -8   13.56    3.81
   4  11 -10   71.28    5.39
   4  11  -9  169.63    9.06
   4  11  -8  190.67    9.83
   4  11  -7  163.60    8.91
   5 -12   1  175.79    9.51
   5 -12   2   77.60    6.85
   5 -12   3   70.43    6.45
   5 -12   4   63.40    5.77
   5 -12   4   56.47    4.73
   5 -11  -1   55.45    6.13
   5 -11   0   18.57    4.38
   5 -11   1    7.71    3.45
   5 -11   2   27.67    5.77
   5 -11   3   10.47    3.67
   5 -11   4  130.77   10.35
   5 -11   5  418.41   16.50
   5 -11   7  391.02   12.48
   5 -11   8   72.36    4.91
   5 -10  -3  436.23   15.60
   5 -10  -2  285.76   14.62
   5 -10  -2  277.49   15.24
   5 -10  -1  248.84   15.99
   5 -10  -1  266.76   16.17
   5 -10   0  223.97   16.04
   5 -10   0  238.58   16.04
   5 -10   1   46.55    7.84
   5 -10   1   45.73    7.95
   5 -10   2  191.96   15.37
   5 -10   3  177.42   14.85
   5 -10   4  308.74   18.01
   5 -10   5  226.02   13.23
   5 -10   5  256.15   14.85
   5 -10   6   57.52    6.75
   5 -10   7   30.27    4.65
   5 -10   8    2.55    1.50
   5 -10   9   16.67    2.76
   5  -9  -4  319.33   14.94
   5  -9  -3   73.97    8.05
   5  -9  -3   74.08    8.94
   5  -9  -2  151.24   12.84
   5  -9  -2  144.67   12.85
   5  -9  -1    2.61    4.27
   5  -9  -1    1.12    3.16
   5  -9   0  118.18   12.77
   5  -9   0  116.68   12.26
   5  -9   1   -2.84    3.39
   5  -9   1    0.03    2.89
   5  -9   2   99.23   11.41
   5  -9   2  106.06   11.45
   5  -9   4  141.62   12.07
   5  -9   5   80.71    9.08
   5  -9   6   33.76    6.04
   5  -9   7   49.51    6.81
   5  -9   8  307.54   14.60
   5  -9   9  494.13   15.69
   5  -9  10  380.65   10.44
   5  -8  -5   38.23    6.02
   5  -8  -4   70.74    7.60
   5  -8  -4   62.23    8.59
   5  -8  -3  119.47   11.35
   5  -8  -3   96.25   10.94
   5  -8  -2  338.93   20.41
   5  -8  -2  334.70   20.39
   5  -8  -1  126.66   12.93
   5  -8  -1  124.69   12.53
   5  -8   0  689.19   30.12
   5  -8   0  696.39   28.43
   5  -8   1  749.86   29.67
   5  -8   1  878.79   31.55
   5  -8   2  855.28   31.85
   5  -8   2  930.17   31.94
   5  -8   3  332.26   19.89
   5  -8   3  292.19   17.86
   5  -8   4   28.75    6.24
   5  -8   4   31.08    6.13
   5  -8   5    3.71    2.84
   5  -8   6   96.89   10.33
   5  -8   7  194.09   13.74
   5  -8   8  274.46   14.84
   5  -8   9  128.43    8.60
   5  -8  10    5.46    1.64
   5  -7  -6  423.99   18.79
   5  -7  -5  140.44   12.61
   5  -7  -4   35.50    6.08
   5  -7  -4   46.26    7.61
   5  -7  -4   45.02    8.24
   5  -7  -3   10.51    4.00
   5  -7  -3    6.73    4.34
   5  -7  -3    9.78    4.36
   5  -7  -2   19.53    5.70
   5  -7  -2   20.19    5.52
   5  -7  -2   12.74    4.71
   5  -7  -1  650.29   26.98
   5  -7  -1  659.04   27.19
   5  -7   0  377.96   20.30
   5  -7   0  436.35   21.01
   5  -7   0  429.68   21.25
   5  -7   1  122.80   11.79
   5  -7   1  137.73   11.69
   5  -7   1  133.93   11.90
   5  -7   2    9.10    4.52
   5  -7   2    5.77    2.63
   5  -7   2    9.93    3.76
   5  -7   3   41.46    7.08
   5  -7   3   48.58    7.40
   5  -7   4  241.19   15.98
   5  -7   4  239.84   15.92
   5  -7   5   70.37    8.52
   5  -7   5   59.70    8.63
   5  -7   6   86.43    9.84
   5  -7   7  207.78   14.47
   5  -7   8    8.57    3.02
   5  -7   9   98.63    7.81
   5  -7  10  153.26    7.07
   5  -6  -7   59.01    7.32
   5  -6  -6   43.63    7.69
   5  -6  -5   67.99    8.68
   5  -6  -5   62.03    9.34
   5  -6  -4  215.86   14.98
   5  -6  -4  189.19   14.61
   5  -6  -4  206.65   16.59
   5  -6  -3  183.69   14.55
   5  -6  -3  191.01   14.34
   5  -6  -3  198.61   15.49
   5  -6  -2   55.25    7.90
   5  -6  -2   61.62    8.47
   5  -6  -1  161.43   12.63
   5  -6  -1  191.61   13.33
   5  -6  -1  187.27   13.57
   5  -6   0   34.07    5.94
   5  -6   0   38.97    6.05
   5  -6   0   36.88    6.04
   5  -6   1  200.50   13.92
   5  -6   1  188.44   12.23
   5  -6   1  209.41   13.70
   5  -6   2  417.23   19.90
   5  -6   2  358.52   18.36
   5  -6   2  351.05   16.17
   5  -6   2  409.80   19.47
   5  -6   3 1342.20   35.70
   5  -6   3 1344.02   35.51
   5  -6   4 1211.52   33.81
   5  -6   4 1205.96   34.53
   5  -6   5  957.00   29.42
   5  -6   5  913.65   31.39
   5  -6   6  188.56   14.38
   5  -6   7   83.59    9.37
   5  -6   8   14.98    3.97
   5  -6   9   31.02    4.35
   5  -5  -8   80.91    8.07
   5  -5  -7   67.26    9.19
   5  -5  -6   78.79    8.99
   5  -5  -6   80.76   10.57
   5  -5  -5  649.63   26.66
   5  -5  -5  682.60   29.41
   5  -5  -4 1232.09   35.55
   5  -5  -4 1212.63   37.48
   5  -5  -3 1511.25   37.74
   5  -5  -3 1490.75   39.06
   5  -5  -2  143.79   22.28
   5  -5  -2  135.70   11.12
   5  -5  -2  143.95   11.62
   5  -5  -1   18.23    4.06
   5  -5   3  602.20   22.27
   5  -5   3  572.71   22.12
   5  -5   4   50.17    6.63
   5  -5   4   59.35    7.69
   5  -5   4   34.77   10.18
   5  -5   4   58.30   14.80
   5  -5   5  183.99   12.37
   5  -5   5  209.14   14.56
   5  -5   5  150.65   22.03
   5  -5   5  201.35   27.58
   5  -5   6   30.95    6.24
   5  -5   7  383.33   19.20
   5  -5   8   75.34    7.69
   5  -5   9   81.10    6.34
   5  -4  -9   36.55    5.26
   5  -4  -8   36.33    6.52
   5  -4  -7  129.78   10.39
   5  -4  -7  157.13   14.54
   5  -4  -6  318.79   17.71
   5  -4  -6  347.22   21.55
   5  -4  -5  218.64   15.12
   5  -4  -5  211.06   16.17
   5  -4  -4  115.57   22.19
   5  -4  -4   96.01   10.11
   5  -4  -4   86.87    9.92
   5  -4  -3  261.21   14.86
   5  -4  -3  264.10   15.47
   5  -4  -2  465.63   38.30
   5  -4  -1  659.06   35.86
   5  -4  -1  630.11   40.46
   5  -4   0  329.05   25.20
   5  -4   1  480.76   31.02
   5  -4   2  208.34   21.97
   5  -4   3  376.66   31.59
   5  -4   3  370.87   31.72
   5  -4   4  262.42   13.98
   5  -4   4  247.19   14.87
   5  -4   4  262.46   28.63
   5  -4   4  229.83   26.89
   5  -4   5  325.78   17.81
   5  -4   5  291.75   31.67
   5  -4   5  326.00   33.68
   5  -4   6  357.57   18.85
   5  -4   7  469.91   20.38
   5  -4   8  783.52   22.50
   5  -3 -10  108.91    7.90
   5  -3  -9   94.86    9.87
   5  -3  -8   79.86   10.54
   5  -3  -7  146.28   12.26
   5  -3  -7  151.24   14.30
   5  -3  -6  346.84   18.79
   5  -3  -6  379.91   21.84
   5  -3  -5  313.05   17.64
   5  -3  -5  339.76   19.35
   5  -3  -5  316.17   36.66
   5  -3  -4  323.31   30.27
   5  -3  -4  353.90   17.77
   5  -3  -4  355.71   18.03
   5  -3  -4  328.32   35.06
   5  -3  -3  481.90   34.02
   5  -3  -3  486.66   40.17
   5  -3  -2 1204.04   50.03
   5  -3  -1 1650.25   56.99
   5  -3   0 1478.36   52.70
   5  -3   1  239.09   22.06
   5  -3   2   10.39    5.58
   5  -3   2   -2.22    3.25
   5  -3   3  117.63   18.18
   5  -3   3  115.63   17.29
   5  -3   4   12.03    3.90
   5  -3   4   16.12    8.08
   5  -3   4   25.54    8.93
   5  -3   5  171.42   12.61
   5  -3   5  169.86   24.79
   5  -3   5  164.10   24.00
   5  -3   6  428.41   19.68
   5  -2 -10  204.73   13.05
   5  -2  -9  395.31   17.12
   5  -2  -9  463.62   23.18
   5  -2  -8  297.58   16.17
   5  -2  -8  365.71   22.34
   5  -2  -7   66.82    8.45
   5  -2  -7   57.65    8.05
   5  -2  -6    1.48    2.20
   5  -2  -6    7.72    3.42
   5  -2  -5    3.84    2.61
   5  -2  -5    5.04    5.57
   5  -2  -5   14.39    6.83
   5  -2  -5    9.76    3.62
   5  -2  -4    1.27    4.54
   5  -2  -4   -0.19    2.75
   5  -2  -3  288.56   25.45
   5  -2  -2  635.64   35.32
   5  -2  -1    4.55    3.97
   5  -2   0   46.54   10.43
   5  -2   1  539.46   33.95
   5  -2   2 1257.33   55.90
   5  -2   2 1292.21   48.80
   5  -2   3   64.73   14.25
   5  -2   3   96.86   15.06
   5  -2   4  355.28   17.16
   5  -2   4  366.19   35.19
   5  -2   5  148.39   23.45
   5  -1 -11   31.52    4.65
   5  -1 -10   45.86    5.88
   5  -1 -10   60.72    8.07
   5  -1  -9    8.14    3.42
   5  -1  -9    3.92    2.43
   5  -1  -8  309.47   17.18
   5  -1  -8  287.62   17.05
   5  -1  -8  308.85   18.09
   5  -1  -7  510.22   23.20
   5  -1  -7  544.85   49.61
   5  -1  -7  524.83   23.59
   5  -1  -6  304.12   17.93
   5  -1  -6  286.06   34.13
   5  -1  -6  281.46   16.26
   5  -1  -5  237.21   26.24
   5  -1  -5  242.70   29.83
   5  -1  -4  151.12   19.38
   5  -1  -3  319.50   25.75
   5  -1  -2 1015.71   43.86
   5  -1  -1  239.93   21.44
   5  -1   0  757.91   37.94
   5  -1   1  826.24   42.06
   5  -1   2 1472.93   60.82
   5  -1   3 1706.83   70.67
   5  -1   4  433.25   38.56
   5   0 -11   41.42    5.07
   5   0 -11   46.13    6.33
   5   0 -10  133.70   10.62
   5   0 -10  145.89   11.03
   5   0  -9  351.06   18.70
   5   0  -9  359.13   18.16
   5   0  -9  370.59   19.74
   5   0  -8  270.04   16.99
   5   0  -8  283.51   17.73
   5   0  -7  721.13   27.71
   5   0  -7  733.83   55.59
   5   0  -7  754.96   27.87
   5   0  -6  377.68   34.75
   5   0  -6  366.28   19.36
   5   0  -6  391.22   38.12
   5   0  -6  361.05   18.12
   5   0  -5  755.63   45.21
   5   0  -4  560.81   35.63
   5   0  -3   69.44   12.27
   5   0  -2  163.17   17.75
   5   0  -1   26.25    7.74
   5   0   0    4.35    4.86
   5   0   1  513.15   33.70
   5   0   2    9.18    5.55
   5   0   3  139.28   21.03
   5   0   4  452.77   39.44
   5   1 -12   57.09    4.75
   5   1 -12   55.25    5.65
   5   1 -11    2.81    2.20
   5   1 -11   -3.08    2.35
   5   1 -10    2.73    2.55
   5   1 -10    0.72    2.61
   5   1 -10    1.87    1.51
   5   1  -9    4.22    2.90
   5   1  -9    0.34    3.06
   5   1  -8  187.15   14.68
   5   1  -8  216.34   15.78
   5   1  -7    8.01    3.71
   5   1  -7   -1.29    5.60
   5   1  -7    6.48    3.41
   5   1  -6    5.35    2.95
   5   1  -6   10.09    5.76
   5   1  -6    1.48    2.91
   5   1  -5  388.12   31.60
   5   1  -5  377.86   27.44
   5   1  -4  830.74   42.94
   5   1  -3 1106.22   47.46
   5   1  -2 1251.53   48.38
   5   1  -1  955.34   42.06
   5   1   0  506.53   32.14
   5   1   1  384.65   30.00
   5   1   2  133.71   19.27
   5   1   3  302.01   30.66
   5   2 -12  124.07    7.88
   5   2 -12  146.65    8.08
   5   2 -11  367.76   16.88
   5   2 -11  383.07   17.40
   5   2 -10  225.29   14.27
   5   2 -10  239.46   15.92
   5   2  -9  227.02   15.84
   5   2  -9  260.21   17.35
   5   2  -8  242.15   16.71
   5   2  -8  274.53   33.33
   5   2  -8  249.29   16.78
   5   2  -7  170.47   24.01
   5   2  -7  152.80   13.33
   5   2  -7  156.08   12.57
   5   2  -6  421.87   34.94
   5   2  -6  409.32   20.02
   5   2  -6  417.78   18.82
   5   2  -5  639.55   39.84
   5   2  -5  685.34   40.17
   5   2  -4 1451.49   55.63
   5   2  -3  805.61   40.44
   5   2  -2  373.06   27.15
   5   2  -1   84.64   13.17
   5   2   0   60.25   11.76
   5   2   1  156.37   19.57
   5   2   2    1.44    4.41
   5   3 -12  132.37    8.74
   5   3 -12  138.79    8.84
   5   3 -11  185.41   11.20
   5   3 -11  169.62   12.28
   5   3 -10  419.26   20.18
   5   3 -10  398.27   20.89
   5   3  -9   -0.14    3.15
   5   3  -9    3.61    3.58
   5   3  -8   86.09   17.92
   5   3  -8   67.24    9.10
   5   3  -8   69.67    8.93
   5   3  -7   66.65   14.75
   5   3  -7   83.22    9.84
   5   3  -7   68.85    8.47
   5   3  -6  162.10   21.51
   5   3  -6  128.26   19.11
   5   3  -6  153.79   12.66
   5   3  -6  166.71   11.99
   5   3  -5   66.51   14.03
   5   3  -5   70.36   13.24
   5   3  -4   63.95   13.77
   5   3  -4   59.04   11.35
   5   3  -3   22.01    7.12
   5   3  -2  616.19   35.56
   5   3  -1  778.60   40.39
   5   3   0 1090.53   50.29
   5   3   1  449.37   33.68
   5   4 -12    1.16    2.14
   5   4 -12    0.78    2.19
   5   4 -11   28.99    5.47
   5   4 -11   28.00    4.82
   5   4 -10  334.05   18.42
   5   4 -10  351.82   19.25
   5   4  -9  329.99   19.45
   5   4  -9  309.90   18.51
   5   4  -8 1221.14   38.05
   5   4  -8 1160.61   34.89
   5   4  -7  653.94   45.16
   5   4  -7  657.05   45.47
   5   4  -7  703.42   27.98
   5   4  -7  653.18   25.01
   5   4  -6   37.48    5.90
   5   4  -6   30.77   10.79
   5   4  -6   41.59   11.13
   5   4  -6   30.42    6.18
   5   4  -5   14.74    7.35
   5   4  -5   24.56    8.04
   5   4  -5   27.83    5.36
   5   4  -4  192.61   20.75
   5   4  -4  188.52   24.75
   5   4  -3  783.22   40.33
   5   4  -3  773.93   49.85
   5   4  -2  839.87   41.59
   5   4  -2  771.97   49.77
   5   4   0  334.60   33.63
   5   5 -13   16.30    2.59
   5   5 -13   15.79    2.49
   5   5 -12   91.69    6.36
   5   5 -12  112.59    8.54
   5   5 -11   90.83    8.50
   5   5 -11   94.23    9.19
   5   5 -10  371.22   19.37
   5   5 -10  359.04   19.13
   5   5  -9  457.76   22.80
   5   5  -9  443.72   21.46
   5   5  -8   49.21    7.80
   5   5  -8   52.11    7.63
   5   5  -7  215.88   27.57
   5   5  -7  261.03   17.20
   5   5  -7  246.22   14.88
   5   5  -6   25.20    9.99
   5   5  -6   15.89    4.66
   5   5  -5    1.64    6.66
   5   5  -5   -0.75    3.04
   5   5  -4  142.70   23.47
   5   5  -4  137.31   10.89
   5   5  -3   40.52   12.55
   5   5  -2   15.58    8.43
   5   5  -1    8.70    7.04
   5   6 -13   16.76    2.42
   5   6 -12   48.94    4.86
   5   6 -12   48.84    5.55
   5   6 -11   22.22    4.91
   5   6 -11   22.35    4.65
   5   6 -10   35.23    6.00
   5   6 -10   38.83    6.77
   5   6  -9    6.12    3.05
   5   6  -9    2.85    2.95
   5   6  -8   29.28    5.52
   5   6  -8   18.56    5.01
   5   6  -7  299.57   18.42
   5   6  -6 1024.09   33.04
   5   6  -5 1344.43   72.89
   5   6  -4  472.49   43.80
   5   7 -12  153.42    8.29
   5   7 -12  189.29    9.78
   5   7 -11   50.80    6.18
   5   7 -11   53.44    6.22
   5   7 -10   27.42    4.97
   5   7 -10   25.85    5.07
   5   7  -9  233.80   15.59
   5   7  -9  216.30   13.39
   5   7  -8  364.57   19.78
   5   7  -7  198.65   14.76
   5   8 -12    3.82    1.57
   5   8 -12    5.78    1.87
   5   8 -11   -0.81    1.55
   5   8 -11    1.75    2.01
   5   8 -10    7.81    2.54
   5   8 -10    3.62    2.61
   5   8  -9   98.18    9.70
   5   8  -8  142.12   11.84
   5   8  -7   56.40    7.70
   5   8  -6   11.51    4.02
   5   9 -11  268.73   11.36
   5   9 -10  299.31   13.72
   5   9  -9  104.02    8.98
   5   9  -8   97.83    8.84
   5   9  -7   58.98    7.19
   5   9  -6   61.33    6.89
   5  10 -10    1.92    1.66
   5  10  -9    3.83    2.17
   5  10  -8   -0.11    1.71
   5  10  -7   23.01    3.72
   6 -11   0   19.52    3.95
   6 -11   1   13.81    3.72
   6 -11   2  142.02   10.69
   6 -11   3  180.40   11.62
   6 -11   4  140.60    9.66
   6 -11   5  267.02   11.24
   6 -10  -2  169.26   10.20
   6 -10  -2  188.72   11.48
   6 -10  -1  403.18   18.34
   6 -10  -1  451.01   19.43
   6 -10   0  105.79   10.52
   6 -10   0  105.14   10.02
   6 -10   1  172.13   13.39
   6 -10   2   10.42    4.40
   6 -10   3   18.01    4.81
   6 -10   4  113.15   10.10
   6 -10   5   87.91    7.70
   6 -10   5  106.67    8.80
   6 -10   6  160.74    9.87
   6 -10   7   17.62    3.16
   6 -10   8   66.92    4.93
   6  -9  -4   17.26    3.59
   6  -9  -3   91.01    7.97
   6  -9  -3  101.79    9.50
   6  -9  -2  118.26   10.67
   6  -9  -2  122.37   11.25
   6  -9  -1    2.33    3.19
   6  -9  -1    1.16    2.91
   6  -9   0  152.19   13.58
   6  -9   0  159.30   13.20
   6  -9   1  238.31   17.05
   6  -9   1  240.63   16.15
   6  -9   3  121.18   10.57
   6  -9   4   26.40    5.33
   6  -9   5   74.69    8.33
   6  -9   6  322.80   16.11
   6  -9   7  268.64   13.47
   6  -9   8  188.12    9.62
   6  -9   9  266.39    8.83
   6  -8  -5   22.64    4.36
   6  -8  -4   30.66    5.89
   6  -8  -3  140.08   11.59
   6  -8  -3  144.10   12.82
   6  -8  -2  155.68   13.66
   6  -8  -2  162.58   14.13
   6  -8  -1  468.19   24.27
   6  -8  -1  481.33   23.02
   6  -8   0  639.47   26.59
   6  -8   0  715.13   27.95
   6  -8   1  541.59   25.47
   6  -8   1  586.75   25.14
   6  -8   2  541.67   25.45
   6  -8   2  555.64   23.78
   6  -8   2  595.09   24.94
   6  -8   3  247.02   17.02
   6  -8   3  229.29   16.21
   6  -8   4  131.59   12.22
   6  -8   4  125.45   11.67
   6  -8   5   35.64    6.33
   6  -8   6    9.43    3.57
   6  -8   7    0.21    2.19
   6  -8   8   75.26    6.75
   6  -8   9    5.11    1.71
   6  -7  -6   76.92    7.88
   6  -7  -5   72.40    8.84
   6  -7  -4  144.60   11.21
   6  -7  -4  144.58   12.41
   6  -7  -4  149.48   13.09
   6  -7  -3   23.30    5.59
   6  -7  -3   18.18    5.45
   6  -7  -3   19.37    5.86
   6  -7  -2  131.17   12.75
   6  -7  -2  148.24   12.94
   6  -7  -2  126.14   12.26
   6  -7  -1    1.31    2.43
   6  -7  -1    7.87    3.66
   6  -7  -1    2.23    3.07
   6  -7   0    2.34    3.20
   6  -7   0    6.15    3.08
   6  -7   0    2.86    2.67
   6  -7   1   35.44    6.95
   6  -7   1   23.91    5.43
   6  -7   1   31.88    5.89
   6  -7   1   39.35    6.70
   6  -7   2    9.20    4.15
   6  -7   2    8.07    3.71
   6  -7   2    9.38    3.64
   6  -7   3  113.22   11.51
   6  -7   3  116.67   11.31
   6  -7   4  652.26   26.11
   6  -7   4  610.07   25.60
   6  -7   5  521.23   22.40
   6  -7   5  500.62   23.07
   6  -7   6  268.47   16.32
   6  -7   7   75.72    8.11
   6  -7   8   33.89    4.81
   6  -7   9   42.33    4.00
   6  -6  -7    2.46    2.16
   6  -6  -6   81.09    8.03
   6  -6  -6   74.00    9.14
   6  -6  -5  125.13   11.54
   6  -6  -5  118.61   12.03
   6  -6  -4  192.77   13.73
   6  -6  -4  217.62   15.70
   6  -6  -4  215.86   16.24
   6  -6  -3  410.10   21.35
   6  -6  -3  409.33   21.14
   6  -6  -3  370.67   20.59
   6  -6  -2  752.93   27.83
   6  -6  -2  690.08   26.97
   6  -6  -1  158.44   13.24
   6  -6  -1  178.45   13.42
   6  -6  -1  167.59   12.94
   6  -6   0  144.94   12.80
   6  -6   0  157.08   11.80
   6  -6   0  151.64   12.30
   6  -6   1  277.33   17.35
   6  -6   1  268.59   14.80
   6  -6   1  291.51   16.72
   6  -6   2  210.64   14.83
   6  -6   2  233.58   15.17
   6  -6   2  211.58   14.10
   6  -6   3  672.76   25.95
   6  -6   3  663.32   26.67
   6  -6   4  661.39   25.39
   6  -6   4  663.54   26.78
   6  -6   5  286.76   16.01
   6  -6   5  275.10   17.35
   6  -6   6  472.47   22.14
   6  -6   7    5.24    2.95
   6  -6   8    2.93    2.27
   6  -6   9    1.10    1.16
   6  -5  -8   61.38    6.80
   6  -5  -7  476.24   18.02
   6  -5  -7  509.15   22.76
   6  -5  -6  471.08   21.10
   6  -5  -6  493.94   24.30
   6  -5  -5  336.59   19.00
   6  -5  -5  320.21   19.79
   6  -5  -4  338.09   19.40
   6  -5  -4  329.15   19.30
   6  -5  -3   78.74    9.23
   6  -5  -3   78.21    9.27
   6  -5  -2  174.90   13.14
   6  -5  -2  181.22   13.17
   6  -5  -2  162.35   12.48
   6  -5  -1  375.42   19.57
   6  -5  -1  413.66   18.55
   6  -5  -1  381.22   18.34
   6  -5   0    4.88    2.83
   6  -5   0    0.09    1.84
   6  -5   0    2.95    2.64
   6  -5   1   89.93    9.34
   6  -5   1   83.62    7.73
   6  -5   2   38.98    6.21
   6  -5   3   80.75    8.78
   6  -5   3   76.79    8.82
   6  -5   4  270.08   15.44
   6  -5   4  264.19   16.81
   6  -5   5   35.59    5.72
   6  -5   5   37.90    6.76
   6  -5   6  159.93   12.78
   6  -5   7  643.45   22.74
   6  -5   8  514.10   16.42
   6  -4  -9   29.86    4.68
   6  -4  -8    9.81    4.10
   6  -4  -7   21.31    4.70
   6  -4  -7   20.39    5.56
   6  -4  -6   19.85    5.20
   6  -4  -6   20.03    5.91
   6  -4  -5   19.35    5.09
   6  -4  -5   16.38    5.56
   6  -4  -4    8.00    3.74
   6  -4  -4   10.36    4.03
   6  -4  -3   27.60   10.95
   6  -4  -3   27.49    5.47
   6  -4  -3   27.44    5.33
   6  -4  -2  113.76   10.24
   6  -4  -2  132.17   21.55
   6  -4  -2  114.90    9.66
   6  -4  -2  119.26   10.07
   6  -4  -1 1369.05   34.83
   6  -4  -1 1301.81   57.38
   6  -4  -1 1447.97   31.79
   6  -4   0 1068.55   30.24
   6  -4   0 1097.98   52.77
   6  -4   1  972.98   28.94
   6  -4   1  955.60   50.56
   6  -4   2   71.60    7.83
   6  -4   2   49.82   12.08
   6  -4   3   38.27    5.99
   6  -4   3   38.37    6.23
   6  -4   3   41.38   12.33
   6  -4   4  223.80   13.60
   6  -4   4  200.45   14.17
   6  -4   4  191.64   26.38
   6  -4   5  668.18   25.90
   6  -4   6  614.95   23.88
   6  -4   7  605.41   20.61
   6  -3 -10   79.19    6.26
   6  -3  -9  427.17   19.17
   6  -3  -8  313.39   15.47
   6  -3  -8  330.85   19.48
   6  -3  -7  180.31   13.58
   6  -3  -7  209.01   16.46
   6  -3  -6   15.68    4.94
   6  -3  -6   19.29    5.53
   6  -3  -5   70.03    8.95
   6  -3  -5   51.72    7.80
   6  -3  -4  304.86   31.46
   6  -3  -4  334.38   17.93
   6  -3  -4  301.57   16.97
   6  -3  -4  314.04   37.08
   6  -3  -3 1363.23   34.19
   6  -3  -3 1514.95   65.98
   6  -3  -3 1515.41   35.13
   6  -3  -3 1545.08   34.93
   6  -3  -3 1378.17   73.25
   6  -3  -2 1200.49   55.88
   6  -3  -1  555.74   37.37
   6  -3   0  558.76   37.73
   6  -3   1  176.04   11.66
   6  -3   1  184.06   22.18
   6  -3   2   25.95    4.81
   6  -3   2   19.35    8.02
   6  -3   3   13.21    3.80
   6  -3   3    9.15    3.01
   6  -3   4   54.25    7.49
   6  -3   5   31.67    5.50
   6  -3   6   -0.40    1.92
   6  -2 -10  295.57   14.45
   6  -2  -9  236.65   12.22
   6  -2  -9  266.52   16.58
   6  -2  -8   13.22    4.28
   6  -2  -8   25.41    6.23
   6  -2  -7    6.12    3.34
   6  -2  -7   13.20    4.55
   6  -2  -6   54.44    8.49
   6  -2  -6   60.18    8.63
   6  -2  -5    4.12    4.42
   6  -2  -5    0.29    2.73
   6  -2  -5    0.59    2.36
   6  -2  -4    1.77    2.59
   6  -2  -4    1.64    2.31
   6  -2  -3   29.17   10.07
   6  -2  -2    9.17    5.50
   6  -2  -1    7.43    4.93
   6  -2   0   84.42   15.01
   6  -2   1  549.07   38.37
   6  -2   2 1104.78   27.98
   6  -2   2 1086.84   57.15
   6  -2   3 1253.30   32.89
   6  -2   3 1205.48   63.81
   6  -2   4  531.28   21.85
   6  -1 -11    0.41    1.48
   6  -1 -10   11.13    4.13
   6  -1  -9    4.43    2.94
   6  -1  -9    2.54    3.01
   6  -1  -8   42.69    7.11
   6  -1  -8   33.81    6.50
   6  -1  -8   44.17    7.73
   6  -1  -7  559.50   24.83
   6  -1  -7  569.76   25.32
   6  -1  -6  990.11   60.89
   6  -1  -6  995.22   32.67
   6  -1  -6  962.78   66.38
   6  -1  -6  957.97   30.84
   6  -1  -5 1275.86   65.25
   6  -1  -5 1256.96   35.24
   6  -1  -5 1278.01   33.17
   6  -1  -5 1202.28   32.54
   6  -1  -4  792.38   48.50
   6  -1  -4  798.55   26.07
   6  -1  -4  862.65   25.18
   6  -1  -3   20.06    7.75
   6  -1  -2  455.82   33.30
   6  -1  -1  136.28   18.69
   6  -1   0  848.86   46.41
   6  -1   1 1222.10   57.77
   6  -1   2  405.35   16.52
   6  -1   2  411.79   35.80
   6  -1   3  116.68   20.15
   6   0 -11   40.53    5.39
   6   0 -10   31.69    4.88
   6   0 -10   30.25    5.72
   6   0  -9  135.20   11.48
   6   0  -9  153.19   12.63
   6   0  -8  588.11   25.48
   6   0  -8  600.68   25.96
   6   0  -7  444.51   22.73
   6   0  -7  406.69   21.43
   6   0  -6  417.62   38.40
   6   0  -6  425.38   21.47
   6   0  -6  406.42   19.71
   6   0  -5   85.15   16.25
   6   0  -5   94.73    9.95
   6   0  -5   95.58    9.03
   6   0  -4   32.53    9.62
   6   0  -3    8.28    5.26
   6   0  -2   30.97    8.69
   6   0  -1   13.65    6.33
   6   0   0   15.74    6.92
   6   0   1   22.26    8.22
   6   0   2   43.42   13.03
   6   1 -11    9.07    2.36
   6   1 -11   10.68    3.57
   6   1 -10    2.06    2.76
   6   1 -10    3.44    2.12
   6   1 -10   -1.44    2.13
   6   1  -9   27.11    5.89
   6   1  -9   28.60    5.82
   6   1  -8   11.01    4.18
   6   1  -8   12.59    4.60
   6   1  -7   38.66    6.89
   6   1  -7   38.79    7.53
   6   1  -6   39.90    6.42
   6   1  -6   41.18   13.11
   6   1  -6   29.78    6.19
   6   1  -5   34.74    9.68
   6   1  -5   73.59   15.81
   6   1  -5   54.24    7.72
   6   1  -5   59.04    7.30
   6   1  -4  660.56   42.42
   6   1  -3 1177.66   54.01
   6   1  -2 1237.50   56.11
   6   1  -1  777.70   43.79
   6   1   0  161.03   20.55
   6   1   1   57.19   13.76
   6   1   2  247.19   28.32
   6   2 -12   93.78    6.88
   6   2 -11  215.90   11.42
   6   2 -11  225.51   11.16
   6   2 -10  276.72   15.60
   6   2 -10  286.39   16.93
   6   2  -9  173.81   14.00
   6   2  -9  164.48   13.68
   6   2  -8  117.86   12.15
   6   2  -8   94.95   10.49
   6   2  -7  158.35   24.29
   6   2  -7  166.74   14.34
   6   2  -7  145.34   12.21
   6   2  -6   87.14   17.16
   6   2  -6  103.36   11.00
   6   2  -6   98.54    9.61
   6   2  -5  681.81   44.40
   6   2  -5  626.08   43.05
   6   2  -5  697.09   26.09
   6   2  -5  713.94   23.09
   6   2  -4  739.00   44.29
   6   2  -3  357.93   29.92
   6   2  -2  194.24   22.12
   6   2  -1   56.24   12.43
   6   2   0   69.67   13.58
   6   2   1   36.16   11.27
   6   3 -12  167.36    8.17
   6   3 -12  211.21   10.04
   6   3 -11   42.59    5.44
   6   3 -11   44.80    5.57
   6   3 -11   49.86    6.47
   6   3 -10    6.03    3.84
   6   3 -10    5.20    3.53
   6   3  -9    2.35    3.35
   6   3  -9    6.41    4.00
   6   3  -8    8.72    3.91
   6   3  -8    8.43    4.18
   6   3  -7    9.81    3.65
   6   3  -7   16.97    4.92
   6   3  -6   51.92   13.31
   6   3  -6   42.29   12.33
   6   3  -6   46.75    7.57
   6   3  -6   42.41    6.27
   6   3  -5  438.81   35.48
   6   3  -5  410.94   37.46
   6   3  -5  424.49   20.33
   6   3  -4  123.18   20.44
   6   3  -4  105.51   16.97
   6   3  -4  116.06   10.04
   6   3  -3   49.62   12.28
   6   3  -2  154.68   20.06
   6   3  -1  334.79   29.42
   6   3   0 1077.64   53.90
   6   4 -12  132.12    7.72
   6   4 -12  138.85    6.96
   6   4 -11  140.58   10.00
   6   4 -11  150.64   10.83
   6   4 -10  280.90   16.43
   6   4 -10  246.62   15.45
   6   4  -9  183.18   14.35
   6   4  -9  168.57   13.39
   6   4  -8  387.83   21.70
   6   4  -8  400.58   20.10
   6   4  -7  858.64   31.74
   6   4  -7  873.78   28.40
   6   4  -6  733.76   47.89
   6   4  -6  744.43   52.06
   6   4  -6  725.27   28.22
   6   4  -5  274.09   28.17
   6   4  -5  289.08   32.66
   6   4  -5  251.09   15.72
   6   4  -4   25.97   10.18
   6   4  -4   31.93    9.11
   6   4  -3   16.44    9.17
   6   4  -3    2.89    4.64
   6   4  -2   23.91   10.10
   6   5 -12   19.99    3.40
   6   5 -12   13.69    2.53
   6   5 -11   75.55    7.46
   6   5 -11   72.70    7.44
   6   5 -10  152.06   12.15
   6   5 -10  137.42   11.11
   6   5  -9   89.91   10.06
   6   5  -9   80.96    8.84
   6   5  -8   97.48   10.80
   6   5  -8   90.98    9.13
   6   5  -7   43.04    7.06
   6   5  -6   42.90    7.01
   6   5  -5  106.06   10.26
   6   6 -12   77.33    5.55
   6   6 -12   92.55    6.44
   6   6 -11    5.05    2.40
   6   6 -11    3.74    2.48
   6   6 -10   69.40    8.08
   6   6 -10   64.34    7.12
   6   6  -9   50.03    7.65
   6   6  -9   38.76    5.91
   6   6  -8  192.49   14.64
   6   6  -7  270.51   17.21
   6   6  -6  231.20   15.51
   6   6  -5  429.90   19.87
   6   7 -12  136.34    6.89
   6   7 -12  157.76    7.21
   6   7 -11  107.48    8.00
   6   7 -11  107.26    7.25
   6   7 -10   48.26    6.34
   6   7 -10   39.35    4.88
   6   7  -9   76.47    8.45
   6   7  -8    7.06    3.65
   6   7  -7  115.86   10.62
   6   7  -6  361.07   18.08
   6   8 -11   63.35    5.56
   6   8 -10  159.87   10.06
   6   8  -9  145.06   10.43
   6   8  -8    5.46    3.22
   6   8  -7   98.37    8.90
   6   9 -10   81.03    6.21
   6   9  -9  255.90   11.75
   6   9  -8  287.08   12.71
   6   9  -7    5.55    1.88
   7 -11   1  154.17    8.99
   7 -11   2   26.15    4.03
   7 -11   3   25.64    3.84
   7 -11   4  161.33    8.08
   7 -10  -1  275.84   13.09
   7 -10   0   13.70    3.54
   7 -10   1   42.22    6.37
   7 -10   2    5.23    3.45
   7 -10   3   18.70    4.41
   7 -10   4   15.19    3.46
   7 -10   5    4.58    1.76
   7 -10   5    2.55    1.61
   7 -10   6    1.25    1.01
   7  -9  -3    7.77    2.90
   7  -9  -2   19.24    4.30
   7  -9  -2   18.02    4.32
   7  -9  -1   57.78    7.44
   7  -9  -1   53.34    7.03
   7  -9   0   31.57    6.26
   7  -9   0   32.24    5.77
   7  -9   1  244.22   16.19
   7  -9   3  465.38   19.00
   7  -9   4  141.40   10.58
   7  -9   5   41.17    5.62
   7  -9   6   25.70    3.99
   7  -9   7   54.38    4.94
   7  -8  -5  180.04    9.92
   7  -8  -4  124.14    9.89
   7  -8  -3   84.71    8.11
   7  -8  -3   95.76    9.57
   7  -8  -2   14.11    4.42
   7  -8  -2   16.25    4.71
   7  -8  -1  412.31   21.38
   7  -8  -1  388.16   19.46
   7  -8   0  456.13   21.57
   7  -8   0  447.61   20.76
   7  -8   1  514.86   23.80
   7  -8   1  513.68   21.52
   7  -8   2  272.53   17.39
   7  -8   2  246.76   15.77
   7  -8   3   53.90    8.00
   7  -8   3   39.46    6.57
   7  -8   4   12.26    4.08
   7  -8   4   11.03    3.67
   7  -8   5    0.73    2.23
   7  -8   6    7.04    2.87
   7  -8   7    1.62    1.55
   7  -8   8    4.15    1.54
   7  -7  -6   77.96    6.96
   7  -7  -5    9.93    3.53
   7  -7  -4   35.30    6.05
   7  -7  -4   30.62    5.80
   7  -7  -3   17.47    4.42
   7  -7  -3   19.11    5.02
   7  -7  -3   18.04    4.84
   7  -7  -2   66.20    8.94
   7  -7  -2   62.98    8.25
   7  -7  -2   59.24    8.05
   7  -7  -1    5.07    2.62
   7  -7  -1    0.79    2.84
   7  -7  -1    4.50    3.32
   7  -7   0   10.20    4.50
   7  -7   0   10.72    3.70
   7  -7   0   15.53    4.14
   7  -7   0   10.17    3.97
   7  -7   1   22.39    5.85
   7  -7   1   22.61    5.16
   7  -7   1   34.09    6.32
   7  -7   2   23.10    5.63
   7  -7   2   19.45    5.20
   7  -7   3  257.63   16.64
   7  -7   3  246.52   15.98
   7  -7   4  270.71   15.97
   7  -7   4  250.66   16.13
   7  -7   5  216.29   13.25
   7  -7   5  212.45   14.47
   7  -7   6  839.48   25.41
   7  -7   7  166.93    9.96
   7  -7   8   82.96    5.37
   7  -6  -7   17.08    3.49
   7  -6  -6   24.30    4.73
   7  -6  -6   25.08    5.13
   7  -6  -5  253.41   15.19
   7  -6  -5  235.87   15.37
   7  -6  -4  507.67   22.79
   7  -6  -4  441.79   21.65
   7  -6  -3  531.29   23.54
   7  -6  -3  530.43   23.34
   7  -6  -3  520.51   23.26
   7  -6  -2  370.21   19.58
   7  -6  -2  370.47   19.09
   7  -6  -2  340.45   18.43
   7  -6  -1   53.08    8.06
   7  -6  -1   59.31    7.66
   7  -6  -1   57.22    7.84
   7  -6   0  261.76   17.27
   7  -6   0  256.17   14.70
   7  -6   0  263.22   15.55
   7  -6   1  297.62   17.98
   7  -6   1  297.32   15.06
   7  -6   2  541.30   23.67
   7  -6   2  486.89   22.57
   7  -6   3  404.05   20.07
   7  -6   3  405.47   20.58
   7  -6   4  492.08   21.35
   7  -6   4  494.43   22.68
   7  -6   5  122.08    9.83
   7  -6   5  135.63   11.55
   7  -6   6   74.79    7.84
   7  -6   7    4.85    2.28
   7  -6   8   -0.56    1.01
   7  -5  -8    9.70    2.75
   7  -5  -7   27.79    4.69
   7  -5  -7   31.35    5.74
   7  -5  -6  299.36   16.30
   7  -5  -6  269.75   16.58
   7  -5  -5  577.38   24.16
   7  -5  -5  509.71   23.46
   7  -5  -4 1063.38   32.96
   7  -5  -4  985.77   32.13
   7  -5  -3   82.99    9.59
   7  -5  -3   78.26    8.91
   7  -5  -2   16.36    4.66
   7  -5  -2    9.50    3.58
   7  -5  -2    8.40    3.30
   7  -5  -1   74.34    9.13
   7  -5  -1   71.92    7.85
   7  -5   0   12.19    3.92
   7  -5   0    7.70    2.98
   7  -5   1   -0.04    2.50
   7  -5   2   10.48    3.89
   7  -5   3   22.76    4.93
   7  -5   3   23.95    5.45
   7  -5   4  368.47   17.73
   7  -5   4  369.96   19.56
   7  -5   5   60.31    6.80
   7  -5   5   44.35    6.79
   7  -5   6   55.33    6.85
   7  -5   7   93.75    7.08
   7  -4  -8    8.44    2.62
   7  -4  -8   12.38    3.79
   7  -4  -7    6.88    3.02
   7  -4  -7    0.09    3.25
   7  -4  -6    1.66    2.91
   7  -4  -6    5.85    4.03
   7  -4  -5   18.90    5.42
   7  -4  -5   11.94    3.95
   7  -4  -4  131.09   11.77
   7  -4  -4  137.03   11.91
   7  -4  -3  380.88   19.72
   7  -4  -3  382.31   18.84
   7  -4  -3  380.84   18.56
   7  -4  -2 1093.40   33.11
   7  -4  -2 1150.84   31.20
   7  -4  -1  398.20   20.28
   7  -4  -1  383.90   16.88
   7  -4   0  350.81   18.64
   7  -4   0  339.21   33.28
   7  -4   1  485.86   21.68
   7  -4   1  458.71   38.84
   7  -4   2  549.25   22.48
   7  -4   3  339.61   17.23
   7  -4   3  354.00   18.73
   7  -4   4   57.12    6.87
   7  -4   4   42.54    7.13
   7  -4   5   29.45    5.49
   7  -4   6   90.23    8.12
   7  -3  -9  202.42   11.73
   7  -3  -8  222.63   12.91
   7  -3  -8  240.74   15.04
   7  -3  -7  235.73   15.01
   7  -3  -7  256.72   16.79
   7  -3  -6  323.00   18.56
   7  -3  -6  300.73   18.06
   7  -3  -5  173.02   13.91
   7  -3  -5  148.89   12.35
   7  -3  -4   75.53    9.11
   7  -3  -4   82.10    9.44
   7  -3  -4   88.76    9.18
   7  -3  -3  109.38   10.88
   7  -3  -3   87.90   19.57
   7  -3  -3  140.77   21.76
   7  -3  -3  103.62    9.67
   7  -3  -2  136.61   11.97
   7  -3  -2  104.95   19.99
   7  -3  -2  133.57   10.29
   7  -3  -1  931.27   29.90
   7  -3  -1  891.35   52.62
   7  -3  -1  923.83   24.63
   7  -3   0  442.16   20.51
   7  -3   0  457.70   37.92
   7  -3   1   47.29    6.63
   7  -3   1   35.59   11.45
   7  -3   2   93.28    9.03
   7  -3   3   72.38    7.77
   7  -3   3   92.17    9.70
   7  -3   4   31.36    5.76
   7  -3   5    2.28    3.28
   7  -2 -10   99.75    7.31
   7  -2  -9  156.60    9.75
   7  -2  -9  154.53   11.45
   7  -2  -8   64.15    7.79
   7  -2  -8   68.65    8.78
   7  -2  -7    9.20    4.09
   7  -2  -7    6.22    3.76
   7  -2  -6   97.33   10.67
   7  -2  -6  106.16   10.63
   7  -2  -5  324.72   18.39
   7  -2  -5  299.47   16.84
   7  -2  -4  123.05   11.04
   7  -2  -4  126.20   21.15
   7  -2  -4  134.78   11.71
   7  -2  -3  119.91   10.88
   7  -2  -3  111.19   19.24
   7  -2  -3  126.03   10.45
   7  -2  -2   11.44    3.78
   7  -2  -2   10.03    3.46
   7  -2  -1   64.72    7.82
   7  -2  -1   68.21   14.83
   7  -2   0  273.65   15.23
   7  -2   0  257.86   28.52
   7  -2   1  874.23   27.14
   7  -2   1  834.02   52.83
   7  -2   2  346.61   16.41
   7  -2   3  793.64   26.96
   7  -1 -10   18.22    2.85
   7  -1 -10   13.89    3.56
   7  -1  -9   68.28    7.27
   7  -1  -9   72.27    8.34
   7  -1  -8  259.25   16.03
   7  -1  -8  275.80   16.92
   7  -1  -7  429.07   21.79
   7  -1  -7  449.12   21.74
   7  -1  -6  381.50   20.52
   7  -1  -6  355.65   18.45
   7  -1  -5  473.93   21.94
   7  -1  -4  501.23   41.31
   7  -1  -4  497.06   21.16
   7  -1  -3  776.00   49.22
   7  -1  -3  788.61   25.14
   7  -1  -2  199.26   25.25
   7  -1  -1   50.77   12.11
   7  -1   0  145.28   11.19
   7  -1   0  156.70   22.55
   7  -1   1  416.74   18.00
   7  -1   1  417.44   37.30
   7  -1   2  533.47   19.60
   7  -1   2  563.87   22.31
   7   0 -11   71.10    5.55
   7   0 -10   79.61    6.87
   7   0 -10   85.36    8.17
   7   0  -9   43.20    6.26
   7   0  -9   57.48    7.66
   7   0  -8  125.16   11.93
   7   0  -8  137.86   12.03
   7   0  -8  122.22   11.88
   7   0  -7  111.53   11.43
   7   0  -7  115.98   11.15
   7   0  -6  525.83   24.05
   7   0  -6  533.21   22.66
   7   0  -5  358.24   35.67
   7   0  -5  356.16   19.12
   7   0  -5  379.54   18.06
   7   0  -4   67.31   14.72
   7   0  -4   58.46    7.39
   7   0  -3  186.22   23.83
   7   0  -3  174.00   11.45
   7   0  -2  423.64   35.84
   7   0  -1  323.42   31.07
   7   0   0    3.22    5.26
   7   0   1   34.10    5.12
   7   1 -11   63.68    4.93
   7   1 -11   49.36    5.13
   7   1 -10  159.22   10.62
   7   1 -10  157.77   11.14
   7   1  -9   47.33    6.93
   7   1  -9   49.23    7.05
   7   1  -9   39.43    6.25
   7   1  -8    4.63    3.19
   7   1  -8    9.05    4.62
   7   1  -7   34.73    6.44
   7   1  -7   38.67    7.41
   7   1  -6  252.69   16.76
   7   1  -6  271.36   15.90
   7   1  -5  605.48   45.34
   7   1  -5  590.12   24.15
   7   1  -5  593.37   22.00
   7   1  -4  755.44   49.14
   7   1  -4  806.75   26.54
   7   1  -3  492.81   38.96
   7   1  -2  702.81   46.99
   7   1  -1  505.85   39.12
   7   2 -11  328.99   12.40
   7   2 -11  220.51   10.50
   7   2 -10  208.21   12.89
   7   2 -10  223.88   13.58
   7   2  -9  169.97   13.40
   7   2  -9  156.92   12.74
   7   2  -8  141.61   13.06
   7   2  -8  144.05   12.35
   7   2  -7   41.55    7.49
   7   2  -7   48.25    7.19
   7   2  -6   27.87    5.25
   7   2  -6   23.38    5.63
   7   2  -5   56.62   14.56
   7   2  -5   73.09    8.74
   7   2  -5   74.77    7.61
   7   2  -4  137.91   20.94
   7   2  -4  151.59   11.33
   7   2  -3  187.80   24.34
   7   2  -2   71.46   15.56
   7   3 -11  128.46    8.45
   7   3 -11  137.13    9.14
   7   3 -10    3.18    3.11
   7   3 -10    6.35    3.57
   7   3  -9   71.35    9.21
   7   3  -9   71.68    8.55
   7   3  -8  326.31   19.48
   7   3  -8  312.31   17.43
   7   3  -7  464.97   23.05
   7   3  -7  455.47   20.27
   7   3  -6   43.05    7.41
   7   3  -6   40.44    5.78
   7   3  -5   15.67    4.52
   7   4 -11   65.31    6.20
   7   4 -11   64.59    6.26
   7   4 -10  265.12   14.82
   7   4 -10  264.15   14.24
   7   4  -9  713.56   26.89
   7   4  -9  673.15   23.99
   7   4  -8  518.18   23.86
   7   4  -8  517.23   21.09
   7   4  -7  204.89   15.07
   7   4  -7  213.47   13.03
   7   4  -6   50.67    7.69
   7   4  -5  154.05   12.02
   7   5 -11   57.64    5.81
   7   5 -11   60.88    5.72
   7   5 -10   61.55    7.37
   7   5 -10   54.04    6.30
   7   5  -9   23.28    4.28
   7   5  -9   25.57    5.55
   7   5  -8   77.97    9.20
   7   5  -7    6.21    3.27
   7   5  -6   43.61    6.85
   7   6 -11  121.84    7.81
   7   6 -11  117.18    6.77
   7   6 -10   85.32    7.91
   7   6 -10   76.52    6.30
   7   6  -9   39.31    5.98
   7   6  -8  103.12    9.80
   7   6  -7  270.84   15.53
   7   6  -6  586.51   21.78
   7   7 -11   32.90    3.77
   7   7 -10   26.55    4.21
   7   7  -9    6.36    2.73
   7   7  -8   -0.74    2.16
   7   7  -7    1.31    2.12
   7   8 -10   85.62    6.00
   7   8  -9  201.79    9.93
   7   8  -8  265.73   11.59
   8 -10   0  143.40    8.41
   8 -10   1    6.03    2.33
   8 -10   2    2.64    1.79
   8 -10   3   18.91    3.26
   8  -9  -1  149.54    9.89
   8  -9   0  267.59   14.17
   8  -9   1  395.66   17.56
   8  -9   2  465.04   18.96
   8  -9   3  145.77    9.20
   8  -9   4  176.55    9.67
   8  -9   5  227.72   10.03
   8  -9   5  233.49    9.23
   8  -8  -4   93.74    7.01
   8  -8  -3  107.94    7.22
   8  -8  -3   86.77    7.61
   8  -8  -2  190.68   11.95
   8  -8  -2  182.06   11.37
   8  -8  -1  174.40   12.45
   8  -8  -1  147.67   10.53
   8  -8   0  149.99   11.40
   8  -8   1  241.45   14.78
   8  -8   1  228.05   13.46
   8  -8   2  198.67   13.37
   8  -8   2  188.21   12.47
   8  -8   3   89.00    8.78
   8  -8   3   89.41    8.46
   8  -8   4    1.69    1.83
   8  -8   5   52.14    5.63
   8  -8   6  142.08    7.91
   8  -7  -5   49.51    5.41
   8  -7  -4    9.20    3.25
   8  -7  -4   11.81    3.24
   8  -7  -3   74.25    7.47
   8  -7  -3   77.67    8.22
   8  -7  -3   76.22    7.94
   8  -7  -2  252.25   15.16
   8  -7  -2  245.61   14.33
   8  -7  -2  254.17   14.28
   8  -7  -1   40.40    6.44
   8  -7  -1   37.22    5.83
   8  -7  -1   43.40    6.12
   8  -7  -1   43.89    6.22
   8  -7   0    4.12    2.87
   8  -7   0    4.28    2.75
   8  -7   1    4.84    3.12
   8  -7   1    3.79    2.71
   8  -7   2   81.36    9.01
   8  -7   2   81.06    8.75
   8  -7   3  552.67   21.62
   8  -7   3  510.19   21.35
   8  -7   4  481.24   18.66
   8  -7   4  464.92   19.27
   8  -7   5  226.09   12.42
   8  -7   6  215.31   10.30
   8  -6  -6   81.35    6.83
   8  -6  -6   72.64    6.66
   8  -6  -5  304.20   15.32
   8  -6  -5  263.89   14.15
   8  -6  -4  608.18   23.08
   8  -6  -4  559.93   21.64
   8  -6  -3  495.15   20.66
   8  -6  -3  543.42   22.04
   8  -6  -3  473.24   20.34
   8  -6  -2  187.92   13.68
   8  -6  -2  200.80   13.20
   8  -6  -2  187.98   12.55
   8  -6  -1  170.49   13.76
   8  -6  -1  190.28   12.39
   8  -6   0  148.01   12.85
   8  -6   0  149.97   10.48
   8  -6   1   33.29    6.46
   8  -6   1   38.10    6.76
   8  -6   2  128.05   11.15
   8  -6   2  116.51   10.80
   8  -6   3  152.80   11.63
   8  -6   3  151.28   11.82
   8  -6   4  176.09   11.44
   8  -6   4  177.84   12.53
   8  -6   5  276.73   14.06
   8  -6   6   12.76    2.83
   8  -5  -7   78.92    6.38
   8  -5  -7   72.77    6.66
   8  -5  -6   70.17    7.45
   8  -5  -6   53.48    6.63
   8  -5  -5   90.44    9.27
   8  -5  -5   76.02    8.14
   8  -5  -4   53.22    7.46
   8  -5  -4   63.35    7.69
   8  -5  -3  150.97   12.40
   8  -5  -3  155.20   12.02
   8  -5  -3  139.64   11.05
   8  -5  -2  203.75   14.99
   8  -5  -2  192.50   12.79
   8  -5  -1   65.42    8.42
   8  -5  -1   63.08    7.18
   8  -5   0  212.58   14.91
   8  -5   1  383.87   19.33
   8  -5   2   46.73    6.95
   8  -5   2   38.51    6.42
   8  -5   3    8.86    3.22
   8  -5   3   12.64    4.14
   8  -5   4    8.97    2.94
   8  -5   4   10.76    3.63
   8  -5   5   63.42    6.77
   8  -5   6  481.10   14.88
   8  -4  -8   35.82    4.04
   8  -4  -8   30.47    4.17
   8  -4  -7  158.25   10.54
   8  -4  -7  147.19   10.44
   8  -4  -6   90.89    9.16
   8  -4  -6   81.15    8.46
   8  -4  -5    4.48    3.41
   8  -4  -5   13.44    3.74
   8  -4  -4    6.30    2.93
   8  -4  -3  126.52   11.52
   8  -4  -3  118.56   10.28
   8  -4  -2  675.18   26.68
   8  -4  -2  695.54   23.37
   8  -4  -1  687.22   26.97
   8  -4  -1  695.89   21.91
   8  -4   0 1394.46   37.40
   8  -4   1  432.68   20.39
   8  -4   2  111.90    9.87
   8  -4   2  106.55   10.52
   8  -4   3   40.92    5.80
   8  -4   3   48.39    6.95
   8  -4   4  110.68    8.31
   8  -4   4  104.12    9.54
   8  -4   5  178.50   10.69
   8  -3  -8  383.75   15.22
   8  -3  -8  342.67   14.85
   8  -3  -7  115.09    9.96
   8  -3  -7  109.19    9.50
   8  -3  -6   54.88    7.65
   8  -3  -6   68.21    7.86
   8  -3  -5   19.14    4.84
   8  -3  -4  213.70   14.65
   8  -3  -4  216.37   14.33
   8  -3  -3  195.55   14.35
   8  -3  -3  179.01   12.38
   8  -3  -2  174.22   13.56
   8  -3  -2  178.61   11.55
   8  -3  -1  267.17   16.36
   8  -3   0    1.20    2.70
   8  -3   1    4.52    2.69
   8  -3   2   15.85    4.07
   8  -3   2   19.13    4.76
   8  -3   3  160.26   10.66
   8  -3   3  148.84   11.68
   8  -3   4  252.64   13.73
   8  -2  -9   24.00    3.61
   8  -2  -9   25.40    3.87
   8  -2  -8   -2.44    2.26
   8  -2  -8   -6.74    2.80
   8  -2  -7   19.36    4.84
   8  -2  -7   12.60    3.60
   8  -2  -6  106.83   10.67
   8  -2  -5  114.80   10.74
   8  -2  -5  123.06   11.21
   8  -2  -4  296.64   17.60
   8  -2  -4  319.59   17.01
   8  -2  -3  140.48   12.50
   8  -2  -3  151.45   11.09
   8  -2  -2  430.27   20.99
   8  -2  -1   83.30    9.30
   8  -2   0   49.42    7.12
   8  -2   1  404.45   18.50
   8  -2   2  611.44   21.46
   8  -2   2  684.06   24.43
   8  -2   3  758.83   24.62
   8  -1  -9   15.59    3.57
   8  -1  -9   20.89    3.80
   8  -1  -8  268.91   15.16
   8  -1  -7  319.68   17.82
   8  -1  -6  720.42   25.50
   8  -1  -6  788.50   28.49
   8  -1  -5  752.78   27.30
   8  -1  -5  827.56   28.26
   8  -1  -4   69.15    8.91
   8  -1  -4   74.15    8.27
   8  -1  -3  229.78   15.30
   8  -1  -3  232.15   13.27
   8  -1  -2   38.62    6.48
   8  -1  -1  121.26   10.73
   8  -1   0  200.99   13.17
   8  -1   1   35.13    5.46
   8   0 -10    1.60    1.43
   8   0  -9   40.52    5.51
   8   0  -8   72.80    8.57
   8   0  -7  138.22   12.42
   8   0  -6    1.77    2.83
   8   0  -5    6.87    3.40
   8   0  -4   49.57    6.88
   8   0  -1  722.78   25.46
   8   0   0  315.73   16.07
   8   0   1  159.07   10.76
   8   1 -10  157.28    9.31
   8   1  -9  136.99   10.54
   8   1  -8  195.48   13.95
   8   1  -7  125.91   11.65
   8   1  -6   10.26    3.41
   8   1  -5  146.17   11.90
   8   1  -4  499.19   19.91
   8   1   0   45.13    6.05
   8   2 -11  393.58   11.35
   8   2 -10  223.21   11.67
   8   2  -9  159.53   11.73
   8   2  -8   13.99    4.49
   8   2  -7   15.38    5.13
   8   2  -6  101.06   10.40
   8   2  -5   79.26    8.69
   8   3 -11    0.66    1.28
   8   3 -10   11.73    2.98
   8   3  -9   82.08    8.47
   8   3  -8   73.14    8.50
   8   3  -8   80.52    7.86
   8   3  -7  267.15   16.21
   8   3  -6  615.13   23.80
   8   3  -5  384.46   17.66
   8   3  -1  318.77   14.55
   8   4 -11  134.89    7.18
   8   4 -10   47.52    5.70
   8   4  -9  116.21    9.71
   8   4  -8  628.01   23.21
   8   4  -7  401.68   18.88
   8   4  -6  140.57   10.78
   8   5 -11    5.73    1.73
   8   5 -10    5.01    2.27
   8   5  -9    8.78    3.36
   8   5  -8    2.39    2.28
   8   5  -7   20.93    4.34
   8   6 -10   82.52    6.11
   8   6  -9   79.11    6.68
   8   6  -8   57.35    5.99
   8   6  -7   97.90    7.39
   8   7  -9   10.90    2.23
   8   7  -8    2.35    1.60
   9  -9   1  355.38   12.98
   9  -9   2  543.53   15.63
   9  -8  -1   65.74    6.35
   9  -8   0  250.64   12.81
   9  -8   1  128.42    8.35
   9  -8   2   54.64    5.61
   9  -8   3    0.51    1.64
   9  -8   4    4.41    1.74
   9  -7  -2   88.69    7.63
   9  -7  -1  163.51   10.81
   9  -7  -1  165.69   10.29
   9  -7   0  195.53   12.25
   9  -7   0  174.75   11.08
   9  -7   1   39.22    5.69
   9  -7   1   30.27    5.28
   9  -7   2   95.08    8.21
   9  -7   2   93.49    8.31
   9  -7   3  115.00    8.23
   9  -7   3  118.80    8.66
   9  -7   4  246.73   11.12
   9  -7   5  691.97   15.46
   9  -6  -5  152.23    9.15
   9  -6  -4  335.70   14.40
   9  -6  -3  769.32   22.47
   9  -6  -2  548.62   20.56
   9  -6  -2  507.00   19.17
   9  -6  -2  552.34   18.79
   9  -6  -1  150.31   11.32
   9  -6  -1  150.79   11.11
   9  -6   0   19.09    4.42
   9  -6   0   21.63    4.72
   9  -6   1    4.37    2.98
   9  -6   1    8.46    3.34
   9  -6   2   19.11    4.19
   9  -6   2   14.47    3.80
   9  -6   3  223.93   11.66
   9  -6   3  201.45   11.81
   9  -6   4   34.91    4.57
   9  -6   5   29.65    3.44
   9  -5  -6    3.88    2.05
   9  -5  -5  187.60   11.29
   9  -5  -4   95.23    8.30
   9  -5  -3   19.57    4.36
   9  -5  -3   17.22    3.75
   9  -5  -2  102.43    9.75
   9  -5  -2   92.72    7.87
   9  -5  -1  120.29   10.65
   9  -5   0  260.14   15.41
   9  -5   1  115.34    9.84
   9  -5   1  109.51   10.05
   9  -5   2  125.45    9.52
   9  -5   2  129.13   10.32
   9  -5   3  317.95   13.68
   9  -5   3  311.69   14.87
   9  -5   4   59.61    4.97
   9  -5   4   68.27    6.33
   9  -5   5   37.77    3.64
   9  -4  -7  144.15    8.51
   9  -4  -6   73.74    7.47
   9  -4  -5  152.71   10.78
   9  -4  -4  126.20    9.98
   9  -4  -4  125.32    9.80
   9  -4  -3  182.92   12.91
   9  -4  -3  173.79   11.15
   9  -4  -2  110.72   10.28
   9  -4  -2  122.76    8.87
   9  -4  -1  398.33   19.42
   9  -4   0  585.47   22.62
   9  -4   1  496.00   19.88
   9  -4   1  495.21   21.08
   9  -4   2  194.65   11.78
   9  -4   2  197.51   12.76
   9  -4   3   11.98    3.08
   9  -4   3    8.82    2.68
   9  -4   4    1.54    1.77
   9  -3  -8  219.70    9.60
   9  -3  -7  305.16   13.81
   9  -3  -6  122.50    9.77
   9  -3  -5    4.21    2.82
   9  -3  -4   15.79    4.58
   9  -3  -4   20.69    4.42
   9  -3  -3   -0.92    2.53
   9  -3  -3    0.30    2.15
   9  -3  -2  138.97   11.90
   9  -3  -1  103.61   10.36
   9  -3   0   63.66    7.69
   9  -3   1   69.58    7.55
   9  -3   1   70.52    7.96
   9  -3   2   95.45    8.01
   9  -3   2  115.48    9.46
   9  -3   3  241.82   12.23
   9  -2  -8   12.20    3.01
   9  -2  -7   16.51    3.95
   9  -2  -6  223.09   13.41
   9  -2  -5  427.12   19.08
   9  -2  -5  460.13   19.20
   9  -2  -4  120.03   11.34
   9  -2  -4  117.29    9.54
   9  -2  -3  356.46   19.23
   9  -2  -3  343.61   15.02
   9  -2  -2  107.67   10.51
   9  -2  -1   55.51    7.59
   9  -2   0  393.20   18.23
   9  -2   1  256.71   13.47
   9  -2   1  288.42   15.09
   9  -2   2  495.10   16.77
   9  -2   2  577.89   19.81
   9  -1  -9   82.84    5.95
   9  -1  -8  117.90    8.78
   9  -1  -7  151.09   11.05
   9  -1  -6  367.97   17.01
   9  -1  -6  408.93   18.26
   9  -1  -5  547.41   22.68
   9  -1  -5  593.59   21.67
   9  -1  -4  387.73   19.49
   9  -1  -4  383.37   16.61
   9  -1  -3   69.29    8.73
   9  -1  -2    2.00    2.53
   9  -1  -1    3.18    2.41
   9  -1   0    5.01    2.72
   9  -1   1   17.09    3.48
   9  -1   1   20.40    4.06
   9   0  -9    7.44    2.47
   9   0  -8   23.15    4.37
   9   0  -7   13.02    3.21
   9   0  -7   21.15    4.39
   9   0  -6   73.73    8.09
   9   0  -6   70.22    7.65
   9   0  -5    7.41    3.51
   9   0  -5    3.84    2.50
   9   0  -4  132.31   11.60
   9   0  -3  403.92   20.19
   9   0  -2  948.32   28.75
   9   0  -1  302.01   15.52
   9   0   0   65.51    6.88
   9   1 -10  213.67    8.46
   9   1  -9  159.26    9.45
   9   1  -8  126.52    9.45
   9   1  -7   71.00    7.35
   9   1  -7   80.66    8.08
   9   1  -6  125.94   10.85
   9   1  -6  121.80    9.75
   9   1  -5  230.13   12.74
   9   1  -3  311.67   17.10
   9   1  -2  134.27   10.65
   9   1  -1  293.67   14.43
   9   1   0  140.25    9.09
   9   2 -10   75.76    5.37
   9   2  -9  126.84    8.49
   9   2  -8   44.60    5.15
   9   2  -8   40.29    5.37
   9   2  -7    4.39    2.55
   9   2  -6   80.80    7.71
   9   2  -2   98.46    8.69
   9   2  -1  212.01   11.23
   9   3 -10    4.10    1.76
   9   3  -9   47.81    5.32
   9   3  -8  402.17   15.77
   9   3  -7  460.86   17.31
   9   3  -6  209.39   11.17
   9   3  -2  307.07   13.53
   9   4  -9  139.25    7.15
   9   4  -9  150.28    8.35
   9   4  -8  142.61    8.66
   9   4  -7   71.92    6.22
   9   4  -3  142.36    9.00
   9   5  -9   10.35    2.11
   9   5  -8    0.29    1.28
  10  -7   0   36.06    3.91
  10  -7   0   39.67    4.47
  10  -7   1   46.41    4.57
  10  -6  -2   81.56    6.31
  10  -6  -2   64.61    5.70
  10  -6  -1  221.86   11.31
  10  -6  -1  216.66   10.98
  10  -6   0  139.28    8.98
  10  -6   0  126.64    8.59
  10  -6   1    7.63    2.42
  10  -6   1    8.16    2.48
  10  -6   2   17.74    3.00
  10  -6   2   12.01    2.70
  10  -5  -4    1.07    1.23
  10  -5  -4    3.20    1.63
  10  -5  -3   13.88    2.93
  10  -5  -3   14.84    3.19
  10  -5  -3   21.21    3.30
  10  -5  -2    4.49    2.15
  10  -5  -2    5.61    2.34
  10  -5  -1   65.36    6.83
  10  -5  -1   62.81    6.71
  10  -5   0  492.71   17.76
  10  -5   0  472.23   17.83
  10  -5   1  462.57   16.09
  10  -5   1  486.55   16.75
  10  -5   2  275.48   10.94
  10  -5   2  273.72   11.69
  10  -5   3  104.55    6.16
  10  -4  -6  148.71    7.61
  10  -4  -5   88.23    6.53
  10  -4  -4   52.40    5.45
  10  -4  -4   53.96    5.25
  10  -4  -3  201.50   11.71
  10  -4  -2  231.55   13.03
  10  -4  -1  405.82   16.76
  10  -4  -1  414.47   16.97
  10  -4   0  290.97   13.68
  10  -4   0  295.71   14.03
  10  -4   1  148.06    9.07
  10  -4   1  147.08    9.48
  10  -4   2   70.89    5.50
  10  -4   2   71.58    6.07
  10  -3  -6    4.08    1.91
  10  -3  -5    5.25    1.94
  10  -3  -4    1.83    2.21
  10  -3  -4    3.25    1.76
  10  -3  -3   54.20    6.55
  10  -3  -2   16.80    4.10
  10  -3  -1   11.23    3.19
  10  -3   0    4.73    2.37
  10  -3   0    3.18    2.25
  10  -3   1    3.86    1.90
  10  -3   1    6.08    2.40
  10  -3   2   96.31    5.85
  10  -3   2  100.43    6.51
  10  -2  -7   40.75    4.36
  10  -2  -6  109.81    7.57
  10  -2  -5  480.71   17.37
  10  -2  -5  450.91   15.26
  10  -2  -4  295.90   14.86
  10  -2  -3  455.59   18.95
  10  -2  -2   83.91    8.55
  10  -2  -1   32.62    4.95
  10  -2   0   97.93    7.74
  10  -2   0  116.90    8.63
  10  -2   1  114.32    7.23
  10  -2   1  133.36    8.05
  10  -1  -7  172.57    9.06
  10  -1  -6  288.87   12.40
  10  -1  -6  291.76   12.27
  10  -1  -5   41.19    5.64
  10  -1  -5   43.71    4.85
  10  -1  -4  144.90   10.64
  10  -1  -3    6.05    3.16
  10  -1  -2   13.80    3.61
  10  -1  -1    9.53    2.95
  10  -1   0   52.71    5.35
  10  -1   0   51.67    5.35
  10   0  -8    6.17    1.99
  10   0  -7   37.51    4.39
  10   0  -6   15.30    3.60
  10   0  -6   15.73    3.22
  10   0  -5   20.43    4.30
  10   0  -4    9.32    3.36
  10   0  -3  147.31   10.74
  10   0  -2  663.17   21.13
  10   0  -1  511.74   16.89
  10   0   0  456.35   13.51
  10   1  -8  246.78    9.62
  10   1  -7   37.23    4.37
  10   1  -7   40.89    4.32
  10   1  -6   53.41    5.98
  10   1  -5   43.78    5.77
  10   1  -4  184.52   11.65
  10   1  -3  228.15   12.44
  10   1  -2  233.26   11.55
  10   1  -1   75.66    5.84
  10   2  -7    0.93    1.75
  10   2  -7    2.28    1.65
  10   2  -6   33.07    4.79
  10   2  -5   30.73    4.88
  10   2  -4  110.42    8.41
  10   2  -3   37.91    4.87
  10   2  -2   92.32    6.41
  10   3  -7  164.73    8.70
  10   3  -6  318.59   13.13
  10   3  -5  316.46   13.19
  10   3  -4  158.77    9.04
  10   3  -3    8.90    2.16
  10   4  -7   71.45    5.32
  10   4  -6   15.70    2.89
  10   4  -5    2.96    1.70
  10   4  -4   40.92    3.88
  11  -4  -2   33.50    3.89
  11  -4  -1  129.31    7.08
  11  -4  -1  125.45    7.06
  11  -3  -4   17.30    2.81
  11  -3  -3   58.70    5.07
  11  -3  -3   56.70    5.25
  11  -3  -2    3.14    1.47
  11  -3  -2    5.53    1.94
  11  -3  -1   10.14    2.27
  11  -3  -1   11.30    2.26
  11  -2  -4  405.10   12.90
  11  -2  -3  333.31   12.35
  11  -2  -2  243.64   10.38
  11  -2  -2  236.80   10.12
  11  -2  -1   66.08    5.03
  11  -1  -4  149.04    8.15
  11  -1  -3   -0.26    1.40
  11  -1  -3   -0.14    1.49
  11  -1  -2  122.77    7.03
  11   0  -5   64.94    5.07
  11   0  -4  142.38    7.89
  11   0  -3  270.98   10.41
  11   1  -4   11.62    2.24

TITL 240 in P1
REM P1 (#1 in standard setting)
CELL 1.54184   9.043741  10.807151  10.838079 116.3501 102.5485  96.6069
ZERR    8.00   0.000573   0.000551   0.000730   0.0058   0.0056   0.0047
LATT -1
SFAC C H N O P Cu I
UNIT 8.00 8.00 8.00 8.00 8.00 8.00 8.00
TREF
HKLF 4
END
_computing_structure_solution     'SHELXT 2014/4 (Sheldrick, 2014)'
;
_shelx_hkl_checksum              6477
loop_
_space_group_symop_operation_xyz
'x, y, z'
'-x, -y, -z'
loop_
_atom_site_label
_atom_site_type_symbol
_atom_site_fract_x
_atom_site_fract_y
_atom_site_fract_z
_atom_site_U_iso_or_equiv
_atom_site_adp_type
_atom_site_occupancy
_atom_site_site_symmetry_order
_atom_site_calc_flag
_atom_site_refinement_flags_posn
_atom_site_refinement_flags_adp
I1 I 0.04924(2) 0.22221(2) 0.02566(2) 0.01829(9) Uani 1 1 d . .
CU1 Cu -0.03031(6) 0.05191(6) 0.12457(6) 0.01843(13) Uani 1 1 d . .
P1 P 0.43369(10) 0.55024(10) 0.81658(9) 0.01665(19) Uani 1 1 d . .
O1 O 0.3563(3) 0.5633(3) 0.9271(3) 0.0225(6) Uani 1 1 d . .
N1 N 0.1212(3) 0.1218(4) 0.3270(3) 0.0197(6) Uani 1 1 d . .
N2 N 0.3144(3) 0.4653(4) 0.6485(3) 0.0182(6) Uani 1 1 d . .
H2 H 0.287247 0.517738 0.608371 0.022 Uiso 1 1 calc R U
N5 N 0.5196(3) 0.7001(4) 0.8285(3) 0.0191(6) Uani 1 1 d . .
H5 H 0.620275 0.712295 0.838593 0.023 Uiso 1 1 calc R U
N3 N 0.5736(3) 0.4674(4) 0.8273(3) 0.0193(6) Uani 1 1 d . .
H3 H 0.589639 0.446695 0.898250 0.023 Uiso 1 1 calc R U
N6 N 0.2435(3) 0.9270(4) 0.8391(3) 0.0189(6) Uani 1 1 d . .
N4 N 0.7441(4) 0.3989(4) 0.5296(4) 0.0216(7) Uani 1 1 d . .
C12 C 0.6707(4) 0.4251(4) 0.7390(4) 0.0186(7) Uani 1 1 d . .
C18 C 0.4550(4) 0.8104(4) 0.8249(4) 0.0181(7) Uani 1 1 d . .
C11 C 0.1354(5) 0.0319(5) 0.3813(5) 0.0261(8) Uani 1 1 d . .
H11 H 0.097212 -0.067596 0.317900 0.031 Uiso 1 1 calc R U
C8 C 0.2531(4) 0.3186(4) 0.5650(4) 0.0187(7) Uani 1 1 d . .
C17 C 0.3047(4) 0.8190(4) 0.8374(4) 0.0181(7) Uani 1 1 d . .
H17 H 0.244457 0.746125 0.844951 0.022 Uiso 1 1 calc R U
C16 C 0.8671(5) 0.3531(5) 0.5713(5) 0.0277(9) Uani 1 1 d . .
H16 H 0.935403 0.327946 0.513575 0.033 Uiso 1 1 calc R U
C7 C 0.1809(4) 0.2612(4) 0.4172(4) 0.0180(7) Uani 1 1 d . .
H7 H 0.173623 0.324543 0.378497 0.022 Uiso 1 1 calc R U
C15 C 0.8978(5) 0.3411(5) 0.6964(5) 0.0275(9) Uani 1 1 d . .
H15 H 0.986191 0.308513 0.723261 0.033 Uiso 1 1 calc R U
C19 C 0.5418(4) 0.9171(4) 0.8122(4) 0.0202(7) Uani 1 1 d . .
H19 H 0.643737 0.914377 0.803375 0.024 Uiso 1 1 calc R U
C9 C 0.2617(5) 0.2243(5) 0.6203(4) 0.0242(8) Uani 1 1 d . .
H9 H 0.306667 0.258546 0.720693 0.029 Uiso 1 1 calc R U
C14 C 0.7991(4) 0.3770(5) 0.7820(4) 0.0221(8) Uani 1 1 d . .
H14 H 0.818299 0.368989 0.867601 0.026 Uiso 1 1 calc R U
C13 C 0.6490(4) 0.4338(4) 0.6120(4) 0.0199(7) Uani 1 1 d . .
H13 H 0.561846 0.466343 0.582395 0.024 Uiso 1 1 calc R U
C20 C 0.4768(4) 1.0268(5) 0.8126(4) 0.0222(8) Uani 1 1 d . .
H20 H 0.533292 1.100357 0.803314 0.027 Uiso 1 1 calc R U
C10 C 0.2037(6) 0.0799(5) 0.5264(5) 0.0328(9) Uani 1 1 d . .
H10 H 0.210970 0.013951 0.561846 0.039 Uiso 1 1 calc R U
C21 C 0.3275(4) 1.0282(5) 0.8268(4) 0.0210(7) Uani 1 1 d . .
H21 H 0.283912 1.104435 0.827787 0.025 Uiso 1 1 calc R U
loop_
_atom_site_aniso_label
_atom_site_aniso_U_11
_atom_site_aniso_U_22
_atom_site_aniso_U_33
_atom_site_aniso_U_23
_atom_site_aniso_U_13
_atom_site_aniso_U_12
I1 0.01607(13) 0.01814(14) 0.02006(14) 0.00861(10) 0.00461(9) 0.00627(9)
CU1 0.0152(2) 0.0205(3) 0.0179(3) 0.0079(2) 0.0033(2) 0.0070(2)
P1 0.0145(4) 0.0217(5) 0.0149(4) 0.0089(4) 0.0044(3) 0.0082(3)
O1 0.0196(12) 0.0347(17) 0.0193(13) 0.0152(12) 0.0088(10) 0.0138(11)
N1 0.0147(13) 0.0237(18) 0.0196(16) 0.0098(14) 0.0038(12) 0.0064(13)
N2 0.0190(14) 0.0219(17) 0.0157(15) 0.0105(13) 0.0044(11) 0.0081(12)
N5 0.0140(13) 0.0230(17) 0.0210(15) 0.0101(14) 0.0053(11) 0.0091(12)
N3 0.0191(14) 0.0268(18) 0.0184(15) 0.0136(14) 0.0080(12) 0.0125(13)
N6 0.0164(14) 0.0222(17) 0.0170(15) 0.0087(13) 0.0032(11) 0.0079(12)
N4 0.0235(15) 0.0253(18) 0.0204(16) 0.0124(14) 0.0099(13) 0.0092(13)
C12 0.0180(16) 0.0184(19) 0.0192(17) 0.0079(15) 0.0064(14) 0.0071(14)
C18 0.0176(16) 0.0190(19) 0.0136(16) 0.0046(15) 0.0027(13) 0.0072(14)
C11 0.0272(19) 0.021(2) 0.028(2) 0.0126(18) 0.0034(16) 0.0036(16)
C8 0.0144(15) 0.024(2) 0.0195(18) 0.0106(16) 0.0078(13) 0.0085(14)
C17 0.0164(16) 0.0204(19) 0.0173(17) 0.0092(15) 0.0043(13) 0.0052(14)
C16 0.0273(19) 0.035(2) 0.030(2) 0.018(2) 0.0174(17) 0.0172(18)
C7 0.0140(15) 0.024(2) 0.0195(18) 0.0116(16) 0.0066(13) 0.0082(14)
C15 0.0251(18) 0.038(3) 0.033(2) 0.023(2) 0.0145(17) 0.0194(18)
C19 0.0177(16) 0.025(2) 0.0176(18) 0.0091(16) 0.0056(13) 0.0066(15)
C9 0.0273(19) 0.023(2) 0.0176(18) 0.0102(16) -0.0005(15) 0.0002(16)
C14 0.0201(17) 0.027(2) 0.0239(19) 0.0139(17) 0.0074(15) 0.0123(16)
C13 0.0168(16) 0.023(2) 0.0216(18) 0.0113(16) 0.0061(14) 0.0083(15)
C20 0.0222(18) 0.025(2) 0.0234(19) 0.0129(17) 0.0088(15) 0.0085(16)
C10 0.042(2) 0.029(2) 0.031(2) 0.021(2) 0.0029(19) 0.007(2)
C21 0.0195(17) 0.024(2) 0.0226(19) 0.0130(17) 0.0073(14) 0.0089(15)
loop_
_atom_type_symbol
_atom_type_description
_atom_type_scat_dispersion_real
_atom_type_scat_dispersion_imag
_atom_type_scat_source
C C 0.0181 0.0091 'International Tables Vol C Tables 4.2.6.8 and 6.1.1.4'
H H 0.0000 0.0000 'International Tables Vol C Tables 4.2.6.8 and 6.1.1.4'
N N 0.0311 0.0180 'International Tables Vol C Tables 4.2.6.8 and 6.1.1.4'
O O 0.0492 0.0322 'International Tables Vol C Tables 4.2.6.8 and 6.1.1.4'
P P 0.2955 0.4335 'International Tables Vol C Tables 4.2.6.8 and 6.1.1.4'
Cu Cu -1.9646 0.5888 'International Tables Vol C Tables 4.2.6.8 and 6.1.1.4'
I I -0.3257 6.8362 'International Tables Vol C Tables 4.2.6.8 and 6.1.1.4'
loop_
_geom_angle_atom_site_label_1
_geom_angle_atom_site_label_2
_geom_angle_atom_site_label_3
_geom_angle
_geom_angle_site_symmetry_1
_geom_angle_site_symmetry_3
CU1 I1 CU1 60.28(2) . 2
N1 CU1 N6 103.91(12) . 2_566
N1 CU1 I1 109.37(10) . .
N6 CU1 I1 108.60(9) 2_566 .
N1 CU1 I1 106.76(9) . 2
N6 CU1 I1 107.35(10) 2_566 2
I1 CU1 I1 119.72(2) . 2
N1 CU1 CU1 128.11(8) . 2
N6 CU1 CU1 127.92(9) 2_566 2
I1 CU1 CU1 60.22(2) . 2
I1 CU1 CU1 59.50(2) 2 2
O1 P1 N3 109.46(15) . .
O1 P1 N5 116.65(17) . .
N3 P1 N5 104.83(16) . .
O1 P1 N2 114.23(16) . .
N3 P1 N2 108.82(16) . .
N5 P1 N2 102.16(16) . .
C7 N1 C11 118.1(3) . .
C7 N1 CU1 120.4(2) . .
C11 N1 CU1 120.0(3) . .
C8 N2 P1 126.0(3) . .
C8 N2 H2 117.0 . .
P1 N2 H2 117.0 . .
C18 N5 P1 129.1(3) . .
C18 N5 H5 115.4 . .
P1 N5 H5 115.4 . .
C12 N3 P1 129.0(3) . .
C12 N3 H3 115.5 . .
P1 N3 H3 115.5 . .
C21 N6 C17 118.8(3) . .
C21 N6 CU1 119.2(2) . 2_566
C17 N6 CU1 121.8(3) . 2_566
C13 N4 C16 118.3(3) . .
C13 C12 C14 117.9(3) . .
C13 C12 N3 123.0(3) . .
C14 C12 N3 119.1(3) . .
C19 C18 N5 120.0(3) . .
C19 C18 C17 118.5(3) . .
N5 C18 C17 121.5(3) . .
N1 C11 C10 121.9(4) . .
N1 C11 H11 119.0 . .
C10 C11 H11 119.0 . .
C9 C8 N2 123.7(3) . .
C9 C8 C7 117.4(4) . .
N2 C8 C7 118.8(3) . .
N6 C17 C18 122.1(4) . .
N6 C17 H17 118.9 . .
C18 C17 H17 118.9 . .
N4 C16 C15 122.0(3) . .
N4 C16 H16 119.0 . .
C15 C16 H16 119.0 . .
N1 C7 C8 123.6(3) . .
N1 C7 H7 118.2 . .
C8 C7 H7 118.2 . .
C14 C15 C16 119.9(3) . .
C14 C15 H15 120.1 . .
C16 C15 H15 120.1 . .
C20 C19 C18 118.8(3) . .
C20 C19 H19 120.6 . .
C18 C19 H19 120.6 . .
C10 C9 C8 118.9(4) . .
C10 C9 H9 120.5 . .
C8 C9 H9 120.5 . .
C15 C14 C12 118.3(3) . .
C15 C14 H14 120.9 . .
C12 C14 H14 120.9 . .
N4 C13 C12 123.7(3) . .
N4 C13 H13 118.2 . .
C12 C13 H13 118.2 . .
C19 C20 C21 119.2(4) . .
C19 C20 H20 120.4 . .
C21 C20 H20 120.4 . .
C11 C10 C9 119.9(4) . .
C11 C10 H10 120.0 . .
C9 C10 H10 120.0 . .
N6 C21 C20 122.6(4) . .
N6 C21 H21 118.7 . .
C20 C21 H21 118.7 . .
loop_
_geom_bond_atom_site_label_1
_geom_bond_atom_site_label_2
_geom_bond_distance
_geom_bond_site_symmetry_2
I1 CU1 2.6145(6) .
I1 CU1 2.6338(6) 2
CU1 N1 2.061(3) .
CU1 N6 2.068(3) 2_566
CU1 I1 2.6338(6) 2
CU1 CU1 2.6355(10) 2
P1 O1 1.478(3) .
P1 N3 1.644(3) .
P1 N5 1.650(4) .
P1 N2 1.661(3) .
N1 C7 1.339(5) .
N1 C11 1.346(5) .
N2 C8 1.395(5) .
N2 H2 0.8800 .
N5 C18 1.399(5) .
N5 H5 0.8800 .
N3 C12 1.402(4) .
N3 H3 0.8800 .
N6 C21 1.332(5) .
N6 C17 1.342(5) .
N6 CU1 2.068(3) 2_566
N4 C13 1.337(5) .
N4 C16 1.340(5) .
C12 C13 1.394(5) .
C12 C14 1.398(5) .
C18 C19 1.394(6) .
C18 C17 1.404(5) .
C11 C10 1.380(6) .
C11 H11 0.9500 .
C8 C9 1.394(5) .
C8 C7 1.395(5) .
C17 H17 0.9500 .
C16 C15 1.390(6) .
C16 H16 0.9500 .
C7 H7 0.9500 .
C15 C14 1.389(5) .
C15 H15 0.9500 .
C19 C20 1.381(5) .
C19 H19 0.9500 .
C9 C10 1.384(7) .
C9 H9 0.9500 .
C14 H14 0.9500 .
C13 H13 0.9500 .
C20 C21 1.393(5) .
C20 H20 0.9500 .
C10 H10 0.9500 .
C21 H21 0.9500 .
