#------------------------------------------------------------------------------
#$Date: 2016-03-21 01:21:50 +0200 (Mon, 21 Mar 2016) $
#$Revision: 178377 $
#$URL: svn://www.crystallography.net/cod/cif/4/00/21/4002126.cif $
#------------------------------------------------------------------------------
#
# This file is available in the Crystallography Open Database (COD),
# http://www.crystallography.net/
#
# All data on this site have been placed in the public domain by the
# contributors.
#
data_4002126
loop_
_publ_author_name
'Nanthamathee, Chompoonoot'
'Ling, Sanliang'
'Slater, Ben'
'Attfield, Martin P.'
_publ_section_title
;
 Contradistinct Thermoresponsive Behavior of Isostructural MIL-53 Type
 Metal--Organic Frameworks by Modifying the Framework Inorganic Anion
;
_journal_name_full               'Chemistry of Materials'
_journal_page_first              141223143002002
_journal_paper_doi               10.1021/cm503311x
_journal_year                    2014
_chemical_formula_sum            'C8 Al F O4'
_chemical_formula_weight         206.06
_chemical_name_systematic        ' ?'
_space_group_IT_number           15
_symmetry_cell_setting           monoclinic
_symmetry_space_group_name_Hall  '-I 2b'
_symmetry_space_group_name_H-M   'I 1 1 2/b'
_audit_creation_date             2014-08-28T12:40
_audit_creation_method           'from EXP file using GSAS2CIF'
_audit_update_record
' 2014-08-28T12:40  Initial CIF as created by GSAS2CIF'
_cell_angle_alpha                90.0
_cell_angle_beta                 90.0
_cell_angle_gamma                90.5749(15)
_cell_formula_units_Z            4
_cell_length_a                   6.55277(13)
_cell_length_b                   16.4391(4)
_cell_length_c                   13.1381(4)
_cell_volume                     1415.19(6)
_computing_structure_refinement  GSAS
_diffrn_radiation_polarisn_ratio 0.95
_diffrn_radiation_probe          x-ray
_diffrn_radiation_wavelength     0.827154
_exptl_absorpt_correction_T_max  1.00000
_exptl_absorpt_correction_T_min  1.00000
_exptl_absorpt_process_details
;   GSAS Absorption/surface roughness correction: function number 0
 No correction is applied.
;
_pd_block_id                     2014-08-28T12:40|40K|Martin_Attfield|I11
_pd_calc_method                  'Rietveld Refinement'
_pd_instr_location               ' ?'
_pd_meas_2theta_range_inc        0.004
_pd_meas_2theta_range_max        150.01401
_pd_meas_2theta_range_min        0.002
_pd_meas_number_of_points        37504
_pd_phase_name                   11K
_pd_proc_2theta_range_inc        0.004
_pd_proc_2theta_range_max        150.06952
_pd_proc_2theta_range_min        0.05752
_pd_proc_info_datetime           2014-08-28T12:40:06
_pd_proc_info_excluded_regions   ' ?'
_pd_proc_ls_background_function
;   GSAS Background function number 1 with  2 terms.
 Shifted Chebyshev function of 1st kind
      1:    0.00000     2:    0.00000    
;
_pd_proc_ls_peak_cutoff          0.00050
_pd_proc_ls_profile_function
;
 CW Profile function number 4 with  21 terms
 Pseudovoigt profile coefficients as parameterized in
 P. Thompson, D.E. Cox & J.B. Hastings (1987). J. Appl. Cryst.,20,79-83.
 Asymmetry correction of L.W. Finger, D.E. Cox & A. P. Jephcoat (1994).
 J. Appl. Cryst.,27,892-900.
 Microstrain broadening by P.W. Stephens,  (1999). J. Appl. Cryst.,32,281-289.
 Peak tails are ignored  where the intensity is below 0.0005 times the peak
   Aniso. broadening axis   0.0   2.0   2.0
;
_pd_proc_ls_prof_R_factor        0.0742
_pd_proc_ls_prof_wR_expected     0.0387
_pd_proc_ls_prof_wR_factor       0.1061
_pd_proc_number_of_points        37504
_pd_spec_mounting                ' ?'
_refine_ls_goodness_of_fit_all   2.75
_refine_ls_matrix_type           full
_refine_ls_number_parameters     39
_refine_ls_number_restraints     0
_refine_ls_R_Fsqd_factor         0.23244
_refine_ls_shift/su_max          0.05
_refine_ls_shift/su_mean         0.01
_reflns_d_resolution_high        1.080
_reflns_d_resolution_low         8.219
_reflns_limit_h_max              6
_reflns_limit_h_min              -6
_reflns_limit_k_max              15
_reflns_limit_k_min              0
_reflns_limit_l_max              12
_reflns_limit_l_min              0
_reflns_number_total             489
_cod_data_source_file            alf40K.cif
_cod_data_source_block           40K_publ
_cod_depositor_comments
;
The following automatic conversions were performed:

'_geom_bond_publ_flag' value 'N' changed to 'n' according to
/home/saulius/struct/COD-crude-data--automatic-downloads/rss-feeds/ACS/lib/dictionaries/cif_core.dic
dictionary named 'cif_core.dic' version 2.4.2 from 2011-04-26 (22
times).

'_geom_angle_publ_flag' value 'N' changed to 'n' according
to
/home/saulius/struct/COD-crude-data--automatic-downloads/rss-feeds/ACS/lib/dictionaries/cif_core.dic
dictionary named 'cif_core.dic' version 2.4.2 from 2011-04-26 (26
times).

Automatic conversion script
Id: cif_fix_values 2935 2014-11-11 08:27:57Z andrius 
;
_cod_database_code               4002126
#BEGIN Tags that were not found in dictionaries:
_gsas_exptl_extinct_corr_t_min   1.00000
_gsas_exptl_extinct_corr_t_max   1.00000
#END Tags that were not found in dictionaries
loop_
_symmetry_equiv_pos_site_id
_symmetry_equiv_pos_as_xyz
1 +x,+y,+z
2 -x,-y+1/2,+z
-1 -x,-y,-z
-2 +x,+y+1/2,-z
101 +x+1/2,+y+1/2,+z+1/2
102 -x+1/2,-y,+z+1/2
-101 -x+1/2,-y+1/2,-z+1/2
-102 +x+1/2,+y,-z+1/2
loop_
_atom_site_type_symbol
_atom_site_label
_atom_site_fract_x
_atom_site_fract_y
_atom_site_fract_z
_atom_site_occupancy
_atom_site_thermal_displace_type
_atom_site_U_iso_or_equiv
_atom_site_symmetry_multiplicity
Al Al1 0.25 0.25 0.75 1.0 Uiso 0.0286(13) 4
F F 0.0 0.25 0.6896(4) 1.0 Uiso 0.0180(9) 4
O O1 0.1577(7) 0.17412(27) 0.8532(4) 1.0 Uiso 0.0180(9) 8
O O2 -0.1812(7) 0.65840(27) -0.8337(5) 1.0 Uiso 0.0180(9) 8
C C3 -0.2017(13) 0.0239(6) -0.0501(7) 1.0 Uiso 0.0178(13) 8
C C2 0.0006(16) 0.0615(5) 0.9450(6) 1.0 Uiso 0.0178(13) 8
C C1 0.0011(13) 0.1371(5) 0.8662(6) 1.0 Uiso 0.0178(13) 8
C C4 0.1957(14) 0.5416(5) -0.9750(8) 1.0 Uiso 0.0178(13) 8
loop_
_atom_type_symbol
_atom_type_number_in_cell
_atom_type_scat_dispersion_real
_atom_type_scat_dispersion_imag
_atom_type_scat_Cromer_Mann_a1
_atom_type_scat_Cromer_Mann_a2
_atom_type_scat_Cromer_Mann_a3
_atom_type_scat_Cromer_Mann_a4
_atom_type_scat_Cromer_Mann_b1
_atom_type_scat_Cromer_Mann_b2
_atom_type_scat_Cromer_Mann_b3
_atom_type_scat_Cromer_Mann_b4
_atom_type_scat_Cromer_Mann_c
_atom_type_scat_source
Al 4.0 0.000 0.000 6.42020 3.03870 1.90020 0.74260 1.59360 31.5472 1.96460
85.0886 1.11510 International_Tables_Vol_C
F 4.0 0.000 0.000 3.53920 10.2825 2.64120 4.29440 1.51700 0.26150 1.02430
26.1476 0.27760 International_Tables_Vol_C
O 16.0 0.000 0.000 3.04850 13.2771 2.28680 5.70110 1.54630 0.32390 0.86700
32.9089 0.25080 International_Tables_Vol_C
C 32.0 0.000 0.000 2.31000 20.8439 1.02000 10.2075 1.58860 0.56870 0.86500
51.6512 0.21560 International_Tables_Vol_C
loop_
_geom_angle_atom_site_label_1
_geom_angle_atom_site_label_2
_geom_angle_atom_site_label_3
_geom_angle
_geom_angle_site_symmetry_1
_geom_angle_site_symmetry_3
_geom_angle_publ_flag
F Al1 F 180.0 1_555 -101_566 n
F Al1 O1 91.71(16) 1_555 1_555 n
F Al1 O1 88.29(16) 1_555 -101_445 n
F Al1 O2 91.78(16) 1_555 -1_565 n
F Al1 O2 88.22(16) 1_555 101_546 n
F Al1 O1 88.29(16) -101_445 1_555 n
F Al1 O1 91.71(16) -101_445 -101_445 n
F Al1 O2 88.22(16) -101_445 -1_565 n
F Al1 O2 91.78(16) -101_445 101_546 n
O1 Al1 O1 180.0 1_555 -101_445 n
O1 Al1 O2 91.73(21) 1_555 -1_565 n
O1 Al1 O2 88.27(21) 1_555 101_546 n
O1 Al1 O2 88.27(21) -101_445 -1_565 n
O1 Al1 O2 91.73(21) -101_445 101_546 n
O2 Al1 O2 180.0 -1_565 101_546 n
Al1 F Al1 128.30(29) 1_555 2_555 n
Al1 O1 C1 133.4(6) 1_555 1_555 n
Al1 O2 C1 127.8(5) -1_565 -2_565 n
C2 C3 C4 108.1(8) 1_554 2_556 n
C3 C2 C1 110.4(9) 1_556 1_555 n
C3 C2 C4 136.6(7) 1_556 -2_555 n
C1 C2 C4 111.7(9) 1_555 -2_555 n
O1 C1 O2 126.2(7) 1_555 -2_444 n
O1 C1 C2 118.5(8) 1_555 1_555 n
O2 C1 C2 114.6(7) -2_555 1_555 n
C3 C4 C2 113.5(8) 2_554 -2_565 n
loop_
_geom_bond_atom_site_label_1
_geom_bond_atom_site_label_2
_geom_bond_distance
_geom_bond_site_symmetry_2
_geom_bond_publ_flag
Al1 F 1.8203(23) 1_555 n
Al1 F 1.8203(23) -101_445 n
Al1 O1 1.935(5) 1_555 n
Al1 O1 1.935(5) -101_445 n
Al1 O2 1.922(5) -1_565 n
Al1 O2 1.922(5) 101_546 n
F Al1 1.8203(23) 1_555 n
F Al1 1.8203(23) 2_555 n
O1 Al1 1.935(5) 1_555 n
O1 C1 1.199(9) 1_555 n
O2 Al1 1.922(5) -1_565 n
O2 C1 1.319(8) -2_555 n
C3 C2 1.458(10) 1_554 n
C3 C4 1.461(8) 2_556 n
C2 C3 1.458(10) 1_556 n
C2 C1 1.618(7) 1_555 n
C2 C4 1.380(10) -2_545 n
C1 O1 1.199(9) 1_555 n
C1 O2 1.319(8) -2_545 n
C1 C2 1.618(7) 1_555 n
C4 C3 1.461(8) 2_554 n
C4 C2 1.380(10) -2_555 n
loop_
_pd_meas_intensity_total
_pd_proc_ls_weight
_pd_proc_intensity_bkg_calc
_pd_calc_intensity_total
21(5) 0.0 0.0 .
20(4) 0.0 0.0 .
27(5) 0.0 0.0 .
18(4) 0.0 0.0 .
25(5) 0.0 0.0 .
27(5) 0.0 0.0 .
20(4) 0.0 0.0 .
20(4) 0.0 0.0 .
26(5) 0.0 0.0 .
20(4) 0.0 0.0 .
23(5) 0.0 0.0 .
16(4) 0.0 0.0 .
17(4) 0.0 0.0 .
22(5) 0.0 0.0 .
12.0(35) 0.0 0.00 .
15(4) 0.0 0.0 .
22(5) 0.0 0.0 .
21(5) 0.0 0.0 .
19(4) 0.0 0.0 .
19(4) 0.0 0.0 .
35(6) 0.0 0.0 .
20(4) 0.0 0.0 .
20(4) 0.0 0.0 .
21(5) 0.0 0.0 .
22(5) 0.0 0.0 .
13(4) 0.0 0.0 .
22(5) 0.0 0.0 .
32(6) 0.0 0.0 .
21(5) 0.0 0.0 .
13(4) 0.0 0.0 .
12.0(35) 0.0 0.00 .
24(5) 0.0 0.0 .
23(5) 0.0 0.0 .
18(4) 0.0 0.0 .
23(5) 0.0 0.0 .
21(5) 0.0 0.0 .
18(4) 0.0 0.0 .
21(5) 0.0 0.0 .
24(5) 0.0 0.0 .
21(5) 0.0 0.0 .
28(5) 0.0 0.0 .
17(4) 0.0 0.0 .
14(4) 0.0 0.0 .
24(5) 0.0 0.0 .
27(5) 0.0 0.0 .
14(4) 0.0 0.0 .
23(5) 0.0 0.0 .
32(6) 0.0 0.0 .
17(4) 0.0 0.0 .
20(4) 0.0 0.0 .
24(5) 0.0 0.0 .
12.0(35) 0.0 0.00 .
26(5) 0.0 0.0 .
27(5) 0.0 0.0 .
27(5) 0.0 0.0 .
16(4) 0.0 0.0 .
22(5) 0.0 0.0 .
27(5) 0.0 0.0 .
19(4) 0.0 0.0 .
28(5) 0.0 0.0 .
20(4) 0.0 0.0 .
20(4) 0.0 0.0 .
23(5) 0.0 0.0 .
18(4) 0.0 0.0 .
21(5) 0.0 0.0 .
18(4) 0.0 0.0 .
24(5) 0.0 0.0 .
19(4) 0.0 0.0 .
25(5) 0.0 0.0 .
21(5) 0.0 0.0 .
32(6) 0.0 0.0 .
17(4) 0.0 0.0 .
19(4) 0.0 0.0 .
27(5) 0.0 0.0 .
29(5) 0.0 0.0 .
33(6) 0.0 0.0 .
21(5) 0.0 0.0 .
32(6) 0.0 0.0 .
32(6) 0.0 0.0 .
23(5) 0.0 0.0 .
19(4) 0.0 0.0 .
21(5) 0.0 0.0 .
17(4) 0.0 0.0 .
21(5) 0.0 0.0 .
14(4) 0.0 0.0 .
33(6) 0.0 0.0 .
21(5) 0.0 0.0 .
31(6) 0.0 0.0 .
25(5) 0.0 0.0 .
28(5) 0.0 0.0 .
28(5) 0.0 0.0 .
18(4) 0.0 0.0 .
19(4) 0.0 0.0 .
21(5) 0.0 0.0 .
20(4) 0.0 0.0 .
33(6) 0.0 0.0 .
20(4) 0.0 0.0 .
35(6) 0.0 0.0 .
19(4) 0.0 0.0 .
20(4) 0.0 0.0 .
28(5) 0.0 0.0 .
31(6) 0.0 0.0 .
28(5) 0.0 0.0 .
31(6) 0.0 0.0 .
22(5) 0.0 0.0 .
27(5) 0.0 0.0 .
31(6) 0.0 0.0 .
50(7) 0.0 0.0 .
84(9) 0.0 0.0 .
101(10) 0.0 0.0 .
124(11) 0.0 0.0 .
173(13) 0.0 0.0 .
203(14) 0.0 0.0 .
278(17) 0.0 0.0 .
351(19) 0.0 0.0 .
425(21) 0.0 0.0 .
552(23) 0.0 0.0 .
758(28) 0.0 0.0 .
923(30) 0.0 0.0 .
1114(33) 0.0 0.0 .
1286(36) 0.0 0. .
1471(38) 0.0 0. .
1487(39) 0.0 0. .
1526(39) 0.0 0. .
1472(38) 0.0 0. .
1465(38) 0.0 0. .
1455(38) 0.0 0. .
1456(38) 0.0 0. .
1482(38) 0.0 0. .
1483(39) 0.0 0. .
1469(38) 0.0 0. .
1380(37) 0.0 0. .
1358(37) 0.0 0. .
1345(37) 0.0 0. .
1301(36) 0.0 0. .
1322(36) 0.0 0. .
1211(35) 0.0 0.0 .
1293(36) 0.0 0. .
1165(34) 0.0 0.0 .
1153(34) 0.0 0.0 .
1042(32) 0.0 0.0 .
1058(33) 0.0 0.0 .
1002(32) 0.0 0.0 .
927(30) 0.0 0.0 .
811(28) 0.0 0.0 .
873(30) 0.0 0.0 .
749(27) 0.0 0.0 .
713(27) 0.0 0.0 .
699(26) 0.0 0.0 .
691(26) 0.0 0.0 .
682(26) 0.0 0.0 .
574(24) 0.0 0.0 .
601(25) 0.0 0.0 .
596(24) 0.0 0.0 .
570(24) 0.0 0.0 .
552(23) 0.0 0.0 .
537(23) 0.0 0.0 .
540(23) 0.0 0.0 .
530(23) 0.0 0.0 .
530(23) 0.0 0.0 .
496(22) 0.0 0.0 .
536(23) 0.0 0.0 .
509(23) 0.0 0.0 .
503(22) 0.0 0.0 .
499(22) 0.0 0.0 .
491(22) 0.0 0.0 .
468(22) 0.0 0.0 .
527(23) 0.0 0.0 .
523(23) 0.0 0.0 .
532(23) 0.0 0.0 .
522(23) 0.0 0.0 .
542(23) 0.0 0.0 .
521(23) 0.0 0.0 .
527(23) 0.0 0.0 .
513(23) 0.0 0.0 .
569(24) 0.0 0.0 .
533(23) 0.0 0.0 .
531(23) 0.0 0.0 .
548(23) 0.0 0.0 .
495(22) 0.0 0.0 .
545(23) 0.0 0.0 .
544(23) 0.0 0.0 .
536(23) 0.0 0.0 .
547(23) 0.0 0.0 .
529(23) 0.0 0.0 .
570(24) 0.0 0.0 .
547(23) 0.0 0.0 .
603(25) 0.0 0.0 .
586(24) 0.0 0.0 .
588(24) 0.0 0.0 .
554(24) 0.0 0.0 .
580(24) 0.0 0.0 .
588(24) 0.0 0.0 .
645(25) 0.0 0.0 .
578(24) 0.0 0.0 .
606(25) 0.0 0.0 .
576(24) 0.0 0.0 .
648(25) 0.0 0.0 .
600(24) 0.0 0.0 .
615(25) 0.0 0.0 .
644(25) 0.0 0.0 .
644(25) 0.0 0.0 .
678(26) 0.0 0.0 .
671(26) 0.0 0.0 .
666(26) 0.0 0.0 .
671(26) 0.0 0.0 .
675(26) 0.0 0.0 .
683(26) 0.0 0.0 .
707(27) 0.0 0.0 .
674(26) 0.0 0.0 .
661(26) 0.0 0.0 .
729(27) 0.0 0.0 .
700(26) 0.0 0.0 .
676(26) 0.0 0.0 .
682(26) 0.0 0.0 .
753(27) 0.0 0.0 .
762(28) 0.0 0.0 .
763(28) 0.0 0.0 .
756(27) 0.0 0.0 .
735(27) 0.0 0.0 .
782(28) 0.0 0.0 .
824(29) 0.0 0.0 .
784(28) 0.0 0.0 .
822(29) 0.0 0.0 .
757(28) 0.0 0.0 .
859(29) 0.0 0.0 .
810(28) 0.0 0.0 .
845(29) 0.0 0.0 .
892(30) 0.0 0.0 .
867(29) 0.0 0.0 .
977(31) 0.0 0.0 .
998(32) 0.0 0.0 .
1044(32) 0.0 0.0 .
1170(34) 0.0 0.0 .
1292(36) 0.0 0. .
1423(38) 0.0 0. .
1615(40) 0.0 0. .
1891(43) 0.0 0. .
2140(46) 0.0 0. .
2323(48) 0.0 0. .
2652(51) 0.0 0. .
2934(54) 0.0 0. .
3110(56) 0.0 0. .
3605(60) 0.0 0. .
3880(62) 0.0 0. .
4338(66) 0.0 0. .
4590(68) 0.0 0. .
5013(71) 0.0 0. .
5656(75) 0.0 0. .
6120(78) 0.0 0. .
6890(83) 0.0 0. .
7599(87) 0.0 0. .
8378(92) 0.0 0. .
9180(96) 0.0 0. .
10510(100) 0.0 0. .
11660(110) 0.0 0. .
12720(110) 0.0 0. .
14170(120) 0.0 0. .
15780(130) 0.0 0. .
17100(130) 0.0 0. .
18170(140) 0.0 0. .
19580(140) 0.0 0. .
20870(140) 0.0 0. .
22170(150) 0.0 0. .
22630(150) 0.0 0. .
23760(150) 0.0 0. .
23770(150) 0.0 0. .
24640(160) 0.0 0. .
25910(160) 0.0 0. .
25020(160) 0.0 0. .
25840(160) 0.0 0. .
25630(160) 0.0 0. .
25190(160) 0.0 0. .
24690(160) 0.0 0. .
24880(160) 0.0 0. .
25170(160) 0.0 0. .
25300(160) 0.0 0. .
25420(160) 0.0 0. .
25500(160) 0.0 0. .
25440(160) 0.0 0. .
26500(160) 0.0 0. .
26010(160) 0.0 0. .
25720(160) 0.0 0. .
26360(160) 0.0 0. .
26260(160) 0.0 0. .
25710(160) 0.0 0. .
25460(160) 0.0 0. .
25890(160) 0.0 0. .
26280(160) 0.0 0. .
25860(160) 0.0 0. .
25940(160) 0.0 0. .
26570(160) 0.0 0. .
25610(160) 0.0 0. .
26130(160) 0.0 0. .
26180(160) 0.0 0. .
25780(160) 0.0 0. .
25900(160) 0.0 0. .
24570(160) 0.0 0. .
24780(160) 0.0 0. .
24130(160) 0.0 0. .
24200(160) 0.0 0. .
23850(150) 0.0 0. .
23680(150) 0.0 0. .
23540(150) 0.0 0. .
23900(160) 0.0 0. .
23030(150) 0.0 0. .
23180(150) 0.0 0. .
23230(150) 0.0 0. .
22370(150) 0.0 0. .
22100(150) 0.0 0. .
21510(150) 0.0 0. .
21180(150) 0.0 0. .
20990(150) 0.0 0. .
20490(140) 0.0 0. .
19960(140) 0.0 0. .
20570(140) 0.0 0. .
20800(140) 0.0 0. .
21350(150) 0.0 0. .
20630(140) 0.0 0. .
20590(140) 0.0 0. .
20780(140) 0.0 0. .
20430(140) 0.0 0. .
20220(140) 0.0 0. .
20160(140) 0.0 0. .
19490(140) 0.0 0. .
18710(140) 0.0 0. .
18950(140) 0.0 0. .
18450(140) 0.0 0. .
18590(140) 0.0 0. .
18350(140) 0.0 0. .
18370(140) 0.0 0. .
17830(130) 0.0 0. .
18530(140) 0.0 0. .
17960(130) 0.0 0. .
17910(130) 0.0 0. .
17400(130) 0.0 0. .
17380(130) 0.0 0. .
17500(130) 0.0 0. .
16680(130) 0.0 0. .
16950(130) 0.0 0. .
16670(130) 0.0 0. .
16320(130) 0.0 0. .
16680(130) 0.0 0. .
16340(130) 0.0 0. .
16100(130) 0.0 0. .
16130(130) 0.0 0. .
16290(130) 0.0 0. .
15780(130) 0.0 0. .
15790(130) 0.0 0. .
15510(130) 0.0 0. .
15420(120) 0.0 0. .
15270(120) 0.0 0. .
15450(120) 0.0 0. .
14910(120) 0.0 0. .
14740(120) 0.0 0. .
14810(120) 0.0 0. .
15160(120) 0.0 0. .
14710(120) 0.0 0. .
14350(120) 0.0 0. .
14240(120) 0.0 0. .
13990(120) 0.0 0. .
13580(120) 0.0 0. .
13690(120) 0.0 0. .
13670(120) 0.0 0. .
13060(110) 0.0 0. .
13110(110) 0.0 0. .
13010(110) 0.0 0. .
13280(120) 0.0 0. .
13470(120) 0.0 0. .
13370(120) 0.0 0. .
13280(120) 0.0 0. .
13380(120) 0.0 0. .
13100(110) 0.0 0. .
13310(120) 0.0 0. .
12970(110) 0.0 0. .
12690(110) 0.0 0. .
12350(110) 0.0 0. .
12190(110) 0.0 0. .
12380(110) 0.0 0. .
11800(110) 0.0 0. .
11620(110) 0.0 0. .
11900(110) 0.0 0. .
12140(110) 0.0 0. .
11670(110) 0.0 0. .
11530(110) 0.0 0. .
11730(110) 0.0 0. .
11710(110) 0.0 0. .
11660(110) 0.0 0. .
11460(110) 0.0 0. .
11380(110) 0.0 0. .
11170(110) 0.0 0. .
11290(110) 0.0 0. .
11030(110) 0.0 0. .
10990(110) 0.0 0. .
10680(100) 0.0 0. .
10390(100) 0.0 0. .
10680(100) 0.0 0. .
10830(100) 0.0 0. .
10690(100) 0.0 0. .
10170(100) 0.0 0. .
10370(100) 0.0 0. .
10560(100) 0.0 0. .
10480(100) 0.0 0. .
10560(100) 0.0 0. .
10380(100) 0.0 0. .
10250(100) 0.0 0. .
10160(100) 0.0 0. .
10270(100) 0.0 0. .
10460(100) 0.0 0. .
10300(100) 0.0 0. .
10130(100) 0.0 0. .
9765(99) 0.0 0. .
9601(98) 0.0 0. .
9512(98) 0.0 0. .
9739(99) 0.0 0. .
9755(99) 0.0 0. .
9449(97) 0.0 0. .
9578(98) 0.0 0. .
9412(97) 0.0 0. .
9374(97) 0.0 0. .
9766(99) 0.0 0. .
9362(97) 0.0 0. .
9223(96) 0.0 0. .
9467(97) 0.0 0. .
9425(97) 0.0 0. .
9570(98) 0.0 0. .
9615(98) 0.0 0. .
9407(97) 0.0 0. .
9353(97) 0.0 0. .
9057(95) 0.0 0. .
9132(96) 0.0 0. .
8926(94) 0.0 0. .
8779(94) 0.0 0. .
8901(94) 0.0 0. .
8926(94) 0.0 0. .
8798(94) 0.0 0. .
8905(94) 0.0 0. .
8781(94) 0.0 0. .
8542(92) 0.0 0. .
8645(93) 0.0 0. .
8518(92) 0.0 0. .
8813(94) 0.0 0. .
8563(93) 0.0 0. .
8645(93) 0.0 0. .
8502(92) 0.0 0. .
8387(92) 0.0 0. .
8177(90) 0.0 0. .
8032(90) 0.0 0. .
8086(90) 0.0 0. .
8254(91) 0.0 0. .
8040(90) 0.0 0. .
7799(88) 0.0 0. .
7997(89) 0.0 0. .
7920(89) 0.0 0. .
7987(89) 0.0 0. .
7998(89) 0.0 0. .
7843(89) 0.0 0. .
8030(90) 0.0 0. .
7933(89) 0.0 0. .
7803(88) 0.0 0. .
7829(88) 0.0 0. .
7688(88) 0.0 0. .
7747(88) 0.0 0. .
7540(87) 0.0 0. .
7426(86) 0.0 0. .
7445(86) 0.0 0. .
7549(87) 0.0 0. .
7337(86) 0.0 0. .
7173(85) 0.0 0. .
7343(86) 0.0 0. .
7336(86) 0.0 0. .
7317(86) 0.0 0. .
7110(84) 0.0 0. .
7208(85) 0.0 0. .
7253(85) 0.0 0. .
7277(85) 0.0 0. .
7249(85) 0.0 0. .
7351(86) 0.0 0. .
7276(85) 0.0 0. .
7062(84) 0.0 0. .
7046(84) 0.0 0. .
6777(82) 0.0 0. .
6980(84) 0.0 0. .
6701(82) 0.0 0. .
6606(81) 0.0 0. .
6625(81) 0.0 0. .
6578(81) 0.0 0. .
6530(81) 0.0 0. .
6614(81) 0.0 0. .
6457(80) 0.0 0. .
6497(81) 0.0 0. .
6519(81) 0.0 0. .
6420(80) 0.0 0. .
6655(82) 0.0 0. .
6508(81) 0.0 0. .
6481(81) 0.0 0. .
6462(80) 0.0 0. .
6361(80) 0.0 0. .
6293(79) 0.0 0. .
5943(77) 0.0 0. .
5843(76) 0.0 0. .
6089(78) 0.0 0. .
6116(78) 0.0 0. .
5758(76) 0.0 0. .
5957(77) 0.0 0. .
5917(77) 0.0 0. .
5814(76) 0.0 0. .
6024(78) 0.0 0. .
5882(77) 0.0 0. .
5965(77) 0.0 0. .
5896(77) 0.0 0. .
6071(78) 0.0 0. .
5959(77) 0.0 0. .
5762(76) 0.0 0. .
5715(76) 0.0 0. .
5578(75) 0.0 0. .
5505(74) 0.0 0. .
5444(74) 0.0 0. .
5279(73) 0.0 0. .
5251(72) 0.0 0. .
5217(72) 0.0 0. .
5311(73) 0.0 0. .
5243(72) 0.0 0. .
5173(72) 0.0 0. .
5154(72) 0.0 0. .
5002(71) 0.0 0. .
5025(71) 0.0 0. .
5100(71) 0.0 0. .
4891(70) 0.0 0. .
4937(70) 0.0 0. .
4723(69) 0.0 0. .
4511(67) 0.0 0. .
4275(65) 0.0 0. .
4245(65) 0.0 0. .
4203(65) 0.0 0. .
4098(64) 0.0 0. .
3916(63) 0.0 0. .
4044(64) 0.0 0. .
3890(62) 0.0 0. .
3951(63) 0.0 0. .
3750(61) 0.0 0. .
3725(61) 0.0 0. .
3649(60) 0.0 0. .
3621(60) 0.0 0. .
3504(59) 0.0 0. .
3747(61) 0.0 0. .
3689(61) 0.0 0. .
3729(61) 0.0 0. .
3595(60) 0.0 0. .
3597(60) 0.0 0. .
3495(59) 0.0 0. .
3354(58) 0.0 0. .
3361(58) 0.0 0. .
3343(58) 0.0 0. .
3211(57) 0.0 0. .
3114(56) 0.0 0. .
3012(55) 0.0 0. .
3067(55) 0.0 0. .
2984(55) 0.0 0. .
2926(54) 0.0 0. .
3043(55) 0.0 0. .
2976(55) 0.0 0. .
3124(56) 0.0 0. .
3149(56) 0.0 0. .
3112(56) 0.0 0. .
3062(55) 0.0 0. .
3172(56) 0.0 0. .
3053(55) 0.0 0. .
2991(55) 0.0 0. .
2844(53) 0.0 0. .
2742(52) 0.0 0. .
2676(52) 0.0 0. .
2464(50) 0.0 0. .
2606(51) 0.0 0. .
2508(50) 0.0 0. .
2530(50) 0.0 0. .
2664(52) 0.0 0. .
2575(51) 0.0 0. .
2586(51) 0.0 0. .
2457(50) 0.0 0. .
2496(50) 0.0 0. .
2397(49) 0.0 0. .
2459(50) 0.0 0. .
2253(47) 0.0 0. .
2190(47) 0.0 0. .
2160(46) 0.0 0. .
2087(46) 0.0 0. .
2060(45) 0.0 0. .
2053(45) 0.0 0. .
1966(44) 0.0 0. .
1950(44) 0.0 0. .
1938(44) 0.0 0. .
1900(44) 0.0 0. .
1915(44) 0.0 0. .
1765(42) 0.0 0. .
1853(43) 0.0 0. .
1749(42) 0.0 0. .
1746(42) 0.0 0. .
1807(43) 0.0 0. .
1752(42) 0.0 0. .
1671(41) 0.0 0. .
1800(42) 0.0 0. .
1874(43) 0.0 0. .
1918(44) 0.0 0. .
1889(43) 0.0 0. .
1858(43) 0.0 0. .
1750(42) 0.0 0. .
1651(41) 0.0 0. .
1622(40) 0.0 0. .
1685(41) 0.0 0. .
1606(40) 0.0 0. .
1590(40) 0.0 0. .
1568(40) 0.0 0. .
1605(40) 0.0 0. .
1639(40) 0.0 0. .
1589(40) 0.0 0. .
1641(41) 0.0 0. .
1659(41) 0.0 0. .
1726(42) 0.0 0. .
1585(40) 0.0 0. .
1572(40) 0.0 0. .
1620(40) 0.0 0. .
1490(39) 0.0 0. .
1560(39) 0.0 0. .
1490(39) 0.0 0. .
1515(39) 0.0 0. .
1482(38) 0.0 0. .
1461(38) 0.0 0. .
1533(39) 0.0 0. .
1472(38) 0.0 0. .
1458(38) 0.0 0. .
1461(38) 0.0 0. .
1361(37) 0.0 0. .
1289(36) 0.0 0. .
1354(37) 0.0 0. .
1317(36) 0.0 0. .
1341(37) 0.0 0. .
1280(36) 0.0 0. .
1259(35) 0.0 0. .
1233(35) 0.0 0. .
1292(36) 0.0 0. .
1209(35) 0.0 0.0 .
1210(35) 0.0 0.0 .
1143(34) 0.0 0.0 .
1149(34) 0.0 0.0 .
1160(34) 0.0 0.0 .
1104(33) 0.0 0.0 .
1105(33) 0.0 0.0 .
1068(33) 0.0 0.0 .
1111(33) 0.0 0.0 .
1155(34) 0.0 0.0 .
1117(33) 0.0 0.0 .
1098(33) 0.0 0.0 .
1138(34) 0.0 0.0 .
1168(34) 0.0 0.0 .
1186(34) 0.0 0.0 .
1198(35) 0.0 0.0 .
1173(34) 0.0 0.0 .
1179(34) 0.0 0.0 .
1034(32) 0.0 0.0 .
1062(33) 0.0 0.0 .
1062(33) 0.0 0.0 .
1051(32) 0.0 0.0 .
1014(32) 0.0 0.0 .
1030(32) 0.0 0.0 .
999(32) 0.0 0.0 .
981(31) 0.0 0.0 .
962(31) 0.0 0.0 .
963(31) 0.0 0.0 .
965(31) 0.0 0.0 .
982(31) 0.0 0.0 .
874(30) 0.0 0.0 .
907(30) 0.0 0.0 .
823(29) 0.0 0.0 .
790(28) 0.0 0.0 .
765(28) 0.0 0.0 .
732(27) 0.0 0.0 .
719(27) 0.0 0.0 .
643(25) 0.0 0.0 .
582(24) 0.0 0.0 .
608(25) 0.0 0.0 .
597(24) 0.0 0.0 .
596(24) 0.0 0.0 .
564(24) 0.0 0.0 .
601(25) 0.0 0.0 .
580(24) 0.0 0.0 .
581(24) 0.0 0.0 .
555(24) 0.0 0.0 .
578(24) 0.0 0.0 .
584(24) 0.0 0.0 .
592(24) 0.0 0.0 .
596(24) 0.0 0.0 .
609(25) 0.0 0.0 .
609(25) 0.0 0.0 .
607(25) 0.0 0.0 .
628(25) 0.0 0.0 .
613(25) 0.0 0.0 .
655(26) 0.0 0.0 .
626(25) 0.0 0.0 .
613(25) 0.0 0.0 .
584(24) 0.0 0.0 .
586(24) 0.0 0.0 .
565(24) 0.0 0.0 .
572(24) 0.0 0.0 .
573(24) 0.0 0.0 .
636(25) 0.0 0.0 .
590(24) 0.0 0.0 .
580(24) 0.0 0.0 .
607(25) 0.0 0.0 .
672(26) 0.0 0.0 .
590(24) 0.0 0.0 .
584(24) 0.0 0.0 .
560(24) 0.0 0.0 .
557(24) 0.0 0.0 .
529(23) 0.0 0.0 .
529(23) 0.0 0.0 .
496(22) 0.0 0.0 .
472(22) 0.0 0.0 .
468(22) 0.0 0.0 .
443(21) 0.0 0.0 .
496(22) 0.0 0.0 .
421(21) 0.0 0.0 .
492(22) 0.0 0.0 .
457(21) 0.0 0.0 .
477(22) 0.0 0.0 .
459(21) 0.0 0.0 .
409(20) 0.0 0.0 .
412(20) 0.0 0.0 .
431(21) 0.0 0.0 .
400(20) 0.0 0.0 .
400(20) 0.0 0.0 .
391(20) 0.0 0.0 .
380(19) 0.0 0.0 .
364(19) 0.0 0.0 .
346(19) 0.0 0.0 .
345(19) 0.0 0.0 .
399(20) 0.0 0.0 .
395(20) 0.0 0.0 .
438(21) 0.0 0.0 .
406(20) 0.0 0.0 .
415(20) 0.0 0.0 .
421(21) 0.0 0.0 .
401(20) 0.0 0.0 .
360(19) 0.0 0.0 .
410(20) 0.0 0.0 .
406(20) 0.0 0.0 .
365(19) 0.0 0.0 .
387(20) 0.0 0.0 .
350(19) 0.0 0.0 .
339(18) 0.0 0.0 .
351(19) 0.0 0.0 .
348(19) 0.0 0.0 .
364(19) 0.0 0.0 .
364(19) 0.0 0.0 .
346(19) 0.0 0.0 .
334(18) 0.0 0.0 .
313(18) 0.0 0.0 .
302(17) 0.0 0.0 .
326(18) 0.0 0.0 .
313(18) 0.0 0.0 .
283(17) 0.0 0.0 .
309(18) 0.0 0.0 .
301(17) 0.0 0.0 .
310(18) 0.0 0.0 .
313(18) 0.0 0.0 .
313(18) 0.0 0.0 .
352(19) 0.0 0.0 .
324(18) 0.0 0.0 .
325(18) 0.0 0.0 .
294(17) 0.0 0.0 .
318(18) 0.0 0.0 .
256(16) 0.0 0.0 .
284(17) 0.0 0.0 .
289(17) 0.0 0.0 .
312(18) 0.0 0.0 .
258(16) 0.0 0.0 .
288(17) 0.0 0.0 .
287(17) 0.0 0.0 .
253(16) 0.0 0.0 .
310(18) 0.0 0.0 .
274(17) 0.0 0.0 .
270(16) 0.0 0.0 .
288(17) 0.0 0.0 .
248(16) 0.0 0.0 .
224(15) 0.0 0.0 .
257(16) 0.0 0.0 .
250(16) 0.0 0.0 .
234(15) 0.0 0.0 .
242(16) 0.0 0.0 .
256(16) 0.0 0.0 .
265(16) 0.0 0.0 .
239(15) 0.0 0.0 .
270(16) 0.0 0.0 .
253(16) 0.0 0.0 .
257(16) 0.0 0.0 .
223(15) 0.0 0.0 .
234(15) 0.0 0.0 .
246(16) 0.0 0.0 .
240(15) 0.0 0.0 .
221(15) 0.0 0.0 .
228(15) 0.0 0.0 .
252(16) 0.0 0.0 .
235(15) 0.0 0.0 .
248(16) 0.0 0.0 .
231(15) 0.0 0.0 .
259(16) 0.0 0.0 .
254(16) 0.0 0.0 .
215(15) 0.0 0.0 .
227(15) 0.0 0.0 .
251(16) 0.0 0.0 .
224(15) 0.0 0.0 .
244(16) 0.0 0.0 .
234(15) 0.0 0.0 .
223(15) 0.0 0.0 .
257(16) 0.0 0.0 .
221(15) 0.0 0.0 .
235(15) 0.0 0.0 .
233(15) 0.0 0.0 .
243(16) 0.0 0.0 .
260(16) 0.0 0.0 .
242(16) 0.0 0.0 .
222(15) 0.0 0.0 .
245(16) 0.0 0.0 .
221(15) 0.0 0.0 .
254(16) 0.0 0.0 .
206(14) 0.0 0.0 .
213(15) 0.0 0.0 .
230(15) 0.0 0.0 .
233(15) 0.0 0.0 .
220(15) 0.0 0.0 .
232(15) 0.0 0.0 .
235(15) 0.0 0.0 .
232(15) 0.0 0.0 .
229(15) 0.0 0.0 .
243(16) 0.0 0.0 .
257(16) 0.0 0.0 .
224(15) 0.0 0.0 .
221(15) 0.0 0.0 .
210(14) 0.0 0.0 .
220(15) 0.0 0.0 .
216(15) 0.0 0.0 .
233(15) 0.0 0.0 .
246(16) 0.0 0.0 .
247(16) 0.0 0.0 .
189(14) 0.0 0.0 .
204(14) 0.0 0.0 .
228(15) 0.0 0.0 .
226(15) 0.0 0.0 .
233(15) 0.0 0.0 .
217(15) 0.0 0.0 .
234(15) 0.0 0.0 .
213(15) 0.0 0.0 .
214(15) 0.0 0.0 .
210(14) 0.0 0.0 .
231(15) 0.0 0.0 .
223(15) 0.0 0.0 .
236(15) 0.0 0.0 .
219(15) 0.0 0.0 .
228(15) 0.0 0.0 .
225(15) 0.0 0.0 .
225(15) 0.0 0.0 .
218(15) 0.0 0.0 .
215(15) 0.0 0.0 .
221(15) 0.0 0.0 .
216(15) 0.0 0.0 .
217(15) 0.0 0.0 .
243(16) 0.0 0.0 .
216(15) 0.0 0.0 .
219(15) 0.0 0.0 .
221(15) 0.0 0.0 .
221(15) 0.0 0.0 .
210(14) 0.0 0.0 .
226(15) 0.0 0.0 .
237(15) 0.0 0.0 .
236(15) 0.0 0.0 .
209(14) 0.0 0.0 .
222(15) 0.0 0.0 .
207(14) 0.0 0.0 .
213(15) 0.0 0.0 .
241(16) 0.0 0.0 .
227(15) 0.0 0.0 .
233(15) 0.0 0.0 .
229(15) 0.0 0.0 .
217(15) 0.0 0.0 .
225(15) 0.0 0.0 .
239(15) 0.0 0.0 .
232(15) 0.0 0.0 .
217(15) 0.0 0.0 .
239(15) 0.0 0.0 .
195(14) 0.0 0.0 .
208(14) 0.0 0.0 .
213(15) 0.0 0.0 .
213(15) 0.0 0.0 .
218(15) 0.0 0.0 .
228(15) 0.0 0.0 .
222(15) 0.0 0.0 .
216(15) 0.0 0.0 .
216(15) 0.0 0.0 .
232(15) 0.0 0.0 .
230(15) 0.0 0.0 .
226(15) 0.0 0.0 .
253(16) 0.0 0.0 .
226(15) 0.0 0.0 .
214(15) 0.0 0.0 .
225(15) 0.0 0.0 .
221(15) 0.0 0.0 .
247(16) 0.0 0.0 .
219(15) 0.0 0.0 .
224(15) 0.0 0.0 .
219(15) 0.0 0.0 .
228(15) 0.0 0.0 .
193(14) 0.0 0.0 .
224(15) 0.0 0.0 .
223(15) 0.0 0.0 .
218(15) 0.0 0.0 .
201(14) 0.0 0.0 .
209(14) 0.0 0.0 .
196(14) 0.0 0.0 .
195(14) 0.0 0.0 .
202(14) 0.0 0.0 .
201(14) 0.0 0.0 .
224(15) 0.0 0.0 .
219(15) 0.0 0.0 .
209(14) 0.0 0.0 .
191(14) 0.0 0.0 .
204(14) 0.0 0.0 .
223(15) 0.0 0.0 .
222(15) 0.0 0.0 .
235(15) 0.0 0.0 .
217(15) 0.0 0.0 .
222(15) 0.0 0.0 .
225(15) 0.0 0.0 .
212(15) 0.0 0.0 .
212(15) 0.0 0.0 .
207(14) 0.0 0.0 .
194(14) 0.0 0.0 .
239(15) 0.0 0.0 .
227(15) 0.0 0.0 .
240(15) 0.0 0.0 .
217(15) 0.0 0.0 .
215(15) 0.0 0.0 .
227(15) 0.0 0.0 .
210(14) 0.0 0.0 .
200(14) 0.0 0.0 .
196(14) 0.0 0.0 .
203(14) 0.0 0.0 .
232(15) 0.0 0.0 .
216(15) 0.0 0.0 .
236(15) 0.0 0.0 .
215(15) 0.0 0.0 .
212(15) 0.0 0.0 .
208(14) 0.0 0.0 .
204(14) 0.0 0.0 .
217(15) 0.0 0.0 .
213(15) 0.0 0.0 .
234(15) 0.0 0.0 .
240(15) 0.0 0.0 .
218(15) 0.0 0.0 .
219(15) 0.0 0.0 .
232(15) 0.0 0.0 .
208(14) 0.0 0.0 .
230(15) 0.0 0.0 .
235(15) 0.0 0.0 .
233(15) 0.0 0.0 .
211(15) 0.0 0.0 .
247(16) 0.0 0.0 .
223(15) 0.0 0.0 .
234(15) 0.0 0.0 .
187(14) 0.0 0.0 .
219(15) 0.0 0.0 .
200(14) 0.0 0.0 .
237(15) 0.0 0.0 .
212(15) 0.0 0.0 .
219(15) 0.0 0.0 .
229(15) 0.0 0.0 .
214(15) 0.0 0.0 .
226(15) 0.0 0.0 .
238(15) 0.0 0.0 .
257(16) 0.0 0.0 .
241(16) 0.0 0.0 .
213(15) 0.0 0.0 .
231(15) 0.0 0.0 .
214(15) 0.0 0.0 .
238(15) 0.0 0.0 .
229(15) 0.0 0.0 .
222(15) 0.0 0.0 .
222(15) 0.0 0.0 .
233(15) 0.0 0.0 .
247(16) 0.0 0.0 .
231(15) 0.0 0.0 .
232(15) 0.0 0.0 .
236(15) 0.0 0.0 .
231(15) 0.0 0.0 .
236(15) 0.0 0.0 .
235(15) 0.0 0.0 .
251(16) 0.0 0.0 .
285(17) 0.0 0.0 .
238(15) 0.0 0.0 .
237(15) 0.0 0.0 .
243(16) 0.0 0.0 .
243(16) 0.0 0.0 .
249(16) 0.0 0.0 .
258(16) 0.0 0.0 .
232(15) 0.0 0.0 .
240(15) 0.0 0.0 .
249(16) 0.0 0.0 .
274(17) 0.0 0.0 .
231(15) 0.0 0.0 .
221(15) 0.0 0.0 .
247(16) 0.0 0.0 .
263(16) 0.0 0.0 .
247(16) 0.0 0.0 .
277(17) 0.0 0.0 .
252(16) 0.0 0.0 .
276(17) 0.0 0.0 .
293(17) 0.0 0.0 .
253(16) 0.0 0.0 .
278(17) 0.0 0.0 .
279(17) 0.0 0.0 .
276(17) 0.0 0.0 .
271(16) 0.0 0.0 .
271(16) 0.0 0.0 .
282(17) 0.0 0.0 .
302(17) 0.0 0.0 .
297(17) 0.0 0.0 .
295(17) 0.0 0.0 .
292(17) 0.0 0.0 .
324(18) 0.0 0.0 .
332(18) 0.0 0.0 .
325(18) 0.0 0.0 .
305(17) 0.0 0.0 .
307(18) 0.0 0.0 .
327(18) 0.0 0.0 .
349(19) 0.0 0.0 .
344(19) 0.0 0.0 .
303(17) 0.0 0.0 .
328(18) 0.0 0.0 .
371(19) 0.0 0.0 .
343(19) 0.0 0.0 .
362(19) 0.0 0.0 .
349(19) 0.0 0.0 .
349(19) 0.0 0.0 .
399(20) 0.0 0.0 .
366(19) 0.0 0.0 .
367(19) 0.0 0.0 .
427(21) 0.0 0.0 .
430(21) 0.0 0.0 .
393(20) 0.0 0.0 .
415(20) 0.0 0.0 .
446(21) 0.0 0.0 .
414(20) 0.0 0.0 .
423(21) 0.0 0.0 .
421(21) 0.0 0.0 .
419(20) 0.0 0.0 .
440(21) 0.0 0.0 .
424(21) 0.0 0.0 .
442(21) 0.0 0.0 .
439(21) 0.0 0.0 .
484(22) 0.0 0.0 .
484(22) 0.0 0.0 .
449(21) 0.0 0.0 .
512(23) 0.0 0.0 .
491(22) 0.0 0.0 .
509(23) 0.0 0.0 .
533(23) 0.0 0.0 .
547(23) 0.0 0.0 .
550(23) 0.0 0.0 .
572(24) 0.0 0.0 .
567(24) 0.0 0.0 .
581(24) 0.0 0.0 .
579(24) 0.0 0.0 .
636(25) 0.0 0.0 .
657(26) 0.0 0.0 .
655(26) 0.0 0.0 .
718(27) 0.0 0.0 .
631(25) 0.0 0.0 .
646(25) 0.0 0.0 .
696(26) 0.0 0.0 .
742(27) 0.0 0.0 .
731(27) 0.0 0.0 .
729(27) 0.0 0.0 .
724(27) 0.0 0.0 .
823(29) 0.0 0.0 .
808(28) 0.0 0.0 .
847(29) 0.0 0.0 .
849(29) 0.0 0.0 .
857(29) 0.0 0.0 .
922(30) 0.0 0.0 .
955(31) 0.0 0.0 .
1059(33) 0.0 0.0 .
980(31) 0.0 0.0 .
1025(32) 0.0 0.0 .
1112(33) 0.0 0.0 .
1125(34) 0.0 0.0 .
1147(34) 0.0 0.0 .
1098(33) 0.0 0.0 .
1233(35) 0.0 0. .
1334(37) 0.0 0. .
1342(37) 0.0 0. .
1487(39) 0.0 0. .
1523(39) 0.0 0. .
1612(40) 0.0 0. .
1746(42) 0.0 0. .
1838(43) 0.0 0. .
1993(45) 0.0 0. .
2180(47) 0.0 0. .
2411(49) 0.0 0. .
2641(51) 0.0 0. .
2876(54) 0.0 0. .
3170(56) 0.0 0. .
3664(61) 0.0 0. .
4033(64) 0.0 0. .
4385(66) 0.0 0. .
4926(70) 0.0 0. .
5207(72) 0.0 0. .
5605(75) 0.0 0. .
5972(77) 0.0 0. .
6309(79) 0.0 0. .
6804(82) 0.0 0. .
7306(85) 0.0 0. .
7974(89) 0.0 0. .
8653(93) 0.0 0. .
9501(97) 0.0 0. .
10640(100) 0.0 0. .
12100(110) 0.0 0. .
13760(120) 0.0 0. .
15860(130) 0.0 0. .
18880(140) 0.0 0. .
22790(150) 0.0 0. .
27830(170) 0.0 0. .
34670(190) 0.0 0. .
44940(210) 0.0 0. .
58300(240) 0.0 0. .
76760(280) 0.0 0. .
99830(320) 0.0 0. .
130980(360) 0.0 0. .
167580(410) 0.0 0. .
207230(460) 0.0 0. .
248790(500) 0.0 0. .
292320(540) 0.0 0. .
323700(570) 0.0 0. .
320150(570) 0.0 0. .
265320(520) 0.0 0. .
198320(450) 0.0 0. .
145440(380) 0.0 0. .
108430(330) 0.0 0. .
82260(290) 0.0 0. .
63940(250) 0.0 0. .
49880(220) 0.0 0. .
40050(200) 0.0 0. .
32450(180) 0.0 0. .
26620(160) 0.0 0. .
22650(150) 0.0 0. .
18950(140) 0.0 0. .
16220(130) 0.0 0. .
13840(120) 0.0 0. .
11980(110) 0.0 0. .
10680(100) 0.0 0. .
9404(97) 0.0 0. .
8464(92) 0.0 0. .
7415(86) 0.0 0. .
6709(82) 0.0 0. .
6122(78) 0.0 0. .
5702(76) 0.0 0. .
5054(71) 0.0 0. .
4696(69) 0.0 0. .
4346(66) 0.0 0. .
4044(64) 0.0 0. .
3760(61) 0.0 0. .
3468(59) 0.0 0. .
3238(57) 0.0 0. .
3087(56) 0.0 0. .
2902(54) 0.0 0. .
2683(52) 0.0 0. .
2571(51) 0.0 0. .
2448(49) 0.0 0. .
2349(48) 0.0 0. .
2186(47) 0.0 0. .
2123(46) 0.0 0. .
1942(44) 0.0 0. .
1919(44) 0.0 0. .
1789(42) 0.0 0. .
1727(42) 0.0 0. .
1688(41) 0.0 0. .
1589(40) 0.0 0. .
1608(40) 0.0 0. .
1538(39) 0.0 0. .
1468(38) 0.0 0. .
1426(38) 0.0 0. .
1408(38) 0.0 0. .
1295(36) 0.0 0. .
1275(36) 0.0 0. .
1241(35) 0.0 0. .
1219(35) 0.0 0.0 .
1182(34) 0.0 0.0 .
1153(34) 0.0 0.0 .
1118(33) 0.0 0.0 .
1086(33) 0.0 0.0 .
1065(33) 0.0 0.0 .
1082(33) 0.0 0.0 .
1077(33) 0.0 0.0 .
988(31) 0.0 0.0 .
1001(32) 0.0 0.0 .
952(31) 0.0 0.0 .
905(30) 0.0 0.0 .
899(30) 0.0 0.0 .
943(31) 0.0 0.0 .
888(30) 0.0 0.0 .
866(29) 0.0 0.0 .
848(29) 0.0 0.0 .
863(29) 0.0 0.0 .
836(29) 0.0 0.0 .
831(29) 0.0 0.0 .
838(29) 0.0 0.0 .
770(28) 0.0 0.0 .
782(28) 0.0 0.0 .
804(28) 0.0 0.0 .
774(28) 0.0 0.0 .
748(27) 0.0 0.0 .
763(28) 0.0 0.0 .
747(27) 0.0 0.0 .
712(27) 0.0 0.0 .
751(27) 0.0 0.0 .
732(27) 0.0 0.0 .
767(28) 0.0 0.0 .
734(27) 0.0 0.0 .
744(27) 0.0 0.0 .
727(27) 0.0 0.0 .
750(27) 0.0 0.0 .
771(28) 0.0 0.0 .
788(28) 0.0 0.0 .
757(28) 0.0 0.0 .
739(27) 0.0 0.0 .
750(27) 0.0 0.0 .
763(28) 0.0 0.0 .
751(27) 0.0 0.0 .
755(27) 0.0 0.0 .
778(28) 0.0 0.0 .
820(29) 0.0 0.0 .
827(29) 0.0 0.0 .
801(28) 0.0 0.0 .
874(30) 0.0 0.0 .
871(30) 0.0 0.0 .
854(29) 0.0 0.0 .
890(30) 0.0 0.0 .
916(30) 0.0 0.0 .
876(30) 0.0 0.0 .
945(31) 0.0 0.0 .
934(31) 0.0 0.0 .
991(31) 0.0 0.0 .
1022(32) 0.0 0.0 .
1007(32) 0.0 0.0 .
1039(32) 0.0 0.0 .
1043(32) 0.0 0.0 .
1063(33) 0.0 0.0 .
1114(33) 0.0 0.0 .
1056(32) 0.0 0.0 .
1121(33) 0.0 0.0 .
1085(33) 0.0 0.0 .
996(32) 0.0 0.0 .
992(31) 0.0 0.0 .
952(31) 0.0 0.0 .
942(31) 0.0 0.0 .
992(31) 0.0 0.0 .
1018(32) 0.0 0.0 .
936(31) 0.0 0.0 .
922(30) 0.0 0.0 .
875(30) 0.0 0.0 .
825(29) 0.0 0.0 .
773(28) 0.0 0.0 .
757(28) 0.0 0.0 .
699(26) 0.0 0.0 .
704(27) 0.0 0.0 .
717(27) 0.0 0.0 .
702(26) 0.0 0.0 .
702(26) 0.0 0.0 .
623(25) 0.0 0.0 .
600(24) 0.0 0.0 .
606(25) 0.0 0.0 .
607(25) 0.0 0.0 .
563(24) 0.0 0.0 .
565(24) 0.0 0.0 .
556(24) 0.0 0.0 .
513(23) 0.0 0.0 .
503(22) 0.0 0.0 .
524(23) 0.0 0.0 .
466(22) 0.0 0.0 .
471(22) 0.0 0.0 .
436(21) 0.0 0.0 .
450(21) 0.0 0.0 .
460(21) 0.0 0.0 .
472(22) 0.0 0.0 .
409(20) 0.0 0.0 .
424(21) 0.0 0.0 .
403(20) 0.0 0.0 .
394(20) 0.0 0.0 .
417(20) 0.0 0.0 .
381(20) 0.0 0.0 .
393(20) 0.0 0.0 .
379(19) 0.0 0.0 .
376(19) 0.0 0.0 .
371(19) 0.0 0.0 .
358(19) 0.0 0.0 .
373(19) 0.0 0.0 .
387(20) 0.0 0.0 .
392(20) 0.0 0.0 .
366(19) 0.0 0.0 .
368(19) 0.0 0.0 .
356(19) 0.0 0.0 .
408(20) 0.0 0.0 .
362(19) 0.0 0.0 .
392(20) 0.0 0.0 .
415(20) 0.0 0.0 .
412(20) 0.0 0.0 .
406(20) 0.0 0.0 .
430(21) 0.002326 390.2 4.8
402(20) 0.002488 390.2 4.9
392(20) 0.002551 388.5 5.0
395(20) 0.002532 385.3 5.1
389(20) 0.002571 382.0 5.2
373(19) 0.002681 378.7 5.3
398(20) 0.002513 375.4 5.4
399(20) 0.002506 372.2 5.5
393(20) 0.002545 368.9 5.6
372(19) 0.002688 365.6 5.7
381(20) 0.002625 362.4 5.8
390(20) 0.002564 359.1 5.9
375(19) 0.002667 355.8 6.1
371(19) 0.002695 352.6 6.2
390(20) 0.002564 349.3 6.3
369(19) 0.002710 346.0 6.4
315(18) 0.003175 342.8 6.6
341(18) 0.002933 339.5 6.7
335(18) 0.002985 336.2 6.9
334(18) 0.002994 332.9 7.0
334(18) 0.002994 329.7 7.2
307(18) 0.003257 326.4 7.3
331(18) 0.003021 323.1 7.5
332(18) 0.003012 319.9 7.6
301(17) 0.003322 316.6 7.8
293(17) 0.003413 313.3 8.0
321(18) 0.003115 310.1 8.2
313(18) 0.003195 306.8 8.4
290(17) 0.003448 303.5 8.6
273(17) 0.00366 300.3 8.8
270(16) 0.00370 297.0 9.0
275(17) 0.00364 293.7 9.2
298(17) 0.003356 290.4 9.4
313(18) 0.003195 287.2 9.7
281(17) 0.00356 283.9 9.9
284(17) 0.00352 280.6 10.2
304(17) 0.003289 277.4 10.4
289(17) 0.003460 277.7 10.7
281(17) 0.00356 278.0 11.0
263(16) 0.00380 278.4 11.3
276(17) 0.00362 278.7 11.6
270(16) 0.00370 279.1 11.9
292(17) 0.003425 279.4 12.3
286(17) 0.003497 279.7 12.6
278(17) 0.00360 280.1 13.0
284(17) 0.00352 280.4 13.4
247(16) 0.00405 280.7 13.8
282(17) 0.00355 281.1 14.2
277(17) 0.00361 281.4 14.6
245(16) 0.00408 281.8 15.1
260(16) 0.00385 282.1 15.6
260(16) 0.00385 282.4 16.1
256(16) 0.00391 282.8 16.6
262(16) 0.00382 283.1 17.2
275(17) 0.00364 283.4 17.7
263(16) 0.00380 283.8 18.4
259(16) 0.00386 284.1 19.0
235(15) 0.00426 284.5 19.7
285(17) 0.00351 284.8 20.4
285(17) 0.00351 285.1 21.2
272(16) 0.00368 285.5 22.0
279(17) 0.00358 285.8 22.8
288(17) 0.003472 286.2 23.8
271(16) 0.00369 286.5 24.7
276(17) 0.00362 286.8 25.7
294(17) 0.003401 287.2 26.8
281(17) 0.00356 287.5 27.9
278(17) 0.00360 287.8 29.1
287(17) 0.003484 288.2 30.4
285(17) 0.00351 288.5 31.8
261(16) 0.00383 288.9 33.3
290(17) 0.003448 289.2 34.9
279(17) 0.00358 289.5 36.6
285(17) 0.00351 289.9 38.4
289(17) 0.003460 290.2 40.4
318(18) 0.003145 290.5 42.5
284(17) 0.00352 290.9 44.8
281(17) 0.00356 291.2 47.3
294(17) 0.003401 291.2 50.0
308(18) 0.003247 290.1 52.9
317(18) 0.003155 289.0 56.1
313(18) 0.003195 287.9 59.6
325(18) 0.003077 286.8 63.4
329(18) 0.003039 285.7 67.6
320(18) 0.003125 284.6 72.2
324(18) 0.003086 283.5 77.3
365(19) 0.002740 282.4 82.9
347(19) 0.002882 281.3 89.2
357(19) 0.002801 280.1 96.2
409(20) 0.002445 279.0 104.1
408(20) 0.002451 277.9 112.9
381(20) 0.002625 276.8 122.9
409(20) 0.002445 275.7 134.3
411(20) 0.002433 274.6 147.2
473(22) 0.002114 273.5 162.1
498(22) 0.002008 272.4 179.4
527(23) 0.001898 271.3 199.5
508(23) 0.001968 270.2 223.3
552(23) 0.001812 269.1 251.7
582(24) 0.001718 268.0 286.0
624(25) 0.001603 266.9 327.9
667(26) 0.001499 265.8 379.9
727(27) 0.001376 264.7 444.8
893(30) 0.001120 263.6 526.3
930(30) 0.001075 262.5 628.9
990(31) 0.001010 261.4 757.3
1135(34) 0.000881 260.3 916.4
1255(35) 0.000797 259. 1110.
1472(38) 0.000679 258. 1340.
1506(39) 0.000664 257. 1600.
1767(42) 0.000566 256. 1871.
1872(43) 0.000534 255. 2114.
1960(44) 0.000510 254. 2277.
2051(45) 0.000488 253. 2309.
1956(44) 0.000511 251. 2202.
1801(42) 0.000555 250. 1988.
1668(41) 0.000600 249. 1723.
1393(37) 0.000718 248. 1455.
1158(34) 0.000864 247.0 1210.3
982(31) 0.001018 245.9 1000.0
802(28) 0.001247 244.8 825.4
724(27) 0.001381 243.7 683.7
681(26) 0.001468 242.6 570.0
598(24) 0.001672 241.5 479.5
561(24) 0.001783 240.4 407.6
501(22) 0.001996 239.3 350.1
510(23) 0.001961 238.2 304.0
447(21) 0.002237 237.1 266.5
430(21) 0.002326 236.0 235.6
361(19) 0.002770 234.9 209.9
416(20) 0.002404 233.7 188.2
383(20) 0.002611 232.6 169.7
361(19) 0.002770 231.5 153.8
360(19) 0.002778 230.4 140.0
367(19) 0.002725 229.3 127.9
391(20) 0.002558 228.2 117.3
383(20) 0.002611 227.1 108.0
335(18) 0.002985 226.0 99.7
349(19) 0.002865 224.9 92.3
353(19) 0.002833 223.8 85.7
345(19) 0.002899 222.7 79.8
345(19) 0.002899 221.6 74.5
331(18) 0.003021 220.5 69.6
350(19) 0.002857 219.4 65.3
353(19) 0.002833 218.3 61.3
364(19) 0.002747 217.2 57.7
352(19) 0.002841 216.1 54.3
334(18) 0.002994 215.0 51.3
333(18) 0.003003 213.9 48.5
335(18) 0.002985 212.8 45.9
383(20) 0.002611 211.7 43.6
363(19) 0.002755 210.6 41.4
357(19) 0.002801 209.4 39.3
354(19) 0.002825 208.3 37.4
345(19) 0.002899 207.2 35.7
324(18) 0.003086 206.1 34.0
352(19) 0.002841 205.0 32.5
329(18) 0.003039 203.9 31.1
343(19) 0.002915 202.8 29.8
341(18) 0.002933 201.7 28.5
331(18) 0.003021 200.6 27.3
318(18) 0.003145 199.5 26.2
308(18) 0.003247 198.4 25.2
319(18) 0.003135 197.3 24.2
303(17) 0.003300 196.2 23.3
299(17) 0.003344 195.1 22.4
308(18) 0.003247 194.0 21.6
318(18) 0.003145 192.9 20.8
283(17) 0.00353 191.8 20.1
268(16) 0.00373 190.7 19.4
283(17) 0.00353 189.6 18.7
300(17) 0.003333 188.5 18.1
272(16) 0.00368 187.4 17.5
254(16) 0.00394 186.2 16.9
238(15) 0.00420 185.1 16.4
257(16) 0.00389 184.0 15.9
246(16) 0.00407 182.9 15.4
234(15) 0.00427 181.8 14.9
244(16) 0.00410 180.7 14.5
229(15) 0.00437 179.6 14.0
247(16) 0.00405 178.5 13.6
248(16) 0.00403 177.4 13.2
226(15) 0.00442 176.3 12.9
230(15) 0.00435 175.2 12.5
228(15) 0.00439 174.1 12.2
191(14) 0.00524 173.0 11.8
217(15) 0.00461 171.9 11.5
236(15) 0.00424 170.8 11.2
214(15) 0.00467 169.7 10.9
194(14) 0.00515 168.6 10.7
203(14) 0.00493 167.5 10.4
206(14) 0.00485 166.4 10.1
196(14) 0.00510 165.3 9.9
187(14) 0.00535 164.2 9.6
174(13) 0.00575 163.0 9.4
200(14) 0.00500 161.9 9.2
176(13) 0.00568 160.8 9.0
188(14) 0.00532 159.7 8.8
179(13) 0.00559 158.6 8.6
191(14) 0.00524 157.5 8.4
147(12) 0.00680 156.4 8.2
150(12) 0.00667 155.3 8.0
171(13) 0.00585 154.2 7.8
166(13) 0.00602 153.1 7.7
148(12) 0.00676 152.7 7.5
168(13) 0.00595 152.4 7.3
164(13) 0.00610 152.2 7.2
148(12) 0.00676 152.0 7.0
146(12) 0.00685 151.7 6.9
154(12) 0.00649 151.5 6.8
160(13) 0.00625 151.3 6.6
166(13) 0.00602 151.1 6.5
162(13) 0.00617 150.8 6.4
150(12) 0.00667 150.6 6.2
150(12) 0.00667 150.4 6.1
158(13) 0.00633 150.1 6.0
153(12) 0.00654 149.9 5.9
168(13) 0.00595 149.7 5.8
161(13) 0.00621 149.4 5.7
167(13) 0.00599 149.2 5.6
159(13) 0.00629 149.0 5.5
149(12) 0.00671 148.8 5.4
155(12) 0.00645 148.5 5.3
149(12) 0.00671 148.3 5.2
160(13) 0.00625 148.1 5.1
159(13) 0.00629 147.8 5.0
141(12) 0.00709 147.6 4.9
144(12) 0.00694 147.4 4.8
155(12) 0.00645 147.1 4.8
151(12) 0.00662 146.9 4.7
145(12) 0.00690 146.7 4.6
136(12) 0.00735 146.5 4.5
138(12) 0.00725 146.2 4.5
146(12) 0.00685 146.1 4.4
143(12) 0.00699 146.0 4.3
151(12) 0.00662 145.9 4.3
152(12) 0.00658 145.8 4.2
150(12) 0.00667 145.7 4.1
163(13) 0.00614 145.6 4.1
145(12) 0.00690 145.5 4.0
161(13) 0.00621 145.4 3.9
164(13) 0.00610 145.3 3.9
138(12) 0.00725 145.2 3.8
146(12) 0.00685 145.0 3.8
138(12) 0.00725 144.9 3.7
135(12) 0.00741 144.8 3.7
139(12) 0.00719 144.7 3.6
142(12) 0.00704 144.6 3.6
134(12) 0.00746 144.5 3.5
132(11) 0.00758 144.4 3.5
124(11) 0.00806 144.3 3.4
145(12) 0.00690 144.2 3.4
132(11) 0.00758 144.1 3.3
138(12) 0.00725 144.0 3.3
146(12) 0.00685 143.9 3.3
140(12) 0.00714 143.7 3.2
156(12) 0.00641 143.6 3.2
144(12) 0.00694 143.5 3.1
137(12) 0.00730 143.4 3.1
148(12) 0.00676 143.3 3.1
119(11) 0.00840 143.2 3.0
162(13) 0.00617 143.1 3.0
132(11) 0.00758 143.0 2.9
131(11) 0.00763 142.9 2.9
148(12) 0.00676 142.8 2.9
134(12) 0.00746 142.7 2.8
134(12) 0.00746 142.6 2.8
139(12) 0.00719 142.5 2.8
130(11) 0.00769 142.3 2.7
148(12) 0.00676 142.2 2.7
141(12) 0.00709 142.1 2.7
148(12) 0.00676 142.0 2.7
129(11) 0.00775 141.9 2.6
130(11) 0.00769 141.8 2.6
142(12) 0.00704 141.7 2.6
150(12) 0.00667 141.6 2.5
137(12) 0.00730 141.5 2.5
146(12) 0.00685 141.4 2.5
146(12) 0.00685 141.3 2.5
124(11) 0.00806 141.2 2.4
131(11) 0.00763 141.0 2.4
140(12) 0.00714 140.9 2.4
138(12) 0.00725 140.8 2.4
124(11) 0.00806 140.7 2.3
136(12) 0.00735 140.6 2.3
130(11) 0.00769 140.5 2.3
137(12) 0.00730 140.4 2.3
143(12) 0.00699 140.3 2.3
129(11) 0.00775 140.2 2.2
136(12) 0.00735 140.1 2.2
131(11) 0.00763 140.0 2.2
141(12) 0.00709 139.9 2.2
137(12) 0.00730 139.8 2.2
159(13) 0.00629 139.6 2.1
136(12) 0.00735 139.5 2.1
136(12) 0.00735 139.4 2.1
144(12) 0.00694 139.3 2.1
122(11) 0.00820 139.2 2.1
142(12) 0.00704 139.1 2.1
134(12) 0.00746 139.0 2.0
154(12) 0.00649 138.9 2.0
143(12) 0.00699 138.8 2.0
137(12) 0.00730 138.7 2.0
140(12) 0.00714 138.6 2.0
142(12) 0.00704 138.5 2.0
121(11) 0.00826 138.4 1.9
127(11) 0.00787 138.2 1.9
126(11) 0.00794 138.1 1.9
128(11) 0.00781 138.0 1.9
128(11) 0.00781 137.9 1.9
132(11) 0.00758 137.8 1.9
101(10) 0.00990 137.7 1.9
129(11) 0.00775 137.6 1.9
121(11) 0.00826 137.5 1.8
126(11) 0.00794 137.4 1.8
121(11) 0.00826 137.3 1.8
125(11) 0.00800 137.2 1.8
131(11) 0.00763 137.1 1.8
149(12) 0.00671 136.9 1.8
113(11) 0.00885 136.8 1.8
133(12) 0.00752 136.7 1.8
127(11) 0.00787 136.6 1.8
131(11) 0.00763 136.5 1.7
130(11) 0.00769 136.4 1.7
105(10) 0.00952 136.3 1.7
135(12) 0.00741 136.2 1.7
143(12) 0.00699 136.1 1.7
144(12) 0.00694 136.0 1.7
131(11) 0.00763 135.9 1.7
131(11) 0.00763 135.8 1.7
125(11) 0.00800 135.7 1.7
147(12) 0.00680 135.5 1.7
157(13) 0.00637 135.4 1.7
156(12) 0.00641 135.3 1.7
136(12) 0.00735 135.2 1.7
105(10) 0.00952 135.1 1.7
143(12) 0.00699 135.0 1.6
130(11) 0.00769 134.9 1.6
133(12) 0.00752 134.8 1.6
131(11) 0.00763 134.7 1.6
126(11) 0.00794 134.6 1.6
132(11) 0.00758 134.5 1.6
130(11) 0.00769 134.4 1.6
115(11) 0.00870 134.2 1.6
113(11) 0.00885 134.1 1.6
125(11) 0.00800 134.0 1.6
128(11) 0.00781 133.9 1.6
120(11) 0.00833 133.8 1.6
131(11) 0.00763 133.7 1.6
129(11) 0.00775 133.6 1.6
121(11) 0.00826 133.5 1.6
129(11) 0.00775 133.4 1.6
139(12) 0.00719 133.3 1.6
116(11) 0.00862 133.2 1.6
125(11) 0.00800 133.1 1.6
141(12) 0.00709 133.0 1.6
125(11) 0.00800 132.8 1.6
143(12) 0.00699 132.7 1.6
125(11) 0.00800 132.6 1.6
117(11) 0.00855 132.5 1.6
139(12) 0.00719 132.4 1.6
149(12) 0.00671 132.3 1.6
132(11) 0.00758 132.2 1.6
140(12) 0.00714 132.1 1.6
137(12) 0.00730 132.0 1.6
133(12) 0.00752 131.9 1.6
132(11) 0.00758 131.8 1.6
143(12) 0.00699 131.7 1.6
130(11) 0.00769 131.6 1.6
162(13) 0.00617 131.4 1.6
128(11) 0.00781 131.3 1.6
126(11) 0.00794 131.2 1.7
118(11) 0.00847 131.1 1.7
134(12) 0.00746 131.0 1.7
166(13) 0.00602 130.9 1.7
129(11) 0.00775 130.8 1.7
128(11) 0.00781 130.7 1.7
123(11) 0.00813 130.6 1.7
121(11) 0.00826 130.5 1.7
110(10) 0.00909 130.4 1.7
134(12) 0.00746 130.3 1.7
136(12) 0.00735 130.1 1.7
126(11) 0.00794 130.0 1.8
125(11) 0.00800 129.9 1.8
129(11) 0.00775 129.8 1.8
136(12) 0.00735 129.7 1.8
130(11) 0.00769 129.6 1.8
132(11) 0.00758 129.5 1.8
128(11) 0.00781 129.4 1.8
127(11) 0.00787 129.3 1.9
145(12) 0.00690 129.2 1.9
151(12) 0.00662 129.1 1.9
141(12) 0.00709 129.0 1.9
122(11) 0.00820 128.9 1.9
116(11) 0.00862 128.7 2.0
149(12) 0.00671 128.6 1.2
133(12) 0.00752 128.5 1.3
121(11) 0.00826 128.4 1.3
126(11) 0.00794 128.3 1.3
125(11) 0.00800 128.2 1.4
130(11) 0.00769 128.1 1.4
123(11) 0.00813 128.0 1.4
140(12) 0.00714 127.9 1.5
127(11) 0.00787 127.8 1.5
124(11) 0.00806 127.7 1.5
133(12) 0.00752 127.6 1.6
136(12) 0.00735 127.5 1.6
137(12) 0.00730 127.3 1.7
136(12) 0.00735 127.2 1.7
143(12) 0.00699 127.1 1.8
120(11) 0.00833 127.0 1.8
126(11) 0.00794 126.9 1.9
144(12) 0.00694 126.8 1.9
134(12) 0.00746 126.7 2.0
145(12) 0.00690 126.6 2.1
135(12) 0.00741 126.5 2.1
125(11) 0.00800 126.4 2.2
132(11) 0.00758 126.3 2.3
117(11) 0.00855 126.2 2.4
149(12) 0.00671 126.0 2.4
128(11) 0.00781 126.2 2.5
131(11) 0.00763 126.4 2.6
129(11) 0.00775 126.6 2.7
145(12) 0.00690 126.8 2.8
136(12) 0.00735 127.1 2.9
126(11) 0.00794 127.3 3.0
125(11) 0.00800 127.5 3.2
131(11) 0.00763 127.7 3.3
119(11) 0.00840 127.9 3.4
128(11) 0.00781 128.2 3.6
123(11) 0.00813 128.4 3.7
128(11) 0.00781 128.6 3.9
116(11) 0.00862 128.8 4.1
139(12) 0.00719 129.1 4.2
154(12) 0.00649 129.3 4.4
138(12) 0.00725 129.5 4.6
140(12) 0.00714 129.7 4.9
156(12) 0.00641 129.9 5.1
122(11) 0.00820 130.2 5.4
132(11) 0.00758 130.4 5.7
135(12) 0.00741 130.6 6.0
136(12) 0.00735 130.8 6.3
122(11) 0.00820 131.0 6.6
144(12) 0.00694 131.3 7.0
147(12) 0.00680 131.5 7.5
139(12) 0.00719 131.7 7.9
141(12) 0.00709 131.9 8.4
144(12) 0.00694 132.1 9.0
153(12) 0.00654 132.4 9.6
147(12) 0.00680 132.6 10.3
154(12) 0.00649 132.8 11.0
165(13) 0.00606 133.0 11.8
129(11) 0.00775 133.2 12.8
128(11) 0.00781 133.5 13.9
142(12) 0.00704 133.7 15.1
136(12) 0.00735 133.9 16.4
161(13) 0.00621 134.1 18.0
150(12) 0.00667 134.3 19.8
144(12) 0.00694 134.6 21.9
141(12) 0.00709 134.8 24.3
145(12) 0.00690 135.0 27.0
149(12) 0.00671 135.2 30.1
154(12) 0.00649 135.4 33.7
153(12) 0.00654 135.7 37.7
158(13) 0.00633 135.9 42.3
155(12) 0.00645 136.1 47.4
148(12) 0.00676 136.3 53.1
144(12) 0.00694 136.5 59.4
150(12) 0.00667 136.8 66.2
149(12) 0.00671 137.0 73.4
173(13) 0.00578 137.2 80.8
170(13) 0.00588 137.4 88.1
176(13) 0.00568 137.6 94.9
180(13) 0.00556 137.9 100.6
180(13) 0.00556 138.1 104.8
160(13) 0.00625 138.3 106.9
181(13) 0.00552 138.5 106.7
158(13) 0.00633 138.7 104.2
168(13) 0.00595 139.0 99.8
139(12) 0.00719 139.2 93.9
170(13) 0.00588 139.4 87.0
157(13) 0.00637 139.6 79.6
153(12) 0.00654 139.9 72.2
181(13) 0.00552 140.1 65.1
150(12) 0.00667 140.3 58.4
146(12) 0.00685 140.5 52.2
132(11) 0.00758 140.7 46.5
150(12) 0.00667 141.0 41.5
175(13) 0.00571 141.2 37.0
154(12) 0.00649 141.4 33.0
164(13) 0.00610 141.6 29.6
155(12) 0.00645 141.8 26.5
129(11) 0.00775 142.1 23.8
168(13) 0.00595 142.3 21.5
174(13) 0.00575 142.5 19.5
147(12) 0.00680 142.7 17.7
165(13) 0.00606 142.9 16.2
144(12) 0.00694 143.2 14.9
157(13) 0.00637 143.4 13.7
147(12) 0.00680 143.6 12.6
154(12) 0.00649 143.8 11.7
173(13) 0.00578 144.0 10.9
144(12) 0.00694 144.3 10.1
154(12) 0.00649 144.5 9.5
152(12) 0.00658 144.7 8.9
156(12) 0.00641 144.9 8.3
161(13) 0.00621 145.1 7.8
170(13) 0.00588 145.4 7.4
157(13) 0.00637 145.6 7.0
160(13) 0.00625 145.8 6.6
155(12) 0.00645 146.0 6.2
145(12) 0.00690 146.2 5.9
145(12) 0.00690 146.5 5.6
155(12) 0.00645 146.7 5.3
148(12) 0.00676 146.9 5.1
138(12) 0.00725 147.1 4.8
140(12) 0.00714 147.3 4.6
144(12) 0.00694 147.6 17.1
150(12) 0.00667 147.8 17.1
151(12) 0.00662 148.0 17.0
147(12) 0.00680 148.2 17.0
152(12) 0.00658 148.4 17.0
147(12) 0.00680 148.7 17.0
158(13) 0.00633 148.9 17.0
145(12) 0.00690 149.1 17.0
156(12) 0.00641 149.3 17.1
154(12) 0.00649 149.5 17.1
145(12) 0.00690 149.8 17.2
139(12) 0.00719 150.0 17.3
145(12) 0.00690 150.2 17.3
149(12) 0.00671 150.4 17.4
137(12) 0.00730 150.7 17.5
151(12) 0.00662 150.9 17.6
150(12) 0.00667 151.1 17.7
157(13) 0.00637 151.3 17.8
163(13) 0.00614 151.5 18.0
164(13) 0.00610 151.8 18.1
145(12) 0.00690 152.0 18.2
139(12) 0.00719 152.2 18.4
167(13) 0.00599 152.4 18.5
152(12) 0.00658 152.6 18.7
141(12) 0.00709 152.9 18.9
163(13) 0.00614 153.1 19.0
148(12) 0.00676 153.3 19.2
151(12) 0.00662 153.5 19.4
151(12) 0.00662 153.7 19.6
169(13) 0.00592 154.0 19.8
150(12) 0.00667 154.2 20.0
150(12) 0.00667 154.4 20.2
180(13) 0.00556 154.6 20.4
146(12) 0.00685 154.8 20.7
141(12) 0.00709 155.1 20.9
139(12) 0.00719 155.3 21.1
147(12) 0.00680 155.5 21.4
169(13) 0.00592 155.7 21.6
180(13) 0.00556 155.9 21.9
167(13) 0.00599 156.2 22.2
171(13) 0.00585 156.4 22.5
185(14) 0.00541 156.6 22.8
180(13) 0.00556 156.8 23.0
183(14) 0.00546 157.0 23.4
187(14) 0.00535 157.3 23.7
198(14) 0.00505 157.5 24.0
218(15) 0.00459 157.7 24.3
188(14) 0.00532 157.9 24.7
201(14) 0.00498 158.1 25.0
202(14) 0.00495 158.4 25.4
171(13) 0.00585 158.6 25.7
206(14) 0.00485 158.8 26.1
193(14) 0.00518 159.0 26.5
191(14) 0.00524 159.2 26.9
206(14) 0.00485 159.5 27.3
168(13) 0.00595 159.7 27.7
213(15) 0.00469 159.9 28.2
198(14) 0.00505 160.1 28.6
219(15) 0.00457 160.4 29.1
198(14) 0.00505 160.6 29.5
188(14) 0.00532 160.8 30.0
168(13) 0.00595 161.0 30.5
183(14) 0.00546 161.2 31.0
190(14) 0.00526 161.5 31.5
181(13) 0.00552 161.7 32.1
156(12) 0.00641 161.9 32.6
170(13) 0.00588 162.1 33.2
180(13) 0.00556 162.3 33.8
200(14) 0.00500 162.6 34.4
192(14) 0.00521 162.8 35.0
200(14) 0.00500 163.0 35.7
175(13) 0.00571 163.2 36.3
179(13) 0.00559 163.4 37.0
186(14) 0.00538 163.7 37.7
181(13) 0.00552 163.9 38.4
182(13) 0.00549 164.1 39.2
173(13) 0.00578 164.3 39.9
179(13) 0.00559 164.5 40.7
168(13) 0.00595 164.8 41.5
180(13) 0.00556 165.0 42.4
183(14) 0.00546 165.2 43.2
179(13) 0.00559 165.4 44.1
176(13) 0.00568 165.6 45.1
165(13) 0.00606 165.8 46.0
178(13) 0.00562 166.0 47.0
180(13) 0.00556 166.2 48.0
189(14) 0.00529 166.3 49.1
186(14) 0.00538 166.5 50.2
191(14) 0.00524 166.7 51.3
188(14) 0.00532 166.9 52.5
167(13) 0.00599 167.1 53.7
170(13) 0.00588 167.2 54.9
165(13) 0.00606 167.4 56.2
178(13) 0.00562 167.6 57.6
188(14) 0.00532 167.8 59.0
182(13) 0.00549 167.9 60.4
177(13) 0.00565 168.1 61.9
172(13) 0.00581 168.3 63.5
198(14) 0.00505 168.5 65.1
190(14) 0.00526 168.6 66.8
193(14) 0.00518 168.8 68.5
179(13) 0.00559 169.0 70.3
197(14) 0.00508 169.2 72.2
185(14) 0.00541 169.4 74.2
190(14) 0.00526 169.5 76.3
190(14) 0.00526 169.7 78.4
187(14) 0.00535 169.9 80.7
187(14) 0.00535 170.1 83.0
206(14) 0.00485 170.2 85.4
204(14) 0.00490 170.4 88.0
190(14) 0.00526 170.6 90.7
194(14) 0.00515 170.8 93.5
192(14) 0.00521 170.9 96.4
188(14) 0.00532 171.1 99.4
194(14) 0.00515 171.3 102.7
203(14) 0.00493 171.5 106.0
233(15) 0.00429 171.7 109.6
219(15) 0.00457 171.8 113.3
235(15) 0.00426 172.0 117.2
233(15) 0.00429 172.2 121.3
208(14) 0.00481 172.4 125.7
234(15) 0.00427 172.5 130.3
257(16) 0.00389 172.7 135.1
219(15) 0.00457 172.9 140.2
259(16) 0.00386 173.1 145.7
232(15) 0.00431 173.2 151.4
233(15) 0.00429 173.4 157.5
254(16) 0.00394 173.6 163.9
267(16) 0.00375 173.8 170.8
275(17) 0.00364 174.0 178.1
291(17) 0.003436 174.1 185.9
253(16) 0.00395 174.3 194.2
289(17) 0.003460 174.5 203.1
305(17) 0.003279 174.7 212.6
310(18) 0.003226 174.8 222.8
314(18) 0.003185 175.0 233.7
319(18) 0.003135 175.2 245.5
336(18) 0.002976 175.4 258.1
341(18) 0.002933 175.5 271.8
359(19) 0.002786 175.7 286.6
355(19) 0.002817 175.9 302.6
373(19) 0.002681 176.1 320.0
352(19) 0.002841 176.3 339.0
435(21) 0.002299 176.4 359.7
431(21) 0.002320 176.6 382.3
410(20) 0.002439 176.8 407.1
480(22) 0.002083 177.0 434.4
517(23) 0.001934 177.1 464.5
482(22) 0.002075 177.3 497.9
486(22) 0.002058 177.5 535.0
567(24) 0.001764 177.7 576.3
609(25) 0.001642 177.8 622.6
628(25) 0.001592 178.0 674.7
715(27) 0.001399 178.2 733.5
738(27) 0.001355 178.4 800.4
812(28) 0.001232 178.6 876.6
887(30) 0.001127 178.7 964.3
1020(32) 0.000980 178.9 1065.5
1084(33) 0.000923 179.1 1183.4
1233(35) 0.000811 179. 1322.
1370(37) 0.000730 179. 1485.
1562(40) 0.000640 180. 1681.
1756(42) 0.000569 180. 1916.
2100(46) 0.000476 180. 2204.
2440(49) 0.000410 180. 2560.
2946(54) 0.0003394 180. 3008.
3502(59) 0.0002856 180. 3584.
4408(66) 0.0002269 181. 4343.
5509(74) 0.0001815 181. 5370.
7051(84) 0.0001418 181. 6797.
9195(96) 0.0001088 181. 8814.
12260(110) 0.0000816 181. 11672.
16400(130) 0.0000610 182. 15656.
20980(150) 0.0000477 182. 20952.
26620(160) 0.0000376 182. 27230.
31400(180) 0.0000318 182. 32843.
33320(180) 0.0000300 182. 34826.
30700(180) 0.0000326 182. 31759.
24670(160) 0.0000405 183. 25754.
18930(140) 0.0000528 183. 19618.
14540(120) 0.0000688 183. 14624.
11630(110) 0.0000860 183. 10924.
9057(95) 0.0001104 183. 8285.
7297(85) 0.0001370 184. 6424.
5799(76) 0.0001724 184. 5103.
4718(69) 0.0002120 184. 4148.
3814(62) 0.0002622 184. 3438.
3334(58) 0.0002999 184. 2895.
2708(52) 0.000369 184. 2471.
2440(49) 0.000410 185. 2132.
2111(46) 0.000474 185. 1858.
1850(43) 0.000541 185. 1632.
1618(40) 0.000618 185. 1445.
1376(37) 0.000727 185. 1288.
1306(36) 0.000766 185. 1155.
1182(34) 0.000846 185.6 1040.8
1098(33) 0.000911 185.8 942.9
1000(32) 0.001000 186.0 858.1
897(30) 0.001115 186.2 784.1
844(29) 0.001185 186.3 719.3
820(29) 0.001220 186.5 662.1
768(28) 0.001302 186.7 611.4
743(27) 0.001346 186.9 566.3
665(26) 0.001504 187.0 526.0
634(25) 0.001577 187.2 489.8
612(25) 0.001634 187.4 457.2
568(24) 0.001761 187.6 427.8
520(23) 0.001923 187.8 401.1
529(23) 0.001890 187.9 376.8
508(23) 0.001968 188.1 354.6
521(23) 0.001919 188.3 334.4
462(21) 0.002164 188.5 315.8
449(21) 0.002227 188.6 298.7
444(21) 0.002252 188.8 283.0
415(20) 0.002410 189.0 268.5
406(20) 0.002463 189.2 255.0
412(20) 0.002427 189.3 242.6
397(20) 0.002519 189.5 231.5
377(19) 0.002653 189.7 220.8
378(19) 0.002646 189.9 210.8
381(20) 0.002625 190.1 201.4
371(19) 0.002695 190.2 192.7
371(19) 0.002695 190.4 184.5
346(19) 0.002890 190.6 176.8
335(18) 0.002985 190.8 169.6
333(18) 0.003003 190.9 162.8
306(17) 0.003268 191.1 156.5
329(18) 0.003039 191.3 150.5
366(19) 0.002732 191.5 144.8
339(18) 0.002950 191.6 139.5
331(18) 0.003021 191.8 134.4
328(18) 0.003049 192.0 129.6
347(19) 0.002882 192.2 125.1
313(18) 0.003195 192.4 120.8
299(17) 0.003344 192.5 116.7
304(17) 0.003289 192.7 112.8
296(17) 0.003378 192.9 109.2
298(17) 0.003356 193.1 105.6
311(18) 0.003215 193.2 102.3
308(18) 0.003247 193.4 118.6
315(18) 0.003175 193.6 115.7
285(17) 0.00351 193.8 113.0
317(18) 0.003155 193.9 110.4
294(17) 0.003401 194.1 107.9
261(16) 0.00383 194.3 105.6
308(18) 0.003247 194.5 103.4
300(17) 0.003333 194.7 101.2
293(17) 0.003413 194.8 99.2
312(18) 0.003205 195.0 97.3
295(17) 0.003390 195.2 95.4
295(17) 0.003390 195.4 93.7
307(18) 0.003257 195.5 92.0
287(17) 0.003484 195.7 90.4
301(17) 0.003322 195.9 88.9
304(17) 0.003289 196.1 87.4
312(18) 0.003205 196.2 86.0
305(17) 0.003279 196.4 84.7
307(18) 0.003257 196.6 83.4
309(18) 0.003236 196.8 82.2
300(17) 0.003333 197.0 81.0
294(17) 0.003401 197.1 79.9
275(17) 0.00364 197.3 78.9
281(17) 0.00356 197.5 77.9
312(18) 0.003205 197.7 76.9
314(18) 0.003185 197.8 76.0
316(18) 0.003165 198.0 75.1
283(17) 0.00353 198.2 74.3
277(17) 0.00361 198.4 73.5
297(17) 0.003367 198.5 72.7
276(17) 0.00362 198.7 72.0
265(16) 0.00377 198.9 71.3
299(17) 0.003344 199.1 70.7
287(17) 0.003484 199.2 70.0
280(17) 0.00357 199.4 69.5
285(17) 0.00351 199.6 68.9
266(16) 0.00376 199.8 68.4
246(16) 0.00407 200.0 67.9
275(17) 0.00364 200.1 67.4
249(16) 0.00402 200.3 67.0
297(17) 0.003367 200.5 66.6
261(16) 0.00383 200.7 66.2
250(16) 0.00400 200.8 65.8
260(16) 0.00385 201.0 65.5
248(16) 0.00403 201.2 65.2
245(16) 0.00408 201.4 64.9
240(15) 0.00417 201.5 64.6
237(15) 0.00422 201.7 64.4
197(14) 0.00508 201.9 64.1
215(15) 0.00465 202.1 63.9
229(15) 0.00437 202.3 63.8
250(16) 0.00400 202.4 63.6
240(15) 0.00417 202.6 63.5
223(15) 0.00448 202.8 63.3
210(14) 0.00476 203.0 63.2
196(14) 0.00510 203.1 63.2
234(15) 0.00427 203.3 63.1
215(15) 0.00465 203.5 63.1
224(15) 0.00446 203.7 63.0
207(14) 0.00483 203.8 63.0
219(15) 0.00457 204.0 63.1
240(15) 0.00417 204.2 63.1
210(14) 0.00476 204.4 63.1
233(15) 0.00429 204.6 63.2
213(15) 0.00469 204.7 63.3
216(15) 0.00463 204.9 63.4
224(15) 0.00446 205.1 63.5
224(15) 0.00446 205.3 63.7
219(15) 0.00457 205.4 63.8
211(15) 0.00474 205.6 64.0
230(15) 0.00435 205.8 64.2
230(15) 0.00435 206.0 64.4
206(14) 0.00485 206.1 64.6
218(15) 0.00459 206.3 64.9
211(15) 0.00474 206.5 65.1
219(15) 0.00457 206.7 65.4
215(15) 0.00465 206.9 65.7
223(15) 0.00448 207.0 66.0
251(16) 0.00398 207.2 66.4
223(15) 0.00448 207.4 66.7
224(15) 0.00446 207.6 67.1
201(14) 0.00498 207.7 67.5
223(15) 0.00448 207.9 67.9
213(15) 0.00469 208.1 68.3
227(15) 0.00441 208.1 68.8
224(15) 0.00446 208.2 69.2
224(15) 0.00446 208.3 69.7
231(15) 0.00433 208.4 70.2
226(15) 0.00442 208.5 70.8
257(16) 0.00389 208.5 71.3
207(14) 0.00483 208.6 71.9
224(15) 0.00446 208.7 72.5
201(14) 0.00498 208.8 73.1
234(15) 0.00427 208.9 73.8
225(15) 0.00444 208.9 74.4
223(15) 0.00448 209.0 75.1
240(15) 0.00417 209.1 75.8
211(15) 0.00474 209.2 76.6
204(14) 0.00490 209.3 77.3
205(14) 0.00488 209.3 78.1
243(16) 0.00412 209.4 78.9
220(15) 0.00455 209.5 79.8
245(16) 0.00408 209.6 80.6
236(15) 0.00424 209.6 81.5
255(16) 0.00392 209.7 82.5
259(16) 0.00386 209.8 83.4
272(16) 0.00368 209.9 84.4
241(16) 0.00415 210.0 85.4
253(16) 0.00395 210.0 86.5
236(15) 0.00424 210.1 87.6
217(15) 0.00461 210.2 88.7
249(16) 0.00402 210.3 89.9
255(16) 0.00392 210.4 91.1
236(15) 0.00424 210.4 92.3
242(16) 0.00413 210.5 93.6
257(16) 0.00389 210.6 94.9
235(15) 0.00426 210.7 96.2
262(16) 0.00382 210.8 97.6
249(16) 0.00402 210.8 99.1
267(16) 0.00375 210.9 100.6
270(16) 0.00370 211.0 102.1
250(16) 0.00400 211.1 103.7
281(17) 0.00356 211.1 105.3
273(17) 0.00366 211.2 107.0
252(16) 0.00397 211.3 108.8
299(17) 0.003344 211.4 110.6
271(16) 0.00369 211.5 112.4
290(17) 0.003448 211.5 114.4
281(17) 0.00356 211.6 116.4
281(17) 0.00356 211.7 118.4
274(17) 0.00365 211.8 120.5
292(17) 0.003425 211.9 122.7
289(17) 0.003460 211.9 125.0
300(17) 0.003333 212.0 117.1
327(18) 0.003058 212.1 119.6
323(18) 0.003096 212.2 122.2
313(18) 0.003195 212.3 124.9
308(18) 0.003247 212.3 127.7
305(17) 0.003279 212.4 130.6
334(18) 0.002994 212.5 133.6
324(18) 0.003086 212.6 136.7
296(17) 0.003378 212.6 139.9
313(18) 0.003195 212.7 143.2
333(18) 0.003003 212.8 146.7
316(18) 0.003165 212.9 150.2
333(18) 0.003003 213.0 153.9
345(19) 0.002899 213.0 157.8
322(18) 0.003106 213.1 161.8
362(19) 0.002762 213.2 165.9
368(19) 0.002717 213.3 170.2
353(19) 0.002833 213.4 174.6
373(19) 0.002681 213.4 179.3
431(21) 0.002320 213.5 184.1
395(20) 0.002532 213.6 189.1
394(20) 0.002538 213.7 194.3
398(20) 0.002513 213.7 199.8
387(20) 0.002584 213.8 205.5
372(19) 0.002688 213.9 211.4
412(20) 0.002427 214.0 217.6
446(21) 0.002242 214.1 224.1
441(21) 0.002268 214.1 230.8
473(22) 0.002114 214.2 237.9
472(22) 0.002119 214.3 245.3
531(23) 0.001883 214.4 253.0
496(22) 0.002016 214.5 261.2
525(23) 0.001905 214.5 269.7
579(24) 0.001727 214.6 278.6
606(25) 0.001650 214.7 288.0
656(26) 0.001524 214.8 297.9
710(27) 0.001408 214.9 308.3
697(26) 0.001435 214.9 319.3
726(27) 0.001377 215.0 330.8
747(27) 0.001339 215.1 343.0
708(27) 0.001412 215.2 355.9
726(27) 0.001377 215.2 369.5
744(27) 0.001344 215.3 383.9
725(27) 0.001379 215.4 399.1
700(26) 0.001429 215.5 415.3
766(28) 0.001305 215.6 432.5
716(27) 0.001397 215.6 450.8
738(27) 0.001355 215.7 470.2
786(28) 0.001272 215.8 491.0
763(28) 0.001311 215.9 513.2
767(28) 0.001304 216.0 536.8
828(29) 0.001208 216.0 562.2
768(28) 0.001302 216.1 589.4
864(29) 0.001157 216.2 618.6
836(29) 0.001196 216.3 650.1
879(30) 0.001138 216.4 683.9
863(29) 0.001159 216.4 720.5
855(29) 0.001170 216.5 760.2
954(31) 0.001048 216.6 803.1
943(31) 0.001060 216.7 849.8
953(31) 0.001049 216.7 900.7
1046(32) 0.000956 216.8 956.2
1083(33) 0.000923 216.9 1017.0
1063(33) 0.000941 217.0 1083.8
1174(34) 0.000852 217.1 1157.4
1219(35) 0.000820 217.1 1238.6
1278(36) 0.000782 217. 1329.
1379(37) 0.000725 217. 1429.
1469(38) 0.000681 217. 1540.
1575(40) 0.000635 217. 1666.
1737(42) 0.000576 218. 1807.
1809(43) 0.000553 218. 1966.
2008(45) 0.000498 218. 2147.
2188(47) 0.000457 218. 2354.
2493(50) 0.000401 218. 2592.
2690(52) 0.000372 218. 2866.
3068(55) 0.0003259 218. 3187.
3412(58) 0.0002931 218. 3563.
3838(62) 0.0002606 218. 4009.
4497(67) 0.0002224 218. 4545.
5193(72) 0.0001926 218. 5199.
5962(77) 0.0001677 218. 6006.
6980(84) 0.0001433 218. 7020.
8377(92) 0.0001194 219. 8313.
10130(100) 0.0000987 219. 9980.
12660(110) 0.0000790 219. 12138.
15370(120) 0.0000651 219. 14928.
18940(140) 0.0000528 219. 18501.
24040(160) 0.0000416 219. 22989.
29920(170) 0.0000334 219. 28430.
36280(190) 0.0000276 219. 34620.
43780(210) 0.0000228 219. 40862.
48500(220) 0.0000206 219. 45789.
49930(220) 0.0000200 219. 47756.
45680(210) 0.0000219 219. 45947.
38870(200) 0.0000257 220. 41118.
32740(180) 0.0000305 220. 34903.
27240(170) 0.0000367 220. 28697.
22700(150) 0.0000440 220. 23222.
18970(140) 0.0000527 220. 18700.
15840(130) 0.0000631 220. 15096.
13720(120) 0.0000729 220. 12281.
11670(110) 0.0000857 220. 10105.
9892(99) 0.0001011 220. 8427.
8831(94) 0.0001132 220. 7127.
7506(87) 0.0001332 220. 6111.
6620(81) 0.0001511 220. 5305.
5880(77) 0.0001701 220. 4656.
5142(72) 0.0001945 221. 4127.
4588(68) 0.0002180 221. 3689.
4198(65) 0.0002382 221. 3325.
3750(61) 0.0002667 221. 3019.
3382(58) 0.0002957 221. 2762.
3055(55) 0.0003273 221. 2546.
2921(54) 0.0003423 221. 2366.
2653(52) 0.000377 221. 2219.
2430(49) 0.000412 221. 2101.
2404(49) 0.000416 221. 2013.
2360(49) 0.000424 221. 1954.
2220(47) 0.000450 221. 1924.
2222(47) 0.000450 221. 1925.
2220(47) 0.000450 222. 1958.
2191(47) 0.000456 222. 2021.
2327(48) 0.000430 222. 2113.
2344(48) 0.000427 222. 2220.
2431(49) 0.000411 222. 2323.
2509(50) 0.000399 222. 2389.
2637(51) 0.000379 222. 2386.
2538(50) 0.000394 222. 2298.
2439(49) 0.000410 222. 2138.
2173(47) 0.000460 222. 1936.
1876(43) 0.000533 222. 1725.
1653(41) 0.000605 222. 1526.
1450(38) 0.000690 223. 1348.
1369(37) 0.000730 223. 1195.
1176(34) 0.000850 222.7 1065.9
1072(33) 0.000933 222.7 957.5
989(31) 0.001011 222.8 867.1
904(30) 0.001106 222.9 791.5
860(29) 0.001163 223.0 727.9
768(28) 0.001302 223.1 674.1
780(28) 0.001282 223.1 627.9
718(27) 0.001393 223.2 587.9
693(26) 0.001443 223.3 552.8
658(26) 0.001520 223.4 521.7
584(24) 0.001712 223.5 493.9
649(25) 0.001541 223.5 468.8
604(25) 0.001656 223.6 446.0
588(24) 0.001701 223.7 425.3
523(23) 0.001912 223.8 406.2
571(24) 0.001751 223.8 388.6
514(23) 0.001946 223.9 372.4
526(23) 0.001901 224.0 359.6
494(22) 0.002024 224.1 345.6
491(22) 0.002037 224.2 332.6
450(21) 0.002222 224.2 320.4
451(21) 0.002217 224.3 309.0
474(22) 0.002110 224.4 298.3
432(21) 0.002315 224.5 288.3
394(20) 0.002538 224.6 278.8
421(21) 0.002375 224.6 269.9
410(20) 0.002439 224.7 261.4
390(20) 0.002564 224.8 253.5
421(21) 0.002375 224.9 245.9
396(20) 0.002525 225.0 238.8
378(19) 0.002646 225.0 232.0
366(19) 0.002732 225.1 225.6
410(20) 0.002439 225.2 219.5
375(19) 0.002667 225.3 213.6
397(20) 0.002519 225.3 208.1
393(20) 0.002545 225.4 202.8
358(19) 0.002793 225.5 197.8
380(19) 0.002632 225.6 193.0
383(20) 0.002611 225.7 188.4
374(19) 0.002674 225.7 184.1
360(19) 0.002778 225.8 179.9
356(19) 0.002809 225.9 175.9
389(20) 0.002571 226.0 172.1
319(18) 0.003135 226.1 168.5
350(19) 0.002857 226.1 165.0
324(18) 0.003086 226.2 161.6
347(19) 0.002882 226.3 158.6
336(18) 0.002976 226.4 155.5
306(17) 0.003268 226.5 152.6
323(18) 0.003096 226.5 149.8
338(18) 0.002959 226.6 147.2
315(18) 0.003175 226.7 144.7
339(18) 0.002950 226.8 142.2
305(17) 0.003279 226.8 139.9
320(18) 0.003125 226.9 137.7
325(18) 0.003077 227.0 135.7
322(18) 0.003106 227.1 133.7
285(17) 0.00351 227.2 131.8
319(18) 0.003135 227.2 130.0
314(18) 0.003185 227.3 128.3
309(18) 0.003236 227.4 126.7
320(18) 0.003125 227.5 125.2
286(17) 0.003497 227.6 123.8
290(17) 0.003448 227.6 122.4
299(17) 0.003344 227.7 121.2
314(18) 0.003185 227.8 120.1
301(17) 0.003322 227.9 119.0
309(18) 0.003236 227.9 118.0
307(18) 0.003257 228.0 117.2
314(18) 0.003185 228.1 116.4
307(18) 0.003257 228.2 115.7
315(18) 0.003175 228.3 115.1
338(18) 0.002959 228.3 114.6
355(19) 0.002817 228.4 114.2
361(19) 0.002770 228.5 113.9
417(20) 0.002398 228.6 113.8
502(22) 0.001992 228.7 113.7
514(23) 0.001946 228.7 113.8
465(22) 0.002151 228.8 113.9
422(21) 0.002370 228.9 114.3
361(19) 0.002770 229.0 114.7
352(19) 0.002841 229.1 115.3
337(18) 0.002967 229.1 116.1
309(18) 0.003236 229.2 117.0
317(18) 0.003155 229.3 118.1
333(18) 0.003003 229.4 119.5
321(18) 0.003115 229.4 121.0
332(18) 0.003012 229.5 122.8
344(19) 0.002907 229.6 124.8
325(18) 0.003077 229.7 127.2
336(18) 0.002976 229.8 129.9
329(18) 0.003039 229.8 132.9
311(18) 0.003215 229.9 136.3
352(19) 0.002841 230.0 140.2
340(18) 0.002941 230.1 144.7
319(18) 0.003135 230.2 149.7
334(18) 0.002994 230.2 155.4
363(19) 0.002755 230.3 161.9
347(19) 0.002882 230.4 169.3
338(18) 0.002959 230.5 177.8
400(20) 0.002500 230.6 187.5
403(20) 0.002481 230.6 198.8
433(21) 0.002309 230.7 211.8
423(21) 0.002364 230.8 227.0
427(21) 0.002342 230.9 244.7
493(22) 0.002028 230.9 265.7
511(23) 0.001957 231.0 290.7
501(22) 0.001996 231.1 320.7
554(24) 0.001805 231.2 357.1
638(25) 0.001567 231.3 401.9
692(26) 0.001445 231.3 457.9
766(28) 0.001305 231.4 529.2
873(30) 0.001145 231.5 622.3
1031(32) 0.000970 231.6 746.7
1201(35) 0.000833 231.7 915.9
1467(38) 0.000682 232. 1149.
1864(43) 0.000536 232. 1468.
2290(48) 0.000437 232. 1900.
2805(53) 0.000357 232. 2458.
3513(59) 0.0002847 232. 3117.
4093(64) 0.0002443 232. 3748.
4354(66) 0.0002297 232. 4097.
4214(65) 0.0002373 232. 3963.
3610(60) 0.0002770 232. 3432.
2984(55) 0.0003351 232. 2771.
2429(49) 0.000412 233. 2169.
1940(44) 0.000515 233. 1692.
1661(41) 0.000602 233. 1336.
1436(38) 0.000696 233. 1081.
1218(35) 0.000821 232.8 902.1
1130(34) 0.000885 232.9 779.0
1058(33) 0.000945 233.0 697.1
1016(32) 0.000984 233.1 646.8
1034(32) 0.000967 233.2 623.1
1050(32) 0.000952 233.2 625.1
1010(32) 0.000990 233.3 655.3
1054(32) 0.000949 233.4 720.4
1167(34) 0.000857 233.5 830.9
1341(37) 0.000746 234. 1000.
1503(39) 0.000665 234. 1241.
1712(41) 0.000584 234. 1551.
1902(44) 0.000526 234. 1877.
2116(46) 0.000473 234. 2088.
2273(48) 0.000440 234. 2043.
2042(45) 0.000490 234. 1766.
1672(41) 0.000598 234. 1411.
1366(37) 0.000732 234. 1092.
1044(32) 0.000958 234.3 842.9
855(29) 0.001170 234.3 659.7
724(27) 0.001381 234.4 527.9
609(25) 0.001642 234.5 433.4
550(23) 0.001818 234.6 364.6
524(23) 0.001908 234.7 313.3
433(21) 0.002309 234.7 274.0
466(22) 0.002146 234.8 243.2
427(21) 0.002342 234.9 218.4
434(21) 0.002304 235.0 198.1
401(20) 0.002494 235.0 181.2
421(21) 0.002375 235.1 167.0
370(19) 0.002703 235.2 155.0
402(20) 0.002488 235.3 144.7
362(19) 0.002762 235.4 135.7
398(20) 0.002513 235.4 127.9
351(19) 0.002849 235.5 121.1
368(19) 0.002717 235.6 115.0
355(19) 0.002817 235.7 109.7
344(19) 0.002907 235.8 104.9
333(18) 0.003003 235.8 100.6
362(19) 0.002762 235.9 96.7
358(19) 0.002793 236.0 93.2
338(18) 0.002959 236.1 90.0
348(19) 0.002874 236.2 87.2
334(18) 0.002994 236.2 84.5
363(19) 0.002755 236.3 82.1
373(19) 0.002681 236.4 79.9
345(19) 0.002899 236.5 77.9
342(18) 0.002924 236.5 76.1
332(18) 0.003012 236.6 74.4
339(18) 0.002950 236.7 72.8
326(18) 0.003067 236.8 71.3
327(18) 0.003058 236.9 70.0
316(18) 0.003165 236.9 68.8
351(19) 0.002849 237.0 67.6
334(18) 0.002994 237.1 66.6
361(19) 0.002770 237.2 65.6
336(18) 0.002976 237.3 64.7
357(19) 0.002801 237.3 63.9
368(19) 0.002717 237.4 63.1
342(18) 0.002924 237.5 62.4
363(19) 0.002755 237.6 61.8
335(18) 0.002985 237.7 61.2
340(18) 0.002941 237.7 60.7
389(20) 0.002571 237.8 60.2
375(19) 0.002667 237.9 59.8
350(19) 0.002857 238.0 59.4
381(20) 0.002625 238.0 59.0
348(19) 0.002874 238.1 58.7
329(18) 0.003039 238.2 58.5
335(18) 0.002985 238.3 58.2
346(19) 0.002890 238.4 58.0
330(18) 0.003030 238.4 57.9
357(19) 0.002801 238.5 57.8
366(19) 0.002732 238.6 57.7
366(19) 0.002732 238.7 57.7
343(19) 0.002915 238.8 57.7
379(19) 0.002639 238.8 57.7
343(19) 0.002915 238.9 57.7
349(19) 0.002865 239.0 57.8
358(19) 0.002793 239.1 58.0
355(19) 0.002817 239.2 58.1
383(20) 0.002611 239.2 58.3
373(19) 0.002681 239.3 58.6
380(19) 0.002632 239.4 58.8
354(19) 0.002825 239.5 59.1
353(19) 0.002833 239.5 59.5
341(18) 0.002933 239.6 59.9
340(18) 0.002941 239.7 60.3
335(18) 0.002985 239.8 60.7
314(18) 0.003185 239.9 61.2
313(18) 0.003195 239.9 61.7
318(18) 0.003145 240.0 62.3
369(19) 0.002710 240.1 62.9
335(18) 0.002985 240.2 63.6
316(18) 0.003165 240.3 64.3
347(19) 0.002882 240.3 65.0
322(18) 0.003106 240.4 65.8
307(18) 0.003257 240.5 66.6
289(17) 0.003460 240.6 67.5
308(18) 0.003247 240.6 68.5
298(17) 0.003356 240.7 69.5
330(18) 0.003030 240.8 70.5
322(18) 0.003106 240.9 71.7
330(18) 0.003030 241.0 72.9
312(18) 0.003205 241.0 74.1
303(17) 0.003300 241.1 75.4
347(19) 0.002882 241.2 76.9
347(19) 0.002882 241.3 78.3
329(18) 0.003039 241.4 79.9
348(19) 0.002874 241.4 81.6
319(18) 0.003135 241.5 83.3
322(18) 0.003106 241.6 85.2
311(18) 0.003215 241.7 87.1
315(18) 0.003175 241.8 89.2
321(18) 0.003115 241.8 91.4
322(18) 0.003106 241.9 93.7
357(19) 0.002801 242.0 96.2
336(18) 0.002976 242.1 98.8
333(18) 0.003003 242.1 101.6
311(18) 0.003215 242.2 104.5
341(18) 0.002933 242.3 107.6
356(19) 0.002809 242.4 110.9
360(19) 0.002778 242.5 114.4
364(19) 0.002747 242.5 118.2
326(18) 0.003067 242.6 122.2
327(18) 0.003058 242.7 126.4
318(18) 0.003145 242.8 131.0
337(18) 0.002967 242.9 135.8
353(19) 0.002833 242.9 141.0
381(20) 0.002625 243.0 146.6
376(19) 0.002660 243.1 152.5
381(20) 0.002625 243.2 159.0
365(19) 0.002740 243.3 165.9
390(20) 0.002564 243.3 173.3
403(20) 0.002481 243.4 181.3
405(20) 0.002469 243.5 190.0
437(21) 0.002288 243.6 199.4
386(20) 0.002591 243.6 209.6
415(20) 0.002410 243.7 220.7
442(21) 0.002262 243.8 232.8
490(22) 0.002041 243.9 246.1
458(21) 0.002183 244.0 260.6
480(22) 0.002083 244.0 276.5
543(23) 0.001842 244.1 294.0
568(24) 0.001761 244.2 313.4
554(24) 0.001805 244.3 324.5
577(24) 0.001733 244.4 348.5
590(24) 0.001695 244.4 375.2
633(25) 0.001580 244.5 405.3
639(25) 0.001565 244.6 439.1
719(27) 0.001391 244.7 477.4
741(27) 0.001350 244.8 521.2
806(28) 0.001241 244.8 571.4
830(29) 0.001205 244.9 629.5
994(32) 0.001006 245.0 697.6
1016(32) 0.000984 245.1 777.9
1097(33) 0.000912 245.1 873.7
1228(35) 0.000814 245.2 989.0
1340(37) 0.000746 245. 1129.
1530(39) 0.000654 245. 1299.
1792(42) 0.000558 245. 1506.
2049(45) 0.000488 246. 1759.
2304(48) 0.000434 246. 2064.
2707(52) 0.000369 246. 2431.
3078(55) 0.0003249 246. 2863.
3644(60) 0.0002744 246. 3362.
4264(65) 0.0002345 246. 3916.
4998(71) 0.0002001 246. 4494.
5619(75) 0.0001780 246. 5041.
5954(77) 0.0001680 246. 5476.
6220(79) 0.0001608 246. 5719.
5995(77) 0.0001668 246. 5729.
5684(75) 0.0001759 246. 5531.
5276(73) 0.0001895 246. 5199.
4925(70) 0.0002030 247. 4817.
4548(67) 0.0002199 247. 4450.
4371(66) 0.0002288 247. 4133.
4178(65) 0.0002393 247. 3870.
3999(63) 0.0002501 247. 3649.
3806(62) 0.0002627 247. 3445.
3661(61) 0.0002731 247. 3233.
3350(58) 0.0002985 247. 2996.
3069(55) 0.0003258 247. 2735.
2740(52) 0.000365 247. 2460.
2495(50) 0.000401 247. 2185.
2247(47) 0.000445 247. 1925.
1994(45) 0.000502 248. 1688.
1791(42) 0.000558 248. 1477.
1671(41) 0.000598 248. 1293.
1499(39) 0.000667 248. 1134.
1418(38) 0.000705 248. 998.
1291(36) 0.000775 248. 882.
1206(35) 0.000829 248.0 783.7
1096(33) 0.000912 248.1 699.9
987(31) 0.001013 248.1 628.5
1038(32) 0.000963 248.2 567.6
905(30) 0.001105 248.3 515.4
885(30) 0.001130 248.4 470.3
803(28) 0.001245 248.5 431.2
788(28) 0.001269 248.5 397.0
696(26) 0.001437 248.6 366.9
683(26) 0.001464 248.7 340.2
675(26) 0.001481 248.8 316.5
626(25) 0.001597 248.9 295.2
592(24) 0.001689 248.9 276.0
561(24) 0.001783 249.0 258.7
541(23) 0.001848 249.1 243.0
524(23) 0.001908 249.2 228.7
505(22) 0.001980 249.2 215.6
491(22) 0.002037 249.3 203.7
451(21) 0.002217 249.4 192.7
484(22) 0.002066 249.5 182.6
513(23) 0.001949 249.6 173.3
469(22) 0.002132 249.6 164.6
456(21) 0.002193 249.7 156.7
474(22) 0.002110 249.8 149.3
449(21) 0.002227 249.9 142.4
454(21) 0.002203 250.0 136.0
424(21) 0.002358 250.0 130.0
397(20) 0.002519 250.1 124.4
417(20) 0.002398 250.2 119.2
412(20) 0.002427 250.3 114.3
382(20) 0.002618 250.4 109.7
381(20) 0.002625 250.4 105.3
343(19) 0.002915 250.5 101.3
356(19) 0.002809 250.6 97.5
328(18) 0.003049 250.7 93.8
357(19) 0.002801 250.7 90.4
321(18) 0.003115 250.8 87.2
294(17) 0.003401 250.9 84.2
314(18) 0.003185 251.0 81.3
337(18) 0.002967 251.1 78.5
296(17) 0.003378 251.1 75.9
298(17) 0.003356 251.2 73.5
303(17) 0.003300 251.3 71.1
275(17) 0.00364 251.4 68.9
294(17) 0.003401 251.5 66.8
291(17) 0.003436 251.5 64.8
294(17) 0.003401 251.6 62.8
303(17) 0.003300 251.7 61.0
273(17) 0.00366 251.8 59.2
273(17) 0.00366 251.9 57.5
282(17) 0.00355 251.9 55.9
284(17) 0.00352 252.0 54.4
276(17) 0.00362 252.1 52.9
292(17) 0.003425 252.2 51.5
255(16) 0.00392 252.2 50.2
280(17) 0.00357 252.3 48.9
310(18) 0.003226 252.4 47.6
310(18) 0.003226 252.5 46.4
278(17) 0.00360 252.6 45.3
275(17) 0.00364 252.6 44.2
263(16) 0.00380 252.7 43.1
259(16) 0.00386 252.8 42.1
269(16) 0.00372 252.9 41.1
280(17) 0.00357 253.0 40.2
255(16) 0.00392 253.0 39.3
269(16) 0.00372 253.1 38.4
271(16) 0.00369 253.2 37.6
281(17) 0.00356 253.3 36.7
304(17) 0.003289 253.4 35.9
272(16) 0.00368 253.4 35.2
276(17) 0.00362 253.5 34.5
258(16) 0.00388 253.6 33.7
258(16) 0.00388 253.7 33.1
288(17) 0.003472 253.7 32.4
318(18) 0.003145 253.8 31.8
287(17) 0.003484 253.9 31.1
280(17) 0.00357 254.0 30.6
260(16) 0.00385 254.1 30.0
272(16) 0.00368 254.1 29.4
254(16) 0.00394 254.2 28.9
267(16) 0.00375 254.3 28.4
260(16) 0.00385 254.4 27.8
273(17) 0.00366 254.5 27.4
252(16) 0.00397 254.5 26.9
290(17) 0.003448 254.6 26.4
267(16) 0.00375 254.7 26.0
284(17) 0.00352 254.8 25.5
270(16) 0.00370 254.8 25.1
252(16) 0.00397 254.9 24.7
241(16) 0.00415 255.0 24.3
268(16) 0.00373 255.1 23.9
256(16) 0.00391 255.2 23.6
280(17) 0.00357 255.2 23.2
269(16) 0.00372 255.3 22.9
263(16) 0.00380 255.4 22.5
265(16) 0.00377 255.5 22.2
253(16) 0.00395 255.6 21.9
295(17) 0.003390 255.6 21.6
271(16) 0.00369 255.7 21.3
249(16) 0.00402 255.8 21.0
262(16) 0.00382 255.9 20.7
263(16) 0.00380 256.0 20.4
261(16) 0.00383 256.0 20.2
283(17) 0.00353 256.1 19.9
285(17) 0.00351 256.2 19.7
270(16) 0.00370 256.2 19.5
249(16) 0.00402 256.2 19.2
266(16) 0.00376 256.2 19.0
267(16) 0.00375 256.2 18.8
292(17) 0.003425 256.2 18.6
227(15) 0.00441 256.2 18.4
275(17) 0.00364 256.2 18.2
266(16) 0.00376 256.2 18.0
290(17) 0.003448 256.2 17.9
263(16) 0.00380 256.2 17.7
264(16) 0.00379 256.2 17.5
262(16) 0.00382 256.2 17.4
269(16) 0.00372 256.2 17.2
272(16) 0.00368 256.3 17.1
277(17) 0.00361 256.3 17.0
252(16) 0.00397 256.3 16.9
289(17) 0.003460 256.3 16.7
255(16) 0.00392 256.3 16.6
253(16) 0.00395 256.3 16.5
261(16) 0.00383 256.3 16.4
284(17) 0.0 0.0 .
254(16) 0.0 0.0 .
275(17) 0.0 0.0 .
252(16) 0.0 0.0 .
285(17) 0.0 0.0 .
287(17) 0.0 0.0 .
304(17) 0.0 0.0 .
346(19) 0.0 0.0 .
409(20) 0.0 0.0 .
459(21) 0.0 0.0 .
453(21) 0.0 0.0 .
473(22) 0.0 0.0 .
453(21) 0.0 0.0 .
478(22) 0.0 0.0 .
598(24) 0.0 0.0 .
722(27) 0.0 0.0 .
675(26) 0.0 0.0 .
658(26) 0.0 0.0 .
607(25) 0.0 0.0 .
332(18) 0.0 0.0 .
313(18) 0.0 0.0 .
286(17) 0.0 0.0 .
259(16) 0.0 0.0 .
265(16) 0.0 0.0 .
287(17) 0.0 0.0 .
254(16) 0.0 0.0 .
269(16) 0.0 0.0 .
284(17) 0.0 0.0 .
273(17) 0.0 0.0 .
285(17) 0.00351 256.4 15.6
274(17) 0.00365 256.4 15.7
283(17) 0.00353 256.4 15.8
260(16) 0.00385 256.4 15.9
273(17) 0.00366 256.4 16.1
281(17) 0.00356 256.4 16.2
248(16) 0.00403 256.4 16.4
274(17) 0.00365 256.4 16.6
263(16) 0.00380 256.4 16.8
266(16) 0.00376 256.4 17.0
260(16) 0.00385 256.4 17.3
279(17) 0.00358 256.4 17.5
283(17) 0.00353 256.4 17.8
252(16) 0.00397 256.4 18.2
270(16) 0.00370 256.4 18.5
277(17) 0.00361 256.4 18.9
292(17) 0.003425 256.4 19.3
284(17) 0.00352 256.4 19.7
292(17) 0.003425 256.4 20.2
272(16) 0.00368 256.4 20.7
308(18) 0.003247 256.4 21.3
277(17) 0.00361 256.4 21.9
274(17) 0.00365 256.4 22.5
297(17) 0.003367 256.4 23.3
318(18) 0.003145 256.4 24.0
316(18) 0.003165 256.4 24.9
303(17) 0.003300 256.4 25.8
303(17) 0.003300 256.4 26.8
299(17) 0.003344 256.4 27.9
321(18) 0.003115 256.4 29.1
332(18) 0.003012 256.4 30.5
336(18) 0.002976 256.4 32.0
315(18) 0.003175 256.4 33.6
300(17) 0.003333 256.5 35.4
291(17) 0.003436 256.5 37.5
311(18) 0.003215 256.5 39.8
337(18) 0.002967 256.5 42.4
330(18) 0.003030 256.5 45.3
330(18) 0.003030 256.5 48.6
338(18) 0.002959 256.5 52.4
355(19) 0.002817 256.5 56.7
329(18) 0.003039 256.5 61.5
346(19) 0.002890 256.5 67.1
357(19) 0.002801 256.5 73.4
368(19) 0.002717 256.5 80.6
357(19) 0.002801 256.5 88.8
389(20) 0.002571 256.5 97.9
383(20) 0.002611 256.5 108.3
395(20) 0.002532 256.5 119.8
423(21) 0.002364 256.5 132.6
409(20) 0.002445 256.5 146.6
411(20) 0.002433 256.5 161.8
437(21) 0.002288 256.5 178.0
476(22) 0.002101 256.5 195.0
468(22) 0.002137 256.5 212.2
520(23) 0.001923 256.5 229.0
519(23) 0.001927 256.5 244.4
508(23) 0.001968 256.5 257.4
555(24) 0.001802 256.5 266.9
521(23) 0.001919 256.5 272.1
572(24) 0.001748 256.5 272.3
524(23) 0.001908 256.5 267.5
537(23) 0.001862 256.5 258.3
519(23) 0.001927 256.5 245.5
519(23) 0.001927 256.5 230.2
479(22) 0.002088 256.5 213.4
474(22) 0.002110 256.5 196.1
471(22) 0.002123 256.6 179.0
447(21) 0.002237 256.6 162.6
425(21) 0.002353 256.6 147.2
415(20) 0.002410 256.6 133.0
392(20) 0.002551 256.6 120.0
366(19) 0.002732 256.6 108.3
374(19) 0.002674 256.6 97.7
357(19) 0.002801 256.6 88.4
363(19) 0.002755 256.6 80.0
367(19) 0.002725 256.6 72.7
371(19) 0.002695 256.6 66.2
346(19) 0.002890 256.6 60.5
341(18) 0.002933 256.6 55.4
347(19) 0.002882 256.6 51.0
377(19) 0.002653 256.6 47.1
374(19) 0.002674 256.6 43.7
356(19) 0.002809 256.6 40.6
318(18) 0.003145 256.6 37.9
338(18) 0.002959 256.6 35.5
341(18) 0.002933 256.6 33.3
350(19) 0.002857 256.6 31.4
346(19) 0.002890 256.6 29.6
338(18) 0.002959 256.6 28.0
348(19) 0.002874 256.6 26.6
336(18) 0.002976 256.6 25.3
325(18) 0.003077 256.6 24.1
332(18) 0.003012 256.6 22.9
326(18) 0.003067 256.6 21.9
349(19) 0.002865 256.6 21.0
345(19) 0.002899 256.6 20.1
324(18) 0.003086 256.6 19.3
363(19) 0.002755 256.6 18.5
338(18) 0.002959 256.6 17.8
341(18) 0.002933 256.6 17.1
358(19) 0.002793 256.6 16.5
378(19) 0.002646 256.7 15.9
369(19) 0.002710 256.7 15.4
371(19) 0.002695 256.7 14.9
373(19) 0.002681 256.7 14.4
362(19) 0.002762 256.7 13.9
375(19) 0.002667 256.7 13.5
374(19) 0.002674 256.7 13.1
338(18) 0.002959 256.7 12.7
362(19) 0.002762 256.7 12.3
327(18) 0.003058 256.7 12.0
367(19) 0.002725 256.7 11.6
350(19) 0.002857 256.7 11.3
372(19) 0.002688 256.7 11.0
394(20) 0.002538 256.7 10.8
392(20) 0.002551 256.7 10.5
422(21) 0.002370 256.7 10.2
375(19) 0.002667 256.7 10.0
392(20) 0.002551 256.7 9.8
409(20) 0.002445 256.7 9.5
449(21) 0.002227 256.7 9.3
432(21) 0.002315 256.7 9.1
448(21) 0.002232 256.7 8.9
405(20) 0.002469 256.7 8.7
417(20) 0.002398 256.7 8.6
415(20) 0.002410 256.7 8.4
396(20) 0.002525 256.7 8.2
390(20) 0.002564 256.7 8.1
426(21) 0.002347 256.7 7.9
401(20) 0.002494 256.7 7.7
453(21) 0.002208 256.7 7.6
420(20) 0.002381 256.7 7.5
439(21) 0.002278 256.7 7.3
410(20) 0.002439 256.7 7.2
436(21) 0.002294 256.7 7.1
447(21) 0.002237 256.8 7.0
475(22) 0.002105 256.8 6.8
442(21) 0.002262 256.8 6.7
470(22) 0.002128 256.8 6.6
433(21) 0.002309 256.8 6.5
442(21) 0.002262 256.8 6.4
485(22) 0.002062 256.8 6.3
463(22) 0.002160 256.8 6.2
473(22) 0.002114 256.8 6.1
465(22) 0.002151 256.8 6.0
469(22) 0.002132 256.8 6.0
464(22) 0.002155 256.8 5.9
483(22) 0.002070 256.8 5.8
445(21) 0.002247 256.8 5.7
438(21) 0.002283 256.8 5.6
442(21) 0.002262 256.8 5.6
474(22) 0.002110 256.8 5.5
464(22) 0.002155 256.8 5.4
488(22) 0.002049 256.8 5.4
484(22) 0.002066 256.8 5.3
460(21) 0.002174 256.8 5.2
457(21) 0.002188 256.8 5.2
482(22) 0.002075 256.8 5.1
474(22) 0.002110 256.8 5.0
502(22) 0.001992 256.8 5.0
503(22) 0.001988 256.8 4.9
516(23) 0.001938 256.8 4.9
503(22) 0.001988 256.8 4.8
550(23) 0.001818 256.8 4.7
568(24) 0.001761 256.8 4.7
537(23) 0.001862 256.8 4.6
558(24) 0.001792 256.8 4.6
610(25) 0.001639 256.8 4.5
586(24) 0.001706 256.8 4.5
565(24) 0.001770 256.9 4.5
550(23) 0.001818 256.9 4.4
517(23) 0.001934 256.9 4.4
452(21) 0.002212 256.9 4.3
476(22) 0.002101 256.9 4.3
461(21) 0.002169 256.9 4.2
417(20) 0.002398 256.9 4.2
422(21) 0.002370 256.9 4.2
428(21) 0.002336 256.9 4.1
431(21) 0.002320 256.9 4.1
417(20) 0.002398 256.9 4.0
374(19) 0.002674 256.9 4.0
405(20) 0.002469 256.9 4.0
370(19) 0.002703 256.9 3.9
393(20) 0.002545 256.9 3.9
355(19) 0.002817 256.9 3.9
365(19) 0.002740 256.9 3.8
340(18) 0.002941 256.9 3.8
376(19) 0.002660 256.9 3.8
378(19) 0.002646 256.9 3.7
348(19) 0.002874 256.9 3.7
330(18) 0.003030 256.9 3.7
335(18) 0.002985 256.9 3.6
349(19) 0.002865 256.9 3.6
347(19) 0.002882 256.9 3.6
322(18) 0.003106 256.9 3.5
328(18) 0.003049 256.9 3.5
321(18) 0.003115 256.9 3.5
356(19) 0.002809 256.9 3.5
349(19) 0.002865 256.9 3.4
354(19) 0.002825 256.9 3.4
327(18) 0.003058 256.9 3.4
313(18) 0.003195 256.9 3.4
324(18) 0.003086 256.9 3.3
307(18) 0.003257 257.0 3.3
310(18) 0.003226 257.0 3.3
314(18) 0.003185 257.0 3.3
346(19) 0.002890 257.0 3.2
349(19) 0.002865 257.0 3.2
324(18) 0.003086 257.0 3.2
318(18) 0.003145 257.0 3.2
301(17) 0.003322 257.0 3.2
330(18) 0.003030 257.0 3.1
345(19) 0.002899 257.0 3.1
322(18) 0.003106 257.0 3.1
305(17) 0.003279 257.0 3.1
311(18) 0.003215 257.0 3.1
305(17) 0.003279 257.0 3.0
335(18) 0.002985 257.0 3.0
301(17) 0.003322 257.0 3.0
303(17) 0.003300 257.0 3.0
334(18) 0.002994 257.0 3.0
307(18) 0.003257 257.0 2.9
311(18) 0.003215 257.0 2.9
299(17) 0.003344 257.0 2.9
318(18) 0.003145 257.0 2.9
301(17) 0.003322 257.0 2.9
336(18) 0.002976 257.0 2.9
322(18) 0.003106 257.0 2.8
314(18) 0.003185 257.0 2.8
315(18) 0.003175 257.0 2.8
295(17) 0.003390 257.0 2.8
294(17) 0.003401 257.0 2.8
320(18) 0.003125 257.0 2.8
314(18) 0.003185 257.0 2.7
328(18) 0.003049 257.0 2.7
326(18) 0.003067 257.0 2.7
318(18) 0.003145 257.0 2.7
322(18) 0.003106 257.0 2.7
300(17) 0.003333 257.1 2.7
292(17) 0.003425 257.1 2.7
315(18) 0.003175 257.1 2.7
289(17) 0.003460 257.1 2.6
311(18) 0.003215 257.1 2.6
316(18) 0.003165 257.1 2.6
290(17) 0.003448 257.1 2.6
312(18) 0.003205 257.1 2.6
293(17) 0.003413 257.1 2.6
312(18) 0.003205 257.1 2.6
325(18) 0.003077 257.1 2.6
300(17) 0.003333 257.1 2.5
308(18) 0.003247 257.1 2.5
283(17) 0.00353 257.1 2.5
307(18) 0.003257 257.1 2.5
271(16) 0.00369 257.1 2.5
285(17) 0.00351 257.1 2.5
312(18) 0.003205 257.1 2.5
299(17) 0.003344 257.1 2.5
323(18) 0.003096 257.1 2.5
323(18) 0.003096 257.1 2.5
304(17) 0.003289 257.1 2.4
318(18) 0.003145 257.1 2.4
302(17) 0.003311 257.1 2.4
290(17) 0.003448 257.1 2.4
283(17) 0.00353 257.1 2.4
308(18) 0.003247 257.1 2.4
286(17) 0.003497 257.1 2.4
302(17) 0.003311 257.1 2.4
272(16) 0.00368 257.1 2.4
308(18) 0.003247 257.1 2.4
310(18) 0.003226 257.1 2.4
303(17) 0.003300 257.1 2.4
307(18) 0.003257 257.1 2.4
285(17) 0.00351 257.2 2.5
310(18) 0.003226 257.2 2.5
306(17) 0.003268 257.2 2.4
320(18) 0.003125 257.2 2.4
256(16) 0.00391 257.2 2.4
278(17) 0.00360 257.2 2.4
303(17) 0.003300 257.2 2.4
289(17) 0.003460 257.2 2.4
248(16) 0.00403 257.2 2.4
302(17) 0.003311 257.2 2.4
303(17) 0.003300 257.2 2.4
265(16) 0.00377 257.2 2.4
278(17) 0.00360 257.2 2.4
281(17) 0.00356 257.2 2.4
255(16) 0.00392 257.2 2.4
276(17) 0.00362 257.2 2.4
291(17) 0.003436 257.2 2.4
282(17) 0.00355 257.2 2.4
291(17) 0.003436 257.2 2.4
290(17) 0.003448 257.2 2.4
298(17) 0.003356 257.2 2.4
283(17) 0.00353 257.2 2.4
277(17) 0.00361 257.2 2.4
293(17) 0.003413 257.2 2.4
271(16) 0.00369 257.2 2.4
263(16) 0.00380 257.2 2.4
277(17) 0.00361 257.2 4.3
265(16) 0.00377 257.2 4.3
286(17) 0.003497 257.2 4.3
294(17) 0.003401 257.2 4.3
279(17) 0.00358 257.2 4.3
270(16) 0.00370 257.2 4.4
315(18) 0.003175 257.2 4.4
294(17) 0.003401 257.2 4.4
252(16) 0.00397 257.3 4.4
293(17) 0.003413 257.3 4.4
298(17) 0.003356 257.3 4.4
271(16) 0.00369 257.3 4.4
268(16) 0.00373 257.3 5.1
280(17) 0.00357 257.3 5.2
320(18) 0.003125 257.3 5.2
323(18) 0.003096 257.3 5.2
276(17) 0.00362 257.3 5.2
277(17) 0.00361 257.3 5.3
281(17) 0.00356 257.3 5.3
278(17) 0.00360 257.3 5.3
275(17) 0.00364 257.3 5.6
270(16) 0.00370 257.3 5.6
278(17) 0.00360 257.3 5.7
268(16) 0.00373 257.3 5.7
268(16) 0.00373 257.3 5.7
264(16) 0.00379 257.3 5.8
294(17) 0.003401 257.3 5.8
277(17) 0.00361 257.3 5.8
264(16) 0.00379 257.3 5.8
280(17) 0.00357 257.3 5.9
298(17) 0.003356 257.3 5.9
291(17) 0.003436 257.3 5.9
265(16) 0.00377 257.3 6.0
282(17) 0.00355 257.3 6.0
272(16) 0.00368 257.3 6.0
299(17) 0.003344 257.3 6.1
285(17) 0.00351 257.3 6.1
274(17) 0.00365 257.3 6.2
276(17) 0.00362 257.3 6.2
312(18) 0.003205 257.3 8.4
269(16) 0.00372 257.3 8.5
282(17) 0.00355 257.3 8.6
257(16) 0.00389 257.3 8.6
256(16) 0.00391 257.4 8.7
282(17) 0.00355 257.4 8.8
270(16) 0.00370 257.4 8.9
290(17) 0.003448 257.4 8.9
275(17) 0.00364 257.5 9.0
265(16) 0.00377 257.6 9.1
298(17) 0.003356 257.7 9.2
274(17) 0.00365 257.8 9.3
269(16) 0.00372 257.9 9.3
314(18) 0.003185 257.9 9.4
275(17) 0.00364 258.0 9.5
249(16) 0.00402 258.1 9.6
274(17) 0.00365 258.2 9.7
270(16) 0.00370 258.3 9.8
285(17) 0.00351 258.4 9.9
261(16) 0.00383 258.5 10.0
253(16) 0.00395 258.6 10.1
261(16) 0.00383 258.7 10.2
259(16) 0.00386 258.8 10.3
252(16) 0.00397 258.8 10.4
279(17) 0.00358 258.9 10.5
267(16) 0.00375 259.0 10.7
285(17) 0.00351 259.1 10.8
274(17) 0.00365 259.2 10.9
286(17) 0.003497 259.3 11.0
301(17) 0.003322 259.4 11.2
316(18) 0.003165 259.5 11.3
319(18) 0.003135 259.6 11.4
298(17) 0.003356 259.7 11.6
297(17) 0.003367 259.7 11.9
281(17) 0.00356 259.8 12.1
286(17) 0.003497 259.9 12.2
256(16) 0.00391 260.0 12.4
271(16) 0.00369 260.1 12.6
273(17) 0.00366 260.2 12.7
255(16) 0.00392 260.3 12.9
261(16) 0.00383 260.4 13.1
249(16) 0.00402 260.5 13.3
250(16) 0.00400 260.6 13.5
260(16) 0.00385 260.6 13.7
263(16) 0.00380 260.7 13.9
268(16) 0.00373 260.8 14.2
275(17) 0.00364 260.9 14.4
272(16) 0.00368 261.0 14.6
285(17) 0.00351 261.1 14.9
261(16) 0.00383 261.2 15.2
247(16) 0.00405 261.3 15.4
275(17) 0.00364 261.4 15.7
262(16) 0.00382 261.5 16.0
291(17) 0.003436 261.5 16.4
275(17) 0.00364 261.6 16.7
262(16) 0.00382 261.7 17.0
269(16) 0.00372 261.8 17.4
256(16) 0.00391 261.9 17.8
287(17) 0.003484 262.0 18.2
265(16) 0.00377 262.1 18.7
247(16) 0.00405 262.2 19.1
289(17) 0.003460 262.3 19.6
309(18) 0.003236 262.4 20.2
287(17) 0.003484 262.5 20.7
299(17) 0.003344 262.5 21.4
275(17) 0.00364 262.6 22.0
287(17) 0.003484 262.7 22.7
301(17) 0.003322 262.8 23.5
291(17) 0.003436 262.9 24.4
303(17) 0.003300 263.0 25.3
298(17) 0.003356 263.1 26.3
308(18) 0.003247 263.2 27.4
282(17) 0.00355 263.3 28.6
282(17) 0.00355 263.4 30.1
286(17) 0.003497 263.4 31.6
277(17) 0.00361 263.5 33.2
307(18) 0.003257 263.6 35.0
290(17) 0.003448 263.7 37.0
317(18) 0.003155 263.8 39.2
333(18) 0.003003 263.9 41.7
292(17) 0.003425 264.0 44.3
272(16) 0.00368 264.1 47.2
289(17) 0.003460 264.2 50.3
324(18) 0.003086 264.3 53.7
318(18) 0.003145 264.3 57.3
322(18) 0.003106 264.4 61.2
317(18) 0.003155 264.5 65.2
308(18) 0.003247 264.6 69.4
327(18) 0.003058 264.7 73.7
319(18) 0.003135 264.8 77.9
342(18) 0.002924 264.9 81.9
337(18) 0.002967 265.0 85.5
342(18) 0.002924 265.1 88.6
336(18) 0.002976 265.2 91.0
359(19) 0.002786 265.2 92.5
341(18) 0.002933 265.3 93.1
358(19) 0.002793 265.4 92.7
338(18) 0.002959 265.5 91.4
346(19) 0.002890 265.6 89.4
325(18) 0.003077 265.7 86.7
358(19) 0.002793 265.8 83.6
310(18) 0.003226 265.9 80.2
330(18) 0.003030 266.0 76.8
333(18) 0.003003 266.1 73.3
301(17) 0.003322 266.1 70.0
316(18) 0.003165 266.2 66.8
335(18) 0.002985 266.3 63.9
332(18) 0.003012 266.4 61.2
342(18) 0.002924 266.5 58.8
309(18) 0.003236 266.6 56.7
294(17) 0.003401 266.7 54.8
312(18) 0.003205 266.8 53.2
360(19) 0.002778 266.9 51.8
337(18) 0.002967 267.0 50.6
328(18) 0.003049 267.0 49.7
321(18) 0.003115 267.1 49.0
369(19) 0.002710 267.2 48.4
335(18) 0.002985 267.3 48.1
343(19) 0.002915 267.4 47.9
324(18) 0.003086 267.5 47.8
311(18) 0.003215 267.6 47.9
337(18) 0.002967 267.7 48.2
370(19) 0.002703 267.8 48.5
326(18) 0.003067 267.9 49.0
352(19) 0.002841 267.9 49.6
347(19) 0.002882 268.0 50.4
331(18) 0.003021 268.1 51.2
301(17) 0.003322 268.2 52.2
318(18) 0.003145 268.3 53.2
329(18) 0.003039 268.4 54.4
333(18) 0.003003 268.5 55.8
341(18) 0.002933 268.6 57.2
333(18) 0.003003 268.7 58.8
318(18) 0.003145 268.8 60.5
364(19) 0.002747 268.8 62.4
331(18) 0.003021 268.9 64.4
331(18) 0.003021 269.0 66.6
345(19) 0.002899 269.1 69.0
314(18) 0.003185 269.2 71.6
356(19) 0.002809 269.3 74.4
368(19) 0.002717 269.4 77.5
361(19) 0.002770 269.5 80.8
333(18) 0.003003 269.6 84.4
337(18) 0.002967 269.7 88.4
338(18) 0.002959 269.7 92.7
361(19) 0.002770 269.8 97.4
328(18) 0.003049 269.9 102.6
353(19) 0.002833 270.0 108.4
394(20) 0.002538 270.1 114.7
358(19) 0.002793 270.2 121.7
387(20) 0.002584 270.3 129.5
348(19) 0.002874 270.4 138.2
363(19) 0.002755 270.5 147.9
417(20) 0.002398 270.6 158.9
419(20) 0.002387 270.6 171.3
420(20) 0.002381 270.7 185.3
450(21) 0.002222 270.8 201.5
458(21) 0.002183 270.9 220.0
449(21) 0.002227 271.0 241.5
504(22) 0.001984 271.1 266.5
514(23) 0.001946 271.2 296.1
517(23) 0.001934 271.3 331.1
580(24) 0.001724 271.4 373.3
588(24) 0.001701 271.5 424.5
628(25) 0.001592 271.6 487.6
725(27) 0.001379 271.6 567.0
868(29) 0.001152 271.7 668.8
953(31) 0.001049 271.8 802.7
1069(33) 0.000935 271.9 983.1
1344(37) 0.000744 272. 1230.
1566(40) 0.000639 272. 1573.
1947(44) 0.000514 272. 2043.
2587(51) 0.000387 272. 2675.
3340(58) 0.0002994 272. 3476.
4431(67) 0.0002257 272. 4368.
5196(72) 0.0001925 273. 5103.
5672(75) 0.0001763 273. 5315.
5039(71) 0.0001985 273. 4871.
4056(64) 0.0002465 273. 4042.
3219(57) 0.0003107 273. 3179.
2505(50) 0.000399 273. 2454.
2091(46) 0.000478 273. 1902.
1770(42) 0.000565 273. 1500.
1517(39) 0.000659 273. 1214.
1329(36) 0.000752 273. 1014.
1262(36) 0.000792 273. 875.
1181(34) 0.000847 273.5 779.3
1051(32) 0.000951 273.6 716.7
1019(32) 0.000981 273.7 680.4
1029(32) 0.000972 273.8 667.7
1021(32) 0.000979 273.9 678.5
1062(33) 0.000942 274.0 715.5
1101(33) 0.000908 274.1 784.0
1193(35) 0.000838 274.2 891.4
1227(35) 0.000815 274.3 1046.8
1311(36) 0.000763 274. 1259.
1522(39) 0.000657 274. 1532.
1826(43) 0.000548 275. 1848.
2087(46) 0.000479 275. 2151.
2314(48) 0.000432 275. 2334.
2369(49) 0.000422 275. 2304.
2213(47) 0.000452 275. 2072.
1933(44) 0.000517 275. 1741.
1642(41) 0.000609 275. 1409.
1289(36) 0.000776 275. 1124.
1125(34) 0.000889 275.2 897.7
921(30) 0.001086 275.3 724.1
784(28) 0.001276 275.4 592.6
678(26) 0.001475 275.5 494.4
667(26) 0.001499 275.6 420.3
620(25) 0.001613 275.7 363.5
536(23) 0.001866 275.8 319.3
529(23) 0.001890 275.9 284.2
449(21) 0.002227 276.0 255.8
510(23) 0.001961 276.1 232.4
448(21) 0.002232 276.1 212.9
440(21) 0.002273 276.2 196.4
452(21) 0.002212 276.3 182.5
402(20) 0.002488 276.4 170.6
385(20) 0.002597 276.5 160.3
416(20) 0.002404 276.6 151.4
414(20) 0.002415 276.7 143.8
384(20) 0.002604 276.8 137.1
400(20) 0.002500 276.9 131.2
382(20) 0.002618 277.0 126.1
393(20) 0.002545 277.0 121.7
377(19) 0.002653 277.1 117.8
388(20) 0.002577 277.2 114.5
399(20) 0.002506 277.3 111.6
370(19) 0.002703 277.4 109.1
354(19) 0.002825 277.5 107.0
362(19) 0.002762 277.6 105.3
332(18) 0.003012 277.7 104.0
337(18) 0.002967 277.8 103.0
346(19) 0.002890 277.9 102.4
354(19) 0.002825 277.9 102.2
337(18) 0.002967 278.0 102.5
334(18) 0.002994 278.1 103.3
339(18) 0.002950 278.2 104.7
331(18) 0.003021 278.3 106.6
351(19) 0.002849 278.4 108.9
346(19) 0.002890 278.5 111.3
358(19) 0.002793 278.6 112.9
313(18) 0.003195 278.7 113.3
342(18) 0.002924 278.8 112.5
351(19) 0.002849 278.8 111.1
351(19) 0.002849 278.9 109.9
354(19) 0.002825 279.0 109.1
343(19) 0.002915 279.1 108.9
365(19) 0.002740 279.2 109.2
323(18) 0.003096 279.3 110.0
366(19) 0.002732 279.4 111.2
372(19) 0.002688 279.5 112.8
365(19) 0.002740 279.6 114.7
354(19) 0.002825 279.7 116.9
401(20) 0.002494 279.7 119.4
372(19) 0.002688 279.8 122.2
340(18) 0.002941 279.9 125.3
369(19) 0.002710 280.0 128.7
378(19) 0.002646 280.1 132.3
391(20) 0.002558 280.2 136.3
411(20) 0.002433 280.3 140.7
433(21) 0.002309 280.4 145.4
385(20) 0.002597 280.5 150.5
388(20) 0.002577 280.6 156.0
394(20) 0.002538 280.7 162.0
426(21) 0.002347 280.7 168.4
447(21) 0.002237 280.8 175.5
438(21) 0.002283 280.9 183.1
423(21) 0.002364 281.0 191.3
477(22) 0.002096 281.1 200.3
483(22) 0.002070 281.2 210.1
482(22) 0.002075 281.3 220.8
469(22) 0.002132 281.4 232.4
500(22) 0.002000 281.5 245.1
524(23) 0.001908 281.6 259.1
518(23) 0.001931 281.6 274.5
556(24) 0.001799 281.7 291.4
600(24) 0.001667 281.8 310.1
621(25) 0.001610 281.9 330.8
596(24) 0.001678 282.0 353.8
670(26) 0.001493 282.1 379.4
674(26) 0.001484 282.2 408.2
749(27) 0.001335 282.3 440.5
773(28) 0.001294 282.4 477.1
824(29) 0.001214 282.5 518.7
850(29) 0.001176 282.5 566.3
905(30) 0.001105 282.6 621.4
1020(32) 0.000980 282.7 685.5
1126(34) 0.000888 282.8 760.7
1276(36) 0.000784 283. 850.
1334(37) 0.000750 283. 956.
1437(38) 0.000696 283. 1084.
1577(40) 0.000634 283. 1238.
1773(42) 0.000564 283. 1424.
2012(45) 0.000497 283. 1648.
2398(49) 0.000417 283. 1917.
2623(51) 0.000381 284. 2238.
3080(55) 0.0003247 284. 2615.
3617(60) 0.0002765 284. 3051.
4158(64) 0.0002405 284. 3545.
4849(70) 0.0002062 284. 4082.
5461(74) 0.0001831 284. 4633.
6184(79) 0.0001617 284. 5148.
6764(82) 0.0001478 284. 5554.
6834(83) 0.0001463 284. 5778.
6580(81) 0.0001520 284. 5771.
5971(77) 0.0001675 284. 5535.
5344(73) 0.0001871 285. 5121.
4637(68) 0.0002157 285. 4604.
4180(65) 0.0002392 285. 4054.
3767(61) 0.0002655 285. 3520.
3254(57) 0.0003073 285. 3031.
2945(54) 0.0003396 285. 2599.
2668(52) 0.000375 285. 2227.
2415(49) 0.000414 285. 1911.
2117(46) 0.000472 285. 1647.
2011(45) 0.000497 285. 1427.
1838(43) 0.000544 285. 1245.
1625(40) 0.000615 286. 1094.
1541(39) 0.000649 286. 970.
1376(37) 0.000727 286. 867.
1254(35) 0.000797 286. 781.
1192(35) 0.000839 285.9 708.4
1195(35) 0.000837 286.0 647.7
1033(32) 0.000968 286.1 596.0
1004(32) 0.000996 286.1 552.0
915(30) 0.001093 286.2 514.9
904(30) 0.001106 286.3 482.7
853(29) 0.001172 286.4 455.2
831(29) 0.001203 286.5 431.9
800(28) 0.001250 286.6 412.3
739(27) 0.001353 286.7 396.2
729(27) 0.001372 286.8 383.4
699(26) 0.001431 286.9 373.6
732(27) 0.001366 287.0 366.8
646(25) 0.001548 287.0 362.9
649(25) 0.001541 287.1 361.9
699(26) 0.001431 287.2 363.7
678(26) 0.001475 287.3 368.2
674(26) 0.001484 287.4 375.4
683(26) 0.001464 287.5 384.9
637(25) 0.001570 287.6 396.4
679(26) 0.001473 287.7 409.2
682(26) 0.001466 287.8 422.3
671(26) 0.001490 287.9 434.5
722(27) 0.001385 287.9 444.3
700(26) 0.001429 288.0 450.0
684(26) 0.001462 288.1 450.5
732(27) 0.001366 288.2 445.3
688(26) 0.001453 288.3 434.5
680(26) 0.001471 288.4 419.3
629(25) 0.001590 288.5 401.0
604(25) 0.001656 288.6 381.2
621(25) 0.001610 288.7 361.2
618(25) 0.001618 288.8 342.2
590(24) 0.001695 288.8 324.8
530(23) 0.001887 288.9 309.4
531(23) 0.001883 289.0 296.4
548(23) 0.001825 289.1 285.9
501(22) 0.001996 289.2 278.1
565(24) 0.001770 289.3 272.9
575(24) 0.001739 289.4 270.5
584(24) 0.001712 289.5 271.2
585(24) 0.001709 289.6 274.9
596(24) 0.001678 289.7 282.2
579(24) 0.001727 289.8 293.2
623(25) 0.001605 289.8 308.5
623(25) 0.001605 289.9 328.5
674(26) 0.001484 290.0 353.6
710(27) 0.001408 290.1 384.6
671(26) 0.001490 290.2 421.6
741(27) 0.001350 290.3 464.7
787(28) 0.001271 290.4 513.5
869(29) 0.001151 290.5 566.2
899(30) 0.001112 290.6 619.9
948(31) 0.001055 290.7 669.7
984(31) 0.001016 290.7 709.5
1050(32) 0.000952 290.8 734.0
1080(33) 0.000926 290.9 741.0
1116(33) 0.000896 291.0 732.6
1124(34) 0.000890 291.1 714.3
1086(33) 0.000921 291.2 692.8
1003(32) 0.000997 291.3 673.9
1020(32) 0.000980 291.4 661.6
1022(32) 0.000978 291.5 658.2
1000(32) 0.001000 291.6 664.6
1051(32) 0.000951 291.6 680.6
1081(33) 0.000925 291.7 705.5
1076(33) 0.000929 291.8 737.3
1177(34) 0.000850 291.9 773.5
1213(35) 0.000824 292.0 810.2
1366(37) 0.000732 292. 843.
1366(37) 0.000732 292. 866.
1289(36) 0.000776 292. 874.
1323(36) 0.000756 292. 866.
1161(34) 0.000861 292.5 841.4
1130(34) 0.000885 292.5 801.5
1136(34) 0.000880 292.6 750.9
1004(32) 0.000996 292.7 694.3
1019(32) 0.000981 292.8 635.5
952(31) 0.001050 292.9 578.0
929(30) 0.001076 293.0 523.6
867(29) 0.001153 293.1 473.7
767(28) 0.001304 293.2 428.6
756(27) 0.001323 293.3 388.4
730(27) 0.001370 293.4 353.0
693(26) 0.001443 293.4 321.7
690(26) 0.001449 293.5 294.2
661(26) 0.001513 293.6 270.0
640(25) 0.001563 293.7 248.5
580(24) 0.001724 293.8 229.3
600(24) 0.001667 293.9 212.3
570(24) 0.001754 294.0 197.0
523(23) 0.001912 294.1 183.3
542(23) 0.001845 294.2 171.1
522(23) 0.001916 294.3 160.2
471(22) 0.002123 294.3 150.5
467(22) 0.002141 294.4 141.8
460(21) 0.002174 294.5 134.0
460(21) 0.002174 294.6 127.2
415(20) 0.002410 294.7 121.0
400(20) 0.002500 294.8 115.8
414(20) 0.002415 294.9 111.0
434(21) 0.002304 295.0 106.7
412(20) 0.002427 295.1 103.0
412(20) 0.002427 295.2 99.7
403(20) 0.002481 295.2 96.8
412(20) 0.002427 295.3 94.4
392(20) 0.002551 295.4 92.3
381(20) 0.002625 295.5 90.6
386(20) 0.002591 295.6 89.2
379(19) 0.002639 295.7 88.1
390(20) 0.002564 295.8 87.4
363(19) 0.002755 295.9 87.0
346(19) 0.002890 296.0 86.8
360(19) 0.002778 296.1 87.0
371(19) 0.002695 296.1 87.5
380(19) 0.002632 296.2 88.4
332(18) 0.003012 296.3 89.5
375(19) 0.002667 296.4 91.1
379(19) 0.002639 296.5 93.1
344(19) 0.002907 296.6 95.6
363(19) 0.002755 296.7 98.7
387(20) 0.002584 296.8 102.4
385(20) 0.002597 296.9 107.0
406(20) 0.002463 297.0 112.6
398(20) 0.002513 297.0 119.5
428(21) 0.002336 297.1 128.1
433(21) 0.002309 297.2 139.2
433(21) 0.002309 297.3 153.5
481(22) 0.002079 297.4 172.7
502(22) 0.001992 297.5 199.1
571(24) 0.001751 297.6 236.8
651(26) 0.001536 297.7 292.4
782(28) 0.001279 297.8 376.4
951(31) 0.001052 297.9 503.1
1188(34) 0.000842 297.9 687.2
1374(37) 0.000728 298. 925.
1523(39) 0.000657 298. 1141.
1600(40) 0.000625 298. 1182.
1456(38) 0.000687 298. 1007.
1116(33) 0.000896 298.4 759.5
878(30) 0.001139 298.5 551.0
734(27) 0.001362 298.6 402.6
584(24) 0.001712 298.7 302.6
499(22) 0.002004 298.8 235.7
466(22) 0.002146 298.9 190.2
413(20) 0.002421 298.9 158.1
419(20) 0.002387 299.0 134.6
385(20) 0.002597 299.1 116.7
365(19) 0.002740 299.2 102.9
345(19) 0.002899 299.3 91.8
342(18) 0.002924 299.4 82.8
352(19) 0.002841 299.5 75.4
321(18) 0.003115 299.6 69.1
348(19) 0.002874 299.7 63.9
322(18) 0.003106 299.8 59.4
352(19) 0.002841 299.8 55.5
324(18) 0.003086 299.9 52.1
320(18) 0.003125 300.0 49.1
308(18) 0.003247 300.1 46.4
333(18) 0.003003 300.2 44.1
297(17) 0.003367 300.2 42.0
333(18) 0.003003 300.0 40.1
276(17) 0.00362 299.8 38.4
338(18) 0.002959 299.6 36.8
298(17) 0.003356 299.4 35.4
282(17) 0.00355 299.2 34.1
316(18) 0.003165 299.0 32.9
313(18) 0.003195 298.8 31.8
337(18) 0.002967 298.5 30.7
303(17) 0.003300 298.3 29.8
325(18) 0.003077 298.1 28.9
328(18) 0.003049 297.9 28.1
298(17) 0.003356 297.7 27.3
296(17) 0.003378 297.5 26.6
316(18) 0.003165 297.3 25.9
313(18) 0.003195 297.1 25.3
320(18) 0.003125 296.9 24.7
334(18) 0.002994 296.7 24.2
357(19) 0.002801 296.4 23.6
310(18) 0.003226 296.2 23.1
365(19) 0.002740 296.0 22.7
343(19) 0.002915 295.8 22.2
327(18) 0.003058 295.6 21.8
360(19) 0.002778 295.4 21.4
345(19) 0.002899 295.2 21.0
314(18) 0.003185 295.0 20.6
328(18) 0.003049 294.8 20.3
346(19) 0.002890 294.6 20.0
271(16) 0.00369 294.4 19.6
302(17) 0.003311 294.1 19.3
306(17) 0.003268 293.9 19.1
315(18) 0.003175 293.7 18.8
299(17) 0.003344 293.5 18.5
338(18) 0.002959 293.3 18.3
330(18) 0.003030 293.1 18.0
324(18) 0.003086 292.9 17.8
283(17) 0.00353 292.7 17.6
340(18) 0.002941 292.5 17.4
295(17) 0.003390 292.3 17.2
330(18) 0.003030 292.0 17.0
291(17) 0.003436 291.8 16.9
318(18) 0.003145 291.6 16.7
316(18) 0.003165 291.4 16.6
313(18) 0.003195 291.2 16.4
304(17) 0.003289 291.0 16.3
298(17) 0.003356 290.8 16.1
328(18) 0.003049 290.6 16.0
333(18) 0.003003 290.4 15.9
284(17) 0.00352 290.2 15.8
309(18) 0.003236 290.0 15.7
300(17) 0.003333 289.7 15.7
280(17) 0.00357 289.5 15.6
285(17) 0.00351 289.3 15.6
271(16) 0.00369 289.1 15.5
344(19) 0.002907 288.9 15.5
318(18) 0.003145 288.7 15.5
307(18) 0.003257 288.5 15.6
283(17) 0.00353 288.3 15.6
300(17) 0.003333 288.1 15.7
313(18) 0.003195 287.9 15.8
334(18) 0.002994 287.6 15.9
315(18) 0.003175 287.4 16.0
325(18) 0.003077 287.2 16.2
314(18) 0.003185 287.0 16.4
297(17) 0.003367 286.8 16.7
278(17) 0.00360 286.6 17.0
282(17) 0.00355 286.4 17.3
293(17) 0.003413 286.2 17.6
302(17) 0.003311 286.0 18.0
270(16) 0.00370 285.8 18.4
339(18) 0.002950 285.6 18.8
292(17) 0.003425 285.3 19.2
311(18) 0.003215 285.1 19.5
295(17) 0.003390 284.9 19.8
294(17) 0.003401 284.7 20.1
292(17) 0.003425 284.5 20.2
302(17) 0.003311 284.3 20.3
322(18) 0.003106 284.1 20.2
331(18) 0.003021 283.9 20.0
311(18) 0.003215 283.7 19.7
284(17) 0.00352 283.5 19.3
297(17) 0.003367 283.2 18.9
272(16) 0.00368 283.0 18.5
294(17) 0.003401 282.8 18.0
298(17) 0.003356 282.6 17.6
312(18) 0.003205 282.4 17.1
322(18) 0.003106 282.2 16.7
303(17) 0.003300 282.0 16.4
337(18) 0.002967 281.8 16.0
296(17) 0.003378 281.6 15.7
345(19) 0.002899 281.4 15.5
297(17) 0.003367 281.2 15.3
314(18) 0.003185 280.9 15.1
299(17) 0.003344 280.7 14.9
302(17) 0.003311 280.5 14.8
308(18) 0.003247 280.3 14.6
339(18) 0.002950 280.1 14.6
283(17) 0.00353 279.9 14.5
295(17) 0.003390 279.7 14.5
274(17) 0.00365 279.5 14.4
263(16) 0.00380 279.3 14.5
296(17) 0.003378 279.1 14.5
292(17) 0.003425 278.9 14.5
276(17) 0.00362 278.6 14.6
270(16) 0.00370 278.4 14.7
296(17) 0.003378 278.2 14.7
299(17) 0.003344 278.0 14.9
301(17) 0.003322 277.8 15.0
277(17) 0.00361 277.6 15.1
286(17) 0.003497 277.4 15.3
303(17) 0.003300 277.2 15.5
289(17) 0.003460 277.0 15.7
290(17) 0.003448 276.9 15.9
288(17) 0.003472 277.0 16.2
290(17) 0.003448 277.1 16.5
273(17) 0.00366 277.2 16.8
281(17) 0.00356 277.3 17.1
302(17) 0.003311 277.4 17.4
271(16) 0.00369 277.5 17.8
305(17) 0.003279 277.6 18.3
298(17) 0.003356 277.7 18.8
268(16) 0.00373 277.8 19.3
295(17) 0.003390 277.9 19.8
294(17) 0.003401 278.0 20.5
298(17) 0.003356 278.0 21.2
276(17) 0.00362 278.1 22.0
279(17) 0.00358 278.2 22.8
291(17) 0.003436 278.3 23.8
272(16) 0.00368 278.4 24.8
283(17) 0.00353 278.5 26.0
272(16) 0.00368 278.6 27.3
317(18) 0.003155 278.7 28.8
305(17) 0.003279 278.8 30.5
322(18) 0.003106 278.9 32.5
308(18) 0.003247 279.0 34.7
339(18) 0.002950 279.1 37.4
331(18) 0.003021 279.2 40.4
315(18) 0.003175 279.3 44.0
336(18) 0.002976 279.4 48.3
320(18) 0.003125 279.5 53.6
332(18) 0.003012 279.6 60.0
327(18) 0.003058 279.7 68.0
334(18) 0.002994 279.8 78.4
360(19) 0.002778 279.9 91.9
445(21) 0.002247 279.9 110.5
400(20) 0.002500 280.0 136.5
458(21) 0.002183 280.1 173.6
530(23) 0.001887 280.2 226.7
569(24) 0.001757 280.3 300.4
709(27) 0.001410 280.4 394.6
804(28) 0.001244 280.5 490.1
851(29) 0.001175 280.6 539.5
811(28) 0.001233 280.7 508.7
782(28) 0.001279 280.8 428.0
683(26) 0.001464 280.9 347.2
627(25) 0.001595 281.0 288.5
645(25) 0.001550 281.1 254.5
685(26) 0.001460 281.2 242.3
666(26) 0.001501 281.3 249.2
753(27) 0.001328 281.4 274.1
804(28) 0.001244 281.5 317.1
861(29) 0.001161 281.6 378.7
924(30) 0.001082 281.7 456.8
1025(32) 0.000976 281.7 542.0
1182(34) 0.000846 281.8 611.7
1218(35) 0.000821 281.9 635.6
1130(34) 0.000885 282.0 599.3
1099(33) 0.000910 282.1 519.8
925(30) 0.001081 282.2 427.4
741(27) 0.001350 282.3 342.2
648(25) 0.001543 282.4 272.2
588(24) 0.001701 282.5 217.5
500(22) 0.002000 282.6 176.0
446(21) 0.002242 282.7 144.9
431(21) 0.002320 282.8 121.6
427(21) 0.002342 282.9 103.9
378(19) 0.002646 283.0 90.4
359(19) 0.002786 283.1 79.8
353(19) 0.002833 283.2 71.4
337(18) 0.002967 283.3 64.6
339(18) 0.002950 283.4 59.0
363(19) 0.002755 283.5 54.3
323(18) 0.003096 283.6 50.5
319(18) 0.003135 283.6 47.2
359(19) 0.002786 283.7 44.4
300(17) 0.003333 283.8 42.1
352(19) 0.002841 283.9 40.1
325(18) 0.003077 284.0 38.4
336(18) 0.002976 284.1 36.9
319(18) 0.003135 284.2 35.7
342(18) 0.002924 284.3 34.7
328(18) 0.003049 284.4 33.8
316(18) 0.003165 284.5 33.1
340(18) 0.002941 284.6 32.5
332(18) 0.003012 284.7 32.0
304(17) 0.003289 284.8 31.7
296(17) 0.003378 284.9 31.4
292(17) 0.003425 285.0 31.3
300(17) 0.003333 285.1 31.2
310(18) 0.003226 285.2 31.3
307(18) 0.003257 285.3 31.4
295(17) 0.003390 285.4 31.6
295(17) 0.003390 285.5 31.9
293(17) 0.003413 285.5 32.2
331(18) 0.003021 285.6 32.7
306(17) 0.003268 285.7 33.2
314(18) 0.003185 285.8 33.8
316(18) 0.003165 285.9 34.6
339(18) 0.002950 286.0 35.4
360(19) 0.002778 286.1 36.3
350(19) 0.002857 286.2 37.4
347(19) 0.002882 286.3 38.5
331(18) 0.003021 286.4 39.9
345(19) 0.002899 286.5 41.3
323(18) 0.003096 286.6 42.9
333(18) 0.003003 286.7 44.7
348(19) 0.002874 286.8 46.7
308(18) 0.003247 286.9 48.8
310(18) 0.003226 287.0 51.2
328(18) 0.003049 287.1 53.9
330(18) 0.003030 287.2 56.8
325(18) 0.003077 287.3 60.0
345(19) 0.002899 287.3 63.6
353(19) 0.002833 287.4 67.4
359(19) 0.002786 287.5 71.7
376(19) 0.002660 287.6 76.3
352(19) 0.002841 287.7 81.4
379(19) 0.002639 287.8 86.9
358(19) 0.002793 287.9 93.0
394(20) 0.002538 288.0 99.6
387(20) 0.002584 288.1 106.7
399(20) 0.002506 288.2 114.5
414(20) 0.002415 288.3 123.0
434(21) 0.002304 288.4 132.2
431(21) 0.002320 288.5 142.3
418(20) 0.002392 288.6 153.3
438(21) 0.002283 288.7 165.3
467(22) 0.002141 288.8 178.3
493(22) 0.002028 288.9 192.5
515(23) 0.001942 289.0 207.5
509(23) 0.001965 289.1 222.7
532(23) 0.001880 289.2 236.7
561(24) 0.001783 289.2 247.7
579(24) 0.001727 289.3 254.1
553(24) 0.001808 289.4 256.2
541(23) 0.001848 289.5 255.4
561(24) 0.001783 289.6 252.9
573(24) 0.001745 289.7 249.3
547(23) 0.001828 289.8 244.7
545(23) 0.001835 289.9 239.2
526(23) 0.001901 290.0 232.6
540(23) 0.001852 290.1 225.0
515(23) 0.001942 290.2 216.6
502(22) 0.001992 290.3 207.5
469(22) 0.002132 290.4 197.8
500(22) 0.002000 290.5 187.8
513(23) 0.001949 290.6 177.6
495(22) 0.002020 290.7 167.5
489(22) 0.002045 290.8 157.6
485(22) 0.002062 290.9 147.9
440(21) 0.002273 291.0 138.6
431(21) 0.002320 291.1 129.8
442(21) 0.002262 291.1 121.5
425(21) 0.002353 291.2 113.7
413(20) 0.002421 291.3 106.4
449(21) 0.002227 291.4 99.7
406(20) 0.002463 291.5 93.6
414(20) 0.002415 291.6 88.0
401(20) 0.002494 291.7 82.8
379(19) 0.002639 291.8 77.8
416(20) 0.002404 291.9 72.9
408(20) 0.002451 292.0 68.2
382(20) 0.002618 292.1 63.7
379(19) 0.002639 292.2 59.4
386(20) 0.002591 292.3 55.6
374(19) 0.002674 292.4 52.1
339(18) 0.002950 292.5 49.0
350(19) 0.002857 292.6 46.1
392(20) 0.002551 292.7 43.5
357(19) 0.002801 292.8 41.1
339(18) 0.002950 292.9 39.0
318(18) 0.003145 293.0 37.0
337(18) 0.002967 293.0 35.2
372(19) 0.002688 293.1 33.6
367(19) 0.002725 293.2 32.1
344(19) 0.002907 293.3 30.7
347(19) 0.002882 293.4 29.4
346(19) 0.002890 293.5 28.2
332(18) 0.003012 293.6 27.0
362(19) 0.002762 293.7 26.0
326(18) 0.003067 293.8 25.0
359(19) 0.002786 293.9 24.1
331(18) 0.003021 294.0 23.3
313(18) 0.003195 294.1 22.5
334(18) 0.002994 294.2 21.7
332(18) 0.003012 294.3 21.0
336(18) 0.002976 294.4 20.3
317(18) 0.003155 294.5 19.7
340(18) 0.002941 294.6 19.1
313(18) 0.003195 294.7 18.5
335(18) 0.002985 294.8 18.0
318(18) 0.003145 294.8 17.5
308(18) 0.003247 294.9 17.0
333(18) 0.003003 295.0 16.6
316(18) 0.003165 295.1 16.1
346(19) 0.002890 295.2 15.7
322(18) 0.003106 295.3 15.3
323(18) 0.003096 295.4 14.9
328(18) 0.003049 295.5 14.6
336(18) 0.002976 295.6 14.2
321(18) 0.003115 295.7 13.9
326(18) 0.003067 295.8 13.6
294(17) 0.003401 295.9 13.3
322(18) 0.003106 296.0 13.0
349(19) 0.002865 296.1 12.7
380(19) 0.002632 296.2 12.5
310(18) 0.003226 296.3 12.2
322(18) 0.003106 296.4 12.0
294(17) 0.003401 296.5 11.7
324(18) 0.003086 296.6 11.5
315(18) 0.003175 296.7 11.3
311(18) 0.003215 296.7 11.1
308(18) 0.003247 296.8 10.9
331(18) 0.003021 296.9 10.7
328(18) 0.003049 297.0 10.5
289(17) 0.003460 297.1 10.3
303(17) 0.003300 297.2 10.2
311(18) 0.003215 297.3 10.0
352(19) 0.002841 297.4 9.9
319(18) 0.003135 297.5 9.7
305(17) 0.003279 297.6 9.6
316(18) 0.003165 297.7 9.4
290(17) 0.003448 297.8 9.3
333(18) 0.003003 297.9 9.2
313(18) 0.003195 298.0 9.1
294(17) 0.003401 298.1 8.9
282(17) 0.00355 298.2 8.8
322(18) 0.003106 298.3 8.7
317(18) 0.003155 298.4 8.6
307(18) 0.003257 298.5 8.5
310(18) 0.003226 298.6 8.4
307(18) 0.003257 298.6 8.3
279(17) 0.00358 298.7 8.3
304(17) 0.003289 298.7 8.2
291(17) 0.003436 298.8 8.1
306(17) 0.003268 298.8 8.0
306(17) 0.003268 298.8 8.0
286(17) 0.003497 298.9 7.9
302(17) 0.003311 298.9 7.8
298(17) 0.003356 298.9 7.8
289(17) 0.003460 298.9 7.7
306(17) 0.003268 299.0 7.7
334(18) 0.002994 299.0 7.7
332(18) 0.003012 299.0 7.6
309(18) 0.003236 299.1 7.6
300(17) 0.003333 299.1 7.5
303(17) 0.003300 299.1 7.5
304(17) 0.003289 299.2 7.8
293(17) 0.003413 299.2 7.8
318(18) 0.003145 299.2 7.8
292(17) 0.003425 299.3 7.8
303(17) 0.003300 299.3 7.8
343(19) 0.002915 299.3 7.8
309(18) 0.003236 299.4 7.8
333(18) 0.003003 299.4 7.8
341(18) 0.002933 299.4 7.8
324(18) 0.003086 299.5 7.9
317(18) 0.003155 299.5 7.9
300(17) 0.003333 299.5 7.9
300(17) 0.003333 299.6 8.0
327(18) 0.003058 299.6 8.1
339(18) 0.002950 299.6 8.1
346(19) 0.002890 299.7 8.2
352(19) 0.002841 299.7 8.3
329(18) 0.003039 299.7 8.4
337(18) 0.002967 299.7 8.7
325(18) 0.003077 299.8 8.8
314(18) 0.003185 299.8 9.0
313(18) 0.003195 299.8 9.1
347(19) 0.002882 299.9 9.3
315(18) 0.003175 299.9 9.6
313(18) 0.003195 299.9 9.8
315(18) 0.003175 300.0 10.1
368(19) 0.002717 300.0 10.5
325(18) 0.003077 300.0 10.8
327(18) 0.003058 300.1 11.3
324(18) 0.003086 300.1 11.8
335(18) 0.002985 300.1 12.9
324(18) 0.003086 300.2 13.5
336(18) 0.002976 300.2 14.4
321(18) 0.003115 300.2 15.3
315(18) 0.003175 300.3 16.5
359(19) 0.002786 300.3 17.9
351(19) 0.002849 300.3 19.6
349(19) 0.002865 300.4 21.7
339(18) 0.002950 300.4 24.3
358(19) 0.002793 300.4 27.5
377(19) 0.002653 300.5 31.4
359(19) 0.002786 300.5 36.2
365(19) 0.002740 300.5 41.9
362(19) 0.002762 300.5 48.6
398(20) 0.002513 300.6 56.1
441(21) 0.002268 300.6 64.1
443(21) 0.002257 300.6 71.8
453(21) 0.002208 300.7 77.9
425(21) 0.002353 300.7 81.1
452(21) 0.002212 300.7 80.6
446(21) 0.002242 300.8 76.4
408(20) 0.002451 300.8 69.7
390(20) 0.002564 300.8 61.9
404(20) 0.002475 300.9 54.1
378(19) 0.002646 300.9 46.9
385(20) 0.002597 300.9 40.6
345(19) 0.002899 301.0 35.3
364(19) 0.002747 301.0 30.9
391(20) 0.002558 301.0 27.4
359(19) 0.002786 301.1 24.5
352(19) 0.002841 301.1 22.2
358(19) 0.002793 301.1 20.3
377(19) 0.002653 301.2 19.0
337(18) 0.002967 301.2 17.9
353(19) 0.002833 301.2 16.9
343(19) 0.002915 301.2 16.2
386(20) 0.002591 301.3 15.6
355(19) 0.002817 301.3 15.1
345(19) 0.002899 301.3 14.7
349(19) 0.002865 301.4 14.4
362(19) 0.002762 301.4 14.2
340(18) 0.002941 301.4 14.1
355(19) 0.002817 301.5 14.0
357(19) 0.002801 301.5 14.0
353(19) 0.002833 301.5 14.1
324(18) 0.003086 301.6 14.2
352(19) 0.002841 301.6 14.3
344(19) 0.002907 301.6 14.5
351(19) 0.002849 301.7 14.8
349(19) 0.002865 301.7 15.1
324(18) 0.003086 301.7 15.5
371(19) 0.002695 301.8 15.9
350(19) 0.002857 301.8 16.4
374(19) 0.002674 301.8 17.0
362(19) 0.002762 301.9 17.6
314(18) 0.003185 301.9 18.3
313(18) 0.003195 301.9 19.0
350(19) 0.002857 302.0 19.8
319(18) 0.003135 302.0 21.2
326(18) 0.003067 302.0 22.1
343(19) 0.002915 302.0 23.1
331(18) 0.003021 302.1 24.2
376(19) 0.002660 302.1 25.3
333(18) 0.003003 302.1 26.5
352(19) 0.002841 302.2 27.8
367(19) 0.002725 302.2 29.1
374(19) 0.002674 302.2 30.3
390(20) 0.002564 302.3 31.6
398(20) 0.002513 302.3 32.8
355(19) 0.002817 302.3 34.0
394(20) 0.002538 302.4 35.1
368(19) 0.002717 302.4 36.1
376(19) 0.002660 302.4 37.0
346(19) 0.002890 302.5 37.7
362(19) 0.002762 302.5 38.3
342(18) 0.002924 302.5 38.7
359(19) 0.002786 302.6 38.8
363(19) 0.002755 302.6 38.7
379(19) 0.002639 302.6 38.5
357(19) 0.002801 302.7 38.0
364(19) 0.002747 302.7 37.4
350(19) 0.002857 302.7 36.6
354(19) 0.002825 302.7 35.6
363(19) 0.002755 302.8 34.6
357(19) 0.002801 302.8 33.5
387(20) 0.002584 302.8 32.3
354(19) 0.002825 302.9 31.1
391(20) 0.002558 302.9 29.8
355(19) 0.002817 302.9 28.6
362(19) 0.002762 303.0 27.3
361(19) 0.002770 303.0 27.4
357(19) 0.002801 303.0 26.2
369(19) 0.002710 303.1 25.1
360(19) 0.002778 303.1 24.0
355(19) 0.002817 303.1 23.0
354(19) 0.002825 303.2 22.0
336(18) 0.002976 303.2 21.1
341(18) 0.002933 303.2 20.3
335(18) 0.002985 303.3 19.5
327(18) 0.003058 303.3 18.8
313(18) 0.003195 303.3 18.1
341(18) 0.002933 303.4 17.5
334(18) 0.002994 303.4 16.9
325(18) 0.003077 303.4 16.4
343(19) 0.002915 303.5 15.9
340(18) 0.002941 303.5 15.5
319(18) 0.003135 303.5 15.1
352(19) 0.002841 303.5 14.7
305(17) 0.003279 303.6 14.4
336(18) 0.002976 303.6 14.1
332(18) 0.003012 303.6 13.8
324(18) 0.003086 303.7 13.6
332(18) 0.003012 303.7 13.4
332(18) 0.003012 303.7 13.2
309(18) 0.003236 303.8 13.0
341(18) 0.002933 303.8 12.8
349(19) 0.002865 303.8 12.7
320(18) 0.003125 303.9 12.5
323(18) 0.003096 303.9 12.4
339(18) 0.002950 303.9 12.3
326(18) 0.003067 304.0 12.2
322(18) 0.003106 304.0 12.1
310(18) 0.003226 304.0 12.1
326(18) 0.003067 304.1 12.0
350(19) 0.002857 304.1 12.0
313(18) 0.003195 304.1 11.9
350(19) 0.002857 304.2 11.9
345(19) 0.002899 304.2 11.8
304(17) 0.003289 304.2 11.8
320(18) 0.003125 304.3 11.8
320(18) 0.003125 304.3 11.8
358(19) 0.002793 304.3 12.1
320(18) 0.003125 304.4 12.1
321(18) 0.003115 304.6 12.1
336(18) 0.002976 304.7 12.2
318(18) 0.003145 304.9 12.2
290(17) 0.003448 305.0 12.2
299(17) 0.003344 305.2 12.3
295(17) 0.003390 305.3 12.3
342(18) 0.002924 305.5 12.4
333(18) 0.003003 305.7 12.4
323(18) 0.003096 305.8 12.5
333(18) 0.003003 306.0 12.5
320(18) 0.003125 306.1 12.6
344(19) 0.002907 306.3 12.6
346(19) 0.002890 306.4 12.7
329(18) 0.003039 306.6 12.8
344(19) 0.002907 306.7 12.8
311(18) 0.003215 306.9 12.9
331(18) 0.003021 307.1 13.0
304(17) 0.003289 307.2 13.1
306(17) 0.003268 307.4 13.1
313(18) 0.003195 307.5 13.2
338(18) 0.002959 307.7 13.3
302(17) 0.003311 307.8 13.4
322(18) 0.003106 308.0 13.5
337(18) 0.002967 308.1 13.6
327(18) 0.003058 308.3 13.7
311(18) 0.003215 308.5 13.8
300(17) 0.003333 308.6 14.0
309(18) 0.003236 308.8 14.1
342(18) 0.002924 308.9 14.2
318(18) 0.003145 309.1 14.3
311(18) 0.003215 309.2 14.5
331(18) 0.003021 309.4 14.6
333(18) 0.003003 309.5 14.7
327(18) 0.003058 309.7 14.9
317(18) 0.003155 309.9 15.0
313(18) 0.003195 310.0 15.2
333(18) 0.003003 310.2 15.4
335(18) 0.002985 310.3 15.5
315(18) 0.003175 310.5 15.7
327(18) 0.003058 310.6 16.0
326(18) 0.003067 310.8 16.1
321(18) 0.003115 311.0 16.3
333(18) 0.003003 311.1 16.5
346(19) 0.002890 311.3 16.7
359(19) 0.002786 311.4 16.9
320(18) 0.003125 311.6 17.2
333(18) 0.003003 311.7 17.4
339(18) 0.002950 311.9 17.6
330(18) 0.003030 312.0 17.8
362(19) 0.002762 312.2 18.1
306(17) 0.003268 312.4 18.3
356(19) 0.002809 312.5 18.6
317(18) 0.003155 312.7 18.9
310(18) 0.003226 312.8 19.1
306(17) 0.003268 313.0 19.4
296(17) 0.003378 313.1 20.6
307(18) 0.003257 313.3 20.9
339(18) 0.002950 313.4 21.3
367(19) 0.002725 313.6 21.6
337(18) 0.002967 313.8 21.9
350(19) 0.002857 313.9 22.3
324(18) 0.003086 314.1 22.6
341(18) 0.002933 314.2 23.0
353(19) 0.002833 314.4 23.4
368(19) 0.002717 314.5 23.8
356(19) 0.002809 314.7 24.2
353(19) 0.002833 314.8 24.6
372(19) 0.002688 315.0 25.1
370(19) 0.002703 315.2 25.5
380(19) 0.002632 315.3 26.0
386(20) 0.002591 315.5 26.5
352(19) 0.002841 315.6 27.0
376(19) 0.002660 315.8 27.6
377(19) 0.002653 315.9 28.1
363(19) 0.002755 316.1 28.7
375(19) 0.002667 316.2 29.3
371(19) 0.002695 316.4 29.9
352(19) 0.002841 316.6 30.6
379(19) 0.002639 316.7 31.3
401(20) 0.002494 316.9 32.0
342(18) 0.002924 317.0 32.8
356(19) 0.002809 317.2 33.6
370(19) 0.002703 317.3 34.4
357(19) 0.002801 317.5 35.2
352(19) 0.002841 317.6 36.1
361(19) 0.002770 317.8 37.1
344(19) 0.002907 318.0 38.1
333(18) 0.003003 318.1 39.2
366(19) 0.002732 318.3 40.3
381(20) 0.002625 318.4 41.5
357(19) 0.002801 318.6 42.7
349(19) 0.002865 318.7 44.0
373(19) 0.002681 318.9 45.4
342(18) 0.002924 319.0 46.9
350(19) 0.002857 319.2 48.5
392(20) 0.002551 319.4 50.2
335(18) 0.002985 319.5 52.0
344(19) 0.002907 319.7 54.0
343(19) 0.002915 319.8 56.1
342(18) 0.002924 320.0 58.4
349(19) 0.002865 320.1 60.8
343(19) 0.002915 320.3 63.5
334(18) 0.002994 320.5 66.4
370(19) 0.002703 320.6 69.6
333(18) 0.003003 320.8 73.1
342(18) 0.002924 320.9 77.0
351(19) 0.002849 321.1 81.3
390(20) 0.002564 321.2 86.1
379(19) 0.002639 321.4 91.5
363(19) 0.002755 321.5 97.7
420(20) 0.002381 321.7 104.7
436(21) 0.002294 321.9 112.8
437(21) 0.002288 322.0 122.3
439(21) 0.002278 322.2 133.6
433(21) 0.002309 322.3 147.2
483(22) 0.002070 322.5 164.0
499(22) 0.002004 322.6 185.1
492(22) 0.002033 322.8 211.9
589(24) 0.001698 322.9 246.2
634(25) 0.001577 323.1 290.4
696(26) 0.001437 323.3 346.7
769(28) 0.001300 323.4 416.4
916(30) 0.001092 323.6 498.9
1071(33) 0.000934 323.7 586.8
1080(33) 0.000926 323.9 663.3
1141(34) 0.000876 324.0 704.6
1104(33) 0.000906 324.2 697.6
1039(32) 0.000962 324.3 652.8
992(31) 0.001008 324.5 594.5
880(30) 0.001136 324.7 542.1
938(31) 0.001066 324.8 505.0
923(30) 0.001083 325.0 485.7
897(30) 0.001115 325.1 483.3
908(30) 0.001101 325.3 495.7
976(31) 0.001025 325.4 519.8
1037(32) 0.000964 325.6 551.4
969(31) 0.001032 325.7 585.4
1067(33) 0.000937 325.9 616.2
1073(33) 0.000932 326.1 640.3
1015(32) 0.000985 326.2 658.6
1073(33) 0.000932 326.4 675.6
1118(33) 0.000894 326.5 698.1
1087(33) 0.000920 326.7 732.0
1092(33) 0.000916 326.8 781.5
1267(36) 0.000789 327. 849.
1215(35) 0.000823 327.1 932.5
1358(37) 0.000736 327. 1029.
1496(39) 0.000668 327. 1129.
1607(40) 0.000622 328. 1217.
1689(41) 0.000592 328. 1273.
1701(41) 0.000588 328. 1283.
1700(41) 0.000588 328. 1241.
1623(40) 0.000616 328. 1160.
1404(37) 0.000712 328. 1055.
1284(36) 0.000779 329. 945.
1173(34) 0.000853 328.7 840.3
1093(33) 0.000915 328.9 748.7
1014(32) 0.000986 329.0 671.7
934(31) 0.001071 329.2 609.7
858(29) 0.001166 329.3 561.5
843(29) 0.001186 329.5 525.9
827(29) 0.001209 329.6 501.3
824(29) 0.001214 329.8 486.4
758(28) 0.001319 330.0 480.1
760(28) 0.001316 330.1 481.8
766(28) 0.001305 330.3 490.8
870(29) 0.001149 330.4 507.2
867(29) 0.001153 330.6 531.2
903(30) 0.001107 330.7 563.2
943(31) 0.001060 330.9 604.5
1028(32) 0.000973 331.0 656.3
1044(32) 0.000958 331.2 720.6
1196(35) 0.000836 331.4 799.9
1262(36) 0.000792 332. 898.
1383(37) 0.000723 332. 1020.
1594(40) 0.000627 332. 1176.
1730(42) 0.000578 332. 1383.
1965(44) 0.000509 332. 1661.
2248(47) 0.000445 332. 2033.
2660(52) 0.000376 332. 2518.
3155(56) 0.0003170 333. 3106.
3976(63) 0.0002515 333. 3730.
4530(67) 0.0002208 333. 4217.
4451(67) 0.0002247 333. 4349.
4037(64) 0.0002477 333. 4048.
3442(59) 0.0002905 333. 3469.
2831(53) 0.000353 334. 2830.
2435(49) 0.000411 334. 2262.
2163(47) 0.000462 334. 1807.
1895(44) 0.000528 334. 1460.
1668(41) 0.000600 334. 1203.
1509(39) 0.000663 334. 1017.
1394(37) 0.000717 334. 884.
1317(36) 0.000759 335. 790.
1174(34) 0.000852 334.8 726.8
1178(34) 0.000849 334.9 687.1
1134(34) 0.000882 335.1 668.0
1141(34) 0.000876 335.2 668.2
1133(34) 0.000883 335.4 687.3
1174(34) 0.000852 335.6 727.8
1157(34) 0.000864 335.7 791.2
1170(34) 0.000855 335.9 879.5
1240(35) 0.000806 336. 994.
1371(37) 0.000729 336. 1134.
1442(38) 0.000693 336. 1290.
1553(39) 0.000644 336. 1445.
1711(41) 0.000584 337. 1566.
1832(43) 0.000546 337. 1616.
1776(42) 0.000563 337. 1577.
1640(40) 0.000610 337. 1458.
1480(38) 0.000676 337. 1292.
1365(37) 0.000733 337. 1115.
1244(35) 0.000804 338. 949.
1064(33) 0.000940 337.7 805.0
963(31) 0.001038 337.9 684.4
898(30) 0.001114 338.1 586.4
851(29) 0.001175 338.2 508.1
775(28) 0.001290 338.4 446.0
747(27) 0.001339 338.5 397.1
700(26) 0.001429 338.7 358.7
658(26) 0.001520 338.8 328.5
692(26) 0.001445 339.0 304.7
589(24) 0.001698 339.1 285.9
580(24) 0.001724 339.3 271.2
597(24) 0.001675 339.5 259.9
591(24) 0.001692 339.6 251.3
575(24) 0.001739 339.8 245.3
644(25) 0.001553 339.9 241.5
586(24) 0.001706 340.1 239.9
600(24) 0.001667 340.2 240.3
600(24) 0.001667 340.4 242.9
614(25) 0.001629 340.5 247.7
608(25) 0.001645 340.7 254.9
605(25) 0.001653 340.9 264.7
639(25) 0.001565 341.0 277.4
637(25) 0.001570 341.2 293.4
642(25) 0.001558 341.3 312.9
696(26) 0.001437 341.5 336.4
679(26) 0.001473 341.6 364.3
721(27) 0.001387 341.8 397.1
766(28) 0.001305 341.9 435.2
762(28) 0.001312 342.1 478.6
773(28) 0.001294 342.3 527.7
894(30) 0.001119 342.4 582.1
933(31) 0.001072 342.6 641.0
1013(32) 0.000987 342.7 702.8
1072(33) 0.000933 342.9 764.8
1144(34) 0.000874 343.0 823.2
1193(35) 0.000838 343.2 872.9
1190(34) 0.000840 343.3 908.8
1334(37) 0.000750 344. 926.
1297(36) 0.000771 344. 923.
1263(36) 0.000792 344. 899.
1205(35) 0.000830 344.0 859.0
1125(34) 0.000889 344.1 806.5
1049(32) 0.000953 344.3 747.5
992(31) 0.001008 344.4 686.4
868(29) 0.001152 344.6 626.9
884(30) 0.001131 344.8 571.1
813(29) 0.001230 344.9 520.6
759(28) 0.001318 345.1 475.9
758(28) 0.001319 345.2 437.3
733(27) 0.001364 345.4 404.7
749(27) 0.001335 345.5 378.1
753(27) 0.001328 345.7 357.2
701(26) 0.001427 345.8 342.0
628(25) 0.001592 346.0 332.4
695(26) 0.001439 346.2 328.4
714(27) 0.001401 346.3 330.4
696(26) 0.001437 346.5 338.5
715(27) 0.001399 346.6 353.3
715(27) 0.001399 346.8 375.3
747(27) 0.001339 346.9 405.1
829(29) 0.001206 347.1 443.1
868(29) 0.001152 347.2 489.6
853(29) 0.001172 347.4 543.9
922(30) 0.001085 347.6 604.1
1024(32) 0.000977 347.7 666.2
1090(33) 0.000917 347.9 723.2
1131(34) 0.000884 348.0 765.7
1154(34) 0.000867 348.2 784.7
1145(34) 0.000873 348.3 774.7
1185(34) 0.000844 348.5 737.2
1151(34) 0.000869 348.6 679.7
984(31) 0.001016 348.8 611.6
891(30) 0.001122 349.0 541.4
885(30) 0.001130 349.1 474.6
809(28) 0.001236 349.3 414.2
712(27) 0.001404 349.4 361.3
648(25) 0.001543 349.6 315.9
608(25) 0.001645 349.7 277.5
568(24) 0.001761 349.9 245.3
555(24) 0.001802 350.0 218.5
515(23) 0.001942 350.2 196.1
473(22) 0.002114 350.4 177.5
490(22) 0.002041 350.5 162.0
448(21) 0.002232 350.7 148.9
451(21) 0.002217 350.8 137.9
450(21) 0.002222 351.0 128.4
378(19) 0.002646 351.1 120.3
441(21) 0.002268 351.3 113.2
405(20) 0.002469 351.4 107.1
435(21) 0.002299 351.6 101.6
411(20) 0.002433 351.8 96.8
421(21) 0.002375 351.9 92.5
412(20) 0.002427 352.1 88.6
390(20) 0.002564 352.2 85.2
393(20) 0.002545 352.4 82.1
377(19) 0.002653 352.5 79.3
395(20) 0.002532 352.7 76.8
411(20) 0.002433 352.9 74.5
412(20) 0.002427 353.0 72.4
368(19) 0.002717 353.2 70.5
398(20) 0.002513 353.3 68.8
375(19) 0.002667 353.5 67.2
390(20) 0.002564 353.6 65.8
383(20) 0.002611 353.8 64.5
411(20) 0.002433 353.9 63.4
385(20) 0.002597 354.1 62.3
378(19) 0.002646 354.3 61.4
335(18) 0.002985 354.4 60.5
390(20) 0.002564 354.6 59.8
382(20) 0.002618 354.7 59.1
368(19) 0.002717 354.9 58.6
342(18) 0.002924 355.0 58.1
376(19) 0.002660 355.2 57.7
400(20) 0.002500 355.3 57.4
363(19) 0.002755 355.5 57.1
404(20) 0.002475 355.7 56.9
365(19) 0.002740 355.8 56.8
379(19) 0.002639 355.8 56.8
370(19) 0.002703 355.8 56.9
398(20) 0.002513 355.7 57.0
362(19) 0.002762 355.7 57.3
385(20) 0.002597 355.6 57.6
409(20) 0.002445 355.6 58.1
373(19) 0.002681 355.5 58.7
377(19) 0.002653 355.5 59.4
412(20) 0.002427 355.4 60.3
422(21) 0.002370 355.4 61.3
372(19) 0.002688 355.3 62.6
369(19) 0.002710 355.3 64.2
397(20) 0.002519 355.2 66.1
394(20) 0.002538 355.2 68.4
347(19) 0.002882 355.1 71.2
362(19) 0.002762 355.1 74.8
364(19) 0.002747 355.0 79.3
388(20) 0.002577 355.0 85.3
412(20) 0.002427 354.9 93.3
393(20) 0.002545 354.9 104.4
416(20) 0.002404 354.8 120.3
411(20) 0.002433 354.8 143.5
449(21) 0.002227 354.7 177.0
497(22) 0.002012 354.7 223.5
564(24) 0.001773 354.6 280.8
617(25) 0.001621 354.6 331.8
673(26) 0.001486 354.5 344.3
644(25) 0.001553 354.5 308.3
604(25) 0.001656 354.4 252.2
514(23) 0.001946 354.4 201.6
437(21) 0.002288 354.3 164.2
463(22) 0.002160 354.3 138.5
432(21) 0.002315 354.2 121.4
432(21) 0.002315 354.2 110.1
410(20) 0.002439 354.2 102.7
374(19) 0.002674 354.1 97.8
378(19) 0.002646 354.1 94.5
389(20) 0.002571 354.0 92.5
425(21) 0.002353 354.0 91.3
393(20) 0.002545 353.9 90.9
406(20) 0.002463 353.9 90.9
420(20) 0.002381 353.8 91.4
386(20) 0.002591 353.8 92.3
405(20) 0.002469 353.7 93.6
395(20) 0.002532 353.7 95.1
436(21) 0.002294 353.6 96.9
413(20) 0.002421 353.6 99.0
437(21) 0.002288 353.5 101.4
444(21) 0.002252 353.5 104.0
455(21) 0.002198 353.4 106.9
418(20) 0.002392 353.4 110.0
446(21) 0.002242 353.3 113.4
433(21) 0.002309 353.3 117.0
443(21) 0.002257 353.2 121.0
446(21) 0.002242 353.2 125.2
458(21) 0.002183 353.1 129.7
479(22) 0.002088 353.1 134.6
459(21) 0.002179 353.0 139.9
464(22) 0.002155 353.0 145.5
488(22) 0.002049 352.9 151.6
522(23) 0.001916 352.9 158.1
461(21) 0.002169 352.8 165.0
506(22) 0.001976 352.8 172.4
520(23) 0.001923 352.7 180.4
530(23) 0.001887 352.7 189.0
539(23) 0.001855 352.6 198.3
549(23) 0.001822 352.6 208.2
549(23) 0.001822 352.5 219.0
564(24) 0.001773 352.5 230.6
598(24) 0.001672 352.4 243.2
603(25) 0.001658 352.4 256.9
574(24) 0.001742 352.3 271.8
611(25) 0.001637 352.3 288.0
674(26) 0.001484 352.2 305.7
667(26) 0.001499 352.2 325.0
726(27) 0.001377 352.1 346.1
706(27) 0.001416 352.1 369.1
739(27) 0.001353 352.0 394.1
831(29) 0.001203 352.0 421.3
801(28) 0.001248 352.0 450.7
908(30) 0.001101 351.9 482.3
953(31) 0.001049 351.9 515.9
972(31) 0.001029 351.8 551.2
1050(32) 0.000952 351.8 587.5
1099(33) 0.000910 351.7 623.9
1184(34) 0.000845 351.7 659.0
1187(34) 0.000842 351.6 691.3
1227(35) 0.000815 351.6 719.0
1264(36) 0.000791 352. 741.
1228(35) 0.000814 351.5 756.1
1268(36) 0.000789 351. 765.
1253(35) 0.000798 351. 769.
1207(35) 0.000829 351.3 768.8
1144(34) 0.000874 351.3 766.3
1163(34) 0.000860 351.2 762.7
1157(34) 0.000864 351.2 758.6
1158(34) 0.000864 351.1 754.2
1163(34) 0.000860 351.1 749.3
1129(34) 0.000886 351.0 743.1
1117(33) 0.000895 351.0 735.0
1047(32) 0.000955 350.9 724.4
1063(33) 0.000941 350.9 711.5
1021(32) 0.000979 350.8 696.4
1017(32) 0.000983 350.8 679.9
1037(32) 0.000964 350.7 662.8
995(32) 0.001005 350.7 646.0
924(30) 0.001082 350.6 630.4
920(30) 0.001087 350.6 616.3
946(31) 0.001057 350.5 604.4
959(31) 0.001043 350.5 595.0
907(30) 0.001103 350.4 588.5
900(30) 0.001111 350.4 585.3
938(31) 0.001066 350.3 585.7
945(31) 0.001058 350.3 590.1
916(30) 0.001092 350.2 598.7
968(31) 0.001033 350.2 611.7
994(32) 0.001006 350.1 629.3
1030(32) 0.000971 350.1 651.7
1023(32) 0.000978 350.0 678.7
1059(33) 0.000944 350.0 710.3
1133(34) 0.000883 349.9 746.0
1162(34) 0.000861 349.9 785.6
1265(36) 0.000791 350. 829.
1197(35) 0.000835 349.8 876.6
1219(35) 0.000820 349.8 929.1
1285(36) 0.000778 350. 988.
1431(38) 0.000699 350. 1055.
1420(38) 0.000704 350. 1133.
1585(40) 0.000631 350. 1224.
1659(41) 0.000603 350. 1329.
1682(41) 0.000595 349. 1450.
1842(43) 0.000543 349. 1587.
2055(45) 0.000487 349. 1738.
2191(47) 0.000456 349. 1899.
2416(49) 0.000414 349. 2065.
2608(51) 0.000383 349. 2226.
2799(53) 0.000357 349. 2367.
2784(53) 0.000359 349. 2474.
2874(54) 0.0003479 349. 2534.
2788(53) 0.000359 349. 2537.
2540(50) 0.000394 349. 2481.
2398(49) 0.000417 349. 2373.
2208(47) 0.000453 349. 2226.
2150(46) 0.000465 349. 2054.
1918(44) 0.000521 349. 1872.
1755(42) 0.000570 349. 1690.
1601(40) 0.000625 349. 1516.
1512(39) 0.000661 349. 1355.
1459(38) 0.000685 349. 1208.
1388(37) 0.000720 349. 1076.
1239(35) 0.000807 348. 960.
1189(34) 0.000841 348.4 858.3
1119(33) 0.000894 348.4 769.7
1013(32) 0.000987 348.3 693.3
1016(32) 0.000984 348.3 627.7
969(31) 0.001032 348.2 571.8
951(31) 0.001052 348.2 524.5
894(30) 0.001119 348.1 484.6
877(30) 0.001140 348.1 451.4
792(28) 0.001263 348.0 424.1
803(28) 0.001245 348.0 402.1
829(29) 0.001206 347.9 384.8
771(28) 0.001297 347.9 371.6
747(27) 0.001339 347.8 362.1
765(28) 0.001307 347.8 355.6
787(28) 0.001271 347.7 351.3
714(27) 0.001401 347.7 348.0
768(28) 0.001302 347.6 344.0
761(28) 0.001314 347.6 337.9
743(27) 0.001346 347.6 328.4
674(26) 0.001484 347.5 315.1
712(27) 0.001404 347.5 298.6
673(26) 0.001486 347.4 280.1
650(25) 0.001538 347.4 261.0
610(25) 0.001639 347.3 242.3
558(24) 0.001792 347.3 224.8
610(25) 0.001639 347.2 208.8
537(23) 0.001862 347.2 194.5
531(23) 0.001883 347.1 181.7
523(23) 0.001912 347.1 170.5
497(22) 0.002012 347.0 160.7
515(23) 0.001942 347.0 152.1
475(22) 0.002105 346.9 144.5
487(22) 0.002053 346.9 138.0
471(22) 0.002123 346.8 132.3
439(21) 0.002278 346.8 127.3
446(21) 0.002242 346.7 123.1
427(21) 0.002342 346.7 119.3
409(20) 0.002445 346.6 116.2
425(21) 0.002353 346.6 113.5
428(21) 0.002336 346.5 111.3
439(21) 0.002278 346.5 109.6
419(20) 0.002387 346.4 108.3
416(20) 0.002404 346.4 107.5
385(20) 0.002597 346.3 107.1
428(21) 0.002336 346.3 107.1
438(21) 0.002283 346.2 107.6
402(20) 0.002488 346.2 108.5
439(21) 0.002278 346.1 109.7
413(20) 0.002421 346.1 111.4
402(20) 0.002488 346.0 113.3
427(21) 0.002342 346.0 115.5
370(19) 0.002703 345.9 117.8
367(19) 0.002725 345.9 120.0
393(20) 0.002545 345.8 121.9
371(19) 0.002695 345.8 123.3
397(20) 0.002519 345.7 124.0
383(20) 0.002611 345.7 123.8
378(19) 0.002646 345.6 122.5
381(20) 0.002625 345.6 120.2
411(20) 0.002433 345.5 117.1
382(20) 0.002618 345.5 113.2
374(19) 0.002674 345.5 108.9
393(20) 0.002545 345.4 104.3
396(20) 0.002525 345.4 99.6
405(20) 0.002469 345.3 95.0
356(19) 0.002809 345.3 90.6
341(18) 0.002933 345.2 86.5
366(19) 0.002732 345.2 82.6
379(19) 0.002639 345.1 79.1
396(20) 0.002525 345.1 75.9
353(19) 0.002833 345.0 73.0
386(20) 0.002591 345.0 70.4
369(19) 0.002710 344.9 68.1
354(19) 0.002825 344.9 66.1
373(19) 0.002681 344.8 64.3
368(19) 0.002717 344.8 62.7
386(20) 0.002591 344.7 61.3
379(19) 0.002639 344.7 60.2
372(19) 0.002688 344.6 59.2
396(20) 0.002525 344.6 58.4
378(19) 0.002646 344.5 57.7
412(20) 0.002427 344.5 57.1
372(19) 0.002688 344.4 56.7
364(19) 0.002747 344.4 56.4
359(19) 0.002786 344.3 56.2
367(19) 0.002725 344.3 56.1
380(19) 0.002632 344.2 56.2
375(19) 0.002667 344.2 56.3
373(19) 0.002681 344.1 56.6
420(20) 0.002381 344.1 57.0
389(20) 0.002571 344.0 57.4
346(19) 0.002890 344.0 58.1
362(19) 0.002762 343.9 58.8
392(20) 0.002551 343.9 59.7
430(21) 0.002326 343.8 60.7
379(19) 0.002639 343.8 61.9
380(19) 0.002632 343.7 63.3
378(19) 0.002646 343.7 64.9
379(19) 0.002639 343.6 66.6
376(19) 0.002660 343.6 68.6
392(20) 0.002551 343.5 70.9
418(20) 0.002392 343.5 73.4
364(19) 0.002747 343.4 76.2
391(20) 0.002558 343.4 79.4
396(20) 0.002525 343.3 82.9
419(20) 0.002387 343.3 86.7
430(21) 0.002326 343.3 91.0
408(20) 0.002451 343.2 95.7
379(19) 0.002639 343.2 100.9
391(20) 0.002558 343.1 106.5
421(21) 0.002375 343.1 112.7
440(21) 0.002273 343.0 119.4
433(21) 0.002309 343.0 126.7
449(21) 0.002227 342.9 134.6
450(21) 0.002222 342.9 143.0
479(22) 0.002088 342.8 152.0
473(22) 0.002114 342.8 161.6
488(22) 0.002049 342.7 171.6
476(22) 0.002101 342.7 182.1
506(22) 0.001976 342.6 192.9
493(22) 0.002028 342.6 203.8
505(22) 0.001980 342.5 214.8
539(23) 0.001855 342.5 225.4
534(23) 0.001873 342.4 235.5
532(23) 0.001880 342.4 244.7
540(23) 0.001852 342.3 252.7
528(23) 0.001894 342.3 259.1
576(24) 0.001736 342.2 263.6
571(24) 0.001751 342.2 266.1
605(25) 0.001653 342.1 266.3
595(24) 0.001681 342.1 264.2
603(25) 0.001658 342.0 260.0
540(23) 0.001852 342.0 253.9
572(24) 0.001748 341.9 246.1
500(22) 0.002000 341.9 237.0
556(24) 0.001799 341.8 226.9
486(22) 0.002058 341.8 216.2
518(23) 0.001931 341.7 205.2
508(23) 0.001968 341.7 194.1
480(22) 0.002083 341.6 183.1
462(21) 0.002164 341.6 172.4
466(22) 0.002146 341.5 162.2
429(21) 0.002331 341.5 152.4
424(21) 0.002358 341.4 143.2
437(21) 0.002288 341.4 134.6
421(21) 0.002375 341.3 126.6
407(20) 0.002457 341.3 119.2
443(21) 0.002257 341.2 112.4
414(20) 0.002415 341.2 106.2
406(20) 0.002463 341.1 100.6
399(20) 0.002506 341.1 95.5
409(20) 0.002445 341.1 90.9
400(20) 0.002500 341.0 86.7
374(19) 0.002674 341.0 83.0
372(19) 0.002688 340.9 79.7
389(20) 0.002571 340.9 76.8
395(20) 0.002532 340.8 74.2
373(19) 0.002681 340.8 71.8
386(20) 0.002591 340.7 69.7
418(20) 0.002392 340.7 67.7
383(20) 0.002611 340.6 65.8
418(20) 0.002392 340.6 64.0
388(20) 0.002577 340.5 62.2
360(19) 0.002778 340.5 60.3
394(20) 0.002538 340.4 58.5
390(20) 0.002564 340.4 56.6
366(19) 0.002732 340.3 54.8
363(19) 0.002755 340.3 52.9
386(20) 0.002591 340.2 51.1
375(19) 0.002667 340.2 49.4
331(18) 0.003021 340.1 47.8
346(19) 0.002890 340.1 46.2
379(19) 0.002639 340.0 44.8
348(19) 0.002874 340.0 43.4
334(18) 0.002994 339.9 42.2
339(18) 0.002950 339.9 41.1
374(19) 0.002674 339.8 40.0
356(19) 0.002809 339.8 39.1
349(19) 0.002865 339.7 38.2
344(19) 0.002907 339.7 37.5
389(20) 0.002571 339.6 36.8
354(19) 0.002825 339.6 36.2
343(19) 0.002915 339.5 35.6
370(19) 0.002703 339.5 35.2
369(19) 0.002710 339.4 34.8
352(19) 0.002841 339.4 34.5
371(19) 0.002695 339.3 34.2
340(18) 0.002941 339.3 34.0
396(20) 0.002525 339.2 33.9
366(19) 0.002732 339.2 33.9
378(19) 0.002646 339.1 33.9
381(20) 0.002625 339.1 33.9
402(20) 0.002488 339.0 34.0
392(20) 0.002551 339.0 34.2
401(20) 0.002494 338.9 34.4
362(19) 0.002762 338.9 34.7
403(20) 0.002481 338.9 35.1
415(20) 0.002410 338.8 35.5
395(20) 0.002532 338.8 36.0
415(20) 0.002410 338.7 36.5
385(20) 0.002597 338.7 37.2
398(20) 0.002513 338.6 37.8
376(19) 0.002660 338.6 38.6
401(20) 0.002494 338.5 39.4
341(18) 0.002933 338.5 40.3
373(19) 0.002681 338.4 41.3
332(18) 0.003012 338.4 42.4
352(19) 0.002841 338.3 43.5
376(19) 0.002660 338.3 44.7
360(19) 0.002778 338.2 46.0
364(19) 0.002747 338.2 47.4
374(19) 0.002674 338.1 48.9
337(18) 0.002967 338.1 50.4
395(20) 0.002532 338.0 52.0
368(19) 0.002717 338.0 53.6
375(19) 0.002667 337.9 55.4
400(20) 0.002500 337.9 57.1
425(21) 0.002353 337.8 58.9
389(20) 0.002571 337.8 60.8
357(19) 0.002801 337.7 62.6
393(20) 0.002545 337.7 64.5
387(20) 0.002584 337.6 66.3
395(20) 0.002532 337.6 68.1
364(19) 0.002747 337.5 69.8
430(21) 0.002326 337.5 71.4
394(20) 0.002538 337.4 72.8
431(21) 0.002320 337.4 74.1
411(20) 0.002433 337.3 75.2
402(20) 0.002488 337.3 76.1
402(20) 0.002488 337.2 76.8
408(20) 0.002451 337.2 77.2
422(21) 0.002370 337.1 77.3
404(20) 0.002475 337.1 77.2
427(21) 0.002342 337.0 76.8
401(20) 0.002494 337.0 76.1
443(21) 0.002257 336.9 75.1
414(20) 0.002415 336.9 73.9
386(20) 0.002591 336.8 72.5
387(20) 0.002584 336.8 71.0
383(20) 0.002611 336.7 69.3
374(19) 0.002674 336.7 67.4
401(20) 0.002494 336.7 65.5
385(20) 0.002597 336.6 63.5
425(21) 0.002353 336.6 61.4
403(20) 0.002481 336.5 59.4
389(20) 0.002571 336.5 57.3
382(20) 0.002618 336.4 55.2
351(19) 0.002849 336.4 53.2
393(20) 0.002545 336.3 51.2
399(20) 0.002506 336.3 49.3
395(20) 0.002532 336.2 47.4
372(19) 0.002688 336.2 45.6
381(20) 0.002625 336.1 43.9
350(19) 0.002857 336.1 42.2
367(19) 0.002725 336.0 40.6
361(19) 0.002770 336.0 39.1
367(19) 0.002725 335.9 37.6
382(20) 0.002618 335.9 36.3
360(19) 0.002778 335.8 35.0
318(18) 0.003145 335.8 33.7
380(19) 0.002632 335.7 32.5
349(19) 0.002865 335.7 31.4
380(19) 0.002632 335.6 30.4
402(20) 0.002488 335.6 29.4
380(19) 0.002632 335.5 28.5
361(19) 0.002770 335.5 27.6
357(19) 0.002801 335.4 26.8
340(18) 0.002941 335.4 26.0
345(19) 0.002899 335.4 25.3
353(19) 0.002833 335.4 24.7
354(19) 0.002825 335.4 24.0
343(19) 0.002915 335.4 23.4
331(18) 0.003021 335.5 22.9
358(19) 0.002793 335.5 22.4
364(19) 0.002747 335.5 21.9
372(19) 0.002688 335.5 21.5
364(19) 0.002747 335.5 21.1
336(18) 0.002976 335.5 20.7
366(19) 0.002732 335.6 20.4
339(18) 0.002950 335.6 20.0
349(19) 0.002865 335.6 19.7
373(19) 0.002681 335.6 19.5
360(19) 0.002778 335.6 19.2
353(19) 0.002833 335.6 19.0
373(19) 0.002681 335.7 18.8
343(19) 0.002915 335.7 18.6
356(19) 0.002809 335.7 18.5
346(19) 0.002890 335.7 18.3
367(19) 0.002725 335.7 18.2
365(19) 0.002740 335.7 18.1
320(18) 0.003125 335.8 18.1
346(19) 0.002890 335.8 18.0
351(19) 0.002849 335.8 18.0
338(18) 0.002959 335.8 18.0
354(19) 0.002825 335.8 18.0
349(19) 0.002865 335.8 18.1
371(19) 0.002695 335.9 18.2
342(18) 0.002924 335.9 18.3
359(19) 0.002786 335.9 18.4
382(20) 0.002618 335.9 18.7
367(19) 0.002725 335.9 18.9
345(19) 0.002899 335.9 19.2
344(19) 0.002907 336.0 19.7
345(19) 0.002899 336.0 20.2
360(19) 0.002778 336.0 20.8
366(19) 0.002732 336.0 21.5
328(18) 0.003049 336.0 22.5
344(19) 0.002907 336.0 23.6
364(19) 0.002747 336.1 25.0
344(19) 0.002907 336.1 26.6
350(19) 0.002857 336.1 28.6
368(19) 0.002717 336.1 30.9
356(19) 0.002809 336.1 33.5
379(19) 0.002639 336.1 36.3
366(19) 0.002732 336.2 39.3
362(19) 0.002762 336.2 42.1
376(19) 0.002660 336.2 44.4
351(19) 0.002849 336.2 45.8
361(19) 0.002770 336.2 46.0
381(20) 0.002625 336.2 45.0
336(18) 0.002976 336.3 43.0
348(19) 0.002874 336.3 40.5
374(19) 0.002674 336.3 37.8
378(19) 0.002646 336.3 35.1
364(19) 0.002747 336.3 32.8
331(18) 0.003021 336.3 30.7
330(18) 0.003030 336.4 29.0
335(18) 0.002985 336.4 27.6
342(18) 0.002924 336.4 26.5
345(19) 0.002899 336.4 25.7
347(19) 0.002882 336.4 25.1
346(19) 0.002890 336.4 24.6
346(19) 0.002890 336.5 24.4
361(19) 0.002770 336.5 24.3
344(19) 0.002907 336.5 24.4
374(19) 0.002674 336.5 24.6
366(19) 0.002732 336.5 24.9
344(19) 0.002907 336.5 25.3
367(19) 0.002725 336.5 25.9
340(18) 0.002941 336.6 26.5
364(19) 0.002747 336.6 27.3
368(19) 0.002717 336.6 28.3
339(18) 0.002950 336.6 29.4
362(19) 0.002762 336.6 30.7
345(19) 0.002899 336.6 32.3
349(19) 0.002865 336.7 34.1
350(19) 0.002857 336.7 36.3
354(19) 0.002825 336.7 38.9
368(19) 0.002717 336.7 42.1
388(20) 0.002577 336.7 45.9
389(20) 0.002571 336.7 50.6
390(20) 0.002564 336.8 56.3
385(20) 0.002597 336.8 63.1
373(19) 0.002681 336.8 71.3
404(20) 0.002475 336.8 81.0
402(20) 0.002488 336.8 92.3
398(20) 0.002513 336.8 105.0
445(21) 0.002247 336.9 118.6
455(21) 0.002198 336.9 132.0
448(21) 0.002232 336.9 143.5
448(21) 0.002232 336.9 151.3
504(22) 0.001984 336.9 154.3
535(23) 0.001869 336.9 152.6
499(22) 0.002004 337.0 147.7
504(22) 0.001984 337.0 141.0
499(22) 0.002004 337.0 133.8
506(22) 0.001976 337.0 126.3
486(22) 0.002058 337.0 118.4
449(21) 0.002227 337.0 110.2
472(22) 0.002119 337.1 101.6
447(21) 0.002237 337.1 93.3
436(21) 0.002294 337.1 85.7
424(21) 0.002358 337.1 79.3
429(21) 0.002331 337.1 74.0
422(21) 0.002370 337.1 69.7
417(20) 0.002398 337.2 66.4
443(21) 0.002257 337.2 63.9
401(20) 0.002494 337.2 62.2
400(20) 0.002500 337.2 61.1
404(20) 0.002475 337.2 60.6
452(21) 0.002212 337.2 60.5
431(21) 0.002320 337.3 61.0
442(21) 0.002262 337.3 62.0
430(21) 0.002326 337.3 63.6
444(21) 0.002252 337.3 65.7
427(21) 0.002342 337.3 68.5
443(21) 0.002257 337.3 72.0
459(21) 0.002179 337.4 76.3
432(21) 0.002315 337.4 81.5
476(22) 0.002101 337.4 87.6
468(22) 0.002137 337.4 94.6
516(23) 0.001938 337.4 102.6
497(22) 0.002012 337.4 111.5
509(23) 0.001965 337.5 121.2
459(21) 0.002179 337.5 131.2
503(22) 0.001988 337.5 141.0
511(23) 0.001957 337.5 149.9
552(23) 0.001812 337.5 156.8
534(23) 0.001873 337.5 161.0
506(22) 0.001976 337.6 161.8
530(23) 0.001887 337.6 159.1
528(23) 0.001894 337.6 153.4
541(23) 0.001848 337.6 145.5
533(23) 0.001876 337.6 136.2
509(23) 0.001965 337.6 126.6
531(23) 0.001883 337.7 117.2
542(23) 0.001845 337.7 108.4
521(23) 0.001919 337.7 100.5
508(23) 0.001968 337.7 93.5
509(23) 0.001965 337.7 87.5
528(23) 0.001894 337.7 82.5
500(22) 0.002000 337.8 78.4
553(24) 0.001808 337.8 75.0
573(24) 0.001745 337.8 72.5
526(23) 0.001901 337.8 70.6
547(23) 0.001828 337.8 69.3
533(23) 0.001876 337.8 68.5
516(23) 0.001938 337.9 68.2
535(23) 0.001869 337.9 68.3
532(23) 0.001880 337.9 68.8
545(23) 0.001835 337.9 69.7
584(24) 0.0 0.0 .
587(24) 0.0 0.0 .
601(25) 0.0 0.0 .
581(24) 0.0 0.0 .
633(25) 0.0 0.0 .
595(24) 0.0 0.0 .
625(25) 0.0 0.0 .
698(26) 0.0 0.0 .
667(26) 0.0 0.0 .
675(26) 0.0 0.0 .
694(26) 0.0 0.0 .
744(27) 0.0 0.0 .
774(28) 0.0 0.0 .
788(28) 0.0 0.0 .
802(28) 0.0 0.0 .
868(29) 0.0 0.0 .
888(30) 0.0 0.0 .
918(30) 0.0 0.0 .
933(31) 0.0 0.0 .
1028(32) 0.0 0.0 .
1025(32) 0.0 0.0 .
1067(33) 0.0 0.0 .
1141(34) 0.0 0.0 .
1252(35) 0.0 0. .
1312(36) 0.0 0. .
1463(38) 0.0 0. .
1620(40) 0.0 0. .
1746(42) 0.0 0. .
1888(43) 0.0 0. .
2225(47) 0.0 0. .
2456(50) 0.0 0. .
2779(53) 0.0 0. .
3210(57) 0.0 0. .
3833(62) 0.0 0. .
4528(67) 0.0 0. .
5560(75) 0.0 0. .
6733(82) 0.0 0. .
8712(93) 0.0 0. .
11490(110) 0.0 0. .
16210(130) 0.0 0. .
23680(150) 0.0 0. .
35620(190) 0.0 0. .
57090(240) 0.0 0. .
96870(310) 0.0 0. .
160340(400) 0.0 0. .
227610(480) 0.0 0. .
237930(490) 0.0 0. .
177520(420) 0.0 0. .
103520(320) 0.0 0. .
59700(240) 0.0 0. .
37140(190) 0.0 0. .
24310(160) 0.0 0. .
16750(130) 0.0 0. .
12020(110) 0.0 0. .
8900(94) 0.0 0. .
6856(83) 0.0 0. .
5513(74) 0.0 0. .
4500(67) 0.0 0. .
3804(62) 0.0 0. .
3368(58) 0.0 0. .
2875(54) 0.0 0. .
2567(51) 0.0 0. .
2362(49) 0.0 0. .
2057(45) 0.0 0. .
1850(43) 0.0 0. .
1787(42) 0.0 0. .
1664(41) 0.0 0. .
1491(39) 0.0 0. .
1416(38) 0.0 0. .
1411(38) 0.0 0. .
1264(36) 0.0 0. .
1196(35) 0.0 0.0 .
1103(33) 0.0 0.0 .
1080(33) 0.0 0.0 .
1040(32) 0.0 0.0 .
984(31) 0.0 0.0 .
911(30) 0.0 0.0 .
901(30) 0.0 0.0 .
865(29) 0.0 0.0 .
839(29) 0.0 0.0 .
796(28) 0.0 0.0 .
777(28) 0.0 0.0 .
773(28) 0.0 0.0 .
714(27) 0.0 0.0 .
727(27) 0.0 0.0 .
694(26) 0.0 0.0 .
691(26) 0.0 0.0 .
707(27) 0.0 0.0 .
679(26) 0.0 0.0 .
632(25) 0.0 0.0 .
588(24) 0.0 0.0 .
608(25) 0.0 0.0 .
594(24) 0.0 0.0 .
579(24) 0.0 0.0 .
614(25) 0.0 0.0 .
570(24) 0.0 0.0 .
557(24) 0.0 0.0 .
541(23) 0.0 0.0 .
593(24) 0.0 0.0 .
549(23) 0.0 0.0 .
506(22) 0.0 0.0 .
545(23) 0.0 0.0 .
515(23) 0.0 0.0 .
515(23) 0.0 0.0 .
515(23) 0.0 0.0 .
539(23) 0.0 0.0 .
486(22) 0.0 0.0 .
446(21) 0.0 0.0 .
514(23) 0.0 0.0 .
522(23) 0.0 0.0 .
442(21) 0.0 0.0 .
435(21) 0.0 0.0 .
467(22) 0.0 0.0 .
470(22) 0.0 0.0 .
479(22) 0.0 0.0 .
469(22) 0.0 0.0 .
458(21) 0.0 0.0 .
470(22) 0.0 0.0 .
466(22) 0.0 0.0 .
435(21) 0.0 0.0 .
418(20) 0.0 0.0 .
419(20) 0.0 0.0 .
415(20) 0.0 0.0 .
453(21) 0.0 0.0 .
451(21) 0.0 0.0 .
418(20) 0.0 0.0 .
452(21) 0.0 0.0 .
448(21) 0.0 0.0 .
438(21) 0.0 0.0 .
451(21) 0.0 0.0 .
463(22) 0.0 0.0 .
475(22) 0.0 0.0 .
438(21) 0.0 0.0 .
475(22) 0.0 0.0 .
467(22) 0.0 0.0 .
474(22) 0.0 0.0 .
477(22) 0.0 0.0 .
446(21) 0.0 0.0 .
446(21) 0.0 0.0 .
429(21) 0.0 0.0 .
490(22) 0.0 0.0 .
444(21) 0.0 0.0 .
446(21) 0.0 0.0 .
430(21) 0.0 0.0 .
413(20) 0.0 0.0 .
407(20) 0.0 0.0 .
406(20) 0.0 0.0 .
408(20) 0.0 0.0 .
397(20) 0.0 0.0 .
393(20) 0.0 0.0 .
389(20) 0.0 0.0 .
429(21) 0.0 0.0 .
440(21) 0.0 0.0 .
421(21) 0.0 0.0 .
378(19) 0.0 0.0 .
407(20) 0.0 0.0 .
439(21) 0.0 0.0 .
395(20) 0.0 0.0 .
405(20) 0.0 0.0 .
424(21) 0.0 0.0 .
428(21) 0.0 0.0 .
404(20) 0.0 0.0 .
399(20) 0.0 0.0 .
408(20) 0.0 0.0 .
431(21) 0.0 0.0 .
428(21) 0.0 0.0 .
403(20) 0.0 0.0 .
403(20) 0.0 0.0 .
443(21) 0.0 0.0 .
445(21) 0.0 0.0 .
428(21) 0.0 0.0 .
414(20) 0.0 0.0 .
400(20) 0.0 0.0 .
460(21) 0.0 0.0 .
434(21) 0.0 0.0 .
401(20) 0.0 0.0 .
415(20) 0.0 0.0 .
406(20) 0.0 0.0 .
397(20) 0.0 0.0 .
406(20) 0.0 0.0 .
389(20) 0.0 0.0 .
381(20) 0.0 0.0 .
391(20) 0.0 0.0 .
387(20) 0.0 0.0 .
394(20) 0.0 0.0 .
417(20) 0.0 0.0 .
409(20) 0.0 0.0 .
383(20) 0.0 0.0 .
358(19) 0.0 0.0 .
354(19) 0.0 0.0 .
373(19) 0.0 0.0 .
373(19) 0.0 0.0 .
379(19) 0.0 0.0 .
414(20) 0.0 0.0 .
375(19) 0.0 0.0 .
378(19) 0.0 0.0 .
368(19) 0.0 0.0 .
333(18) 0.0 0.0 .
376(19) 0.0 0.0 .
386(20) 0.002591 341.2 16.8
376(19) 0.002660 341.2 16.7
329(18) 0.003039 341.2 16.6
344(19) 0.002907 341.3 16.6
346(19) 0.002890 341.6 16.5
352(19) 0.002841 341.8 16.5
335(18) 0.002985 342.1 16.5
345(19) 0.002899 342.4 16.5
371(19) 0.002695 342.6 16.5
376(19) 0.002660 342.9 16.5
377(19) 0.002653 343.2 16.5
354(19) 0.002825 343.4 16.5
331(18) 0.003021 343.7 16.6
341(18) 0.002933 343.9 16.6
352(19) 0.002841 344.2 16.7
352(19) 0.002841 344.5 16.7
354(19) 0.002825 344.7 16.8
363(19) 0.002755 345.0 16.8
372(19) 0.002688 345.3 16.9
350(19) 0.002857 345.5 17.0
366(19) 0.002732 345.8 17.1
369(19) 0.002710 346.0 17.2
371(19) 0.002695 346.3 17.3
380(19) 0.002632 346.6 17.4
352(19) 0.002841 346.8 17.5
363(19) 0.002755 347.1 17.6
363(19) 0.002755 347.4 17.8
423(21) 0.002364 347.6 17.9
355(19) 0.002817 347.9 18.0
356(19) 0.002809 348.2 18.2
355(19) 0.002817 348.4 18.3
346(19) 0.002890 348.7 18.5
338(18) 0.002959 348.9 18.6
360(19) 0.002778 349.2 18.8
389(20) 0.002571 349.5 19.0
365(19) 0.002740 349.7 19.2
400(20) 0.002500 350.0 19.4
367(19) 0.002725 350.3 19.8
365(19) 0.002740 350.5 20.1
350(19) 0.002857 350.8 20.3
382(20) 0.002618 351.1 20.5
377(19) 0.002653 351.3 20.8
364(19) 0.002747 351.6 21.1
374(19) 0.002674 351.8 21.3
334(18) 0.002994 352.1 21.6
355(19) 0.002817 352.4 21.9
358(19) 0.002793 352.6 22.3
391(20) 0.002558 352.9 22.6
359(19) 0.002786 353.2 23.0
377(19) 0.002653 353.4 23.3
368(19) 0.002717 353.7 23.7
381(20) 0.002625 354.0 24.2
362(19) 0.002762 354.2 24.6
385(20) 0.002597 354.5 26.1
385(20) 0.002597 354.7 26.6
424(21) 0.002358 355.0 27.1
429(21) 0.002331 355.3 27.7
389(20) 0.002571 355.5 28.4
428(21) 0.002336 355.8 29.0
493(22) 0.002028 356.1 29.7
417(20) 0.002398 356.3 30.4
435(21) 0.002299 356.6 31.2
413(20) 0.002421 356.9 32.0
394(20) 0.002538 357.1 32.8
397(20) 0.002519 357.4 33.7
396(20) 0.002525 357.6 34.7
379(19) 0.002639 357.9 35.8
408(20) 0.002451 358.2 36.8
353(19) 0.002833 358.4 37.9
370(19) 0.002703 358.7 39.1
370(19) 0.002703 359.0 40.2
363(19) 0.002755 359.2 41.4
365(19) 0.002740 359.5 42.6
391(20) 0.002558 359.8 43.7
351(19) 0.002849 360.0 44.8
385(20) 0.002597 360.3 45.8
384(20) 0.002604 360.5 46.7
397(20) 0.002519 360.8 47.5
395(20) 0.002532 361.1 48.1
378(19) 0.002646 361.3 48.6
392(20) 0.002551 361.6 49.4
383(20) 0.002611 361.9 49.6
374(19) 0.002674 362.1 49.8
367(19) 0.002725 362.4 49.9
396(20) 0.002525 362.7 50.0
371(19) 0.002695 362.9 50.0
363(19) 0.002755 363.2 50.1
379(19) 0.002639 363.4 50.1
373(19) 0.002681 363.7 50.3
381(20) 0.002625 364.0 50.5
437(21) 0.002288 364.2 50.7
367(19) 0.002725 364.5 51.1
380(19) 0.002632 364.8 51.5
400(20) 0.002500 365.0 52.0
401(20) 0.002494 365.3 52.5
383(20) 0.002611 365.5 53.2
379(19) 0.002639 365.8 53.9
393(20) 0.002545 366.1 54.8
356(19) 0.002809 366.3 55.7
376(19) 0.002660 366.6 56.7
418(20) 0.002392 366.9 57.8
377(19) 0.002653 367.1 59.0
417(20) 0.002398 367.4 60.3
387(20) 0.002584 367.7 61.7
417(20) 0.002398 367.9 63.2
417(20) 0.002398 368.2 64.8
432(21) 0.002315 368.4 66.5
383(20) 0.002611 368.7 68.3
407(20) 0.002457 369.0 70.2
432(21) 0.002315 369.2 72.3
400(20) 0.002500 369.5 74.4
432(21) 0.002315 369.8 76.8
426(21) 0.002347 370.0 79.2
428(21) 0.002336 370.3 81.9
430(21) 0.002326 370.6 84.7
426(21) 0.002347 370.8 87.6
432(21) 0.002315 371.1 90.8
458(21) 0.002183 371.3 94.2
467(22) 0.002141 371.6 97.8
426(21) 0.002347 371.9 101.7
436(21) 0.002294 372.1 105.8
451(21) 0.002217 372.4 110.3
477(22) 0.002096 372.7 115.0
471(22) 0.002123 372.9 120.1
467(22) 0.002141 373.2 125.6
472(22) 0.002119 373.5 131.6
526(23) 0.001901 373.7 138.0
490(22) 0.002041 374.0 144.9
488(22) 0.002049 374.2 152.4
507(23) 0.001972 374.5 160.6
500(22) 0.002000 374.8 169.4
558(24) 0.001792 375.0 179.2
559(24) 0.001789 375.3 189.8
591(24) 0.001692 375.6 201.5
561(24) 0.001783 375.8 214.4
592(24) 0.001689 376.1 228.6
599(24) 0.001669 376.4 244.4
632(25) 0.001582 376.6 262.1
664(26) 0.001506 376.9 282.0
703(27) 0.001422 377.1 304.3
730(27) 0.001370 377.4 329.7
753(27) 0.001328 377.7 358.7
816(29) 0.001225 377.9 392.0
814(29) 0.001228 378.2 430.6
949(31) 0.001054 378.5 475.7
967(31) 0.001034 378.7 528.6
1075(33) 0.000930 379.0 591.2
1109(33) 0.000902 379.3 666.0
1216(35) 0.000822 379.5 755.7
1323(36) 0.000756 380. 864.
1453(38) 0.000688 380. 996.
1587(40) 0.000630 380. 1155.
1806(42) 0.000554 381. 1349.
2015(45) 0.000496 381. 1582.
2284(48) 0.000438 381. 1858.
2605(51) 0.000384 381. 2178.
2936(54) 0.0003406 382. 2536.
3437(59) 0.0002910 382. 2912.
3914(63) 0.0002555 382. 3264.
4242(65) 0.0002357 382. 3527.
4143(64) 0.0002414 383. 3632.
3952(63) 0.0002530 383. 3548.
3572(60) 0.0002800 383. 3300.
3227(57) 0.0003099 383. 2958.
2853(53) 0.0003505 384. 2590.
2679(52) 0.000373 384. 2242.
2374(49) 0.000421 384. 1934.
2106(46) 0.000475 385. 1674.
1920(44) 0.000521 385. 1462.
1841(43) 0.000543 385. 1291.
1728(42) 0.000579 385. 1158.
1627(40) 0.000615 386. 1057.
1470(38) 0.000680 386. 983.
1461(38) 0.000684 386. 934.
1438(38) 0.000695 386. 905.
1459(38) 0.000685 387. 896.
1472(38) 0.000679 387. 906.
1383(37) 0.000723 387. 934.
1457(38) 0.000686 387. 980.
1492(39) 0.000670 388. 1044.
1608(40) 0.000622 388. 1125.
1701(41) 0.000588 388. 1219.
1712(41) 0.000584 388. 1322.
1818(43) 0.000550 389. 1425.
1849(43) 0.000541 389. 1519.
1911(44) 0.000523 389. 1594.
1875(43) 0.000533 390. 1646.
2010(45) 0.000498 390. 1668.
1994(45) 0.000502 390. 1655.
1945(44) 0.000514 390. 1600.
1947(44) 0.000514 391. 1504.
1805(42) 0.000554 391. 1373.
1778(42) 0.000562 391. 1224.
1559(39) 0.000641 391. 1073.
1322(36) 0.000756 392. 932.
1250(35) 0.000800 392. 807.
1087(33) 0.000920 392.2 699.5
1038(32) 0.000963 392.4 608.7
878(30) 0.001139 392.7 533.0
873(30) 0.001145 393.0 470.3
790(28) 0.001266 393.2 418.3
789(28) 0.001267 393.5 375.3
712(27) 0.001404 393.7 339.3
719(27) 0.001391 394.0 309.2
669(26) 0.001495 394.3 283.6
657(26) 0.001522 394.5 261.6
627(25) 0.001595 394.8 242.7
608(25) 0.001645 395.1 226.1
620(25) 0.001613 395.3 211.5
570(24) 0.001754 395.6 198.6
541(23) 0.001848 395.9 187.0
548(23) 0.001825 396.1 176.6
551(23) 0.001815 396.4 167.3
514(23) 0.001946 396.6 158.8
516(23) 0.001938 396.9 151.1
506(22) 0.001976 397.2 144.1
497(22) 0.002012 397.4 137.8
478(22) 0.002092 397.7 131.9
517(23) 0.001934 398.0 126.6
472(22) 0.002119 398.2 121.7
490(22) 0.002041 398.5 117.2
485(22) 0.002062 398.8 113.1
530(23) 0.001887 399.0 109.3
488(22) 0.002049 399.3 105.8
466(22) 0.002146 399.5 102.6
471(22) 0.002123 399.8 99.7
472(22) 0.002119 400.1 97.0
450(21) 0.002222 400.3 94.6
475(22) 0.002105 400.6 92.3
470(22) 0.002128 400.9 90.3
463(22) 0.002160 401.1 88.5
475(22) 0.002105 401.4 86.9
455(21) 0.002198 401.6 85.5
462(21) 0.002164 401.9 84.3
450(21) 0.002222 402.2 83.3
457(21) 0.002188 402.4 82.5
462(21) 0.002164 402.7 81.9
451(21) 0.002217 403.0 81.6
468(22) 0.002137 403.2 81.4
460(21) 0.002174 403.5 81.6
448(21) 0.002232 403.8 81.9
499(22) 0.002004 404.0 82.6
457(21) 0.002188 404.3 83.7
472(22) 0.002119 404.5 85.1
445(21) 0.002247 404.8 87.0
488(22) 0.002049 405.1 89.4
464(22) 0.002155 405.3 92.4
479(22) 0.002088 405.6 96.3
483(22) 0.002070 405.9 101.0
535(23) 0.001869 406.1 107.0
531(23) 0.001883 406.4 114.4
564(24) 0.001773 406.7 123.9
559(24) 0.001789 406.9 136.0
589(24) 0.001698 407.2 151.8
626(25) 0.001597 407.4 172.6
680(26) 0.001471 407.7 200.5
753(27) 0.001328 408.0 237.9
754(27) 0.001326 408.2 287.5
832(29) 0.001202 408.5 352.5
947(31) 0.001056 408.8 435.1
1030(32) 0.000971 409.0 533.8
1193(35) 0.000838 409.3 638.4
1237(35) 0.000808 410. 724.
1217(35) 0.000822 409.8 758.3
1225(35) 0.000816 410.1 722.9
1121(33) 0.000892 410.3 635.7
1000(32) 0.001000 410.6 531.7
921(30) 0.001086 410.9 432.2
822(29) 0.001217 411.1 349.0
717(27) 0.001395 411.4 283.3
742(27) 0.001348 411.7 233.0
713(27) 0.001403 411.9 195.0
694(26) 0.001441 412.2 166.3
657(26) 0.001522 412.5 144.6
685(26) 0.001460 412.7 127.9
707(27) 0.001414 413.0 114.9
695(26) 0.001439 413.2 104.6
706(27) 0.001416 413.5 96.1
680(26) 0.001471 413.8 89.2
689(26) 0.001451 414.0 83.4
665(26) 0.001504 414.3 78.6
639(25) 0.001565 414.6 74.4
657(26) 0.001522 414.8 70.9
625(25) 0.001600 415.1 67.8
590(24) 0.001695 415.4 65.2
556(24) 0.001799 415.6 62.9
554(24) 0.001805 415.9 60.9
509(23) 0.001965 416.1 59.1
528(23) 0.001894 416.4 57.6
490(22) 0.002041 416.7 56.2
527(23) 0.001898 416.9 55.0
496(22) 0.002016 417.2 53.9
467(22) 0.002141 417.5 53.0
468(22) 0.002137 417.7 52.2
476(22) 0.002101 418.0 51.4
450(21) 0.002222 418.3 50.8
456(21) 0.002193 418.5 50.2
448(21) 0.002232 418.8 49.7
464(22) 0.002155 419.0 49.8
441(21) 0.002268 419.3 49.4
431(21) 0.002320 419.6 49.1
450(21) 0.002222 419.8 48.9
445(21) 0.002247 420.1 48.7
411(20) 0.002433 420.4 48.6
445(21) 0.002247 420.5 48.5
427(21) 0.002342 420.4 48.4
407(20) 0.002457 420.3 48.4
410(20) 0.002439 420.3 48.4
388(20) 0.002577 420.2 48.5
412(20) 0.002427 420.1 48.6
410(20) 0.002439 420.1 48.7
424(21) 0.002358 420.0 48.9
422(21) 0.002370 419.9 49.1
422(21) 0.002370 419.9 49.4
414(20) 0.002415 419.8 49.6
439(21) 0.002278 419.7 49.9
406(20) 0.002463 419.7 50.3
449(21) 0.002227 419.6 50.7
427(21) 0.002342 419.5 51.1
459(21) 0.002179 419.5 51.5
487(22) 0.002053 419.4 52.0
434(21) 0.002304 419.4 52.6
436(21) 0.002294 419.3 53.1
452(21) 0.002212 419.2 53.7
440(21) 0.002273 419.2 54.4
473(22) 0.002114 419.1 55.1
437(21) 0.002288 419.0 55.8
442(21) 0.002262 419.0 56.6
458(21) 0.002183 418.9 57.4
426(21) 0.002347 418.8 58.3
458(21) 0.002183 418.8 59.2
419(20) 0.002387 418.7 60.1
408(20) 0.002451 418.6 61.2
444(21) 0.002252 418.6 62.2
457(21) 0.002188 418.5 63.4
461(21) 0.002169 418.4 64.6
480(22) 0.002083 418.4 65.8
452(21) 0.002212 418.3 67.1
475(22) 0.002105 418.2 68.5
462(21) 0.002164 418.2 70.0
476(22) 0.002101 418.1 71.5
514(23) 0.001946 418.0 73.1
549(23) 0.001822 418.0 74.8
462(21) 0.002164 417.9 76.6
525(23) 0.001905 417.9 78.5
480(22) 0.002083 417.8 80.4
466(22) 0.002146 417.7 82.5
497(22) 0.002012 417.7 84.7
481(22) 0.002079 417.6 87.0
493(22) 0.002028 417.5 89.3
469(22) 0.002132 417.5 91.9
502(22) 0.001992 417.4 94.5
484(22) 0.002066 417.3 97.3
503(22) 0.001988 417.3 100.2
522(23) 0.001916 417.2 103.2
519(23) 0.001927 417.1 106.4
483(22) 0.002070 417.1 109.8
524(23) 0.001908 417.0 113.3
513(23) 0.001949 416.9 117.0
485(22) 0.002062 416.9 120.8
515(23) 0.001942 416.8 124.9
546(23) 0.001832 416.7 129.1
537(23) 0.001862 416.7 133.6
544(23) 0.001838 416.6 138.3
514(23) 0.001946 416.6 143.3
499(22) 0.002004 416.5 148.4
587(24) 0.001704 416.4 153.9
563(24) 0.001776 416.4 159.7
509(23) 0.001965 416.3 165.8
583(24) 0.001715 416.2 172.2
584(24) 0.001712 416.2 179.0
631(25) 0.001585 416.1 186.2
563(24) 0.001776 416.0 193.8
620(25) 0.001613 416.0 201.9
617(25) 0.001621 415.9 210.6
626(25) 0.001597 415.8 219.9
663(26) 0.001508 415.8 230.0
645(25) 0.001550 415.7 241.0
653(26) 0.001531 415.6 253.2
708(27) 0.001412 415.6 266.7
685(26) 0.001460 415.5 282.0
725(27) 0.001379 415.4 299.2
742(27) 0.001348 415.4 318.8
749(27) 0.001335 415.3 341.4
777(28) 0.001287 415.3 367.8
801(28) 0.001248 415.2 398.7
825(29) 0.001212 415.1 435.4
902(30) 0.001109 415.1 479.6
908(30) 0.001101 415.0 533.6
1013(32) 0.000987 414.9 601.2
1092(33) 0.000916 414.9 688.0
1201(35) 0.000833 414.8 803.5
1369(37) 0.000730 415. 963.
1535(39) 0.000651 415. 1191.
1821(43) 0.000549 415. 1522.
2321(48) 0.000431 415. 1993.
2844(53) 0.000352 414. 2620.
3596(60) 0.0002781 414. 3290.
4375(66) 0.0002286 414. 3654.
4196(65) 0.0002383 414. 3420.
3541(60) 0.0002824 414. 2817.
2826(53) 0.000354 414. 2219.
2503(50) 0.000400 414. 1768.
2132(46) 0.000469 414. 1460.
1943(44) 0.000515 414. 1255.
1813(43) 0.000552 414. 1117.
1624(40) 0.000616 414. 1021.
1595(40) 0.000627 414. 950.
1511(39) 0.000662 414. 895.
1398(37) 0.000715 414. 849.
1350(37) 0.000741 414. 810.
1290(36) 0.000775 413. 775.
1244(35) 0.000804 413. 745.
1161(34) 0.000861 413.4 717.8
1083(33) 0.000923 413.3 693.9
1098(33) 0.000911 413.2 673.3
1073(33) 0.000932 413.2 655.8
1081(33) 0.000925 413.1 641.4
1006(32) 0.000994 413.0 630.0
1006(32) 0.000994 413.0 621.6
1009(32) 0.000991 412.9 615.9
1009(32) 0.000991 412.8 612.8
995(32) 0.001005 412.8 612.0
1044(32) 0.000958 412.7 613.2
1009(32) 0.000991 412.6 616.2
1027(32) 0.000974 412.6 620.3
988(31) 0.001012 412.5 625.1
993(32) 0.001007 412.5 630.3
950(31) 0.001053 412.4 635.1
1022(32) 0.000978 412.3 638.9
1024(32) 0.000977 412.3 641.2
1003(32) 0.000997 412.2 641.2
1003(32) 0.000997 412.1 638.6
989(31) 0.001011 412.1 633.4
1042(32) 0.000960 412.0 625.7
1023(32) 0.000978 411.9 615.8
978(31) 0.001022 411.9 603.8
1045(32) 0.000957 411.8 588.9
1020(32) 0.000980 411.7 569.4
1002(32) 0.000998 411.7 544.0
952(31) 0.001050 411.6 513.9
926(30) 0.001080 411.5 481.8
936(31) 0.001068 411.5 450.1
870(29) 0.001149 411.4 420.5
901(30) 0.001110 411.3 393.6
868(29) 0.001152 411.3 369.3
790(28) 0.001266 411.2 347.7
774(28) 0.001292 411.2 328.5
730(27) 0.001370 411.1 311.5
719(27) 0.001391 411.0 296.5
747(27) 0.001339 411.0 283.4
682(26) 0.001466 410.9 272.0
709(27) 0.001410 410.8 262.1
701(26) 0.001427 410.8 253.6
680(26) 0.001471 410.7 246.4
725(27) 0.001379 410.6 240.4
740(27) 0.001351 410.6 235.5
700(26) 0.001429 410.5 231.6
702(26) 0.001424 410.4 228.7
728(27) 0.001374 410.4 226.7
812(28) 0.001232 410.3 225.6
763(28) 0.001311 410.2 225.3
912(30) 0.001096 410.2 225.8
1170(34) 0.000855 410.1 227.2
1612(40) 0.000620 410. 229.
1369(37) 0.000730 410. 232.
949(31) 0.001054 409.9 236.0
812(28) 0.001232 409.8 240.7
817(29) 0.001224 409.8 246.2
784(28) 0.001276 409.7 252.8
816(29) 0.001225 409.7 260.5
731(27) 0.001368 409.6 269.6
816(29) 0.001225 409.5 280.2
733(27) 0.001364 409.5 292.5
785(28) 0.001274 409.4 306.7
842(29) 0.001188 409.3 323.2
784(28) 0.001276 409.3 342.2
858(29) 0.001166 409.2 364.1
862(29) 0.001160 409.1 389.3
877(30) 0.001140 409.1 418.1
892(30) 0.001121 409.0 451.0
1016(32) 0.000984 408.9 488.4
1128(34) 0.000887 408.9 530.6
1227(35) 0.000815 408.8 577.9
1235(35) 0.000810 409. 630.
1198(35) 0.000835 408.7 688.2
1231(35) 0.000812 409. 751.
1338(37) 0.000747 409. 817.
1348(37) 0.000742 408. 885.
1391(37) 0.000719 408. 953.
1459(38) 0.000685 408. 1016.
1452(38) 0.000689 408. 1070.
1538(39) 0.000650 408. 1111.
1604(40) 0.000623 408. 1135.
1607(40) 0.000622 408. 1140.
1586(40) 0.000631 408. 1126.
1590(40) 0.000629 408. 1096.
1491(39) 0.000671 408. 1055.
1451(38) 0.000689 408. 1006.
1337(37) 0.000748 408. 954.
1238(35) 0.000808 408. 903.
1228(35) 0.000814 407.6 854.4
1167(34) 0.000857 407.6 811.0
1159(34) 0.000863 407.5 773.2
1103(33) 0.000907 407.4 741.6
1131(34) 0.000884 407.4 716.3
1113(33) 0.000898 407.3 697.3
1041(32) 0.000961 407.2 684.6
1064(33) 0.000940 407.2 678.1
1119(33) 0.000894 407.1 677.7
1100(33) 0.000909 407.1 683.8
1087(33) 0.000920 407.0 696.5
1163(34) 0.000860 406.9 716.6
1153(34) 0.000867 406.9 744.9
1251(35) 0.000799 407. 783.
1260(35) 0.000794 407. 832.
1426(38) 0.000701 407. 895.
1440(38) 0.000694 407. 974.
1512(39) 0.000661 407. 1071.
1684(41) 0.000594 406. 1188.
1725(42) 0.000580 406. 1326.
1889(43) 0.000529 406. 1479.
2027(45) 0.000493 406. 1635.
2088(46) 0.000479 406. 1771.
2209(47) 0.000453 406. 1864.
2214(47) 0.000452 406. 1900.
2223(47) 0.000450 406. 1891.
2308(48) 0.000433 406. 1862.
2313(48) 0.000432 406. 1839.
2416(49) 0.000414 406. 1837.
2399(49) 0.000417 406. 1863.
2439(49) 0.000410 406. 1919.
2606(51) 0.000384 406. 2003.
2690(52) 0.000372 406. 2111.
2798(53) 0.000357 405. 2240.
2977(55) 0.0003359 405. 2381.
3302(57) 0.0003028 405. 2525.
3484(59) 0.0002870 405. 2662.
3524(59) 0.0002838 405. 2779.
3593(60) 0.0002783 405. 2866.
3524(59) 0.0002838 405. 2915.
3594(60) 0.0002782 405. 2923.
3430(59) 0.0002915 405. 2890.
3226(57) 0.0003100 405. 2817.
3058(55) 0.0003270 405. 2711.
2894(54) 0.0003455 405. 2577.
2722(52) 0.000367 405. 2424.
2605(51) 0.000384 405. 2259.
2430(49) 0.000412 405. 2091.
2324(48) 0.000430 405. 1924.
2119(46) 0.000472 404. 1763.
2066(45) 0.000484 404. 1610.
1913(44) 0.000523 404. 1468.
1868(43) 0.000535 404. 1338.
1703(41) 0.000587 404. 1218.
1669(41) 0.000599 404. 1110.
1621(40) 0.000617 404. 1013.
1572(40) 0.000636 404. 926.
1466(38) 0.000682 404. 848.
1400(37) 0.000714 404. 779.
1366(37) 0.000732 404. 718.
1351(37) 0.000740 404. 665.
1324(36) 0.000755 404. 617.
1307(36) 0.000765 404. 576.
1280(36) 0.000781 404. 540.
1235(35) 0.000810 403. 509.
1212(35) 0.000825 403.4 482.3
1201(35) 0.000833 403.3 458.7
1135(34) 0.000881 403.3 437.5
1158(34) 0.000864 403.2 418.5
1127(34) 0.000887 403.1 400.5
1137(34) 0.000880 403.1 382.8
1158(34) 0.000864 403.0 365.1
1144(34) 0.000874 403.0 347.7
1083(33) 0.000923 402.9 330.9
1079(33) 0.000927 402.8 314.9
1028(32) 0.000973 402.8 300.2
1031(32) 0.000970 402.7 286.7
1021(32) 0.000979 402.6 274.6
969(31) 0.001032 402.6 263.6
1038(32) 0.000963 402.5 253.8
964(31) 0.001037 402.4 245.1
1016(32) 0.000984 402.4 237.2
950(31) 0.001053 402.3 230.3
1064(33) 0.000940 402.2 224.0
1045(32) 0.000957 402.2 218.3
1034(32) 0.000967 402.1 213.3
1027(32) 0.000974 402.0 208.8
1048(32) 0.000954 402.0 204.5
1032(32) 0.000969 401.9 200.7
1048(32) 0.000954 401.8 197.1
1031(32) 0.000970 401.8 193.7
1139(34) 0.000878 401.7 190.5
1163(34) 0.000860 401.6 187.5
1150(34) 0.000870 401.6 184.5
1270(36) 0.000787 402. 182.
1250(35) 0.000800 401. 179.
1370(37) 0.000730 401. 176.
1341(37) 0.000746 401. 173.
1335(37) 0.000749 401. 170.
1390(37) 0.000719 401. 167.
1396(37) 0.000716 401. 164.
1472(38) 0.000679 401. 161.
1463(38) 0.000684 401. 158.
1465(38) 0.000683 401. 155.
1397(37) 0.000716 401. 152.
1416(38) 0.000706 401. 149.
1447(38) 0.000691 401. 146.
1478(38) 0.000677 401. 143.
1417(38) 0.000706 401. 140.
1458(38) 0.000686 401. 138.
1520(39) 0.000658 400. 136.
1524(39) 0.0 0. .
1523(39) 0.0 0. .
1636(40) 0.0 0. .
1662(41) 0.0 0. .
1729(42) 0.0 0. .
1856(43) 0.0 0. .
1876(43) 0.0 0. .
2015(45) 0.0 0. .
2092(46) 0.0 0. .
2194(47) 0.0 0. .
2287(48) 0.0 0. .
2512(50) 0.0 0. .
2722(52) 0.0 0. .
2939(54) 0.0 0. .
3170(56) 0.0 0. .
3440(59) 0.0 0. .
3752(61) 0.0 0. .
4137(64) 0.0 0. .
4679(68) 0.0 0. .
5344(73) 0.0 0. .
6020(78) 0.0 0. .
6898(83) 0.0 0. .
7970(89) 0.0 0. .
9361(97) 0.0 0. .
11140(110) 0.0 0. .
13550(120) 0.0 0. .
16790(130) 0.0 0. .
21100(150) 0.0 0. .
27600(170) 0.0 0. .
36010(190) 0.0 0. .
49160(220) 0.0 0. .
69480(260) 0.0 0. .
102940(320) 0.0 0. .
160950(400) 0.0 0. .
263880(510) 0.0 0. .
419570(650) 0.0 0. .
577810(760) 0.0 0. .
622050(790) 0.0 0. .
507630(710) 0.0 0. .
331920(580) 0.0 0. .
199650(450) 0.0 0. .
123340(350) 0.0 0. .
80550(280) 0.0 0. .
55770(240) 0.0 0. .
40160(200) 0.0 0. .
29500(170) 0.0 0. .
22950(150) 0.0 0. .
17900(130) 0.0 0. .
14620(120) 0.0 0. .
11840(110) 0.0 0. .
9895(99) 0.0 0. .
8074(90) 0.0 0. .
7088(84) 0.0 0. .
6094(78) 0.0 0. .
5294(73) 0.0 0. .
4735(69) 0.0 0. .
4220(65) 0.0 0. .
3744(61) 0.0 0. .
3376(58) 0.0 0. .
3029(55) 0.0 0. .
2862(53) 0.0 0. .
2559(51) 0.0 0. .
2390(49) 0.0 0. .
2182(47) 0.0 0. .
2094(46) 0.0 0. .
1905(44) 0.0 0. .
1775(42) 0.0 0. .
1644(41) 0.0 0. .
1592(40) 0.0 0. .
1483(39) 0.0 0. .
1413(38) 0.0 0. .
1420(38) 0.0 0. .
1302(36) 0.0 0. .
1230(35) 0.0 0.0 .
1223(35) 0.0 0.0 .
1275(36) 0.0 0. .
1171(34) 0.0 0.0 .
1136(34) 0.0 0.0 .
1056(32) 0.0 0.0 .
990(31) 0.0 0.0 .
1023(32) 0.0 0.0 .
947(31) 0.0 0.0 .
926(30) 0.0 0.0 .
924(30) 0.0 0.0 .
917(30) 0.0 0.0 .
909(30) 0.0 0.0 .
872(30) 0.0 0.0 .
940(31) 0.0 0.0 .
843(29) 0.0 0.0 .
798(28) 0.0 0.0 .
846(29) 0.0 0.0 .
811(28) 0.0 0.0 .
787(28) 0.0 0.0 .
743(27) 0.0 0.0 .
749(27) 0.0 0.0 .
797(28) 0.0 0.0 .
796(28) 0.0 0.0 .
704(27) 0.0 0.0 .
734(27) 0.0 0.0 .
741(27) 0.0 0.0 .
721(27) 0.0 0.0 .
680(26) 0.0 0.0 .
693(26) 0.0 0.0 .
729(27) 0.0 0.0 .
706(27) 0.0 0.0 .
712(27) 0.0 0.0 .
706(27) 0.0 0.0 .
692(26) 0.0 0.0 .
695(26) 0.0 0.0 .
691(26) 0.0 0.0 .
700(26) 0.0 0.0 .
644(25) 0.0 0.0 .
666(26) 0.0 0.0 .
608(25) 0.0 0.0 .
639(25) 0.0 0.0 .
622(25) 0.0 0.0 .
620(25) 0.0 0.0 .
617(25) 0.0 0.0 .
601(25) 0.0 0.0 .
620(25) 0.0 0.0 .
620(25) 0.0 0.0 .
584(24) 0.0 0.0 .
580(24) 0.0 0.0 .
564(24) 0.0 0.0 .
612(25) 0.0 0.0 .
565(24) 0.0 0.0 .
568(24) 0.0 0.0 .
606(25) 0.0 0.0 .
536(23) 0.0 0.0 .
563(24) 0.0 0.0 .
560(24) 0.0 0.0 .
564(24) 0.0 0.0 .
558(24) 0.0 0.0 .
594(24) 0.0 0.0 .
562(24) 0.0 0.0 .
542(23) 0.0 0.0 .
537(23) 0.0 0.0 .
537(23) 0.0 0.0 .
540(23) 0.0 0.0 .
558(24) 0.0 0.0 .
565(24) 0.0 0.0 .
590(24) 0.0 0.0 .
608(25) 0.0 0.0 .
573(24) 0.0 0.0 .
577(24) 0.0 0.0 .
565(24) 0.0 0.0 .
581(24) 0.0 0.0 .
554(24) 0.0 0.0 .
539(23) 0.0 0.0 .
512(23) 0.0 0.0 .
566(24) 0.0 0.0 .
551(23) 0.0 0.0 .
513(23) 0.0 0.0 .
499(22) 0.0 0.0 .
495(22) 0.0 0.0 .
519(23) 0.0 0.0 .
542(23) 0.0 0.0 .
529(23) 0.0 0.0 .
509(23) 0.0 0.0 .
530(23) 0.0 0.0 .
556(24) 0.0 0.0 .
505(22) 0.001980 389.9 53.7
489(22) 0.002045 389.9 54.9
523(23) 0.001912 389.8 56.1
528(23) 0.001894 389.7 57.5
530(23) 0.001887 389.7 58.9
482(22) 0.002075 389.6 60.5
515(23) 0.001942 389.5 62.2
486(22) 0.002058 389.5 64.0
516(23) 0.001938 389.4 66.0
512(23) 0.001953 389.3 68.1
539(23) 0.001855 389.3 70.3
540(23) 0.001852 389.2 72.8
533(23) 0.001876 389.2 75.4
515(23) 0.001942 389.1 78.3
529(23) 0.001890 389.0 81.3
533(23) 0.001876 389.0 84.7
511(23) 0.001957 388.9 88.3
559(24) 0.001789 388.8 92.2
541(23) 0.001848 388.8 96.4
523(23) 0.001912 388.7 100.9
544(23) 0.001838 388.6 105.8
548(23) 0.001825 388.6 111.0
549(23) 0.001822 388.5 116.7
561(24) 0.001783 388.4 122.8
540(23) 0.001852 388.4 129.3
563(24) 0.001776 388.3 136.3
594(24) 0.001684 388.2 143.7
578(24) 0.001730 388.2 151.6
599(24) 0.001669 388.1 160.0
622(25) 0.001608 388.0 168.9
599(24) 0.001669 388.0 178.2
618(25) 0.001618 387.9 188.0
613(25) 0.001631 387.9 198.1
623(25) 0.001605 387.8 208.6
679(26) 0.001473 387.7 219.4
638(25) 0.001567 387.7 230.2
633(25) 0.001580 387.6 241.1
682(26) 0.001466 387.5 251.9
692(26) 0.001445 387.5 262.3
667(26) 0.001499 387.4 272.2
679(26) 0.001473 387.3 281.4
739(27) 0.001353 387.3 289.8
698(26) 0.001433 387.2 297.1
706(27) 0.001416 387.1 303.3
777(28) 0.001287 387.1 308.4
732(27) 0.001366 387.0 312.4
734(27) 0.001362 386.9 315.4
762(28) 0.001312 386.9 317.8
743(27) 0.001346 386.8 319.7
781(28) 0.001280 386.7 321.6
769(28) 0.001300 386.7 323.8
755(27) 0.001324 386.6 326.8
761(28) 0.001314 386.5 330.9
726(27) 0.001377 386.5 336.5
759(28) 0.001318 386.4 344.0
747(27) 0.001339 386.4 353.7
787(28) 0.001271 386.3 365.8
760(28) 0.001316 386.2 380.3
789(28) 0.001267 386.2 397.1
820(29) 0.001220 386.1 415.6
847(29) 0.001181 386.0 435.0
849(29) 0.001178 386.0 453.9
833(29) 0.001200 385.9 470.4
861(29) 0.001161 385.8 482.4
838(29) 0.001193 385.8 487.8
903(30) 0.001107 385.7 485.4
865(29) 0.001156 385.6 475.1
824(29) 0.001214 385.6 457.9
785(28) 0.001274 385.5 435.7
778(28) 0.001285 385.4 410.7
752(27) 0.001330 385.4 384.9
717(27) 0.001395 385.3 359.8
719(27) 0.001391 385.2 336.4
709(27) 0.001410 385.2 315.3
655(26) 0.001527 385.1 296.8
673(26) 0.001486 385.1 281.2
672(26) 0.001488 385.0 268.1
642(25) 0.001558 384.9 257.6
639(25) 0.001565 384.9 249.5
656(26) 0.001524 384.8 243.7
616(25) 0.001623 384.7 240.1
625(25) 0.001600 384.7 238.6
678(26) 0.001475 384.6 239.2
654(26) 0.001529 384.5 241.9
678(26) 0.001475 384.5 246.8
727(27) 0.001376 384.4 254.1
738(27) 0.001355 384.3 264.1
737(27) 0.001357 384.3 277.2
746(27) 0.001340 384.2 293.9
813(29) 0.001230 384.1 314.8
854(29) 0.001171 384.1 340.3
881(30) 0.001135 384.0 370.5
992(31) 0.001008 383.9 405.1
978(31) 0.001022 383.9 442.2
1018(32) 0.000982 383.8 477.8
978(31) 0.001022 383.8 505.5
1022(32) 0.000978 383.7 518.5
1005(32) 0.000995 383.6 513.5
944(31) 0.001059 383.6 493.0
900(30) 0.001111 383.5 463.6
851(29) 0.001175 383.4 431.7
845(29) 0.001183 383.4 401.8
731(27) 0.001368 383.3 375.7
747(27) 0.001339 383.2 354.0
748(27) 0.001337 383.2 336.6
672(26) 0.001488 383.1 322.8
721(27) 0.001387 383.0 312.1
695(26) 0.001439 383.0 303.9
636(25) 0.001572 382.9 297.7
672(26) 0.001488 382.8 292.9
645(25) 0.001550 382.8 289.4
665(26) 0.001504 382.7 286.7
644(25) 0.001553 382.6 284.8
660(26) 0.001515 382.6 283.4
615(25) 0.001626 382.5 282.6
634(25) 0.001577 382.4 282.1
630(25) 0.001587 382.4 282.1
613(25) 0.001631 382.3 282.4
609(25) 0.001642 382.3 283.2
672(26) 0.001488 382.2 284.4
651(26) 0.001536 382.1 286.0
645(25) 0.001550 382.1 288.0
666(26) 0.001501 382.0 290.5
687(26) 0.001456 381.9 293.5
679(26) 0.001473 381.9 297.0
685(26) 0.001460 381.8 300.9
683(26) 0.001464 381.7 305.3
686(26) 0.001458 381.7 310.1
733(27) 0.001364 381.6 315.3
717(27) 0.001395 381.5 320.8
727(27) 0.001376 381.5 326.4
774(28) 0.001292 381.4 331.9
788(28) 0.001269 381.3 336.9
771(28) 0.001297 381.3 340.9
821(29) 0.001218 381.2 343.0
816(29) 0.001225 381.1 342.8
823(29) 0.001215 381.1 339.7
765(28) 0.001307 381.0 333.9
810(28) 0.001235 381.0 325.7
749(27) 0.001335 380.9 315.9
738(27) 0.001355 380.8 305.2
711(27) 0.001406 380.8 294.3
719(27) 0.001391 380.7 283.4
672(26) 0.001488 380.6 272.9
641(25) 0.001560 380.6 262.9
621(25) 0.001610 380.5 253.5
642(25) 0.001558 380.4 244.8
619(25) 0.001616 380.4 236.7
606(25) 0.001650 380.3 229.3
595(24) 0.001681 380.2 222.6
618(25) 0.001618 380.2 216.5
570(24) 0.001754 380.1 211.1
580(24) 0.001724 380.0 206.3
528(23) 0.001894 380.0 202.1
573(24) 0.001745 379.9 198.4
577(24) 0.001733 379.8 195.2
589(24) 0.001698 379.8 192.5
575(24) 0.001739 379.7 190.2
589(24) 0.001698 379.7 188.3
567(24) 0.001764 379.6 186.6
574(24) 0.001742 379.5 185.1
600(24) 0.001667 379.5 183.8
590(24) 0.001695 379.4 182.5
592(24) 0.001689 379.3 181.3
604(25) 0.001656 379.3 180.0
597(24) 0.001675 379.2 178.7
584(24) 0.001712 379.1 177.4
632(25) 0.001582 379.1 176.2
586(24) 0.001706 379.0 175.2
605(25) 0.001653 378.9 174.4
583(24) 0.001715 378.9 173.9
598(24) 0.001672 378.8 173.9
574(24) 0.001742 378.7 174.5
598(24) 0.001672 378.7 175.8
599(24) 0.001669 378.6 177.7
606(25) 0.001650 378.5 180.6
587(24) 0.001704 378.5 184.4
591(24) 0.001692 378.4 189.2
636(25) 0.001572 378.3 195.2
671(26) 0.001490 378.3 202.3
657(26) 0.001522 378.2 210.7
672(26) 0.001488 378.2 220.3
679(26) 0.001473 378.1 231.0
666(26) 0.001501 378.0 242.7
754(27) 0.001326 378.0 255.2
721(27) 0.001387 377.9 267.7
749(27) 0.001335 377.8 279.7
753(27) 0.001328 377.8 290.0
766(28) 0.001305 377.7 297.5
781(28) 0.001280 377.6 301.4
785(28) 0.001274 377.6 301.0
739(27) 0.001353 377.5 296.5
732(27) 0.001366 377.4 288.6
665(26) 0.001504 377.4 278.4
671(26) 0.001490 377.3 266.9
678(26) 0.001475 377.2 255.1
631(25) 0.001585 377.2 243.6
660(26) 0.001515 377.1 233.0
656(26) 0.001524 377.0 223.6
602(25) 0.001661 377.0 215.5
568(24) 0.001761 376.9 208.8
596(24) 0.001678 376.9 203.6
599(24) 0.001669 376.8 199.8
608(25) 0.001645 376.7 197.7
612(25) 0.001634 376.7 197.1
596(24) 0.001678 376.6 198.2
619(25) 0.001616 376.5 201.1
569(24) 0.001757 376.5 206.0
652(26) 0.001534 376.4 213.2
647(25) 0.001546 376.3 223.0
665(26) 0.001504 376.3 235.8
692(26) 0.001445 376.2 252.2
736(27) 0.001359 376.1 273.0
785(28) 0.001274 376.1 298.8
792(28) 0.001263 376.0 330.6
843(29) 0.001186 375.9 369.3
895(30) 0.001117 375.9 415.8
957(31) 0.001045 375.8 470.9
1109(33) 0.000902 375.7 535.0
1151(34) 0.000869 375.7 607.8
1263(36) 0.000792 376. 688.
1311(36) 0.000763 376. 771.
1486(39) 0.000673 375. 851.
1503(39) 0.000665 375. 917.
1588(40) 0.000630 375. 959.
1459(38) 0.000685 375. 970.
1459(38) 0.000685 375. 945.
1338(37) 0.000747 375. 892.
1252(35) 0.000799 375. 820.
1168(34) 0.000856 375.0 740.6
1126(34) 0.000888 375.0 661.3
1097(33) 0.000912 374.9 587.9
1022(32) 0.000978 374.8 523.1
1008(32) 0.000992 374.8 467.9
940(31) 0.001064 374.7 422.3
900(30) 0.001111 374.6 385.8
923(30) 0.001083 374.6 357.5
890(30) 0.001124 374.5 336.5
903(30) 0.001107 374.4 321.8
905(30) 0.001105 374.4 312.2
895(30) 0.001117 374.3 307.0
898(30) 0.001114 374.2 305.1
899(30) 0.001112 374.2 305.9
944(31) 0.001059 374.1 309.0
908(30) 0.001101 374.1 314.0
953(31) 0.001049 374.0 320.5
960(31) 0.001042 373.9 327.8
995(32) 0.001005 373.9 335.1
1026(32) 0.000975 373.8 341.1
1000(32) 0.001000 373.7 344.4
942(31) 0.001062 373.7 343.7
1028(32) 0.000973 373.6 338.2
971(31) 0.001030 373.5 327.8
955(31) 0.001047 373.5 313.1
866(29) 0.001155 373.4 295.1
783(28) 0.001277 373.3 275.2
781(28) 0.001280 373.3 254.5
708(27) 0.001412 373.2 234.1
697(26) 0.001435 373.1 214.5
674(26) 0.001484 373.1 196.3
645(25) 0.001550 373.0 179.5
611(25) 0.001637 372.9 164.4
606(25) 0.001650 372.9 150.8
588(24) 0.001701 372.8 138.8
566(24) 0.001767 372.8 128.1
532(23) 0.001880 372.7 118.8
536(23) 0.001866 372.6 110.6
515(23) 0.001942 372.6 103.4
496(22) 0.002016 372.5 97.1
494(22) 0.002024 372.4 91.6
507(23) 0.001972 372.4 86.8
497(22) 0.002012 372.3 82.6
492(22) 0.002033 372.2 78.9
425(21) 0.002353 372.2 75.7
457(21) 0.002188 372.1 72.9
424(21) 0.002358 372.0 70.5
430(21) 0.002326 372.0 68.3
436(21) 0.002294 371.9 66.5
440(21) 0.002273 371.8 64.9
422(21) 0.002370 371.8 63.5
424(21) 0.002358 371.7 62.4
439(21) 0.002278 371.6 61.5
440(21) 0.002273 371.6 60.7
422(21) 0.002370 371.5 60.2
425(21) 0.002353 371.5 60.0
430(21) 0.002326 371.4 59.9
427(21) 0.002342 371.3 60.0
430(21) 0.002326 371.3 60.4
408(20) 0.002451 371.2 60.9
447(21) 0.002237 371.1 61.7
476(22) 0.002101 371.1 62.8
429(21) 0.002331 371.0 64.1
432(21) 0.002315 370.9 65.6
439(21) 0.002278 370.9 67.5
426(21) 0.002347 370.8 69.7
405(20) 0.002469 370.7 72.2
459(21) 0.002179 370.7 75.0
425(21) 0.002353 370.6 78.1
445(21) 0.002247 370.5 81.6
460(21) 0.002174 370.5 85.4
458(21) 0.002183 370.4 89.5
412(20) 0.002427 370.3 93.9
484(22) 0.002066 370.3 98.4
441(21) 0.002268 370.2 103.1
412(20) 0.002427 370.1 107.8
430(21) 0.002326 370.1 112.3
477(22) 0.002096 370.0 116.4
446(21) 0.002242 370.0 120.0
486(22) 0.002058 369.9 122.9
491(22) 0.002037 369.8 124.8
507(23) 0.001972 369.8 125.7
494(22) 0.002024 369.7 125.4
502(22) 0.001992 369.6 124.0
480(22) 0.002083 369.6 121.5
470(22) 0.002128 369.5 118.1
480(22) 0.002083 369.4 114.0
436(21) 0.002294 369.4 109.3
444(21) 0.002252 369.3 104.4
462(21) 0.002164 369.2 99.3
445(21) 0.002247 369.2 94.2
442(21) 0.002262 369.1 89.2
411(20) 0.002433 369.0 84.5
423(21) 0.002364 369.0 80.0
428(21) 0.002336 368.9 75.7
436(21) 0.002294 368.8 71.8
416(20) 0.002404 368.8 68.2
377(19) 0.002653 368.7 64.9
427(21) 0.002342 368.7 61.9
404(20) 0.002475 368.6 59.2
398(20) 0.002513 368.5 56.8
404(20) 0.002475 368.5 54.6
424(21) 0.002358 368.4 52.6
395(20) 0.002532 368.3 50.9
374(19) 0.002674 368.3 49.4
400(20) 0.002500 368.2 48.1
364(19) 0.002747 368.1 46.9
389(20) 0.002571 368.1 45.9
390(20) 0.002564 368.0 45.0
414(20) 0.002415 367.9 44.3
404(20) 0.002475 367.9 43.6
395(20) 0.002532 367.8 43.0
383(20) 0.002611 367.7 42.6
371(19) 0.002695 367.7 42.2
383(20) 0.002611 367.5 41.9
391(20) 0.002558 367.4 41.7
385(20) 0.002597 367.2 41.4
367(19) 0.002725 367.1 41.3
360(19) 0.002778 366.9 41.2
325(18) 0.003077 366.7 41.1
408(20) 0.002451 366.6 41.0
380(19) 0.002632 366.4 41.0
383(20) 0.002611 366.3 40.9
382(20) 0.002618 366.1 40.9
395(20) 0.002532 365.9 40.9
362(19) 0.002762 365.8 40.9
357(19) 0.002801 365.6 40.9
373(19) 0.002681 365.5 40.9
355(19) 0.002817 365.3 40.9
392(20) 0.002551 365.1 40.8
380(19) 0.002632 365.0 40.8
386(20) 0.002591 364.8 40.7
416(20) 0.002404 364.7 40.6
374(19) 0.002674 364.5 40.5
378(19) 0.002646 364.3 40.3
402(20) 0.002488 364.2 40.1
379(19) 0.002639 364.0 39.9
388(20) 0.002577 363.9 39.7
398(20) 0.002513 363.7 39.4
363(19) 0.002755 363.5 39.1
388(20) 0.002577 363.4 38.8
406(20) 0.002463 363.2 38.4
389(20) 0.002571 363.1 38.1
368(19) 0.002717 362.9 37.7
396(20) 0.002525 362.7 37.2
377(19) 0.002653 362.6 36.8
386(20) 0.002591 362.4 36.4
391(20) 0.002558 362.3 35.9
389(20) 0.002571 362.1 35.4
416(20) 0.002404 361.9 35.0
367(19) 0.002725 361.8 34.5
397(20) 0.002519 361.6 34.0
389(20) 0.002571 361.5 33.6
372(19) 0.002688 361.3 33.1
411(20) 0.002433 361.1 32.7
346(19) 0.002890 361.0 32.3
385(20) 0.002597 360.8 31.9
384(20) 0.002604 360.7 31.5
395(20) 0.002532 360.5 31.0
408(20) 0.002451 360.3 30.6
421(21) 0.002375 360.2 30.2
419(20) 0.002387 360.0 29.8
395(20) 0.002532 359.9 29.5
389(20) 0.002571 359.7 29.1
391(20) 0.002558 359.5 28.7
383(20) 0.002611 359.4 28.4
355(19) 0.002817 359.2 28.1
383(20) 0.002611 359.1 27.8
336(18) 0.002976 358.9 27.5
366(19) 0.002732 358.7 27.2
370(19) 0.002703 358.6 26.9
363(19) 0.002755 358.4 26.7
379(19) 0.002639 358.3 26.5
380(19) 0.002632 358.1 26.2
372(19) 0.002688 357.9 26.0
339(18) 0.002950 357.8 25.8
353(19) 0.002833 357.9 25.7
360(19) 0.002778 358.0 25.5
367(19) 0.002725 358.1 25.4
362(19) 0.002762 358.3 25.3
347(19) 0.002882 358.4 25.1
383(20) 0.002611 358.6 25.0
357(19) 0.002801 358.7 25.0
370(19) 0.002703 358.9 24.9
357(19) 0.002801 359.0 24.8
361(19) 0.002770 359.2 24.8
373(19) 0.002681 359.3 24.7
396(20) 0.002525 359.4 24.7
386(20) 0.002591 359.6 24.7
369(19) 0.002710 359.7 24.8
336(18) 0.002976 359.9 24.8
398(20) 0.002513 360.0 24.9
362(19) 0.002762 360.2 25.0
389(20) 0.002571 360.3 25.0
394(20) 0.002538 360.5 25.1
389(20) 0.002571 360.6 25.3
378(19) 0.002646 360.7 25.4
383(20) 0.002611 360.9 25.6
396(20) 0.002525 361.0 25.8
368(19) 0.002717 361.2 26.0
393(20) 0.002545 361.3 26.2
405(20) 0.002469 361.5 26.5
348(19) 0.002874 361.6 26.8
364(19) 0.002747 361.8 27.1
406(20) 0.002463 361.9 27.5
369(19) 0.002710 362.0 27.9
364(19) 0.002747 362.2 28.4
364(19) 0.002747 362.3 28.9
371(19) 0.002695 362.5 29.5
382(20) 0.002618 362.6 30.2
393(20) 0.002545 362.8 30.9
382(20) 0.002618 362.9 31.8
389(20) 0.002571 363.1 32.8
396(20) 0.002525 363.2 33.9
379(19) 0.002639 363.4 35.3
395(20) 0.002532 363.5 36.8
413(20) 0.002421 363.6 38.7
383(20) 0.002611 363.8 40.9
411(20) 0.002433 363.9 43.6
387(20) 0.002584 364.1 46.8
418(20) 0.002392 364.2 50.6
437(21) 0.002288 364.4 55.2
422(21) 0.002370 364.5 60.5
473(22) 0.002114 364.7 66.8
461(21) 0.002169 364.8 73.9
480(22) 0.002083 364.9 81.8
473(22) 0.002114 365.1 90.0
525(23) 0.001905 365.2 97.9
533(23) 0.001876 365.4 104.3
549(23) 0.001822 365.5 108.3
525(23) 0.001905 365.7 108.9
554(24) 0.001805 365.8 106.1
526(23) 0.001901 366.0 100.7
490(22) 0.002041 366.1 93.8
435(21) 0.002299 366.2 86.4
453(21) 0.002208 366.4 79.4
406(20) 0.002463 366.5 73.1
409(20) 0.002445 366.7 67.6
427(21) 0.002342 366.8 63.1
425(21) 0.002353 367.0 59.4
422(21) 0.002370 367.1 56.6
435(21) 0.002299 367.3 54.4
417(20) 0.002398 367.4 52.8
437(21) 0.002288 367.5 51.7
415(20) 0.002410 367.7 51.2
406(20) 0.002463 367.8 51.0
439(21) 0.002278 368.0 51.2
415(20) 0.002410 368.1 51.8
439(21) 0.002278 368.3 52.8
392(20) 0.002551 368.4 54.1
427(21) 0.002342 368.6 56.0
418(20) 0.002392 368.7 58.4
453(21) 0.002208 368.8 61.4
407(20) 0.002457 369.0 65.1
454(21) 0.002203 369.1 69.5
475(22) 0.002105 369.3 74.5
473(22) 0.002114 369.4 80.0
505(22) 0.001980 369.6 85.4
519(23) 0.001927 369.7 89.9
535(23) 0.001869 369.9 92.8
532(23) 0.001880 370.0 94.1
523(23) 0.001912 370.1 94.5
508(23) 0.001968 370.3 94.9
495(22) 0.002020 370.4 96.2
477(22) 0.002096 370.6 98.8
469(22) 0.002132 370.7 103.1
493(22) 0.002028 370.9 109.2
519(23) 0.001927 371.0 117.3
522(23) 0.001916 371.2 127.5
562(24) 0.001779 371.3 140.0
560(24) 0.001786 371.4 154.6
623(25) 0.001605 371.6 171.3
563(24) 0.001776 371.7 189.5
605(25) 0.001653 371.9 208.3
659(26) 0.001517 372.0 226.0
699(26) 0.001431 372.2 240.3
681(26) 0.001468 372.3 248.8
665(26) 0.001504 372.5 249.9
630(25) 0.001587 372.6 243.7
628(25) 0.001592 372.7 231.5
617(25) 0.001621 372.9 215.8
589(24) 0.001698 373.0 198.8
604(25) 0.001656 373.2 182.2
524(23) 0.001908 373.3 167.1
550(23) 0.001818 373.5 153.9
543(23) 0.001842 373.6 142.7
539(23) 0.001855 373.8 133.5
555(24) 0.001802 373.9 126.1
518(23) 0.001931 374.0 120.3
541(23) 0.001848 374.2 116.0
514(23) 0.001946 374.3 113.0
513(23) 0.001949 374.5 110.9
537(23) 0.001862 374.6 109.9
508(23) 0.001968 374.8 109.5
491(22) 0.002037 374.9 109.9
519(23) 0.001927 375.1 110.9
503(22) 0.001988 375.2 112.4
529(23) 0.001890 375.3 114.3
517(23) 0.001934 375.5 116.7
498(22) 0.002008 375.6 119.6
520(23) 0.001923 375.8 122.8
504(22) 0.001984 375.9 126.3
514(23) 0.001946 376.1 130.3
532(23) 0.001880 376.2 134.6
524(23) 0.001908 376.4 139.4
572(24) 0.001748 376.5 144.5
565(24) 0.001770 376.6 150.2
566(24) 0.001767 376.8 156.4
545(23) 0.001835 376.9 163.1
579(24) 0.001727 377.1 170.4
606(25) 0.001650 377.2 178.4
612(25) 0.001634 377.4 187.1
577(24) 0.001733 377.5 196.5
625(25) 0.001600 377.7 206.8
652(26) 0.001534 377.8 217.9
638(25) 0.001567 377.9 230.0
690(26) 0.001449 378.1 243.1
620(25) 0.001613 378.2 257.2
703(27) 0.001422 378.4 272.5
661(26) 0.001513 378.5 288.9
705(27) 0.001418 378.7 306.7
788(28) 0.001269 378.8 325.6
828(29) 0.001208 379.0 345.9
826(29) 0.001211 379.1 367.5
876(30) 0.001142 379.2 390.3
817(29) 0.001224 379.4 414.3
922(30) 0.001085 379.5 439.3
894(30) 0.001119 379.7 464.9
910(30) 0.001099 379.8 490.9
986(31) 0.001014 380.0 516.7
1042(32) 0.000960 380.1 541.7
1139(34) 0.000878 380.3 565.1
1076(33) 0.000929 380.4 586.3
1188(34) 0.000842 380.5 604.6
1151(34) 0.000869 380.7 619.3
1163(34) 0.000860 380.8 630.2
1128(34) 0.000887 381.0 637.4
1140(34) 0.000877 381.1 641.0
1122(33) 0.000891 381.3 641.6
1125(34) 0.000889 381.4 639.7
1145(34) 0.000873 381.6 635.7
1095(33) 0.000913 381.7 630.1
1101(33) 0.000908 381.8 622.9
1069(33) 0.000935 382.0 614.2
1119(33) 0.000894 382.1 603.9
1085(33) 0.000922 382.3 591.7
1060(33) 0.000943 382.4 577.5
1086(33) 0.000921 382.6 561.3
1025(32) 0.000976 382.7 543.0
999(32) 0.001001 382.9 522.9
950(31) 0.001053 383.0 501.4
946(31) 0.001057 383.1 478.9
906(30) 0.001104 383.3 455.8
873(30) 0.001145 383.4 432.7
885(30) 0.001130 383.6 409.9
822(29) 0.001217 383.7 387.6
794(28) 0.001259 383.9 366.3
740(27) 0.001351 384.0 346.0
760(28) 0.001316 384.2 326.8
777(28) 0.001287 384.3 308.7
722(27) 0.001385 384.5 291.9
811(28) 0.001233 384.6 276.2
869(29) 0.001151 384.7 261.7
786(28) 0.001272 384.9 248.3
797(28) 0.001255 385.0 235.9
900(30) 0.001111 385.2 224.5
748(27) 0.001337 385.3 214.1
688(26) 0.001453 385.5 204.5
590(24) 0.001695 385.6 195.8
632(25) 0.001582 385.8 187.8
610(25) 0.001639 385.9 180.5
636(25) 0.001572 386.0 173.9
607(25) 0.001647 386.2 167.9
594(24) 0.001684 386.3 162.6
584(24) 0.001712 386.5 157.7
594(24) 0.001684 386.6 153.4
560(24) 0.001786 386.8 149.6
535(23) 0.001869 386.9 146.3
574(24) 0.001742 387.1 143.4
580(24) 0.001724 387.2 140.9
559(24) 0.001789 387.3 138.8
555(24) 0.001802 387.5 137.0
517(23) 0.001934 387.6 135.5
536(23) 0.001866 387.8 134.4
522(23) 0.001916 387.9 133.5
542(23) 0.001845 388.1 132.8
515(23) 0.001942 388.2 132.3
532(23) 0.001880 388.4 131.9
576(24) 0.001736 388.5 131.4
531(23) 0.001883 388.6 131.0
541(23) 0.001848 388.8 130.4
548(23) 0.001825 388.9 129.6
534(23) 0.001873 389.1 128.7
544(23) 0.001838 389.2 127.4
510(23) 0.001961 389.4 125.8
518(23) 0.001931 389.5 124.0
505(22) 0.001980 389.7 122.0
514(23) 0.001946 389.8 119.8
508(23) 0.001968 389.9 117.5
497(22) 0.002012 390.1 115.1
477(22) 0.002096 390.2 112.7
487(22) 0.002053 390.4 110.4
512(23) 0.001953 390.5 108.3
473(22) 0.002114 390.7 106.2
456(21) 0.002193 390.8 104.3
453(21) 0.002208 391.0 102.7
471(22) 0.002123 391.1 101.2
476(22) 0.002101 391.2 100.0
464(22) 0.002155 391.4 99.0
428(21) 0.002336 391.5 98.2
482(22) 0.002075 391.7 97.7
476(22) 0.002101 391.8 97.4
471(22) 0.002123 392.0 97.3
479(22) 0.002088 392.1 97.5
444(21) 0.002252 392.3 97.9
481(22) 0.002079 392.4 98.5
471(22) 0.002123 392.5 99.4
460(21) 0.002174 392.7 100.5
439(21) 0.002278 392.8 101.8
462(21) 0.002164 393.0 103.3
465(22) 0.002151 393.1 105.0
452(21) 0.002212 393.3 106.8
431(21) 0.002320 393.4 108.8
468(22) 0.002137 393.6 111.0
446(21) 0.002242 393.7 113.2
467(22) 0.002141 393.8 115.5
497(22) 0.002012 394.0 117.9
485(22) 0.002062 394.1 120.4
437(21) 0.002288 394.3 123.0
506(22) 0.001976 394.4 125.7
498(22) 0.002008 394.6 128.5
501(22) 0.001996 394.7 131.5
499(22) 0.002004 394.9 134.6
515(23) 0.001942 395.0 138.0
505(22) 0.001980 395.1 141.5
510(23) 0.001961 395.3 145.2
511(23) 0.001957 395.4 149.2
533(23) 0.001876 395.6 153.3
488(22) 0.002049 395.7 157.6
525(23) 0.001905 395.9 162.1
563(24) 0.001776 396.0 166.7
524(23) 0.001908 396.2 171.5
572(24) 0.001748 396.3 176.6
580(24) 0.001724 396.4 181.8
586(24) 0.001706 396.6 187.2
520(23) 0.001923 396.7 193.0
579(24) 0.001727 396.9 199.1
610(25) 0.001639 397.0 205.6
555(24) 0.001802 397.2 212.8
578(24) 0.001730 397.3 220.6
613(25) 0.001631 397.5 229.2
606(25) 0.001650 397.6 238.8
623(25) 0.001605 397.7 249.4
694(26) 0.001441 397.9 261.0
728(27) 0.001374 398.0 273.3
720(27) 0.001389 398.2 285.9
768(28) 0.001302 398.3 297.8
824(29) 0.001214 398.5 307.4
815(29) 0.001227 398.6 313.3
757(28) 0.001321 398.8 314.1
747(27) 0.001339 398.9 309.8
759(28) 0.001318 399.0 301.3
711(27) 0.001406 399.2 290.2
681(26) 0.001468 399.3 278.1
660(26) 0.001515 399.5 266.1
649(25) 0.001541 399.6 254.7
646(25) 0.001548 399.8 244.4
607(25) 0.001647 399.9 235.1
622(25) 0.001608 400.1 226.9
593(24) 0.001686 400.2 219.6
624(25) 0.001603 400.3 213.2
596(24) 0.001678 400.5 207.5
601(25) 0.001664 400.6 202.4
583(24) 0.001715 400.8 198.0
618(25) 0.001618 400.9 194.0
585(24) 0.001709 401.1 190.5
545(23) 0.001835 401.2 187.3
596(24) 0.001678 401.4 184.5
609(25) 0.001642 401.5 182.0
593(24) 0.001686 401.6 179.7
560(24) 0.001786 401.8 177.6
584(24) 0.001712 401.9 175.8
551(23) 0.001815 402.1 174.2
563(24) 0.001776 402.2 173.0
528(23) 0.001894 402.4 172.1
575(24) 0.001739 402.5 171.7
572(24) 0.001748 402.7 171.7
554(24) 0.001805 402.8 172.1
560(24) 0.001786 402.9 173.1
545(23) 0.001835 403.1 174.6
586(24) 0.001706 403.2 176.7
547(23) 0.001828 403.4 179.5
572(24) 0.001748 403.5 183.1
598(24) 0.001672 403.7 187.4
552(23) 0.001812 403.8 192.8
576(24) 0.001736 404.0 199.2
580(24) 0.001724 404.1 206.7
577(24) 0.001733 404.3 215.6
603(25) 0.001658 404.4 225.9
581(24) 0.001721 404.5 237.7
632(25) 0.001582 404.7 250.9
653(26) 0.001531 404.8 265.6
704(27) 0.001420 405.0 281.4
719(27) 0.001391 405.1 297.6
728(27) 0.001374 405.3 313.4
755(27) 0.001324 405.4 327.5
788(28) 0.001269 405.6 338.5
852(29) 0.001174 405.7 345.4
818(29) 0.001222 405.8 347.9
823(29) 0.001215 406.0 346.7
842(29) 0.001188 406.1 342.9
787(28) 0.001271 406.3 337.9
789(28) 0.001267 406.4 333.0
781(28) 0.001280 406.6 328.9
796(28) 0.001256 406.7 326.4
736(27) 0.001359 406.9 325.5
780(28) 0.001282 407.0 326.4
749(27) 0.001335 407.1 329.0
735(27) 0.001361 407.3 333.2
732(27) 0.001366 407.4 338.8
725(27) 0.001379 407.6 345.6
750(27) 0.001333 407.7 353.3
759(28) 0.001318 407.9 361.8
780(28) 0.001282 408.0 370.5
820(29) 0.001220 408.2 379.2
759(28) 0.001318 408.3 387.4
782(28) 0.001279 408.4 394.5
823(29) 0.001215 408.6 400.2
760(28) 0.001316 408.7 404.1
836(29) 0.001196 408.9 406.1
800(28) 0.001250 409.0 406.1
795(28) 0.001258 409.2 404.1
730(27) 0.001370 409.3 400.3
863(29) 0.001159 409.5 394.7
757(28) 0.001321 409.6 387.5
752(27) 0.001330 409.7 378.7
742(27) 0.001348 409.9 368.5
710(27) 0.001408 410.0 357.0
731(27) 0.001368 410.2 344.6
692(26) 0.001445 410.3 331.5
679(26) 0.001473 410.5 318.0
626(25) 0.001597 410.6 304.5
626(25) 0.001597 410.8 291.3
656(26) 0.001524 410.9 278.5
642(25) 0.001558 411.0 266.4
615(25) 0.001626 411.2 255.2
643(25) 0.001555 411.3 245.0
599(24) 0.001669 411.5 235.9
638(25) 0.001567 411.6 228.2
590(24) 0.001695 411.8 222.0
621(25) 0.001610 411.9 217.6
617(25) 0.001621 412.1 215.3
638(25) 0.001567 412.2 215.7
675(26) 0.001481 412.3 219.4
684(26) 0.001462 412.5 226.9
733(27) 0.001364 412.6 238.5
735(27) 0.001361 412.8 253.8
755(27) 0.001324 412.9 270.1
862(29) 0.001160 413.1 282.1
848(29) 0.001179 413.2 283.1
817(29) 0.001224 413.4 271.1
763(28) 0.001311 413.5 250.6
725(27) 0.001379 413.6 228.3
666(26) 0.001501 413.8 208.6
665(26) 0.001504 413.9 193.0
631(25) 0.001585 414.1 181.6
607(25) 0.001647 414.2 173.8
625(25) 0.001600 414.4 169.2
620(25) 0.001613 414.5 167.2
631(25) 0.001585 414.7 167.5
621(25) 0.001610 414.8 169.8
595(24) 0.001681 414.9 173.9
686(26) 0.001458 415.1 179.7
650(25) 0.001538 415.2 187.1
637(25) 0.001570 415.4 195.9
602(25) 0.001661 415.5 206.2
644(25) 0.001553 415.7 217.4
658(26) 0.001520 415.8 229.3
686(26) 0.001458 416.0 241.5
729(27) 0.001372 416.1 253.5
698(26) 0.001433 416.2 265.0
708(27) 0.001412 416.4 275.9
742(27) 0.001348 416.5 286.5
731(27) 0.001368 416.7 296.8
762(28) 0.001312 416.8 307.1
791(28) 0.001264 417.0 317.4
796(28) 0.001256 417.1 327.8
823(29) 0.001215 417.3 338.0
784(28) 0.001276 417.4 347.5
788(28) 0.001269 417.5 355.7
849(29) 0.001178 417.7 362.0
864(29) 0.001157 417.8 365.3
883(30) 0.001133 418.0 364.7
869(29) 0.001151 418.1 359.8
885(30) 0.001130 418.3 350.6
842(29) 0.001188 418.4 337.6
821(29) 0.001218 418.6 321.7
771(28) 0.001297 418.7 304.2
724(27) 0.001381 418.8 286.1
728(27) 0.001374 419.0 268.7
707(27) 0.001414 419.1 252.7
690(26) 0.001449 419.3 238.6
645(25) 0.001550 419.4 226.7
625(25) 0.001600 419.6 217.0
646(25) 0.001548 419.7 209.7
585(24) 0.001709 419.9 204.6
597(24) 0.001675 420.0 201.7
577(24) 0.001733 420.1 200.8
588(24) 0.001701 420.3 201.8
611(25) 0.001637 420.4 204.7
633(25) 0.001580 420.6 209.4
586(24) 0.001706 420.7 215.7
629(25) 0.001590 420.9 223.5
608(25) 0.001645 421.0 232.8
649(25) 0.001541 421.2 243.5
616(25) 0.001623 421.3 255.3
682(26) 0.001466 421.4 268.1
673(26) 0.001486 421.6 281.6
737(27) 0.001357 421.7 295.5
686(26) 0.001458 421.9 309.3
682(26) 0.001466 422.0 322.6
758(28) 0.001319 422.2 334.6
759(28) 0.001318 422.3 344.8
745(27) 0.001342 422.5 352.6
735(27) 0.001361 422.6 357.6
739(27) 0.001353 422.7 359.4
721(27) 0.001387 422.9 358.1
756(27) 0.001323 423.0 353.7
723(27) 0.001383 423.2 346.8
717(27) 0.001395 423.3 337.8
703(27) 0.001422 423.5 327.6
652(26) 0.001534 423.6 316.6
648(25) 0.001543 423.8 305.6
655(26) 0.001527 423.9 294.9
617(25) 0.001621 424.0 284.9
625(25) 0.001600 424.2 275.8
649(25) 0.001541 424.3 267.6
660(26) 0.001515 424.5 260.2
596(24) 0.001678 424.6 253.2
625(25) 0.001600 424.8 246.2
587(24) 0.001704 424.9 238.8
550(23) 0.001818 425.1 230.4
542(23) 0.001845 425.2 220.8
560(24) 0.001786 425.4 210.0
566(24) 0.001767 425.5 198.2
520(23) 0.001923 425.6 185.9
500(22) 0.002000 425.8 173.6
487(22) 0.002053 425.9 161.6
522(23) 0.001916 426.1 150.2
499(22) 0.002004 426.2 139.5
502(22) 0.001992 426.4 129.8
489(22) 0.002045 426.5 121.0
476(22) 0.002101 426.7 113.1
471(22) 0.002123 426.8 106.0
475(22) 0.002105 426.9 99.7
472(22) 0.002119 427.1 94.1
484(22) 0.002066 427.2 89.2
439(21) 0.002278 427.4 84.8
445(21) 0.002247 427.5 81.0
479(22) 0.002088 427.7 77.6
454(21) 0.002203 427.8 74.6
445(21) 0.002247 428.0 71.9
435(21) 0.002299 428.0 69.5
481(22) 0.002079 428.0 67.5
461(21) 0.002169 427.9 65.6
421(21) 0.002375 427.9 64.0
419(20) 0.002387 427.8 62.5
458(21) 0.002183 427.7 61.3
387(20) 0.002584 427.7 60.1
445(21) 0.002247 427.6 59.1
448(21) 0.002232 427.5 58.3
420(20) 0.002381 427.5 57.5
424(21) 0.002358 427.4 56.9
476(22) 0.002101 427.3 56.4
415(20) 0.002410 427.3 56.0
430(21) 0.002326 427.2 55.7
433(21) 0.002309 427.1 55.5
425(21) 0.002353 427.1 55.3
433(21) 0.002309 427.0 55.3
450(21) 0.002222 427.0 55.4
454(21) 0.002203 426.9 55.6
460(21) 0.002174 426.8 55.8
498(22) 0.002008 426.8 56.2
446(21) 0.002242 426.7 56.7
456(21) 0.002193 426.6 57.2
449(21) 0.002227 426.6 57.9
475(22) 0.002105 426.5 58.7
483(22) 0.002070 426.4 59.7
458(21) 0.002183 426.4 60.8
501(22) 0.001996 426.3 62.0
485(22) 0.002062 426.3 63.4
452(21) 0.002212 426.2 65.0
453(21) 0.002208 426.1 66.8
478(22) 0.002092 426.1 68.8
468(22) 0.002137 426.0 71.0
510(23) 0.001961 425.9 73.5
510(23) 0.001961 425.9 76.4
469(22) 0.002132 425.8 79.5
482(22) 0.002075 425.7 83.1
487(22) 0.002053 425.7 87.0
515(23) 0.001942 425.6 91.4
510(23) 0.001961 425.6 96.3
526(23) 0.001901 425.5 101.8
520(23) 0.001923 425.4 107.9
531(23) 0.001883 425.4 114.7
560(24) 0.001786 425.3 122.1
564(24) 0.001773 425.2 130.4
561(24) 0.001783 425.2 139.4
641(25) 0.001560 425.1 149.3
615(25) 0.001626 425.0 160.1
594(24) 0.001684 425.0 171.9
644(25) 0.001553 424.9 184.5
660(26) 0.001515 424.8 198.1
695(26) 0.001439 424.8 212.5
659(26) 0.001517 424.7 227.6
731(27) 0.001368 424.7 243.3
756(27) 0.001323 424.6 259.2
746(27) 0.001340 424.5 275.2
799(28) 0.001252 424.5 290.7
816(29) 0.001225 424.4 305.1
852(29) 0.001174 424.3 318.0
883(30) 0.001133 424.3 328.7
836(29) 0.001196 424.2 336.6
883(30) 0.001133 424.1 341.3
884(30) 0.001131 424.1 342.4
866(29) 0.001155 424.0 340.0
849(29) 0.001178 424.0 334.3
781(28) 0.001280 423.9 325.6
785(28) 0.001274 423.8 314.5
717(27) 0.001395 423.8 301.6
752(27) 0.001330 423.7 287.6
726(27) 0.001377 423.6 273.0
706(27) 0.001416 423.6 258.3
678(26) 0.001475 423.5 243.8
683(26) 0.001464 423.4 230.0
601(25) 0.001664 423.4 216.9
639(25) 0.001565 423.3 204.7
648(25) 0.001543 423.2 193.6
618(25) 0.001618 423.2 183.5
613(25) 0.001631 423.1 174.6
600(24) 0.001667 423.1 166.7
602(25) 0.001661 423.0 159.9
543(23) 0.001842 422.9 154.1
598(24) 0.001672 422.9 149.4
582(24) 0.001718 422.8 145.6
625(25) 0.001600 422.7 142.7
591(24) 0.001692 422.7 140.7
554(24) 0.001805 422.6 139.6
594(24) 0.001684 422.5 139.1
582(24) 0.001718 422.5 139.4
553(24) 0.001808 422.4 140.3
603(25) 0.001658 422.4 141.7
592(24) 0.001689 422.3 143.5
625(25) 0.001600 422.2 145.6
571(24) 0.001751 422.2 147.8
591(24) 0.001692 422.1 149.9
555(24) 0.001802 422.0 151.8
583(24) 0.001715 422.0 153.2
534(23) 0.001873 421.9 154.0
574(24) 0.001742 421.8 154.0
573(24) 0.001745 421.8 153.1
606(25) 0.001650 421.7 151.2
530(23) 0.001887 421.6 148.4
523(23) 0.001912 421.6 144.6
528(23) 0.001894 421.5 140.2
524(23) 0.001908 421.5 135.2
532(23) 0.001880 421.4 129.7
500(22) 0.002000 421.3 124.1
503(22) 0.001988 421.3 118.3
475(22) 0.002105 421.2 112.6
511(23) 0.001957 421.1 107.0
533(23) 0.001876 421.1 101.6
496(22) 0.002016 421.0 96.5
512(23) 0.001953 420.9 91.7
480(22) 0.002083 420.9 87.2
447(21) 0.002237 420.8 83.0
468(22) 0.002137 420.8 79.1
472(22) 0.002119 420.7 75.5
459(21) 0.002179 420.6 72.3
459(21) 0.002179 420.6 69.3
464(22) 0.002155 420.5 66.6
478(22) 0.002092 420.4 64.2
459(21) 0.002179 420.4 62.0
460(21) 0.002174 420.3 60.1
448(21) 0.002232 420.2 58.3
449(21) 0.002227 420.2 56.8
444(21) 0.002252 420.1 55.4
461(21) 0.002169 420.1 54.2
454(21) 0.002203 420.0 53.2
452(21) 0.002212 419.9 52.3
439(21) 0.002278 419.9 51.6
448(21) 0.002232 419.8 51.0
490(22) 0.002041 419.7 50.5
404(20) 0.002475 419.7 50.2
477(22) 0.002096 419.6 49.9
466(22) 0.002146 419.5 49.8
458(21) 0.002183 419.5 49.7
460(21) 0.002174 419.4 49.8
440(21) 0.002273 419.3 50.0
429(21) 0.002331 419.3 50.3
461(21) 0.002169 419.2 50.7
444(21) 0.002252 419.2 51.3
471(22) 0.002123 419.1 51.9
444(21) 0.002252 419.0 52.8
440(21) 0.002273 419.0 53.7
435(21) 0.002299 418.9 54.8
436(21) 0.002294 418.8 56.1
478(22) 0.002092 418.8 57.6
461(21) 0.002169 418.7 59.3
487(22) 0.002053 418.6 61.3
483(22) 0.002070 418.6 63.5
474(22) 0.002110 418.5 66.1
484(22) 0.002066 418.5 69.0
518(23) 0.001931 418.4 72.3
512(23) 0.001953 418.3 76.0
481(22) 0.002079 418.3 80.2
499(22) 0.002004 418.2 84.8
518(23) 0.001931 418.1 90.0
505(22) 0.001980 418.1 95.8
567(24) 0.001764 418.0 102.1
559(24) 0.001789 417.9 109.0
558(24) 0.001792 417.9 116.5
598(24) 0.001672 417.8 124.5
596(24) 0.001678 417.7 132.8
643(25) 0.001555 417.7 141.3
630(25) 0.001587 417.6 149.7
637(25) 0.001570 417.6 157.6
648(25) 0.001543 417.5 164.6
677(26) 0.001477 417.4 170.3
686(26) 0.001458 417.4 174.4
702(26) 0.001424 417.3 176.6
686(26) 0.001458 417.2 176.9
727(27) 0.001376 417.2 175.7
679(26) 0.001473 417.1 173.1
716(27) 0.001397 417.0 169.8
642(25) 0.001558 417.0 166.1
669(26) 0.001495 416.9 162.3
636(25) 0.001572 416.9 158.9
672(26) 0.001488 416.8 156.0
681(26) 0.001468 416.7 153.7
630(25) 0.001587 416.7 152.1
685(26) 0.001460 416.6 151.3
638(25) 0.001567 416.5 151.2
654(26) 0.001529 416.5 151.7
630(25) 0.001587 416.4 152.8
703(27) 0.001422 416.3 154.5
626(25) 0.001597 416.3 156.6
627(25) 0.001595 416.2 158.9
697(26) 0.001435 416.2 161.5
649(25) 0.001541 416.1 164.0
718(27) 0.001393 416.0 166.5
664(26) 0.001506 416.0 168.6
670(26) 0.001493 415.9 170.4
723(27) 0.001383 415.8 171.5
699(26) 0.001431 415.8 172.1
699(26) 0.001431 415.7 171.9
688(26) 0.001453 415.6 171.0
618(25) 0.001618 415.6 169.4
655(26) 0.001527 415.5 167.1
625(25) 0.001600 415.4 164.3
620(25) 0.001613 415.4 160.9
625(25) 0.001600 415.3 157.2
580(24) 0.001724 415.3 153.1
573(24) 0.001745 415.2 148.9
570(24) 0.001754 415.1 144.7
576(24) 0.001736 415.1 140.4
555(24) 0.001802 415.0 136.3
542(23) 0.001845 414.9 132.3
551(23) 0.001815 414.9 128.5
525(23) 0.001905 414.8 124.9
499(22) 0.002004 414.7 121.5
562(24) 0.001779 414.7 118.4
547(23) 0.001828 414.6 115.5
522(23) 0.001916 414.6 112.9
528(23) 0.001894 414.5 110.6
521(23) 0.001919 414.4 108.5
511(23) 0.001957 414.4 106.7
510(23) 0.001961 414.3 105.2
503(22) 0.001988 414.2 104.0
579(24) 0.001727 414.2 103.2
506(22) 0.001976 414.1 102.7
507(23) 0.001972 414.0 102.6
503(22) 0.001988 414.0 102.8
497(22) 0.002012 413.9 103.4
522(23) 0.001916 413.8 104.4
514(23) 0.001946 413.8 105.8
499(22) 0.002004 413.7 107.5
557(24) 0.001795 413.7 109.7
517(23) 0.001934 413.6 112.2
522(23) 0.001916 413.5 115.1
528(23) 0.001894 413.5 118.3
486(22) 0.002058 413.4 121.8
548(23) 0.001825 413.3 125.7
564(24) 0.001773 413.3 129.9
530(23) 0.001887 413.2 134.3
556(24) 0.001799 413.1 138.9
544(23) 0.001838 413.1 143.7
526(23) 0.001901 413.0 148.6
610(25) 0.001639 413.0 153.4
584(24) 0.001712 412.9 158.1
624(25) 0.001603 412.8 162.7
620(25) 0.001613 412.8 166.9
567(24) 0.001764 412.7 170.7
628(25) 0.001592 412.6 173.9
630(25) 0.001587 412.6 176.4
645(25) 0.001550 412.5 178.3
588(24) 0.001701 412.4 179.4
622(25) 0.001608 412.4 179.7
605(25) 0.001653 412.3 179.2
620(25) 0.001613 412.2 178.0
589(24) 0.001698 412.2 176.2
593(24) 0.001686 412.1 173.9
593(24) 0.001686 412.1 171.2
585(24) 0.001709 412.0 168.2
577(24) 0.001733 411.9 165.0
570(24) 0.001754 411.9 161.7
563(24) 0.001776 411.8 158.5
571(24) 0.001751 411.7 155.3
563(24) 0.001776 411.7 152.3
531(23) 0.001883 411.6 149.6
614(25) 0.001629 411.5 147.0
562(24) 0.001779 411.5 144.8
570(24) 0.001754 411.4 142.8
598(24) 0.001672 411.4 141.0
574(24) 0.001742 411.3 139.6
591(24) 0.001692 411.2 138.4
570(24) 0.001754 411.2 137.5
559(24) 0.001789 411.1 136.7
582(24) 0.001718 411.0 136.1
569(24) 0.001757 411.0 135.6
583(24) 0.001715 410.9 135.2
580(24) 0.001724 410.8 134.8
613(25) 0.001631 410.8 134.4
563(24) 0.001776 410.7 133.8
577(24) 0.001733 410.7 133.2
607(25) 0.001647 410.6 132.4
596(24) 0.001678 410.5 131.4
579(24) 0.001727 410.5 130.2
566(24) 0.001767 410.4 128.8
601(25) 0.001664 410.3 127.2
558(24) 0.001792 410.3 125.4
569(24) 0.001757 410.2 123.5
556(24) 0.001799 410.1 121.4
562(24) 0.001779 410.1 119.2
533(23) 0.001876 410.0 116.9
513(23) 0.001949 409.9 114.7
497(22) 0.002012 409.9 112.4
531(23) 0.001883 409.8 110.1
516(23) 0.001938 409.8 107.9
561(24) 0.001783 409.7 105.8
495(22) 0.002020 409.6 103.8
474(22) 0.002110 409.6 102.0
528(23) 0.001894 409.5 100.2
560(24) 0.001786 409.4 98.7
480(22) 0.002083 409.4 97.2
466(22) 0.002146 409.3 96.0
507(23) 0.001972 409.2 94.8
503(22) 0.001988 409.2 93.9
491(22) 0.002037 409.1 93.1
494(22) 0.002024 409.1 92.5
484(22) 0.002066 409.0 92.0
506(22) 0.001976 408.9 91.7
453(21) 0.002208 408.9 91.5
499(22) 0.002004 408.8 91.4
456(21) 0.002193 408.7 91.5
469(22) 0.002132 408.7 91.8
475(22) 0.002105 408.6 92.2
466(22) 0.002146 408.5 92.7
494(22) 0.002024 408.5 93.3
459(21) 0.002179 408.4 94.1
495(22) 0.002020 408.3 95.0
472(22) 0.002119 408.3 96.0
490(22) 0.002041 408.2 97.2
457(21) 0.002188 408.2 98.4
476(22) 0.002101 408.1 99.8
503(22) 0.001988 408.0 101.4
482(22) 0.002075 408.0 103.1
483(22) 0.002070 407.9 104.9
474(22) 0.002110 407.8 106.9
448(21) 0.002232 407.8 109.0
475(22) 0.002105 407.7 111.2
486(22) 0.002058 407.6 113.7
490(22) 0.002041 407.6 116.2
495(22) 0.002020 407.5 119.0
436(21) 0.002294 407.5 121.8
524(23) 0.001908 407.4 124.9
506(22) 0.001976 407.3 128.1
523(23) 0.001912 407.3 131.5
506(22) 0.001976 407.2 135.0
503(22) 0.001988 407.1 138.6
487(22) 0.002053 407.1 142.4
469(22) 0.002132 407.0 146.4
492(22) 0.002033 406.9 150.4
513(23) 0.001949 406.9 154.6
526(23) 0.001901 406.8 158.8
514(23) 0.001946 406.8 163.1
543(23) 0.001842 406.7 167.5
553(24) 0.001808 406.6 172.0
499(22) 0.002004 406.6 176.5
583(24) 0.001715 406.5 181.0
543(23) 0.001842 406.4 185.5
538(23) 0.001859 406.4 190.0
552(23) 0.001812 406.3 194.5
544(23) 0.001838 406.2 198.8
604(25) 0.001656 406.2 203.0
548(23) 0.001825 406.1 207.1
614(25) 0.001629 406.0 210.9
588(24) 0.001701 406.0 214.5
599(24) 0.001669 405.9 217.6
628(25) 0.001592 405.9 220.4
631(25) 0.001585 405.8 222.9
610(25) 0.001639 405.7 224.8
567(24) 0.001764 405.7 226.2
629(25) 0.001590 405.6 227.1
586(24) 0.001706 405.5 227.4
590(24) 0.001695 405.5 227.2
630(25) 0.001587 405.4 226.5
597(24) 0.001675 405.3 225.4
598(24) 0.001672 405.3 223.8
623(25) 0.001605 405.2 221.9
635(25) 0.001575 405.2 219.7
618(25) 0.001618 405.1 217.3
611(25) 0.001637 405.0 214.8
620(25) 0.001613 405.0 212.3
606(25) 0.001650 404.9 210.1
570(24) 0.001754 404.8 208.2
562(24) 0.001779 404.8 206.8
623(25) 0.001605 404.7 206.3
593(24) 0.001686 404.6 206.9
549(23) 0.001822 404.6 209.1
576(24) 0.001736 404.5 213.5
572(24) 0.001748 404.4 220.8
586(24) 0.001706 404.4 231.8
569(24) 0.001757 404.3 247.4
611(25) 0.001637 404.3 268.4
585(24) 0.001709 404.2 295.6
639(25) 0.001565 404.1 328.2
677(26) 0.001477 404.1 363.7
656(26) 0.001524 404.0 395.4
643(25) 0.001555 403.9 413.8
652(26) 0.001534 403.9 410.5
617(25) 0.001621 403.8 385.2
601(25) 0.001664 403.7 345.9
582(24) 0.001718 403.7 302.3
565(24) 0.001770 403.6 261.3
553(24) 0.001808 403.6 225.7
550(23) 0.001818 403.5 196.2
496(22) 0.002016 403.4 172.2
454(21) 0.002203 403.4 153.0
459(21) 0.002179 403.3 137.6
462(21) 0.002164 403.2 125.1
449(21) 0.002227 403.2 115.0
472(22) 0.002119 403.1 106.7
429(21) 0.002331 403.0 99.6
460(21) 0.002174 403.0 93.7
436(21) 0.002294 402.9 88.5
468(22) 0.002137 402.8 84.0
439(21) 0.002278 402.8 80.0
426(21) 0.002347 402.7 76.5
407(20) 0.002457 402.7 73.3
458(21) 0.002183 402.6 70.5
437(21) 0.002288 402.5 68.0
392(20) 0.002551 402.5 65.6
466(22) 0.002146 402.4 63.6
425(21) 0.002353 402.3 61.7
407(20) 0.002457 402.3 59.9
414(20) 0.002415 402.2 58.4
437(21) 0.002288 402.1 57.0
403(20) 0.002481 402.1 55.7
431(21) 0.002320 402.0 54.5
414(20) 0.002415 401.9 53.4
414(20) 0.002415 401.9 52.5
390(20) 0.002564 401.8 51.6
426(21) 0.002347 401.7 50.8
392(20) 0.002551 401.6 50.1
418(20) 0.002392 401.5 49.5
401(20) 0.002494 401.5 48.9
418(20) 0.002392 401.4 48.4
397(20) 0.002519 401.3 48.0
393(20) 0.002545 401.2 47.6
413(20) 0.002421 401.1 47.3
408(20) 0.002451 401.1 47.3
409(20) 0.002445 401.0 47.1
390(20) 0.002564 400.9 46.9
412(20) 0.002427 400.8 46.9
409(20) 0.002445 400.7 46.9
419(20) 0.002387 400.7 46.9
389(20) 0.002571 400.6 47.0
393(20) 0.002545 400.5 47.1
398(20) 0.002513 400.4 47.3
427(21) 0.002342 400.3 47.6
402(20) 0.002488 400.3 47.9
407(20) 0.002457 400.2 48.3
427(21) 0.002342 400.1 48.7
390(20) 0.002564 400.0 49.1
408(20) 0.002451 399.9 49.6
416(20) 0.002404 399.9 50.2
421(21) 0.002375 399.8 50.8
399(20) 0.002506 399.7 51.5
410(20) 0.002439 399.6 52.3
419(20) 0.002387 399.5 53.1
416(20) 0.002404 399.5 54.0
417(20) 0.002398 399.4 54.9
419(20) 0.002387 399.3 55.9
438(21) 0.002283 399.2 56.9
448(21) 0.002232 399.2 58.1
421(21) 0.002375 399.1 59.3
429(21) 0.002331 399.0 60.7
426(21) 0.002347 398.9 62.1
448(21) 0.002232 398.8 63.6
478(22) 0.002092 398.8 65.3
467(22) 0.002141 398.7 67.2
450(21) 0.002222 398.6 69.2
429(21) 0.002331 398.5 71.6
407(20) 0.002457 398.4 74.3
460(21) 0.002174 398.4 77.5
452(21) 0.002212 398.3 81.3
445(21) 0.002247 398.2 85.9
515(23) 0.001942 398.1 91.6
501(22) 0.001996 398.0 98.8
524(23) 0.001908 398.0 107.8
553(24) 0.001808 397.9 119.1
586(24) 0.001706 397.8 133.1
589(24) 0.001698 397.7 149.7
562(24) 0.001779 397.6 168.3
614(25) 0.001629 397.6 186.7
616(25) 0.001623 397.5 201.2
592(24) 0.001689 397.4 207.7
633(25) 0.001580 397.3 205.0
550(23) 0.001818 397.2 196.2
573(24) 0.001745 397.2 186.0
610(25) 0.001639 397.1 177.9
638(25) 0.001567 397.0 173.9
600(24) 0.001667 396.9 174.7
609(25) 0.001642 396.8 180.6
638(25) 0.001567 396.8 191.6
634(25) 0.001577 396.7 207.4
654(26) 0.001529 396.6 227.5
667(26) 0.001499 396.5 250.5
662(26) 0.001511 396.5 274.0
713(27) 0.001403 396.4 293.8
681(26) 0.001468 396.3 305.3
662(26) 0.001511 396.2 304.8
640(25) 0.001563 396.1 291.9
648(25) 0.001543 396.1 269.9
620(25) 0.001613 396.0 243.1
583(24) 0.001715 395.9 215.7
517(23) 0.001934 395.8 190.1
542(23) 0.001845 395.7 167.5
507(23) 0.001972 395.7 148.3
467(22) 0.002141 395.6 132.3
473(22) 0.002114 395.5 119.1
476(22) 0.002101 395.4 108.4
441(21) 0.002268 395.3 99.7
481(22) 0.002079 395.3 92.6
487(22) 0.002053 395.2 86.9
476(22) 0.002101 395.1 82.2
445(21) 0.002247 395.0 78.3
482(22) 0.002075 394.9 75.1
433(21) 0.002309 394.9 72.4
439(21) 0.002278 394.8 70.1
467(22) 0.002141 394.7 68.1
458(21) 0.002183 394.6 66.4
457(21) 0.002188 394.5 64.9
493(22) 0.002028 394.5 63.6
432(21) 0.002315 394.4 62.5
447(21) 0.002237 394.3 61.6
451(21) 0.002217 394.2 60.8
472(22) 0.002119 394.2 60.1
485(22) 0.002062 394.1 59.5
492(22) 0.002033 394.0 59.0
499(22) 0.002004 393.9 58.4
474(22) 0.002110 393.8 57.8
480(22) 0.002083 393.8 57.0
493(22) 0.002028 393.7 56.1
447(21) 0.002237 393.6 55.2
440(21) 0.002273 393.5 54.3
452(21) 0.002212 393.4 53.4
490(22) 0.002041 393.4 52.6
447(21) 0.002237 393.3 51.9
413(20) 0.002421 393.2 51.3
441(21) 0.002268 393.1 50.7
424(21) 0.002358 393.0 50.2
465(22) 0.002151 393.0 49.7
418(20) 0.002392 392.9 49.3
462(21) 0.002164 392.8 48.9
472(22) 0.002119 392.7 48.7
428(21) 0.002336 392.6 48.5
441(21) 0.002268 392.6 48.4
410(20) 0.002439 392.5 48.3
434(21) 0.002304 392.4 48.5
445(21) 0.002247 392.3 48.7
459(21) 0.002179 392.2 49.1
432(21) 0.002315 392.2 49.7
420(20) 0.002381 392.1 50.5
450(21) 0.002222 392.0 51.5
436(21) 0.002294 391.9 52.7
422(21) 0.002370 391.8 54.0
449(21) 0.002227 391.8 55.5
440(21) 0.002273 391.7 56.8
446(21) 0.002242 391.6 57.9
448(21) 0.002232 391.5 58.5
474(22) 0.002110 391.5 58.5
422(21) 0.002370 391.4 57.9
448(21) 0.002232 391.3 56.9
468(22) 0.002137 391.2 55.7
447(21) 0.002237 391.1 54.6
442(21) 0.002262 391.1 53.6
451(21) 0.002217 391.0 52.8
416(20) 0.002404 390.9 52.3
437(21) 0.002288 390.8 52.1
426(21) 0.002347 390.7 52.2
427(21) 0.002342 390.7 52.5
463(22) 0.002160 390.6 53.1
444(21) 0.002252 390.5 53.9
415(20) 0.002410 390.4 55.0
434(21) 0.002304 390.3 56.4
402(20) 0.002488 390.3 58.1
443(21) 0.002257 390.2 60.0
443(21) 0.002257 390.1 62.2
432(21) 0.002315 390.0 64.7
466(22) 0.002146 389.9 67.5
461(21) 0.002169 389.9 70.6
455(21) 0.002198 389.8 73.9
436(21) 0.002294 389.7 77.4
483(22) 0.002070 389.6 81.0
471(22) 0.002123 389.5 84.6
457(21) 0.002188 389.5 88.2
502(22) 0.001992 389.4 91.4
479(22) 0.002088 389.3 94.1
488(22) 0.002049 389.2 96.2
489(22) 0.002045 389.1 97.4
541(23) 0.001848 389.1 97.7
474(22) 0.002110 389.0 97.0
497(22) 0.002012 388.9 95.7
485(22) 0.002062 388.8 93.9
473(22) 0.002114 388.8 92.0
470(22) 0.002128 388.7 90.1
499(22) 0.002004 388.6 88.3
506(22) 0.001976 388.5 86.9
493(22) 0.002028 388.4 85.6
456(21) 0.002193 388.4 84.7
440(21) 0.002273 388.3 83.9
410(20) 0.002439 388.2 83.4
420(20) 0.002381 388.1 83.0
411(20) 0.002433 388.0 82.8
445(21) 0.002247 388.0 82.6
462(21) 0.002164 387.9 82.6
430(21) 0.002326 387.8 82.7
444(21) 0.002252 387.7 82.9
433(21) 0.002309 387.6 83.1
439(21) 0.002278 387.6 83.5
458(21) 0.002183 387.5 83.9
447(21) 0.002237 387.4 84.4
429(21) 0.002331 387.3 85.0
445(21) 0.002247 387.2 85.7
441(21) 0.002268 387.2 86.6
464(22) 0.002155 387.1 87.6
421(21) 0.002375 387.0 88.8
439(21) 0.002278 386.9 90.2
478(22) 0.002092 386.8 91.8
442(21) 0.002262 386.8 93.6
481(22) 0.002079 386.7 95.6
470(22) 0.002128 386.6 98.0
488(22) 0.002049 386.5 100.5
498(22) 0.002008 386.4 103.2
497(22) 0.002012 386.4 106.0
520(23) 0.001923 386.3 108.6
495(22) 0.002020 386.2 110.9
546(23) 0.001832 386.1 112.7
542(23) 0.001845 386.1 113.9
482(22) 0.002075 386.0 114.8
509(23) 0.001965 385.9 115.4
506(22) 0.001976 385.8 116.0
492(22) 0.002033 385.7 116.7
511(23) 0.001957 385.7 117.5
463(22) 0.002160 385.6 118.5
477(22) 0.002096 385.5 119.7
484(22) 0.002066 385.4 121.1
484(22) 0.002066 385.3 122.6
472(22) 0.002119 385.3 124.2
475(22) 0.002105 385.2 125.9
465(22) 0.002151 385.1 127.7
447(21) 0.002237 385.0 129.4
491(22) 0.002037 384.9 131.2
489(22) 0.002045 384.9 132.8
492(22) 0.002033 384.8 134.3
511(23) 0.001957 384.7 135.7
502(22) 0.001992 384.6 136.8
521(23) 0.001919 384.5 137.7
480(22) 0.002083 384.5 138.1
521(23) 0.001919 384.4 138.1
492(22) 0.002033 384.3 137.4
476(22) 0.002101 384.2 136.1
497(22) 0.002012 384.1 134.0
485(22) 0.002062 384.1 131.3
445(21) 0.002247 384.0 128.0
442(21) 0.002262 383.9 124.4
451(21) 0.002217 383.8 120.5
444(21) 0.002252 383.8 116.7
422(21) 0.002370 383.7 112.9
413(20) 0.002421 383.6 109.2
437(21) 0.002288 383.5 105.7
400(20) 0.002500 383.4 102.5
435(21) 0.002299 383.4 99.4
365(19) 0.002740 383.3 96.6
426(21) 0.002347 383.2 94.0
416(20) 0.002404 383.1 91.6
378(19) 0.002646 383.0 89.4
421(21) 0.002375 383.0 87.3
400(20) 0.002500 382.9 85.5
384(20) 0.002604 382.8 83.7
367(19) 0.002725 382.7 82.2
384(20) 0.002604 382.6 80.7
393(20) 0.002545 382.6 79.4
408(20) 0.002451 382.6 78.3
395(20) 0.002532 382.7 77.2
432(21) 0.002315 382.9 76.2
384(20) 0.002604 383.0 75.4
395(20) 0.002532 383.1 74.6
398(20) 0.002513 383.3 74.0
403(20) 0.002481 383.4 73.4
404(20) 0.002475 383.6 73.0
419(20) 0.002387 383.7 72.7
387(20) 0.002584 383.8 72.4
366(19) 0.002732 384.0 72.3
361(19) 0.002770 384.1 72.4
372(19) 0.002688 384.2 72.6
396(20) 0.002525 384.4 72.9
405(20) 0.002469 384.5 73.5
383(20) 0.002611 384.7 74.4
378(19) 0.002646 384.8 75.6
386(20) 0.002591 384.9 77.3
415(20) 0.002410 385.1 79.6
392(20) 0.002551 385.2 82.5
374(19) 0.002674 385.3 86.4
385(20) 0.002597 385.5 91.2
397(20) 0.002519 385.6 97.2
443(21) 0.002257 385.8 104.4
423(21) 0.002364 385.9 112.6
434(21) 0.002304 386.0 121.3
436(21) 0.002294 386.2 129.4
484(22) 0.002066 386.3 135.4
474(22) 0.002110 386.4 137.5
511(23) 0.001957 386.6 135.2
448(21) 0.002232 386.7 129.2
445(21) 0.002247 386.8 121.3
434(21) 0.002304 387.0 112.9
410(20) 0.002439 387.1 105.1
414(20) 0.002415 387.3 98.5
401(20) 0.002494 387.4 93.1
433(21) 0.002309 387.5 88.9
410(20) 0.002439 387.7 85.8
383(20) 0.002611 387.8 83.6
389(20) 0.002571 387.9 82.2
419(20) 0.002387 388.1 81.5
432(21) 0.002315 388.2 81.3
429(21) 0.002331 388.4 81.7
403(20) 0.002481 388.5 82.5
429(21) 0.002331 388.6 83.8
407(20) 0.002457 388.8 85.5
431(21) 0.002320 388.9 87.7
427(21) 0.002342 389.0 90.3
413(20) 0.002421 389.2 93.6
430(21) 0.002326 389.3 97.5
440(21) 0.002273 389.5 102.2
424(21) 0.002358 389.6 107.8
441(21) 0.002268 389.7 114.4
460(21) 0.002174 389.9 121.8
463(22) 0.002160 390.0 129.7
438(21) 0.002283 390.1 137.5
501(22) 0.001996 390.3 144.0
499(22) 0.002004 390.4 148.2
498(22) 0.002008 390.6 149.9
477(22) 0.002096 390.7 149.9
467(22) 0.002141 390.8 149.3
472(22) 0.002119 391.0 149.2
482(22) 0.002075 391.1 150.0
478(22) 0.002092 391.2 151.8
517(23) 0.001934 391.4 154.8
536(23) 0.001866 391.5 158.8
533(23) 0.001876 391.7 163.9
556(24) 0.001799 391.8 169.9
489(22) 0.002045 391.9 177.0
519(23) 0.001927 392.1 185.0
559(24) 0.001789 392.2 194.3
554(24) 0.001805 392.3 204.8
583(24) 0.001715 392.5 216.9
599(24) 0.001669 392.6 230.8
580(24) 0.001724 392.8 246.9
608(25) 0.001645 392.9 265.6
689(26) 0.001451 393.0 287.2
670(26) 0.001493 393.2 312.1
678(26) 0.001475 393.3 340.3
706(27) 0.001416 393.4 371.1
690(26) 0.001449 393.6 403.0
721(27) 0.001387 393.7 432.4
741(27) 0.001350 393.9 455.4
759(28) 0.001318 394.0 468.2
751(27) 0.001332 394.1 470.5
773(28) 0.001294 394.3 464.3
784(28) 0.001276 394.4 453.1
732(27) 0.001366 394.5 439.6
716(27) 0.001397 394.7 425.8
776(28) 0.001289 394.8 412.9
729(27) 0.001372 395.0 401.7
752(27) 0.001330 395.1 392.6
766(28) 0.001305 395.2 385.5
710(27) 0.001408 395.4 380.6
717(27) 0.001395 395.5 377.5
720(27) 0.001389 395.6 376.2
702(26) 0.001424 395.8 376.8
702(26) 0.001424 395.9 379.4
740(27) 0.001351 396.1 384.2
739(27) 0.001353 396.2 391.4
752(27) 0.001330 396.3 401.4
737(27) 0.001357 396.5 414.3
763(28) 0.001311 396.6 430.4
778(28) 0.001285 396.7 449.8
803(28) 0.001245 396.9 472.2
793(28) 0.001261 397.0 497.1
808(28) 0.001238 397.2 523.4
801(28) 0.001248 397.3 549.6
800(28) 0.001250 397.4 573.0
851(29) 0.001175 397.6 590.7
817(29) 0.001224 397.7 599.8
806(28) 0.001241 397.8 597.9
797(28) 0.001255 398.0 584.4
765(28) 0.001307 398.1 560.8
718(27) 0.001393 398.3 530.0
741(27) 0.001350 398.4 495.5
684(26) 0.001462 398.5 460.4
707(27) 0.001414 398.7 427.1
686(26) 0.001458 398.8 397.0
693(26) 0.001443 398.9 370.8
680(26) 0.001471 399.1 348.8
570(24) 0.001754 399.2 331.2
649(25) 0.001541 399.4 317.4
647(25) 0.001546 399.5 307.3
626(25) 0.001597 399.6 300.2
650(25) 0.001538 399.8 295.4
606(25) 0.001650 399.9 292.0
626(25) 0.001597 400.0 288.8
613(25) 0.001631 400.2 284.8
584(24) 0.001712 400.3 279.0
625(25) 0.001600 400.5 271.0
615(25) 0.001626 400.6 260.9
608(25) 0.001645 400.7 249.2
578(24) 0.001730 400.9 236.5
562(24) 0.001779 401.0 223.9
549(23) 0.001822 401.1 211.6
546(23) 0.001832 401.3 200.2
555(24) 0.001802 401.4 189.7
497(22) 0.002012 401.6 180.5
530(23) 0.001887 401.7 172.6
478(22) 0.002092 401.8 166.1
491(22) 0.002037 402.0 160.9
504(22) 0.001984 402.1 157.2
471(22) 0.002123 402.2 155.1
535(23) 0.001869 402.4 154.5
495(22) 0.002020 402.5 155.7
557(24) 0.001795 402.7 158.7
534(23) 0.001873 402.8 163.6
530(23) 0.001887 402.9 170.4
598(24) 0.001672 403.1 179.2
584(24) 0.001712 403.2 189.6
631(25) 0.001585 403.3 201.3
648(25) 0.001543 403.5 213.3
681(26) 0.001468 403.6 224.1
640(25) 0.001563 403.8 232.0
653(26) 0.001531 403.9 235.5
654(26) 0.001529 404.0 233.9
628(25) 0.001592 404.2 227.9
631(25) 0.001585 404.3 218.8
566(24) 0.001767 404.4 208.6
625(25) 0.001600 404.6 198.4
567(24) 0.001764 404.7 189.3
559(24) 0.001789 404.9 181.7
531(23) 0.001883 405.0 175.6
543(23) 0.001842 405.1 170.9
551(23) 0.001815 405.3 167.4
604(25) 0.001656 405.4 164.7
534(23) 0.001873 405.5 162.8
542(23) 0.001845 405.7 161.3
555(24) 0.001802 405.8 160.2
530(23) 0.001887 406.0 159.4
562(24) 0.001779 406.1 159.0
596(24) 0.001678 406.2 159.0
537(23) 0.001862 406.4 159.5
567(24) 0.001764 406.5 160.7
616(25) 0.001623 406.6 162.5
537(23) 0.001862 406.8 164.8
549(23) 0.001822 406.9 167.7
562(24) 0.001779 407.1 170.9
592(24) 0.001689 407.2 174.2
567(24) 0.001764 407.3 177.3
580(24) 0.001724 407.5 179.8
540(23) 0.001852 407.6 181.5
538(23) 0.001859 407.7 182.2
572(24) 0.001748 407.9 181.6
597(24) 0.001675 408.0 179.7
551(23) 0.001815 408.2 176.8
509(23) 0.001965 408.3 173.1
515(23) 0.001942 408.4 169.1
542(23) 0.001845 408.6 164.9
533(23) 0.001876 408.7 161.1
556(24) 0.001799 408.8 157.8
523(23) 0.001912 409.0 155.5
533(23) 0.001876 409.1 154.2
524(23) 0.001908 409.3 154.0
531(23) 0.001883 409.4 155.2
514(23) 0.001946 409.5 157.7
510(23) 0.001961 409.7 161.4
535(23) 0.001869 409.8 166.3
524(23) 0.001908 409.9 172.2
518(23) 0.001931 410.1 178.5
569(24) 0.001757 410.2 184.8
585(24) 0.001709 410.4 190.3
614(25) 0.001629 410.5 194.0
616(25) 0.001623 410.6 195.3
612(25) 0.001634 410.8 193.7
646(25) 0.001548 410.9 189.1
595(24) 0.001681 411.0 181.9
596(24) 0.001678 411.2 172.8
569(24) 0.001757 411.3 162.7
578(24) 0.001730 411.5 152.2
532(23) 0.001880 411.6 142.0
520(23) 0.001923 411.7 132.4
514(23) 0.001946 411.9 123.7
447(21) 0.002237 412.0 115.9
495(22) 0.002020 412.1 109.1
463(22) 0.002160 412.3 103.4
459(21) 0.002179 412.4 98.6
453(21) 0.002208 412.6 94.7
456(21) 0.002193 412.7 91.8
457(21) 0.002188 412.8 89.6
427(21) 0.002342 413.0 88.3
472(22) 0.002119 413.1 87.8
443(21) 0.002257 413.2 88.1
491(22) 0.002037 413.4 89.2
479(22) 0.002088 413.5 91.2
480(22) 0.002083 413.7 94.1
444(21) 0.002252 413.8 97.9
460(21) 0.002174 413.9 102.8
475(22) 0.002105 414.1 108.7
488(22) 0.002049 414.2 115.9
492(22) 0.002033 414.3 124.2
493(22) 0.002028 414.5 133.7
492(22) 0.002033 414.6 144.4
535(23) 0.001869 414.8 156.0
547(23) 0.001828 414.9 168.2
569(24) 0.001757 415.0 180.2
551(23) 0.001815 415.2 191.4
620(25) 0.001613 415.3 200.6
617(25) 0.001621 415.4 206.6
629(25) 0.001590 415.6 208.9
605(25) 0.001653 415.7 207.0
618(25) 0.001618 415.9 201.4
644(25) 0.001553 416.0 193.0
583(24) 0.001715 416.1 182.9
565(24) 0.001770 416.3 172.2
559(24) 0.001789 416.4 161.8
524(23) 0.001908 416.5 152.3
532(23) 0.001880 416.7 144.0
544(23) 0.001838 416.8 137.2
474(22) 0.002110 417.0 131.9
485(22) 0.002062 417.1 128.3
493(22) 0.002028 417.2 126.3
454(21) 0.002203 417.4 125.7
485(22) 0.002062 417.5 126.5
479(22) 0.002088 417.6 128.4
490(22) 0.002041 417.8 131.1
494(22) 0.002024 417.9 134.1
461(21) 0.002169 418.1 136.8
459(21) 0.002179 418.2 138.9
475(22) 0.002105 418.3 139.9
472(22) 0.002119 418.5 140.0
510(23) 0.001961 418.6 139.4
473(22) 0.002114 418.7 138.6
472(22) 0.002119 418.9 137.9
464(22) 0.002155 419.0 137.7
452(21) 0.002212 419.1 138.0
498(22) 0.002008 419.3 138.7
508(23) 0.001968 419.4 139.4
470(22) 0.002128 419.6 139.7
476(22) 0.002101 419.7 139.3
472(22) 0.002119 419.8 137.8
530(23) 0.001887 420.0 135.0
488(22) 0.002049 420.1 131.1
474(22) 0.002110 420.2 126.1
494(22) 0.002024 420.4 120.5
452(21) 0.002212 420.5 114.4
429(21) 0.002331 420.7 108.3
435(21) 0.002299 420.8 102.4
461(21) 0.002169 420.9 96.7
439(21) 0.002278 421.1 91.6
422(21) 0.002370 421.2 87.1
428(21) 0.002336 421.3 83.1
438(21) 0.002283 421.5 79.7
392(20) 0.002551 421.6 77.0
416(20) 0.002404 421.8 74.7
405(20) 0.002469 421.9 73.0
413(20) 0.002421 422.0 71.7
394(20) 0.002538 422.2 71.0
437(21) 0.002288 422.3 70.6
458(21) 0.002183 422.4 70.7
453(21) 0.002208 422.6 71.1
465(22) 0.002151 422.7 71.9
450(21) 0.002222 422.9 73.1
425(21) 0.002353 423.0 74.6
442(21) 0.002262 423.1 76.5
413(20) 0.002421 423.3 78.6
435(21) 0.002299 423.4 81.1
438(21) 0.002283 423.5 83.8
417(20) 0.002398 423.7 86.7
419(20) 0.002387 423.8 89.7
447(21) 0.002237 424.0 92.8
435(21) 0.002299 424.1 95.8
473(22) 0.002114 424.2 98.7
463(22) 0.002160 424.4 101.2
462(21) 0.002164 424.5 103.4
429(21) 0.002331 424.6 105.1
441(21) 0.002268 424.8 106.3
431(21) 0.002320 424.9 107.2
491(22) 0.002037 425.1 107.8
462(21) 0.002164 425.2 108.3
485(22) 0.002062 425.3 108.8
465(22) 0.002151 425.5 109.6
466(22) 0.002146 425.6 110.8
469(22) 0.002132 425.7 112.5
497(22) 0.002012 425.9 115.0
448(21) 0.002232 426.0 118.2
532(23) 0.001880 426.2 122.3
454(21) 0.002203 426.3 127.2
472(22) 0.002119 426.4 133.1
472(22) 0.002119 426.6 139.8
507(23) 0.001972 426.7 147.1
537(23) 0.001862 426.8 154.7
507(23) 0.001972 427.0 162.2
561(24) 0.001783 427.1 169.2
559(24) 0.001789 427.3 174.9
515(23) 0.001942 427.4 179.2
527(23) 0.001898 427.5 181.8
514(23) 0.001946 427.7 182.9
504(22) 0.001984 427.8 183.1
542(23) 0.001845 427.9 182.8
536(23) 0.001866 428.1 182.6
518(23) 0.001931 428.2 182.9
518(23) 0.001931 428.4 184.1
534(23) 0.001873 428.5 186.1
580(24) 0.001724 428.6 189.2
520(23) 0.001923 428.8 193.3
566(24) 0.001767 428.9 198.4
551(23) 0.001815 429.0 204.2
611(25) 0.001637 429.2 210.8
572(24) 0.001748 429.3 217.8
633(25) 0.001580 429.5 225.1
598(24) 0.001672 429.6 232.4
596(24) 0.001678 429.7 239.3
618(25) 0.001618 429.9 245.8
625(25) 0.001600 430.0 251.3
698(26) 0.001433 430.1 255.8
626(25) 0.001597 430.3 259.0
641(25) 0.001560 430.4 260.7
619(25) 0.001616 430.6 261.0
640(25) 0.001563 430.7 259.9
668(26) 0.001497 430.8 257.3
666(26) 0.001501 431.0 253.8
618(25) 0.001618 431.1 249.5
579(24) 0.001727 431.2 244.5
641(25) 0.001560 431.4 239.1
612(25) 0.001634 431.5 233.5
590(24) 0.001695 431.7 227.9
591(24) 0.001692 431.8 222.3
618(25) 0.001618 431.9 216.9
640(25) 0.001563 432.1 211.6
598(24) 0.001672 432.2 206.6
615(25) 0.001626 432.3 201.7
568(24) 0.001761 432.5 196.9
581(24) 0.001721 432.6 192.3
576(24) 0.001736 432.8 187.7
577(24) 0.001733 432.9 183.0
574(24) 0.001742 433.0 178.3
575(24) 0.001739 433.2 173.6
565(24) 0.001770 433.3 168.7
553(24) 0.001808 433.4 163.8
536(23) 0.001866 433.6 158.8
534(23) 0.001873 433.7 153.8
557(24) 0.001795 433.9 148.7
524(23) 0.001908 434.0 143.7
513(23) 0.001949 434.1 138.8
527(23) 0.001898 434.3 134.1
521(23) 0.001919 434.4 129.5
502(22) 0.001992 434.5 125.0
510(23) 0.001961 434.7 120.8
472(22) 0.002119 434.8 116.8
510(23) 0.001961 435.0 113.0
479(22) 0.002088 435.1 109.4
478(22) 0.002092 435.2 106.1
507(23) 0.001972 435.4 102.9
532(23) 0.001880 435.5 99.9
500(22) 0.002000 435.6 97.1
467(22) 0.002141 435.8 94.4
480(22) 0.002083 435.9 91.9
491(22) 0.002037 436.1 89.5
467(22) 0.002141 436.2 87.2
479(22) 0.002088 436.3 85.0
467(22) 0.002141 436.5 82.9
501(22) 0.001996 436.6 80.9
486(22) 0.002058 436.7 79.0
484(22) 0.002066 436.9 77.2
487(22) 0.002053 437.0 75.6
447(21) 0.002237 437.2 74.1
463(22) 0.002160 437.3 72.7
449(21) 0.002227 437.4 71.6
460(21) 0.002174 437.6 70.7
496(22) 0.002016 437.7 70.0
477(22) 0.002096 437.8 69.7
478(22) 0.002092 438.0 69.6
443(21) 0.002257 438.1 70.0
461(21) 0.002169 438.3 70.8
463(22) 0.002160 438.4 72.1
452(21) 0.002212 438.5 74.0
490(22) 0.002041 438.7 76.6
490(22) 0.002041 438.8 80.0
474(22) 0.002110 438.9 84.2
488(22) 0.002049 439.1 89.3
483(22) 0.002070 439.2 95.2
513(23) 0.001949 439.4 101.7
535(23) 0.001869 439.5 108.4
558(24) 0.001792 439.6 114.7
573(24) 0.001745 439.8 120.0
584(24) 0.001712 439.9 123.9
577(24) 0.001733 440.0 126.6
565(24) 0.001770 440.2 128.5
608(25) 0.001645 440.3 130.2
566(24) 0.001767 440.5 131.8
608(25) 0.001645 440.6 133.0
603(25) 0.001658 440.7 132.8
597(24) 0.001675 440.9 130.4
591(24) 0.001692 441.0 125.4
524(23) 0.001908 441.1 118.1
515(23) 0.001942 441.3 109.7
509(23) 0.001965 441.4 101.1
516(23) 0.001938 441.6 93.1
555(24) 0.001802 441.7 86.0
505(22) 0.001980 441.8 80.1
518(23) 0.001931 442.0 75.2
513(23) 0.001949 442.1 71.2
477(22) 0.002096 442.2 68.1
487(22) 0.002053 442.4 65.6
451(21) 0.002217 442.5 63.7
466(22) 0.002146 442.7 62.2
468(22) 0.002137 442.8 61.2
457(21) 0.002188 442.9 60.4
446(21) 0.002242 443.1 59.8
436(21) 0.002294 443.2 59.5
456(21) 0.002193 443.3 59.2
480(22) 0.002083 443.5 59.1
438(21) 0.002283 443.6 59.1
449(21) 0.002227 443.8 59.2
461(21) 0.002169 443.9 59.3
456(21) 0.002193 444.0 59.5
476(22) 0.002101 444.2 59.8
481(22) 0.002079 444.2 60.2
462(21) 0.002164 444.3 60.6
481(22) 0.002079 444.3 61.1
468(22) 0.002137 444.4 61.7
438(21) 0.002283 444.4 62.3
458(21) 0.002183 444.5 63.1
468(22) 0.002137 444.5 63.9
471(22) 0.002123 444.6 64.8
466(22) 0.002146 444.6 65.9
492(22) 0.002033 444.6 67.0
476(22) 0.002101 444.7 68.3
495(22) 0.002020 444.7 69.7
466(22) 0.002146 444.8 71.3
486(22) 0.002058 444.8 73.0
458(21) 0.002183 444.9 74.9
509(23) 0.001965 444.9 76.9
481(22) 0.002079 445.0 79.1
471(22) 0.002123 445.0 81.6
553(24) 0.001808 445.0 84.3
535(23) 0.001869 445.1 87.2
521(23) 0.001919 445.1 90.5
541(23) 0.001848 445.2 94.1
555(24) 0.001802 445.2 98.2
549(23) 0.001822 445.3 102.6
576(24) 0.001736 445.3 107.7
579(24) 0.001727 445.4 113.3
615(25) 0.001626 445.4 119.6
586(24) 0.001706 445.5 126.6
623(25) 0.001605 445.5 134.4
691(26) 0.001447 445.5 143.1
717(27) 0.001395 445.6 152.5
679(26) 0.001473 445.6 162.5
684(26) 0.001462 445.7 173.0
704(27) 0.001420 445.7 183.2
732(27) 0.001366 445.8 192.7
766(28) 0.001305 445.8 200.3
733(27) 0.001364 445.9 205.5
763(28) 0.001311 445.9 207.9
741(27) 0.001350 446.0 207.5
688(26) 0.001453 446.0 205.0
727(27) 0.001376 446.0 201.2
663(26) 0.001508 446.1 196.9
649(25) 0.001541 446.1 192.5
609(25) 0.001642 446.2 188.6
629(25) 0.001590 446.2 185.1
629(25) 0.001590 446.3 182.1
679(26) 0.001473 446.3 179.7
600(24) 0.001667 446.4 177.7
662(26) 0.001511 446.4 176.1
672(26) 0.001488 446.4 174.9
626(25) 0.001597 446.5 173.8
632(25) 0.001582 446.5 173.0
635(25) 0.001575 446.6 172.4
629(25) 0.001590 446.6 171.9
585(24) 0.001709 446.7 171.5
645(25) 0.001550 446.7 171.4
630(25) 0.001587 446.8 171.5
628(25) 0.001592 446.8 172.0
649(25) 0.001541 446.9 173.0
613(25) 0.001631 446.9 174.6
652(26) 0.001534 446.9 176.9
647(25) 0.001546 447.0 180.1
658(26) 0.001520 447.0 184.5
623(25) 0.001605 447.1 190.1
615(25) 0.001626 447.1 197.2
632(25) 0.001582 447.2 205.7
666(26) 0.001501 447.2 215.5
722(27) 0.001385 447.3 226.1
704(27) 0.001420 447.3 236.9
702(26) 0.001424 447.4 246.2
688(26) 0.001453 447.4 252.5
707(27) 0.001414 447.4 254.0
658(26) 0.001520 447.5 250.2
693(26) 0.001443 447.5 241.7
646(25) 0.001548 447.6 230.0
632(25) 0.001582 447.6 216.9
599(24) 0.001669 447.7 204.0
636(25) 0.001572 447.7 192.2
624(25) 0.001603 447.8 182.0
621(25) 0.001610 447.8 173.7
626(25) 0.001597 447.9 167.3
655(26) 0.001527 447.9 162.7
626(25) 0.001597 447.9 159.8
680(26) 0.001471 448.0 158.5
648(25) 0.001543 448.0 158.5
664(26) 0.001506 448.1 159.6
656(26) 0.001524 448.1 161.7
678(26) 0.001475 448.2 164.3
636(25) 0.001572 448.2 167.2
676(26) 0.001479 448.3 169.9
672(26) 0.001488 448.3 172.0
700(26) 0.001429 448.3 173.5
678(26) 0.001475 448.4 174.1
740(27) 0.001351 448.4 174.3
707(27) 0.001414 448.5 174.2
659(26) 0.001517 448.5 174.4
704(27) 0.001420 448.6 175.2
692(26) 0.001445 448.6 177.0
701(26) 0.001427 448.7 180.0
672(26) 0.001488 448.7 184.5
667(26) 0.001499 448.8 190.7
738(27) 0.001355 448.8 198.5
704(27) 0.001420 448.8 208.1
684(26) 0.001462 448.9 219.3
706(27) 0.001416 448.9 232.1
702(26) 0.001424 449.0 246.2
723(27) 0.001383 449.0 261.2
742(27) 0.001348 449.1 276.5
749(27) 0.001335 449.1 291.2
773(28) 0.001294 449.2 304.1
777(28) 0.001287 449.2 314.3
788(28) 0.001269 449.3 320.5
773(28) 0.001294 449.3 322.1
806(28) 0.001241 449.3 318.8
766(28) 0.001305 449.4 311.1
765(28) 0.001307 449.4 299.9
684(26) 0.001462 449.5 286.1
706(27) 0.001416 449.5 271.0
696(26) 0.001437 449.6 255.5
675(26) 0.001481 449.6 240.3
623(25) 0.001605 449.7 226.0
635(25) 0.001575 449.7 212.9
628(25) 0.001592 449.7 201.2
627(25) 0.001595 449.8 190.9
600(24) 0.001667 449.8 182.1
621(25) 0.001610 449.9 174.6
602(25) 0.001661 449.9 168.5
634(25) 0.001577 450.0 163.6
619(25) 0.001616 450.0 159.8
601(25) 0.001664 450.1 157.1
617(25) 0.001621 450.1 155.4
615(25) 0.001626 450.2 154.5
617(25) 0.001621 450.2 154.4
585(24) 0.001709 450.2 155.1
658(26) 0.001520 450.3 156.5
634(25) 0.001577 450.3 158.6
616(25) 0.001623 450.4 161.3
604(25) 0.001656 450.4 164.6
615(25) 0.001626 450.5 168.6
625(25) 0.001600 450.5 173.2
623(25) 0.001605 450.6 178.4
626(25) 0.001597 450.6 184.3
601(25) 0.001664 450.7 190.9
649(25) 0.001541 450.7 198.1
638(25) 0.001567 450.7 206.0
720(27) 0.001389 450.8 214.6
680(26) 0.001471 450.8 223.7
725(27) 0.001379 450.9 233.3
670(26) 0.001493 450.9 243.4
738(27) 0.001355 451.0 253.8
780(28) 0.001282 451.0 264.4
790(28) 0.001266 451.1 274.8
753(27) 0.001328 451.1 285.0
768(28) 0.001302 451.2 294.6
770(28) 0.001299 451.2 303.4
759(28) 0.001318 451.2 311.1
792(28) 0.001263 451.3 317.6
764(28) 0.001309 451.3 322.6
793(28) 0.001261 451.4 326.4
770(28) 0.001299 451.4 328.9
802(28) 0.001247 451.5 330.4
753(27) 0.001328 451.5 331.3
771(28) 0.001297 451.6 332.0
815(29) 0.001227 451.6 332.6
785(28) 0.001274 451.6 333.5
836(29) 0.001196 451.7 335.0
814(29) 0.001228 451.7 337.2
825(29) 0.001212 451.8 340.1
816(29) 0.001225 451.8 343.6
844(29) 0.001185 451.9 347.5
881(30) 0.001135 451.9 351.5
917(30) 0.001091 452.0 355.0
897(30) 0.001115 452.0 357.5
901(30) 0.001110 452.1 358.4
800(28) 0.001250 452.1 357.3
856(29) 0.001168 452.1 353.9
827(29) 0.001209 452.2 348.1
797(28) 0.001255 452.2 340.2
775(28) 0.001290 452.3 330.5
757(28) 0.001321 452.3 319.6
740(27) 0.001351 452.4 307.9
760(28) 0.001316 452.4 295.8
709(27) 0.001410 452.5 283.8
672(26) 0.001488 452.5 272.1
704(27) 0.001420 452.6 260.8
671(26) 0.001490 452.6 250.1
729(27) 0.001372 452.6 240.0
690(26) 0.001449 452.7 230.6
666(26) 0.001501 452.7 221.9
666(26) 0.001501 452.8 214.0
649(25) 0.001541 452.8 206.7
630(25) 0.001587 452.9 200.1
672(26) 0.001488 452.9 194.1
663(26) 0.001508 453.0 188.7
672(26) 0.001488 453.0 184.0
641(25) 0.001560 453.1 179.8
608(25) 0.001645 453.1 176.0
612(25) 0.001634 453.1 172.8
622(25) 0.001608 453.2 170.0
657(26) 0.001522 453.2 167.5
687(26) 0.001456 453.3 165.5
652(26) 0.001534 453.3 163.7
642(25) 0.001558 453.4 162.2
625(25) 0.001600 453.4 160.9
641(25) 0.001560 453.5 159.9
597(24) 0.001675 453.5 159.0
654(26) 0.001529 453.5 158.2
660(26) 0.001515 453.6 157.5
619(25) 0.001616 453.6 156.9
641(25) 0.001560 453.7 156.3
629(25) 0.001590 453.7 155.7
627(25) 0.001595 453.8 155.1
615(25) 0.001626 453.8 154.4
675(26) 0.001481 453.9 153.8
609(25) 0.001642 453.9 153.1
651(26) 0.001536 454.0 152.4
672(26) 0.001488 454.0 151.7
638(25) 0.001567 454.0 151.0
641(25) 0.001560 454.1 150.4
651(26) 0.001536 454.1 149.8
619(25) 0.001616 454.2 149.3
632(25) 0.001582 454.2 149.0
621(25) 0.001610 454.3 148.9
668(26) 0.001497 454.3 149.0
624(25) 0.001603 454.4 149.5
634(25) 0.001577 454.4 150.3
628(25) 0.001592 454.5 151.6
644(25) 0.001553 454.5 153.3
677(26) 0.001477 454.5 155.6
650(25) 0.001538 454.6 158.5
649(25) 0.001541 454.6 162.0
644(25) 0.001553 454.7 166.3
648(25) 0.001543 454.7 171.2
705(27) 0.001418 454.8 176.8
658(26) 0.001520 454.8 183.1
691(26) 0.001447 454.9 190.0
725(27) 0.001379 454.9 197.1
678(26) 0.001475 454.9 204.1
737(27) 0.001357 455.0 210.7
688(26) 0.001453 455.0 216.2
722(27) 0.001385 455.1 220.0
710(27) 0.001408 455.1 221.8
714(27) 0.001401 455.2 221.1
740(27) 0.001351 455.2 218.0
742(27) 0.001348 455.3 212.8
717(27) 0.001395 455.3 206.0
739(27) 0.001353 455.4 198.2
731(27) 0.001368 455.4 189.9
682(26) 0.001466 455.4 181.6
692(26) 0.001445 455.5 173.5
640(25) 0.001563 455.5 166.1
672(26) 0.001488 455.6 159.2
700(26) 0.001429 455.6 153.1
634(25) 0.001577 455.7 147.7
693(26) 0.001443 455.7 143.1
627(25) 0.001595 455.8 139.1
632(25) 0.001582 455.8 135.7
616(25) 0.001623 455.9 133.0
592(24) 0.001689 455.9 130.8
624(25) 0.001603 455.9 129.1
618(25) 0.001618 456.0 127.9
627(25) 0.001595 456.0 127.2
612(25) 0.001634 456.1 126.8
611(25) 0.001637 456.1 126.8
672(26) 0.001488 456.2 127.2
642(25) 0.001558 456.2 128.0
656(26) 0.001524 456.3 129.0
654(26) 0.001529 456.3 130.4
659(26) 0.001517 456.4 132.1
653(26) 0.001531 456.4 134.0
672(26) 0.001488 456.4 136.1
666(26) 0.001501 456.5 138.4
663(26) 0.001508 456.5 140.6
701(26) 0.001427 456.6 142.7
684(26) 0.001462 456.6 144.5
697(26) 0.001435 456.7 145.7
670(26) 0.001493 456.7 146.1
701(26) 0.001427 456.8 145.5
661(26) 0.001513 456.8 143.9
664(26) 0.001506 456.8 141.4
694(26) 0.001441 456.9 138.2
671(26) 0.001490 456.9 134.3
644(25) 0.001553 457.0 130.2
668(26) 0.001497 457.0 125.9
630(25) 0.001587 457.1 121.6
679(26) 0.001473 457.1 117.6
678(26) 0.001475 457.2 113.7
747(27) 0.001339 457.2 110.2
677(26) 0.001477 457.3 106.9
702(26) 0.001424 457.3 104.0
701(26) 0.001427 457.3 101.5
685(26) 0.001460 457.4 99.2
669(26) 0.001495 457.4 97.3
708(27) 0.001412 457.5 95.6
718(27) 0.001393 457.5 94.2
700(26) 0.001429 457.6 93.0
764(28) 0.001309 457.6 92.0
722(27) 0.001385 457.7 91.2
750(27) 0.001333 457.7 90.5
742(27) 0.001348 457.8 89.9
747(27) 0.001339 457.8 89.2
770(28) 0.001299 457.8 88.5
737(27) 0.001357 457.9 87.7
727(27) 0.0 0.0 .
714(27) 0.0 0.0 .
767(28) 0.0 0.0 .
784(28) 0.0 0.0 .
740(27) 0.0 0.0 .
786(28) 0.0 0.0 .
766(28) 0.0 0.0 .
774(28) 0.0 0.0 .
787(28) 0.0 0.0 .
740(27) 0.0 0.0 .
790(28) 0.0 0.0 .
812(28) 0.0 0.0 .
750(27) 0.0 0.0 .
731(27) 0.0 0.0 .
795(28) 0.0 0.0 .
810(28) 0.0 0.0 .
835(29) 0.0 0.0 .
821(29) 0.0 0.0 .
904(30) 0.0 0.0 .
860(29) 0.0 0.0 .
843(29) 0.0 0.0 .
845(29) 0.0 0.0 .
918(30) 0.0 0.0 .
932(31) 0.0 0.0 .
913(30) 0.0 0.0 .
901(30) 0.0 0.0 .
967(31) 0.0 0.0 .
965(31) 0.0 0.0 .
972(31) 0.0 0.0 .
1009(32) 0.0 0.0 .
1068(33) 0.0 0.0 .
1061(33) 0.0 0.0 .
1096(33) 0.0 0.0 .
1148(34) 0.0 0.0 .
1143(34) 0.0 0.0 .
1238(35) 0.0 0. .
1335(37) 0.0 0. .
1249(35) 0.0 0. .
1244(35) 0.0 0. .
1391(37) 0.0 0. .
1414(38) 0.0 0. .
1391(37) 0.0 0. .
1503(39) 0.0 0. .
1534(39) 0.0 0. .
1600(40) 0.0 0. .
1574(40) 0.0 0. .
1611(40) 0.0 0. .
1694(41) 0.0 0. .
1807(43) 0.0 0. .
1828(43) 0.0 0. .
1985(45) 0.0 0. .
2060(45) 0.0 0. .
2151(46) 0.0 0. .
2266(48) 0.0 0. .
2361(49) 0.0 0. .
2388(49) 0.0 0. .
2607(51) 0.0 0. .
2681(52) 0.0 0. .
2895(54) 0.0 0. .
2989(55) 0.0 0. .
3127(56) 0.0 0. .
3314(58) 0.0 0. .
3547(60) 0.0 0. .
3930(63) 0.0 0. .
4134(64) 0.0 0. .
4485(67) 0.0 0. .
4866(70) 0.0 0. .
5268(73) 0.0 0. .
6003(77) 0.0 0. .
6459(80) 0.0 0. .
7189(85) 0.0 0. .
8025(90) 0.0 0. .
8878(94) 0.0 0. .
9813(99) 0.0 0. .
11250(110) 0.0 0. .
12650(110) 0.0 0. .
14320(120) 0.0 0. .
16810(130) 0.0 0. .
19620(140) 0.0 0. .
23120(150) 0.0 0. .
27400(170) 0.0 0. .
33470(180) 0.0 0. .
41560(200) 0.0 0. .
52470(230) 0.0 0. .
67680(260) 0.0 0. .
88540(300) 0.0 0. .
119290(350) 0.0 0. .
161480(400) 0.0 0. .
226550(480) 0.0 0. .
318070(560) 0.0 0. .
445510(670) 0.0 0. .
587210(770) 0.0 0. .
688300(830) 0.0 0. .
699370(840) 0.0 0. .
622450(790) 0.0 0. .
500440(710) 0.0 0. .
372370(610) 0.0 0. .
265150(520) 0.0 0. .
187990(430) 0.0 0. .
136090(370) 0.0 0. .
100640(320) 0.0 0. .
76490(280) 0.0 0. .
59720(240) 0.0 0. .
47980(220) 0.0 0. .
38520(200) 0.0 0. .
31260(180) 0.0 0. .
26320(160) 0.0 0. .
22030(150) 0.0 0. .
18970(140) 0.0 0. .
16130(130) 0.0 0. .
13770(120) 0.0 0. .
11910(110) 0.0 0. .
10430(100) 0.0 0. .
9323(97) 0.0 0. .
8162(90) 0.0 0. .
7566(87) 0.0 0. .
6707(82) 0.0 0. .
5885(77) 0.0 0. .
5396(73) 0.0 0. .
4933(70) 0.0 0. .
4613(68) 0.0 0. .
4298(66) 0.0 0. .
4004(63) 0.0 0. .
3700(61) 0.0 0. .
3534(59) 0.0 0. .
3323(58) 0.0 0. .
2949(54) 0.0 0. .
2813(53) 0.0 0. .
2660(52) 0.0 0. .
2640(51) 0.0 0. .
2470(50) 0.0 0. .
2281(48) 0.0 0. .
2118(46) 0.0 0. .
2103(46) 0.0 0. .
2065(45) 0.0 0. .
1959(44) 0.0 0. .
1914(44) 0.0 0. .
1840(43) 0.0 0. .
1811(43) 0.0 0. .
1776(42) 0.0 0. .
1758(42) 0.0 0. .
1636(40) 0.0 0. .
1614(40) 0.0 0. .
1608(40) 0.0 0. .
1484(39) 0.0 0. .
1496(39) 0.0 0. .
1465(38) 0.0 0. .
1385(37) 0.0 0. .
1395(37) 0.0 0. .
1319(36) 0.0 0. .
1318(36) 0.0 0. .
1388(37) 0.0 0. .
1351(37) 0.0 0. .
1308(36) 0.0 0. .
1193(35) 0.0 0.0 .
1227(35) 0.0 0.0 .
1212(35) 0.0 0.0 .
1186(34) 0.0 0.0 .
1207(35) 0.0 0.0 .
1199(35) 0.0 0.0 .
1178(34) 0.0 0.0 .
1176(34) 0.0 0.0 .
1155(34) 0.0 0.0 .
1191(35) 0.0 0.0 .
1126(34) 0.0 0.0 .
1159(34) 0.0 0.0 .
1111(33) 0.0 0.0 .
1036(32) 0.0 0.0 .
1097(33) 0.0 0.0 .
1041(32) 0.0 0.0 .
1070(33) 0.0 0.0 .
991(31) 0.0 0.0 .
1010(32) 0.0 0.0 .
979(31) 0.0 0.0 .
1022(32) 0.0 0.0 .
1032(32) 0.0 0.0 .
1024(32) 0.0 0.0 .
992(31) 0.0 0.0 .
957(31) 0.0 0.0 .
958(31) 0.0 0.0 .
946(31) 0.0 0.0 .
890(30) 0.0 0.0 .
928(30) 0.0 0.0 .
887(30) 0.0 0.0 .
862(29) 0.0 0.0 .
849(29) 0.0 0.0 .
870(29) 0.0 0.0 .
841(29) 0.0 0.0 .
848(29) 0.0 0.0 .
840(29) 0.0 0.0 .
848(29) 0.0 0.0 .
766(28) 0.0 0.0 .
785(28) 0.0 0.0 .
781(28) 0.0 0.0 .
794(28) 0.0 0.0 .
814(29) 0.0 0.0 .
750(27) 0.0 0.0 .
716(27) 0.0 0.0 .
734(27) 0.0 0.0 .
725(27) 0.0 0.0 .
711(27) 0.0 0.0 .
639(25) 0.0 0.0 .
739(27) 0.0 0.0 .
692(26) 0.0 0.0 .
671(26) 0.0 0.0 .
655(26) 0.0 0.0 .
688(26) 0.0 0.0 .
695(26) 0.0 0.0 .
662(26) 0.0 0.0 .
693(26) 0.0 0.0 .
653(26) 0.0 0.0 .
675(26) 0.0 0.0 .
665(26) 0.0 0.0 .
653(26) 0.0 0.0 .
620(25) 0.0 0.0 .
606(25) 0.0 0.0 .
629(25) 0.0 0.0 .
633(25) 0.0 0.0 .
618(25) 0.0 0.0 .
614(25) 0.0 0.0 .
624(25) 0.0 0.0 .
590(24) 0.0 0.0 .
664(26) 0.0 0.0 .
580(24) 0.0 0.0 .
572(24) 0.0 0.0 .
626(25) 0.0 0.0 .
625(25) 0.0 0.0 .
631(25) 0.0 0.0 .
585(24) 0.0 0.0 .
630(25) 0.0 0.0 .
590(24) 0.0 0.0 .
590(24) 0.0 0.0 .
622(25) 0.0 0.0 .
629(25) 0.0 0.0 .
613(25) 0.0 0.0 .
629(25) 0.0 0.0 .
611(25) 0.0 0.0 .
608(25) 0.0 0.0 .
578(24) 0.0 0.0 .
630(25) 0.0 0.0 .
620(25) 0.0 0.0 .
566(24) 0.0 0.0 .
566(24) 0.0 0.0 .
599(24) 0.0 0.0 .
607(25) 0.0 0.0 .
622(25) 0.0 0.0 .
636(25) 0.0 0.0 .
607(25) 0.0 0.0 .
613(25) 0.0 0.0 .
606(25) 0.0 0.0 .
615(25) 0.0 0.0 .
584(24) 0.0 0.0 .
606(25) 0.0 0.0 .
591(24) 0.0 0.0 .
581(24) 0.0 0.0 .
571(24) 0.0 0.0 .
600(24) 0.0 0.0 .
570(24) 0.0 0.0 .
584(24) 0.0 0.0 .
580(24) 0.0 0.0 .
586(24) 0.0 0.0 .
537(23) 0.0 0.0 .
493(22) 0.0 0.0 .
538(23) 0.0 0.0 .
513(23) 0.0 0.0 .
536(23) 0.0 0.0 .
516(23) 0.0 0.0 .
552(23) 0.0 0.0 .
519(23) 0.0 0.0 .
539(23) 0.0 0.0 .
545(23) 0.0 0.0 .
536(23) 0.0 0.0 .
563(24) 0.0 0.0 .
525(23) 0.0 0.0 .
537(23) 0.0 0.0 .
552(23) 0.0 0.0 .
550(23) 0.0 0.0 .
554(24) 0.0 0.0 .
544(23) 0.0 0.0 .
555(24) 0.0 0.0 .
503(22) 0.0 0.0 .
529(23) 0.0 0.0 .
553(24) 0.0 0.0 .
568(24) 0.0 0.0 .
504(22) 0.0 0.0 .
516(23) 0.0 0.0 .
512(23) 0.0 0.0 .
500(22) 0.0 0.0 .
511(23) 0.0 0.0 .
490(22) 0.0 0.0 .
466(22) 0.0 0.0 .
469(22) 0.0 0.0 .
512(23) 0.0 0.0 .
489(22) 0.0 0.0 .
506(22) 0.0 0.0 .
492(22) 0.0 0.0 .
488(22) 0.0 0.0 .
509(23) 0.0 0.0 .
468(22) 0.0 0.0 .
495(22) 0.0 0.0 .
451(21) 0.0 0.0 .
460(21) 0.0 0.0 .
493(22) 0.0 0.0 .
460(21) 0.002174 471.0 44.2
483(22) 0.002070 470.9 44.8
476(22) 0.002101 470.8 45.5
473(22) 0.002114 470.7 46.2
489(22) 0.002045 470.6 47.1
484(22) 0.002066 470.5 48.0
494(22) 0.002024 470.5 49.0
467(22) 0.002141 470.4 50.1
467(22) 0.002141 470.3 51.4
457(21) 0.002188 470.2 52.7
492(22) 0.002033 470.1 54.2
485(22) 0.002062 470.0 55.7
511(23) 0.001957 469.9 57.4
481(22) 0.002079 469.8 59.2
507(23) 0.001972 469.7 61.2
518(23) 0.001931 469.6 63.3
513(23) 0.001949 469.5 65.6
507(23) 0.001972 469.4 68.0
480(22) 0.002083 469.3 70.6
474(22) 0.002110 469.2 73.4
538(23) 0.001859 469.1 76.4
489(22) 0.002045 469.0 79.6
518(23) 0.001931 468.9 83.0
567(24) 0.001764 468.8 86.6
541(23) 0.001848 468.7 90.4
578(24) 0.001730 468.6 94.5
514(23) 0.001946 468.5 98.8
543(23) 0.001842 468.4 103.3
559(24) 0.001789 468.3 108.0
564(24) 0.001773 468.2 113.0
561(24) 0.001783 468.1 118.2
582(24) 0.001718 468.0 123.5
577(24) 0.001733 467.9 129.0
600(24) 0.001667 467.8 134.5
610(25) 0.001639 467.8 140.2
624(25) 0.001603 467.7 145.8
580(24) 0.001724 467.6 151.4
601(25) 0.001664 467.5 156.9
618(25) 0.001618 467.4 162.3
642(25) 0.001558 467.3 167.5
665(26) 0.001504 467.2 172.5
655(26) 0.001527 467.1 177.2
685(26) 0.001460 467.0 181.6
647(25) 0.001546 466.9 185.5
656(26) 0.001524 466.8 188.8
682(26) 0.001466 466.7 191.3
700(26) 0.001429 466.6 192.9
653(26) 0.001531 466.5 193.4
683(26) 0.001464 466.4 192.9
682(26) 0.001466 466.3 191.3
661(26) 0.001513 466.2 188.8
638(25) 0.001567 466.1 185.8
677(26) 0.001477 466.0 182.4
641(25) 0.001560 465.9 178.9
659(26) 0.001517 465.8 175.3
619(25) 0.001616 465.7 171.9
611(25) 0.001637 465.6 168.6
590(24) 0.001695 465.5 165.7
581(24) 0.001721 465.4 163.0
578(24) 0.001730 465.3 160.7
622(25) 0.001608 465.2 158.7
660(26) 0.001515 465.2 157.1
606(25) 0.001650 465.1 155.9
588(24) 0.001701 465.0 155.1
569(24) 0.001757 464.9 154.6
634(25) 0.001577 464.8 154.5
601(25) 0.001664 464.7 154.5
620(25) 0.001613 464.6 154.8
579(24) 0.001727 464.5 155.1
625(25) 0.001600 464.4 155.4
614(25) 0.001629 464.3 155.5
610(25) 0.001639 464.2 155.4
632(25) 0.001582 464.1 154.8
595(24) 0.001681 464.0 153.8
584(24) 0.001712 463.9 152.3
573(24) 0.001745 463.8 150.4
565(24) 0.001770 463.7 148.2
596(24) 0.001678 463.6 145.8
570(24) 0.001754 463.5 143.3
564(24) 0.001773 463.4 140.8
610(25) 0.001639 463.3 138.6
571(24) 0.001751 463.2 136.7
539(23) 0.001855 463.1 135.1
556(24) 0.001799 463.0 134.0
546(23) 0.001832 462.9 133.4
555(24) 0.001802 462.8 133.4
557(24) 0.001795 462.7 133.8
563(24) 0.001776 462.6 134.8
550(23) 0.001818 462.5 136.3
609(25) 0.001642 462.5 138.3
581(24) 0.001721 462.4 140.7
573(24) 0.001745 462.3 143.5
583(24) 0.001715 462.2 146.4
594(24) 0.001684 462.1 149.3
582(24) 0.001718 462.0 152.0
578(24) 0.001730 461.9 154.4
590(24) 0.001695 461.8 156.0
586(24) 0.001706 461.7 156.8
539(23) 0.001855 461.6 156.6
611(25) 0.001637 461.5 155.3
607(25) 0.001647 461.4 152.9
590(24) 0.001695 461.3 149.6
582(24) 0.001718 461.2 145.5
550(23) 0.001818 461.1 140.9
549(23) 0.001822 461.0 136.1
525(23) 0.001905 460.9 131.2
544(23) 0.001838 460.8 126.4
501(22) 0.001996 460.7 122.0
534(23) 0.001873 460.6 118.1
540(23) 0.001852 460.5 114.7
502(22) 0.001992 460.4 112.1
517(23) 0.001934 460.3 110.2
535(23) 0.001869 460.2 109.3
551(23) 0.001815 460.1 109.3
510(23) 0.001961 460.0 110.3
567(24) 0.001764 459.9 112.2
515(23) 0.001942 459.9 114.6
522(23) 0.001916 459.8 116.9
549(23) 0.001822 459.7 118.0
539(23) 0.001855 459.6 117.3
515(23) 0.001942 459.5 114.6
503(22) 0.001988 459.4 110.6
497(22) 0.002012 459.3 106.2
580(24) 0.001724 459.2 102.2
537(23) 0.001862 459.1 98.9
557(24) 0.001795 459.0 96.5
489(22) 0.002045 458.9 95.0
526(23) 0.001901 458.8 94.2
522(23) 0.001916 458.7 94.2
516(23) 0.001938 458.6 94.9
518(23) 0.001931 458.5 96.2
543(23) 0.001842 458.4 98.1
517(23) 0.001934 458.3 100.6
526(23) 0.001901 458.2 103.7
553(24) 0.001808 458.1 107.4
544(23) 0.001838 458.0 111.8
579(24) 0.001727 457.9 117.0
556(24) 0.001799 457.8 123.0
555(24) 0.001802 457.7 129.9
586(24) 0.001706 457.6 137.8
606(25) 0.001650 457.5 146.8
633(25) 0.001580 457.4 157.0
585(24) 0.001709 457.3 168.4
618(25) 0.001618 457.2 181.0
661(26) 0.001513 457.2 194.5
661(26) 0.001513 457.1 208.6
739(27) 0.001353 457.0 222.7
722(27) 0.001385 456.9 236.1
762(28) 0.001312 456.8 248.4
781(28) 0.001280 456.7 259.6
774(28) 0.001292 456.6 270.0
823(29) 0.001215 456.5 279.8
827(29) 0.001209 456.4 289.4
835(29) 0.001198 456.3 298.7
882(30) 0.001134 456.2 307.3
872(30) 0.001147 456.1 315.2
918(30) 0.001089 456.0 321.9
903(30) 0.001107 455.9 327.5
835(29) 0.001198 455.8 331.9
854(29) 0.001171 455.7 335.7
863(29) 0.001159 455.6 339.3
831(29) 0.001203 455.5 343.2
901(30) 0.001110 455.4 347.5
877(30) 0.001140 455.3 351.9
909(30) 0.001100 455.2 355.6
888(30) 0.001126 455.1 357.2
853(29) 0.001172 455.0 355.0
851(29) 0.001175 454.9 348.0
772(28) 0.001295 454.8 335.6
780(28) 0.001282 454.7 318.8
680(26) 0.001471 454.6 299.0
704(27) 0.001420 454.5 277.9
705(27) 0.001418 454.5 256.9
691(26) 0.001447 454.4 236.9
638(25) 0.001567 454.3 218.3
602(25) 0.001661 454.2 201.5
613(25) 0.001631 454.1 186.4
587(24) 0.001704 454.0 173.1
565(24) 0.001770 453.9 161.3
562(24) 0.001779 453.8 151.1
543(23) 0.001842 453.7 142.2
573(24) 0.001745 453.6 134.6
584(24) 0.001712 453.5 128.1
543(23) 0.001842 453.4 122.5
527(23) 0.001898 453.3 117.9
556(24) 0.001799 453.2 114.0
507(23) 0.001972 453.1 110.8
514(23) 0.001946 453.0 108.2
504(22) 0.001984 452.9 106.3
508(23) 0.001968 452.8 105.0
467(22) 0.002141 452.7 104.2
530(23) 0.001887 452.6 104.0
503(22) 0.001988 452.5 104.5
533(23) 0.001876 452.4 105.6
515(23) 0.001942 452.3 107.4
537(23) 0.001862 452.2 110.0
585(24) 0.001709 452.1 113.5
568(24) 0.001761 452.0 118.0
572(24) 0.001748 451.9 123.6
593(24) 0.001686 451.9 130.4
601(25) 0.001664 451.8 138.7
604(25) 0.001656 451.7 148.6
586(24) 0.001706 451.6 160.2
617(25) 0.001621 451.5 173.8
647(25) 0.001546 451.4 189.6
647(25) 0.001546 451.3 207.6
686(26) 0.001458 451.2 227.8
666(26) 0.001501 451.1 250.3
740(27) 0.001351 451.0 274.6
777(28) 0.001287 450.9 300.1
802(28) 0.001247 450.8 325.7
812(28) 0.001232 450.7 349.9
872(30) 0.001147 450.6 370.9
971(31) 0.001030 450.5 386.6
931(31) 0.001074 450.4 395.9
1002(32) 0.000998 450.3 398.1
987(31) 0.001013 450.2 393.5
979(31) 0.001021 450.1 383.1
918(30) 0.001089 450.0 368.4
882(30) 0.001134 449.9 350.6
863(29) 0.001159 449.8 331.0
824(29) 0.001214 449.7 310.6
772(28) 0.001295 449.6 290.2
734(27) 0.001362 449.5 270.4
714(27) 0.001401 449.4 251.4
671(26) 0.001490 449.3 233.3
634(25) 0.001577 449.2 216.3
634(25) 0.001577 449.2 200.4
585(24) 0.001709 449.1 185.5
542(23) 0.001845 449.0 171.7
564(24) 0.001773 448.9 159.0
554(24) 0.001805 448.8 147.3
544(23) 0.001838 448.7 136.7
536(23) 0.001866 448.6 127.1
510(23) 0.001961 448.5 118.4
527(23) 0.001898 448.4 110.7
503(22) 0.001988 448.3 103.9
490(22) 0.002041 448.2 97.7
476(22) 0.002101 448.1 92.3
506(22) 0.001976 448.0 87.5
484(22) 0.002066 447.9 83.3
455(21) 0.002198 447.8 79.5
460(21) 0.002174 447.7 76.2
458(21) 0.002183 447.6 73.3
453(21) 0.002208 447.5 70.8
452(21) 0.002212 447.4 68.5
482(22) 0.002075 447.3 66.6
446(21) 0.002242 447.2 64.9
430(21) 0.002326 447.1 63.5
444(21) 0.002252 447.0 62.2
474(22) 0.002110 446.9 61.2
487(22) 0.002053 446.8 60.3
445(21) 0.002247 446.7 59.6
457(21) 0.002188 446.6 59.0
445(21) 0.002247 446.5 58.6
473(22) 0.002114 446.4 58.3
432(21) 0.002315 446.3 58.2
459(21) 0.002179 446.2 58.2
445(21) 0.002247 446.0 58.3
446(21) 0.002242 445.9 58.6
435(21) 0.002299 445.8 58.9
448(21) 0.002232 445.6 59.4
459(21) 0.002179 445.5 60.1
494(22) 0.002024 445.4 60.8
491(22) 0.002037 445.3 61.7
480(22) 0.002083 445.1 62.7
444(21) 0.002252 445.0 63.9
487(22) 0.002053 444.9 65.1
492(22) 0.002033 444.7 66.5
433(21) 0.002309 444.6 68.0
494(22) 0.002024 444.5 69.6
486(22) 0.002058 444.3 71.3
475(22) 0.002105 444.2 73.0
441(21) 0.002268 444.1 74.7
479(22) 0.002088 444.0 76.5
479(22) 0.002088 443.8 78.2
510(23) 0.001961 443.7 79.9
505(22) 0.001980 443.6 81.6
520(23) 0.001923 443.4 83.2
506(22) 0.001976 443.3 84.9
511(23) 0.001957 443.2 86.5
511(23) 0.001957 443.1 88.2
520(23) 0.001923 442.9 89.9
505(22) 0.001980 442.8 91.8
508(23) 0.001968 442.7 93.8
540(23) 0.001852 442.5 95.9
510(23) 0.001961 442.4 98.2
548(23) 0.001825 442.3 100.7
515(23) 0.001942 442.1 103.3
544(23) 0.001838 442.0 106.2
549(23) 0.001822 441.9 109.2
552(23) 0.001812 441.8 112.4
545(23) 0.001835 441.6 115.8
554(24) 0.001805 441.5 119.4
598(24) 0.001672 441.4 123.2
580(24) 0.001724 441.2 127.1
578(24) 0.001730 441.1 131.2
585(24) 0.001709 441.0 135.4
574(24) 0.001742 440.8 139.7
564(24) 0.001773 440.7 144.2
590(24) 0.001695 440.6 148.7
591(24) 0.001692 440.5 153.3
608(25) 0.001645 440.3 158.0
607(25) 0.001647 440.2 162.6
651(26) 0.001536 440.1 167.3
636(25) 0.001572 439.9 171.9
637(25) 0.001570 439.8 176.5
648(25) 0.001543 439.7 181.1
622(25) 0.001608 439.6 185.6
669(26) 0.001495 439.4 190.2
676(26) 0.001479 439.3 194.8
696(26) 0.001437 439.2 199.5
683(26) 0.001464 439.0 204.3
683(26) 0.001464 438.9 209.4
691(26) 0.001447 438.8 214.6
656(26) 0.001524 438.6 220.1
723(27) 0.001383 438.5 225.8
675(26) 0.001481 438.4 231.8
678(26) 0.001475 438.3 238.0
668(26) 0.001497 438.1 244.3
702(26) 0.001424 438.0 250.6
715(27) 0.001399 437.9 257.0
690(26) 0.001449 437.7 263.1
778(28) 0.001285 437.6 268.9
716(27) 0.001397 437.5 274.2
725(27) 0.001379 437.4 278.9
759(28) 0.001318 437.2 282.9
776(28) 0.001289 437.1 286.0
711(27) 0.001406 437.0 288.3
731(27) 0.001368 436.8 289.7
757(28) 0.001321 436.7 290.2
765(28) 0.001307 436.6 289.8
735(27) 0.001361 436.4 288.6
736(27) 0.001359 436.3 286.6
702(26) 0.001424 436.2 283.8
712(27) 0.001404 436.1 280.3
705(27) 0.001418 435.9 276.1
735(27) 0.001361 435.8 271.2
716(27) 0.001397 435.7 265.8
675(26) 0.001481 435.5 259.8
687(26) 0.001456 435.4 253.5
674(26) 0.001484 435.3 246.9
634(25) 0.001577 435.1 240.2
627(25) 0.001595 435.0 233.4
647(25) 0.001546 434.9 226.7
643(25) 0.001555 434.8 220.2
642(25) 0.001558 434.6 214.0
611(25) 0.001637 434.5 208.1
626(25) 0.001597 434.4 202.5
642(25) 0.001558 434.2 197.4
622(25) 0.001608 434.1 192.7
599(24) 0.001669 434.0 188.5
609(25) 0.001642 433.9 184.8
620(25) 0.001613 433.7 181.6
581(24) 0.001721 433.6 178.9
586(24) 0.001706 433.5 176.7
584(24) 0.001712 433.3 175.0
601(25) 0.001664 433.2 173.8
575(24) 0.001739 433.1 173.2
620(25) 0.001613 432.9 173.0
606(25) 0.001650 432.8 173.4
581(24) 0.001721 432.7 174.2
607(25) 0.001647 432.6 175.5
607(25) 0.001647 432.4 177.3
580(24) 0.001724 432.3 179.3
611(25) 0.001637 432.2 181.9
624(25) 0.001603 432.0 184.8
616(25) 0.001623 431.9 188.0
610(25) 0.001639 431.8 191.4
598(24) 0.001672 431.7 195.0
604(25) 0.001656 431.5 198.7
627(25) 0.001595 431.4 202.4
627(25) 0.001595 431.3 206.1
644(25) 0.001553 431.1 209.7
630(25) 0.001587 431.0 212.9
663(26) 0.001508 430.9 215.9
652(26) 0.001534 430.7 218.4
673(26) 0.001486 430.6 220.3
663(26) 0.001508 430.5 221.5
640(25) 0.001563 430.4 222.0
636(25) 0.001572 430.2 221.6
609(25) 0.001642 430.1 220.4
639(25) 0.001565 430.0 218.5
635(25) 0.001575 429.8 215.7
632(25) 0.001582 429.7 212.2
620(25) 0.001613 429.6 208.2
629(25) 0.001590 429.4 203.7
606(25) 0.001650 429.3 198.8
588(24) 0.001701 429.2 193.8
575(24) 0.001739 429.1 188.6
621(25) 0.001610 428.9 183.4
601(25) 0.001664 428.8 178.4
616(25) 0.001623 428.7 173.5
552(23) 0.001812 428.5 168.9
592(24) 0.001689 428.4 164.6
581(24) 0.001721 428.3 160.6
565(24) 0.001770 428.2 157.0
551(23) 0.001815 428.0 153.8
585(24) 0.001709 427.9 151.0
573(24) 0.001745 427.8 148.6
555(24) 0.001802 427.6 146.7
529(23) 0.001890 427.5 145.2
531(23) 0.001883 427.4 144.1
586(24) 0.001706 427.2 143.4
563(24) 0.001776 427.1 143.1
558(24) 0.001792 427.0 143.1
584(24) 0.001712 426.9 143.4
593(24) 0.001686 426.7 143.9
541(23) 0.001848 426.6 144.6
575(24) 0.001739 426.5 145.4
584(24) 0.001712 426.3 146.0
554(24) 0.001805 426.2 146.5
597(24) 0.001675 426.1 146.7
554(24) 0.001805 426.0 146.5
566(24) 0.001767 425.8 145.9
555(24) 0.001802 425.7 144.8
539(23) 0.001855 425.6 143.1
582(24) 0.001718 425.4 141.1
578(24) 0.001730 425.3 138.6
538(23) 0.001859 425.2 135.9
562(24) 0.001779 425.0 132.9
549(23) 0.001822 424.9 129.7
518(23) 0.001931 424.8 126.5
550(23) 0.001818 424.7 123.1
541(23) 0.001848 424.5 119.8
573(24) 0.001745 424.4 116.5
525(23) 0.001905 424.3 113.2
506(22) 0.001976 424.1 110.0
514(23) 0.001946 424.0 106.9
532(23) 0.001880 423.9 103.8
546(23) 0.001832 423.7 100.9
455(21) 0.002198 423.6 98.1
476(22) 0.002101 423.5 95.5
507(23) 0.001972 423.4 92.9
492(22) 0.002033 423.2 90.5
534(23) 0.001873 423.1 88.2
518(23) 0.001931 423.0 86.0
508(23) 0.001968 422.8 84.0
507(23) 0.001972 422.7 82.1
465(22) 0.002151 422.6 80.2
487(22) 0.002053 422.5 78.5
453(21) 0.002208 422.3 76.9
478(22) 0.002092 422.2 75.3
459(21) 0.002179 422.1 73.9
460(21) 0.002174 421.9 72.5
492(22) 0.002033 421.8 71.3
461(21) 0.002169 421.7 70.1
490(22) 0.002041 421.5 69.0
503(22) 0.001988 421.4 68.0
477(22) 0.002096 421.3 67.1
460(21) 0.002174 421.3 66.2
457(21) 0.002188 421.2 65.4
427(21) 0.002342 421.2 64.7
463(22) 0.002160 421.1 64.1
414(20) 0.002415 421.1 63.6
442(21) 0.002262 421.0 63.1
492(22) 0.002033 421.0 62.7
477(22) 0.002096 420.9 62.3
455(21) 0.002198 420.9 62.1
481(22) 0.002079 420.8 61.9
457(21) 0.002188 420.8 61.8
473(22) 0.002114 420.8 61.8
493(22) 0.002028 420.7 61.8
491(22) 0.002037 420.7 62.0
470(22) 0.002128 420.6 62.2
489(22) 0.002045 420.6 62.4
483(22) 0.002070 420.5 62.8
489(22) 0.002045 420.5 63.2
474(22) 0.002110 420.4 63.7
475(22) 0.002105 420.4 64.3
477(22) 0.002096 420.3 65.0
499(22) 0.002004 420.3 65.7
454(21) 0.002203 420.2 66.5
474(22) 0.002110 420.2 67.4
493(22) 0.002028 420.2 68.3
498(22) 0.002008 420.1 69.3
492(22) 0.002033 420.1 70.3
481(22) 0.002079 420.0 71.4
487(22) 0.002053 420.0 72.5
471(22) 0.002123 419.9 73.6
486(22) 0.002058 419.9 74.7
496(22) 0.002016 419.8 75.7
492(22) 0.002033 419.8 76.8
494(22) 0.002024 419.7 77.7
498(22) 0.002008 419.7 78.6
515(23) 0.001942 419.6 79.4
515(23) 0.001942 419.6 80.1
492(22) 0.002033 419.6 80.6
471(22) 0.002123 419.5 81.0
528(23) 0.001894 419.5 81.3
505(22) 0.001980 419.4 81.4
479(22) 0.002088 419.4 81.4
503(22) 0.001988 419.3 81.2
499(22) 0.002004 419.3 80.9
499(22) 0.002004 419.2 80.5
471(22) 0.002123 419.2 80.0
527(23) 0.001898 419.1 79.5
488(22) 0.002049 419.1 78.9
477(22) 0.002096 419.0 78.2
514(23) 0.001946 419.0 77.6
464(22) 0.002155 419.0 76.9
494(22) 0.002024 418.9 76.3
467(22) 0.002141 418.9 75.7
464(22) 0.002155 418.8 75.2
457(21) 0.002188 418.8 74.6
514(23) 0.001946 418.7 74.2
496(22) 0.002016 418.7 73.8
449(21) 0.002227 418.6 73.5
490(22) 0.002041 418.6 73.2
469(22) 0.002132 418.5 73.1
476(22) 0.002101 418.5 73.0
482(22) 0.002075 418.4 73.0
497(22) 0.002012 418.4 73.1
478(22) 0.002092 418.4 73.3
498(22) 0.002008 418.3 73.6
477(22) 0.002096 418.3 74.0
493(22) 0.002028 418.2 74.6
448(21) 0.002232 418.2 75.4
469(22) 0.002132 418.1 76.4
457(21) 0.002188 418.1 77.6
519(23) 0.001927 418.0 79.0
471(22) 0.002123 418.0 80.8
465(22) 0.002151 417.9 82.7
477(22) 0.002096 417.9 84.8
479(22) 0.002088 417.8 86.9
496(22) 0.002016 417.8 88.6
500(22) 0.002000 417.8 89.6
493(22) 0.002028 417.7 89.9
530(23) 0.001887 417.7 89.4
518(23) 0.001931 417.6 88.7
497(22) 0.002012 417.6 87.9
514(23) 0.001946 417.5 87.2
481(22) 0.002079 417.5 86.7
527(23) 0.001898 417.4 86.5
572(24) 0.001748 417.4 86.5
539(23) 0.001855 417.3 86.7
486(22) 0.002058 417.3 87.1
522(23) 0.001916 417.2 87.5
481(22) 0.002079 417.2 88.0
540(23) 0.001852 417.2 88.6
481(22) 0.002079 417.1 89.2
504(22) 0.001984 417.1 89.8
534(23) 0.001873 417.0 90.4
525(23) 0.001905 417.0 91.0
544(23) 0.001838 416.9 91.5
560(24) 0.001786 416.9 91.9
549(23) 0.001822 416.8 92.3
526(23) 0.001901 416.8 92.5
534(23) 0.001873 416.7 92.8
547(23) 0.001828 416.7 92.9
508(23) 0.001968 416.6 92.9
498(22) 0.002008 416.6 92.9
502(22) 0.001992 416.6 92.9
514(23) 0.001946 416.5 92.8
508(23) 0.001968 416.5 92.6
503(22) 0.001988 416.4 92.5
523(23) 0.001912 416.4 92.4
512(23) 0.001953 416.3 92.2
541(23) 0.001848 416.3 92.2
513(23) 0.001949 416.2 92.1
454(21) 0.002203 416.2 92.1
556(24) 0.001799 416.1 92.1
534(23) 0.001873 416.1 92.1
501(22) 0.001996 416.0 92.2
512(23) 0.001953 416.0 92.3
533(23) 0.001876 416.0 92.4
501(22) 0.001996 415.9 92.3
525(23) 0.001905 415.9 92.2
508(23) 0.001968 415.8 92.0
521(23) 0.001919 415.8 91.8
529(23) 0.001890 415.7 91.5
488(22) 0.002049 415.7 91.2
493(22) 0.002028 415.6 90.9
490(22) 0.002041 415.6 90.7
480(22) 0.002083 415.5 90.7
488(22) 0.002049 415.5 90.7
497(22) 0.002012 415.4 90.9
537(23) 0.001862 415.4 91.3
526(23) 0.001901 415.4 91.8
563(24) 0.001776 415.3 92.5
469(22) 0.002132 415.3 93.4
578(24) 0.001730 415.2 94.6
527(23) 0.001898 415.2 96.0
535(23) 0.001869 415.1 97.7
529(23) 0.001890 415.1 99.7
492(22) 0.002033 415.0 102.1
541(23) 0.001848 415.0 104.9
538(23) 0.001859 414.9 108.2
524(23) 0.001908 414.9 112.1
529(23) 0.001890 414.8 116.6
577(24) 0.001733 414.8 121.9
546(23) 0.001832 414.8 128.2
568(24) 0.001761 414.7 135.7
570(24) 0.001754 414.7 144.6
625(25) 0.001600 414.6 155.2
593(24) 0.001686 414.6 167.9
583(24) 0.001715 414.5 182.9
624(25) 0.001603 414.5 200.5
683(26) 0.001464 414.4 220.6
629(25) 0.001590 414.4 242.7
686(26) 0.001458 414.3 265.4
690(26) 0.001449 414.3 286.1
686(26) 0.001458 414.2 301.6
659(26) 0.001517 414.2 308.2
691(26) 0.001447 414.2 304.5
638(25) 0.001567 414.1 291.5
644(25) 0.001553 414.1 272.1
606(25) 0.001650 414.0 250.1
602(25) 0.001661 414.0 228.1
615(25) 0.001626 413.9 207.8
568(24) 0.001761 413.9 190.0
588(24) 0.001701 413.8 174.9
504(22) 0.001984 413.8 162.3
532(23) 0.001880 413.7 151.9
513(23) 0.001949 413.7 143.5
550(23) 0.001818 413.6 136.7
565(24) 0.001770 413.6 131.3
555(24) 0.001802 413.6 127.0
547(23) 0.001828 413.5 123.6
545(23) 0.001835 413.5 121.0
514(23) 0.001946 413.4 119.0
516(23) 0.001938 413.4 117.4
495(22) 0.002020 413.3 116.4
517(23) 0.001934 413.3 115.7
498(22) 0.002008 413.2 115.4
504(22) 0.001984 413.2 115.3
512(23) 0.001953 413.1 115.6
525(23) 0.001905 413.1 116.2
503(22) 0.001988 413.0 117.1
491(22) 0.002037 413.0 118.2
534(23) 0.001873 413.0 119.6
514(23) 0.001946 412.9 121.2
498(22) 0.002008 412.9 123.1
506(22) 0.001976 412.8 125.1
561(24) 0.001783 412.8 127.5
508(23) 0.001968 412.7 130.0
540(23) 0.001852 412.7 132.7
593(24) 0.001686 412.6 135.6
545(23) 0.001835 412.6 138.6
533(23) 0.001876 412.5 141.7
523(23) 0.001912 412.5 145.0
577(24) 0.001733 412.4 148.4
600(24) 0.001667 412.4 151.9
639(25) 0.001565 412.4 155.6
614(25) 0.001629 412.3 159.3
663(26) 0.001508 412.3 163.1
623(25) 0.001605 412.2 167.1
603(25) 0.001658 412.2 171.1
644(25) 0.001553 412.1 175.1
675(26) 0.001481 412.1 179.0
662(26) 0.001511 412.0 182.8
649(25) 0.001541 412.0 186.3
652(26) 0.001534 411.9 189.6
597(24) 0.001675 411.9 192.5
654(26) 0.001529 411.8 195.0
661(26) 0.001513 411.8 197.2
690(26) 0.001449 411.8 199.0
662(26) 0.001511 411.7 200.4
644(25) 0.001553 411.7 201.6
625(25) 0.001600 411.6 202.5
659(26) 0.001517 411.6 203.1
633(25) 0.001580 411.5 203.4
629(25) 0.001590 411.5 203.4
643(25) 0.001555 411.4 203.2
600(24) 0.001667 411.4 202.6
585(24) 0.001709 411.3 201.7
612(25) 0.001634 411.3 200.6
622(25) 0.001608 411.2 199.2
598(24) 0.001672 411.2 197.6
658(26) 0.001520 411.2 195.8
637(25) 0.001570 411.1 193.9
604(25) 0.001656 411.1 192.0
615(25) 0.001626 411.0 189.9
596(24) 0.001678 411.0 187.9
580(24) 0.001724 410.9 185.8
630(25) 0.001587 410.9 183.7
625(25) 0.001600 410.8 181.5
641(25) 0.001560 410.8 179.3
636(25) 0.001572 410.7 177.1
642(25) 0.001558 410.7 174.9
613(25) 0.001631 410.6 172.7
591(24) 0.001692 410.6 170.5
596(24) 0.001678 410.6 168.4
640(25) 0.001563 410.5 166.3
600(24) 0.001667 410.5 164.2
588(24) 0.001701 410.4 162.3
588(24) 0.001701 410.4 160.5
606(25) 0.001650 410.3 158.8
595(24) 0.001681 410.3 157.2
610(25) 0.001639 410.2 155.8
576(24) 0.001736 410.2 154.6
560(24) 0.001786 410.1 153.6
611(25) 0.001637 410.1 152.7
589(24) 0.001698 410.0 152.1
560(24) 0.001786 410.0 151.7
616(25) 0.001623 410.0 151.6
612(25) 0.001634 409.9 151.9
580(24) 0.001724 409.9 152.5
562(24) 0.001779 409.8 153.5
585(24) 0.001709 409.8 155.1
582(24) 0.001718 409.7 157.3
572(24) 0.001748 409.7 160.2
566(24) 0.001767 409.6 163.8
537(23) 0.001862 409.6 168.1
581(24) 0.001721 409.5 173.0
557(24) 0.001795 409.5 178.0
556(24) 0.001799 409.4 182.6
550(23) 0.001818 409.4 185.9
563(24) 0.001776 409.4 186.8
554(24) 0.001805 409.3 185.0
549(23) 0.001822 409.3 180.9
531(23) 0.001883 409.2 175.5
554(24) 0.001805 409.2 169.8
505(22) 0.001980 409.1 164.3
540(23) 0.001852 409.1 159.6
539(23) 0.001855 409.0 155.8
547(23) 0.001828 409.0 152.8
511(23) 0.001957 408.9 150.7
565(24) 0.001770 408.9 149.4
545(23) 0.001835 408.8 148.7
531(23) 0.001883 408.8 148.6
531(23) 0.001883 408.8 149.0
538(23) 0.001859 408.7 149.8
567(24) 0.001764 408.7 150.9
537(23) 0.001862 408.6 152.3
584(24) 0.001712 408.6 153.9
573(24) 0.001745 408.5 155.8
574(24) 0.001742 408.5 157.9
531(23) 0.001883 408.4 160.3
563(24) 0.001776 408.4 163.0
552(23) 0.001812 408.3 166.2
621(25) 0.001610 408.3 169.7
548(23) 0.001825 408.2 173.6
573(24) 0.001745 408.2 177.9
561(24) 0.001783 408.2 182.1
588(24) 0.001701 408.1 186.1
563(24) 0.001776 408.1 189.2
558(24) 0.001792 408.0 190.9
537(23) 0.001862 408.0 190.7
578(24) 0.001730 407.9 188.5
554(24) 0.001805 407.9 184.4
589(24) 0.001698 407.8 178.9
565(24) 0.001770 407.8 172.6
531(23) 0.001883 407.7 166.2
513(23) 0.001949 407.7 160.0
496(22) 0.002016 407.6 154.3
531(23) 0.001883 407.6 149.3
512(23) 0.001953 407.6 144.8
541(23) 0.001848 407.5 140.9
490(22) 0.002041 407.5 137.6
528(23) 0.001894 407.4 134.5
507(23) 0.001972 407.4 131.9
489(22) 0.002045 407.3 129.5
513(23) 0.001949 407.3 127.4
544(23) 0.001838 407.2 125.7
488(22) 0.002049 407.2 124.4
520(23) 0.001923 407.1 123.6
519(23) 0.001927 407.1 123.4
510(23) 0.001961 407.0 123.9
517(23) 0.001934 407.0 125.1
506(22) 0.001976 407.0 127.1
484(22) 0.002066 406.9 129.8
537(23) 0.001862 406.9 133.0
527(23) 0.001898 406.8 136.4
533(23) 0.001876 406.8 139.4
545(23) 0.001835 406.7 141.4
510(23) 0.001961 406.7 141.7
513(23) 0.001949 406.6 140.1
514(23) 0.001946 406.6 136.9
492(22) 0.002033 406.5 132.6
511(23) 0.001957 406.5 128.0
474(22) 0.002110 406.4 123.7
515(23) 0.001942 406.4 120.1
483(22) 0.002070 406.4 117.4
502(22) 0.001992 406.3 115.6
507(23) 0.001972 406.3 114.7
456(21) 0.002193 406.2 114.6
447(21) 0.002237 406.2 115.1
525(23) 0.001905 406.1 116.2
476(22) 0.002101 406.1 117.5
482(22) 0.002075 406.0 118.9
463(22) 0.002160 406.0 120.1
466(22) 0.002146 405.9 121.1
530(23) 0.001887 405.9 121.8
499(22) 0.002004 405.9 122.4
488(22) 0.002049 405.8 122.9
481(22) 0.002079 405.8 123.3
477(22) 0.002096 405.7 123.8
505(22) 0.001980 405.7 124.2
513(23) 0.001949 405.6 124.4
496(22) 0.002016 405.6 124.5
498(22) 0.002008 405.5 124.2
477(22) 0.002096 405.5 123.6
505(22) 0.001980 405.4 122.6
486(22) 0.002058 405.4 121.3
476(22) 0.002101 405.3 119.9
472(22) 0.002119 405.3 118.5
508(23) 0.001968 405.3 117.1
485(22) 0.002062 405.2 115.9
498(22) 0.002008 405.2 114.9
498(22) 0.002008 405.1 114.1
466(22) 0.002146 405.1 113.7
480(22) 0.002083 405.0 113.5
455(21) 0.002198 405.0 113.6
468(22) 0.002137 404.9 113.8
465(22) 0.002151 404.9 114.0
490(22) 0.002041 404.8 114.3
485(22) 0.002062 404.8 114.5
517(23) 0.001934 404.7 114.4
512(23) 0.001953 404.7 114.1
512(23) 0.001953 404.7 113.4
525(23) 0.001905 404.6 112.3
504(22) 0.001984 404.6 110.8
480(22) 0.002083 404.5 108.9
506(22) 0.001976 404.5 106.7
483(22) 0.002070 404.4 104.3
514(23) 0.001946 404.4 101.6
486(22) 0.002058 404.3 98.8
477(22) 0.002096 404.3 95.9
482(22) 0.002075 404.2 93.0
504(22) 0.001984 404.2 90.1
514(23) 0.001946 404.1 87.2
491(22) 0.002037 404.1 84.4
499(22) 0.002004 404.1 81.5
496(22) 0.002016 404.0 78.7
498(22) 0.002008 404.0 75.9
482(22) 0.002075 403.9 73.1
530(23) 0.001887 403.9 70.4
539(23) 0.001855 403.8 67.7
555(24) 0.001802 403.8 65.1
581(24) 0.001721 403.7 62.6
510(23) 0.001961 403.7 60.1
592(24) 0.001689 403.6 57.8
519(23) 0.001927 403.6 55.7
487(22) 0.002053 403.5 53.6
455(21) 0.002198 403.5 51.7
445(21) 0.002247 403.5 49.9
456(21) 0.002193 403.4 48.2
441(21) 0.002268 403.4 46.7
448(21) 0.002232 403.3 45.3
473(22) 0.002114 403.3 44.0
420(20) 0.002381 403.2 42.8
424(21) 0.002358 403.2 41.7
414(20) 0.002415 403.1 40.8
418(20) 0.002392 403.1 39.9
429(21) 0.002331 403.0 39.1
382(20) 0.002618 403.0 38.4
434(21) 0.002304 402.9 37.7
423(21) 0.002364 402.9 37.2
416(20) 0.002404 402.9 36.7
426(21) 0.002347 402.8 36.3
456(21) 0.002193 402.8 35.9
413(20) 0.002421 402.7 35.6
408(20) 0.002451 402.7 35.4
424(21) 0.002358 402.6 35.2
403(20) 0.002481 402.6 35.1
428(21) 0.002336 402.5 35.0
431(21) 0.002320 402.5 35.0
412(20) 0.002427 402.4 35.0
415(20) 0.002410 402.4 35.1
419(20) 0.002387 402.3 35.3
380(19) 0.002632 402.3 35.5
399(20) 0.002506 402.3 35.8
391(20) 0.002558 402.2 36.1
415(20) 0.002410 402.2 36.5
404(20) 0.002475 402.2 36.9
387(20) 0.002584 402.3 37.4
415(20) 0.002410 402.4 38.0
401(20) 0.002494 402.4 38.7
403(20) 0.002481 402.5 39.4
433(21) 0.002309 402.6 40.2
418(20) 0.002392 402.6 41.1
446(21) 0.002242 402.7 42.0
414(20) 0.002415 402.7 43.1
411(20) 0.002433 402.8 44.2
432(21) 0.002315 402.9 45.3
431(21) 0.002320 402.9 46.6
429(21) 0.002331 403.0 47.9
464(22) 0.002155 403.0 49.3
440(21) 0.002273 403.1 50.7
458(21) 0.002183 403.2 52.2
475(22) 0.002105 403.2 53.7
432(21) 0.002315 403.3 55.2
477(22) 0.002096 403.3 56.8
451(21) 0.002217 403.4 58.3
421(21) 0.002375 403.5 59.7
484(22) 0.002066 403.5 61.2
458(21) 0.002183 403.6 62.6
472(22) 0.002119 403.7 63.9
492(22) 0.002033 403.7 65.2
561(24) 0.001783 403.8 66.5
522(23) 0.001916 403.8 67.8
488(22) 0.002049 403.9 69.1
536(23) 0.001866 404.0 70.5
515(23) 0.001942 404.0 72.0
508(23) 0.001968 404.1 73.5
518(23) 0.001931 404.1 75.2
534(23) 0.001873 404.2 77.0
516(23) 0.001938 404.3 78.9
510(23) 0.001961 404.3 80.9
541(23) 0.001848 404.4 83.1
515(23) 0.001942 404.5 85.4
532(23) 0.001880 404.5 87.8
536(23) 0.001866 404.6 90.3
506(22) 0.001976 404.6 92.8
540(23) 0.001852 404.7 95.3
530(23) 0.001887 404.8 97.8
537(23) 0.001862 404.8 100.2
504(22) 0.001984 404.9 102.5
543(23) 0.001842 404.9 104.5
542(23) 0.001845 405.0 106.3
510(23) 0.001961 405.1 107.7
530(23) 0.001887 405.1 108.8
511(23) 0.001957 405.2 109.4
510(23) 0.001961 405.2 109.6
545(23) 0.001835 405.3 109.4
505(22) 0.001980 405.4 108.8
487(22) 0.002053 405.4 107.8
493(22) 0.002028 405.5 106.5
502(22) 0.001992 405.6 104.9
528(23) 0.001894 405.6 103.1
479(22) 0.002088 405.7 101.2
485(22) 0.002062 405.7 99.1
468(22) 0.002137 405.8 97.0
491(22) 0.002037 405.9 94.9
490(22) 0.002041 405.9 92.8
494(22) 0.002024 406.0 90.8
474(22) 0.002110 406.0 88.9
462(21) 0.002164 406.1 87.1
487(22) 0.002053 406.2 85.4
478(22) 0.002092 406.2 83.8
459(21) 0.002179 406.3 82.3
484(22) 0.002066 406.4 81.0
479(22) 0.002088 406.4 79.7
480(22) 0.002083 406.5 78.6
458(21) 0.002183 406.5 77.6
461(21) 0.002169 406.6 76.6
481(22) 0.002079 406.7 75.8
471(22) 0.002123 406.7 75.0
435(21) 0.002299 406.8 74.2
443(21) 0.002257 406.8 73.5
456(21) 0.002193 406.9 72.8
450(21) 0.002222 407.0 72.2
463(22) 0.002160 407.0 71.6
418(20) 0.002392 407.1 70.9
454(21) 0.002203 407.1 70.3
440(21) 0.002273 407.2 69.7
440(21) 0.002273 407.3 69.0
408(20) 0.002451 407.3 68.4
438(21) 0.002283 407.4 67.8
463(22) 0.002160 407.5 67.1
474(22) 0.002110 407.5 66.4
418(20) 0.002392 407.6 65.8
468(22) 0.002137 407.6 65.1
469(22) 0.002132 407.7 64.4
409(20) 0.002445 407.8 63.7
460(21) 0.002174 407.8 63.0
434(21) 0.002304 407.9 62.4
480(22) 0.002083 407.9 61.8
451(21) 0.002217 408.0 61.2
408(20) 0.002451 408.1 60.6
458(21) 0.002183 408.1 60.1
445(21) 0.002247 408.2 59.6
418(20) 0.002392 408.3 59.1
430(21) 0.002326 408.3 58.8
457(21) 0.002188 408.4 58.5
458(21) 0.002183 408.4 58.3
432(21) 0.002315 408.5 58.2
445(21) 0.002247 408.6 58.2
468(22) 0.002137 408.6 58.4
443(21) 0.002257 408.7 58.6
444(21) 0.002252 408.7 59.1
418(20) 0.002392 408.8 59.7
432(21) 0.002315 408.9 60.5
445(21) 0.002247 408.9 61.4
422(21) 0.002370 409.0 62.7
423(21) 0.002364 409.0 64.2
451(21) 0.002217 409.1 66.1
461(21) 0.002169 409.2 68.4
478(22) 0.002092 409.2 71.1
449(21) 0.002227 409.3 74.2
434(21) 0.002304 409.4 77.9
468(22) 0.002137 409.4 82.0
473(22) 0.002114 409.5 86.3
445(21) 0.002247 409.5 90.5
476(22) 0.002101 409.6 94.3
457(21) 0.002188 409.7 97.3
499(22) 0.002004 409.7 99.1
506(22) 0.001976 409.8 99.7
459(21) 0.002179 409.8 99.5
458(21) 0.002183 409.9 98.8
460(21) 0.002174 410.0 98.1
446(21) 0.002242 410.0 97.4
490(22) 0.002041 410.1 97.1
512(23) 0.001953 410.2 97.1
498(22) 0.002008 410.2 97.3
474(22) 0.002110 410.3 97.8
484(22) 0.002066 410.3 98.4
457(21) 0.002188 410.4 99.0
497(22) 0.002012 410.5 99.7
503(22) 0.001988 410.5 100.3
466(22) 0.002146 410.6 100.8
453(21) 0.002208 410.6 101.1
458(21) 0.002183 410.7 101.3
478(22) 0.002092 410.8 101.1
485(22) 0.002062 410.8 100.8
472(22) 0.002119 410.9 100.1
457(21) 0.002188 410.9 99.1
474(22) 0.002110 411.0 97.8
471(22) 0.002123 411.1 96.2
492(22) 0.002033 411.1 94.4
500(22) 0.002000 411.2 92.5
450(21) 0.002222 411.3 90.6
480(22) 0.002083 411.3 88.7
470(22) 0.002128 411.4 86.9
463(22) 0.002160 411.4 85.4
497(22) 0.002012 411.5 84.2
463(22) 0.002160 411.6 83.4
481(22) 0.002079 411.6 83.1
465(22) 0.002151 411.7 83.3
491(22) 0.002037 411.7 84.0
453(21) 0.002208 411.8 85.2
482(22) 0.002075 411.9 87.0
477(22) 0.002096 411.9 89.3
464(22) 0.002155 412.0 92.1
493(22) 0.002028 412.1 95.1
540(23) 0.001852 412.1 98.2
492(22) 0.002033 412.2 101.1
481(22) 0.002079 412.2 103.4
482(22) 0.002075 412.3 104.9
507(23) 0.001972 412.4 105.2
456(21) 0.002193 412.4 104.2
486(22) 0.002058 412.5 101.8
464(22) 0.002155 412.5 98.3
497(22) 0.002012 412.6 94.0
507(23) 0.001972 412.7 89.2
451(21) 0.002217 412.7 84.1
474(22) 0.002110 412.8 79.2
459(21) 0.002179 412.8 74.4
443(21) 0.002257 412.9 70.0
440(21) 0.002273 413.0 66.0
420(20) 0.002381 413.0 62.4
445(21) 0.002247 413.1 59.2
394(20) 0.002538 413.2 56.4
405(20) 0.002469 413.2 54.0
418(20) 0.002392 413.3 51.9
436(21) 0.002294 413.3 50.1
437(21) 0.002288 413.4 48.5
446(21) 0.002242 413.5 47.2
426(21) 0.002347 413.5 46.2
437(21) 0.002288 413.6 45.3
412(20) 0.002427 413.6 44.6
429(21) 0.002331 413.6 44.0
420(20) 0.002381 413.6 43.6
415(20) 0.002410 413.5 43.3
426(21) 0.002347 413.5 43.2
423(21) 0.002364 413.5 43.2
443(21) 0.002257 413.4 43.3
420(20) 0.002381 413.4 43.5
455(21) 0.002198 413.3 43.9
438(21) 0.002283 413.3 44.4
398(20) 0.002513 413.2 45.1
427(21) 0.002342 413.2 45.9
407(20) 0.002457 413.1 47.0
450(21) 0.002222 413.1 48.3
444(21) 0.002252 413.1 49.8
434(21) 0.002304 413.0 51.7
421(21) 0.002375 413.0 53.8
412(20) 0.002427 412.9 56.3
446(21) 0.002242 412.9 59.0
462(21) 0.002164 412.8 62.1
428(21) 0.002336 412.8 65.4
454(21) 0.002203 412.7 68.8
436(21) 0.002294 412.7 72.0
450(21) 0.002222 412.7 74.8
457(21) 0.002188 412.6 76.9
465(22) 0.002151 412.6 77.9
458(21) 0.002183 412.5 77.9
464(22) 0.002155 412.5 77.1
495(22) 0.002020 412.4 75.6
448(21) 0.002232 412.4 73.8
445(21) 0.002247 412.3 72.0
472(22) 0.002119 412.3 70.4
422(21) 0.002370 412.3 69.1
451(21) 0.002217 412.2 68.1
477(22) 0.002096 412.2 67.5
457(21) 0.002188 412.1 67.2
481(22) 0.002079 412.1 67.3
492(22) 0.002033 412.0 67.7
470(22) 0.002128 412.0 68.4
467(22) 0.002141 411.9 69.4
470(22) 0.002128 411.9 70.6
476(22) 0.002101 411.9 72.0
460(21) 0.002174 411.8 73.7
495(22) 0.002020 411.8 75.6
513(23) 0.001949 411.7 77.7
494(22) 0.002024 411.7 79.9
469(22) 0.002132 411.6 82.3
509(23) 0.001965 411.6 84.8
492(22) 0.002033 411.6 87.4
475(22) 0.002105 411.5 90.0
484(22) 0.002066 411.5 92.6
533(23) 0.001876 411.4 95.1
475(22) 0.002105 411.4 97.5
505(22) 0.001980 411.3 99.6
494(22) 0.002024 411.3 101.5
485(22) 0.002062 411.2 103.0
496(22) 0.002016 411.2 104.3
559(24) 0.001789 411.2 105.3
524(23) 0.001908 411.1 106.2
521(23) 0.001919 411.1 106.9
518(23) 0.001931 411.0 107.6
533(23) 0.001876 411.0 108.2
542(23) 0.001845 410.9 108.8
541(23) 0.001848 410.9 109.3
579(24) 0.001727 410.8 109.9
515(23) 0.001942 410.8 110.4
537(23) 0.001862 410.8 110.8
526(23) 0.001901 410.7 111.2
558(24) 0.001792 410.7 111.5
501(22) 0.001996 410.6 111.7
532(23) 0.001880 410.6 111.8
543(23) 0.001842 410.5 111.8
543(23) 0.001842 410.5 111.7
523(23) 0.001912 410.4 111.4
514(23) 0.001946 410.4 110.9
533(23) 0.001876 410.4 110.3
571(24) 0.001751 410.3 109.6
536(23) 0.001866 410.3 108.7
522(23) 0.001916 410.2 107.7
524(23) 0.001908 410.2 106.5
533(23) 0.001876 410.1 105.2
517(23) 0.001934 410.1 103.8
537(23) 0.001862 410.0 102.4
567(24) 0.001764 410.0 100.8
569(24) 0.001757 410.0 99.2
525(23) 0.001905 409.9 97.5
525(23) 0.001905 409.9 95.9
521(23) 0.001919 409.8 94.1
508(23) 0.001968 409.8 92.4
495(22) 0.002020 409.7 90.7
508(23) 0.001968 409.7 89.0
511(23) 0.001957 409.7 87.3
519(23) 0.001927 409.6 85.6
535(23) 0.001869 409.6 83.9
475(22) 0.002105 409.5 82.2
520(23) 0.001923 409.5 80.6
500(22) 0.002000 409.4 79.0
481(22) 0.002079 409.4 77.5
506(22) 0.001976 409.3 75.9
473(22) 0.002114 409.3 74.4
466(22) 0.002146 409.3 73.0
473(22) 0.002114 409.2 71.5
483(22) 0.002070 409.2 70.1
505(22) 0.001980 409.1 68.8
472(22) 0.002119 409.1 67.4
469(22) 0.002132 409.0 66.1
515(23) 0.001942 409.0 64.9
500(22) 0.002000 408.9 63.6
457(21) 0.002188 408.9 62.4
506(22) 0.001976 408.9 61.3
446(21) 0.002242 408.8 60.1
491(22) 0.002037 408.8 59.0
501(22) 0.001996 408.7 57.9
486(22) 0.002058 408.7 56.9
500(22) 0.002000 408.6 55.8
486(22) 0.002058 408.6 54.8
481(22) 0.002079 408.5 53.8
513(23) 0.001949 408.5 52.8
496(22) 0.002016 408.5 51.8
499(22) 0.002004 408.4 50.8
468(22) 0.002137 408.4 49.9
462(21) 0.002164 408.3 48.9
454(21) 0.002203 408.3 48.0
459(21) 0.002179 408.2 47.1
455(21) 0.002198 408.2 46.2
487(22) 0.002053 408.2 45.3
472(22) 0.002119 408.1 44.5
472(22) 0.002119 408.1 43.6
433(21) 0.002309 408.0 42.8
468(22) 0.002137 408.0 42.0
430(21) 0.002326 407.9 41.2
450(21) 0.002222 407.9 40.5
474(22) 0.002110 407.8 39.8
454(21) 0.002203 407.8 39.1
453(21) 0.002208 407.8 38.4
456(21) 0.002193 407.7 37.8
482(22) 0.002075 407.7 37.2
473(22) 0.002114 407.6 36.6
474(22) 0.002110 407.6 36.0
441(21) 0.002268 407.5 35.5
474(22) 0.002110 407.5 35.0
463(22) 0.002160 407.4 34.5
445(21) 0.002247 407.4 34.1
428(21) 0.002336 407.4 33.7
486(22) 0.002058 407.3 33.3
451(21) 0.002217 407.3 33.0
421(21) 0.002375 407.2 32.6
440(21) 0.002273 407.2 32.3
467(22) 0.002141 407.1 32.1
495(22) 0.002020 407.1 31.9
483(22) 0.002070 407.0 31.7
494(22) 0.002024 407.0 31.5
439(21) 0.002278 407.0 31.3
450(21) 0.002222 406.9 31.2
437(21) 0.002288 406.9 31.1
465(22) 0.002151 406.8 31.1
486(22) 0.002058 406.8 31.1
478(22) 0.002092 406.7 31.1
464(22) 0.002155 406.7 31.1
444(21) 0.002252 406.6 31.2
466(22) 0.002146 406.6 31.2
435(21) 0.002299 406.6 31.4
468(22) 0.002137 406.5 31.5
441(21) 0.002268 406.5 31.7
507(23) 0.001972 406.4 32.0
530(23) 0.001887 406.4 32.2
495(22) 0.002020 406.3 32.5
503(22) 0.001988 406.3 32.9
479(22) 0.002088 406.3 33.3
499(22) 0.002004 406.2 33.7
511(23) 0.001957 406.2 34.2
541(23) 0.001848 406.1 34.7
498(22) 0.002008 406.1 35.3
557(24) 0.001795 406.0 36.0
560(24) 0.001786 406.0 36.7
500(22) 0.002000 405.9 37.5
522(23) 0.0 0.0 .
548(23) 0.0 0.0 .
559(24) 0.0 0.0 .
534(23) 0.0 0.0 .
593(24) 0.0 0.0 .
575(24) 0.0 0.0 .
626(25) 0.0 0.0 .
637(25) 0.0 0.0 .
597(24) 0.0 0.0 .
598(24) 0.0 0.0 .
602(25) 0.0 0.0 .
632(25) 0.0 0.0 .
640(25) 0.0 0.0 .
651(26) 0.0 0.0 .
603(25) 0.0 0.0 .
647(25) 0.0 0.0 .
636(25) 0.0 0.0 .
655(26) 0.0 0.0 .
647(25) 0.0 0.0 .
653(26) 0.0 0.0 .
691(26) 0.0 0.0 .
694(26) 0.0 0.0 .
684(26) 0.0 0.0 .
724(27) 0.0 0.0 .
748(27) 0.0 0.0 .
760(28) 0.0 0.0 .
729(27) 0.0 0.0 .
810(28) 0.0 0.0 .
831(29) 0.0 0.0 .
839(29) 0.0 0.0 .
867(29) 0.0 0.0 .
903(30) 0.0 0.0 .
912(30) 0.0 0.0 .
938(31) 0.0 0.0 .
935(31) 0.0 0.0 .
993(32) 0.0 0.0 .
1079(33) 0.0 0.0 .
1023(32) 0.0 0.0 .
1128(34) 0.0 0.0 .
1138(34) 0.0 0.0 .
1190(34) 0.0 0.0 .
1250(35) 0.0 0. .
1310(36) 0.0 0. .
1420(38) 0.0 0. .
1453(38) 0.0 0. .
1549(39) 0.0 0. .
1701(41) 0.0 0. .
1773(42) 0.0 0. .
1838(43) 0.0 0. .
2077(46) 0.0 0. .
2163(47) 0.0 0. .
2355(49) 0.0 0. .
2539(50) 0.0 0. .
2877(54) 0.0 0. .
3110(56) 0.0 0. .
3526(59) 0.0 0. .
3954(63) 0.0 0. .
4361(66) 0.0 0. .
5113(72) 0.0 0. .
5706(76) 0.0 0. .
6543(81) 0.0 0. .
7859(89) 0.0 0. .
9182(96) 0.0 0. .
10830(100) 0.0 0. .
13080(110) 0.0 0. .
16180(130) 0.0 0. .
20200(140) 0.0 0. .
25210(160) 0.0 0. .
32760(180) 0.0 0. .
42910(210) 0.0 0. .
56800(240) 0.0 0. .
76020(280) 0.0 0. .
97340(310) 0.0 0. .
119210(350) 0.0 0. .
131740(360) 0.0 0. .
132680(360) 0.0 0. .
121060(350) 0.0 0. .
100810(320) 0.0 0. .
78060(280) 0.0 0. .
58790(240) 0.0 0. .
44550(210) 0.0 0. .
33850(180) 0.0 0. .
26290(160) 0.0 0. .
20410(140) 0.0 0. .
16280(130) 0.0 0. .
13410(120) 0.0 0. .
10970(110) 0.0 0. .
9152(96) 0.0 0. .
7560(87) 0.0 0. .
6809(83) 0.0 0. .
5699(75) 0.0 0. .
4986(71) 0.0 0. .
4366(66) 0.0 0. .
3963(63) 0.0 0. .
3480(59) 0.0 0. .
3120(56) 0.0 0. .
2885(54) 0.0 0. .
2558(51) 0.0 0. .
2345(48) 0.0 0. .
2091(46) 0.0 0. .
1976(44) 0.0 0. .
1792(42) 0.0 0. .
1700(41) 0.0 0. .
1594(40) 0.0 0. .
1508(39) 0.0 0. .
1412(38) 0.0 0. .
1373(37) 0.0 0. .
1283(36) 0.0 0. .
1184(34) 0.0 0.0 .
1109(33) 0.0 0.0 .
1095(33) 0.0 0.0 .
1089(33) 0.0 0.0 .
1051(32) 0.0 0.0 .
1001(32) 0.0 0.0 .
961(31) 0.0 0.0 .
942(31) 0.0 0.0 .
903(30) 0.0 0.0 .
900(30) 0.0 0.0 .
839(29) 0.0 0.0 .
799(28) 0.0 0.0 .
800(28) 0.0 0.0 .
783(28) 0.0 0.0 .
770(28) 0.0 0.0 .
815(29) 0.0 0.0 .
772(28) 0.0 0.0 .
782(28) 0.0 0.0 .
741(27) 0.0 0.0 .
726(27) 0.0 0.0 .
749(27) 0.0 0.0 .
775(28) 0.0 0.0 .
711(27) 0.0 0.0 .
716(27) 0.0 0.0 .
712(27) 0.0 0.0 .
757(28) 0.0 0.0 .
732(27) 0.0 0.0 .
705(27) 0.0 0.0 .
666(26) 0.0 0.0 .
676(26) 0.0 0.0 .
639(25) 0.0 0.0 .
668(26) 0.0 0.0 .
655(26) 0.0 0.0 .
696(26) 0.0 0.0 .
675(26) 0.0 0.0 .
685(26) 0.0 0.0 .
664(26) 0.0 0.0 .
644(25) 0.0 0.0 .
640(25) 0.0 0.0 .
625(25) 0.0 0.0 .
634(25) 0.0 0.0 .
598(24) 0.0 0.0 .
621(25) 0.0 0.0 .
617(25) 0.0 0.0 .
630(25) 0.0 0.0 .
601(25) 0.0 0.0 .
564(24) 0.0 0.0 .
567(24) 0.0 0.0 .
619(25) 0.0 0.0 .
599(24) 0.0 0.0 .
602(25) 0.0 0.0 .
579(24) 0.0 0.0 .
563(24) 0.0 0.0 .
551(23) 0.0 0.0 .
555(24) 0.0 0.0 .
557(24) 0.0 0.0 .
602(25) 0.0 0.0 .
577(24) 0.0 0.0 .
539(23) 0.0 0.0 .
550(23) 0.0 0.0 .
542(23) 0.0 0.0 .
578(24) 0.0 0.0 .
563(24) 0.0 0.0 .
580(24) 0.0 0.0 .
594(24) 0.0 0.0 .
566(24) 0.0 0.0 .
554(24) 0.0 0.0 .
565(24) 0.0 0.0 .
577(24) 0.0 0.0 .
595(24) 0.0 0.0 .
565(24) 0.0 0.0 .
564(24) 0.0 0.0 .
549(23) 0.0 0.0 .
550(23) 0.0 0.0 .
528(23) 0.0 0.0 .
547(23) 0.0 0.0 .
516(23) 0.0 0.0 .
568(24) 0.0 0.0 .
503(22) 0.0 0.0 .
500(22) 0.0 0.0 .
499(22) 0.0 0.0 .
478(22) 0.0 0.0 .
522(23) 0.0 0.0 .
525(23) 0.0 0.0 .
515(23) 0.0 0.0 .
492(22) 0.0 0.0 .
497(22) 0.0 0.0 .
479(22) 0.0 0.0 .
529(23) 0.0 0.0 .
494(22) 0.0 0.0 .
498(22) 0.0 0.0 .
489(22) 0.0 0.0 .
509(23) 0.0 0.0 .
517(23) 0.0 0.0 .
499(22) 0.0 0.0 .
481(22) 0.0 0.0 .
512(23) 0.0 0.0 .
467(22) 0.0 0.0 .
447(21) 0.0 0.0 .
480(22) 0.0 0.0 .
475(22) 0.0 0.0 .
481(22) 0.0 0.0 .
464(22) 0.0 0.0 .
487(22) 0.0 0.0 .
475(22) 0.0 0.0 .
491(22) 0.0 0.0 .
504(22) 0.0 0.0 .
515(23) 0.0 0.0 .
485(22) 0.0 0.0 .
517(23) 0.0 0.0 .
500(22) 0.0 0.0 .
467(22) 0.0 0.0 .
505(22) 0.0 0.0 .
514(23) 0.0 0.0 .
522(23) 0.0 0.0 .
511(23) 0.0 0.0 .
555(24) 0.0 0.0 .
558(24) 0.0 0.0 .
516(23) 0.0 0.0 .
548(23) 0.0 0.0 .
536(23) 0.0 0.0 .
537(23) 0.0 0.0 .
557(24) 0.0 0.0 .
551(23) 0.0 0.0 .
515(23) 0.0 0.0 .
512(23) 0.0 0.0 .
471(22) 0.0 0.0 .
524(23) 0.0 0.0 .
539(23) 0.0 0.0 .
531(23) 0.0 0.0 .
531(23) 0.0 0.0 .
526(23) 0.0 0.0 .
504(22) 0.0 0.0 .
533(23) 0.0 0.0 .
519(23) 0.0 0.0 .
493(22) 0.0 0.0 .
458(21) 0.0 0.0 .
476(22) 0.0 0.0 .
466(22) 0.0 0.0 .
449(21) 0.0 0.0 .
447(21) 0.0 0.0 .
450(21) 0.0 0.0 .
407(20) 0.0 0.0 .
446(21) 0.0 0.0 .
464(22) 0.0 0.0 .
430(21) 0.0 0.0 .
439(21) 0.0 0.0 .
420(20) 0.002381 394.6 59.7
452(21) 0.002212 394.6 59.3
463(22) 0.002160 394.6 59.1
460(21) 0.002174 394.5 59.2
449(21) 0.002227 394.5 59.5
430(21) 0.002326 394.4 60.1
482(22) 0.002075 394.4 61.0
454(21) 0.002203 394.3 62.2
498(22) 0.002008 394.3 63.5
484(22) 0.002066 394.2 65.1
442(21) 0.002262 394.2 66.8
456(21) 0.002193 394.2 68.7
429(21) 0.002331 394.1 70.7
460(21) 0.002174 394.1 72.6
467(22) 0.002141 394.0 74.5
435(21) 0.002299 394.0 76.1
443(21) 0.002257 393.9 77.4
495(22) 0.002020 393.9 78.3
464(22) 0.002155 393.8 78.7
455(21) 0.002198 393.8 78.6
466(22) 0.002146 393.8 78.0
446(21) 0.002242 393.7 77.0
435(21) 0.002299 393.7 75.7
455(21) 0.002198 393.6 74.2
446(21) 0.002242 393.6 72.5
426(21) 0.002347 393.5 70.7
435(21) 0.002299 393.5 68.9
444(21) 0.002252 393.4 67.1
425(21) 0.002353 393.4 65.4
429(21) 0.002331 393.4 63.6
433(21) 0.002309 393.3 62.0
448(21) 0.002232 393.3 60.4
429(21) 0.002331 393.2 58.9
394(20) 0.002538 393.2 57.5
423(21) 0.002364 393.1 56.2
439(21) 0.002278 393.1 54.9
420(20) 0.002381 393.0 53.8
427(21) 0.002342 393.0 52.7
404(20) 0.002475 393.0 51.6
390(20) 0.002564 392.9 50.5
429(21) 0.002331 392.9 49.5
435(21) 0.002299 392.8 48.5
397(20) 0.002519 392.8 47.6
382(20) 0.002618 392.7 46.6
441(21) 0.002268 392.7 45.8
398(20) 0.002513 392.7 45.0
380(19) 0.002632 392.6 44.3
380(19) 0.002632 392.6 43.6
403(20) 0.002481 392.5 43.1
405(20) 0.002469 392.5 42.6
389(20) 0.002571 392.4 42.2
406(20) 0.002463 392.4 41.9
429(21) 0.002331 392.3 41.7
433(21) 0.002309 392.3 41.5
408(20) 0.002451 392.3 41.4
439(21) 0.002278 392.2 41.4
376(19) 0.002660 392.2 41.4
414(20) 0.002415 392.1 41.5
402(20) 0.002488 392.1 41.7
403(20) 0.002481 392.0 41.9
397(20) 0.002519 392.0 42.2
348(19) 0.002874 391.9 42.6
393(20) 0.002545 391.8 43.1
408(20) 0.002451 391.8 43.6
412(20) 0.002427 391.7 44.2
393(20) 0.002545 391.6 44.8
389(20) 0.002571 391.6 45.6
399(20) 0.002506 391.5 46.4
386(20) 0.002591 391.4 47.3
420(20) 0.002381 391.4 48.3
397(20) 0.002519 391.3 49.3
382(20) 0.002618 391.2 50.3
423(21) 0.002364 391.2 51.4
403(20) 0.002481 391.1 52.6
401(20) 0.002494 391.0 53.9
406(20) 0.002463 391.0 55.2
399(20) 0.002506 390.9 56.7
412(20) 0.002427 390.8 58.4
424(21) 0.002358 390.8 60.4
412(20) 0.002427 390.7 62.6
434(21) 0.002304 390.6 65.2
416(20) 0.002404 390.6 68.2
456(21) 0.002193 390.5 71.6
443(21) 0.002257 390.4 75.4
475(22) 0.002105 390.3 79.8
495(22) 0.002020 390.3 84.7
490(22) 0.002041 390.2 90.2
507(23) 0.001972 390.1 96.1
452(21) 0.002212 390.1 102.4
530(23) 0.001887 390.0 108.9
568(24) 0.001761 389.9 115.4
555(24) 0.001802 389.9 121.6
608(25) 0.001645 389.8 127.0
534(23) 0.001873 389.7 131.3
550(23) 0.001818 389.7 134.0
544(23) 0.001838 389.6 134.8
541(23) 0.001848 389.5 133.7
510(23) 0.001961 389.5 130.9
524(23) 0.001908 389.4 126.6
501(22) 0.001996 389.3 121.2
495(22) 0.002020 389.3 115.3
456(21) 0.002193 389.2 109.2
452(21) 0.002212 389.1 103.2
475(22) 0.002105 389.1 97.5
462(21) 0.002164 389.0 92.2
453(21) 0.002208 388.9 87.4
477(22) 0.002096 388.8 83.2
451(21) 0.002217 388.8 79.5
456(21) 0.002193 388.7 76.3
481(22) 0.002079 388.6 73.6
428(21) 0.002336 388.6 71.4
451(21) 0.002217 388.5 69.6
469(22) 0.002132 388.4 68.2
459(21) 0.002179 388.4 67.2
406(20) 0.002463 388.3 66.4
499(22) 0.002004 388.2 65.9
414(20) 0.002415 388.2 65.6
467(22) 0.002141 388.1 65.6
451(21) 0.002217 388.0 65.7
469(22) 0.002132 388.0 66.0
471(22) 0.002123 387.9 66.5
452(21) 0.002212 387.8 67.1
462(21) 0.002164 387.8 67.9
467(22) 0.002141 387.7 68.8
471(22) 0.002123 387.6 69.8
450(21) 0.002222 387.6 71.0
488(22) 0.002049 387.5 72.2
491(22) 0.002037 387.4 73.6
476(22) 0.002101 387.4 75.0
501(22) 0.001996 387.3 76.5
506(22) 0.001976 387.2 78.0
495(22) 0.002020 387.1 79.5
498(22) 0.002008 387.1 81.0
477(22) 0.002096 387.0 82.4
478(22) 0.002092 386.9 83.8
490(22) 0.002041 386.9 85.1
499(22) 0.002004 386.8 86.2
530(23) 0.001887 386.7 87.2
521(23) 0.001919 386.7 88.0
508(23) 0.001968 386.6 88.6
532(23) 0.001880 386.5 89.0
475(22) 0.002105 386.5 89.1
480(22) 0.002083 386.4 89.2
472(22) 0.002119 386.3 89.0
498(22) 0.002008 386.3 88.8
459(21) 0.002179 386.2 88.4
488(22) 0.002049 386.1 88.1
448(21) 0.002232 386.1 87.8
473(22) 0.002114 386.0 87.5
499(22) 0.002004 385.9 87.4
474(22) 0.002110 385.9 87.4
477(22) 0.002096 385.8 87.5
468(22) 0.002137 385.7 87.9
476(22) 0.002101 385.6 88.5
487(22) 0.002053 385.6 89.4
501(22) 0.001996 385.5 90.5
457(21) 0.002188 385.4 92.0
470(22) 0.002128 385.4 93.7
504(22) 0.001984 385.3 95.7
487(22) 0.002053 385.2 98.0
473(22) 0.002114 385.2 100.6
471(22) 0.002123 385.1 103.5
550(23) 0.001818 385.0 106.6
535(23) 0.001869 385.0 109.9
501(22) 0.001996 384.9 113.3
514(23) 0.001946 384.8 116.8
520(23) 0.001923 384.8 120.2
549(23) 0.001822 384.7 123.4
565(24) 0.001770 384.6 126.3
553(24) 0.001808 384.6 128.8
533(23) 0.001876 384.5 130.7
579(24) 0.001727 384.4 132.1
593(24) 0.001686 384.4 133.1
570(24) 0.001754 384.3 133.7
564(24) 0.001773 384.2 134.0
527(23) 0.001898 384.2 134.2
613(25) 0.001631 384.1 134.5
587(24) 0.001704 384.0 134.9
551(23) 0.001815 383.9 135.6
613(25) 0.001631 383.9 136.6
544(23) 0.001838 383.8 138.0
571(24) 0.001751 383.7 139.8
516(23) 0.001938 383.7 142.1
599(24) 0.001669 383.6 144.8
569(24) 0.001757 383.5 148.0
601(25) 0.001664 383.5 151.4
615(25) 0.001626 383.4 155.1
616(25) 0.001623 383.3 158.9
605(25) 0.001653 383.3 162.6
619(25) 0.001616 383.2 166.1
574(24) 0.001742 383.1 169.2
609(25) 0.001642 383.1 171.9
595(24) 0.001681 383.0 173.8
611(25) 0.001637 382.9 175.2
556(24) 0.001799 382.9 175.9
558(24) 0.001792 382.8 176.0
594(24) 0.001684 382.7 175.6
609(25) 0.001642 382.7 174.8
552(23) 0.001812 382.6 173.7
588(24) 0.001701 382.5 172.4
613(25) 0.001631 382.4 170.9
565(24) 0.001770 382.4 169.3
570(24) 0.001754 382.3 167.6
574(24) 0.001742 382.2 165.9
598(24) 0.001672 382.2 164.3
624(25) 0.001603 382.1 162.8
558(24) 0.001792 382.0 161.4
571(24) 0.001751 382.0 160.2
524(23) 0.001908 381.9 159.1
549(23) 0.001822 381.8 158.2
543(23) 0.001842 381.8 157.5
580(24) 0.001724 381.7 157.0
588(24) 0.001701 381.6 156.7
600(24) 0.001667 381.6 156.5
576(24) 0.001736 381.5 156.4
586(24) 0.001706 381.4 156.5
557(24) 0.001795 381.4 156.7
536(23) 0.001866 381.3 156.9
555(24) 0.001802 381.2 157.0
617(25) 0.001621 381.2 157.0
572(24) 0.001748 381.1 156.8
551(23) 0.001815 381.0 156.3
572(24) 0.001748 380.9 155.4
582(24) 0.001718 380.9 154.0
577(24) 0.001733 380.8 152.1
581(24) 0.001721 380.7 149.9
597(24) 0.001675 380.7 147.2
604(25) 0.001656 380.6 144.2
573(24) 0.001745 380.5 141.1
575(24) 0.001739 380.5 137.9
586(24) 0.001706 380.4 134.7
573(24) 0.001745 380.3 131.7
582(24) 0.001718 380.3 128.8
568(24) 0.001761 380.2 126.1
578(24) 0.001730 380.1 123.5
547(23) 0.001828 380.1 121.1
561(24) 0.001783 380.0 118.9
546(23) 0.001832 379.9 117.0
520(23) 0.001923 379.9 115.3
504(22) 0.001984 379.8 113.8
538(23) 0.001859 379.7 112.6
548(23) 0.001825 379.7 111.7
568(24) 0.001761 379.6 111.0
553(24) 0.001808 379.5 110.6
550(23) 0.001818 379.5 110.3
543(23) 0.001842 379.4 110.3
588(24) 0.001701 379.3 110.5
564(24) 0.001773 379.2 110.8
568(24) 0.0 0.0 .
590(24) 0.0 0.0 .
577(24) 0.0 0.0 .
594(24) 0.0 0.0 .
632(25) 0.0 0.0 .
656(26) 0.0 0.0 .
654(26) 0.0 0.0 .
655(26) 0.0 0.0 .
661(26) 0.0 0.0 .
662(26) 0.0 0.0 .
754(27) 0.0 0.0 .
724(27) 0.0 0.0 .
783(28) 0.0 0.0 .
833(29) 0.0 0.0 .
848(29) 0.0 0.0 .
937(31) 0.0 0.0 .
933(31) 0.0 0.0 .
1105(33) 0.0 0.0 .
1185(34) 0.0 0.0 .
1234(35) 0.0 0. .
1399(37) 0.0 0. .
1600(40) 0.0 0. .
1787(42) 0.0 0. .
2107(46) 0.0 0. .
2481(50) 0.0 0. .
2937(54) 0.0 0. .
3664(61) 0.0 0. .
4579(68) 0.0 0. .
5756(76) 0.0 0. .
7340(86) 0.0 0. .
9252(96) 0.0 0. .
11830(110) 0.0 0. .
14580(120) 0.0 0. .
16500(130) 0.0 0. .
17140(130) 0.0 0. .
16330(130) 0.0 0. .
13790(120) 0.0 0. .
10690(100) 0.0 0. .
8647(93) 0.0 0. .
6556(81) 0.0 0. .
5062(71) 0.0 0. .
3874(62) 0.0 0. .
3260(57) 0.0 0. .
2617(51) 0.0 0. .
2209(47) 0.0 0. .
1872(43) 0.0 0. .
1596(40) 0.0 0. .
1414(38) 0.0 0. .
1271(36) 0.0 0. .
1148(34) 0.0 0.0 .
1007(32) 0.0 0.0 .
936(31) 0.0 0.0 .
876(30) 0.0 0.0 .
767(28) 0.0 0.0 .
761(28) 0.0 0.0 .
706(27) 0.0 0.0 .
675(26) 0.0 0.0 .
642(25) 0.0 0.0 .
607(25) 0.0 0.0 .
668(26) 0.0 0.0 .
626(25) 0.0 0.0 .
628(25) 0.0 0.0 .
613(25) 0.0 0.0 .
557(24) 0.0 0.0 .
582(24) 0.0 0.0 .
575(24) 0.0 0.0 .
563(24) 0.0 0.0 .
506(22) 0.0 0.0 .
553(24) 0.0 0.0 .
563(24) 0.0 0.0 .
564(24) 0.0 0.0 .
509(23) 0.0 0.0 .
516(23) 0.0 0.0 .
522(23) 0.0 0.0 .
531(23) 0.0 0.0 .
562(24) 0.0 0.0 .
497(22) 0.0 0.0 .
525(23) 0.0 0.0 .
500(22) 0.0 0.0 .
494(22) 0.0 0.0 .
520(23) 0.0 0.0 .
505(22) 0.0 0.0 .
497(22) 0.0 0.0 .
493(22) 0.0 0.0 .
523(23) 0.0 0.0 .
467(22) 0.0 0.0 .
477(22) 0.0 0.0 .
494(22) 0.0 0.0 .
444(21) 0.0 0.0 .
453(21) 0.0 0.0 .
476(22) 0.0 0.0 .
486(22) 0.0 0.0 .
479(22) 0.0 0.0 .
443(21) 0.0 0.0 .
466(22) 0.0 0.0 .
447(21) 0.0 0.0 .
432(21) 0.0 0.0 .
452(21) 0.0 0.0 .
467(22) 0.0 0.0 .
503(22) 0.0 0.0 .
454(21) 0.0 0.0 .
443(21) 0.0 0.0 .
480(22) 0.0 0.0 .
455(21) 0.0 0.0 .
406(20) 0.0 0.0 .
433(21) 0.0 0.0 .
404(20) 0.002475 372.0 63.5
426(21) 0.002347 371.9 63.8
431(21) 0.002320 371.8 64.2
426(21) 0.002347 371.8 64.7
457(21) 0.002188 371.7 65.3
438(21) 0.002283 371.6 65.9
432(21) 0.002315 371.6 66.7
443(21) 0.002257 371.5 67.5
452(21) 0.002212 371.4 68.3
457(21) 0.002188 371.3 69.2
420(20) 0.002381 371.3 70.0
413(20) 0.002421 371.2 70.9
445(21) 0.002247 371.1 71.7
418(20) 0.002392 371.1 72.5
446(21) 0.002242 371.0 73.1
463(22) 0.002160 370.9 73.7
415(20) 0.002410 370.9 74.2
444(21) 0.002252 370.8 74.5
416(20) 0.002404 370.7 74.8
414(20) 0.002415 370.7 74.9
406(20) 0.002463 370.6 74.9
443(21) 0.002257 370.5 74.8
450(21) 0.002222 370.5 74.7
446(21) 0.002242 370.4 74.5
470(22) 0.002128 370.3 74.2
405(20) 0.002469 370.3 74.0
453(21) 0.002208 370.2 73.8
404(20) 0.002475 370.1 73.7
443(21) 0.002257 370.1 73.6
433(21) 0.002309 370.0 73.6
460(21) 0.002174 369.9 73.7
423(21) 0.002364 369.8 73.8
440(21) 0.002273 369.8 74.1
440(21) 0.002273 369.7 74.6
418(20) 0.002392 369.6 75.1
420(20) 0.002381 369.6 75.8
461(21) 0.002169 369.5 76.7
442(21) 0.002262 369.4 77.7
394(20) 0.002538 369.4 78.8
452(21) 0.002212 369.3 80.2
421(21) 0.002375 369.2 81.7
426(21) 0.002347 369.2 83.4
433(21) 0.002309 369.1 85.2
465(22) 0.002151 369.0 87.3
478(22) 0.002092 369.0 89.6
467(22) 0.002141 368.9 92.0
476(22) 0.002101 368.8 94.7
494(22) 0.002024 368.8 97.6
456(21) 0.002193 368.7 100.6
483(22) 0.002070 368.6 103.8
467(22) 0.002141 368.6 107.2
463(22) 0.002160 368.5 110.7
485(22) 0.002062 368.4 114.4
509(23) 0.001965 368.3 118.1
511(23) 0.001957 368.3 121.8
473(22) 0.002114 368.2 125.5
542(23) 0.001845 368.1 129.0
514(23) 0.001946 368.1 132.4
515(23) 0.001942 368.0 135.5
548(23) 0.001825 367.9 138.3
558(24) 0.001792 367.9 140.7
526(23) 0.001901 367.8 142.7
539(23) 0.001855 367.7 144.2
551(23) 0.001815 367.7 145.3
577(24) 0.001733 367.6 145.8
552(23) 0.001812 367.5 145.9
551(23) 0.001815 367.5 145.6
525(23) 0.001905 367.4 144.9
556(24) 0.001799 367.3 143.8
530(23) 0.001887 367.3 142.4
563(24) 0.001776 367.2 140.6
522(23) 0.001916 367.1 138.7
524(23) 0.001908 367.1 136.4
531(23) 0.001883 367.0 134.0
504(22) 0.001984 366.9 131.4
524(23) 0.001908 366.9 128.6
519(23) 0.001927 366.8 125.7
539(23) 0.001855 366.7 122.7
532(23) 0.001880 366.6 119.7
515(23) 0.001942 366.6 116.6
490(22) 0.002041 366.5 113.6
512(23) 0.001953 366.4 110.7
484(22) 0.002066 366.4 107.9
481(22) 0.002079 366.3 105.2
492(22) 0.002033 366.2 102.8
468(22) 0.002137 366.2 100.6
488(22) 0.002049 366.1 98.6
447(21) 0.002237 366.0 96.9
494(22) 0.002024 366.0 95.6
474(22) 0.002110 365.9 94.6
453(21) 0.002208 365.8 94.0
460(21) 0.002174 365.8 93.8
497(22) 0.002012 365.7 94.2
461(21) 0.002169 365.6 95.0
434(21) 0.002304 365.6 96.3
473(22) 0.002114 365.5 98.2
463(22) 0.002160 365.4 100.7
475(22) 0.002105 365.4 103.9
471(22) 0.002123 365.3 107.6
486(22) 0.002058 365.2 111.9
470(22) 0.002128 365.1 116.8
486(22) 0.002058 365.1 122.1
493(22) 0.002028 365.0 127.8
494(22) 0.002024 364.9 133.7
521(23) 0.001919 364.9 139.5
485(22) 0.002062 364.8 145.0
554(24) 0.001805 364.7 149.7
498(22) 0.002008 364.7 153.2
460(21) 0.002174 364.6 155.0
473(22) 0.002114 364.5 154.9
460(21) 0.002174 364.5 152.6
502(22) 0.001992 364.4 148.4
467(22) 0.002141 364.3 142.5
437(21) 0.002288 364.3 135.5
472(22) 0.002119 364.2 127.9
446(21) 0.002242 364.1 120.2
451(21) 0.002217 364.1 112.7
412(20) 0.002427 364.0 105.6
449(21) 0.002227 363.9 99.2
435(21) 0.002299 363.9 93.4
432(21) 0.002315 363.8 88.2
428(21) 0.002336 363.7 83.6
439(21) 0.002278 363.6 79.6
445(21) 0.002247 363.6 76.2
425(21) 0.002353 363.5 73.2
440(21) 0.002273 363.4 70.6
446(21) 0.002242 363.4 68.4
445(21) 0.002247 363.3 66.5
447(21) 0.002237 363.2 64.9
443(21) 0.002257 363.2 63.4
408(20) 0.002451 363.1 62.2
401(20) 0.002494 363.0 61.1
446(21) 0.002242 363.0 60.1
406(20) 0.002463 362.9 59.2
415(20) 0.002410 362.8 58.5
398(20) 0.002513 362.8 57.8
386(20) 0.002591 362.7 57.2
404(20) 0.002475 362.6 56.6
410(20) 0.002439 362.6 56.2
404(20) 0.002475 362.5 55.8
397(20) 0.002519 362.4 55.5
403(20) 0.002481 362.4 55.2
413(20) 0.002421 362.3 55.1
396(20) 0.002525 362.2 55.0
426(21) 0.002347 362.2 55.0
412(20) 0.002427 362.1 55.1
410(20) 0.002439 362.0 55.2
427(21) 0.002342 361.9 55.5
416(20) 0.002404 361.9 55.8
395(20) 0.002532 361.8 56.3
398(20) 0.002513 361.7 56.8
434(21) 0.002304 361.7 57.4
409(20) 0.002445 361.6 58.2
394(20) 0.002538 361.5 59.1
396(20) 0.002525 361.5 60.1
418(20) 0.002392 361.4 61.3
411(20) 0.002433 361.3 62.6
374(19) 0.002674 361.3 64.1
413(20) 0.002421 361.2 65.8
426(21) 0.002347 361.1 67.8
435(21) 0.002299 361.1 70.0
401(20) 0.002494 361.0 72.5
430(21) 0.002326 360.9 75.2
422(21) 0.002370 360.9 78.3
423(21) 0.002364 360.8 81.8
446(21) 0.002242 360.7 85.5
421(21) 0.002375 360.7 89.6
460(21) 0.002174 360.6 94.0
471(22) 0.002123 360.5 98.7
458(21) 0.002183 360.4 103.7
444(21) 0.002252 360.4 108.7
495(22) 0.002020 360.3 113.9
502(22) 0.001992 360.2 118.9
482(22) 0.002075 360.2 123.7
493(22) 0.002028 360.1 128.0
484(22) 0.002066 360.0 131.8
519(23) 0.001927 360.0 134.9
504(22) 0.001984 359.9 137.1
526(23) 0.001901 359.8 138.4
477(22) 0.002096 359.8 138.8
517(23) 0.001934 359.7 138.3
522(23) 0.001916 359.6 136.9
464(22) 0.002155 359.6 134.7
507(23) 0.001972 359.5 131.8
439(21) 0.002278 359.4 128.2
478(22) 0.002092 359.4 124.0
491(22) 0.002037 359.3 119.4
472(22) 0.002119 359.2 114.3
434(21) 0.002304 359.2 109.1
440(21) 0.002273 359.1 103.6
441(21) 0.002268 359.0 98.2
442(21) 0.002262 359.0 92.9
441(21) 0.002268 358.9 87.7
436(21) 0.002294 358.8 82.8
421(21) 0.002375 358.7 78.2
420(20) 0.002381 358.7 73.9
404(20) 0.002475 358.6 69.9
406(20) 0.002463 358.5 66.2
409(20) 0.002445 358.5 62.9
417(20) 0.002398 358.4 59.8
398(20) 0.002513 358.3 57.0
363(19) 0.002755 358.3 54.6
395(20) 0.002532 358.2 52.3
396(20) 0.002525 358.1 50.3
388(20) 0.002577 358.1 48.6
396(20) 0.002525 358.0 47.0
380(19) 0.002632 357.9 45.6
375(19) 0.002667 357.9 44.3
366(19) 0.002732 357.8 43.3
388(20) 0.002577 357.7 42.3
396(20) 0.002525 357.7 41.5
375(19) 0.002667 357.6 40.9
400(20) 0.002500 357.5 40.3
348(19) 0.002874 357.5 39.9
344(19) 0.002907 357.4 39.5
370(19) 0.002703 357.3 39.3
356(19) 0.002809 357.2 39.1
394(20) 0.002538 357.2 39.1
346(19) 0.002890 357.1 39.1
385(20) 0.002597 357.0 39.2
388(20) 0.002577 357.0 39.4
363(19) 0.002755 356.9 39.7
361(19) 0.002770 356.9 40.1
362(19) 0.002762 357.0 40.5
399(20) 0.002506 357.1 41.1
376(19) 0.002660 357.2 41.6
372(19) 0.002688 357.3 42.3
388(20) 0.002577 357.3 43.0
357(19) 0.002801 357.4 43.7
374(19) 0.002674 357.5 44.4
402(20) 0.002488 357.6 45.2
387(20) 0.002584 357.7 45.9
396(20) 0.002525 357.7 46.5
334(18) 0.002994 357.8 47.1
391(20) 0.002558 357.9 47.6
366(19) 0.002732 358.0 48.0
387(20) 0.002584 358.1 48.2
393(20) 0.002545 358.1 48.4
394(20) 0.002538 358.2 48.5
355(19) 0.002817 358.3 48.4
364(19) 0.002747 358.4 48.4
369(19) 0.002710 358.4 48.2
376(19) 0.002660 358.5 48.1
377(19) 0.002653 358.6 47.9
413(20) 0.002421 358.7 47.8
399(20) 0.002506 358.8 47.7
360(19) 0.002778 358.8 47.6
411(20) 0.002433 358.9 47.6
363(19) 0.002755 359.0 47.6
396(20) 0.002525 359.1 47.7
385(20) 0.002597 359.2 47.7
358(19) 0.002793 359.2 47.8
375(19) 0.002667 359.3 47.8
369(19) 0.002710 359.4 47.9
390(20) 0.002564 359.5 47.9
356(19) 0.002809 359.6 48.0
361(19) 0.002770 359.6 48.0
379(19) 0.002639 359.7 48.1
396(20) 0.002525 359.8 48.2
391(20) 0.002558 359.9 48.4
369(19) 0.002710 359.9 48.6
371(19) 0.002695 360.0 48.8
382(20) 0.002618 360.1 49.1
373(19) 0.002681 360.2 49.5
371(19) 0.002695 360.3 50.0
376(19) 0.002660 360.3 50.5
409(20) 0.002445 360.4 51.0
400(20) 0.002500 360.5 51.6
400(20) 0.002500 360.6 52.3
393(20) 0.002545 360.7 53.0
426(21) 0.002347 360.7 53.7
379(19) 0.002639 360.8 54.5
403(20) 0.002481 360.9 55.4
400(20) 0.002500 361.0 56.2
381(20) 0.002625 361.0 57.1
382(20) 0.002618 361.1 58.0
398(20) 0.002513 361.2 58.9
400(20) 0.002500 361.3 59.8
418(20) 0.002392 361.4 60.8
370(19) 0.002703 361.4 61.7
377(19) 0.002653 361.5 62.6
408(20) 0.002451 361.6 63.4
414(20) 0.002415 361.7 64.3
405(20) 0.002469 361.8 65.1
436(21) 0.002294 361.8 65.8
414(20) 0.002415 361.9 66.5
371(19) 0.002695 362.0 67.1
415(20) 0.002410 362.1 67.7
385(20) 0.002597 362.2 68.1
422(21) 0.002370 362.2 68.5
417(20) 0.002398 362.3 68.8
396(20) 0.002525 362.4 69.0
424(21) 0.002358 362.5 69.1
388(20) 0.002577 362.5 69.1
434(21) 0.002304 362.6 69.1
444(21) 0.002252 362.7 68.9
391(20) 0.002558 362.8 68.7
391(20) 0.002558 362.9 68.5
385(20) 0.002597 362.9 68.2
388(20) 0.002577 363.0 67.8
391(20) 0.002558 363.1 67.4
389(20) 0.002571 363.2 67.0
408(20) 0.002451 363.3 66.6
399(20) 0.002506 363.3 66.2
385(20) 0.002597 363.4 65.8
402(20) 0.002488 363.5 65.5
402(20) 0.002488 363.6 65.2
384(20) 0.002604 363.6 64.9
409(20) 0.002445 363.7 64.7
431(21) 0.002320 363.8 64.5
408(20) 0.002451 363.9 64.5
421(21) 0.002375 364.0 64.5
387(20) 0.002584 364.0 64.6
393(20) 0.002545 364.1 64.8
378(19) 0.002646 364.2 65.2
386(20) 0.002591 364.3 65.6
405(20) 0.002469 364.4 66.1
401(20) 0.002494 364.4 66.8
386(20) 0.002591 364.5 67.6
415(20) 0.002410 364.6 68.5
417(20) 0.002398 364.7 69.4
401(20) 0.002494 364.8 70.4
382(20) 0.002618 364.8 71.5
418(20) 0.002392 364.9 72.6
425(21) 0.002353 365.0 73.6
392(20) 0.002551 365.1 74.5
411(20) 0.002433 365.1 75.2
444(21) 0.002252 365.2 75.8
413(20) 0.002421 365.3 76.0
416(20) 0.002404 365.4 76.0
412(20) 0.002427 365.5 75.6
417(20) 0.002398 365.5 75.0
418(20) 0.002392 365.6 74.0
399(20) 0.002506 365.7 72.9
427(21) 0.002342 365.8 71.5
416(20) 0.002404 365.9 70.0
400(20) 0.002500 365.9 68.5
414(20) 0.002415 366.0 66.9
380(19) 0.002632 366.1 65.4
378(19) 0.002646 366.2 63.9
378(19) 0.002646 366.2 62.4
411(20) 0.002433 366.3 61.1
409(20) 0.002445 366.4 59.8
411(20) 0.002433 366.5 58.6
384(20) 0.002604 366.6 57.6
414(20) 0.002415 366.6 56.6
386(20) 0.002591 366.7 55.7
396(20) 0.002525 366.8 55.0
400(20) 0.002500 366.9 54.3
395(20) 0.002532 367.0 53.7
406(20) 0.002463 367.0 53.2
394(20) 0.002538 367.1 52.8
367(19) 0.002725 367.2 52.4
372(19) 0.002688 367.3 52.2
391(20) 0.002558 367.4 52.0
382(20) 0.002618 367.4 51.9
406(20) 0.002463 367.5 51.8
391(20) 0.002558 367.6 51.8
391(20) 0.002558 367.7 51.9
345(19) 0.002899 367.7 52.1
390(20) 0.002564 367.8 52.3
370(19) 0.002703 367.9 52.5
412(20) 0.002427 368.0 52.8
397(20) 0.002519 368.1 53.2
377(19) 0.002653 368.1 53.6
369(19) 0.002710 368.2 54.1
410(20) 0.002439 368.3 54.6
373(19) 0.002681 368.4 55.2
392(20) 0.002551 368.5 55.8
397(20) 0.002519 368.5 56.5
391(20) 0.002558 368.6 57.2
411(20) 0.002433 368.7 57.9
403(20) 0.002481 368.8 58.7
431(21) 0.002320 368.9 59.5
415(20) 0.002410 368.9 60.3
383(20) 0.002611 369.0 61.1
405(20) 0.002469 369.1 61.9
393(20) 0.002545 369.2 62.7
396(20) 0.002525 369.2 63.5
421(21) 0.002375 369.3 64.2
416(20) 0.002404 369.4 64.8
395(20) 0.002532 369.5 65.4
401(20) 0.002494 369.6 65.9
405(20) 0.002469 369.6 66.2
409(20) 0.002445 369.7 66.5
420(20) 0.002381 369.8 66.6
428(21) 0.002336 369.9 66.5
421(21) 0.002375 370.0 66.3
416(20) 0.002404 370.0 65.9
429(21) 0.002331 370.1 65.4
415(20) 0.002410 370.2 64.7
430(21) 0.002326 370.3 63.9
405(20) 0.002469 370.3 63.0
390(20) 0.002564 370.4 62.0
435(21) 0.002299 370.5 60.9
403(20) 0.002481 370.6 59.7
411(20) 0.002433 370.7 58.5
399(20) 0.002506 370.7 57.3
375(19) 0.002667 370.8 56.1
394(20) 0.002538 370.9 54.8
378(19) 0.002646 371.0 53.6
399(20) 0.002506 371.1 52.4
382(20) 0.002618 371.1 51.2
400(20) 0.002500 371.2 50.1
393(20) 0.002545 371.3 49.0
405(20) 0.002469 371.4 47.9
368(19) 0.002717 371.5 46.9
374(19) 0.002674 371.5 46.0
374(19) 0.002674 371.6 45.1
370(19) 0.002703 371.7 44.3
382(20) 0.002618 371.8 43.5
404(20) 0.002475 371.8 42.7
395(20) 0.002532 371.9 42.1
367(19) 0.002725 372.0 41.4
373(19) 0.002681 372.1 40.9
356(19) 0.002809 372.2 40.3
387(20) 0.002584 372.2 39.9
376(19) 0.002660 372.3 39.5
382(20) 0.002618 372.4 39.1
387(20) 0.002584 372.5 38.8
385(20) 0.002597 372.6 38.5
409(20) 0.002445 372.6 38.2
393(20) 0.002545 372.7 38.0
358(19) 0.002793 372.8 37.9
378(19) 0.002646 372.9 37.7
353(19) 0.002833 372.9 37.7
368(19) 0.002717 372.9 37.6
415(20) 0.002410 373.0 37.6
407(20) 0.002457 373.0 37.5
404(20) 0.002475 373.1 37.6
342(18) 0.002924 373.1 37.6
398(20) 0.002513 373.1 37.6
363(19) 0.002755 373.2 37.7
421(21) 0.002375 373.2 37.8
381(20) 0.002625 373.3 37.9
387(20) 0.002584 373.3 37.9
365(19) 0.002740 373.3 38.0
414(20) 0.002415 373.4 38.1
402(20) 0.002488 373.4 38.2
397(20) 0.002519 373.5 38.3
400(20) 0.002500 373.5 38.4
370(19) 0.002703 373.5 38.5
400(20) 0.002500 373.6 38.6
377(19) 0.002653 373.6 38.7
434(21) 0.002304 373.6 38.8
383(20) 0.002611 373.7 38.8
374(19) 0.002674 373.7 38.9
378(19) 0.002646 373.8 39.0
389(20) 0.002571 373.8 39.1
383(20) 0.002611 373.8 39.2
391(20) 0.002558 373.9 39.3
378(19) 0.002646 373.9 39.4
343(19) 0.002915 374.0 39.5
406(20) 0.002463 374.0 39.6
389(20) 0.002571 374.0 39.7
399(20) 0.002506 374.1 39.8
417(20) 0.002398 374.1 39.9
364(19) 0.002747 374.2 40.1
383(20) 0.002611 374.2 40.2
361(19) 0.002770 374.2 40.4
413(20) 0.002421 374.3 40.6
385(20) 0.002597 374.3 40.8
384(20) 0.002604 374.4 41.0
391(20) 0.002558 374.4 41.2
377(19) 0.002653 374.4 41.5
417(20) 0.002398 374.5 41.7
388(20) 0.002577 374.5 42.0
402(20) 0.002488 374.6 42.3
397(20) 0.002519 374.6 42.6
377(19) 0.002653 374.6 42.9
376(19) 0.002660 374.7 43.2
374(19) 0.002674 374.7 43.6
406(20) 0.002463 374.8 44.0
394(20) 0.002538 374.8 44.5
402(20) 0.002488 374.8 44.9
389(20) 0.002571 374.9 45.4
379(19) 0.002639 374.9 45.9
372(19) 0.002688 375.0 46.4
400(20) 0.002500 375.0 47.0
406(20) 0.002463 375.0 47.5
379(19) 0.002639 375.1 48.1
370(19) 0.002703 375.1 48.7
376(19) 0.002660 375.1 49.2
401(20) 0.002494 375.2 49.8
403(20) 0.002481 375.2 50.4
417(20) 0.002398 375.3 51.0
393(20) 0.002545 375.3 51.5
392(20) 0.002551 375.3 52.1
393(20) 0.002545 375.4 52.7
396(20) 0.002525 375.4 53.3
389(20) 0.002571 375.5 53.8
392(20) 0.002551 375.5 54.4
398(20) 0.002513 375.5 54.9
387(20) 0.002584 375.6 55.5
424(21) 0.002358 375.6 56.0
337(18) 0.002967 375.7 56.6
433(21) 0.002309 375.7 57.1
408(20) 0.002451 375.7 57.6
385(20) 0.002597 375.8 58.2
395(20) 0.002532 375.8 58.7
412(20) 0.002427 375.9 59.3
398(20) 0.002513 375.9 59.8
403(20) 0.002481 375.9 60.4
427(21) 0.002342 376.0 61.0
393(20) 0.002545 376.0 61.7
437(21) 0.002288 376.1 62.4
427(21) 0.002342 376.1 63.2
425(21) 0.002353 376.1 64.2
403(20) 0.002481 376.2 65.2
400(20) 0.002500 376.2 66.4
417(20) 0.002398 376.3 67.7
421(21) 0.002375 376.3 69.3
411(20) 0.002433 376.3 71.0
442(21) 0.002262 376.4 73.0
436(21) 0.002294 376.4 75.3
400(20) 0.002500 376.4 77.7
405(20) 0.002469 376.5 80.5
400(20) 0.002500 376.5 83.4
438(21) 0.002283 376.6 86.5
471(22) 0.002123 376.6 89.7
450(21) 0.002222 376.6 92.9
476(22) 0.002101 376.7 95.8
439(21) 0.002278 376.7 98.3
443(21) 0.002257 376.8 100.2
475(22) 0.002105 376.8 101.3
444(21) 0.002252 376.8 101.5
425(21) 0.002353 376.9 101.0
414(20) 0.002415 376.9 99.9
425(21) 0.002353 377.0 98.2
421(21) 0.002375 377.0 96.1
458(21) 0.002183 377.0 93.9
403(20) 0.002481 377.1 91.6
433(21) 0.002309 377.1 89.3
386(20) 0.002591 377.2 87.0
374(19) 0.002674 377.2 84.8
404(20) 0.002475 377.2 82.7
393(20) 0.002545 377.3 80.8
398(20) 0.002513 377.3 79.0
405(20) 0.002469 377.4 77.4
397(20) 0.002519 377.4 75.9
408(20) 0.002451 377.4 74.5
412(20) 0.002427 377.5 73.3
426(21) 0.002347 377.5 72.2
397(20) 0.002519 377.6 71.3
414(20) 0.002415 377.6 70.4
388(20) 0.002577 377.6 69.6
420(20) 0.002381 377.7 68.8
443(21) 0.002257 377.7 68.1
409(20) 0.002445 377.8 67.5
404(20) 0.002475 377.8 66.9
396(20) 0.002525 377.8 66.4
404(20) 0.002475 377.9 65.9
428(21) 0.002336 377.9 65.5
401(20) 0.002494 377.9 65.2
386(20) 0.002591 378.0 64.9
394(20) 0.002538 378.0 64.7
414(20) 0.002415 378.1 64.6
379(19) 0.002639 378.1 64.6
438(21) 0.002283 378.1 64.6
432(21) 0.002315 378.2 64.8
415(20) 0.002410 378.2 65.1
438(21) 0.002283 378.3 65.5
403(20) 0.002481 378.3 66.0
433(21) 0.002309 378.3 66.6
409(20) 0.002445 378.4 67.4
424(21) 0.002358 378.4 68.4
408(20) 0.002451 378.5 69.5
386(20) 0.002591 378.5 70.9
436(21) 0.002294 378.5 72.4
383(20) 0.002611 378.6 74.2
403(20) 0.002481 378.6 76.3
430(21) 0.002326 378.7 78.6
413(20) 0.002421 378.7 81.3
400(20) 0.002500 378.7 84.3
427(21) 0.002342 378.8 87.6
426(21) 0.002347 378.8 91.2
417(20) 0.002398 378.9 94.9
481(22) 0.002079 378.9 98.8
459(21) 0.002179 378.9 102.5
437(21) 0.002288 379.0 105.9
451(21) 0.002217 379.0 108.8
431(21) 0.002320 379.1 110.7
474(22) 0.002110 379.1 111.7
431(21) 0.002320 379.1 111.7
437(21) 0.002288 379.2 110.8
410(20) 0.002439 379.2 109.2
471(22) 0.002123 379.3 107.2
423(21) 0.002364 379.3 104.8
447(21) 0.002237 379.3 102.4
432(21) 0.002315 379.4 99.8
458(21) 0.002183 379.4 97.1
426(21) 0.002347 379.4 94.3
430(21) 0.002326 379.5 91.5
436(21) 0.002294 379.5 88.5
462(21) 0.002164 379.6 85.5
429(21) 0.002331 379.6 82.5
435(21) 0.002299 379.6 79.5
420(20) 0.002381 379.7 76.7
414(20) 0.002415 379.7 74.0
392(20) 0.002551 379.8 71.5
396(20) 0.002525 379.8 69.3
426(21) 0.002347 379.8 67.2
399(20) 0.002506 379.9 65.3
389(20) 0.002571 379.9 63.7
402(20) 0.002488 380.0 62.2
373(19) 0.002681 380.0 61.0
405(20) 0.002469 380.0 59.9
399(20) 0.002506 380.0 58.9
366(19) 0.002732 380.0 58.1
400(20) 0.002500 379.9 57.4
379(19) 0.002639 379.9 56.8
404(20) 0.002475 379.8 56.4
389(20) 0.002571 379.8 56.0
403(20) 0.002481 379.7 55.7
416(20) 0.002404 379.7 55.5
400(20) 0.002500 379.7 55.4
369(19) 0.002710 379.6 55.4
387(20) 0.002584 379.6 55.4
396(20) 0.002525 379.5 55.5
388(20) 0.002577 379.5 55.6
390(20) 0.002564 379.5 55.8
423(21) 0.002364 379.4 56.0
378(19) 0.002646 379.4 56.3
413(20) 0.002421 379.3 56.7
402(20) 0.002488 379.3 57.2
389(20) 0.002571 379.2 57.8
430(21) 0.002326 379.2 58.5
434(21) 0.002304 379.2 59.3
425(21) 0.002353 379.1 60.4
403(20) 0.002481 379.1 61.7
412(20) 0.002427 379.0 63.2
433(21) 0.002309 379.0 65.0
425(21) 0.002353 379.0 67.1
410(20) 0.002439 378.9 69.5
415(20) 0.002410 378.9 72.4
441(21) 0.002268 378.8 75.7
451(21) 0.002217 378.8 79.4
459(21) 0.002179 378.7 83.7
435(21) 0.002299 378.7 88.4
452(21) 0.002212 378.7 93.6
467(22) 0.002141 378.6 99.2
469(22) 0.002132 378.6 105.2
496(22) 0.002016 378.5 111.2
464(22) 0.002155 378.5 117.2
466(22) 0.002146 378.5 122.9
480(22) 0.002083 378.4 128.0
510(23) 0.001961 378.4 131.9
500(22) 0.002000 378.3 134.2
499(22) 0.002004 378.3 134.4
493(22) 0.002028 378.2 132.3
449(21) 0.002227 378.2 128.0
462(21) 0.002164 378.2 122.0
480(22) 0.002083 378.1 115.2
503(22) 0.001988 378.1 108.2
438(21) 0.002283 378.0 101.4
430(21) 0.002326 378.0 95.2
436(21) 0.002294 378.0 89.6
407(20) 0.002457 377.9 84.5
418(20) 0.002392 377.9 79.9
395(20) 0.002532 377.8 75.6
410(20) 0.002439 377.8 71.8
417(20) 0.002398 377.7 68.4
419(20) 0.002387 377.7 65.4
433(21) 0.002309 377.7 62.9
410(20) 0.002439 377.6 60.9
415(20) 0.002410 377.6 59.2
394(20) 0.002538 377.5 57.9
394(20) 0.002538 377.5 57.0
385(20) 0.002597 377.5 56.4
393(20) 0.002545 377.4 56.1
392(20) 0.002551 377.4 56.0
407(20) 0.002457 377.3 56.1
428(21) 0.002336 377.3 56.3
403(20) 0.002481 377.2 56.6
403(20) 0.002481 377.2 56.9
386(20) 0.002591 377.2 57.2
399(20) 0.002506 377.1 57.4
389(20) 0.002571 377.1 57.5
402(20) 0.002488 377.0 57.5
388(20) 0.002577 377.0 57.5
410(20) 0.002439 377.0 57.5
445(21) 0.002247 376.9 57.4
393(20) 0.002545 376.9 57.4
393(20) 0.002545 376.8 57.3
366(19) 0.002732 376.8 57.3
387(20) 0.002584 376.7 57.2
398(20) 0.002513 376.7 57.0
386(20) 0.002591 376.7 56.8
439(21) 0.002278 376.6 56.6
412(20) 0.002427 376.6 56.4
414(20) 0.002415 376.5 56.2
408(20) 0.002451 376.5 56.1
451(21) 0.002217 376.5 56.1
394(20) 0.002538 376.4 56.3
446(21) 0.002242 376.4 56.7
409(20) 0.002445 376.3 57.4
408(20) 0.002451 376.3 58.4
455(21) 0.002198 376.2 59.7
466(22) 0.002146 376.2 61.4
456(21) 0.002193 376.2 63.5
439(21) 0.002278 376.1 66.1
441(21) 0.002268 376.1 69.2
448(21) 0.002232 376.0 72.6
479(22) 0.002088 376.0 76.2
470(22) 0.002128 375.9 79.8
462(21) 0.002164 375.9 82.9
468(22) 0.002137 375.9 85.1
766(28) 0.001305 375.8 86.0
787(28) 0.001271 375.8 85.3
632(25) 0.001582 375.7 83.5
563(24) 0.001776 375.7 80.8
523(23) 0.001912 375.7 77.7
535(23) 0.001869 375.6 74.7
504(22) 0.001984 375.6 72.0
474(22) 0.002110 375.5 69.8
526(23) 0.001901 375.5 67.9
449(21) 0.002227 375.4 66.6
441(21) 0.002268 375.4 65.6
490(22) 0.002041 375.4 65.0
446(21) 0.002242 375.3 64.7
438(21) 0.002283 375.3 64.5
400(20) 0.002500 375.2 64.3
421(21) 0.002375 375.2 64.2
419(20) 0.002387 375.2 63.9
423(21) 0.002364 375.1 63.5
424(21) 0.002358 375.1 63.0
432(21) 0.002315 375.0 62.3
428(21) 0.002336 375.0 61.7
410(20) 0.002439 374.9 61.0
432(21) 0.002315 374.9 60.4
420(20) 0.002381 374.9 59.8
437(21) 0.002288 374.8 59.2
423(21) 0.002364 374.8 58.7
398(20) 0.002513 374.7 58.2
454(21) 0.002203 374.7 57.7
424(21) 0.002358 374.7 57.3
433(21) 0.002309 374.6 56.9
459(21) 0.002179 374.6 56.4
396(20) 0.002525 374.5 56.0
398(20) 0.002513 374.5 55.6
415(20) 0.002410 374.4 55.1
426(21) 0.002347 374.4 54.7
401(20) 0.002494 374.4 54.3
416(20) 0.002404 374.3 53.9
394(20) 0.002538 374.3 53.5
387(20) 0.002584 374.2 53.1
427(21) 0.002342 374.2 52.8
378(19) 0.002646 374.2 52.5
385(20) 0.002597 374.1 52.2
408(20) 0.002451 374.1 52.0
378(19) 0.002646 374.0 51.8
408(20) 0.002451 374.0 51.6
396(20) 0.002525 373.9 51.5
397(20) 0.002519 373.9 51.4
397(20) 0.002519 373.9 51.4
404(20) 0.002475 373.8 51.5
393(20) 0.002545 373.8 51.5
390(20) 0.002564 373.7 51.7
365(19) 0.002740 373.7 51.8
384(20) 0.002604 373.7 52.0
381(20) 0.002625 373.6 52.1
401(20) 0.002494 373.6 52.3
407(20) 0.002457 373.5 52.4
421(21) 0.002375 373.5 52.4
402(20) 0.002488 373.4 52.4
417(20) 0.002398 373.4 52.3
381(20) 0.002625 373.4 52.1
416(20) 0.002404 373.3 51.9
412(20) 0.002427 373.3 51.6
390(20) 0.002564 373.2 51.2
389(20) 0.002571 373.2 50.9
431(21) 0.002320 373.2 50.5
384(20) 0.002604 373.1 50.2
391(20) 0.002558 373.1 50.0
387(20) 0.002584 373.0 49.8
355(19) 0.002817 373.0 49.8
390(20) 0.002564 372.9 49.8
379(19) 0.002639 372.9 49.9
377(19) 0.002653 372.9 50.1
391(20) 0.002558 372.9 50.4
404(20) 0.002475 372.9 50.8
369(19) 0.002710 372.9 51.3
383(20) 0.002611 372.9 51.9
388(20) 0.002577 372.9 52.5
374(19) 0.002674 372.9 53.1
354(19) 0.002825 372.9 53.9
381(20) . . .
380(19) . . .
408(20) . . .
363(19) . . .
384(20) . . .
379(19) . . .
394(20) . . .
404(20) . . .
391(20) . . .
382(20) . . .
393(20) . . .
386(20) . . .
393(20) . . .
380(19) . . .
391(20) . . .
368(19) . . .
430(21) . . .
376(19) . . .
410(20) . . .
406(20) . . .
408(20) . . .
411(20) . . .
372(19) . . .
407(20) . . .
394(20) . . .
394(20) . . .
421(21) . . .
443(21) . . .
397(20) . . .
390(20) . . .
385(20) . . .
368(19) . . .
394(20) . . .
409(20) . . .
408(20) . . .
419(20) . . .
401(20) . . .
380(19) . . .
418(20) . . .
430(21) . . .
460(21) . . .
401(20) . . .
420(20) . . .
415(20) . . .
432(21) . . .
409(20) . . .
436(21) . . .
426(21) . . .
415(20) . . .
447(21) . . .
465(22) . . .
416(20) . . .
406(20) . . .
435(21) . . .
388(20) . . .
408(20) . . .
434(21) . . .
415(20) . . .
404(20) . . .
430(21) . . .
420(20) . . .
389(20) . . .
406(20) . . .
410(20) . . .
361(19) . . .
384(20) . . .
349(19) . . .
386(20) . . .
399(20) . . .
378(19) . . .
376(19) . . .
372(19) . . .
375(19) . . .
355(19) . . .
394(20) . . .
376(19) . . .
394(20) . . .
379(19) . . .
369(19) . . .
383(20) . . .
406(20) . . .
351(19) . . .
366(19) . . .
386(20) . . .
362(19) . . .
366(19) . . .
353(19) . . .
384(20) . . .
385(20) . . .
347(19) . . .
328(18) . . .
345(19) . . .
377(19) . . .
381(20) . . .
348(19) . . .
386(20) . . .
400(20) . . .
408(20) . . .
381(20) . . .
389(20) . . .
367(19) . . .
355(19) . . .
356(19) . . .
373(19) . . .
353(19) . . .
399(20) . . .
387(20) . . .
356(19) . . .
376(19) . . .
351(19) . . .
353(19) . . .
364(19) . . .
396(20) . . .
398(20) . . .
368(19) . . .
344(19) . . .
367(19) . . .
354(19) . . .
344(19) . . .
357(19) . . .
377(19) . . .
341(18) . . .
344(19) . . .
368(19) . . .
361(19) . . .
367(19) . . .
395(20) . . .
363(19) . . .
349(19) . . .
402(20) . . .
350(19) . . .
390(20) . . .
362(19) . . .
336(18) . . .
340(18) . . .
371(19) . . .
384(20) . . .
353(19) . . .
397(20) . . .
368(19) . . .
413(20) . . .
381(20) . . .
370(19) . . .
415(20) . . .
399(20) . . .
386(20) . . .
423(21) . . .
397(20) . . .
404(20) . . .
391(20) . . .
419(20) . . .
374(19) . . .
379(19) . . .
394(20) . . .
389(20) . . .
389(20) . . .
388(20) . . .
390(20) . . .
397(20) . . .
385(20) . . .
380(19) . . .
379(19) . . .
385(20) . . .
383(20) . . .
395(20) . . .
365(19) . . .
382(20) . . .
368(19) . . .
382(20) . . .
378(19) . . .
390(20) . . .
410(20) . . .
395(20) . . .
391(20) . . .
384(20) . . .
362(19) . . .
367(19) . . .
376(19) . . .
360(19) . . .
366(19) . . .
349(19) . . .
365(19) . . .
367(19) . . .
357(19) . . .
345(19) . . .
329(18) . . .
361(19) . . .
363(19) . . .
339(18) . . .
351(19) . . .
364(19) . . .
350(19) . . .
348(19) . . .
344(19) . . .
366(19) . . .
387(20) . . .
341(18) . . .
347(19) . . .
387(20) . . .
339(18) . . .
353(19) . . .
352(19) . . .
358(19) . . .
411(20) . . .
377(19) . . .
343(19) . . .
363(19) . . .
355(19) . . .
359(19) . . .
348(19) . . .
400(20) . . .
331(18) . . .
362(19) . . .
359(19) . . .
329(18) . . .
348(19) . . .
349(19) . . .
370(19) . . .
390(20) . . .
346(19) . . .
365(19) . . .
354(19) . . .
381(20) . . .
396(20) . . .
358(19) . . .
350(19) . . .
381(20) . . .
373(19) . . .
387(20) . . .
389(20) . . .
369(19) . . .
398(20) . . .
409(20) . . .
380(19) . . .
386(20) . . .
402(20) . . .
379(19) . . .
388(20) . . .
407(20) . . .
411(20) . . .
401(20) . . .
400(20) . . .
401(20) . . .
387(20) . . .
377(19) . . .
356(19) . . .
391(20) . . .
402(20) . . .
377(19) . . .
347(19) . . .
388(20) . . .
363(19) . . .
362(19) . . .
380(19) . . .
410(20) . . .
360(19) . . .
325(18) . . .
358(19) . . .
384(20) . . .
338(18) . . .
371(19) . . .
365(19) . . .
355(19) . . .
363(19) . . .
360(19) . . .
367(19) . . .
377(19) . . .
355(19) . . .
337(18) . . .
346(19) . . .
351(19) . . .
381(20) . . .
337(18) . . .
323(18) . . .
351(19) . . .
343(19) . . .
356(19) . . .
330(18) . . .
378(19) . . .
362(19) . . .
359(19) . . .
339(18) . . .
324(18) . . .
359(19) . . .
344(19) . . .
357(19) . . .
329(18) . . .
348(19) . . .
343(19) . . .
326(18) . . .
360(19) . . .
371(19) . . .
315(18) . . .
344(19) . . .
360(19) . . .
356(19) . . .
359(19) . . .
343(19) . . .
364(19) . . .
358(19) . . .
343(19) . . .
360(19) . . .
336(18) . . .
347(19) . . .
342(18) . . .
349(19) . . .
364(19) . . .
358(19) . . .
341(18) . . .
335(18) . . .
340(18) . . .
356(19) . . .
325(18) . . .
351(19) . . .
325(18) . . .
344(19) . . .
336(18) . . .
347(19) . . .
341(18) . . .
359(19) . . .
331(18) . . .
343(19) . . .
353(19) . . .
337(18) . . .
333(18) . . .
342(18) . . .
330(18) . . .
350(19) . . .
344(19) . . .
340(18) . . .
345(19) . . .
351(19) . . .
338(18) . . .
325(18) . . .
328(18) . . .
346(19) . . .
327(18) . . .
322(18) . . .
339(18) . . .
333(18) . . .
330(18) . . .
326(18) . . .
336(18) . . .
310(18) . . .
319(18) . . .
323(18) . . .
310(18) . . .
331(18) . . .
386(20) . . .
322(18) . . .
320(18) . . .
378(19) . . .
305(17) . . .
338(18) . . .
327(18) . . .
324(18) . . .
341(18) . . .
327(18) . . .
336(18) . . .
332(18) . . .
335(18) . . .
321(18) . . .
322(18) . . .
312(18) . . .
328(18) . . .
338(18) . . .
344(19) . . .
356(19) . . .
347(19) . . .
354(19) . . .
318(18) . . .
372(19) . . .
365(19) . . .
350(19) . . .
334(18) . . .
346(19) . . .
365(19) . . .
332(18) . . .
327(18) . . .
332(18) . . .
339(18) . . .
351(19) . . .
329(18) . . .
315(18) . . .
328(18) . . .
342(18) . . .
355(19) . . .
354(19) . . .
331(18) . . .
332(18) . . .
346(19) . . .
363(19) . . .
378(19) . . .
353(19) . . .
346(19) . . .
364(19) . . .
356(19) . . .
349(19) . . .
342(18) . . .
360(19) . . .
358(19) . . .
327(18) . . .
347(19) . . .
316(18) . . .
359(19) . . .
354(19) . . .
368(19) . . .
335(18) . . .
316(18) . . .
335(18) . . .
329(18) . . .
311(18) . . .
339(18) . . .
350(19) . . .
329(18) . . .
333(18) . . .
321(18) . . .
338(18) . . .
348(19) . . .
356(19) . . .
372(19) . . .
344(19) . . .
332(18) . . .
362(19) . . .
335(18) . . .
379(19) . . .
333(18) . . .
353(19) . . .
348(19) . . .
354(19) . . .
342(18) . . .
359(19) . . .
374(19) . . .
352(19) . . .
380(19) . . .
366(19) . . .
323(18) . . .
331(18) . . .
364(19) . . .
353(19) . . .
379(19) . . .
382(20) . . .
351(19) . . .
375(19) . . .
400(20) . . .
399(20) . . .
386(20) . . .
391(20) . . .
409(20) . . .
431(21) . . .
456(21) . . .
391(20) . . .
452(21) . . .
448(21) . . .
447(21) . . .
361(19) . . .
411(20) . . .
420(20) . . .
383(20) . . .
386(20) . . .
368(19) . . .
404(20) . . .
402(20) . . .
385(20) . . .
384(20) . . .
375(19) . . .
407(20) . . .
365(19) . . .
357(19) . . .
339(18) . . .
389(20) . . .
407(20) . . .
378(19) . . .
374(19) . . .
379(19) . . .
380(19) . . .
351(19) . . .
367(19) . . .
396(20) . . .
404(20) . . .
372(19) . . .
381(20) . . .
382(20) . . .
380(19) . . .
375(19) . . .
407(20) . . .
420(20) . . .
432(21) . . .
437(21) . . .
427(21) . . .
443(21) . . .
413(20) . . .
413(20) . . .
450(21) . . .
463(22) . . .
441(21) . . .
420(20) . . .
436(21) . . .
418(20) . . .
379(19) . . .
430(21) . . .
429(21) . . .
393(20) . . .
395(20) . . .
400(20) . . .
386(20) . . .
372(19) . . .
382(20) . . .
404(20) . . .
376(19) . . .
392(20) . . .
385(20) . . .
398(20) . . .
375(19) . . .
347(19) . . .
401(20) . . .
338(18) . . .
368(19) . . .
373(19) . . .
375(19) . . .
367(19) . . .
392(20) . . .
369(19) . . .
375(19) . . .
371(19) . . .
341(18) . . .
372(19) . . .
367(19) . . .
361(19) . . .
371(19) . . .
398(20) . . .
395(20) . . .
361(19) . . .
351(19) . . .
350(19) . . .
371(19) . . .
361(19) . . .
376(19) . . .
355(19) . . .
384(20) . . .
379(19) . . .
404(20) . . .
370(19) . . .
336(18) . . .
402(20) . . .
369(19) . . .
372(19) . . .
373(19) . . .
351(19) . . .
380(19) . . .
383(20) . . .
351(19) . . .
366(19) . . .
410(20) . . .
402(20) . . .
406(20) . . .
400(20) . . .
402(20) . . .
413(20) . . .
418(20) . . .
421(21) . . .
418(20) . . .
398(20) . . .
459(21) . . .
417(20) . . .
432(21) . . .
454(21) . . .
429(21) . . .
455(21) . . .
472(22) . . .
488(22) . . .
461(21) . . .
493(22) . . .
460(21) . . .
456(21) . . .
468(22) . . .
447(21) . . .
493(22) . . .
476(22) . . .
457(21) . . .
448(21) . . .
456(21) . . .
484(22) . . .
455(21) . . .
459(21) . . .
446(21) . . .
404(20) . . .
472(22) . . .
427(21) . . .
403(20) . . .
393(20) . . .
420(20) . . .
394(20) . . .
427(21) . . .
387(20) . . .
428(21) . . .
422(21) . . .
386(20) . . .
392(20) . . .
422(21) . . .
428(21) . . .
380(19) . . .
384(20) . . .
399(20) . . .
402(20) . . .
407(20) . . .
425(21) . . .
407(20) . . .
410(20) . . .
400(20) . . .
391(20) . . .
414(20) . . .
371(19) . . .
395(20) . . .
423(21) . . .
394(20) . . .
380(19) . . .
396(20) . . .
389(20) . . .
368(19) . . .
384(20) . . .
374(19) . . .
352(19) . . .
396(20) . . .
373(19) . . .
338(18) . . .
403(20) . . .
343(19) . . .
375(19) . . .
389(20) . . .
350(19) . . .
385(20) . . .
370(19) . . .
388(20) . . .
370(19) . . .
347(19) . . .
370(19) . . .
368(19) . . .
355(19) . . .
366(19) . . .
381(20) . . .
372(19) . . .
374(19) . . .
387(20) . . .
364(19) . . .
392(20) . . .
395(20) . . .
388(20) . . .
388(20) . . .
372(19) . . .
370(19) . . .
337(18) . . .
390(20) . . .
385(20) . . .
388(20) . . .
374(19) . . .
394(20) . . .
390(20) . . .
375(19) . . .
416(20) . . .
411(20) . . .
377(19) . . .
364(19) . . .
407(20) . . .
406(20) . . .
400(20) . . .
360(19) . . .
397(20) . . .
385(20) . . .
379(19) . . .
375(19) . . .
408(20) . . .
410(20) . . .
388(20) . . .
409(20) . . .
386(20) . . .
385(20) . . .
412(20) . . .
363(19) . . .
401(20) . . .
379(19) . . .
391(20) . . .
378(19) . . .
353(19) . . .
384(20) . . .
400(20) . . .
363(19) . . .
372(19) . . .
377(19) . . .
355(19) . . .
339(18) . . .
346(19) . . .
336(18) . . .
370(19) . . .
360(19) . . .
362(19) . . .
337(18) . . .
349(19) . . .
352(19) . . .
381(20) . . .
374(19) . . .
360(19) . . .
361(19) . . .
385(20) . . .
369(19) . . .
357(19) . . .
357(19) . . .
369(19) . . .
385(20) . . .
379(19) . . .
344(19) . . .
384(20) . . .
377(19) . . .
366(19) . . .
360(19) . . .
359(19) . . .
370(19) . . .
359(19) . . .
375(19) . . .
366(19) . . .
371(19) . . .
384(20) . . .
362(19) . . .
373(19) . . .
383(20) . . .
415(20) . . .
396(20) . . .
392(20) . . .
353(19) . . .
392(20) . . .
373(19) . . .
352(19) . . .
362(19) . . .
370(19) . . .
359(19) . . .
342(18) . . .
350(19) . . .
381(20) . . .
384(20) . . .
350(19) . . .
388(20) . . .
374(19) . . .
374(19) . . .
365(19) . . .
360(19) . . .
368(19) . . .
399(20) . . .
383(20) . . .
373(19) . . .
375(19) . . .
363(19) . . .
382(20) . . .
367(19) . . .
375(19) . . .
393(20) . . .
375(19) . . .
387(20) . . .
380(19) . . .
362(19) . . .
408(20) . . .
370(19) . . .
390(20) . . .
404(20) . . .
396(20) . . .
370(19) . . .
405(20) . . .
414(20) . . .
379(19) . . .
401(20) . . .
414(20) . . .
378(19) . . .
421(21) . . .
420(20) . . .
401(20) . . .
376(19) . . .
391(20) . . .
429(21) . . .
414(20) . . .
441(21) . . .
415(20) . . .
398(20) . . .
452(21) . . .
430(21) . . .
443(21) . . .
431(21) . . .
444(21) . . .
466(22) . . .
478(22) . . .
458(21) . . .
436(21) . . .
463(22) . . .
449(21) . . .
482(22) . . .
504(22) . . .
474(22) . . .
535(23) . . .
528(23) . . .
478(22) . . .
563(24) . . .
530(23) . . .
577(24) . . .
580(24) . . .
563(24) . . .
556(24) . . .
630(25) . . .
609(25) . . .
641(25) . . .
616(25) . . .
673(26) . . .
679(26) . . .
677(26) . . .
696(26) . . .
668(26) . . .
747(27) . . .
756(27) . . .
798(28) . . .
816(29) . . .
900(30) . . .
909(30) . . .
925(30) . . .
963(31) . . .
1005(32) . . .
1039(32) . . .
1168(34) . . .
1250(35) . . .
1391(37) . . .
1531(39) . . .
1633(40) . . .
1735(42) . . .
2039(45) . . .
2232(47) . . .
2517(50) . . .
2815(53) . . .
3336(58) . . .
3928(63) . . .
4692(68) . . .
5567(75) . . .
6755(82) . . .
8063(90) . . .
10370(100) . . .
12860(110) . . .
16450(130) . . .
20860(140) . . .
26130(160) . . .
31100(180) . . .
35290(190) . . .
38260(200) . . .
38550(200) . . .
35380(190) . . .
31760(180) . . .
26200(160) . . .
20700(140) . . .
16390(130) . . .
12970(110) . . .
10400(100) . . .
8192(91) . . .
6774(82) . . .
5623(75) . . .
4670(68) . . .
4003(63) . . .
3337(58) . . .
3031(55) . . .
2617(51) . . .
2329(48) . . .
2036(45) . . .
1835(43) . . .
1755(42) . . .
1552(39) . . .
1458(38) . . .
1358(37) . . .
1233(35) . . .
1154(34) . . .
1093(33) . . .
1046(32) . . .
951(31) . . .
979(31) . . .
914(30) . . .
845(29) . . .
813(29) . . .
782(28) . . .
752(27) . . .
719(27) . . .
691(26) . . .
729(27) . . .
639(25) . . .
650(25) . . .
619(25) . . .
615(25) . . .
623(25) . . .
597(24) . . .
585(24) . . .
613(25) . . .
544(23) . . .
532(23) . . .
532(23) . . .
532(23) . . .
527(23) . . .
514(23) . . .
559(24) . . .
560(24) . . .
531(23) . . .
519(23) . . .
493(22) . . .
490(22) . . .
480(22) . . .
479(22) . . .
458(21) . . .
461(21) . . .
443(21) . . .
435(21) . . .
433(21) . . .
432(21) . . .
438(21) . . .
428(21) . . .
428(21) . . .
447(21) . . .
408(20) . . .
404(20) . . .
379(19) . . .
408(20) . . .
440(21) . . .
408(20) . . .
405(20) . . .
445(21) . . .
421(21) . . .
412(20) . . .
407(20) . . .
388(20) . . .
385(20) . . .
402(20) . . .
400(20) . . .
381(20) . . .
410(20) . . .
408(20) . . .
401(20) . . .
407(20) . . .
391(20) . . .
400(20) . . .
372(19) . . .
393(20) . . .
389(20) . . .
389(20) . . .
384(20) . . .
421(21) . . .
365(19) . . .
397(20) . . .
396(20) . . .
357(19) . . .
383(20) . . .
389(20) . . .
391(20) . . .
375(19) . . .
383(20) . . .
399(20) . . .
374(19) . . .
415(20) . . .
404(20) . . .
403(20) . . .
419(20) . . .
417(20) . . .
426(21) . . .
398(20) . . .
388(20) . . .
383(20) . . .
397(20) . . .
403(20) . . .
382(20) . . .
386(20) . . .
398(20) . . .
376(19) . . .
393(20) . . .
363(19) . . .
389(20) . . .
382(20) . . .
374(19) . . .
356(19) . . .
359(19) . . .
393(20) . . .
366(19) . . .
380(19) . . .
373(19) . . .
354(19) . . .
384(20) . . .
396(20) . . .
376(19) . . .
375(19) . . .
372(19) . . .
365(19) . . .
390(20) . . .
361(19) . . .
376(19) . . .
375(19) . . .
387(20) . . .
356(19) . . .
349(19) . . .
365(19) . . .
347(19) . . .
382(20) . . .
376(19) . . .
361(19) . . .
390(20) . . .
378(19) . . .
371(19) . . .
355(19) . . .
383(20) . . .
379(19) . . .
339(18) . . .
370(19) . . .
361(19) . . .
382(20) . . .
381(20) . . .
360(19) . . .
365(19) . . .
376(19) . . .
352(19) . . .
354(19) . . .
390(20) . . .
403(20) . . .
414(20) . . .
378(19) . . .
404(20) . . .
399(20) . . .
398(20) . . .
367(19) . . .
404(20) . . .
381(20) . . .
392(20) . . .
412(20) . . .
384(20) . . .
406(20) . . .
410(20) . . .
419(20) . . .
446(21) . . .
400(20) . . .
444(21) . . .
438(21) . . .
410(20) . . .
442(21) . . .
437(21) . . .
433(21) . . .
437(21) . . .
431(21) . . .
423(21) . . .
405(20) . . .
418(20) . . .
411(20) . . .
421(21) . . .
418(20) . . .
406(20) . . .
389(20) . . .
412(20) . . .
426(21) . . .
435(21) . . .
410(20) . . .
425(21) . . .
396(20) . . .
423(21) . . .
449(21) . . .
413(20) . . .
468(22) . . .
443(21) . . .
416(20) . . .
449(21) . . .
413(20) . . .
400(20) . . .
397(20) . . .
423(21) . . .
423(21) . . .
397(20) . . .
409(20) . . .
388(20) . . .
385(20) . . .
381(20) . . .
366(19) . . .
404(20) . . .
397(20) . . .
399(20) . . .
354(19) . . .
387(20) . . .
385(20) . . .
332(18) . . .
360(19) . . .
395(20) . . .
372(19) . . .
386(20) . . .
350(19) . . .
366(19) . . .
357(19) . . .
351(19) . . .
345(19) . . .
365(19) . . .
332(18) . . .
362(19) . . .
343(19) . . .
361(19) . . .
391(20) . . .
367(19) . . .
366(19) . . .
339(18) . . .
378(19) . . .
353(19) . . .
390(20) . . .
351(19) . . .
355(19) . . .
342(18) . . .
345(19) . . .
351(19) . . .
354(19) . . .
341(18) . . .
341(18) . . .
345(19) . . .
344(19) . . .
330(18) . . .
352(19) . . .
332(18) . . .
340(18) . . .
338(18) . . .
320(18) . . .
341(18) . . .
337(18) . . .
346(19) . . .
332(18) . . .
345(19) . . .
320(18) . . .
309(18) . . .
329(18) . . .
358(19) . . .
353(19) . . .
364(19) . . .
364(19) . . .
322(18) . . .
337(18) . . .
318(18) . . .
332(18) . . .
367(19) . . .
325(18) . . .
310(18) . . .
313(18) . . .
319(18) . . .
360(19) . . .
351(19) . . .
347(19) . . .
353(19) . . .
352(19) . . .
315(18) . . .
355(19) . . .
330(18) . . .
358(19) . . .
356(19) . . .
370(19) . . .
339(18) . . .
357(19) . . .
351(19) . . .
361(19) . . .
351(19) . . .
324(18) . . .
324(18) . . .
346(19) . . .
332(18) . . .
350(19) . . .
330(18) . . .
360(19) . . .
358(19) . . .
375(19) . . .
346(19) . . .
348(19) . . .
336(18) . . .
339(18) . . .
355(19) . . .
358(19) . . .
366(19) . . .
348(19) . . .
325(18) . . .
318(18) . . .
366(19) . . .
337(18) . . .
338(18) . . .
327(18) . . .
315(18) . . .
362(19) . . .
332(18) . . .
363(19) . . .
351(19) . . .
315(18) . . .
324(18) . . .
342(18) . . .
351(19) . . .
359(19) . . .
356(19) . . .
334(18) . . .
329(18) . . .
331(18) . . .
362(19) . . .
336(18) . . .
336(18) . . .
344(19) . . .
353(19) . . .
327(18) . . .
355(19) . . .
350(19) . . .
347(19) . . .
358(19) . . .
377(19) . . .
346(19) . . .
370(19) . . .
354(19) . . .
350(19) . . .
335(18) . . .
363(19) . . .
361(19) . . .
342(18) . . .
359(19) . . .
320(18) . . .
331(18) . . .
317(18) . . .
356(19) . . .
365(19) . . .
348(19) . . .
366(19) . . .
350(19) . . .
386(20) . . .
368(19) . . .
380(19) . . .
341(18) . . .
365(19) . . .
357(19) . . .
370(19) . . .
348(19) . . .
367(19) . . .
342(18) . . .
344(19) . . .
320(18) . . .
385(20) . . .
359(19) . . .
360(19) . . .
357(19) . . .
351(19) . . .
388(20) . . .
371(19) . . .
382(20) . . .
401(20) . . .
359(19) . . .
365(19) . . .
380(19) . . .
380(19) . . .
404(20) . . .
382(20) . . .
377(19) . . .
375(19) . . .
378(19) . . .
391(20) . . .
408(20) . . .
395(20) . . .
379(19) . . .
388(20) . . .
403(20) . . .
393(20) . . .
357(19) . . .
374(19) . . .
378(19) . . .
370(19) . . .
378(19) . . .
390(20) . . .
395(20) . . .
355(19) . . .
349(19) . . .
369(19) . . .
385(20) . . .
385(20) . . .
362(19) . . .
379(19) . . .
370(19) . . .
363(19) . . .
366(19) . . .
344(19) . . .
336(18) . . .
360(19) . . .
356(19) . . .
340(18) . . .
315(18) . . .
353(19) . . .
347(19) . . .
361(19) . . .
337(18) . . .
372(19) . . .
361(19) . . .
317(18) . . .
303(17) . . .
314(18) . . .
328(18) . . .
337(18) . . .
334(18) . . .
345(19) . . .
351(19) . . .
347(19) . . .
340(18) . . .
331(18) . . .
342(18) . . .
349(19) . . .
370(19) . . .
340(18) . . .
312(18) . . .
364(19) . . .
339(18) . . .
347(19) . . .
354(19) . . .
357(19) . . .
364(19) . . .
322(18) . . .
375(19) . . .
367(19) . . .
358(19) . . .
356(19) . . .
362(19) . . .
396(20) . . .
373(19) . . .
384(20) . . .
386(20) . . .
366(19) . . .
351(19) . . .
366(19) . . .
377(19) . . .
395(20) . . .
396(20) . . .
380(19) . . .
388(20) . . .
389(20) . . .
430(21) . . .
392(20) . . .
368(19) . . .
380(19) . . .
388(20) . . .
426(21) . . .
382(20) . . .
363(19) . . .
387(20) . . .
381(20) . . .
362(19) . . .
423(21) . . .
382(20) . . .
362(19) . . .
391(20) . . .
366(19) . . .
407(20) . . .
380(19) . . .
349(19) . . .
325(18) . . .
397(20) . . .
380(19) . . .
378(19) . . .
368(19) . . .
378(19) . . .
391(20) . . .
351(19) . . .
371(19) . . .
390(20) . . .
355(19) . . .
370(19) . . .
353(19) . . .
401(20) . . .
352(19) . . .
391(20) . . .
369(19) . . .
360(19) . . .
396(20) . . .
384(20) . . .
382(20) . . .
380(19) . . .
388(20) . . .
388(20) . . .
371(19) . . .
364(19) . . .
406(20) . . .
394(20) . . .
376(19) . . .
363(19) . . .
362(19) . . .
347(19) . . .
350(19) . . .
325(18) . . .
368(19) . . .
307(18) . . .
359(19) . . .
366(19) . . .
370(19) . . .
377(19) . . .
350(19) . . .
347(19) . . .
382(20) . . .
325(18) . . .
358(19) . . .
350(19) . . .
363(19) . . .
356(19) . . .
368(19) . . .
359(19) . . .
329(18) . . .
385(20) . . .
368(19) . . .
369(19) . . .
352(19) . . .
342(18) . . .
335(18) . . .
355(19) . . .
360(19) . . .
354(19) . . .
357(19) . . .
327(18) . . .
321(18) . . .
323(18) . . .
363(19) . . .
343(19) . . .
323(18) . . .
348(19) . . .
323(18) . . .
331(18) . . .
330(18) . . .
319(18) . . .
332(18) . . .
372(19) . . .
354(19) . . .
344(19) . . .
344(19) . . .
327(18) . . .
352(19) . . .
351(19) . . .
389(20) . . .
356(19) . . .
343(19) . . .
368(19) . . .
340(18) . . .
338(18) . . .
352(19) . . .
337(18) . . .
317(18) . . .
355(19) . . .
350(19) . . .
347(19) . . .
347(19) . . .
351(19) . . .
360(19) . . .
346(19) . . .
325(18) . . .
353(19) . . .
326(18) . . .
343(19) . . .
333(18) . . .
352(19) . . .
326(18) . . .
354(19) . . .
340(18) . . .
368(19) . . .
344(19) . . .
347(19) . . .
325(18) . . .
332(18) . . .
339(18) . . .
358(19) . . .
343(19) . . .
338(18) . . .
323(18) . . .
334(18) . . .
351(19) . . .
348(19) . . .
361(19) . . .
332(18) . . .
326(18) . . .
348(19) . . .
353(19) . . .
365(19) . . .
376(19) . . .
364(19) . . .
380(19) . . .
338(18) . . .
388(20) . . .
345(19) . . .
395(20) . . .
344(19) . . .
359(19) . . .
336(18) . . .
347(19) . . .
344(19) . . .
334(18) . . .
351(19) . . .
313(18) . . .
374(19) . . .
326(18) . . .
287(17) . . .
342(18) . . .
350(19) . . .
337(18) . . .
346(19) . . .
344(19) . . .
354(19) . . .
337(18) . . .
344(19) . . .
325(18) . . .
356(19) . . .
328(18) . . .
333(18) . . .
354(19) . . .
364(19) . . .
348(19) . . .
317(18) . . .
379(19) . . .
340(18) . . .
336(18) . . .
320(18) . . .
344(19) . . .
359(19) . . .
339(18) . . .
319(18) . . .
332(18) . . .
382(20) . . .
344(19) . . .
372(19) . . .
337(18) . . .
333(18) . . .
352(19) . . .
375(19) . . .
370(19) . . .
389(20) . . .
372(19) . . .
350(19) . . .
351(19) . . .
347(19) . . .
352(19) . . .
335(18) . . .
348(19) . . .
373(19) . . .
353(19) . . .
361(19) . . .
369(19) . . .
362(19) . . .
378(19) . . .
386(20) . . .
365(19) . . .
359(19) . . .
361(19) . . .
341(18) . . .
359(19) . . .
328(18) . . .
349(19) . . .
360(19) . . .
325(18) . . .
360(19) . . .
344(19) . . .
384(20) . . .
350(19) . . .
325(18) . . .
344(19) . . .
391(20) . . .
365(19) . . .
362(19) . . .
368(19) . . .
363(19) . . .
362(19) . . .
381(20) . . .
340(18) . . .
366(19) . . .
381(20) . . .
368(19) . . .
404(20) . . .
361(19) . . .
331(18) . . .
332(18) . . .
385(20) . . .
359(19) . . .
363(19) . . .
355(19) . . .
386(20) . . .
348(19) . . .
353(19) . . .
360(19) . . .
363(19) . . .
340(18) . . .
333(18) . . .
372(19) . . .
343(19) . . .
357(19) . . .
338(18) . . .
368(19) . . .
327(18) . . .
393(20) . . .
353(19) . . .
360(19) . . .
355(19) . . .
352(19) . . .
362(19) . . .
388(20) . . .
383(20) . . .
331(18) . . .
358(19) . . .
348(19) . . .
357(19) . . .
376(19) . . .
347(19) . . .
361(19) . . .
354(19) . . .
360(19) . . .
362(19) . . .
376(19) . . .
366(19) . . .
358(19) . . .
384(20) . . .
366(19) . . .
341(18) . . .
375(19) . . .
353(19) . . .
375(19) . . .
324(18) . . .
372(19) . . .
362(19) . . .
371(19) . . .
361(19) . . .
349(19) . . .
351(19) . . .
354(19) . . .
350(19) . . .
361(19) . . .
381(20) . . .
356(19) . . .
373(19) . . .
356(19) . . .
395(20) . . .
363(19) . . .
377(19) . . .
371(19) . . .
342(18) . . .
363(19) . . .
362(19) . . .
365(19) . . .
369(19) . . .
343(19) . . .
368(19) . . .
350(19) . . .
348(19) . . .
369(19) . . .
380(19) . . .
350(19) . . .
385(20) . . .
332(18) . . .
379(19) . . .
349(19) . . .
390(20) . . .
394(20) . . .
350(19) . . .
360(19) . . .
354(19) . . .
357(19) . . .
361(19) . . .
340(18) . . .
366(19) . . .
354(19) . . .
356(19) . . .
389(20) . . .
396(20) . . .
345(19) . . .
409(20) . . .
348(19) . . .
389(20) . . .
368(19) . . .
360(19) . . .
397(20) . . .
346(19) . . .
370(19) . . .
362(19) . . .
362(19) . . .
401(20) . . .
361(19) . . .
403(20) . . .
364(19) . . .
351(19) . . .
352(19) . . .
361(19) . . .
353(19) . . .
354(19) . . .
342(18) . . .
334(18) . . .
343(19) . . .
319(18) . . .
343(19) . . .
358(19) . . .
358(19) . . .
362(19) . . .
324(18) . . .
353(19) . . .
329(18) . . .
363(19) . . .
339(18) . . .
346(19) . . .
333(18) . . .
343(19) . . .
347(19) . . .
362(19) . . .
357(19) . . .
349(19) . . .
308(18) . . .
337(18) . . .
348(19) . . .
328(18) . . .
345(19) . . .
358(19) . . .
338(18) . . .
339(18) . . .
347(19) . . .
351(19) . . .
343(19) . . .
321(18) . . .
344(19) . . .
336(18) . . .
346(19) . . .
316(18) . . .
359(19) . . .
349(19) . . .
355(19) . . .
352(19) . . .
400(20) . . .
345(19) . . .
374(19) . . .
347(19) . . .
359(19) . . .
349(19) . . .
321(18) . . .
321(18) . . .
351(19) . . .
360(19) . . .
364(19) . . .
386(20) . . .
366(19) . . .
372(19) . . .
333(18) . . .
364(19) . . .
358(19) . . .
374(19) . . .
407(20) . . .
386(20) . . .
380(19) . . .
368(19) . . .
371(19) . . .
375(19) . . .
387(20) . . .
383(20) . . .
372(19) . . .
405(20) . . .
422(21) . . .
404(20) . . .
385(20) . . .
415(20) . . .
381(20) . . .
388(20) . . .
359(19) . . .
373(19) . . .
383(20) . . .
394(20) . . .
357(19) . . .
361(19) . . .
357(19) . . .
375(19) . . .
401(20) . . .
355(19) . . .
367(19) . . .
382(20) . . .
366(19) . . .
325(18) . . .
350(19) . . .
368(19) . . .
367(19) . . .
400(20) . . .
354(19) . . .
367(19) . . .
380(19) . . .
360(19) . . .
350(19) . . .
351(19) . . .
368(19) . . .
408(20) . . .
375(19) . . .
386(20) . . .
380(19) . . .
341(18) . . .
353(19) . . .
359(19) . . .
359(19) . . .
381(20) . . .
361(19) . . .
405(20) . . .
368(19) . . .
381(20) . . .
387(20) . . .
361(19) . . .
374(19) . . .
378(19) . . .
373(19) . . .
367(19) . . .
381(20) . . .
395(20) . . .
401(20) . . .
371(19) . . .
377(19) . . .
346(19) . . .
361(19) . . .
358(19) . . .
356(19) . . .
361(19) . . .
395(20) . . .
367(19) . . .
359(19) . . .
362(19) . . .
361(19) . . .
388(20) . . .
373(19) . . .
394(20) . . .
348(19) . . .
357(19) . . .
369(19) . . .
362(19) . . .
369(19) . . .
388(20) . . .
362(19) . . .
371(19) . . .
388(20) . . .
366(19) . . .
365(19) . . .
315(18) . . .
352(19) . . .
372(19) . . .
356(19) . . .
326(18) . . .
339(18) . . .
341(18) . . .
356(19) . . .
385(20) . . .
371(19) . . .
383(20) . . .
383(20) . . .
400(20) . . .
325(18) . . .
377(19) . . .
372(19) . . .
352(19) . . .
372(19) . . .
337(18) . . .
381(20) . . .
372(19) . . .
355(19) . . .
356(19) . . .
349(19) . . .
373(19) . . .
387(20) . . .
344(19) . . .
390(20) . . .
368(19) . . .
365(19) . . .
358(19) . . .
360(19) . . .
422(21) . . .
379(19) . . .
392(20) . . .
350(19) . . .
367(19) . . .
356(19) . . .
361(19) . . .
362(19) . . .
387(20) . . .
353(19) . . .
360(19) . . .
365(19) . . .
374(19) . . .
374(19) . . .
408(20) . . .
383(20) . . .
377(19) . . .
413(20) . . .
391(20) . . .
410(20) . . .
379(19) . . .
406(20) . . .
434(21) . . .
406(20) . . .
420(20) . . .
407(20) . . .
388(20) . . .
420(20) . . .
399(20) . . .
409(20) . . .
388(20) . . .
393(20) . . .
408(20) . . .
404(20) . . .
411(20) . . .
453(21) . . .
433(21) . . .
397(20) . . .
394(20) . . .
421(21) . . .
394(20) . . .
443(21) . . .
407(20) . . .
381(20) . . .
395(20) . . .
396(20) . . .
398(20) . . .
419(20) . . .
405(20) . . .
438(21) . . .
435(21) . . .
407(20) . . .
433(21) . . .
409(20) . . .
418(20) . . .
429(21) . . .
388(20) . . .
430(21) . . .
413(20) . . .
434(21) . . .
431(21) . . .
405(20) . . .
447(21) . . .
420(20) . . .
447(21) . . .
416(20) . . .
406(20) . . .
447(21) . . .
420(20) . . .
454(21) . . .
413(20) . . .
429(21) . . .
399(20) . . .
412(20) . . .
441(21) . . .
451(21) . . .
429(21) . . .
441(21) . . .
404(20) . . .
451(21) . . .
453(21) . . .
453(21) . . .
466(22) . . .
452(21) . . .
448(21) . . .
465(22) . . .
483(22) . . .
479(22) . . .
471(22) . . .
465(22) . . .
514(23) . . .
490(22) . . .
521(23) . . .
495(22) . . .
490(22) . . .
516(23) . . .
505(22) . . .
499(22) . . .
541(23) . . .
534(23) . . .
550(23) . . .
590(24) . . .
571(24) . . .
567(24) . . .
583(24) . . .
573(24) . . .
596(24) . . .
580(24) . . .
650(25) . . .
652(26) . . .
694(26) . . .
643(25) . . .
669(26) . . .
714(27) . . .
718(27) . . .
756(27) . . .
774(28) . . .
826(29) . . .
798(28) . . .
903(30) . . .
926(30) . . .
967(31) . . .
1010(32) . . .
1094(33) . . .
1121(33) . . .
1181(34) . . .
1230(35) . . .
1279(36) . . .
1400(37) . . .
1470(38) . . .
1573(40) . . .
1630(40) . . .
1807(43) . . .
2016(45) . . .
2206(47) . . .
2294(48) . . .
2608(51) . . .
2862(53) . . .
3181(56) . . .
3562(60) . . .
4004(63) . . .
4530(67) . . .
5309(73) . . .
5920(77) . . .
7102(84) . . .
8138(90) . . .
9559(98) . . .
11180(110) . . .
13420(120) . . .
16290(130) . . .
19870(140) . . .
24050(160) . . .
29890(170) . . .
36540(190) . . .
42950(210) . . .
48900(220) . . .
53740(230) . . .
56400(240) . . .
55710(240) . . .
52370(230) . . .
46780(220) . . .
40380(200) . . .
33470(180) . . .
27530(170) . . .
22280(150) . . .
18400(140) . . .
14800(120) . . .
12370(110) . . .
10220(100) . . .
8598(93) . . .
7272(85) . . .
6327(80) . . .
5392(73) . . .
4799(69) . . .
4181(65) . . .
3693(61) . . .
3391(58) . . .
2965(54) . . .
2739(52) . . .
2426(49) . . .
2179(47) . . .
1995(45) . . .
1847(43) . . .
1784(42) . . .
1629(40) . . .
1471(38) . . .
1422(38) . . .
1293(36) . . .
1268(36) . . .
1200(35) . . .
1119(33) . . .
1109(33) . . .
973(31) . . .
939(31) . . .
929(30) . . .
861(29) . . .
872(30) . . .
827(29) . . .
808(28) . . .
826(29) . . .
766(28) . . .
730(27) . . .
765(28) . . .
694(26) . . .
667(26) . . .
654(26) . . .
668(26) . . .
671(26) . . .
636(25) . . .
661(26) . . .
627(25) . . .
574(24) . . .
570(24) . . .
594(24) . . .
590(24) . . .
557(24) . . .
598(24) . . .
604(25) . . .
536(23) . . .
528(23) . . .
498(22) . . .
520(23) . . .
500(22) . . .
507(23) . . .
505(22) . . .
546(23) . . .
497(22) . . .
520(23) . . .
500(22) . . .
547(23) . . .
485(22) . . .
507(23) . . .
518(23) . . .
491(22) . . .
504(22) . . .
525(23) . . .
468(22) . . .
462(21) . . .
487(22) . . .
530(23) . . .
467(22) . . .
531(23) . . .
509(23) . . .
543(23) . . .
528(23) . . .
518(23) . . .
527(23) . . .
480(22) . . .
483(22) . . .
511(23) . . .
500(22) . . .
507(23) . . .
480(22) . . .
456(21) . . .
491(22) . . .
447(21) . . .
449(21) . . .
451(21) . . .
460(21) . . .
420(20) . . .
435(21) . . .
435(21) . . .
411(20) . . .
421(21) . . .
445(21) . . .
442(21) . . .
392(20) . . .
404(20) . . .
448(21) . . .
400(20) . . .
420(20) . . .
395(20) . . .
423(21) . . .
414(20) . . .
392(20) . . .
434(21) . . .
402(20) . . .
413(20) . . .
413(20) . . .
399(20) . . .
427(21) . . .
421(21) . . .
370(19) . . .
388(20) . . .
403(20) . . .
389(20) . . .
372(19) . . .
411(20) . . .
414(20) . . .
379(19) . . .
390(20) . . .
426(21) . . .
405(20) . . .
386(20) . . .
388(20) . . .
406(20) . . .
403(20) . . .
398(20) . . .
437(21) . . .
409(20) . . .
417(20) . . .
442(21) . . .
433(21) . . .
424(21) . . .
468(22) . . .
429(21) . . .
430(21) . . .
443(21) . . .
443(21) . . .
405(20) . . .
443(21) . . .
453(21) . . .
438(21) . . .
403(20) . . .
441(21) . . .
435(21) . . .
421(21) . . .
390(20) . . .
410(20) . . .
402(20) . . .
398(20) . . .
426(21) . . .
423(21) . . .
425(21) . . .
407(20) . . .
366(19) . . .
409(20) . . .
410(20) . . .
412(20) . . .
407(20) . . .
403(20) . . .
435(21) . . .
418(20) . . .
410(20) . . .
387(20) . . .
364(19) . . .
421(21) . . .
426(21) . . .
428(21) . . .
417(20) . . .
456(21) . . .
466(22) . . .
433(21) . . .
436(21) . . .
421(21) . . .
448(21) . . .
445(21) . . .
419(20) . . .
390(20) . . .
428(21) . . .
427(21) . . .
441(21) . . .
415(20) . . .
460(21) . . .
459(21) . . .
420(20) . . .
435(21) . . .
432(21) . . .
441(21) . . .
445(21) . . .
431(21) . . .
415(20) . . .
394(20) . . .
439(21) . . .
412(20) . . .
416(20) . . .
435(21) . . .
449(21) . . .
455(21) . . .
416(20) . . .
421(21) . . .
454(21) . . .
458(21) . . .
469(22) . . .
452(21) . . .
436(21) . . .
418(20) . . .
434(21) . . .
443(21) . . .
442(21) . . .
415(20) . . .
409(20) . . .
430(21) . . .
470(22) . . .
442(21) . . .
445(21) . . .
415(20) . . .
453(21) . . .
425(21) . . .
454(21) . . .
441(21) . . .
405(20) . . .
442(21) . . .
434(21) . . .
436(21) . . .
434(21) . . .
443(21) . . .
467(22) . . .
444(21) . . .
402(20) . . .
411(20) . . .
441(21) . . .
441(21) . . .
432(21) . . .
480(22) . . .
457(21) . . .
460(21) . . .
418(20) . . .
428(21) . . .
451(21) . . .
455(21) . . .
459(21) . . .
487(22) . . .
450(21) . . .
465(22) . . .
441(21) . . .
450(21) . . .
437(21) . . .
474(22) . . .
416(20) . . .
465(22) . . .
455(21) . . .
462(21) . . .
456(21) . . .
440(21) . . .
442(21) . . .
439(21) . . .
418(20) . . .
464(22) . . .
430(21) . . .
475(22) . . .
426(21) . . .
443(21) . . .
434(21) . . .
466(22) . . .
452(21) . . .
437(21) . . .
439(21) . . .
472(22) . . .
463(22) . . .
469(22) . . .
480(22) . . .
425(21) . . .
464(22) . . .
485(22) . . .
456(21) . . .
431(21) . . .
469(22) . . .
488(22) . . .
476(22) . . .
495(22) . . .
471(22) . . .
452(21) . . .
448(21) . . .
495(22) . . .
519(23) . . .
481(22) . . .
485(22) . . .
477(22) . . .
469(22) . . .
507(23) . . .
519(23) . . .
513(23) . . .
508(23) . . .
520(23) . . .
511(23) . . .
543(23) . . .
533(23) . . .
535(23) . . .
603(25) . . .
602(25) . . .
532(23) . . .
599(24) . . .
615(25) . . .
648(25) . . .
638(25) . . .
630(25) . . .
612(25) . . .
706(27) . . .
655(26) . . .
668(26) . . .
669(26) . . .
706(27) . . .
729(27) . . .
697(26) . . .
728(27) . . .
765(28) . . .
785(28) . . .
888(30) . . .
844(29) . . .
868(29) . . .
933(31) . . .
953(31) . . .
971(31) . . .
1018(32) . . .
1055(32) . . .
1112(33) . . .
1205(35) . . .
1245(35) . . .
1287(36) . . .
1354(37) . . .
1394(37) . . .
1542(39) . . .
1720(41) . . .
1862(43) . . .
1900(44) . . .
2034(45) . . .
2330(48) . . .
2507(50) . . .
2743(52) . . .
3001(55) . . .
3385(58) . . .
3779(61) . . .
4248(65) . . .
4687(68) . . .
5626(75) . . .
6327(80) . . .
7246(85) . . .
8425(92) . . .
10130(100) . . .
12060(110) . . .
14520(120) . . .
17580(130) . . .
21540(150) . . .
26250(160) . . .
32890(180) . . .
40520(200) . . .
48960(220) . . .
57550(240) . . .
64730(250) . . .
67630(260) . . .
67010(260) . . .
63280(250) . . .
56900(240) . . .
49460(220) . . .
40780(200) . . .
33240(180) . . .
26590(160) . . .
21570(150) . . .
17640(130) . . .
14510(120) . . .
11810(110) . . .
9854(99) . . .
8351(91) . . .
7194(85) . . .
6186(79) . . .
5228(72) . . .
4542(67) . . .
4023(63) . . .
3560(60) . . .
3295(57) . . .
2998(55) . . .
2660(52) . . .
2464(50) . . .
2193(47) . . .
1926(44) . . .
1879(43) . . .
1741(42) . . .
1657(41) . . .
1504(39) . . .
1441(38) . . .
1378(37) . . .
1233(35) . . .
1187(34) . . .
1058(33) . . .
1067(33) . . .
1095(33) . . .
996(32) . . .
931(31) . . .
897(30) . . .
889(30) . . .
866(29) . . .
787(28) . . .
806(28) . . .
753(27) . . .
782(28) . . .
684(26) . . .
672(26) . . .
667(26) . . .
637(25) . . .
695(26) . . .
652(26) . . .
634(25) . . .
610(25) . . .
552(23) . . .
583(24) . . .
596(24) . . .
576(24) . . .
566(24) . . .
542(23) . . .
529(23) . . .
548(23) . . .
495(22) . . .
576(24) . . .
507(23) . . .
504(22) . . .
493(22) . . .
487(22) . . .
491(22) . . .
466(22) . . .
502(22) . . .
488(22) . . .
486(22) . . .
491(22) . . .
513(23) . . .
482(22) . . .
478(22) . . .
479(22) . . .
445(21) . . .
468(22) . . .
501(22) . . .
469(22) . . .
462(21) . . .
453(21) . . .
458(21) . . .
460(21) . . .
500(22) . . .
455(21) . . .
468(22) . . .
472(22) . . .
434(21) . . .
482(22) . . .
434(21) . . .
477(22) . . .
446(21) . . .
433(21) . . .
412(20) . . .
464(22) . . .
439(21) . . .
469(22) . . .
443(21) . . .
418(20) . . .
432(21) . . .
422(21) . . .
414(20) . . .
441(21) . . .
366(19) . . .
388(20) . . .
425(21) . . .
405(20) . . .
423(21) . . .
427(21) . . .
390(20) . . .
404(20) . . .
400(20) . . .
432(21) . . .
421(21) . . .
402(20) . . .
371(19) . . .
383(20) . . .
354(19) . . .
408(20) . . .
396(20) . . .
390(20) . . .
371(19) . . .
363(19) . . .
389(20) . . .
393(20) . . .
395(20) . . .
375(19) . . .
377(19) . . .
408(20) . . .
404(20) . . .
393(20) . . .
401(20) . . .
377(19) . . .
400(20) . . .
381(20) . . .
427(21) . . .
382(20) . . .
350(19) . . .
382(20) . . .
370(19) . . .
401(20) . . .
371(19) . . .
391(20) . . .
381(20) . . .
350(19) . . .
356(19) . . .
393(20) . . .
371(19) . . .
404(20) . . .
354(19) . . .
380(19) . . .
385(20) . . .
341(18) . . .
381(20) . . .
343(19) . . .
373(19) . . .
371(19) . . .
366(19) . . .
384(20) . . .
353(19) . . .
385(20) . . .
371(19) . . .
366(19) . . .
347(19) . . .
373(19) . . .
359(19) . . .
354(19) . . .
360(19) . . .
380(19) . . .
365(19) . . .
393(20) . . .
354(19) . . .
387(20) . . .
384(20) . . .
368(19) . . .
340(18) . . .
332(18) . . .
348(19) . . .
377(19) . . .
343(19) . . .
364(19) . . .
364(19) . . .
367(19) . . .
344(19) . . .
355(19) . . .
378(19) . . .
356(19) . . .
354(19) . . .
373(19) . . .
371(19) . . .
378(19) . . .
361(19) . . .
369(19) . . .
364(19) . . .
391(20) . . .
376(19) . . .
339(18) . . .
362(19) . . .
364(19) . . .
368(19) . . .
345(19) . . .
340(18) . . .
340(18) . . .
383(20) . . .
346(19) . . .
357(19) . . .
376(19) . . .
379(19) . . .
337(18) . . .
350(19) . . .
375(19) . . .
356(19) . . .
332(18) . . .
355(19) . . .
364(19) . . .
348(19) . . .
347(19) . . .
358(19) . . .
383(20) . . .
351(19) . . .
334(18) . . .
343(19) . . .
357(19) . . .
366(19) . . .
346(19) . . .
349(19) . . .
341(18) . . .
373(19) . . .
368(19) . . .
349(19) . . .
382(20) . . .
358(19) . . .
330(18) . . .
339(18) . . .
360(19) . . .
353(19) . . .
374(19) . . .
349(19) . . .
366(19) . . .
387(20) . . .
402(20) . . .
385(20) . . .
367(19) . . .
373(19) . . .
378(19) . . .
371(19) . . .
405(20) . . .
358(19) . . .
347(19) . . .
364(19) . . .
399(20) . . .
357(19) . . .
379(19) . . .
364(19) . . .
376(19) . . .
390(20) . . .
367(19) . . .
370(19) . . .
340(18) . . .
351(19) . . .
371(19) . . .
372(19) . . .
352(19) . . .
362(19) . . .
342(18) . . .
363(19) . . .
395(20) . . .
354(19) . . .
367(19) . . .
366(19) . . .
365(19) . . .
340(18) . . .
344(19) . . .
347(19) . . .
362(19) . . .
346(19) . . .
329(18) . . .
335(18) . . .
337(18) . . .
343(19) . . .
326(18) . . .
350(19) . . .
329(18) . . .
342(18) . . .
334(18) . . .
322(18) . . .
328(18) . . .
344(19) . . .
339(18) . . .
362(19) . . .
303(17) . . .
349(19) . . .
338(18) . . .
325(18) . . .
313(18) . . .
306(17) . . .
302(17) . . .
332(18) . . .
342(18) . . .
326(18) . . .
357(19) . . .
312(18) . . .
348(19) . . .
339(18) . . .
320(18) . . .
340(18) . . .
352(19) . . .
337(18) . . .
312(18) . . .
314(18) . . .
318(18) . . .
316(18) . . .
309(18) . . .
333(18) . . .
328(18) . . .
321(18) . . .
357(19) . . .
325(18) . . .
338(18) . . .
340(18) . . .
347(19) . . .
333(18) . . .
319(18) . . .
344(19) . . .
364(19) . . .
347(19) . . .
304(17) . . .
315(18) . . .
339(18) . . .
353(19) . . .
338(18) . . .
358(19) . . .
342(18) . . .
351(19) . . .
344(19) . . .
346(19) . . .
357(19) . . .
349(19) . . .
347(19) . . .
321(18) . . .
345(19) . . .
360(19) . . .
331(18) . . .
326(18) . . .
356(19) . . .
347(19) . . .
335(18) . . .
357(19) . . .
359(19) . . .
363(19) . . .
328(18) . . .
378(19) . . .
321(18) . . .
312(18) . . .
342(18) . . .
326(18) . . .
389(20) . . .
330(18) . . .
329(18) . . .
358(19) . . .
339(18) . . .
385(20) . . .
342(18) . . .
370(19) . . .
352(19) . . .
388(20) . . .
360(19) . . .
382(20) . . .
390(20) . . .
374(19) . . .
379(19) . . .
355(19) . . .
352(19) . . .
348(19) . . .
368(19) . . .
385(20) . . .
360(19) . . .
361(19) . . .
374(19) . . .
353(19) . . .
360(19) . . .
359(19) . . .
366(19) . . .
362(19) . . .
363(19) . . .
342(18) . . .
333(18) . . .
331(18) . . .
343(19) . . .
349(19) . . .
339(18) . . .
377(19) . . .
369(19) . . .
361(19) . . .
353(19) . . .
353(19) . . .
353(19) . . .
317(18) . . .
381(20) . . .
327(18) . . .
351(19) . . .
342(18) . . .
337(18) . . .
397(20) . . .
324(18) . . .
320(18) . . .
351(19) . . .
340(18) . . .
374(19) . . .
377(19) . . .
345(19) . . .
350(19) . . .
372(19) . . .
363(19) . . .
339(18) . . .
330(18) . . .
360(19) . . .
352(19) . . .
353(19) . . .
362(19) . . .
353(19) . . .
373(19) . . .
326(18) . . .
336(18) . . .
343(19) . . .
337(18) . . .
325(18) . . .
344(19) . . .
327(18) . . .
348(19) . . .
348(19) . . .
357(19) . . .
331(18) . . .
336(18) . . .
329(18) . . .
350(19) . . .
333(18) . . .
320(18) . . .
329(18) . . .
339(18) . . .
345(19) . . .
319(18) . . .
315(18) . . .
347(19) . . .
335(18) . . .
334(18) . . .
360(19) . . .
355(19) . . .
355(19) . . .
345(19) . . .
327(18) . . .
356(19) . . .
319(18) . . .
317(18) . . .
337(18) . . .
374(19) . . .
333(18) . . .
349(19) . . .
320(18) . . .
325(18) . . .
291(17) . . .
319(18) . . .
321(18) . . .
333(18) . . .
345(19) . . .
334(18) . . .
323(18) . . .
333(18) . . .
309(18) . . .
324(18) . . .
312(18) . . .
322(18) . . .
320(18) . . .
347(19) . . .
337(18) . . .
322(18) . . .
302(17) . . .
323(18) . . .
337(18) . . .
308(18) . . .
322(18) . . .
338(18) . . .
344(19) . . .
318(18) . . .
327(18) . . .
318(18) . . .
314(18) . . .
325(18) . . .
338(18) . . .
351(19) . . .
326(18) . . .
336(18) . . .
347(19) . . .
342(18) . . .
314(18) . . .
315(18) . . .
332(18) . . .
333(18) . . .
304(17) . . .
314(18) . . .
326(18) . . .
323(18) . . .
319(18) . . .
316(18) . . .
343(19) . . .
334(18) . . .
342(18) . . .
307(18) . . .
350(19) . . .
348(19) . . .
315(18) . . .
316(18) . . .
333(18) . . .
365(19) . . .
340(18) . . .
360(19) . . .
344(19) . . .
315(18) . . .
368(19) . . .
331(18) . . .
346(19) . . .
352(19) . . .
313(18) . . .
332(18) . . .
360(19) . . .
329(18) . . .
354(19) . . .
323(18) . . .
300(17) . . .
323(18) . . .
326(18) . . .
333(18) . . .
338(18) . . .
324(18) . . .
331(18) . . .
297(17) . . .
298(17) . . .
324(18) . . .
325(18) . . .
310(18) . . .
313(18) . . .
319(18) . . .
308(18) . . .
337(18) . . .
274(17) . . .
310(18) . . .
318(18) . . .
307(18) . . .
299(17) . . .
292(17) . . .
278(17) . . .
336(18) . . .
311(18) . . .
326(18) . . .
321(18) . . .
316(18) . . .
329(18) . . .
292(17) . . .
311(18) . . .
317(18) . . .
327(18) . . .
338(18) . . .
328(18) . . .
294(17) . . .
315(18) . . .
330(18) . . .
328(18) . . .
333(18) . . .
320(18) . . .
335(18) . . .
346(19) . . .
317(18) . . .
310(18) . . .
334(18) . . .
313(18) . . .
345(19) . . .
307(18) . . .
356(19) . . .
330(18) . . .
308(18) . . .
333(18) . . .
332(18) . . .
317(18) . . .
316(18) . . .
326(18) . . .
327(18) . . .
361(19) . . .
320(18) . . .
352(19) . . .
317(18) . . .
331(18) . . .
324(18) . . .
322(18) . . .
325(18) . . .
341(18) . . .
337(18) . . .
359(19) . . .
346(19) . . .
322(18) . . .
311(18) . . .
318(18) . . .
343(19) . . .
320(18) . . .
322(18) . . .
348(19) . . .
334(18) . . .
333(18) . . .
334(18) . . .
307(18) . . .
349(19) . . .
334(18) . . .
350(19) . . .
344(19) . . .
348(19) . . .
335(18) . . .
368(19) . . .
360(19) . . .
341(18) . . .
360(19) . . .
368(19) . . .
377(19) . . .
369(19) . . .
324(18) . . .
346(19) . . .
384(20) . . .
350(19) . . .
346(19) . . .
328(18) . . .
340(18) . . .
325(18) . . .
385(20) . . .
346(19) . . .
328(18) . . .
371(19) . . .
342(18) . . .
340(18) . . .
349(19) . . .
360(19) . . .
360(19) . . .
322(18) . . .
346(19) . . .
314(18) . . .
334(18) . . .
313(18) . . .
322(18) . . .
334(18) . . .
317(18) . . .
321(18) . . .
329(18) . . .
351(19) . . .
329(18) . . .
347(19) . . .
333(18) . . .
316(18) . . .
308(18) . . .
333(18) . . .
352(19) . . .
343(19) . . .
356(19) . . .
325(18) . . .
346(19) . . .
320(18) . . .
322(18) . . .
318(18) . . .
335(18) . . .
333(18) . . .
351(19) . . .
356(19) . . .
326(18) . . .
331(18) . . .
331(18) . . .
297(17) . . .
296(17) . . .
327(18) . . .
335(18) . . .
315(18) . . .
337(18) . . .
344(19) . . .
311(18) . . .
312(18) . . .
319(18) . . .
349(19) . . .
324(18) . . .
335(18) . . .
339(18) . . .
317(18) . . .
338(18) . . .
336(18) . . .
340(18) . . .
315(18) . . .
336(18) . . .
342(18) . . .
308(18) . . .
343(19) . . .
315(18) . . .
346(19) . . .
321(18) . . .
328(18) . . .
310(18) . . .
333(18) . . .
325(18) . . .
337(18) . . .
332(18) . . .
300(17) . . .
325(18) . . .
332(18) . . .
341(18) . . .
305(17) . . .
329(18) . . .
303(17) . . .
334(18) . . .
336(18) . . .
329(18) . . .
324(18) . . .
352(19) . . .
334(18) . . .
317(18) . . .
323(18) . . .
319(18) . . .
323(18) . . .
331(18) . . .
348(19) . . .
321(18) . . .
325(18) . . .
360(19) . . .
320(18) . . .
342(18) . . .
314(18) . . .
299(17) . . .
296(17) . . .
338(18) . . .
317(18) . . .
351(19) . . .
297(17) . . .
330(18) . . .
324(18) . . .
298(17) . . .
322(18) . . .
337(18) . . .
328(18) . . .
323(18) . . .
333(18) . . .
314(18) . . .
344(19) . . .
319(18) . . .
286(17) . . .
308(18) . . .
306(17) . . .
311(18) . . .
285(17) . . .
279(17) . . .
343(19) . . .
345(19) . . .
288(17) . . .
309(18) . . .
309(18) . . .
324(18) . . .
310(18) . . .
327(18) . . .
316(18) . . .
278(17) . . .
305(17) . . .
311(18) . . .
328(18) . . .
306(17) . . .
301(17) . . .
300(17) . . .
322(18) . . .
322(18) . . .
283(17) . . .
290(17) . . .
338(18) . . .
328(18) . . .
329(18) . . .
291(17) . . .
325(18) . . .
314(18) . . .
308(18) . . .
320(18) . . .
307(18) . . .
291(17) . . .
286(17) . . .
335(18) . . .
321(18) . . .
294(17) . . .
307(18) . . .
312(18) . . .
346(19) . . .
295(17) . . .
293(17) . . .
305(17) . . .
308(18) . . .
333(18) . . .
324(18) . . .
323(18) . . .
308(18) . . .
316(18) . . .
314(18) . . .
313(18) . . .
277(17) . . .
308(18) . . .
287(17) . . .
297(17) . . .
345(19) . . .
308(18) . . .
292(17) . . .
327(18) . . .
302(17) . . .
339(18) . . .
263(16) . . .
308(18) . . .
287(17) . . .
268(16) . . .
319(18) . . .
295(17) . . .
306(17) . . .
302(17) . . .
336(18) . . .
338(18) . . .
311(18) . . .
335(18) . . .
289(17) . . .
261(16) . . .
299(17) . . .
323(18) . . .
310(18) . . .
314(18) . . .
321(18) . . .
322(18) . . .
303(17) . . .
319(18) . . .
310(18) . . .
304(17) . . .
332(18) . . .
328(18) . . .
331(18) . . .
339(18) . . .
278(17) . . .
310(18) . . .
314(18) . . .
321(18) . . .
326(18) . . .
330(18) . . .
299(17) . . .
322(18) . . .
314(18) . . .
308(18) . . .
316(18) . . .
304(17) . . .
305(17) . . .
297(17) . . .
334(18) . . .
319(18) . . .
277(17) . . .
298(17) . . .
322(18) . . .
326(18) . . .
318(18) . . .
284(17) . . .
303(17) . . .
278(17) . . .
292(17) . . .
315(18) . . .
274(17) . . .
299(17) . . .
306(17) . . .
312(18) . . .
298(17) . . .
285(17) . . .
288(17) . . .
313(18) . . .
306(17) . . .
306(17) . . .
339(18) . . .
308(18) . . .
307(18) . . .
303(17) . . .
321(18) . . .
329(18) . . .
289(17) . . .
279(17) . . .
313(18) . . .
288(17) . . .
292(17) . . .
308(18) . . .
305(17) . . .
300(17) . . .
286(17) . . .
270(16) . . .
266(16) . . .
300(17) . . .
304(17) . . .
310(18) . . .
304(17) . . .
328(18) . . .
332(18) . . .
288(17) . . .
288(17) . . .
288(17) . . .
311(18) . . .
299(17) . . .
323(18) . . .
309(18) . . .
299(17) . . .
300(17) . . .
293(17) . . .
324(18) . . .
305(17) . . .
311(18) . . .
311(18) . . .
289(17) . . .
328(18) . . .
334(18) . . .
312(18) . . .
316(18) . . .
339(18) . . .
324(18) . . .
319(18) . . .
315(18) . . .
325(18) . . .
332(18) . . .
304(17) . . .
340(18) . . .
337(18) . . .
342(18) . . .
319(18) . . .
356(19) . . .
308(18) . . .
370(19) . . .
376(19) . . .
359(19) . . .
346(19) . . .
371(19) . . .
395(20) . . .
397(20) . . .
396(20) . . .
354(19) . . .
370(19) . . .
351(19) . . .
370(19) . . .
365(19) . . .
341(18) . . .
335(18) . . .
347(19) . . .
329(18) . . .
340(18) . . .
374(19) . . .
353(19) . . .
343(19) . . .
348(19) . . .
380(19) . . .
374(19) . . .
357(19) . . .
341(18) . . .
336(18) . . .
365(19) . . .
333(18) . . .
322(18) . . .
332(18) . . .
334(18) . . .
348(19) . . .
342(18) . . .
327(18) . . .
371(19) . . .
348(19) . . .
338(18) . . .
344(19) . . .
330(18) . . .
330(18) . . .
355(19) . . .
303(17) . . .
329(18) . . .
328(18) . . .
352(19) . . .
330(18) . . .
327(18) . . .
358(19) . . .
348(19) . . .
334(18) . . .
313(18) . . .
325(18) . . .
355(19) . . .
333(18) . . .
351(19) . . .
342(18) . . .
355(19) . . .
353(19) . . .
340(18) . . .
343(19) . . .
357(19) . . .
321(18) . . .
346(19) . . .
377(19) . . .
338(18) . . .
341(18) . . .
371(19) . . .
357(19) . . .
331(18) . . .
356(19) . . .
369(19) . . .
339(18) . . .
368(19) . . .
349(19) . . .
354(19) . . .
379(19) . . .
379(19) . . .
365(19) . . .
366(19) . . .
362(19) . . .
332(18) . . .
381(20) . . .
357(19) . . .
365(19) . . .
418(20) . . .
395(20) . . .
370(19) . . .
387(20) . . .
345(19) . . .
365(19) . . .
384(20) . . .
360(19) . . .
378(19) . . .
379(19) . . .
370(19) . . .
372(19) . . .
345(19) . . .
401(20) . . .
351(19) . . .
387(20) . . .
331(18) . . .
342(18) . . .
365(19) . . .
352(19) . . .
376(19) . . .
350(19) . . .
344(19) . . .
328(18) . . .
329(18) . . .
354(19) . . .
331(18) . . .
329(18) . . .
341(18) . . .
359(19) . . .
342(18) . . .
331(18) . . .
311(18) . . .
323(18) . . .
329(18) . . .
316(18) . . .
321(18) . . .
306(17) . . .
301(17) . . .
324(18) . . .
324(18) . . .
317(18) . . .
339(18) . . .
328(18) . . .
324(18) . . .
338(18) . . .
349(19) . . .
322(18) . . .
292(17) . . .
343(19) . . .
312(18) . . .
334(18) . . .
347(19) . . .
332(18) . . .
351(19) . . .
313(18) . . .
342(18) . . .
314(18) . . .
303(17) . . .
325(18) . . .
324(18) . . .
326(18) . . .
318(18) . . .
313(18) . . .
306(17) . . .
335(18) . . .
347(19) . . .
333(18) . . .
281(17) . . .
310(18) . . .
307(18) . . .
346(19) . . .
355(19) . . .
314(18) . . .
309(18) . . .
362(19) . . .
333(18) . . .
355(19) . . .
363(19) . . .
317(18) . . .
315(18) . . .
329(18) . . .
339(18) . . .
314(18) . . .
333(18) . . .
328(18) . . .
328(18) . . .
336(18) . . .
320(18) . . .
316(18) . . .
318(18) . . .
328(18) . . .
330(18) . . .
337(18) . . .
296(17) . . .
330(18) . . .
313(18) . . .
332(18) . . .
305(17) . . .
309(18) . . .
296(17) . . .
344(19) . . .
296(17) . . .
314(18) . . .
311(18) . . .
325(18) . . .
310(18) . . .
336(18) . . .
326(18) . . .
332(18) . . .
308(18) . . .
322(18) . . .
306(17) . . .
338(18) . . .
309(18) . . .
317(18) . . .
302(17) . . .
350(19) . . .
330(18) . . .
327(18) . . .
318(18) . . .
343(19) . . .
320(18) . . .
347(19) . . .
324(18) . . .
304(17) . . .
317(18) . . .
360(19) . . .
314(18) . . .
315(18) . . .
324(18) . . .
320(18) . . .
298(17) . . .
321(18) . . .
346(19) . . .
293(17) . . .
328(18) . . .
343(19) . . .
352(19) . . .
310(18) . . .
372(19) . . .
315(18) . . .
332(18) . . .
334(18) . . .
368(19) . . .
350(19) . . .
381(20) . . .
318(18) . . .
348(19) . . .
326(18) . . .
335(18) . . .
353(19) . . .
329(18) . . .
353(19) . . .
321(18) . . .
354(19) . . .
308(18) . . .
311(18) . . .
306(17) . . .
323(18) . . .
329(18) . . .
312(18) . . .
363(19) . . .
326(18) . . .
331(18) . . .
299(17) . . .
310(18) . . .
354(19) . . .
375(19) . . .
312(18) . . .
318(18) . . .
322(18) . . .
337(18) . . .
334(18) . . .
314(18) . . .
325(18) . . .
344(19) . . .
333(18) . . .
307(18) . . .
347(19) . . .
343(19) . . .
297(17) . . .
336(18) . . .
316(18) . . .
294(17) . . .
354(19) . . .
338(18) . . .
297(17) . . .
350(19) . . .
326(18) . . .
335(18) . . .
337(18) . . .
328(18) . . .
339(18) . . .
340(18) . . .
307(18) . . .
342(18) . . .
323(18) . . .
318(18) . . .
313(18) . . .
334(18) . . .
303(17) . . .
300(17) . . .
302(17) . . .
297(17) . . .
313(18) . . .
315(18) . . .
315(18) . . .
319(18) . . .
293(17) . . .
330(18) . . .
297(17) . . .
338(18) . . .
315(18) . . .
306(17) . . .
324(18) . . .
338(18) . . .
303(17) . . .
329(18) . . .
319(18) . . .
330(18) . . .
323(18) . . .
322(18) . . .
298(17) . . .
316(18) . . .
352(19) . . .
312(18) . . .
316(18) . . .
302(17) . . .
321(18) . . .
343(19) . . .
307(18) . . .
290(17) . . .
309(18) . . .
288(17) . . .
328(18) . . .
316(18) . . .
301(17) . . .
335(18) . . .
351(19) . . .
313(18) . . .
321(18) . . .
321(18) . . .
333(18) . . .
329(18) . . .
350(19) . . .
316(18) . . .
320(18) . . .
341(18) . . .
321(18) . . .
312(18) . . .
314(18) . . .
300(17) . . .
297(17) . . .
338(18) . . .
311(18) . . .
330(18) . . .
353(19) . . .
312(18) . . .
318(18) . . .
355(19) . . .
293(17) . . .
353(19) . . .
326(18) . . .
332(18) . . .
333(18) . . .
315(18) . . .
328(18) . . .
358(19) . . .
315(18) . . .
326(18) . . .
346(19) . . .
339(18) . . .
346(19) . . .
349(19) . . .
318(18) . . .
328(18) . . .
351(19) . . .
348(19) . . .
355(19) . . .
324(18) . . .
321(18) . . .
339(18) . . .
347(19) . . .
374(19) . . .
333(18) . . .
328(18) . . .
325(18) . . .
319(18) . . .
356(19) . . .
334(18) . . .
347(19) . . .
339(18) . . .
337(18) . . .
346(19) . . .
324(18) . . .
314(18) . . .
321(18) . . .
356(19) . . .
330(18) . . .
332(18) . . .
329(18) . . .
325(18) . . .
355(19) . . .
339(18) . . .
350(19) . . .
327(18) . . .
339(18) . . .
336(18) . . .
343(19) . . .
301(17) . . .
326(18) . . .
334(18) . . .
341(18) . . .
327(18) . . .
329(18) . . .
345(19) . . .
318(18) . . .
352(19) . . .
308(18) . . .
348(19) . . .
375(19) . . .
348(19) . . .
341(18) . . .
355(19) . . .
336(18) . . .
369(19) . . .
378(19) . . .
371(19) . . .
350(19) . . .
355(19) . . .
393(20) . . .
357(19) . . .
366(19) . . .
379(19) . . .
389(20) . . .
387(20) . . .
404(20) . . .
394(20) . . .
423(21) . . .
410(20) . . .
412(20) . . .
478(22) . . .
697(26) . . .
470(22) . . .
508(23) . . .
800(28) . . .
637(25) . . .
537(23) . . .
501(22) . . .
486(22) . . .
463(22) . . .
446(21) . . .
502(22) . . .
478(22) . . .
482(22) . . .
512(23) . . .
514(23) . . .
494(22) . . .
523(23) . . .
517(23) . . .
537(23) . . .
530(23) . . .
484(22) . . .
542(23) . . .
557(24) . . .
572(24) . . .
538(23) . . .
538(23) . . .
535(23) . . .
591(24) . . .
583(24) . . .
621(25) . . .
610(25) . . .
703(27) . . .
681(26) . . .
681(26) . . .
719(27) . . .
778(28) . . .
823(29) . . .
888(30) . . .
884(30) . . .
904(30) . . .
1022(32) . . .
1009(32) . . .
1106(33) . . .
1148(34) . . .
1243(35) . . .
1312(36) . . .
1426(38) . . .
1549(39) . . .
1682(41) . . .
1825(43) . . .
1994(45) . . .
2203(47) . . .
2488(50) . . .
2723(52) . . .
3022(55) . . .
3474(59) . . .
3793(62) . . .
4329(66) . . .
4856(70) . . .
5596(75) . . .
6498(81) . . .
7342(86) . . .
8558(93) . . .
10130(100) . . .
11750(110) . . .
14160(120) . . .
16580(130) . . .
19790(140) . . .
22450(150) . . .
25380(160) . . .
27760(170) . . .
29110(170) . . .
29620(170) . . .
29180(170) . . .
27730(170) . . .
25590(160) . . .
22610(150) . . .
19610(140) . . .
16420(130) . . .
13730(120) . . .
11610(110) . . .
9543(98) . . .
8185(90) . . .
6950(83) . . .
5833(76) . . .
5072(71) . . .
4487(67) . . .
3894(62) . . .
3421(58) . . .
3076(55) . . .
2711(52) . . .
2550(50) . . .
2246(47) . . .
2059(45) . . .
1866(43) . . .
1647(41) . . .
1572(40) . . .
1433(38) . . .
1361(37) . . .
1263(36) . . .
1193(35) . . .
1124(34) . . .
1045(32) . . .
1025(32) . . .
971(31) . . .
912(30) . . .
859(29) . . .
847(29) . . .
835(29) . . .
764(28) . . .
749(27) . . .
717(27) . . .
697(26) . . .
619(25) . . .
667(26) . . .
629(25) . . .
593(24) . . .
590(24) . . .
551(23) . . .
566(24) . . .
549(23) . . .
535(23) . . .
527(23) . . .
521(23) . . .
465(22) . . .
489(22) . . .
475(22) . . .
451(21) . . .
470(22) . . .
438(21) . . .
457(21) . . .
457(21) . . .
442(21) . . .
441(21) . . .
418(20) . . .
441(21) . . .
405(20) . . .
423(21) . . .
414(20) . . .
385(20) . . .
434(21) . . .
408(20) . . .
437(21) . . .
368(19) . . .
377(19) . . .
412(20) . . .
395(20) . . .
387(20) . . .
391(20) . . .
368(19) . . .
388(20) . . .
375(19) . . .
384(20) . . .
381(20) . . .
372(19) . . .
364(19) . . .
347(19) . . .
383(20) . . .
404(20) . . .
376(19) . . .
383(20) . . .
346(19) . . .
375(19) . . .
385(20) . . .
395(20) . . .
346(19) . . .
357(19) . . .
325(18) . . .
334(18) . . .
371(19) . . .
386(20) . . .
393(20) . . .
368(19) . . .
363(19) . . .
355(19) . . .
351(19) . . .
366(19) . . .
327(18) . . .
354(19) . . .
361(19) . . .
334(18) . . .
363(19) . . .
371(19) . . .
311(18) . . .
354(19) . . .
353(19) . . .
356(19) . . .
340(18) . . .
355(19) . . .
338(18) . . .
356(19) . . .
330(18) . . .
347(19) . . .
341(18) . . .
362(19) . . .
328(18) . . .
377(19) . . .
373(19) . . .
349(19) . . .
322(18) . . .
360(19) . . .
359(19) . . .
350(19) . . .
364(19) . . .
355(19) . . .
362(19) . . .
329(18) . . .
333(18) . . .
325(18) . . .
356(19) . . .
336(18) . . .
361(19) . . .
326(18) . . .
330(18) . . .
330(18) . . .
334(18) . . .
317(18) . . .
334(18) . . .
337(18) . . .
332(18) . . .
333(18) . . .
352(19) . . .
312(18) . . .
353(19) . . .
348(19) . . .
353(19) . . .
340(18) . . .
324(18) . . .
334(18) . . .
326(18) . . .
334(18) . . .
340(18) . . .
323(18) . . .
309(18) . . .
365(19) . . .
314(18) . . .
328(18) . . .
345(19) . . .
341(18) . . .
339(18) . . .
313(18) . . .
338(18) . . .
334(18) . . .
326(18) . . .
334(18) . . .
308(18) . . .
326(18) . . .
341(18) . . .
316(18) . . .
318(18) . . .
351(19) . . .
327(18) . . .
309(18) . . .
335(18) . . .
335(18) . . .
336(18) . . .
342(18) . . .
348(19) . . .
297(17) . . .
327(18) . . .
336(18) . . .
350(19) . . .
341(18) . . .
322(18) . . .
324(18) . . .
347(19) . . .
375(19) . . .
349(19) . . .
310(18) . . .
329(18) . . .
315(18) . . .
339(18) . . .
340(18) . . .
372(19) . . .
341(18) . . .
342(18) . . .
320(18) . . .
356(19) . . .
331(18) . . .
301(17) . . .
340(18) . . .
346(19) . . .
347(19) . . .
353(19) . . .
329(18) . . .
322(18) . . .
339(18) . . .
333(18) . . .
312(18) . . .
311(18) . . .
328(18) . . .
307(18) . . .
322(18) . . .
332(18) . . .
312(18) . . .
329(18) . . .
326(18) . . .
336(18) . . .
296(17) . . .
289(17) . . .
290(17) . . .
315(18) . . .
300(17) . . .
311(18) . . .
323(18) . . .
306(17) . . .
286(17) . . .
328(18) . . .
318(18) . . .
335(18) . . .
321(18) . . .
291(17) . . .
294(17) . . .
301(17) . . .
312(18) . . .
290(17) . . .
306(17) . . .
315(18) . . .
316(18) . . .
310(18) . . .
303(17) . . .
292(17) . . .
305(17) . . .
316(18) . . .
296(17) . . .
311(18) . . .
314(18) . . .
307(18) . . .
317(18) . . .
317(18) . . .
301(17) . . .
312(18) . . .
316(18) . . .
292(17) . . .
342(18) . . .
310(18) . . .
306(17) . . .
330(18) . . .
315(18) . . .
313(18) . . .
321(18) . . .
352(19) . . .
308(18) . . .
316(18) . . .
316(18) . . .
319(18) . . .
309(18) . . .
299(17) . . .
321(18) . . .
299(17) . . .
324(18) . . .
302(17) . . .
312(18) . . .
309(18) . . .
305(17) . . .
320(18) . . .
322(18) . . .
320(18) . . .
332(18) . . .
295(17) . . .
287(17) . . .
316(18) . . .
325(18) . . .
304(17) . . .
327(18) . . .
330(18) . . .
300(17) . . .
285(17) . . .
331(18) . . .
311(18) . . .
290(17) . . .
309(18) . . .
297(17) . . .
333(18) . . .
319(18) . . .
329(18) . . .
293(17) . . .
315(18) . . .
310(18) . . .
317(18) . . .
299(17) . . .
361(19) . . .
318(18) . . .
329(18) . . .
285(17) . . .
307(18) . . .
303(17) . . .
302(17) . . .
325(18) . . .
319(18) . . .
306(17) . . .
330(18) . . .
329(18) . . .
331(18) . . .
291(17) . . .
325(18) . . .
319(18) . . .
309(18) . . .
319(18) . . .
324(18) . . .
300(17) . . .
290(17) . . .
349(19) . . .
304(17) . . .
306(17) . . .
295(17) . . .
286(17) . . .
317(18) . . .
271(16) . . .
301(17) . . .
304(17) . . .
285(17) . . .
300(17) . . .
316(18) . . .
295(17) . . .
284(17) . . .
312(18) . . .
320(18) . . .
325(18) . . .
309(18) . . .
278(17) . . .
318(18) . . .
299(17) . . .
327(18) . . .
295(17) . . .
313(18) . . .
327(18) . . .
322(18) . . .
345(19) . . .
353(19) . . .
355(19) . . .
364(19) . . .
345(19) . . .
340(18) . . .
327(18) . . .
326(18) . . .
346(19) . . .
369(19) . . .
321(18) . . .
301(17) . . .
336(18) . . .
325(18) . . .
346(19) . . .
313(18) . . .
292(17) . . .
306(17) . . .
334(18) . . .
300(17) . . .
307(18) . . .
339(18) . . .
325(18) . . .
305(17) . . .
323(18) . . .
313(18) . . .
272(16) . . .
330(18) . . .
317(18) . . .
290(17) . . .
281(17) . . .
302(17) . . .
324(18) . . .
280(17) . . .
317(18) . . .
314(18) . . .
308(18) . . .
316(18) . . .
277(17) . . .
312(18) . . .
318(18) . . .
308(18) . . .
314(18) . . .
293(17) . . .
315(18) . . .
333(18) . . .
313(18) . . .
288(17) . . .
310(18) . . .
334(18) . . .
308(18) . . .
320(18) . . .
293(17) . . .
279(17) . . .
353(19) . . .
320(18) . . .
332(18) . . .
311(18) . . .
340(18) . . .
334(18) . . .
304(17) . . .
288(17) . . .
302(17) . . .
305(17) . . .
304(17) . . .
279(17) . . .
310(18) . . .
290(17) . . .
289(17) . . .
308(18) . . .
315(18) . . .
309(18) . . .
320(18) . . .
314(18) . . .
281(17) . . .
298(17) . . .
308(18) . . .
290(17) . . .
291(17) . . .
310(18) . . .
296(17) . . .
318(18) . . .
320(18) . . .
314(18) . . .
314(18) . . .
306(17) . . .
325(18) . . .
295(17) . . .
312(18) . . .
294(17) . . .
299(17) . . .
282(17) . . .
315(18) . . .
307(18) . . .
314(18) . . .
296(17) . . .
296(17) . . .
321(18) . . .
333(18) . . .
310(18) . . .
305(17) . . .
320(18) . . .
294(17) . . .
303(17) . . .
308(18) . . .
328(18) . . .
336(18) . . .
293(17) . . .
303(17) . . .
311(18) . . .
282(17) . . .
321(18) . . .
323(18) . . .
314(18) . . .
308(18) . . .
322(18) . . .
346(19) . . .
320(18) . . .
317(18) . . .
297(17) . . .
326(18) . . .
309(18) . . .
299(17) . . .
313(18) . . .
299(17) . . .
332(18) . . .
306(17) . . .
311(18) . . .
313(18) . . .
326(18) . . .
343(19) . . .
321(18) . . .
300(17) . . .
321(18) . . .
331(18) . . .
318(18) . . .
297(17) . . .
312(18) . . .
322(18) . . .
330(18) . . .
341(18) . . .
323(18) . . .
319(18) . . .
346(19) . . .
327(18) . . .
346(19) . . .
348(19) . . .
305(17) . . .
322(18) . . .
334(18) . . .
346(19) . . .
342(18) . . .
327(18) . . .
340(18) . . .
327(18) . . .
332(18) . . .
331(18) . . .
331(18) . . .
335(18) . . .
327(18) . . .
313(18) . . .
328(18) . . .
335(18) . . .
353(19) . . .
311(18) . . .
334(18) . . .
324(18) . . .
319(18) . . .
335(18) . . .
322(18) . . .
314(18) . . .
322(18) . . .
323(18) . . .
334(18) . . .
335(18) . . .
328(18) . . .
321(18) . . .
319(18) . . .
331(18) . . .
334(18) . . .
312(18) . . .
330(18) . . .
329(18) . . .
304(17) . . .
340(18) . . .
367(19) . . .
320(18) . . .
328(18) . . .
331(18) . . .
361(19) . . .
302(17) . . .
300(17) . . .
332(18) . . .
321(18) . . .
331(18) . . .
316(18) . . .
332(18) . . .
327(18) . . .
343(19) . . .
338(18) . . .
331(18) . . .
318(18) . . .
317(18) . . .
345(19) . . .
327(18) . . .
318(18) . . .
326(18) . . .
353(19) . . .
325(18) . . .
324(18) . . .
345(19) . . .
351(19) . . .
322(18) . . .
356(19) . . .
335(18) . . .
375(19) . . .
358(19) . . .
370(19) . . .
332(18) . . .
343(19) . . .
364(19) . . .
320(18) . . .
347(19) . . .
330(18) . . .
350(19) . . .
337(18) . . .
348(19) . . .
326(18) . . .
345(19) . . .
341(18) . . .
344(19) . . .
349(19) . . .
354(19) . . .
347(19) . . .
332(18) . . .
337(18) . . .
329(18) . . .
331(18) . . .
353(19) . . .
311(18) . . .
305(17) . . .
344(19) . . .
331(18) . . .
322(18) . . .
327(18) . . .
314(18) . . .
349(19) . . .
326(18) . . .
311(18) . . .
334(18) . . .
311(18) . . .
291(17) . . .
312(18) . . .
299(17) . . .
328(18) . . .
299(17) . . .
318(18) . . .
356(19) . . .
300(17) . . .
299(17) . . .
339(18) . . .
338(18) . . .
290(17) . . .
288(17) . . .
304(17) . . .
302(17) . . .
313(18) . . .
321(18) . . .
301(17) . . .
306(17) . . .
325(18) . . .
301(17) . . .
330(18) . . .
315(18) . . .
298(17) . . .
335(18) . . .
298(17) . . .
300(17) . . .
314(18) . . .
309(18) . . .
312(18) . . .
319(18) . . .
334(18) . . .
296(17) . . .
322(18) . . .
318(18) . . .
345(19) . . .
334(18) . . .
329(18) . . .
318(18) . . .
333(18) . . .
332(18) . . .
319(18) . . .
326(18) . . .
301(17) . . .
368(19) . . .
344(19) . . .
306(17) . . .
329(18) . . .
334(18) . . .
331(18) . . .
295(17) . . .
344(19) . . .
302(17) . . .
343(19) . . .
339(18) . . .
352(19) . . .
336(18) . . .
312(18) . . .
309(18) . . .
328(18) . . .
338(18) . . .
338(18) . . .
352(19) . . .
352(19) . . .
314(18) . . .
327(18) . . .
345(19) . . .
322(18) . . .
335(18) . . .
341(18) . . .
313(18) . . .
312(18) . . .
291(17) . . .
283(17) . . .
280(17) . . .
307(18) . . .
336(18) . . .
320(18) . . .
328(18) . . .
303(17) . . .
286(17) . . .
329(18) . . .
300(17) . . .
302(17) . . .
329(18) . . .
311(18) . . .
312(18) . . .
243(16) . . .
289(17) . . .
330(18) . . .
311(18) . . .
296(17) . . .
311(18) . . .
304(17) . . .
279(17) . . .
282(17) . . .
300(17) . . .
283(17) . . .
272(16) . . .
290(17) . . .
293(17) . . .
290(17) . . .
283(17) . . .
311(18) . . .
307(18) . . .
293(17) . . .
303(17) . . .
273(17) . . .
287(17) . . .
328(18) . . .
320(18) . . .
277(17) . . .
286(17) . . .
297(17) . . .
294(17) . . .
295(17) . . .
277(17) . . .
295(17) . . .
279(17) . . .
265(16) . . .
299(17) . . .
287(17) . . .
293(17) . . .
279(17) . . .
308(18) . . .
301(17) . . .
304(17) . . .
281(17) . . .
309(18) . . .
281(17) . . .
286(17) . . .
295(17) . . .
292(17) . . .
306(17) . . .
253(16) . . .
281(17) . . .
290(17) . . .
316(18) . . .
272(16) . . .
307(18) . . .
248(16) . . .
276(17) . . .
298(17) . . .
301(17) . . .
279(17) . . .
263(16) . . .
277(17) . . .
276(17) . . .
294(17) . . .
291(17) . . .
309(18) . . .
301(17) . . .
306(17) . . .
317(18) . . .
276(17) . . .
313(18) . . .
292(17) . . .
320(18) . . .
302(17) . . .
296(17) . . .
276(17) . . .
301(17) . . .
305(17) . . .
302(17) . . .
307(18) . . .
288(17) . . .
310(18) . . .
294(17) . . .
311(18) . . .
312(18) . . .
274(17) . . .
296(17) . . .
312(18) . . .
288(17) . . .
294(17) . . .
279(17) . . .
303(17) . . .
307(18) . . .
328(18) . . .
301(17) . . .
297(17) . . .
285(17) . . .
275(17) . . .
306(17) . . .
273(17) . . .
262(16) . . .
298(17) . . .
293(17) . . .
303(17) . . .
277(17) . . .
286(17) . . .
279(17) . . .
275(17) . . .
263(16) . . .
286(17) . . .
288(17) . . .
298(17) . . .
296(17) . . .
261(16) . . .
259(16) . . .
283(17) . . .
282(17) . . .
266(16) . . .
284(17) . . .
281(17) . . .
281(17) . . .
292(17) . . .
270(16) . . .
279(17) . . .
303(17) . . .
267(16) . . .
304(17) . . .
304(17) . . .
299(17) . . .
296(17) . . .
313(18) . . .
282(17) . . .
323(18) . . .
315(18) . . .
319(18) . . .
309(18) . . .
300(17) . . .
329(18) . . .
323(18) . . .
294(17) . . .
300(17) . . .
300(17) . . .
325(18) . . .
295(17) . . .
328(18) . . .
297(17) . . .
346(19) . . .
317(18) . . .
287(17) . . .
305(17) . . .
335(18) . . .
322(18) . . .
312(18) . . .
294(17) . . .
311(18) . . .
295(17) . . .
301(17) . . .
300(17) . . .
318(18) . . .
319(18) . . .
311(18) . . .
305(17) . . .
297(17) . . .
310(18) . . .
308(18) . . .
282(17) . . .
299(17) . . .
330(18) . . .
302(17) . . .
302(17) . . .
303(17) . . .
344(19) . . .
331(18) . . .
335(18) . . .
326(18) . . .
278(17) . . .
312(18) . . .
332(18) . . .
317(18) . . .
330(18) . . .
339(18) . . .
320(18) . . .
330(18) . . .
342(18) . . .
318(18) . . .
317(18) . . .
300(17) . . .
334(18) . . .
330(18) . . .
324(18) . . .
324(18) . . .
309(18) . . .
342(18) . . .
307(18) . . .
322(18) . . .
341(18) . . .
356(19) . . .
339(18) . . .
318(18) . . .
335(18) . . .
337(18) . . .
272(16) . . .
339(18) . . .
329(18) . . .
365(19) . . .
322(18) . . .
320(18) . . .
295(17) . . .
319(18) . . .
301(17) . . .
343(19) . . .
348(19) . . .
342(18) . . .
317(18) . . .
320(18) . . .
353(19) . . .
320(18) . . .
290(17) . . .
326(18) . . .
326(18) . . .
294(17) . . .
322(18) . . .
320(18) . . .
306(17) . . .
297(17) . . .
287(17) . . .
357(19) . . .
340(18) . . .
347(19) . . .
331(18) . . .
337(18) . . .
328(18) . . .
328(18) . . .
302(17) . . .
358(19) . . .
330(18) . . .
349(19) . . .
314(18) . . .
325(18) . . .
330(18) . . .
338(18) . . .
322(18) . . .
325(18) . . .
300(17) . . .
350(19) . . .
334(18) . . .
343(19) . . .
341(18) . . .
377(19) . . .
358(19) . . .
354(19) . . .
369(19) . . .
347(19) . . .
316(18) . . .
324(18) . . .
338(18) . . .
314(18) . . .
303(17) . . .
337(18) . . .
310(18) . . .
336(18) . . .
336(18) . . .
361(19) . . .
338(18) . . .
345(19) . . .
331(18) . . .
345(19) . . .
336(18) . . .
341(18) . . .
363(19) . . .
365(19) . . .
387(20) . . .
337(18) . . .
381(20) . . .
377(19) . . .
416(20) . . .
365(19) . . .
384(20) . . .
433(21) . . .
426(21) . . .
411(20) . . .
437(21) . . .
436(21) . . .
453(21) . . .
429(21) . . .
432(21) . . .
443(21) . . .
497(22) . . .
523(23) . . .
477(22) . . .
507(23) . . .
567(24) . . .
558(24) . . .
631(25) . . .
670(26) . . .
652(26) . . .
643(25) . . .
703(27) . . .
735(27) . . .
793(28) . . .
752(27) . . .
837(29) . . .
916(30) . . .
980(31) . . .
1061(33) . . .
1175(34) . . .
1228(35) . . .
1372(37) . . .
1481(38) . . .
1572(40) . . .
1771(42) . . .
1928(44) . . .
2087(46) . . .
2429(49) . . .
2752(52) . . .
3146(56) . . .
3523(59) . . .
3993(63) . . .
4618(68) . . .
5505(74) . . .
6314(79) . . .
7215(85) . . .
8663(93) . . .
10210(100) . . .
11830(110) . . .
13450(120) . . .
14990(120) . . .
16130(130) . . .
16670(130) . . .
16830(130) . . .
16410(130) . . .
15120(120) . . .
13420(120) . . .
11860(110) . . .
10470(100) . . .
8685(93) . . .
7510(87) . . .
6413(80) . . .
5294(73) . . .
4408(66) . . .
3894(62) . . .
3170(56) . . .
2943(54) . . .
2664(52) . . .
2325(48) . . .
2024(45) . . .
1780(42) . . .
1653(41) . . .
1563(40) . . .
1374(37) . . .
1284(36) . . .
1147(34) . . .
1025(32) . . .
1025(32) . . .
988(31) . . .
857(29) . . .
893(30) . . .
823(29) . . .
757(28) . . .
736(27) . . .
698(26) . . .
634(25) . . .
579(24) . . .
559(24) . . .
600(24) . . .
562(24) . . .
515(23) . . .
539(23) . . .
530(23) . . .
523(23) . . .
464(22) . . .
463(22) . . .
465(22) . . .
427(21) . . .
407(20) . . .
416(20) . . .
422(21) . . .
411(20) . . .
373(19) . . .
387(20) . . .
368(19) . . .
383(20) . . .
365(19) . . .
382(20) . . .
392(20) . . .
348(19) . . .
367(19) . . .
359(19) . . .
355(19) . . .
351(19) . . .
362(19) . . .
327(18) . . .
339(18) . . .
326(18) . . .
359(19) . . .
347(19) . . .
351(19) . . .
372(19) . . .
374(19) . . .
330(18) . . .
339(18) . . .
347(19) . . .
345(19) . . .
330(18) . . .
343(19) . . .
355(19) . . .
323(18) . . .
310(18) . . .
324(18) . . .
353(19) . . .
337(18) . . .
314(18) . . .
324(18) . . .
328(18) . . .
335(18) . . .
321(18) . . .
309(18) . . .
329(18) . . .
319(18) . . .
338(18) . . .
345(19) . . .
338(18) . . .
315(18) . . .
321(18) . . .
318(18) . . .
307(18) . . .
307(18) . . .
289(17) . . .
310(18) . . .
278(17) . . .
325(18) . . .
288(17) . . .
311(18) . . .
313(18) . . .
313(18) . . .
295(17) . . .
292(17) . . .
263(16) . . .
306(17) . . .
310(18) . . .
284(17) . . .
296(17) . . .
314(18) . . .
290(17) . . .
282(17) . . .
311(18) . . .
308(18) . . .
322(18) . . .
298(17) . . .
310(18) . . .
294(17) . . .
308(18) . . .
295(17) . . .
324(18) . . .
295(17) . . .
297(17) . . .
280(17) . . .
300(17) . . .
306(17) . . .
307(18) . . .
308(18) . . .
287(17) . . .
307(18) . . .
295(17) . . .
298(17) . . .
294(17) . . .
270(16) . . .
308(18) . . .
315(18) . . .
311(18) . . .
289(17) . . .
310(18) . . .
299(17) . . .
294(17) . . .
281(17) . . .
316(18) . . .
298(17) . . .
334(18) . . .
305(17) . . .
317(18) . . .
298(17) . . .
301(17) . . .
318(18) . . .
326(18) . . .
284(17) . . .
296(17) . . .
297(17) . . .
297(17) . . .
273(17) . . .
285(17) . . .
275(17) . . .
287(17) . . .
296(17) . . .
274(17) . . .
276(17) . . .
306(17) . . .
275(17) . . .
281(17) . . .
299(17) . . .
274(17) . . .
302(17) . . .
255(16) . . .
298(17) . . .
276(17) . . .
276(17) . . .
270(16) . . .
262(16) . . .
290(17) . . .
290(17) . . .
290(17) . . .
265(16) . . .
297(17) . . .
285(17) . . .
282(17) . . .
259(16) . . .
286(17) . . .
287(17) . . .
287(17) . . .
283(17) . . .
278(17) . . .
288(17) . . .
303(17) . . .
265(16) . . .
282(17) . . .
317(18) . . .
288(17) . . .
289(17) . . .
299(17) . . .
307(18) . . .
281(17) . . .
318(18) . . .
275(17) . . .
276(17) . . .
307(18) . . .
293(17) . . .
297(17) . . .
282(17) . . .
300(17) . . .
297(17) . . .
277(17) . . .
286(17) . . .
305(17) . . .
283(17) . . .
276(17) . . .
289(17) . . .
290(17) . . .
271(16) . . .
280(17) . . .
319(18) . . .
292(17) . . .
286(17) . . .
285(17) . . .
285(17) . . .
289(17) . . .
316(18) . . .
294(17) . . .
301(17) . . .
288(17) . . .
296(17) . . .
266(16) . . .
256(16) . . .
283(17) . . .
297(17) . . .
286(17) . . .
287(17) . . .
294(17) . . .
277(17) . . .
312(18) . . .
272(16) . . .
275(17) . . .
284(17) . . .
292(17) . . .
265(16) . . .
282(17) . . .
279(17) . . .
281(17) . . .
293(17) . . .
285(17) . . .
260(16) . . .
261(16) . . .
280(17) . . .
290(17) . . .
289(17) . . .
304(17) . . .
252(16) . . .
268(16) . . .
288(17) . . .
286(17) . . .
274(17) . . .
274(17) . . .
247(16) . . .
286(17) . . .
296(17) . . .
275(17) . . .
271(16) . . .
262(16) . . .
253(16) . . .
258(16) . . .
300(17) . . .
262(16) . . .
294(17) . . .
264(16) . . .
272(16) . . .
274(17) . . .
279(17) . . .
284(17) . . .
267(16) . . .
286(17) . . .
296(17) . . .
248(16) . . .
269(16) . . .
275(17) . . .
280(17) . . .
285(17) . . .
285(17) . . .
261(16) . . .
264(16) . . .
267(16) . . .
261(16) . . .
268(16) . . .
312(18) . . .
288(17) . . .
296(17) . . .
269(16) . . .
288(17) . . .
243(16) . . .
271(16) . . .
264(16) . . .
285(17) . . .
269(16) . . .
292(17) . . .
257(16) . . .
252(16) . . .
263(16) . . .
245(16) . . .
262(16) . . .
284(17) . . .
252(16) . . .
287(17) . . .
251(16) . . .
271(16) . . .
287(17) . . .
277(17) . . .
294(17) . . .
247(16) . . .
261(16) . . .
281(17) . . .
255(16) . . .
260(16) . . .
260(16) . . .
282(17) . . .
263(16) . . .
278(17) . . .
267(16) . . .
269(16) . . .
253(16) . . .
249(16) . . .
284(17) . . .
254(16) . . .
251(16) . . .
274(17) . . .
282(17) . . .
283(17) . . .
261(16) . . .
281(17) . . .
255(16) . . .
278(17) . . .
264(16) . . .
264(16) . . .
291(17) . . .
287(17) . . .
313(18) . . .
304(17) . . .
302(17) . . .
283(17) . . .
264(16) . . .
278(17) . . .
278(17) . . .
281(17) . . .
279(17) . . .
292(17) . . .
279(17) . . .
287(17) . . .
307(18) . . .
306(17) . . .
289(17) . . .
296(17) . . .
281(17) . . .
282(17) . . .
274(17) . . .
276(17) . . .
289(17) . . .
304(17) . . .
275(17) . . .
268(16) . . .
246(16) . . .
313(18) . . .
294(17) . . .
279(17) . . .
263(16) . . .
272(16) . . .
301(17) . . .
286(17) . . .
274(17) . . .
265(16) . . .
283(17) . . .
291(17) . . .
243(16) . . .
266(16) . . .
292(17) . . .
265(16) . . .
266(16) . . .
286(17) . . .
292(17) . . .
244(16) . . .
296(17) . . .
302(17) . . .
280(17) . . .
272(16) . . .
281(17) . . .
283(17) . . .
297(17) . . .
266(16) . . .
297(17) . . .
287(17) . . .
282(17) . . .
293(17) . . .
317(18) . . .
273(17) . . .
301(17) . . .
303(17) . . .
292(17) . . .
275(17) . . .
288(17) . . .
285(17) . . .
281(17) . . .
284(17) . . .
251(16) . . .
305(17) . . .
286(17) . . .
297(17) . . .
264(16) . . .
282(17) . . .
288(17) . . .
300(17) . . .
302(17) . . .
254(16) . . .
274(17) . . .
283(17) . . .
311(18) . . .
271(16) . . .
275(17) . . .
298(17) . . .
278(17) . . .
289(17) . . .
275(17) . . .
287(17) . . .
305(17) . . .
263(16) . . .
276(17) . . .
275(17) . . .
261(16) . . .
317(18) . . .
275(17) . . .
277(17) . . .
261(16) . . .
295(17) . . .
281(17) . . .
277(17) . . .
275(17) . . .
277(17) . . .
269(16) . . .
272(16) . . .
252(16) . . .
269(16) . . .
272(16) . . .
283(17) . . .
273(17) . . .
278(17) . . .
284(17) . . .
260(16) . . .
239(15) . . .
271(16) . . .
261(16) . . .
284(17) . . .
275(17) . . .
291(17) . . .
266(16) . . .
272(16) . . .
250(16) . . .
273(17) . . .
272(16) . . .
266(16) . . .
268(16) . . .
247(16) . . .
260(16) . . .
281(17) . . .
247(16) . . .
242(16) . . .
266(16) . . .
278(17) . . .
284(17) . . .
278(17) . . .
287(17) . . .
267(16) . . .
264(16) . . .
276(17) . . .
265(16) . . .
261(16) . . .
282(17) . . .
280(17) . . .
258(16) . . .
266(16) . . .
244(16) . . .
259(16) . . .
261(16) . . .
271(16) . . .
258(16) . . .
251(16) . . .
286(17) . . .
274(17) . . .
292(17) . . .
247(16) . . .
267(16) . . .
271(16) . . .
285(17) . . .
276(17) . . .
291(17) . . .
269(16) . . .
257(16) . . .
256(16) . . .
268(16) . . .
258(16) . . .
305(17) . . .
284(17) . . .
254(16) . . .
254(16) . . .
282(17) . . .
281(17) . . .
288(17) . . .
275(17) . . .
304(17) . . .
289(17) . . .
288(17) . . .
255(16) . . .
258(16) . . .
305(17) . . .
287(17) . . .
297(17) . . .
279(17) . . .
281(17) . . .
302(17) . . .
275(17) . . .
278(17) . . .
281(17) . . .
273(17) . . .
284(17) . . .
288(17) . . .
276(17) . . .
275(17) . . .
274(17) . . .
288(17) . . .
258(16) . . .
267(16) . . .
275(17) . . .
255(16) . . .
260(16) . . .
288(17) . . .
277(17) . . .
278(17) . . .
271(16) . . .
256(16) . . .
273(17) . . .
271(16) . . .
267(16) . . .
264(16) . . .
255(16) . . .
271(16) . . .
295(17) . . .
299(17) . . .
319(18) . . .
281(17) . . .
282(17) . . .
292(17) . . .
284(17) . . .
279(17) . . .
289(17) . . .
267(16) . . .
313(18) . . .
277(17) . . .
281(17) . . .
288(17) . . .
280(17) . . .
274(17) . . .
279(17) . . .
248(16) . . .
249(16) . . .
258(16) . . .
258(16) . . .
269(16) . . .
246(16) . . .
268(16) . . .
258(16) . . .
274(17) . . .
252(16) . . .
275(17) . . .
279(17) . . .
259(16) . . .
228(15) . . .
259(16) . . .
258(16) . . .
254(16) . . .
245(16) . . .
251(16) . . .
248(16) . . .
249(16) . . .
256(16) . . .
258(16) . . .
269(16) . . .
264(16) . . .
264(16) . . .
254(16) . . .
289(17) . . .
289(17) . . .
240(15) . . .
255(16) . . .
246(16) . . .
251(16) . . .
274(17) . . .
252(16) . . .
255(16) . . .
268(16) . . .
252(16) . . .
259(16) . . .
291(17) . . .
270(16) . . .
272(16) . . .
268(16) . . .
265(16) . . .
285(17) . . .
283(17) . . .
269(16) . . .
262(16) . . .
265(16) . . .
284(17) . . .
288(17) . . .
250(16) . . .
281(17) . . .
271(16) . . .
276(17) . . .
265(16) . . .
267(16) . . .
269(16) . . .
253(16) . . .
225(15) . . .
234(15) . . .
285(17) . . .
284(17) . . .
239(15) . . .
269(16) . . .
284(17) . . .
255(16) . . .
263(16) . . .
271(16) . . .
290(17) . . .
251(16) . . .
270(16) . . .
266(16) . . .
273(17) . . .
287(17) . . .
283(17) . . .
277(17) . . .
248(16) . . .
262(16) . . .
225(15) . . .
275(17) . . .
276(17) . . .
268(16) . . .
283(17) . . .
275(17) . . .
277(17) . . .
257(16) . . .
267(16) . . .
265(16) . . .
283(17) . . .
263(16) . . .
257(16) . . .
252(16) . . .
265(16) . . .
293(17) . . .
282(17) . . .
291(17) . . .
265(16) . . .
249(16) . . .
273(17) . . .
259(16) . . .
295(17) . . .
256(16) . . .
281(17) . . .
250(16) . . .
280(17) . . .
251(16) . . .
265(16) . . .
267(16) . . .
287(17) . . .
256(16) . . .
246(16) . . .
256(16) . . .
280(17) . . .
277(17) . . .
247(16) . . .
247(16) . . .
256(16) . . .
263(16) . . .
270(16) . . .
259(16) . . .
254(16) . . .
261(16) . . .
291(17) . . .
252(16) . . .
247(16) . . .
283(17) . . .
280(17) . . .
239(15) . . .
270(16) . . .
249(16) . . .
286(17) . . .
268(16) . . .
266(16) . . .
247(16) . . .
273(17) . . .
274(17) . . .
253(16) . . .
244(16) . . .
259(16) . . .
248(16) . . .
273(17) . . .
287(17) . . .
282(17) . . .
255(16) . . .
247(16) . . .
255(16) . . .
257(16) . . .
261(16) . . .
247(16) . . .
247(16) . . .
275(17) . . .
272(16) . . .
260(16) . . .
254(16) . . .
256(16) . . .
258(16) . . .
271(16) . . .
258(16) . . .
258(16) . . .
247(16) . . .
284(17) . . .
269(16) . . .
279(17) . . .
226(15) . . .
250(16) . . .
258(16) . . .
256(16) . . .
259(16) . . .
228(15) . . .
248(16) . . .
283(17) . . .
248(16) . . .
245(16) . . .
262(16) . . .
239(15) . . .
248(16) . . .
241(16) . . .
262(16) . . .
239(15) . . .
284(17) . . .
257(16) . . .
244(16) . . .
264(16) . . .
249(16) . . .
271(16) . . .
256(16) . . .
262(16) . . .
271(16) . . .
275(17) . . .
280(17) . . .
258(16) . . .
252(16) . . .
243(16) . . .
245(16) . . .
266(16) . . .
262(16) . . .
275(17) . . .
239(15) . . .
267(16) . . .
269(16) . . .
265(16) . . .
283(17) . . .
254(16) . . .
281(17) . . .
254(16) . . .
269(16) . . .
266(16) . . .
280(17) . . .
257(16) . . .
246(16) . . .
252(16) . . .
244(16) . . .
258(16) . . .
265(16) . . .
253(16) . . .
273(17) . . .
282(17) . . .
237(15) . . .
240(15) . . .
260(16) . . .
266(16) . . .
248(16) . . .
273(17) . . .
239(15) . . .
266(16) . . .
257(16) . . .
258(16) . . .
262(16) . . .
236(15) . . .
251(16) . . .
252(16) . . .
235(15) . . .
255(16) . . .
247(16) . . .
264(16) . . .
243(16) . . .
270(16) . . .
253(16) . . .
244(16) . . .
255(16) . . .
269(16) . . .
247(16) . . .
256(16) . . .
259(16) . . .
245(16) . . .
256(16) . . .
260(16) . . .
231(15) . . .
273(17) . . .
262(16) . . .
235(15) . . .
234(15) . . .
299(17) . . .
265(16) . . .
283(17) . . .
241(16) . . .
220(15) . . .
275(17) . . .
237(15) . . .
252(16) . . .
251(16) . . .
263(16) . . .
238(15) . . .
260(16) . . .
261(16) . . .
238(15) . . .
257(16) . . .
243(16) . . .
276(17) . . .
258(16) . . .
274(17) . . .
242(16) . . .
269(16) . . .
272(16) . . .
240(15) . . .
240(15) . . .
234(15) . . .
252(16) . . .
243(16) . . .
229(15) . . .
285(17) . . .
229(15) . . .
247(16) . . .
226(15) . . .
270(16) . . .
247(16) . . .
281(17) . . .
241(16) . . .
262(16) . . .
246(16) . . .
255(16) . . .
248(16) . . .
272(16) . . .
233(15) . . .
263(16) . . .
268(16) . . .
257(16) . . .
270(16) . . .
246(16) . . .
245(16) . . .
259(16) . . .
263(16) . . .
259(16) . . .
269(16) . . .
254(16) . . .
259(16) . . .
252(16) . . .
261(16) . . .
246(16) . . .
257(16) . . .
243(16) . . .
254(16) . . .
277(17) . . .
237(15) . . .
239(15) . . .
257(16) . . .
246(16) . . .
273(17) . . .
266(16) . . .
269(16) . . .
277(17) . . .
259(16) . . .
260(16) . . .
268(16) . . .
252(16) . . .
263(16) . . .
246(16) . . .
284(17) . . .
245(16) . . .
268(16) . . .
246(16) . . .
269(16) . . .
272(16) . . .
271(16) . . .
264(16) . . .
254(16) . . .
265(16) . . .
278(17) . . .
263(16) . . .
260(16) . . .
278(17) . . .
280(17) . . .
250(16) . . .
257(16) . . .
250(16) . . .
262(16) . . .
260(16) . . .
293(17) . . .
277(17) . . .
242(16) . . .
261(16) . . .
285(17) . . .
258(16) . . .
258(16) . . .
262(16) . . .
249(16) . . .
230(15) . . .
277(17) . . .
277(17) . . .
248(16) . . .
249(16) . . .
270(16) . . .
254(16) . . .
242(16) . . .
273(17) . . .
269(16) . . .
279(17) . . .
252(16) . . .
278(17) . . .
270(16) . . .
257(16) . . .
295(17) . . .
264(16) . . .
238(15) . . .
251(16) . . .
253(16) . . .
253(16) . . .
256(16) . . .
277(17) . . .
261(16) . . .
261(16) . . .
261(16) . . .
270(16) . . .
249(16) . . .
240(15) . . .
213(15) . . .
269(16) . . .
276(17) . . .
256(16) . . .
245(16) . . .
264(16) . . .
247(16) . . .
254(16) . . .
280(17) . . .
268(16) . . .
252(16) . . .
261(16) . . .
233(15) . . .
264(16) . . .
253(16) . . .
252(16) . . .
254(16) . . .
268(16) . . .
276(17) . . .
259(16) . . .
230(15) . . .
257(16) . . .
258(16) . . .
269(16) . . .
272(16) . . .
263(16) . . .
290(17) . . .
270(16) . . .
267(16) . . .
254(16) . . .
287(17) . . .
265(16) . . .
278(17) . . .
292(17) . . .
282(17) . . .
258(16) . . .
282(17) . . .
285(17) . . .
272(16) . . .
263(16) . . .
281(17) . . .
283(17) . . .
288(17) . . .
294(17) . . .
273(17) . . .
276(17) . . .
269(16) . . .
243(16) . . .
277(17) . . .
262(16) . . .
298(17) . . .
257(16) . . .
286(17) . . .
290(17) . . .
254(16) . . .
281(17) . . .
268(16) . . .
259(16) . . .
276(17) . . .
288(17) . . .
270(16) . . .
235(15) . . .
247(16) . . .
274(17) . . .
297(17) . . .
264(16) . . .
291(17) . . .
267(16) . . .
276(17) . . .
257(16) . . .
269(16) . . .
250(16) . . .
236(15) . . .
283(17) . . .
293(17) . . .
254(16) . . .
273(17) . . .
245(16) . . .
277(17) . . .
310(18) . . .
294(17) . . .
290(17) . . .
267(16) . . .
271(16) . . .
253(16) . . .
262(16) . . .
286(17) . . .
261(16) . . .
282(17) . . .
272(16) . . .
298(17) . . .
269(16) . . .
262(16) . . .
282(17) . . .
250(16) . . .
269(16) . . .
291(17) . . .
285(17) . . .
282(17) . . .
280(17) . . .
271(16) . . .
272(16) . . .
271(16) . . .
269(16) . . .
255(16) . . .
272(16) . . .
283(17) . . .
264(16) . . .
275(17) . . .
245(16) . . .
257(16) . . .
269(16) . . .
275(17) . . .
242(16) . . .
280(17) . . .
280(17) . . .
294(17) . . .
265(16) . . .
261(16) . . .
260(16) . . .
249(16) . . .
263(16) . . .
257(16) . . .
253(16) . . .
265(16) . . .
289(17) . . .
282(17) . . .
244(16) . . .
267(16) . . .
297(17) . . .
282(17) . . .
261(16) . . .
274(17) . . .
281(17) . . .
270(16) . . .
264(16) . . .
252(16) . . .
267(16) . . .
264(16) . . .
248(16) . . .
283(17) . . .
275(17) . . .
239(15) . . .
263(16) . . .
266(16) . . .
250(16) . . .
278(17) . . .
274(17) . . .
270(16) . . .
266(16) . . .
274(17) . . .
248(16) . . .
251(16) . . .
235(15) . . .
253(16) . . .
289(17) . . .
273(17) . . .
277(17) . . .
265(16) . . .
264(16) . . .
266(16) . . .
260(16) . . .
260(16) . . .
246(16) . . .
235(15) . . .
274(17) . . .
239(15) . . .
253(16) . . .
276(17) . . .
270(16) . . .
278(17) . . .
248(16) . . .
253(16) . . .
272(16) . . .
248(16) . . .
249(16) . . .
291(17) . . .
288(17) . . .
259(16) . . .
234(15) . . .
255(16) . . .
261(16) . . .
281(17) . . .
269(16) . . .
282(17) . . .
260(16) . . .
270(16) . . .
248(16) . . .
268(16) . . .
263(16) . . .
257(16) . . .
262(16) . . .
237(15) . . .
275(17) . . .
268(16) . . .
237(15) . . .
240(15) . . .
235(15) . . .
242(16) . . .
254(16) . . .
248(16) . . .
246(16) . . .
267(16) . . .
260(16) . . .
220(15) . . .
260(16) . . .
288(17) . . .
270(16) . . .
264(16) . . .
262(16) . . .
255(16) . . .
258(16) . . .
253(16) . . .
263(16) . . .
258(16) . . .
234(15) . . .
259(16) . . .
276(17) . . .
256(16) . . .
247(16) . . .
278(17) . . .
240(15) . . .
260(16) . . .
229(15) . . .
268(16) . . .
269(16) . . .
239(15) . . .
235(15) . . .
258(16) . . .
255(16) . . .
286(17) . . .
230(15) . . .
274(17) . . .
266(16) . . .
229(15) . . .
263(16) . . .
233(15) . . .
263(16) . . .
256(16) . . .
255(16) . . .
279(17) . . .
241(16) . . .
250(16) . . .
245(16) . . .
276(17) . . .
238(15) . . .
265(16) . . .
252(16) . . .
259(16) . . .
259(16) . . .
258(16) . . .
253(16) . . .
263(16) . . .
255(16) . . .
252(16) . . .
277(17) . . .
250(16) . . .
257(16) . . .
247(16) . . .
261(16) . . .
248(16) . . .
232(15) . . .
235(15) . . .
269(16) . . .
253(16) . . .
272(16) . . .
247(16) . . .
260(16) . . .
248(16) . . .
257(16) . . .
244(16) . . .
255(16) . . .
258(16) . . .
259(16) . . .
254(16) . . .
282(17) . . .
247(16) . . .
267(16) . . .
266(16) . . .
262(16) . . .
267(16) . . .
254(16) . . .
259(16) . . .
261(16) . . .
235(15) . . .
266(16) . . .
262(16) . . .
264(16) . . .
263(16) . . .
252(16) . . .
244(16) . . .
272(16) . . .
293(17) . . .
260(16) . . .
270(16) . . .
231(15) . . .
279(17) . . .
263(16) . . .
280(17) . . .
240(15) . . .
251(16) . . .
248(16) . . .
277(17) . . .
270(16) . . .
256(16) . . .
268(16) . . .
260(16) . . .
296(17) . . .
267(16) . . .
260(16) . . .
265(16) . . .
256(16) . . .
266(16) . . .
248(16) . . .
261(16) . . .
237(15) . . .
235(15) . . .
288(17) . . .
267(16) . . .
247(16) . . .
261(16) . . .
250(16) . . .
231(15) . . .
252(16) . . .
253(16) . . .
263(16) . . .
265(16) . . .
263(16) . . .
253(16) . . .
254(16) . . .
264(16) . . .
236(15) . . .
238(15) . . .
254(16) . . .
245(16) . . .
247(16) . . .
266(16) . . .
257(16) . . .
271(16) . . .
252(16) . . .
260(16) . . .
268(16) . . .
283(17) . . .
269(16) . . .
240(15) . . .
252(16) . . .
259(16) . . .
239(15) . . .
233(15) . . .
262(16) . . .
234(15) . . .
231(15) . . .
274(17) . . .
291(17) . . .
287(17) . . .
249(16) . . .
258(16) . . .
259(16) . . .
258(16) . . .
266(16) . . .
243(16) . . .
234(15) . . .
238(15) . . .
235(15) . . .
255(16) . . .
242(16) . . .
257(16) . . .
247(16) . . .
244(16) . . .
266(16) . . .
256(16) . . .
257(16) . . .
279(17) . . .
252(16) . . .
251(16) . . .
265(16) . . .
270(16) . . .
246(16) . . .
243(16) . . .
241(16) . . .
256(16) . . .
262(16) . . .
258(16) . . .
261(16) . . .
255(16) . . .
289(17) . . .
261(16) . . .
278(17) . . .
266(16) . . .
249(16) . . .
252(16) . . .
244(16) . . .
232(15) . . .
240(15) . . .
279(17) . . .
261(16) . . .
244(16) . . .
248(16) . . .
245(16) . . .
231(15) . . .
245(16) . . .
241(16) . . .
270(16) . . .
269(16) . . .
261(16) . . .
247(16) . . .
249(16) . . .
261(16) . . .
278(17) . . .
244(16) . . .
284(17) . . .
226(15) . . .
248(16) . . .
263(16) . . .
272(16) . . .
264(16) . . .
270(16) . . .
269(16) . . .
276(17) . . .
273(17) . . .
266(16) . . .
274(17) . . .
294(17) . . .
260(16) . . .
248(16) . . .
247(16) . . .
264(16) . . .
262(16) . . .
274(17) . . .
278(17) . . .
243(16) . . .
270(16) . . .
283(17) . . .
271(16) . . .
238(15) . . .
248(16) . . .
250(16) . . .
269(16) . . .
261(16) . . .
256(16) . . .
246(16) . . .
267(16) . . .
268(16) . . .
273(17) . . .
258(16) . . .
250(16) . . .
239(15) . . .
276(17) . . .
272(16) . . .
262(16) . . .
271(16) . . .
279(17) . . .
285(17) . . .
274(17) . . .
278(17) . . .
265(16) . . .
287(17) . . .
262(16) . . .
263(16) . . .
275(17) . . .
279(17) . . .
249(16) . . .
251(16) . . .
288(17) . . .
277(17) . . .
271(16) . . .
281(17) . . .
276(17) . . .
249(16) . . .
268(16) . . .
264(16) . . .
290(17) . . .
247(16) . . .
261(16) . . .
276(17) . . .
260(16) . . .
250(16) . . .
282(17) . . .
257(16) . . .
260(16) . . .
281(17) . . .
282(17) . . .
277(17) . . .
294(17) . . .
266(16) . . .
267(16) . . .
261(16) . . .
274(17) . . .
292(17) . . .
272(16) . . .
276(17) . . .
268(16) . . .
282(17) . . .
260(16) . . .
250(16) . . .
273(17) . . .
278(17) . . .
259(16) . . .
245(16) . . .
272(16) . . .
281(17) . . .
288(17) . . .
276(17) . . .
305(17) . . .
272(16) . . .
268(16) . . .
297(17) . . .
271(16) . . .
293(17) . . .
301(17) . . .
286(17) . . .
297(17) . . .
271(16) . . .
293(17) . . .
258(16) . . .
276(17) . . .
269(16) . . .
261(16) . . .
271(16) . . .
256(16) . . .
249(16) . . .
268(16) . . .
282(17) . . .
266(16) . . .
300(17) . . .
266(16) . . .
268(16) . . .
254(16) . . .
273(17) . . .
295(17) . . .
281(17) . . .
278(17) . . .
272(16) . . .
276(17) . . .
285(17) . . .
294(17) . . .
283(17) . . .
299(17) . . .
264(16) . . .
277(17) . . .
249(16) . . .
307(18) . . .
285(17) . . .
258(16) . . .
280(17) . . .
284(17) . . .
281(17) . . .
273(17) . . .
308(18) . . .
306(17) . . .
292(17) . . .
294(17) . . .
293(17) . . .
289(17) . . .
277(17) . . .
321(18) . . .
271(16) . . .
255(16) . . .
292(17) . . .
262(16) . . .
270(16) . . .
298(17) . . .
306(17) . . .
285(17) . . .
288(17) . . .
291(17) . . .
266(16) . . .
286(17) . . .
284(17) . . .
290(17) . . .
292(17) . . .
307(18) . . .
307(18) . . .
320(18) . . .
279(17) . . .
314(18) . . .
322(18) . . .
298(17) . . .
312(18) . . .
296(17) . . .
330(18) . . .
313(18) . . .
296(17) . . .
315(18) . . .
329(18) . . .
330(18) . . .
294(17) . . .
326(18) . . .
299(17) . . .
315(18) . . .
302(17) . . .
341(18) . . .
308(18) . . .
324(18) . . .
331(18) . . .
334(18) . . .
343(19) . . .
322(18) . . .
312(18) . . .
325(18) . . .
349(19) . . .
359(19) . . .
316(18) . . .
327(18) . . .
340(18) . . .
386(20) . . .
370(19) . . .
393(20) . . .
373(19) . . .
353(19) . . .
366(19) . . .
349(19) . . .
352(19) . . .
368(19) . . .
389(20) . . .
367(19) . . .
416(20) . . .
411(20) . . .
400(20) . . .
413(20) . . .
419(20) . . .
416(20) . . .
392(20) . . .
453(21) . . .
455(21) . . .
436(21) . . .
506(22) . . .
511(23) . . .
474(22) . . .
541(23) . . .
519(23) . . .
551(23) . . .
551(23) . . .
561(24) . . .
665(26) . . .
648(25) . . .
604(25) . . .
650(25) . . .
685(26) . . .
678(26) . . .
725(27) . . .
778(28) . . .
807(28) . . .
848(29) . . .
884(30) . . .
940(31) . . .
964(31) . . .
1001(32) . . .
1105(33) . . .
1180(34) . . .
1292(36) . . .
1360(37) . . .
1426(38) . . .
1579(40) . . .
1785(42) . . .
1876(43) . . .
1977(44) . . .
2278(48) . . .
2397(49) . . .
2636(51) . . .
3006(55) . . .
3363(58) . . .
3696(61) . . .
4262(65) . . .
4749(69) . . .
5314(73) . . .
6110(78) . . .
7234(85) . . .
8340(91) . . .
9590(98) . . .
10910(100) . . .
12700(110) . . .
14350(120) . . .
15840(130) . . .
17120(130) . . .
18470(140) . . .
18970(140) . . .
19640(140) . . .
19570(140) . . .
18770(140) . . .
17890(130) . . .
16950(130) . . .
14850(120) . . .
13340(120) . . .
11900(110) . . .
10260(100) . . .
8768(94) . . .
7666(88) . . .
6553(81) . . .
5683(75) . . .
4974(71) . . .
4364(66) . . .
3925(63) . . .
3392(58) . . .
3066(55) . . .
2693(52) . . .
2472(50) . . .
2166(47) . . .
2051(45) . . .
1842(43) . . .
1689(41) . . .
1535(39) . . .
1465(38) . . .
1244(35) . . .
1238(35) . . .
1128(34) . . .
1056(32) . . .
999(32) . . .
966(31) . . .
865(29) . . .
804(28) . . .
793(28) . . .
718(27) . . .
709(27) . . .
668(26) . . .
624(25) . . .
596(24) . . .
601(25) . . .
595(24) . . .
540(23) . . .
548(23) . . .
530(23) . . .
491(22) . . .
537(23) . . .
518(23) . . .
482(22) . . .
448(21) . . .
448(21) . . .
434(21) . . .
450(21) . . .
454(21) . . .
440(21) . . .
426(21) . . .
419(20) . . .
414(20) . . .
407(20) . . .
415(20) . . .
401(20) . . .
393(20) . . .
353(19) . . .
385(20) . . .
392(20) . . .
386(20) . . .
376(19) . . .
378(19) . . .
393(20) . . .
332(18) . . .
348(19) . . .
336(18) . . .
386(20) . . .
351(19) . . .
369(19) . . .
347(19) . . .
359(19) . . .
333(18) . . .
354(19) . . .
321(18) . . .
359(19) . . .
341(18) . . .
331(18) . . .
314(18) . . .
323(18) . . .
326(18) . . .
332(18) . . .
332(18) . . .
311(18) . . .
326(18) . . .
331(18) . . .
309(18) . . .
307(18) . . .
305(17) . . .
340(18) . . .
312(18) . . .
301(17) . . .
299(17) . . .
285(17) . . .
301(17) . . .
285(17) . . .
319(18) . . .
293(17) . . .
321(18) . . .
332(18) . . .
304(17) . . .
276(17) . . .
277(17) . . .
325(18) . . .
298(17) . . .
294(17) . . .
309(18) . . .
311(18) . . .
286(17) . . .
297(17) . . .
282(17) . . .
284(17) . . .
289(17) . . .
290(17) . . .
277(17) . . .
269(16) . . .
293(17) . . .
290(17) . . .
258(16) . . .
313(18) . . .
286(17) . . .
267(16) . . .
306(17) . . .
299(17) . . .
296(17) . . .
248(16) . . .
291(17) . . .
293(17) . . .
245(16) . . .
267(16) . . .
285(17) . . .
272(16) . . .
264(16) . . .
279(17) . . .
297(17) . . .
289(17) . . .
286(17) . . .
274(17) . . .
274(17) . . .
249(16) . . .
298(17) . . .
247(16) . . .
274(17) . . .
255(16) . . .
291(17) . . .
258(16) . . .
287(17) . . .
272(16) . . .
266(16) . . .
283(17) . . .
264(16) . . .
266(16) . . .
261(16) . . .
259(16) . . .
270(16) . . .
277(17) . . .
280(17) . . .
270(16) . . .
247(16) . . .
267(16) . . .
254(16) . . .
282(17) . . .
284(17) . . .
292(17) . . .
254(16) . . .
278(17) . . .
258(16) . . .
292(17) . . .
273(17) . . .
272(16) . . .
289(17) . . .
259(16) . . .
279(17) . . .
279(17) . . .
258(16) . . .
259(16) . . .
251(16) . . .
259(16) . . .
274(17) . . .
242(16) . . .
252(16) . . .
249(16) . . .
289(17) . . .
261(16) . . .
299(17) . . .
270(16) . . .
248(16) . . .
242(16) . . .
262(16) . . .
285(17) . . .
269(16) . . .
243(16) . . .
275(17) . . .
255(16) . . .
261(16) . . .
266(16) . . .
300(17) . . .
274(17) . . .
286(17) . . .
258(16) . . .
286(17) . . .
259(16) . . .
288(17) . . .
271(16) . . .
296(17) . . .
252(16) . . .
256(16) . . .
257(16) . . .
270(16) . . .
263(16) . . .
284(17) . . .
259(16) . . .
243(16) . . .
252(16) . . .
273(17) . . .
248(16) . . .
238(15) . . .
256(16) . . .
248(16) . . .
270(16) . . .
265(16) . . .
273(17) . . .
248(16) . . .
267(16) . . .
263(16) . . .
258(16) . . .
278(17) . . .
247(16) . . .
265(16) . . .
244(16) . . .
247(16) . . .
259(16) . . .
238(15) . . .
262(16) . . .
241(16) . . .
265(16) . . .
262(16) . . .
272(16) . . .
250(16) . . .
233(15) . . .
256(16) . . .
245(16) . . .
251(16) . . .
266(16) . . .
258(16) . . .
250(16) . . .
255(16) . . .
272(16) . . .
241(16) . . .
251(16) . . .
259(16) . . .
255(16) . . .
248(16) . . .
261(16) . . .
235(15) . . .
226(15) . . .
251(16) . . .
237(15) . . .
246(16) . . .
234(15) . . .
228(15) . . .
236(15) . . .
229(15) . . .
264(16) . . .
275(17) . . .
243(16) . . .
226(15) . . .
237(15) . . .
262(16) . . .
247(16) . . .
244(16) . . .
259(16) . . .
266(16) . . .
258(16) . . .
256(16) . . .
254(16) . . .
245(16) . . .
284(17) . . .
254(16) . . .
246(16) . . .
260(16) . . .
229(15) . . .
270(16) . . .
247(16) . . .
275(17) . . .
246(16) . . .
257(16) . . .
240(15) . . .
248(16) . . .
259(16) . . .
256(16) . . .
255(16) . . .
250(16) . . .
240(15) . . .
259(16) . . .
244(16) . . .
240(15) . . .
253(16) . . .
242(16) . . .
254(16) . . .
244(16) . . .
255(16) . . .
246(16) . . .
282(17) . . .
274(17) . . .
245(16) . . .
238(15) . . .
249(16) . . .
256(16) . . .
261(16) . . .
275(17) . . .
250(16) . . .
250(16) . . .
268(16) . . .
249(16) . . .
250(16) . . .
248(16) . . .
245(16) . . .
267(16) . . .
289(17) . . .
265(16) . . .
263(16) . . .
260(16) . . .
261(16) . . .
262(16) . . .
242(16) . . .
272(16) . . .
249(16) . . .
281(17) . . .
277(17) . . .
264(16) . . .
259(16) . . .
239(15) . . .
261(16) . . .
250(16) . . .
259(16) . . .
261(16) . . .
267(16) . . .
288(17) . . .
264(16) . . .
241(16) . . .
264(16) . . .
273(17) . . .
266(16) . . .
275(17) . . .
271(16) . . .
271(16) . . .
253(16) . . .
229(15) . . .
247(16) . . .
292(17) . . .
276(17) . . .
250(16) . . .
267(16) . . .
233(15) . . .
225(15) . . .
246(16) . . .
268(16) . . .
244(16) . . .
232(15) . . .
254(16) . . .
240(15) . . .
265(16) . . .
238(15) . . .
254(16) . . .
235(15) . . .
263(16) . . .
254(16) . . .
279(17) . . .
263(16) . . .
255(16) . . .
252(16) . . .
305(17) . . .
266(16) . . .
255(16) . . .
258(16) . . .
233(15) . . .
251(16) . . .
245(16) . . .
266(16) . . .
267(16) . . .
256(16) . . .
243(16) . . .
253(16) . . .
233(15) . . .
251(16) . . .
275(17) . . .
263(16) . . .
243(16) . . .
261(16) . . .
275(17) . . .
251(16) . . .
271(16) . . .
276(17) . . .
283(17) . . .
258(16) . . .
253(16) . . .
266(16) . . .
254(16) . . .
275(17) . . .
239(15) . . .
242(16) . . .
245(16) . . .
265(16) . . .
252(16) . . .
238(15) . . .
232(15) . . .
246(16) . . .
259(16) . . .
224(15) . . .
257(16) . . .
260(16) . . .
260(16) . . .
253(16) . . .
240(15) . . .
273(17) . . .
242(16) . . .
253(16) . . .
263(16) . . .
248(16) . . .
230(15) . . .
234(15) . . .
263(16) . . .
261(16) . . .
252(16) . . .
243(16) . . .
275(17) . . .
245(16) . . .
285(17) . . .
243(16) . . .
230(15) . . .
266(16) . . .
260(16) . . .
263(16) . . .
211(15) . . .
252(16) . . .
243(16) . . .
252(16) . . .
233(15) . . .
270(16) . . .
254(16) . . .
238(15) . . .
265(16) . . .
264(16) . . .
256(16) . . .
260(16) . . .
230(15) . . .
265(16) . . .
297(17) . . .
257(16) . . .
248(16) . . .
256(16) . . .
246(16) . . .
259(16) . . .
261(16) . . .
246(16) . . .
253(16) . . .
250(16) . . .
242(16) . . .
297(17) . . .
280(17) . . .
253(16) . . .
240(15) . . .
236(15) . . .
246(16) . . .
250(16) . . .
266(16) . . .
264(16) . . .
263(16) . . .
267(16) . . .
242(16) . . .
256(16) . . .
261(16) . . .
260(16) . . .
270(16) . . .
260(16) . . .
233(15) . . .
223(15) . . .
229(15) . . .
270(16) . . .
261(16) . . .
269(16) . . .
265(16) . . .
241(16) . . .
260(16) . . .
255(16) . . .
249(16) . . .
261(16) . . .
251(16) . . .
249(16) . . .
234(15) . . .
257(16) . . .
277(17) . . .
261(16) . . .
269(16) . . .
241(16) . . .
245(16) . . .
251(16) . . .
263(16) . . .
237(15) . . .
233(15) . . .
289(17) . . .
243(16) . . .
253(16) . . .
261(16) . . .
242(16) . . .
276(17) . . .
246(16) . . .
243(16) . . .
253(16) . . .
271(16) . . .
245(16) . . .
244(16) . . .
255(16) . . .
276(17) . . .
251(16) . . .
247(16) . . .
261(16) . . .
243(16) . . .
268(16) . . .
261(16) . . .
239(15) . . .
237(15) . . .
249(16) . . .
261(16) . . .
259(16) . . .
265(16) . . .
254(16) . . .
250(16) . . .
256(16) . . .
281(17) . . .
272(16) . . .
234(15) . . .
271(16) . . .
256(16) . . .
240(15) . . .
238(15) . . .
246(16) . . .
261(16) . . .
231(15) . . .
249(16) . . .
246(16) . . .
242(16) . . .
289(17) . . .
271(16) . . .
273(17) . . .
272(16) . . .
241(16) . . .
239(15) . . .
264(16) . . .
254(16) . . .
244(16) . . .
265(16) . . .
271(16) . . .
287(17) . . .
290(17) . . .
270(16) . . .
246(16) . . .
248(16) . . .
288(17) . . .
266(16) . . .
267(16) . . .
248(16) . . .
306(17) . . .
290(17) . . .
300(17) . . .
304(17) . . .
302(17) . . .
315(18) . . .
279(17) . . .
306(17) . . .
301(17) . . .
289(17) . . .
344(19) . . .
292(17) . . .
342(18) . . .
294(17) . . .
293(17) . . .
271(16) . . .
284(17) . . .
262(16) . . .
271(16) . . .
257(16) . . .
287(17) . . .
292(17) . . .
279(17) . . .
257(16) . . .
278(17) . . .
279(17) . . .
267(16) . . .
290(17) . . .
266(16) . . .
280(17) . . .
268(16) . . .
270(16) . . .
285(17) . . .
292(17) . . .
284(17) . . .
273(17) . . .
270(16) . . .
271(16) . . .
263(16) . . .
265(16) . . .
260(16) . . .
283(17) . . .
243(16) . . .
268(16) . . .
278(17) . . .
236(15) . . .
261(16) . . .
254(16) . . .
278(17) . . .
264(16) . . .
272(16) . . .
288(17) . . .
290(17) . . .
259(16) . . .
253(16) . . .
280(17) . . .
267(16) . . .
271(16) . . .
252(16) . . .
252(16) . . .
310(18) . . .
272(16) . . .
230(15) . . .
279(17) . . .
290(17) . . .
243(16) . . .
244(16) . . .
272(16) . . .
252(16) . . .
286(17) . . .
278(17) . . .
260(16) . . .
257(16) . . .
251(16) . . .
258(16) . . .
250(16) . . .
271(16) . . .
251(16) . . .
291(17) . . .
256(16) . . .
243(16) . . .
270(16) . . .
267(16) . . .
283(17) . . .
272(16) . . .
262(16) . . .
274(17) . . .
271(16) . . .
262(16) . . .
267(16) . . .
241(16) . . .
258(16) . . .
268(16) . . .
269(16) . . .
261(16) . . .
286(17) . . .
282(17) . . .
262(16) . . .
236(15) . . .
273(17) . . .
266(16) . . .
272(16) . . .
294(17) . . .
267(16) . . .
273(17) . . .
240(15) . . .
281(17) . . .
256(16) . . .
271(16) . . .
282(17) . . .
261(16) . . .
275(17) . . .
226(15) . . .
288(17) . . .
290(17) . . .
285(17) . . .
291(17) . . .
288(17) . . .
279(17) . . .
277(17) . . .
300(17) . . .
263(16) . . .
280(17) . . .
275(17) . . .
275(17) . . .
253(16) . . .
248(16) . . .
267(16) . . .
239(15) . . .
285(17) . . .
233(15) . . .
266(16) . . .
267(16) . . .
265(16) . . .
268(16) . . .
261(16) . . .
290(17) . . .
273(17) . . .
265(16) . . .
287(17) . . .
254(16) . . .
233(15) . . .
264(16) . . .
281(17) . . .
259(16) . . .
273(17) . . .
243(16) . . .
281(17) . . .
262(16) . . .
270(16) . . .
273(17) . . .
263(16) . . .
269(16) . . .
262(16) . . .
265(16) . . .
249(16) . . .
276(17) . . .
289(17) . . .
300(17) . . .
274(17) . . .
278(17) . . .
237(15) . . .
270(16) . . .
267(16) . . .
246(16) . . .
280(17) . . .
256(16) . . .
249(16) . . .
295(17) . . .
280(17) . . .
268(16) . . .
263(16) . . .
275(17) . . .
263(16) . . .
259(16) . . .
266(16) . . .
263(16) . . .
284(17) . . .
284(17) . . .
269(16) . . .
242(16) . . .
268(16) . . .
265(16) . . .
251(16) . . .
275(17) . . .
285(17) . . .
285(17) . . .
271(16) . . .
290(17) . . .
258(16) . . .
245(16) . . .
255(16) . . .
250(16) . . .
257(16) . . .
268(16) . . .
258(16) . . .
291(17) . . .
273(17) . . .
263(16) . . .
258(16) . . .
279(17) . . .
273(17) . . .
267(16) . . .
271(16) . . .
275(17) . . .
260(16) . . .
277(17) . . .
276(17) . . .
260(16) . . .
275(17) . . .
299(17) . . .
271(16) . . .
289(17) . . .
244(16) . . .
276(17) . . .
279(17) . . .
277(17) . . .
302(17) . . .
268(16) . . .
288(17) . . .
273(17) . . .
266(16) . . .
285(17) . . .
281(17) . . .
310(18) . . .
287(17) . . .
278(17) . . .
286(17) . . .
277(17) . . .
270(16) . . .
284(17) . . .
311(18) . . .
286(17) . . .
279(17) . . .
247(16) . . .
280(17) . . .
261(16) . . .
256(16) . . .
284(17) . . .
265(16) . . .
296(17) . . .
293(17) . . .
293(17) . . .
277(17) . . .
329(18) . . .
284(17) . . .
277(17) . . .
283(17) . . .
280(17) . . .
304(17) . . .
292(17) . . .
280(17) . . .
288(17) . . .
292(17) . . .
295(17) . . .
313(18) . . .
271(16) . . .
298(17) . . .
306(17) . . .
315(18) . . .
284(17) . . .
302(17) . . .
308(18) . . .
297(17) . . .
282(17) . . .
301(17) . . .
300(17) . . .
308(18) . . .
293(17) . . .
304(17) . . .
297(17) . . .
308(18) . . .
289(17) . . .
299(17) . . .
312(18) . . .
306(17) . . .
317(18) . . .
317(18) . . .
344(19) . . .
301(17) . . .
301(17) . . .
314(18) . . .
334(18) . . .
315(18) . . .
338(18) . . .
365(19) . . .
353(19) . . .
324(18) . . .
320(18) . . .
313(18) . . .
324(18) . . .
331(18) . . .
343(19) . . .
319(18) . . .
339(18) . . .
296(17) . . .
326(18) . . .
313(18) . . .
347(19) . . .
339(18) . . .
372(19) . . .
320(18) . . .
375(19) . . .
365(19) . . .
376(19) . . .
396(20) . . .
389(20) . . .
385(20) . . .
360(19) . . .
396(20) . . .
379(19) . . .
375(19) . . .
368(19) . . .
404(20) . . .
415(20) . . .
420(20) . . .
440(21) . . .
420(20) . . .
441(21) . . .
417(20) . . .
466(22) . . .
474(22) . . .
421(21) . . .
515(23) . . .
482(22) . . .
517(23) . . .
488(22) . . .
536(23) . . .
564(24) . . .
586(24) . . .
587(24) . . .
593(24) . . .
597(24) . . .
617(25) . . .
687(26) . . .
722(27) . . .
713(27) . . .
784(28) . . .
822(29) . . .
725(27) . . .
792(28) . . .
864(29) . . .
912(30) . . .
914(30) . . .
986(31) . . .
1039(32) . . .
1103(33) . . .
1211(35) . . .
1202(35) . . .
1336(37) . . .
1396(37) . . .
1501(39) . . .
1618(40) . . .
1737(42) . . .
1880(43) . . .
1976(44) . . .
2213(47) . . .
2344(48) . . .
2648(51) . . .
2846(53) . . .
3055(55) . . .
3388(58) . . .
3922(63) . . .
4238(65) . . .
4880(70) . . .
5479(74) . . .
6144(78) . . .
7106(84) . . .
8149(90) . . .
9272(96) . . .
10890(100) . . .
12730(110) . . .
13900(120) . . .
15960(130) . . .
17570(130) . . .
19070(140) . . .
20380(140) . . .
21340(150) . . .
21720(150) . . .
21660(150) . . .
21380(150) . . .
20430(140) . . .
19090(140) . . .
17370(130) . . .
15660(130) . . .
13780(120) . . .
12270(110) . . .
10720(100) . . .
9299(96) . . .
8029(90) . . .
6888(83) . . .
6072(78) . . .
5315(73) . . .
4678(68) . . .
4250(65) . . .
3790(62) . . .
3450(59) . . .
3024(55) . . .
2724(52) . . .
2545(50) . . .
2294(48) . . .
2109(46) . . .
1862(43) . . .
1778(42) . . .
1608(40) . . .
1558(39) . . .
1416(38) . . .
1269(36) . . .
1191(35) . . .
1151(34) . . .
1066(33) . . .
969(31) . . .
976(31) . . .
917(30) . . .
944(31) . . .
874(30) . . .
812(28) . . .
778(28) . . .
712(27) . . .
684(26) . . .
644(25) . . .
649(25) . . .
637(25) . . .
617(25) . . .
589(24) . . .
592(24) . . .
564(24) . . .
562(24) . . .
523(23) . . .
551(23) . . .
507(23) . . .
480(22) . . .
507(23) . . .
504(22) . . .
489(22) . . .
444(21) . . .
474(22) . . .
432(21) . . .
435(21) . . .
439(21) . . .
441(21) . . .
427(21) . . .
421(21) . . .
389(20) . . .
389(20) . . .
377(19) . . .
388(20) . . .
366(19) . . .
395(20) . . .
339(18) . . .
348(19) . . .
340(18) . . .
356(19) . . .
336(18) . . .
356(19) . . .
330(18) . . .
352(19) . . .
326(18) . . .
337(18) . . .
321(18) . . .
334(18) . . .
331(18) . . .
338(18) . . .
339(18) . . .
337(18) . . .
288(17) . . .
302(17) . . .
321(18) . . .
316(18) . . .
323(18) . . .
299(17) . . .
291(17) . . .
312(18) . . .
302(17) . . .
317(18) . . .
305(17) . . .
317(18) . . .
334(18) . . .
320(18) . . .
276(17) . . .
269(16) . . .
309(18) . . .
298(17) . . .
305(17) . . .
309(18) . . .
309(18) . . .
307(18) . . .
279(17) . . .
286(17) . . .
293(17) . . .
282(17) . . .
296(17) . . .
296(17) . . .
336(18) . . .
293(17) . . .
282(17) . . .
282(17) . . .
290(17) . . .
291(17) . . .
306(17) . . .
303(17) . . .
275(17) . . .
263(16) . . .
272(16) . . .
275(17) . . .
296(17) . . .
273(17) . . .
275(17) . . .
290(17) . . .
259(16) . . .
297(17) . . .
270(16) . . .
299(17) . . .
263(16) . . .
283(17) . . .
235(15) . . .
277(17) . . .
255(16) . . .
267(16) . . .
271(16) . . .
261(16) . . .
272(16) . . .
273(17) . . .
285(17) . . .
258(16) . . .
263(16) . . .
252(16) . . .
280(17) . . .
275(17) . . .
262(16) . . .
267(16) . . .
259(16) . . .
284(17) . . .
252(16) . . .
271(16) . . .
273(17) . . .
244(16) . . .
265(16) . . .
272(16) . . .
267(16) . . .
300(17) . . .
273(17) . . .
287(17) . . .
286(17) . . .
303(17) . . .
281(17) . . .
273(17) . . .
284(17) . . .
255(16) . . .
286(17) . . .
294(17) . . .
265(16) . . .
276(17) . . .
266(16) . . .
268(16) . . .
269(16) . . .
273(17) . . .
262(16) . . .
258(16) . . .
306(17) . . .
277(17) . . .
251(16) . . .
252(16) . . .
271(16) . . .
268(16) . . .
283(17) . . .
285(17) . . .
268(16) . . .
244(16) . . .
255(16) . . .
273(17) . . .
281(17) . . .
278(17) . . .
275(17) . . .
272(16) . . .
272(16) . . .
274(17) . . .
257(16) . . .
276(17) . . .
284(17) . . .
246(16) . . .
269(16) . . .
287(17) . . .
295(17) . . .
275(17) . . .
265(16) . . .
298(17) . . .
270(16) . . .
295(17) . . .
242(16) . . .
253(16) . . .
319(18) . . .
294(17) . . .
283(17) . . .
293(17) . . .
258(16) . . .
284(17) . . .
281(17) . . .
287(17) . . .
281(17) . . .
255(16) . . .
278(17) . . .
287(17) . . .
263(16) . . .
292(17) . . .
278(17) . . .
288(17) . . .
279(17) . . .
283(17) . . .
269(16) . . .
326(18) . . .
294(17) . . .
278(17) . . .
297(17) . . .
263(16) . . .
279(17) . . .
292(17) . . .
289(17) . . .
282(17) . . .
300(17) . . .
286(17) . . .
293(17) . . .
317(18) . . .
275(17) . . .
298(17) . . .
297(17) . . .
309(18) . . .
311(18) . . .
320(18) . . .
319(18) . . .
318(18) . . .
321(18) . . .
325(18) . . .
326(18) . . .
352(19) . . .
325(18) . . .
356(19) . . .
368(19) . . .
382(20) . . .
363(19) . . .
384(20) . . .
365(19) . . .
351(19) . . .
357(19) . . .
418(20) . . .
425(21) . . .
418(20) . . .
420(20) . . .
408(20) . . .
443(21) . . .
459(21) . . .
478(22) . . .
511(23) . . .
506(22) . . .
559(24) . . .
544(23) . . .
553(24) . . .
549(23) . . .
647(25) . . .
629(25) . . .
659(26) . . .
643(25) . . .
747(27) . . .
740(27) . . .
870(29) . . .
848(29) . . .
948(31) . . .
946(31) . . .
1051(32) . . .
1123(34) . . .
1251(35) . . .
1345(37) . . .
1464(38) . . .
1601(40) . . .
1754(42) . . .
2063(45) . . .
2137(46) . . .
2535(50) . . .
2731(52) . . .
3243(57) . . .
3595(60) . . .
4115(64) . . .
4586(68) . . .
5348(73) . . .
5925(77) . . .
6496(81) . . .
7224(85) . . .
7981(89) . . .
8608(93) . . .
8986(95) . . .
9163(96) . . .
9363(97) . . .
9091(95) . . .
8896(94) . . .
8169(90) . . .
7446(86) . . .
6762(82) . . .
6044(78) . . .
5454(74) . . .
4760(69) . . .
4124(64) . . .
3691(61) . . .
3254(57) . . .
2822(53) . . .
2502(50) . . .
2257(48) . . .
1930(44) . . .
1726(42) . . .
1631(40) . . .
1454(38) . . .
1311(36) . . .
1252(35) . . .
1117(33) . . .
1077(33) . . .
956(31) . . .
850(29) . . .
855(29) . . .
783(28) . . .
687(26) . . .
711(27) . . .
606(25) . . .
600(24) . . .
586(24) . . .
539(23) . . .
534(23) . . .
503(22) . . .
528(23) . . .
475(22) . . .
419(20) . . .
430(21) . . .
422(21) . . .
426(21) . . .
447(21) . . .
425(21) . . .
378(19) . . .
390(20) . . .
384(20) . . .
380(19) . . .
356(19) . . .
351(19) . . .
339(18) . . .
369(19) . . .
325(18) . . .
337(18) . . .
328(18) . . .
331(18) . . .
305(17) . . .
331(18) . . .
314(18) . . .
330(18) . . .
301(17) . . .
313(18) . . .
340(18) . . .
315(18) . . .
292(17) . . .
293(17) . . .
327(18) . . .
307(18) . . .
281(17) . . .
319(18) . . .
283(17) . . .
303(17) . . .
290(17) . . .
311(18) . . .
282(17) . . .
294(17) . . .
300(17) . . .
297(17) . . .
296(17) . . .
278(17) . . .
235(15) . . .
265(16) . . .
282(17) . . .
283(17) . . .
272(16) . . .
279(17) . . .
273(17) . . .
264(16) . . .
229(15) . . .
286(17) . . .
252(16) . . .
289(17) . . .
240(15) . . .
270(16) . . .
256(16) . . .
225(15) . . .
255(16) . . .
260(16) . . .
255(16) . . .
276(17) . . .
255(16) . . .
290(17) . . .
260(16) . . .
262(16) . . .
240(15) . . .
237(15) . . .
264(16) . . .
278(17) . . .
270(16) . . .
227(15) . . .
266(16) . . .
251(16) . . .
260(16) . . .
263(16) . . .
269(16) . . .
233(15) . . .
245(16) . . .
251(16) . . .
244(16) . . .
276(17) . . .
250(16) . . .
242(16) . . .
271(16) . . .
246(16) . . .
276(17) . . .
261(16) . . .
232(15) . . .
239(15) . . .
253(16) . . .
250(16) . . .
258(16) . . .
239(15) . . .
240(15) . . .
273(17) . . .
240(15) . . .
240(15) . . .
221(15) . . .
241(16) . . .
240(15) . . .
243(16) . . .
238(15) . . .
274(17) . . .
266(16) . . .
251(16) . . .
240(15) . . .
232(15) . . .
264(16) . . .
248(16) . . .
235(15) . . .
255(16) . . .
258(16) . . .
259(16) . . .
231(15) . . .
243(16) . . .
239(15) . . .
238(15) . . .
245(16) . . .
241(16) . . .
243(16) . . .
224(15) . . .
214(15) . . .
240(15) . . .
266(16) . . .
269(16) . . .
225(15) . . .
251(16) . . .
238(15) . . .
244(16) . . .
244(16) . . .
268(16) . . .
227(15) . . .
226(15) . . .
258(16) . . .
240(15) . . .
240(15) . . .
238(15) . . .
238(15) . . .
206(14) . . .
255(16) . . .
230(15) . . .
231(15) . . .
265(16) . . .
264(16) . . .
237(15) . . .
233(15) . . .
259(16) . . .
243(16) . . .
249(16) . . .
217(15) . . .
229(15) . . .
214(15) . . .
224(15) . . .
265(16) . . .
254(16) . . .
232(15) . . .
254(16) . . .
224(15) . . .
260(16) . . .
249(16) . . .
219(15) . . .
231(15) . . .
248(16) . . .
224(15) . . .
220(15) . . .
248(16) . . .
220(15) . . .
202(14) . . .
239(15) . . .
258(16) . . .
227(15) . . .
235(15) . . .
219(15) . . .
232(15) . . .
233(15) . . .
218(15) . . .
251(16) . . .
244(16) . . .
225(15) . . .
238(15) . . .
260(16) . . .
234(15) . . .
215(15) . . .
250(16) . . .
253(16) . . .
248(16) . . .
248(16) . . .
229(15) . . .
234(15) . . .
227(15) . . .
201(14) . . .
220(15) . . .
220(15) . . .
242(16) . . .
239(15) . . .
224(15) . . .
215(15) . . .
212(15) . . .
234(15) . . .
237(15) . . .
229(15) . . .
233(15) . . .
237(15) . . .
236(15) . . .
256(16) . . .
227(15) . . .
226(15) . . .
209(14) . . .
226(15) . . .
216(15) . . .
230(15) . . .
229(15) . . .
221(15) . . .
253(16) . . .
244(16) . . .
227(15) . . .
241(16) . . .
231(15) . . .
225(15) . . .
225(15) . . .
225(15) . . .
235(15) . . .
224(15) . . .
233(15) . . .
226(15) . . .
222(15) . . .
236(15) . . .
240(15) . . .
224(15) . . .
221(15) . . .
212(15) . . .
248(16) . . .
241(16) . . .
208(14) . . .
226(15) . . .
213(15) . . .
201(14) . . .
235(15) . . .
249(16) . . .
236(15) . . .
235(15) . . .
232(15) . . .
249(16) . . .
227(15) . . .
243(16) . . .
239(15) . . .
221(15) . . .
222(15) . . .
202(14) . . .
249(16) . . .
223(15) . . .
241(16) . . .
233(15) . . .
218(15) . . .
232(15) . . .
246(16) . . .
230(15) . . .
239(15) . . .
220(15) . . .
235(15) . . .
240(15) . . .
224(15) . . .
244(16) . . .
201(14) . . .
223(15) . . .
208(14) . . .
210(14) . . .
233(15) . . .
220(15) . . .
214(15) . . .
238(15) . . .
223(15) . . .
221(15) . . .
227(15) . . .
222(15) . . .
227(15) . . .
217(15) . . .
246(16) . . .
224(15) . . .
218(15) . . .
211(15) . . .
212(15) . . .
222(15) . . .
228(15) . . .
231(15) . . .
236(15) . . .
234(15) . . .
214(15) . . .
213(15) . . .
234(15) . . .
237(15) . . .
222(15) . . .
213(15) . . .
245(16) . . .
237(15) . . .
228(15) . . .
207(14) . . .
244(16) . . .
219(15) . . .
237(15) . . .
226(15) . . .
218(15) . . .
239(15) . . .
239(15) . . .
252(16) . . .
217(15) . . .
238(15) . . .
220(15) . . .
241(16) . . .
231(15) . . .
202(14) . . .
246(16) . . .
239(15) . . .
210(14) . . .
238(15) . . .
212(15) . . .
229(15) . . .
230(15) . . .
250(16) . . .
245(16) . . .
231(15) . . .
208(14) . . .
241(16) . . .
224(15) . . .
237(15) . . .
214(15) . . .
236(15) . . .
229(15) . . .
230(15) . . .
254(16) . . .
213(15) . . .
206(14) . . .
226(15) . . .
237(15) . . .
212(15) . . .
235(15) . . .
217(15) . . .
231(15) . . .
218(15) . . .
209(14) . . .
229(15) . . .
226(15) . . .
239(15) . . .
218(15) . . .
220(15) . . .
229(15) . . .
243(16) . . .
215(15) . . .
228(15) . . .
221(15) . . .
235(15) . . .
208(14) . . .
220(15) . . .
231(15) . . .
216(15) . . .
211(15) . . .
222(15) . . .
190(14) . . .
196(14) . . .
232(15) . . .
224(15) . . .
219(15) . . .
209(14) . . .
237(15) . . .
223(15) . . .
230(15) . . .
217(15) . . .
244(16) . . .
215(15) . . .
220(15) . . .
207(14) . . .
222(15) . . .
224(15) . . .
220(15) . . .
237(15) . . .
222(15) . . .
205(14) . . .
211(15) . . .
209(14) . . .
229(15) . . .
214(15) . . .
207(14) . . .
231(15) . . .
230(15) . . .
221(15) . . .
236(15) . . .
215(15) . . .
209(14) . . .
232(15) . . .
202(14) . . .
215(15) . . .
233(15) . . .
179(13) . . .
198(14) . . .
215(15) . . .
197(14) . . .
197(14) . . .
232(15) . . .
191(14) . . .
209(14) . . .
215(15) . . .
227(15) . . .
224(15) . . .
231(15) . . .
212(15) . . .
200(14) . . .
225(15) . . .
218(15) . . .
237(15) . . .
232(15) . . .
225(15) . . .
210(14) . . .
189(14) . . .
208(14) . . .
210(14) . . .
239(15) . . .
224(15) . . .
204(14) . . .
202(14) . . .
217(15) . . .
216(15) . . .
206(14) . . .
202(14) . . .
197(14) . . .
229(15) . . .
214(15) . . .
189(14) . . .
224(15) . . .
233(15) . . .
219(15) . . .
193(14) . . .
208(14) . . .
195(14) . . .
212(15) . . .
186(14) . . .
192(14) . . .
240(15) . . .
223(15) . . .
223(15) . . .
209(14) . . .
221(15) . . .
213(15) . . .
214(15) . . .
192(14) . . .
188(14) . . .
219(15) . . .
224(15) . . .
189(14) . . .
201(14) . . .
213(15) . . .
212(15) . . .
219(15) . . .
216(15) . . .
206(14) . . .
224(15) . . .
199(14) . . .
211(15) . . .
203(14) . . .
216(15) . . .
227(15) . . .
224(15) . . .
211(15) . . .
217(15) . . .
221(15) . . .
221(15) . . .
215(15) . . .
241(16) . . .
228(15) . . .
232(15) . . .
196(14) . . .
221(15) . . .
250(16) . . .
219(15) . . .
212(15) . . .
234(15) . . .
212(15) . . .
202(14) . . .
224(15) . . .
215(15) . . .
201(14) . . .
199(14) . . .
215(15) . . .
209(14) . . .
216(15) . . .
203(14) . . .
204(14) . . .
192(14) . . .
219(15) . . .
223(15) . . .
206(14) . . .
224(15) . . .
223(15) . . .
204(14) . . .
224(15) . . .
194(14) . . .
217(15) . . .
197(14) . . .
223(15) . . .
216(15) . . .
193(14) . . .
232(15) . . .
220(15) . . .
226(15) . . .
220(15) . . .
221(15) . . .
221(15) . . .
223(15) . . .
226(15) . . .
212(15) . . .
218(15) . . .
210(14) . . .
200(14) . . .
205(14) . . .
213(15) . . .
189(14) . . .
210(14) . . .
198(14) . . .
207(14) . . .
214(15) . . .
221(15) . . .
228(15) . . .
225(15) . . .
198(14) . . .
219(15) . . .
234(15) . . .
207(14) . . .
237(15) . . .
228(15) . . .
189(14) . . .
177(13) . . .
212(15) . . .
190(14) . . .
200(14) . . .
217(15) . . .
198(14) . . .
210(14) . . .
210(14) . . .
218(15) . . .
209(14) . . .
211(15) . . .
203(14) . . .
201(14) . . .
206(14) . . .
186(14) . . .
186(14) . . .
206(14) . . .
212(15) . . .
208(14) . . .
213(15) . . .
213(15) . . .
205(14) . . .
248(16) . . .
238(15) . . .
213(15) . . .
236(15) . . .
214(15) . . .
200(14) . . .
215(15) . . .
217(15) . . .
209(14) . . .
243(16) . . .
215(15) . . .
202(14) . . .
207(14) . . .
220(15) . . .
232(15) . . .
231(15) . . .
199(14) . . .
195(14) . . .
226(15) . . .
222(15) . . .
234(15) . . .
190(14) . . .
219(15) . . .
228(15) . . .
222(15) . . .
213(15) . . .
208(14) . . .
192(14) . . .
226(15) . . .
181(13) . . .
220(15) . . .
220(15) . . .
190(14) . . .
214(15) . . .
205(14) . . .
211(15) . . .
212(15) . . .
215(15) . . .
222(15) . . .
213(15) . . .
201(14) . . .
195(14) . . .
204(14) . . .
212(15) . . .
214(15) . . .
212(15) . . .
226(15) . . .
242(16) . . .
211(15) . . .
209(14) . . .
206(14) . . .
219(15) . . .
205(14) . . .
216(15) . . .
227(15) . . .
246(16) . . .
247(16) . . .
207(14) . . .
203(14) . . .
230(15) . . .
218(15) . . .
241(16) . . .
235(15) . . .
221(15) . . .
205(14) . . .
187(14) . . .
219(15) . . .
225(15) . . .
213(15) . . .
205(14) . . .
215(15) . . .
221(15) . . .
232(15) . . .
219(15) . . .
244(16) . . .
208(14) . . .
238(15) . . .
238(15) . . .
217(15) . . .
229(15) . . .
206(14) . . .
215(15) . . .
224(15) . . .
235(15) . . .
226(15) . . .
234(15) . . .
222(15) . . .
250(16) . . .
206(14) . . .
218(15) . . .
193(14) . . .
209(14) . . .
207(14) . . .
203(14) . . .
211(15) . . .
196(14) . . .
207(14) . . .
227(15) . . .
227(15) . . .
205(14) . . .
185(14) . . .
213(15) . . .
214(15) . . .
229(15) . . .
217(15) . . .
220(15) . . .
243(16) . . .
248(16) . . .
217(15) . . .
217(15) . . .
227(15) . . .
221(15) . . .
242(16) . . .
226(15) . . .
209(14) . . .
224(15) . . .
208(14) . . .
205(14) . . .
203(14) . . .
238(15) . . .
206(14) . . .
224(15) . . .
244(16) . . .
203(14) . . .
200(14) . . .
228(15) . . .
201(14) . . .
212(15) . . .
237(15) . . .
234(15) . . .
220(15) . . .
230(15) . . .
223(15) . . .
215(15) . . .
234(15) . . .
227(15) . . .
222(15) . . .
226(15) . . .
233(15) . . .
229(15) . . .
235(15) . . .
200(14) . . .
220(15) . . .
248(16) . . .
220(15) . . .
222(15) . . .
229(15) . . .
194(14) . . .
209(14) . . .
216(15) . . .
197(14) . . .
237(15) . . .
214(15) . . .
215(15) . . .
230(15) . . .
216(15) . . .
229(15) . . .
201(14) . . .
216(15) . . .
206(14) . . .
230(15) . . .
211(15) . . .
229(15) . . .
236(15) . . .
218(15) . . .
241(16) . . .
223(15) . . .
212(15) . . .
227(15) . . .
214(15) . . .
196(14) . . .
203(14) . . .
210(14) . . .
198(14) . . .
224(15) . . .
233(15) . . .
210(14) . . .
215(15) . . .
220(15) . . .
221(15) . . .
222(15) . . .
214(15) . . .
218(15) . . .
255(16) . . .
227(15) . . .
240(15) . . .
225(15) . . .
198(14) . . .
224(15) . . .
211(15) . . .
212(15) . . .
217(15) . . .
207(14) . . .
218(15) . . .
219(15) . . .
213(15) . . .
208(14) . . .
189(14) . . .
207(14) . . .
218(15) . . .
230(15) . . .
231(15) . . .
226(15) . . .
209(14) . . .
239(15) . . .
219(15) . . .
232(15) . . .
221(15) . . .
221(15) . . .
249(16) . . .
218(15) . . .
219(15) . . .
228(15) . . .
221(15) . . .
214(15) . . .
239(15) . . .
225(15) . . .
214(15) . . .
222(15) . . .
230(15) . . .
229(15) . . .
238(15) . . .
222(15) . . .
236(15) . . .
240(15) . . .
235(15) . . .
210(14) . . .
228(15) . . .
229(15) . . .
241(16) . . .
222(15) . . .
243(16) . . .
226(15) . . .
246(16) . . .
239(15) . . .
215(15) . . .
214(15) . . .
221(15) . . .
236(15) . . .
247(16) . . .
210(14) . . .
217(15) . . .
225(15) . . .
236(15) . . .
211(15) . . .
235(15) . . .
216(15) . . .
219(15) . . .
218(15) . . .
204(14) . . .
215(15) . . .
232(15) . . .
200(14) . . .
220(15) . . .
240(15) . . .
207(14) . . .
217(15) . . .
215(15) . . .
228(15) . . .
221(15) . . .
249(16) . . .
228(15) . . .
232(15) . . .
209(14) . . .
229(15) . . .
199(14) . . .
238(15) . . .
208(14) . . .
212(15) . . .
216(15) . . .
204(14) . . .
230(15) . . .
238(15) . . .
209(14) . . .
221(15) . . .
201(14) . . .
200(14) . . .
231(15) . . .
232(15) . . .
218(15) . . .
194(14) . . .
232(15) . . .
211(15) . . .
234(15) . . .
213(15) . . .
232(15) . . .
242(16) . . .
201(14) . . .
214(15) . . .
203(14) . . .
222(15) . . .
212(15) . . .
201(14) . . .
214(15) . . .
228(15) . . .
213(15) . . .
205(14) . . .
221(15) . . .
238(15) . . .
247(16) . . .
220(15) . . .
210(14) . . .
219(15) . . .
207(14) . . .
224(15) . . .
225(15) . . .
251(16) . . .
210(14) . . .
228(15) . . .
211(15) . . .
222(15) . . .
223(15) . . .
200(14) . . .
222(15) . . .
216(15) . . .
203(14) . . .
209(14) . . .
238(15) . . .
240(15) . . .
213(15) . . .
235(15) . . .
225(15) . . .
209(14) . . .
198(14) . . .
226(15) . . .
225(15) . . .
199(14) . . .
187(14) . . .
220(15) . . .
234(15) . . .
225(15) . . .
199(14) . . .
227(15) . . .
220(15) . . .
223(15) . . .
215(15) . . .
199(14) . . .
216(15) . . .
231(15) . . .
232(15) . . .
232(15) . . .
195(14) . . .
202(14) . . .
228(15) . . .
215(15) . . .
230(15) . . .
218(15) . . .
236(15) . . .
216(15) . . .
210(14) . . .
220(15) . . .
216(15) . . .
228(15) . . .
212(15) . . .
232(15) . . .
211(15) . . .
217(15) . . .
242(16) . . .
215(15) . . .
225(15) . . .
225(15) . . .
212(15) . . .
203(14) . . .
236(15) . . .
217(15) . . .
204(14) . . .
218(15) . . .
214(15) . . .
222(15) . . .
228(15) . . .
211(15) . . .
229(15) . . .
229(15) . . .
231(15) . . .
204(14) . . .
224(15) . . .
217(15) . . .
203(14) . . .
209(14) . . .
240(15) . . .
232(15) . . .
203(14) . . .
213(15) . . .
218(15) . . .
229(15) . . .
218(15) . . .
225(15) . . .
247(16) . . .
232(15) . . .
208(14) . . .
247(16) . . .
207(14) . . .
213(15) . . .
234(15) . . .
225(15) . . .
221(15) . . .
217(15) . . .
213(15) . . .
201(14) . . .
179(13) . . .
197(14) . . .
215(15) . . .
212(15) . . .
220(15) . . .
226(15) . . .
201(14) . . .
219(15) . . .
210(14) . . .
224(15) . . .
216(15) . . .
217(15) . . .
203(14) . . .
227(15) . . .
230(15) . . .
222(15) . . .
214(15) . . .
189(14) . . .
235(15) . . .
227(15) . . .
232(15) . . .
230(15) . . .
224(15) . . .
234(15) . . .
215(15) . . .
245(16) . . .
216(15) . . .
215(15) . . .
226(15) . . .
207(14) . . .
241(16) . . .
213(15) . . .
239(15) . . .
230(15) . . .
241(16) . . .
220(15) . . .
230(15) . . .
246(16) . . .
253(16) . . .
214(15) . . .
239(15) . . .
214(15) . . .
211(15) . . .
210(14) . . .
227(15) . . .
227(15) . . .
248(16) . . .
227(15) . . .
222(15) . . .
232(15) . . .
236(15) . . .
225(15) . . .
221(15) . . .
217(15) . . .
227(15) . . .
217(15) . . .
213(15) . . .
233(15) . . .
205(14) . . .
213(15) . . .
231(15) . . .
240(15) . . .
217(15) . . .
210(14) . . .
207(14) . . .
234(15) . . .
199(14) . . .
235(15) . . .
233(15) . . .
233(15) . . .
203(14) . . .
216(15) . . .
225(15) . . .
220(15) . . .
236(15) . . .
236(15) . . .
217(15) . . .
233(15) . . .
222(15) . . .
221(15) . . .
227(15) . . .
211(15) . . .
205(14) . . .
215(15) . . .
198(14) . . .
228(15) . . .
232(15) . . .
222(15) . . .
219(15) . . .
202(14) . . .
224(15) . . .
225(15) . . .
202(14) . . .
236(15) . . .
219(15) . . .
234(15) . . .
226(15) . . .
229(15) . . .
221(15) . . .
207(14) . . .
215(15) . . .
210(14) . . .
215(15) . . .
223(15) . . .
207(14) . . .
220(15) . . .
213(15) . . .
231(15) . . .
205(14) . . .
249(16) . . .
256(16) . . .
241(16) . . .
211(15) . . .
222(15) . . .
216(15) . . .
233(15) . . .
217(15) . . .
208(14) . . .
225(15) . . .
214(15) . . .
216(15) . . .
234(15) . . .
210(14) . . .
213(15) . . .
214(15) . . .
243(16) . . .
217(15) . . .
231(15) . . .
207(14) . . .
236(15) . . .
219(15) . . .
236(15) . . .
206(14) . . .
221(15) . . .
207(14) . . .
242(16) . . .
216(15) . . .
215(15) . . .
242(16) . . .
232(15) . . .
238(15) . . .
220(15) . . .
227(15) . . .
239(15) . . .
249(16) . . .
261(16) . . .
245(16) . . .
216(15) . . .
241(16) . . .
260(16) . . .
218(15) . . .
250(16) . . .
236(15) . . .
238(15) . . .
263(16) . . .
246(16) . . .
274(17) . . .
246(16) . . .
230(15) . . .
265(16) . . .
243(16) . . .
219(15) . . .
247(16) . . .
218(15) . . .
221(15) . . .
249(16) . . .
237(15) . . .
248(16) . . .
261(16) . . .
274(17) . . .
275(17) . . .
251(16) . . .
266(16) . . .
272(16) . . .
256(16) . . .
248(16) . . .
266(16) . . .
274(17) . . .
277(17) . . .
273(17) . . .
273(17) . . .
300(17) . . .
295(17) . . .
308(18) . . .
295(17) . . .
290(17) . . .
292(17) . . .
292(17) . . .
296(17) . . .
287(17) . . .
312(18) . . .
318(18) . . .
342(18) . . .
336(18) . . .
328(18) . . .
349(19) . . .
357(19) . . .
374(19) . . .
382(20) . . .
388(20) . . .
390(20) . . .
402(20) . . .
413(20) . . .
453(21) . . .
456(21) . . .
483(22) . . .
494(22) . . .
494(22) . . .
519(23) . . .
554(24) . . .
594(24) . . .
589(24) . . .
606(25) . . .
620(25) . . .
685(26) . . .
742(27) . . .
742(27) . . .
820(29) . . .
832(29) . . .
961(31) . . .
959(31) . . .
1150(34) . . .
1228(35) . . .
1255(35) . . .
1400(37) . . .
1597(40) . . .
1783(42) . . .
2008(45) . . .
2288(48) . . .
2448(49) . . .
2820(53) . . .
3103(56) . . .
3665(61) . . .
4146(64) . . .
4634(68) . . .
5140(72) . . .
5807(76) . . .
6365(80) . . .
6874(83) . . .
7367(86) . . .
7619(87) . . .
7613(87) . . .
7518(87) . . .
7433(86) . . .
7189(85) . . .
6612(81) . . .
6208(79) . . .
5686(75) . . .
5216(72) . . .
4547(67) . . .
4039(64) . . .
3580(60) . . .
3233(57) . . .
2754(52) . . .
2479(50) . . .
2212(47) . . .
1974(44) . . .
1827(43) . . .
1660(41) . . .
1462(38) . . .
1357(37) . . .
1244(35) . . .
1094(33) . . .
1001(32) . . .
906(30) . . .
821(29) . . .
780(28) . . .
701(26) . . .
719(27) . . .
628(25) . . .
619(25) . . .
589(24) . . .
544(23) . . .
505(22) . . .
500(22) . . .
461(21) . . .
498(22) . . .
458(21) . . .
441(21) . . .
439(21) . . .
401(20) . . .
398(20) . . .
398(20) . . .
379(19) . . .
384(20) . . .
381(20) . . .
391(20) . . .
370(19) . . .
329(18) . . .
353(19) . . .
332(18) . . .
316(18) . . .
299(17) . . .
333(18) . . .
316(18) . . .
331(18) . . .
312(18) . . .
317(18) . . .
285(17) . . .
297(17) . . .
296(17) . . .
284(17) . . .
272(16) . . .
277(17) . . .
267(16) . . .
288(17) . . .
267(16) . . .
244(16) . . .
285(17) . . .
262(16) . . .
250(16) . . .
254(16) . . .
265(16) . . .
262(16) . . .
264(16) . . .
254(16) . . .
227(15) . . .
257(16) . . .
271(16) . . .
230(15) . . .
213(15) . . .
217(15) . . .
231(15) . . .
280(17) . . .
236(15) . . .
231(15) . . .
223(15) . . .
233(15) . . .
241(16) . . .
234(15) . . .
222(15) . . .
249(16) . . .
219(15) . . .
233(15) . . .
206(14) . . .
241(16) . . .
216(15) . . .
210(14) . . .
213(15) . . .
216(15) . . .
225(15) . . .
246(16) . . .
206(14) . . .
225(15) . . .
212(15) . . .
214(15) . . .
222(15) . . .
230(15) . . .
217(15) . . .
232(15) . . .
207(14) . . .
221(15) . . .
230(15) . . .
252(16) . . .
224(15) . . .
204(14) . . .
212(15) . . .
238(15) . . .
213(15) . . .
215(15) . . .
204(14) . . .
217(15) . . .
211(15) . . .
219(15) . . .
228(15) . . .
240(15) . . .
211(15) . . .
238(15) . . .
233(15) . . .
211(15) . . .
187(14) . . .
182(13) . . .
217(15) . . .
195(14) . . .
243(16) . . .
207(14) . . .
213(15) . . .
238(15) . . .
229(15) . . .
232(15) . . .
228(15) . . .
207(14) . . .
218(15) . . .
202(14) . . .
230(15) . . .
202(14) . . .
216(15) . . .
206(14) . . .
201(14) . . .
238(15) . . .
225(15) . . .
220(15) . . .
216(15) . . .
197(14) . . .
216(15) . . .
205(14) . . .
216(15) . . .
218(15) . . .
248(16) . . .
235(15) . . .
210(14) . . .
228(15) . . .
227(15) . . .
231(15) . . .
202(14) . . .
221(15) . . .
210(14) . . .
207(14) . . .
223(15) . . .
208(14) . . .
217(15) . . .
227(15) . . .
199(14) . . .
203(14) . . .
212(15) . . .
205(14) . . .
195(14) . . .
233(15) . . .
199(14) . . .
200(14) . . .
235(15) . . .
211(15) . . .
228(15) . . .
209(14) . . .
207(14) . . .
211(15) . . .
219(15) . . .
220(15) . . .
203(14) . . .
216(15) . . .
248(16) . . .
222(15) . . .
198(14) . . .
192(14) . . .
202(14) . . .
197(14) . . .
219(15) . . .
187(14) . . .
215(15) . . .
204(14) . . .
208(14) . . .
200(14) . . .
210(14) . . .
242(16) . . .
210(14) . . .
235(15) . . .
204(14) . . .
216(15) . . .
186(14) . . .
208(14) . . .
215(15) . . .
224(15) . . .
210(14) . . .
195(14) . . .
219(15) . . .
220(15) . . .
215(15) . . .
234(15) . . .
224(15) . . .
218(15) . . .
216(15) . . .
231(15) . . .
207(14) . . .
213(15) . . .
203(14) . . .
205(14) . . .
211(15) . . .
210(14) . . .
217(15) . . .
209(14) . . .
213(15) . . .
193(14) . . .
198(14) . . .
200(14) . . .
216(15) . . .
219(15) . . .
190(14) . . .
197(14) . . .
204(14) . . .
209(14) . . .
204(14) . . .
173(13) . . .
202(14) . . .
202(14) . . .
210(14) . . .
221(15) . . .
208(14) . . .
220(15) . . .
210(14) . . .
208(14) . . .
211(15) . . .
190(14) . . .
201(14) . . .
212(15) . . .
189(14) . . .
218(15) . . .
203(14) . . .
204(14) . . .
190(14) . . .
212(15) . . .
241(16) . . .
241(16) . . .
185(14) . . .
212(15) . . .
186(14) . . .
212(15) . . .
213(15) . . .
187(14) . . .
206(14) . . .
211(15) . . .
206(14) . . .
212(15) . . .
185(14) . . .
189(14) . . .
200(14) . . .
220(15) . . .
200(14) . . .
196(14) . . .
198(14) . . .
179(13) . . .
190(14) . . .
202(14) . . .
217(15) . . .
209(14) . . .
221(15) . . .
185(14) . . .
184(14) . . .
195(14) . . .
203(14) . . .
206(14) . . .
217(15) . . .
200(14) . . .
200(14) . . .
178(13) . . .
202(14) . . .
216(15) . . .
194(14) . . .
202(14) . . .
212(15) . . .
191(14) . . .
209(14) . . .
191(14) . . .
224(15) . . .
180(13) . . .
213(15) . . .
222(15) . . .
191(14) . . .
185(14) . . .
190(14) . . .
195(14) . . .
187(14) . . .
185(14) . . .
202(14) . . .
209(14) . . .
187(14) . . .
207(14) . . .
201(14) . . .
183(14) . . .
210(14) . . .
177(13) . . .
184(14) . . .
194(14) . . .
205(14) . . .
210(14) . . .
214(15) . . .
202(14) . . .
189(14) . . .
202(14) . . .
197(14) . . .
197(14) . . .
207(14) . . .
212(15) . . .
191(14) . . .
198(14) . . .
182(13) . . .
205(14) . . .
203(14) . . .
204(14) . . .
193(14) . . .
199(14) . . .
192(14) . . .
171(13) . . .
180(13) . . .
192(14) . . .
186(14) . . .
191(14) . . .
205(14) . . .
200(14) . . .
181(13) . . .
203(14) . . .
190(14) . . .
193(14) . . .
187(14) . . .
179(13) . . .
193(14) . . .
195(14) . . .
214(15) . . .
188(14) . . .
192(14) . . .
170(13) . . .
200(14) . . .
181(13) . . .
199(14) . . .
212(15) . . .
206(14) . . .
194(14) . . .
216(15) . . .
186(14) . . .
203(14) . . .
191(14) . . .
190(14) . . .
212(15) . . .
200(14) . . .
191(14) . . .
173(13) . . .
193(14) . . .
200(14) . . .
180(13) . . .
196(14) . . .
202(14) . . .
198(14) . . .
206(14) . . .
207(14) . . .
182(13) . . .
215(15) . . .
197(14) . . .
183(14) . . .
194(14) . . .
202(14) . . .
184(14) . . .
193(14) . . .
173(13) . . .
202(14) . . .
179(13) . . .
208(14) . . .
206(14) . . .
187(14) . . .
169(13) . . .
191(14) . . .
183(14) . . .
221(15) . . .
191(14) . . .
191(14) . . .
195(14) . . .
179(13) . . .
185(14) . . .
197(14) . . .
176(13) . . .
204(14) . . .
201(14) . . .
178(13) . . .
205(14) . . .
182(13) . . .
193(14) . . .
181(13) . . .
189(14) . . .
183(14) . . .
194(14) . . .
203(14) . . .
177(13) . . .
199(14) . . .
206(14) . . .
194(14) . . .
182(13) . . .
184(14) . . .
188(14) . . .
186(14) . . .
186(14) . . .
217(15) . . .
197(14) . . .
185(14) . . .
194(14) . . .
184(14) . . .
212(15) . . .
203(14) . . .
199(14) . . .
184(14) . . .
207(14) . . .
195(14) . . .
189(14) . . .
212(15) . . .
210(14) . . .
187(14) . . .
197(14) . . .
184(14) . . .
212(15) . . .
188(14) . . .
194(14) . . .
170(13) . . .
188(14) . . .
196(14) . . .
201(14) . . .
213(15) . . .
190(14) . . .
190(14) . . .
202(14) . . .
181(13) . . .
206(14) . . .
197(14) . . .
209(14) . . .
193(14) . . .
194(14) . . .
200(14) . . .
194(14) . . .
206(14) . . .
200(14) . . .
192(14) . . .
197(14) . . .
199(14) . . .
199(14) . . .
203(14) . . .
207(14) . . .
205(14) . . .
190(14) . . .
194(14) . . .
185(14) . . .
185(14) . . .
202(14) . . .
209(14) . . .
196(14) . . .
208(14) . . .
189(14) . . .
174(13) . . .
196(14) . . .
194(14) . . .
199(14) . . .
182(13) . . .
193(14) . . .
199(14) . . .
186(14) . . .
201(14) . . .
206(14) . . .
192(14) . . .
195(14) . . .
180(13) . . .
179(13) . . .
199(14) . . .
178(13) . . .
189(14) . . .
189(14) . . .
183(14) . . .
177(13) . . .
193(14) . . .
207(14) . . .
197(14) . . .
199(14) . . .
188(14) . . .
195(14) . . .
206(14) . . .
180(13) . . .
187(14) . . .
195(14) . . .
156(12) . . .
168(13) . . .
188(14) . . .
202(14) . . .
193(14) . . .
183(14) . . .
192(14) . . .
197(14) . . .
187(14) . . .
194(14) . . .
176(13) . . .
178(13) . . .
176(13) . . .
180(13) . . .
189(14) . . .
201(14) . . .
195(14) . . .
201(14) . . .
186(14) . . .
192(14) . . .
192(14) . . .
171(13) . . .
177(13) . . .
193(14) . . .
201(14) . . .
201(14) . . .
175(13) . . .
170(13) . . .
184(14) . . .
200(14) . . .
173(13) . . .
173(13) . . .
199(14) . . .
189(14) . . .
185(14) . . .
185(14) . . .
184(14) . . .
200(14) . . .
188(14) . . .
167(13) . . .
173(13) . . .
181(13) . . .
200(14) . . .
178(13) . . .
180(13) . . .
200(14) . . .
200(14) . . .
177(13) . . .
187(14) . . .
205(14) . . .
179(13) . . .
193(14) . . .
163(13) . . .
179(13) . . .
183(14) . . .
199(14) . . .
178(13) . . .
184(14) . . .
173(13) . . .
193(14) . . .
175(13) . . .
188(14) . . .
188(14) . . .
182(13) . . .
171(13) . . .
189(14) . . .
185(14) . . .
207(14) . . .
176(13) . . .
174(13) . . .
191(14) . . .
184(14) . . .
196(14) . . .
177(13) . . .
170(13) . . .
206(14) . . .
182(13) . . .
186(14) . . .
180(13) . . .
184(14) . . .
170(13) . . .
181(13) . . .
170(13) . . .
184(14) . . .
190(14) . . .
188(14) . . .
193(14) . . .
186(14) . . .
200(14) . . .
197(14) . . .
172(13) . . .
173(13) . . .
197(14) . . .
184(14) . . .
184(14) . . .
207(14) . . .
202(14) . . .
181(13) . . .
184(14) . . .
211(15) . . .
214(15) . . .
205(14) . . .
186(14) . . .
187(14) . . .
177(13) . . .
172(13) . . .
156(12) . . .
172(13) . . .
177(13) . . .
181(13) . . .
179(13) . . .
166(13) . . .
190(14) . . .
191(14) . . .
179(13) . . .
197(14) . . .
187(14) . . .
195(14) . . .
209(14) . . .
203(14) . . .
207(14) . . .
189(14) . . .
175(13) . . .
175(13) . . .
195(14) . . .
190(14) . . .
178(13) . . .
204(14) . . .
207(14) . . .
193(14) . . .
200(14) . . .
186(14) . . .
188(14) . . .
183(14) . . .
207(14) . . .
197(14) . . .
205(14) . . .
204(14) . . .
179(13) . . .
185(14) . . .
196(14) . . .
190(14) . . .
182(13) . . .
210(14) . . .
177(13) . . .
190(14) . . .
200(14) . . .
203(14) . . .
198(14) . . .
204(14) . . .
182(13) . . .
166(13) . . .
197(14) . . .
205(14) . . .
185(14) . . .
186(14) . . .
189(14) . . .
219(15) . . .
187(14) . . .
198(14) . . .
193(14) . . .
173(13) . . .
189(14) . . .
195(14) . . .
196(14) . . .
209(14) . . .
180(13) . . .
175(13) . . .
184(14) . . .
185(14) . . .
194(14) . . .
182(13) . . .
211(15) . . .
193(14) . . .
190(14) . . .
189(14) . . .
172(13) . . .
188(14) . . .
165(13) . . .
188(14) . . .
203(14) . . .
200(14) . . .
210(14) . . .
202(14) . . .
201(14) . . .
196(14) . . .
184(14) . . .
190(14) . . .
204(14) . . .
198(14) . . .
211(15) . . .
194(14) . . .
182(13) . . .
206(14) . . .
210(14) . . .
192(14) . . .
222(15) . . .
179(13) . . .
174(13) . . .
170(13) . . .
197(14) . . .
192(14) . . .
188(14) . . .
193(14) . . .
182(13) . . .
197(14) . . .
169(13) . . .
172(13) . . .
180(13) . . .
196(14) . . .
159(13) . . .
182(13) . . .
165(13) . . .
187(14) . . .
218(15) . . .
187(14) . . .
190(14) . . .
208(14) . . .
184(14) . . .
183(14) . . .
189(14) . . .
197(14) . . .
200(14) . . .
189(14) . . .
200(14) . . .
183(14) . . .
190(14) . . .
194(14) . . .
179(13) . . .
158(13) . . .
191(14) . . .
189(14) . . .
200(14) . . .
198(14) . . .
217(15) . . .
206(14) . . .
201(14) . . .
184(14) . . .
199(14) . . .
172(13) . . .
189(14) . . .
201(14) . . .
177(13) . . .
189(14) . . .
200(14) . . .
192(14) . . .
192(14) . . .
203(14) . . .
216(15) . . .
187(14) . . .
203(14) . . .
195(14) . . .
174(13) . . .
168(13) . . .
185(14) . . .
191(14) . . .
194(14) . . .
195(14) . . .
193(14) . . .
198(14) . . .
180(13) . . .
180(13) . . .
190(14) . . .
185(14) . . .
187(14) . . .
190(14) . . .
205(14) . . .
196(14) . . .
194(14) . . .
199(14) . . .
191(14) . . .
193(14) . . .
195(14) . . .
201(14) . . .
202(14) . . .
183(14) . . .
196(14) . . .
196(14) . . .
183(14) . . .
194(14) . . .
197(14) . . .
190(14) . . .
194(14) . . .
174(13) . . .
205(14) . . .
189(14) . . .
179(13) . . .
198(14) . . .
205(14) . . .
211(15) . . .
183(14) . . .
196(14) . . .
219(15) . . .
193(14) . . .
201(14) . . .
199(14) . . .
199(14) . . .
211(15) . . .
208(14) . . .
212(15) . . .
205(14) . . .
206(14) . . .
198(14) . . .
175(13) . . .
212(15) . . .
191(14) . . .
231(15) . . .
190(14) . . .
211(15) . . .
203(14) . . .
206(14) . . .
233(15) . . .
218(15) . . .
199(14) . . .
207(14) . . .
210(14) . . .
183(14) . . .
210(14) . . .
190(14) . . .
202(14) . . .
195(14) . . .
219(15) . . .
213(15) . . .
224(15) . . .
206(14) . . .
233(15) . . .
206(14) . . .
195(14) . . .
204(14) . . .
200(14) . . .
201(14) . . .
205(14) . . .
228(15) . . .
198(14) . . .
211(15) . . .
221(15) . . .
217(15) . . .
234(15) . . .
214(15) . . .
225(15) . . .
235(15) . . .
237(15) . . .
235(15) . . .
236(15) . . .
226(15) . . .
237(15) . . .
253(16) . . .
240(15) . . .
234(15) . . .
239(15) . . .
254(16) . . .
246(16) . . .
272(16) . . .
251(16) . . .
276(17) . . .
259(16) . . .
268(16) . . .
319(18) . . .
318(18) . . .
313(18) . . .
337(18) . . .
314(18) . . .
295(17) . . .
344(19) . . .
368(19) . . .
355(19) . . .
390(20) . . .
363(19) . . .
354(19) . . .
395(20) . . .
393(20) . . .
450(21) . . .
447(21) . . .
438(21) . . .
473(22) . . .
513(23) . . .
554(24) . . .
570(24) . . .
648(25) . . .
640(25) . . .
747(27) . . .
711(27) . . .
804(28) . . .
935(31) . . .
972(31) . . .
1107(33) . . .
1229(35) . . .
1362(37) . . .
1495(39) . . .
1658(41) . . .
1826(43) . . .
2004(45) . . .
2197(47) . . .
2439(49) . . .
2663(52) . . .
2872(54) . . .
2970(54) . . .
3096(56) . . .
3233(57) . . .
3448(59) . . .
3369(58) . . .
3338(58) . . .
3420(58) . . .
3236(57) . . .
3144(56) . . .
3098(56) . . .
2837(53) . . .
2693(52) . . .
2540(50) . . .
2311(48) . . .
2097(46) . . .
1927(44) . . .
1676(41) . . .
1639(40) . . .
1519(39) . . .
1275(36) . . .
1150(34) . . .
1045(32) . . .
956(31) . . .
866(29) . . .
826(29) . . .
750(27) . . .
732(27) . . .
648(25) . . .
609(25) . . .
557(24) . . .
536(23) . . .
505(22) . . .
484(22) . . .
450(21) . . .
432(21) . . .
407(20) . . .
411(20) . . .
405(20) . . .
366(19) . . .
353(19) . . .
333(18) . . .
342(18) . . .
319(18) . . .
326(18) . . .
310(18) . . .
293(17) . . .
325(18) . . .
287(17) . . .
276(17) . . .
299(17) . . .
268(16) . . .
280(17) . . .
259(16) . . .
279(17) . . .
257(16) . . .
251(16) . . .
232(15) . . .
226(15) . . .
255(16) . . .
217(15) . . .
205(14) . . .
219(15) . . .
238(15) . . .
211(15) . . .
224(15) . . .
236(15) . . .
215(15) . . .
223(15) . . .
250(16) . . .
227(15) . . .
236(15) . . .
214(15) . . .
227(15) . . .
235(15) . . .
207(14) . . .
205(14) . . .
206(14) . . .
220(15) . . .
214(15) . . .
194(14) . . .
201(14) . . .
224(15) . . .
215(15) . . .
207(14) . . .
201(14) . . .
208(14) . . .
207(14) . . .
192(14) . . .
218(15) . . .
215(15) . . .
203(14) . . .
222(15) . . .
225(15) . . .
196(14) . . .
195(14) . . .
204(14) . . .
198(14) . . .
198(14) . . .
190(14) . . .
211(15) . . .
218(15) . . .
213(15) . . .
196(14) . . .
189(14) . . .
201(14) . . .
218(15) . . .
194(14) . . .
207(14) . . .
197(14) . . .
186(14) . . .
208(14) . . .
199(14) . . .
184(14) . . .
198(14) . . .
201(14) . . .
209(14) . . .
197(14) . . .
181(13) . . .
192(14) . . .
180(13) . . .
187(14) . . .
193(14) . . .
169(13) . . .
182(13) . . .
192(14) . . .
212(15) . . .
196(14) . . .
226(15) . . .
189(14) . . .
185(14) . . .
198(14) . . .
177(13) . . .
202(14) . . .
232(15) . . .
198(14) . . .
176(13) . . .
188(14) . . .
189(14) . . .
196(14) . . .
179(13) . . .
191(14) . . .
173(13) . . .
207(14) . . .
194(14) . . .
190(14) . . .
196(14) . . .
194(14) . . .
179(13) . . .
190(14) . . .
194(14) . . .
198(14) . . .
206(14) . . .
169(13) . . .
186(14) . . .
196(14) . . .
181(13) . . .
211(15) . . .
211(15) . . .
184(14) . . .
210(14) . . .
184(14) . . .
206(14) . . .
194(14) . . .
185(14) . . .
195(14) . . .
190(14) . . .
193(14) . . .
183(14) . . .
200(14) . . .
183(14) . . .
186(14) . . .
195(14) . . .
188(14) . . .
177(13) . . .
179(13) . . .
179(13) . . .
205(14) . . .
199(14) . . .
190(14) . . .
164(13) . . .
177(13) . . .
208(14) . . .
193(14) . . .
192(14) . . .
202(14) . . .
187(14) . . .
173(13) . . .
188(14) . . .
180(13) . . .
192(14) . . .
188(14) . . .
193(14) . . .
194(14) . . .
189(14) . . .
173(13) . . .
197(14) . . .
203(14) . . .
181(13) . . .
173(13) . . .
197(14) . . .
189(14) . . .
182(13) . . .
206(14) . . .
211(15) . . .
197(14) . . .
202(14) . . .
193(14) . . .
211(15) . . .
195(14) . . .
196(14) . . .
207(14) . . .
203(14) . . .
215(15) . . .
195(14) . . .
175(13) . . .
186(14) . . .
195(14) . . .
186(14) . . .
183(14) . . .
205(14) . . .
182(13) . . .
177(13) . . .
200(14) . . .
200(14) . . .
201(14) . . .
187(14) . . .
220(15) . . .
199(14) . . .
220(15) . . .
220(15) . . .
205(14) . . .
217(15) . . .
208(14) . . .
191(14) . . .
208(14) . . .
187(14) . . .
197(14) . . .
232(15) . . .
203(14) . . .
212(15) . . .
235(15) . . .
228(15) . . .
231(15) . . .
204(14) . . .
221(15) . . .
243(16) . . .
237(15) . . .
228(15) . . .
246(16) . . .
224(15) . . .
241(16) . . .
247(16) . . .
239(15) . . .
225(15) . . .
254(16) . . .
271(16) . . .
269(16) . . .
282(17) . . .
287(17) . . .
296(17) . . .
297(17) . . .
282(17) . . .
293(17) . . .
301(17) . . .
292(17) . . .
319(18) . . .
290(17) . . .
307(18) . . .
296(17) . . .
292(17) . . .
326(18) . . .
342(18) . . .
334(18) . . .
376(19) . . .
387(20) . . .
407(20) . . .
413(20) . . .
399(20) . . .
427(21) . . .
467(22) . . .
427(21) . . .
462(21) . . .
496(22) . . .
565(24) . . .
536(23) . . .
617(25) . . .
601(25) . . .
673(26) . . .
678(26) . . .
723(27) . . .
871(30) . . .
909(30) . . .
1022(32) . . .
1047(32) . . .
1193(35) . . .
1307(36) . . .
1480(38) . . .
1606(40) . . .
1766(42) . . .
1916(44) . . .
2135(46) . . .
2351(48) . . .
2546(50) . . .
2629(51) . . .
2835(53) . . .
2992(55) . . .
3048(55) . . .
3034(55) . . .
3043(55) . . .
2865(54) . . .
2895(54) . . .
2710(52) . . .
2593(51) . . .
2469(50) . . .
2150(46) . . .
1961(44) . . .
1803(42) . . .
1626(40) . . .
1382(37) . . .
1360(37) . . .
1216(35) . . .
1065(33) . . .
1003(32) . . .
960(31) . . .
831(29) . . .
808(28) . . .
709(27) . . .
664(26) . . .
639(25) . . .
579(24) . . .
557(24) . . .
480(22) . . .
484(22) . . .
518(23) . . .
443(21) . . .
460(21) . . .
387(20) . . .
373(19) . . .
366(19) . . .
333(18) . . .
332(18) . . .
347(19) . . .
339(18) . . .
292(17) . . .
306(17) . . .
295(17) . . .
270(16) . . .
290(17) . . .
258(16) . . .
268(16) . . .
252(16) . . .
255(16) . . .
241(16) . . .
261(16) . . .
240(15) . . .
252(16) . . .
261(16) . . .
230(15) . . .
248(16) . . .
258(16) . . .
229(15) . . .
244(16) . . .
224(15) . . .
229(15) . . .
219(15) . . .
221(15) . . .
220(15) . . .
213(15) . . .
221(15) . . .
238(15) . . .
211(15) . . .
194(14) . . .
203(14) . . .
201(14) . . .
240(15) . . .
205(14) . . .
207(14) . . .
208(14) . . .
189(14) . . .
244(16) . . .
205(14) . . .
200(14) . . .
201(14) . . .
204(14) . . .
187(14) . . .
184(14) . . .
186(14) . . .
197(14) . . .
162(13) . . .
214(15) . . .
193(14) . . .
194(14) . . .
210(14) . . .
199(14) . . .
199(14) . . .
199(14) . . .
189(14) . . .
183(14) . . .
185(14) . . .
181(13) . . .
182(13) . . .
179(13) . . .
213(15) . . .
190(14) . . .
189(14) . . .
184(14) . . .
199(14) . . .
195(14) . . .
183(14) . . .
177(13) . . .
198(14) . . .
175(13) . . .
185(14) . . .
186(14) . . .
156(12) . . .
171(13) . . .
206(14) . . .
199(14) . . .
184(14) . . .
194(14) . . .
181(13) . . .
214(15) . . .
191(14) . . .
185(14) . . .
182(13) . . .
172(13) . . .
197(14) . . .
190(14) . . .
192(14) . . .
187(14) . . .
181(13) . . .
203(14) . . .
163(13) . . .
195(14) . . .
186(14) . . .
189(14) . . .
177(13) . . .
190(14) . . .
172(13) . . .
181(13) . . .
184(14) . . .
169(13) . . .
179(13) . . .
195(14) . . .
166(13) . . .
184(14) . . .
193(14) . . .
170(13) . . .
173(13) . . .
178(13) . . .
181(13) . . .
179(13) . . .
194(14) . . .
165(13) . . .
176(13) . . .
189(14) . . .
182(13) . . .
190(14) . . .
177(13) . . .
158(13) . . .
191(14) . . .
183(14) . . .
193(14) . . .
165(13) . . .
180(13) . . .
147(12) . . .
170(13) . . .
176(13) . . .
166(13) . . .
174(13) . . .
166(13) . . .
184(14) . . .
191(14) . . .
182(13) . . .
196(14) . . .
182(13) . . .
166(13) . . .
203(14) . . .
161(13) . . .
183(14) . . .
161(13) . . .
194(14) . . .
165(13) . . .
165(13) . . .
167(13) . . .
154(12) . . .
161(13) . . .
175(13) . . .
186(14) . . .
189(14) . . .
176(13) . . .
149(12) . . .
181(13) . . .
163(13) . . .
184(14) . . .
163(13) . . .
179(13) . . .
192(14) . . .
176(13) . . .
178(13) . . .
175(13) . . .
166(13) . . .
160(13) . . .
174(13) . . .
197(14) . . .
183(14) . . .
172(13) . . .
185(14) . . .
178(13) . . .
172(13) . . .
188(14) . . .
169(13) . . .
171(13) . . .
168(13) . . .
171(13) . . .
178(13) . . .
194(14) . . .
191(14) . . .
185(14) . . .
173(13) . . .
185(14) . . .
160(13) . . .
157(13) . . .
180(13) . . .
180(13) . . .
177(13) . . .
173(13) . . .
182(13) . . .
205(14) . . .
188(14) . . .
179(13) . . .
174(13) . . .
169(13) . . .
165(13) . . .
163(13) . . .
187(14) . . .
182(13) . . .
175(13) . . .
175(13) . . .
187(14) . . .
191(14) . . .
171(13) . . .
179(13) . . .
166(13) . . .
166(13) . . .
217(15) . . .
202(14) . . .
183(14) . . .
172(13) . . .
179(13) . . .
176(13) . . .
180(13) . . .
188(14) . . .
184(14) . . .
192(14) . . .
172(13) . . .
172(13) . . .
187(14) . . .
180(13) . . .
164(13) . . .
186(14) . . .
189(14) . . .
198(14) . . .
169(13) . . .
174(13) . . .
160(13) . . .
177(13) . . .
159(13) . . .
170(13) . . .
182(13) . . .
198(14) . . .
179(13) . . .
192(14) . . .
168(13) . . .
177(13) . . .
156(12) . . .
175(13) . . .
181(13) . . .
174(13) . . .
179(13) . . .
184(14) . . .
159(13) . . .
155(12) . . .
175(13) . . .
175(13) . . .
188(14) . . .
175(13) . . .
170(13) . . .
187(14) . . .
166(13) . . .
171(13) . . .
150(12) . . .
180(13) . . .
200(14) . . .
174(13) . . .
160(13) . . .
201(14) . . .
191(14) . . .
190(14) . . .
179(13) . . .
177(13) . . .
153(12) . . .
209(14) . . .
179(13) . . .
175(13) . . .
177(13) . . .
186(14) . . .
160(13) . . .
174(13) . . .
165(13) . . .
203(14) . . .
185(14) . . .
167(13) . . .
182(13) . . .
168(13) . . .
189(14) . . .
176(13) . . .
173(13) . . .
156(12) . . .
167(13) . . .
178(13) . . .
158(13) . . .
170(13) . . .
201(14) . . .
167(13) . . .
199(14) . . .
169(13) . . .
180(13) . . .
192(14) . . .
191(14) . . .
174(13) . . .
189(14) . . .
166(13) . . .
198(14) . . .
165(13) . . .
191(14) . . .
199(14) . . .
185(14) . . .
180(13) . . .
179(13) . . .
188(14) . . .
173(13) . . .
184(14) . . .
194(14) . . .
194(14) . . .
188(14) . . .
178(13) . . .
175(13) . . .
179(13) . . .
190(14) . . .
174(13) . . .
156(12) . . .
183(14) . . .
176(13) . . .
193(14) . . .
184(14) . . .
160(13) . . .
164(13) . . .
207(14) . . .
192(14) . . .
167(13) . . .
164(13) . . .
194(14) . . .
183(14) . . .
190(14) . . .
178(13) . . .
195(14) . . .
181(13) . . .
194(14) . . .
190(14) . . .
172(13) . . .
181(13) . . .
178(13) . . .
183(14) . . .
176(13) . . .
177(13) . . .
170(13) . . .
168(13) . . .
178(13) . . .
179(13) . . .
169(13) . . .
175(13) . . .
154(12) . . .
194(14) . . .
190(14) . . .
160(13) . . .
180(13) . . .
185(14) . . .
187(14) . . .
167(13) . . .
186(14) . . .
175(13) . . .
175(13) . . .
197(14) . . .
187(14) . . .
175(13) . . .
187(14) . . .
180(13) . . .
188(14) . . .
194(14) . . .
177(13) . . .
162(13) . . .
171(13) . . .
166(13) . . .
183(14) . . .
162(13) . . .
180(13) . . .
179(13) . . .
193(14) . . .
165(13) . . .
152(12) . . .
155(12) . . .
173(13) . . .
179(13) . . .
165(13) . . .
159(13) . . .
189(14) . . .
183(14) . . .
178(13) . . .
163(13) . . .
196(14) . . .
177(13) . . .
196(14) . . .
190(14) . . .
191(14) . . .
154(12) . . .
181(13) . . .
175(13) . . .
178(13) . . .
182(13) . . .
198(14) . . .
179(13) . . .
182(13) . . .
215(15) . . .
189(14) . . .
176(13) . . .
167(13) . . .
163(13) . . .
157(13) . . .
165(13) . . .
185(14) . . .
176(13) . . .
181(13) . . .
175(13) . . .
171(13) . . .
200(14) . . .
177(13) . . .
164(13) . . .
164(13) . . .
177(13) . . .
174(13) . . .
180(13) . . .
167(13) . . .
155(12) . . .
165(13) . . .
156(12) . . .
196(14) . . .
151(12) . . .
182(13) . . .
182(13) . . .
172(13) . . .
163(13) . . .
160(13) . . .
177(13) . . .
182(13) . . .
185(14) . . .
171(13) . . .
179(13) . . .
184(14) . . .
160(13) . . .
169(13) . . .
180(13) . . .
172(13) . . .
173(13) . . .
170(13) . . .
166(13) . . .
155(12) . . .
172(13) . . .
168(13) . . .
177(13) . . .
171(13) . . .
170(13) . . .
164(13) . . .
167(13) . . .
176(13) . . .
159(13) . . .
172(13) . . .
186(14) . . .
164(13) . . .
192(14) . . .
193(14) . . .
192(14) . . .
174(13) . . .
181(13) . . .
152(12) . . .
154(12) . . .
178(13) . . .
178(13) . . .
182(13) . . .
177(13) . . .
177(13) . . .
197(14) . . .
163(13) . . .
192(14) . . .
195(14) . . .
175(13) . . .
200(14) . . .
201(14) . . .
189(14) . . .
166(13) . . .
173(13) . . .
202(14) . . .
172(13) . . .
167(13) . . .
170(13) . . .
193(14) . . .
188(14) . . .
196(14) . . .
173(13) . . .
190(14) . . .
170(13) . . .
165(13) . . .
179(13) . . .
175(13) . . .
159(13) . . .
185(14) . . .
171(13) . . .
176(13) . . .
168(13) . . .
200(14) . . .
171(13) . . .
189(14) . . .
186(14) . . .
188(14) . . .
175(13) . . .
178(13) . . .
181(13) . . .
188(14) . . .
179(13) . . .
178(13) . . .
180(13) . . .
165(13) . . .
183(14) . . .
167(13) . . .
187(14) . . .
162(13) . . .
174(13) . . .
163(13) . . .
169(13) . . .
179(13) . . .
181(13) . . .
199(14) . . .
184(14) . . .
190(14) . . .
177(13) . . .
179(13) . . .
156(12) . . .
171(13) . . .
175(13) . . .
177(13) . . .
179(13) . . .
190(14) . . .
167(13) . . .
176(13) . . .
187(14) . . .
183(14) . . .
159(13) . . .
172(13) . . .
173(13) . . .
162(13) . . .
169(13) . . .
162(13) . . .
169(13) . . .
176(13) . . .
187(14) . . .
167(13) . . .
170(13) . . .
172(13) . . .
156(12) . . .
163(13) . . .
165(13) . . .
184(14) . . .
163(13) . . .
166(13) . . .
169(13) . . .
183(14) . . .
148(12) . . .
206(14) . . .
187(14) . . .
172(13) . . .
157(13) . . .
174(13) . . .
192(14) . . .
173(13) . . .
176(13) . . .
188(14) . . .
189(14) . . .
186(14) . . .
164(13) . . .
162(13) . . .
188(14) . . .
179(13) . . .
179(13) . . .
186(14) . . .
180(13) . . .
168(13) . . .
178(13) . . .
184(14) . . .
167(13) . . .
169(13) . . .
168(13) . . .
166(13) . . .
168(13) . . .
177(13) . . .
175(13) . . .
160(13) . . .
177(13) . . .
154(12) . . .
194(14) . . .
173(13) . . .
182(13) . . .
181(13) . . .
175(13) . . .
168(13) . . .
165(13) . . .
169(13) . . .
171(13) . . .
193(14) . . .
183(14) . . .
186(14) . . .
213(15) . . .
186(14) . . .
143(12) . . .
175(13) . . .
159(13) . . .
169(13) . . .
176(13) . . .
188(14) . . .
186(14) . . .
173(13) . . .
171(13) . . .
169(13) . . .
187(14) . . .
170(13) . . .
176(13) . . .
168(13) . . .
172(13) . . .
163(13) . . .
163(13) . . .
192(14) . . .
185(14) . . .
189(14) . . .
194(14) . . .
207(14) . . .
178(13) . . .
184(14) . . .
171(13) . . .
154(12) . . .
189(14) . . .
193(14) . . .
176(13) . . .
162(13) . . .
180(13) . . .
186(14) . . .
167(13) . . .
177(13) . . .
195(14) . . .
183(14) . . .
170(13) . . .
176(13) . . .
167(13) . . .
172(13) . . .
172(13) . . .
185(14) . . .
169(13) . . .
166(13) . . .
168(13) . . .
176(13) . . .
167(13) . . .
168(13) . . .
182(13) . . .
170(13) . . .
188(14) . . .
187(14) . . .
159(13) . . .
182(13) . . .
168(13) . . .
164(13) . . .
183(14) . . .
188(14) . . .
172(13) . . .
188(14) . . .
171(13) . . .
169(13) . . .
167(13) . . .
171(13) . . .
162(13) . . .
169(13) . . .
207(14) . . .
167(13) . . .
184(14) . . .
173(13) . . .
167(13) . . .
187(14) . . .
175(13) . . .
175(13) . . .
199(14) . . .
206(14) . . .
179(13) . . .
190(14) . . .
183(14) . . .
182(13) . . .
188(14) . . .
190(14) . . .
162(13) . . .
207(14) . . .
198(14) . . .
185(14) . . .
174(13) . . .
217(15) . . .
190(14) . . .
176(13) . . .
180(13) . . .
183(14) . . .
181(13) . . .
190(14) . . .
174(13) . . .
182(13) . . .
201(14) . . .
179(13) . . .
169(13) . . .
180(13) . . .
179(13) . . .
163(13) . . .
179(13) . . .
190(14) . . .
157(13) . . .
182(13) . . .
181(13) . . .
190(14) . . .
175(13) . . .
161(13) . . .
158(13) . . .
175(13) . . .
169(13) . . .
191(14) . . .
174(13) . . .
178(13) . . .
173(13) . . .
193(14) . . .
174(13) . . .
175(13) . . .
174(13) . . .
160(13) . . .
207(14) . . .
182(13) . . .
170(13) . . .
173(13) . . .
187(14) . . .
171(13) . . .
185(14) . . .
184(14) . . .
164(13) . . .
188(14) . . .
168(13) . . .
197(14) . . .
162(13) . . .
164(13) . . .
173(13) . . .
182(13) . . .
177(13) . . .
178(13) . . .
177(13) . . .
189(14) . . .
163(13) . . .
165(13) . . .
200(14) . . .
201(14) . . .
168(13) . . .
174(13) . . .
181(13) . . .
194(14) . . .
181(13) . . .
183(14) . . .
184(14) . . .
173(13) . . .
153(12) . . .
178(13) . . .
187(14) . . .
157(13) . . .
165(13) . . .
180(13) . . .
170(13) . . .
212(15) . . .
185(14) . . .
183(14) . . .
167(13) . . .
184(14) . . .
176(13) . . .
179(13) . . .
179(13) . . .
173(13) . . .
176(13) . . .
202(14) . . .
184(14) . . .
190(14) . . .
164(13) . . .
160(13) . . .
183(14) . . .
173(13) . . .
204(14) . . .
176(13) . . .
174(13) . . .
174(13) . . .
170(13) . . .
193(14) . . .
174(13) . . .
176(13) . . .
171(13) . . .
181(13) . . .
175(13) . . .
173(13) . . .
165(13) . . .
181(13) . . .
191(14) . . .
182(13) . . .
177(13) . . .
164(13) . . .
178(13) . . .
177(13) . . .
174(13) . . .
155(12) . . .
167(13) . . .
179(13) . . .
179(13) . . .
164(13) . . .
188(14) . . .
190(14) . . .
166(13) . . .
158(13) . . .
161(13) . . .
183(14) . . .
183(14) . . .
187(14) . . .
185(14) . . .
164(13) . . .
167(13) . . .
169(13) . . .
180(13) . . .
152(12) . . .
170(13) . . .
167(13) . . .
170(13) . . .
181(13) . . .
176(13) . . .
175(13) . . .
164(13) . . .
187(14) . . .
150(12) . . .
163(13) . . .
169(13) . . .
177(13) . . .
171(13) . . .
172(13) . . .
168(13) . . .
188(14) . . .
181(13) . . .
190(14) . . .
174(13) . . .
191(14) . . .
174(13) . . .
170(13) . . .
178(13) . . .
174(13) . . .
179(13) . . .
165(13) . . .
171(13) . . .
174(13) . . .
161(13) . . .
162(13) . . .
162(13) . . .
153(12) . . .
180(13) . . .
174(13) . . .
164(13) . . .
160(13) . . .
175(13) . . .
161(13) . . .
177(13) . . .
186(14) . . .
176(13) . . .
185(14) . . .
180(13) . . .
175(13) . . .
177(13) . . .
176(13) . . .
185(14) . . .
169(13) . . .
173(13) . . .
181(13) . . .
158(13) . . .
186(14) . . .
183(14) . . .
160(13) . . .
188(14) . . .
185(14) . . .
170(13) . . .
173(13) . . .
187(14) . . .
193(14) . . .
165(13) . . .
155(12) . . .
150(12) . . .
196(14) . . .
185(14) . . .
186(14) . . .
193(14) . . .
192(14) . . .
176(13) . . .
165(13) . . .
188(14) . . .
164(13) . . .
192(14) . . .
183(14) . . .
170(13) . . .
177(13) . . .
179(13) . . .
164(13) . . .
168(13) . . .
191(14) . . .
192(14) . . .
196(14) . . .
204(14) . . .
191(14) . . .
181(13) . . .
177(13) . . .
181(13) . . .
159(13) . . .
171(13) . . .
170(13) . . .
182(13) . . .
155(12) . . .
177(13) . . .
174(13) . . .
185(14) . . .
173(13) . . .
163(13) . . .
158(13) . . .
177(13) . . .
196(14) . . .
163(13) . . .
179(13) . . .
185(14) . . .
186(14) . . .
185(14) . . .
185(14) . . .
177(13) . . .
172(13) . . .
188(14) . . .
168(13) . . .
176(13) . . .
177(13) . . .
187(14) . . .
163(13) . . .
167(13) . . .
164(13) . . .
185(14) . . .
187(14) . . .
173(13) . . .
189(14) . . .
171(13) . . .
195(14) . . .
164(13) . . .
182(13) . . .
172(13) . . .
179(13) . . .
177(13) . . .
185(14) . . .
184(14) . . .
180(13) . . .
190(14) . . .
201(14) . . .
186(14) . . .
182(13) . . .
211(15) . . .
169(13) . . .
181(13) . . .
161(13) . . .
167(13) . . .
205(14) . . .
186(14) . . .
171(13) . . .
161(13) . . .
192(14) . . .
176(13) . . .
167(13) . . .
154(12) . . .
159(13) . . .
179(13) . . .
172(13) . . .
152(12) . . .
168(13) . . .
164(13) . . .
181(13) . . .
182(13) . . .
179(13) . . .
175(13) . . .
169(13) . . .
162(13) . . .
165(13) . . .
178(13) . . .
156(12) . . .
166(13) . . .
197(14) . . .
183(14) . . .
190(14) . . .
182(13) . . .
194(14) . . .
187(14) . . .
172(13) . . .
192(14) . . .
184(14) . . .
190(14) . . .
182(13) . . .
177(13) . . .
198(14) . . .
184(14) . . .
179(13) . . .
168(13) . . .
175(13) . . .
161(13) . . .
180(13) . . .
198(14) . . .
182(13) . . .
185(14) . . .
189(14) . . .
204(14) . . .
160(13) . . .
198(14) . . .
168(13) . . .
182(13) . . .
184(14) . . .
191(14) . . .
170(13) . . .
160(13) . . .
188(14) . . .
190(14) . . .
190(14) . . .
174(13) . . .
166(13) . . .
190(14) . . .
186(14) . . .
182(13) . . .
192(14) . . .
174(13) . . .
169(13) . . .
188(14) . . .
173(13) . . .
185(14) . . .
180(13) . . .
180(13) . . .
187(14) . . .
194(14) . . .
169(13) . . .
161(13) . . .
199(14) . . .
159(13) . . .
168(13) . . .
188(14) . . .
156(12) . . .
170(13) . . .
197(14) . . .
183(14) . . .
195(14) . . .
190(14) . . .
180(13) . . .
184(14) . . .
190(14) . . .
192(14) . . .
184(14) . . .
179(13) . . .
173(13) . . .
176(13) . . .
181(13) . . .
191(14) . . .
187(14) . . .
177(13) . . .
171(13) . . .
158(13) . . .
196(14) . . .
186(14) . . .
181(13) . . .
176(13) . . .
182(13) . . .
175(13) . . .
168(13) . . .
161(13) . . .
168(13) . . .
174(13) . . .
161(13) . . .
171(13) . . .
156(12) . . .
154(12) . . .
168(13) . . .
170(13) . . .
183(14) . . .
180(13) . . .
168(13) . . .
175(13) . . .
168(13) . . .
183(14) . . .
172(13) . . .
187(14) . . .
183(14) . . .
190(14) . . .
167(13) . . .
165(13) . . .
186(14) . . .
191(14) . . .
172(13) . . .
183(14) . . .
172(13) . . .
191(14) . . .
179(13) . . .
174(13) . . .
161(13) . . .
190(14) . . .
191(14) . . .
199(14) . . .
189(14) . . .
185(14) . . .
182(13) . . .
157(13) . . .
180(13) . . .
176(13) . . .
183(14) . . .
178(13) . . .
177(13) . . .
181(13) . . .
161(13) . . .
191(14) . . .
178(13) . . .
191(14) . . .
193(14) . . .
182(13) . . .
183(14) . . .
172(13) . . .
164(13) . . .
160(13) . . .
180(13) . . .
188(14) . . .
175(13) . . .
171(13) . . .
200(14) . . .
182(13) . . .
201(14) . . .
174(13) . . .
160(13) . . .
180(13) . . .
181(13) . . .
169(13) . . .
183(14) . . .
198(14) . . .
158(13) . . .
172(13) . . .
162(13) . . .
186(14) . . .
161(13) . . .
191(14) . . .
191(14) . . .
149(12) . . .
161(13) . . .
181(13) . . .
184(14) . . .
176(13) . . .
177(13) . . .
150(12) . . .
199(14) . . .
159(13) . . .
172(13) . . .
196(14) . . .
170(13) . . .
167(13) . . .
182(13) . . .
196(14) . . .
193(14) . . .
189(14) . . .
186(14) . . .
200(14) . . .
196(14) . . .
178(13) . . .
195(14) . . .
197(14) . . .
203(14) . . .
207(14) . . .
218(15) . . .
207(14) . . .
239(15) . . .
243(16) . . .
267(16) . . .
266(16) . . .
268(16) . . .
262(16) . . .
301(17) . . .
317(18) . . .
359(19) . . .
330(18) . . .
363(19) . . .
370(19) . . .
397(20) . . .
399(20) . . .
387(20) . . .
387(20) . . .
368(19) . . .
392(20) . . .
382(20) . . .
403(20) . . .
380(19) . . .
330(18) . . .
320(18) . . .
309(18) . . .
288(17) . . .
309(18) . . .
267(16) . . .
259(16) . . .
304(17) . . .
256(16) . . .
247(16) . . .
238(15) . . .
217(15) . . .
232(15) . . .
241(16) . . .
200(14) . . .
240(15) . . .
207(14) . . .
189(14) . . .
185(14) . . .
188(14) . . .
181(13) . . .
176(13) . . .
184(14) . . .
175(13) . . .
191(14) . . .
159(13) . . .
183(14) . . .
155(12) . . .
171(13) . . .
198(14) . . .
169(13) . . .
171(13) . . .
162(13) . . .
185(14) . . .
162(13) . . .
164(13) . . .
176(13) . . .
176(13) . . .
165(13) . . .
180(13) . . .
187(14) . . .
179(13) . . .
166(13) . . .
164(13) . . .
175(13) . . .
162(13) . . .
167(13) . . .
167(13) . . .
182(13) . . .
171(13) . . .
183(14) . . .
175(13) . . .
185(14) . . .
181(13) . . .
170(13) . . .
194(14) . . .
184(14) . . .
187(14) . . .
176(13) . . .
200(14) . . .
183(14) . . .
168(13) . . .
191(14) . . .
172(13) . . .
169(13) . . .
182(13) . . .
154(12) . . .
182(13) . . .
195(14) . . .
167(13) . . .
179(13) . . .
183(14) . . .
189(14) . . .
182(13) . . .
176(13) . . .
180(13) . . .
163(13) . . .
158(13) . . .
187(14) . . .
167(13) . . .
175(13) . . .
182(13) . . .
181(13) . . .
171(13) . . .
173(13) . . .
190(14) . . .
186(14) . . .
170(13) . . .
162(13) . . .
164(13) . . .
182(13) . . .
173(13) . . .
158(13) . . .
156(12) . . .
173(13) . . .
178(13) . . .
178(13) . . .
171(13) . . .
194(14) . . .
179(13) . . .
185(14) . . .
163(13) . . .
157(13) . . .
166(13) . . .
162(13) . . .
167(13) . . .
160(13) . . .
156(12) . . .
173(13) . . .
180(13) . . .
148(12) . . .
170(13) . . .
148(12) . . .
146(12) . . .
166(13) . . .
164(13) . . .
180(13) . . .
160(13) . . .
161(13) . . .
164(13) . . .
155(12) . . .
168(13) . . .
199(14) . . .
155(12) . . .
143(12) . . .
173(13) . . .
191(14) . . .
147(12) . . .
157(13) . . .
142(12) . . .
155(12) . . .
162(13) . . .
178(13) . . .
178(13) . . .
193(14) . . .
155(12) . . .
157(13) . . .
152(12) . . .
178(13) . . .
163(13) . . .
174(13) . . .
165(13) . . .
174(13) . . .
160(13) . . .
169(13) . . .
162(13) . . .
154(12) . . .
180(13) . . .
153(12) . . .
145(12) . . .
149(12) . . .
177(13) . . .
178(13) . . .
179(13) . . .
175(13) . . .
155(12) . . .
175(13) . . .
146(12) . . .
157(13) . . .
164(13) . . .
168(13) . . .
168(13) . . .
177(13) . . .
171(13) . . .
178(13) . . .
167(13) . . .
167(13) . . .
159(13) . . .
185(14) . . .
158(13) . . .
162(13) . . .
164(13) . . .
175(13) . . .
176(13) . . .
177(13) . . .
167(13) . . .
157(13) . . .
153(12) . . .
176(13) . . .
171(13) . . .
174(13) . . .
173(13) . . .
161(13) . . .
168(13) . . .
168(13) . . .
166(13) . . .
177(13) . . .
180(13) . . .
162(13) . . .
151(12) . . .
179(13) . . .
162(13) . . .
167(13) . . .
158(13) . . .
159(13) . . .
173(13) . . .
155(12) . . .
139(12) . . .
161(13) . . .
173(13) . . .
165(13) . . .
157(13) . . .
167(13) . . .
160(13) . . .
165(13) . . .
176(13) . . .
161(13) . . .
183(14) . . .
169(13) . . .
178(13) . . .
175(13) . . .
185(14) . . .
161(13) . . .
181(13) . . .
167(13) . . .
162(13) . . .
165(13) . . .
167(13) . . .
174(13) . . .
163(13) . . .
158(13) . . .
169(13) . . .
162(13) . . .
193(14) . . .
161(13) . . .
158(13) . . .
167(13) . . .
185(14) . . .
180(13) . . .
160(13) . . .
169(13) . . .
156(12) . . .
157(13) . . .
164(13) . . .
143(12) . . .
162(13) . . .
169(13) . . .
162(13) . . .
170(13) . . .
165(13) . . .
155(12) . . .
171(13) . . .
179(13) . . .
172(13) . . .
168(13) . . .
155(12) . . .
172(13) . . .
168(13) . . .
156(12) . . .
158(13) . . .
154(12) . . .
159(13) . . .
169(13) . . .
181(13) . . .
168(13) . . .
163(13) . . .
180(13) . . .
165(13) . . .
150(12) . . .
180(13) . . .
154(12) . . .
149(12) . . .
178(13) . . .
171(13) . . .
173(13) . . .
182(13) . . .
164(13) . . .
195(14) . . .
156(12) . . .
165(13) . . .
169(13) . . .
176(13) . . .
177(13) . . .
175(13) . . .
161(13) . . .
157(13) . . .
165(13) . . .
175(13) . . .
173(13) . . .
174(13) . . .
173(13) . . .
190(14) . . .
180(13) . . .
168(13) . . .
186(14) . . .
185(14) . . .
158(13) . . .
175(13) . . .
177(13) . . .
174(13) . . .
175(13) . . .
174(13) . . .
182(13) . . .
184(14) . . .
166(13) . . .
176(13) . . .
197(14) . . .
187(14) . . .
199(14) . . .
181(13) . . .
172(13) . . .
158(13) . . .
192(14) . . .
159(13) . . .
192(14) . . .
184(14) . . .
191(14) . . .
168(13) . . .
182(13) . . .
187(14) . . .
189(14) . . .
172(13) . . .
162(13) . . .
182(13) . . .
188(14) . . .
155(12) . . .
176(13) . . .
174(13) . . .
173(13) . . .
169(13) . . .
160(13) . . .
178(13) . . .
173(13) . . .
170(13) . . .
203(14) . . .
171(13) . . .
167(13) . . .
158(13) . . .
164(13) . . .
184(14) . . .
167(13) . . .
171(13) . . .
187(14) . . .
172(13) . . .
166(13) . . .
190(14) . . .
177(13) . . .
169(13) . . .
182(13) . . .
176(13) . . .
187(14) . . .
173(13) . . .
187(14) . . .
170(13) . . .
156(12) . . .
169(13) . . .
163(13) . . .
183(14) . . .
192(14) . . .
181(13) . . .
176(13) . . .
193(14) . . .
174(13) . . .
173(13) . . .
171(13) . . .
182(13) . . .
167(13) . . .
180(13) . . .
197(14) . . .
181(13) . . .
169(13) . . .
161(13) . . .
174(13) . . .
188(14) . . .
174(13) . . .
182(13) . . .
195(14) . . .
207(14) . . .
191(14) . . .
164(13) . . .
174(13) . . .
162(13) . . .
199(14) . . .
183(14) . . .
171(13) . . .
189(14) . . .
171(13) . . .
177(13) . . .
170(13) . . .
179(13) . . .
181(13) . . .
184(14) . . .
188(14) . . .
163(13) . . .
175(13) . . .
171(13) . . .
195(14) . . .
189(14) . . .
176(13) . . .
167(13) . . .
182(13) . . .
195(14) . . .
169(13) . . .
178(13) . . .
187(14) . . .
171(13) . . .
169(13) . . .
156(12) . . .
178(13) . . .
192(14) . . .
154(12) . . .
177(13) . . .
176(13) . . .
186(14) . . .
174(13) . . .
175(13) . . .
179(13) . . .
158(13) . . .
196(14) . . .
183(14) . . .
175(13) . . .
175(13) . . .
158(13) . . .
170(13) . . .
178(13) . . .
206(14) . . .
176(13) . . .
178(13) . . .
171(13) . . .
183(14) . . .
167(13) . . .
180(13) . . .
184(14) . . .
164(13) . . .
170(13) . . .
169(13) . . .
184(14) . . .
170(13) . . .
166(13) . . .
174(13) . . .
175(13) . . .
189(14) . . .
183(14) . . .
176(13) . . .
169(13) . . .
180(13) . . .
175(13) . . .
169(13) . . .
157(13) . . .
181(13) . . .
156(12) . . .
177(13) . . .
161(13) . . .
178(13) . . .
170(13) . . .
176(13) . . .
162(13) . . .
157(13) . . .
166(13) . . .
166(13) . . .
152(12) . . .
168(13) . . .
160(13) . . .
174(13) . . .
172(13) . . .
166(13) . . .
164(13) . . .
176(13) . . .
150(12) . . .
166(13) . . .
177(13) . . .
178(13) . . .
175(13) . . .
177(13) . . .
163(13) . . .
178(13) . . .
162(13) . . .
175(13) . . .
163(13) . . .
180(13) . . .
185(14) . . .
170(13) . . .
177(13) . . .
168(13) . . .
163(13) . . .
169(13) . . .
179(13) . . .
163(13) . . .
172(13) . . .
173(13) . . .
182(13) . . .
172(13) . . .
176(13) . . .
196(14) . . .
162(13) . . .
195(14) . . .
183(14) . . .
193(14) . . .
178(13) . . .
176(13) . . .
149(12) . . .
169(13) . . .
176(13) . . .
181(13) . . .
200(14) . . .
167(13) . . .
177(13) . . .
169(13) . . .
181(13) . . .
168(13) . . .
164(13) . . .
165(13) . . .
196(14) . . .
164(13) . . .
187(14) . . .
185(14) . . .
173(13) . . .
185(14) . . .
171(13) . . .
171(13) . . .
168(13) . . .
174(13) . . .
181(13) . . .
172(13) . . .
171(13) . . .
174(13) . . .
162(13) . . .
179(13) . . .
180(13) . . .
181(13) . . .
155(12) . . .
163(13) . . .
185(14) . . .
166(13) . . .
179(13) . . .
165(13) . . .
175(13) . . .
161(13) . . .
200(14) . . .
180(13) . . .
168(13) . . .
179(13) . . .
168(13) . . .
165(13) . . .
167(13) . . .
185(14) . . .
172(13) . . .
164(13) . . .
181(13) . . .
181(13) . . .
192(14) . . .
172(13) . . .
177(13) . . .
158(13) . . .
184(14) . . .
160(13) . . .
170(13) . . .
188(14) . . .
201(14) . . .
193(14) . . .
155(12) . . .
178(13) . . .
172(13) . . .
176(13) . . .
173(13) . . .
181(13) . . .
178(13) . . .
176(13) . . .
168(13) . . .
179(13) . . .
191(14) . . .
163(13) . . .
176(13) . . .
176(13) . . .
185(14) . . .
189(14) . . .
174(13) . . .
201(14) . . .
172(13) . . .
153(12) . . .
169(13) . . .
185(14) . . .
173(13) . . .
175(13) . . .
184(14) . . .
175(13) . . .
178(13) . . .
166(13) . . .
195(14) . . .
175(13) . . .
172(13) . . .
184(14) . . .
169(13) . . .
167(13) . . .
171(13) . . .
178(13) . . .
165(13) . . .
179(13) . . .
186(14) . . .
191(14) . . .
187(14) . . .
178(13) . . .
186(14) . . .
184(14) . . .
180(13) . . .
176(13) . . .
189(14) . . .
168(13) . . .
187(14) . . .
184(14) . . .
170(13) . . .
188(14) . . .
189(14) . . .
179(13) . . .
174(13) . . .
175(13) . . .
179(13) . . .
173(13) . . .
146(12) . . .
172(13) . . .
157(13) . . .
157(13) . . .
145(12) . . .
186(14) . . .
183(14) . . .
180(13) . . .
166(13) . . .
163(13) . . .
171(13) . . .
180(13) . . .
174(13) . . .
175(13) . . .
167(13) . . .
158(13) . . .
170(13) . . .
151(12) . . .
192(14) . . .
188(14) . . .
200(14) . . .
169(13) . . .
195(14) . . .
154(12) . . .
170(13) . . .
171(13) . . .
208(14) . . .
182(13) . . .
171(13) . . .
179(13) . . .
166(13) . . .
189(14) . . .
205(14) . . .
182(13) . . .
195(14) . . .
196(14) . . .
179(13) . . .
188(14) . . .
178(13) . . .
205(14) . . .
170(13) . . .
186(14) . . .
179(13) . . .
165(13) . . .
177(13) . . .
187(14) . . .
187(14) . . .
167(13) . . .
178(13) . . .
174(13) . . .
185(14) . . .
178(13) . . .
171(13) . . .
176(13) . . .
169(13) . . .
170(13) . . .
163(13) . . .
183(14) . . .
171(13) . . .
181(13) . . .
185(14) . . .
177(13) . . .
161(13) . . .
180(13) . . .
149(12) . . .
222(15) . . .
165(13) . . .
195(14) . . .
179(13) . . .
173(13) . . .
179(13) . . .
176(13) . . .
182(13) . . .
194(14) . . .
168(13) . . .
166(13) . . .
180(13) . . .
165(13) . . .
175(13) . . .
170(13) . . .
181(13) . . .
196(14) . . .
178(13) . . .
193(14) . . .
189(14) . . .
196(14) . . .
171(13) . . .
197(14) . . .
183(14) . . .
178(13) . . .
171(13) . . .
173(13) . . .
183(14) . . .
185(14) . . .
164(13) . . .
173(13) . . .
190(14) . . .
192(14) . . .
183(14) . . .
178(13) . . .
181(13) . . .
193(14) . . .
157(13) . . .
185(14) . . .
161(13) . . .
171(13) . . .
179(13) . . .
171(13) . . .
194(14) . . .
190(14) . . .
177(13) . . .
192(14) . . .
166(13) . . .
177(13) . . .
188(14) . . .
186(14) . . .
196(14) . . .
187(14) . . .
168(13) . . .
170(13) . . .
181(13) . . .
202(14) . . .
180(13) . . .
175(13) . . .
179(13) . . .
200(14) . . .
186(14) . . .
169(13) . . .
198(14) . . .
191(14) . . .
187(14) . . .
187(14) . . .
188(14) . . .
195(14) . . .
171(13) . . .
190(14) . . .
190(14) . . .
198(14) . . .
188(14) . . .
194(14) . . .
195(14) . . .
200(14) . . .
185(14) . . .
182(13) . . .
198(14) . . .
183(14) . . .
198(14) . . .
201(14) . . .
197(14) . . .
192(14) . . .
209(14) . . .
195(14) . . .
170(13) . . .
207(14) . . .
216(15) . . .
195(14) . . .
184(14) . . .
205(14) . . .
194(14) . . .
222(15) . . .
198(14) . . .
223(15) . . .
204(14) . . .
181(13) . . .
197(14) . . .
187(14) . . .
210(14) . . .
205(14) . . .
209(14) . . .
197(14) . . .
201(14) . . .
200(14) . . .
221(15) . . .
220(15) . . .
208(14) . . .
204(14) . . .
207(14) . . .
192(14) . . .
220(15) . . .
225(15) . . .
211(15) . . .
233(15) . . .
239(15) . . .
245(16) . . .
215(15) . . .
222(15) . . .
240(15) . . .
211(15) . . .
208(14) . . .
211(15) . . .
231(15) . . .
230(15) . . .
238(15) . . .
245(16) . . .
228(15) . . .
229(15) . . .
251(16) . . .
206(14) . . .
253(16) . . .
228(15) . . .
225(15) . . .
217(15) . . .
242(16) . . .
229(15) . . .
203(14) . . .
231(15) . . .
239(15) . . .
270(16) . . .
231(15) . . .
255(16) . . .
260(16) . . .
258(16) . . .
284(17) . . .
266(16) . . .
259(16) . . .
272(16) . . .
252(16) . . .
262(16) . . .
237(15) . . .
279(17) . . .
288(17) . . .
279(17) . . .
288(17) . . .
285(17) . . .
311(18) . . .
296(17) . . .
329(18) . . .
302(17) . . .
304(17) . . .
306(17) . . .
320(18) . . .
317(18) . . .
320(18) . . .
348(19) . . .
347(19) . . .
374(19) . . .
352(19) . . .
377(19) . . .
376(19) . . .
388(20) . . .
395(20) . . .
433(21) . . .
452(21) . . .
477(22) . . .
466(22) . . .
438(21) . . .
520(23) . . .
492(22) . . .
543(23) . . .
589(24) . . .
594(24) . . .
604(25) . . .
634(25) . . .
688(26) . . .
650(25) . . .
736(27) . . .
742(27) . . .
804(28) . . .
825(29) . . .
891(30) . . .
973(31) . . .
959(31) . . .
1019(32) . . .
1041(32) . . .
1106(33) . . .
1258(35) . . .
1265(36) . . .
1312(36) . . .
1503(39) . . .
1589(40) . . .
1654(41) . . .
1823(43) . . .
1899(44) . . .
2140(46) . . .
2365(49) . . .
2538(50) . . .
2700(52) . . .
3017(55) . . .
3218(57) . . .
3588(60) . . .
3936(63) . . .
4274(65) . . .
4721(69) . . .
5296(73) . . .
5634(75) . . .
6254(79) . . .
6847(83) . . .
7426(86) . . .
7740(88) . . .
8159(90) . . .
8521(92) . . .
8937(95) . . .
9214(96) . . .
9100(95) . . .
9342(97) . . .
9153(96) . . .
8963(95) . . .
8928(94) . . .
8421(92) . . .
8038(90) . . .
7426(86) . . .
6971(83) . . .
6347(80) . . .
5723(76) . . .
5379(73) . . .
4852(70) . . .
4246(65) . . .
3963(63) . . .
3610(60) . . .
3306(57) . . .
2945(54) . . .
2690(52) . . .
2398(49) . . .
2226(47) . . .
2051(45) . . .
1920(44) . . .
1725(42) . . .
1658(41) . . .
1475(38) . . .
1393(37) . . .
1244(35) . . .
1179(34) . . .
1067(33) . . .
1032(32) . . .
1000(32) . . .
888(30) . . .
836(29) . . .
818(29) . . .
735(27) . . .
751(27) . . .
690(26) . . .
671(26) . . .
638(25) . . .
594(24) . . .
569(24) . . .
580(24) . . .
572(24) . . .
518(23) . . .
499(22) . . .
507(23) . . .
466(22) . . .
469(22) . . .
452(21) . . .
442(21) . . .
441(21) . . .
394(20) . . .
389(20) . . .
398(20) . . .
379(19) . . .
372(19) . . .
341(18) . . .
359(19) . . .
353(19) . . .
350(19) . . .
327(18) . . .
334(18) . . .
342(18) . . .
338(18) . . .
309(18) . . .
307(18) . . .
285(17) . . .
318(18) . . .
307(18) . . .
316(18) . . .
279(17) . . .
255(16) . . .
272(16) . . .
277(17) . . .
275(17) . . .
284(17) . . .
257(16) . . .
240(15) . . .
225(15) . . .
275(17) . . .
231(15) . . .
255(16) . . .
230(15) . . .
233(15) . . .
242(16) . . .
267(16) . . .
230(15) . . .
249(16) . . .
233(15) . . .
251(16) . . .
242(16) . . .
246(16) . . .
231(15) . . .
215(15) . . .
232(15) . . .
212(15) . . .
232(15) . . .
239(15) . . .
213(15) . . .
222(15) . . .
212(15) . . .
229(15) . . .
222(15) . . .
245(16) . . .
208(14) . . .
204(14) . . .
213(15) . . .
213(15) . . .
235(15) . . .
207(14) . . .
211(15) . . .
203(14) . . .
205(14) . . .
211(15) . . .
207(14) . . .
229(15) . . .
233(15) . . .
209(14) . . .
225(15) . . .
210(14) . . .
202(14) . . .
199(14) . . .
213(15) . . .
244(16) . . .
210(14) . . .
212(15) . . .
188(14) . . .
181(13) . . .
205(14) . . .
220(15) . . .
207(14) . . .
195(14) . . .
184(14) . . .
183(14) . . .
197(14) . . .
184(14) . . .
197(14) . . .
198(14) . . .
191(14) . . .
183(14) . . .
203(14) . . .
200(14) . . .
209(14) . . .
200(14) . . .
191(14) . . .
175(13) . . .
189(14) . . .
207(14) . . .
200(14) . . .
205(14) . . .
172(13) . . .
194(14) . . .
201(14) . . .
192(14) . . .
181(13) . . .
187(14) . . .
198(14) . . .
208(14) . . .
171(13) . . .
181(13) . . .
215(15) . . .
193(14) . . .
201(14) . . .
206(14) . . .
187(14) . . .
198(14) . . .
189(14) . . .
195(14) . . .
210(14) . . .
222(15) . . .
202(14) . . .
182(13) . . .
192(14) . . .
209(14) . . .
187(14) . . .
188(14) . . .
193(14) . . .
157(13) . . .
192(14) . . .
191(14) . . .
192(14) . . .
194(14) . . .
182(13) . . .
182(13) . . .
199(14) . . .
173(13) . . .
210(14) . . .
199(14) . . .
183(14) . . .
207(14) . . .
207(14) . . .
198(14) . . .
209(14) . . .
199(14) . . .
200(14) . . .
185(14) . . .
178(13) . . .
189(14) . . .
190(14) . . .
199(14) . . .
188(14) . . .
183(14) . . .
182(13) . . .
182(13) . . .
190(14) . . .
208(14) . . .
193(14) . . .
199(14) . . .
191(14) . . .
203(14) . . .
210(14) . . .
207(14) . . .
197(14) . . .
200(14) . . .
214(15) . . .
247(16) . . .
211(15) . . .
206(14) . . .
225(15) . . .
207(14) . . .
213(15) . . .
207(14) . . .
218(15) . . .
192(14) . . .
214(15) . . .
209(14) . . .
213(15) . . .
224(15) . . .
207(14) . . .
231(15) . . .
258(16) . . .
250(16) . . .
246(16) . . .
240(15) . . .
238(15) . . .
247(16) . . .
217(15) . . .
262(16) . . .
231(15) . . .
231(15) . . .
257(16) . . .
251(16) . . .
263(16) . . .
242(16) . . .
256(16) . . .
277(17) . . .
307(18) . . .
263(16) . . .
292(17) . . .
297(17) . . .
307(18) . . .
327(18) . . .
328(18) . . .
349(19) . . .
336(18) . . .
304(17) . . .
324(18) . . .
341(18) . . .
362(19) . . .
377(19) . . .
398(20) . . .
423(21) . . .
422(21) . . .
433(21) . . .
442(21) . . .
476(22) . . .
481(22) . . .
515(23) . . .
536(23) . . .
550(23) . . .
564(24) . . .
620(25) . . .
662(26) . . .
662(26) . . .
667(26) . . .
761(28) . . .
747(27) . . .
835(29) . . .
914(30) . . .
1002(32) . . .
1072(33) . . .
1120(33) . . .
1267(36) . . .
1333(37) . . .
1416(38) . . .
1575(40) . . .
1787(42) . . .
1939(44) . . .
2077(46) . . .
2368(49) . . .
2565(51) . . .
2801(53) . . .
3183(56) . . .
3319(58) . . .
3717(61) . . .
3968(63) . . .
4169(65) . . .
4323(66) . . .
4517(67) . . .
4650(68) . . .
4834(70) . . .
4685(68) . . .
4749(69) . . .
4581(68) . . .
4468(67) . . .
4332(66) . . .
4116(64) . . .
3949(63) . . .
3565(60) . . .
3283(57) . . .
3121(56) . . .
2997(55) . . .
2695(52) . . .
2377(49) . . .
2292(48) . . .
2129(46) . . .
1883(43) . . .
1684(41) . . .
1589(40) . . .
1419(38) . . .
1291(36) . . .
1173(34) . . .
1084(33) . . .
1007(32) . . .
906(30) . . .
878(30) . . .
790(28) . . .
750(27) . . .
667(26) . . .
642(25) . . .
581(24) . . .
585(24) . . .
555(24) . . .
521(23) . . .
512(23) . . .
463(22) . . .
481(22) . . .
439(21) . . .
419(20) . . .
421(21) . . .
412(20) . . .
411(20) . . .
360(19) . . .
348(19) . . .
346(19) . . .
349(19) . . .
333(18) . . .
305(17) . . .
329(18) . . .
334(18) . . .
296(17) . . .
297(17) . . .
298(17) . . .
283(17) . . .
282(17) . . .
263(16) . . .
262(16) . . .
256(16) . . .
262(16) . . .
268(16) . . .
246(16) . . .
241(16) . . .
264(16) . . .
261(16) . . .
259(16) . . .
224(15) . . .
250(16) . . .
229(15) . . .
229(15) . . .
209(14) . . .
203(14) . . .
214(15) . . .
240(15) . . .
243(16) . . .
231(15) . . .
213(15) . . .
200(14) . . .
210(14) . . .
225(15) . . .
195(14) . . .
198(14) . . .
212(15) . . .
212(15) . . .
202(14) . . .
195(14) . . .
197(14) . . .
192(14) . . .
207(14) . . .
225(15) . . .
219(15) . . .
180(13) . . .
209(14) . . .
204(14) . . .
212(15) . . .
197(14) . . .
189(14) . . .
180(13) . . .
206(14) . . .
205(14) . . .
193(14) . . .
189(14) . . .
189(14) . . .
190(14) . . .
184(14) . . .
185(14) . . .
192(14) . . .
179(13) . . .
203(14) . . .
191(14) . . .
178(13) . . .
160(13) . . .
182(13) . . .
206(14) . . .
180(13) . . .
175(13) . . .
171(13) . . .
171(13) . . .
178(13) . . .
182(13) . . .
183(14) . . .
175(13) . . .
183(14) . . .
176(13) . . .
176(13) . . .
187(14) . . .
196(14) . . .
169(13) . . .
174(13) . . .
158(13) . . .
179(13) . . .
165(13) . . .
181(13) . . .
161(13) . . .
164(13) . . .
179(13) . . .
180(13) . . .
163(13) . . .
179(13) . . .
174(13) . . .
166(13) . . .
145(12) . . .
180(13) . . .
150(12) . . .
182(13) . . .
167(13) . . .
171(13) . . .
166(13) . . .
162(13) . . .
157(13) . . .
170(13) . . .
172(13) . . .
175(13) . . .
150(12) . . .
162(13) . . .
165(13) . . .
168(13) . . .
178(13) . . .
151(12) . . .
186(14) . . .
185(14) . . .
160(13) . . .
165(13) . . .
173(13) . . .
170(13) . . .
155(12) . . .
172(13) . . .
167(13) . . .
177(13) . . .
161(13) . . .
176(13) . . .
187(14) . . .
168(13) . . .
159(13) . . .
158(13) . . .
155(12) . . .
138(12) . . .
177(13) . . .
175(13) . . .
162(13) . . .
186(14) . . .
153(12) . . .
162(13) . . .
171(13) . . .
174(13) . . .
161(13) . . .
163(13) . . .
156(12) . . .
150(12) . . .
164(13) . . .
162(13) . . .
173(13) . . .
153(12) . . .
160(13) . . .
156(12) . . .
177(13) . . .
160(13) . . .
161(13) . . .
164(13) . . .
154(12) . . .
176(13) . . .
150(12) . . .
157(13) . . .
157(13) . . .
181(13) . . .
163(13) . . .
144(12) . . .
179(13) . . .
165(13) . . .
155(12) . . .
164(13) . . .
147(12) . . .
166(13) . . .
163(13) . . .
150(12) . . .
163(13) . . .
160(13) . . .
155(12) . . .
171(13) . . .
162(13) . . .
159(13) . . .
171(13) . . .
167(13) . . .
172(13) . . .
165(13) . . .
159(13) . . .
168(13) . . .
152(12) . . .
165(13) . . .
164(13) . . .
151(12) . . .
166(13) . . .
139(12) . . .
156(12) . . .
170(13) . . .
160(13) . . .
161(13) . . .
159(13) . . .
157(13) . . .
157(13) . . .
169(13) . . .
174(13) . . .
163(13) . . .
168(13) . . .
148(12) . . .
176(13) . . .
156(12) . . .
152(12) . . .
163(13) . . .
157(13) . . .
160(13) . . .
149(12) . . .
157(13) . . .
153(12) . . .
158(13) . . .
152(12) . . .
152(12) . . .
168(13) . . .
155(12) . . .
142(12) . . .
168(13) . . .
160(13) . . .
171(13) . . .
151(12) . . .
152(12) . . .
152(12) . . .
161(13) . . .
163(13) . . .
159(13) . . .
163(13) . . .
143(12) . . .
168(13) . . .
170(13) . . .
159(13) . . .
161(13) . . .
149(12) . . .
155(12) . . .
173(13) . . .
162(13) . . .
160(13) . . .
162(13) . . .
150(12) . . .
179(13) . . .
159(13) . . .
154(12) . . .
173(13) . . .
168(13) . . .
175(13) . . .
167(13) . . .
165(13) . . .
145(12) . . .
154(12) . . .
162(13) . . .
162(13) . . .
175(13) . . .
174(13) . . .
173(13) . . .
160(13) . . .
160(13) . . .
155(12) . . .
169(13) . . .
170(13) . . .
173(13) . . .
181(13) . . .
168(13) . . .
152(12) . . .
167(13) . . .
153(12) . . .
160(13) . . .
167(13) . . .
185(14) . . .
168(13) . . .
164(13) . . .
153(12) . . .
154(12) . . .
169(13) . . .
152(12) . . .
169(13) . . .
160(13) . . .
160(13) . . .
170(13) . . .
144(12) . . .
156(12) . . .
146(12) . . .
142(12) . . .
151(12) . . .
163(13) . . .
172(13) . . .
159(13) . . .
156(12) . . .
158(13) . . .
161(13) . . .
155(12) . . .
176(13) . . .
176(13) . . .
161(13) . . .
167(13) . . .
180(13) . . .
170(13) . . .
153(12) . . .
182(13) . . .
157(13) . . .
171(13) . . .
161(13) . . .
161(13) . . .
155(12) . . .
183(14) . . .
173(13) . . .
180(13) . . .
185(14) . . .
154(12) . . .
157(13) . . .
184(14) . . .
176(13) . . .
167(13) . . .
150(12) . . .
144(12) . . .
168(13) . . .
164(13) . . .
141(12) . . .
171(13) . . .
158(13) . . .
152(12) . . .
154(12) . . .
162(13) . . .
164(13) . . .
174(13) . . .
150(12) . . .
185(14) . . .
172(13) . . .
166(13) . . .
177(13) . . .
150(12) . . .
152(12) . . .
165(13) . . .
151(12) . . .
155(12) . . .
152(12) . . .
153(12) . . .
155(12) . . .
172(13) . . .
141(12) . . .
159(13) . . .
171(13) . . .
138(12) . . .
169(13) . . .
159(13) . . .
161(13) . . .
165(13) . . .
149(12) . . .
162(13) . . .
163(13) . . .
157(13) . . .
149(12) . . .
174(13) . . .
152(12) . . .
160(13) . . .
171(13) . . .
164(13) . . .
148(12) . . .
163(13) . . .
140(12) . . .
156(12) . . .
159(13) . . .
145(12) . . .
155(12) . . .
137(12) . . .
158(13) . . .
154(12) . . .
156(12) . . .
168(13) . . .
173(13) . . .
151(12) . . .
154(12) . . .
173(13) . . .
161(13) . . .
158(13) . . .
158(13) . . .
163(13) . . .
164(13) . . .
150(12) . . .
148(12) . . .
153(12) . . .
147(12) . . .
166(13) . . .
168(13) . . .
180(13) . . .
157(13) . . .
162(13) . . .
144(12) . . .
161(13) . . .
166(13) . . .
149(12) . . .
169(13) . . .
146(12) . . .
148(12) . . .
143(12) . . .
157(13) . . .
150(12) . . .
172(13) . . .
169(13) . . .
181(13) . . .
135(12) . . .
172(13) . . .
160(13) . . .
150(12) . . .
156(12) . . .
158(13) . . .
150(12) . . .
174(13) . . .
164(13) . . .
163(13) . . .
167(13) . . .
173(13) . . .
137(12) . . .
162(13) . . .
166(13) . . .
164(13) . . .
161(13) . . .
154(12) . . .
160(13) . . .
144(12) . . .
148(12) . . .
156(12) . . .
165(13) . . .
160(13) . . .
159(13) . . .
163(13) . . .
143(12) . . .
155(12) . . .
149(12) . . .
161(13) . . .
150(12) . . .
154(12) . . .
143(12) . . .
176(13) . . .
170(13) . . .
135(12) . . .
170(13) . . .
136(12) . . .
141(12) . . .
141(12) . . .
157(13) . . .
152(12) . . .
154(12) . . .
164(13) . . .
164(13) . . .
146(12) . . .
139(12) . . .
153(12) . . .
158(13) . . .
147(12) . . .
159(13) . . .
171(13) . . .
153(12) . . .
158(13) . . .
161(13) . . .
152(12) . . .
159(13) . . .
177(13) . . .
157(13) . . .
161(13) . . .
175(13) . . .
164(13) . . .
163(13) . . .
157(13) . . .
132(11) . . .
168(13) . . .
140(12) . . .
156(12) . . .
155(12) . . .
145(12) . . .
147(12) . . .
149(12) . . .
154(12) . . .
163(13) . . .
146(12) . . .
148(12) . . .
136(12) . . .
171(13) . . .
151(12) . . .
170(13) . . .
169(13) . . .
157(13) . . .
156(12) . . .
144(12) . . .
160(13) . . .
141(12) . . .
116(11) . . .
137(12) . . .
142(12) . . .
125(11) . . .
159(13) . . .
152(12) . . .
137(12) . . .
140(12) . . .
174(13) . . .
162(13) . . .
139(12) . . .
167(13) . . .
138(12) . . .
157(13) . . .
143(12) . . .
165(13) . . .
166(13) . . .
155(12) . . .
158(13) . . .
156(12) . . .
157(13) . . .
162(13) . . .
158(13) . . .
132(11) . . .
156(12) . . .
147(12) . . .
149(12) . . .
149(12) . . .
172(13) . . .
145(12) . . .
158(13) . . .
178(13) . . .
159(13) . . .
163(13) . . .
166(13) . . .
175(13) . . .
154(12) . . .
185(14) . . .
144(12) . . .
156(12) . . .
162(13) . . .
161(13) . . .
164(13) . . .
168(13) . . .
159(13) . . .
150(12) . . .
165(13) . . .
153(12) . . .
159(13) . . .
156(12) . . .
167(13) . . .
146(12) . . .
159(13) . . .
167(13) . . .
152(12) . . .
146(12) . . .
165(13) . . .
171(13) . . .
158(13) . . .
151(12) . . .
154(12) . . .
162(13) . . .
123(11) . . .
160(13) . . .
159(13) . . .
153(12) . . .
157(13) . . .
157(13) . . .
163(13) . . .
154(12) . . .
155(12) . . .
171(13) . . .
156(12) . . .
141(12) . . .
150(12) . . .
148(12) . . .
144(12) . . .
146(12) . . .
155(12) . . .
164(13) . . .
166(13) . . .
140(12) . . .
153(12) . . .
157(13) . . .
151(12) . . .
146(12) . . .
157(13) . . .
170(13) . . .
149(12) . . .
170(13) . . .
157(13) . . .
169(13) . . .
163(13) . . .
154(12) . . .
151(12) . . .
167(13) . . .
171(13) . . .
154(12) . . .
143(12) . . .
141(12) . . .
179(13) . . .
170(13) . . .
117(11) . . .
136(12) . . .
150(12) . . .
164(13) . . .
138(12) . . .
136(12) . . .
166(13) . . .
154(12) . . .
158(13) . . .
155(12) . . .
156(12) . . .
171(13) . . .
163(13) . . .
146(12) . . .
150(12) . . .
167(13) . . .
148(12) . . .
150(12) . . .
146(12) . . .
166(13) . . .
127(11) . . .
139(12) . . .
154(12) . . .
162(13) . . .
177(13) . . .
150(12) . . .
159(13) . . .
148(12) . . .
156(12) . . .
166(13) . . .
169(13) . . .
148(12) . . .
161(13) . . .
168(13) . . .
172(13) . . .
142(12) . . .
159(13) . . .
150(12) . . .
140(12) . . .
154(12) . . .
162(13) . . .
164(13) . . .
169(13) . . .
161(13) . . .
154(12) . . .
167(13) . . .
154(12) . . .
157(13) . . .
167(13) . . .
155(12) . . .
147(12) . . .
145(12) . . .
163(13) . . .
154(12) . . .
153(12) . . .
141(12) . . .
145(12) . . .
163(13) . . .
145(12) . . .
141(12) . . .
143(12) . . .
151(12) . . .
149(12) . . .
160(13) . . .
157(13) . . .
153(12) . . .
146(12) . . .
140(12) . . .
142(12) . . .
135(12) . . .
144(12) . . .
144(12) . . .
146(12) . . .
155(12) . . .
157(13) . . .
150(12) . . .
150(12) . . .
166(13) . . .
154(12) . . .
158(13) . . .
161(13) . . .
135(12) . . .
135(12) . . .
148(12) . . .
156(12) . . .
156(12) . . .
152(12) . . .
143(12) . . .
170(13) . . .
134(12) . . .
159(13) . . .
128(11) . . .
165(13) . . .
138(12) . . .
169(13) . . .
141(12) . . .
163(13) . . .
157(13) . . .
148(12) . . .
163(13) . . .
189(14) . . .
146(12) . . .
161(13) . . .
152(12) . . .
145(12) . . .
145(12) . . .
146(12) . . .
167(13) . . .
170(13) . . .
154(12) . . .
161(13) . . .
157(13) . . .
144(12) . . .
150(12) . . .
166(13) . . .
175(13) . . .
162(13) . . .
149(12) . . .
175(13) . . .
164(13) . . .
162(13) . . .
156(12) . . .
164(13) . . .
152(12) . . .
166(13) . . .
163(13) . . .
156(12) . . .
161(13) . . .
164(13) . . .
156(12) . . .
161(13) . . .
166(13) . . .
166(13) . . .
179(13) . . .
164(13) . . .
161(13) . . .
165(13) . . .
163(13) . . .
165(13) . . .
157(13) . . .
151(12) . . .
166(13) . . .
150(12) . . .
159(13) . . .
157(13) . . .
170(13) . . .
153(12) . . .
156(12) . . .
157(13) . . .
181(13) . . .
162(13) . . .
166(13) . . .
170(13) . . .
150(12) . . .
171(13) . . .
159(13) . . .
161(13) . . .
169(13) . . .
175(13) . . .
153(12) . . .
167(13) . . .
158(13) . . .
162(13) . . .
172(13) . . .
155(12) . . .
165(13) . . .
181(13) . . .
171(13) . . .
152(12) . . .
154(12) . . .
167(13) . . .
168(13) . . .
173(13) . . .
157(13) . . .
163(13) . . .
148(12) . . .
171(13) . . .
173(13) . . .
148(12) . . .
181(13) . . .
167(13) . . .
157(13) . . .
148(12) . . .
162(13) . . .
168(13) . . .
167(13) . . .
147(12) . . .
174(13) . . .
154(12) . . .
154(12) . . .
173(13) . . .
164(13) . . .
160(13) . . .
161(13) . . .
182(13) . . .
158(13) . . .
156(12) . . .
153(12) . . .
151(12) . . .
165(13) . . .
157(13) . . .
149(12) . . .
156(12) . . .
159(13) . . .
154(12) . . .
158(13) . . .
149(12) . . .
146(12) . . .
159(13) . . .
142(12) . . .
133(12) . . .
144(12) . . .
153(12) . . .
146(12) . . .
170(13) . . .
132(11) . . .
150(12) . . .
156(12) . . .
174(13) . . .
142(12) . . .
140(12) . . .
151(12) . . .
142(12) . . .
135(12) . . .
143(12) . . .
142(12) . . .
157(13) . . .
137(12) . . .
152(12) . . .
152(12) . . .
145(12) . . .
185(14) . . .
157(13) . . .
150(12) . . .
159(13) . . .
172(13) . . .
170(13) . . .
151(12) . . .
163(13) . . .
157(13) . . .
175(13) . . .
145(12) . . .
161(13) . . .
143(12) . . .
152(12) . . .
168(13) . . .
151(12) . . .
147(12) . . .
151(12) . . .
156(12) . . .
146(12) . . .
157(13) . . .
160(13) . . .
165(13) . . .
165(13) . . .
161(13) . . .
152(12) . . .
167(13) . . .
144(12) . . .
153(12) . . .
163(13) . . .
138(12) . . .
149(12) . . .
148(12) . . .
153(12) . . .
155(12) . . .
161(13) . . .
129(11) . . .
160(13) . . .
163(13) . . .
171(13) . . .
144(12) . . .
156(12) . . .
166(13) . . .
144(12) . . .
155(12) . . .
165(13) . . .
150(12) . . .
151(12) . . .
157(13) . . .
159(13) . . .
159(13) . . .
141(12) . . .
162(13) . . .
144(12) . . .
149(12) . . .
151(12) . . .
134(12) . . .
149(12) . . .
168(13) . . .
148(12) . . .
153(12) . . .
174(13) . . .
160(13) . . .
166(13) . . .
151(12) . . .
172(13) . . .
167(13) . . .
173(13) . . .
160(13) . . .
159(13) . . .
164(13) . . .
163(13) . . .
172(13) . . .
163(13) . . .
167(13) . . .
176(13) . . .
154(12) . . .
182(13) . . .
163(13) . . .
162(13) . . .
180(13) . . .
158(13) . . .
163(13) . . .
166(13) . . .
177(13) . . .
163(13) . . .
167(13) . . .
173(13) . . .
144(12) . . .
161(13) . . .
161(13) . . .
158(13) . . .
171(13) . . .
172(13) . . .
146(12) . . .
163(13) . . .
148(12) . . .
161(13) . . .
148(12) . . .
147(12) . . .
160(13) . . .
137(12) . . .
160(13) . . .
169(13) . . .
166(13) . . .
171(13) . . .
143(12) . . .
161(13) . . .
162(13) . . .
158(13) . . .
163(13) . . .
156(12) . . .
189(14) . . .
177(13) . . .
150(12) . . .
140(12) . . .
158(13) . . .
164(13) . . .
163(13) . . .
156(12) . . .
159(13) . . .
144(12) . . .
164(13) . . .
159(13) . . .
171(13) . . .
142(12) . . .
177(13) . . .
147(12) . . .
161(13) . . .
151(12) . . .
150(12) . . .
177(13) . . .
155(12) . . .
170(13) . . .
153(12) . . .
175(13) . . .
172(13) . . .
142(12) . . .
153(12) . . .
180(13) . . .
161(13) . . .
156(12) . . .
153(12) . . .
151(12) . . .
158(13) . . .
170(13) . . .
172(13) . . .
155(12) . . .
169(13) . . .
148(12) . . .
147(12) . . .
157(13) . . .
148(12) . . .
158(13) . . .
162(13) . . .
164(13) . . .
157(13) . . .
142(12) . . .
157(13) . . .
156(12) . . .
150(12) . . .
163(13) . . .
161(13) . . .
155(12) . . .
149(12) . . .
142(12) . . .
144(12) . . .
163(13) . . .
143(12) . . .
146(12) . . .
175(13) . . .
161(13) . . .
150(12) . . .
152(12) . . .
154(12) . . .
153(12) . . .
162(13) . . .
166(13) . . .
161(13) . . .
171(13) . . .
173(13) . . .
153(12) . . .
144(12) . . .
134(12) . . .
154(12) . . .
154(12) . . .
157(13) . . .
171(13) . . .
153(12) . . .
148(12) . . .
160(13) . . .
163(13) . . .
160(13) . . .
151(12) . . .
165(13) . . .
158(13) . . .
160(13) . . .
156(12) . . .
147(12) . . .
155(12) . . .
162(13) . . .
159(13) . . .
180(13) . . .
166(13) . . .
163(13) . . .
141(12) . . .
175(13) . . .
180(13) . . .
147(12) . . .
135(12) . . .
171(13) . . .
165(13) . . .
154(12) . . .
169(13) . . .
153(12) . . .
167(13) . . .
178(13) . . .
179(13) . . .
162(13) . . .
173(13) . . .
153(12) . . .
166(13) . . .
162(13) . . .
183(14) . . .
154(12) . . .
160(13) . . .
174(13) . . .
154(12) . . .
152(12) . . .
174(13) . . .
168(13) . . .
175(13) . . .
154(12) . . .
162(13) . . .
193(14) . . .
164(13) . . .
141(12) . . .
180(13) . . .
173(13) . . .
189(14) . . .
170(13) . . .
172(13) . . .
175(13) . . .
160(13) . . .
164(13) . . .
190(14) . . .
167(13) . . .
167(13) . . .
158(13) . . .
167(13) . . .
177(13) . . .
183(14) . . .
185(14) . . .
159(13) . . .
193(14) . . .
165(13) . . .
163(13) . . .
174(13) . . .
179(13) . . .
181(13) . . .
197(14) . . .
180(13) . . .
205(14) . . .
175(13) . . .
205(14) . . .
197(14) . . .
202(14) . . .
194(14) . . .
200(14) . . .
189(14) . . .
189(14) . . .
180(13) . . .
216(15) . . .
200(14) . . .
213(15) . . .
200(14) . . .
213(15) . . .
200(14) . . .
214(15) . . .
197(14) . . .
217(15) . . .
224(15) . . .
243(16) . . .
227(15) . . .
246(16) . . .
227(15) . . .
224(15) . . .
239(15) . . .
262(16) . . .
232(15) . . .
221(15) . . .
267(16) . . .
250(16) . . .
241(16) . . .
263(16) . . .
257(16) . . .
244(16) . . .
264(16) . . .
296(17) . . .
248(16) . . .
290(17) . . .
302(17) . . .
304(17) . . .
265(16) . . .
329(18) . . .
292(17) . . .
297(17) . . .
344(19) . . .
339(18) . . .
328(18) . . .
334(18) . . .
378(19) . . .
374(19) . . .
391(20) . . .
395(20) . . .
422(21) . . .
447(21) . . .
436(21) . . .
479(22) . . .
500(22) . . .
498(22) . . .
544(23) . . .
548(23) . . .
579(24) . . .
592(24) . . .
629(25) . . .
635(25) . . .
721(27) . . .
747(27) . . .
775(28) . . .
865(29) . . .
963(31) . . .
957(31) . . .
1056(32) . . .
1151(34) . . .
1149(34) . . .
1248(35) . . .
1352(37) . . .
1470(38) . . .
1620(40) . . .
1720(41) . . .
1844(43) . . .
1929(44) . . .
2175(47) . . .
2227(47) . . .
2478(50) . . .
2671(52) . . .
2905(54) . . .
3165(56) . . .
3332(58) . . .
3667(61) . . .
3859(62) . . .
4004(63) . . .
4152(64) . . .
4339(66) . . .
4429(67) . . .
4522(67) . . .
4668(68) . . .
4700(69) . . .
4698(69) . . .
4649(68) . . .
4468(67) . . .
4389(66) . . .
4315(66) . . .
4102(64) . . .
3925(63) . . .
3644(60) . . .
3342(58) . . .
3244(57) . . .
2942(54) . . .
2714(52) . . .
2535(50) . . .
2321(48) . . .
2082(46) . . .
1949(44) . . .
1749(42) . . .
1640(40) . . .
1457(38) . . .
1411(38) . . .
1286(36) . . .
1192(35) . . .
1114(33) . . .
985(31) . . .
951(31) . . .
915(30) . . .
852(29) . . .
828(29) . . .
753(27) . . .
746(27) . . .
664(26) . . .
685(26) . . .
613(25) . . .
569(24) . . .
526(23) . . .
521(23) . . .
548(23) . . .
492(22) . . .
481(22) . . .
434(21) . . .
452(21) . . .
425(21) . . .
393(20) . . .
414(20) . . .
384(20) . . .
361(19) . . .
371(19) . . .
367(19) . . .
356(19) . . .
352(19) . . .
308(18) . . .
304(17) . . .
336(18) . . .
305(17) . . .
293(17) . . .
282(17) . . .
300(17) . . .
275(17) . . .
261(16) . . .
292(17) . . .
260(16) . . .
228(15) . . .
258(16) . . .
253(16) . . .
237(15) . . .
247(16) . . .
237(15) . . .
215(15) . . .
207(14) . . .
210(14) . . .
211(15) . . .
231(15) . . .
208(14) . . .
213(15) . . .
214(15) . . .
219(15) . . .
195(14) . . .
209(14) . . .
221(15) . . .
209(14) . . .
204(14) . . .
183(14) . . .
191(14) . . .
183(14) . . .
212(15) . . .
197(14) . . .
208(14) . . .
189(14) . . .
185(14) . . .
207(14) . . .
209(14) . . .
193(14) . . .
202(14) . . .
189(14) . . .
183(14) . . .
205(14) . . .
200(14) . . .
173(13) . . .
186(14) . . .
182(13) . . .
199(14) . . .
172(13) . . .
190(14) . . .
157(13) . . .
190(14) . . .
170(13) . . .
176(13) . . .
157(13) . . .
165(13) . . .
167(13) . . .
177(13) . . .
156(12) . . .
162(13) . . .
164(13) . . .
196(14) . . .
162(13) . . .
166(13) . . .
177(13) . . .
156(12) . . .
168(13) . . .
159(13) . . .
173(13) . . .
166(13) . . .
150(12) . . .
184(14) . . .
171(13) . . .
165(13) . . .
168(13) . . .
182(13) . . .
153(12) . . .
186(14) . . .
175(13) . . .
150(12) . . .
137(12) . . .
157(13) . . .
163(13) . . .
166(13) . . .
150(12) . . .
154(12) . . .
149(12) . . .
158(13) . . .
163(13) . . .
167(13) . . .
162(13) . . .
151(12) . . .
158(13) . . .
156(12) . . .
141(12) . . .
165(13) . . .
173(13) . . .
146(12) . . .
143(12) . . .
155(12) . . .
144(12) . . .
169(13) . . .
157(13) . . .
147(12) . . .
141(12) . . .
151(12) . . .
155(12) . . .
152(12) . . .
185(14) . . .
161(13) . . .
135(12) . . .
152(12) . . .
157(13) . . .
153(12) . . .
155(12) . . .
169(13) . . .
161(13) . . .
174(13) . . .
157(13) . . .
142(12) . . .
165(13) . . .
147(12) . . .
132(11) . . .
132(11) . . .
152(12) . . .
155(12) . . .
160(13) . . .
155(12) . . .
166(13) . . .
160(13) . . .
163(13) . . .
142(12) . . .
153(12) . . .
139(12) . . .
146(12) . . .
149(12) . . .
146(12) . . .
158(13) . . .
136(12) . . .
143(12) . . .
143(12) . . .
151(12) . . .
143(12) . . .
150(12) . . .
142(12) . . .
139(12) . . .
139(12) . . .
165(13) . . .
164(13) . . .
159(13) . . .
150(12) . . .
152(12) . . .
169(13) . . .
144(12) . . .
153(12) . . .
143(12) . . .
136(12) . . .
159(13) . . .
125(11) . . .
144(12) . . .
139(12) . . .
151(12) . . .
141(12) . . .
133(12) . . .
147(12) . . .
135(12) . . .
127(11) . . .
154(12) . . .
141(12) . . .
154(12) . . .
145(12) . . .
156(12) . . .
167(13) . . .
153(12) . . .
141(12) . . .
133(12) . . .
145(12) . . .
154(12) . . .
167(13) . . .
156(12) . . .
129(11) . . .
149(12) . . .
149(12) . . .
155(12) . . .
167(13) . . .
154(12) . . .
147(12) . . .
155(12) . . .
165(13) . . .
158(13) . . .
145(12) . . .
141(12) . . .
154(12) . . .
174(13) . . .
149(12) . . .
145(12) . . .
153(12) . . .
144(12) . . .
161(13) . . .
150(12) . . .
142(12) . . .
172(13) . . .
160(13) . . .
160(13) . . .
142(12) . . .
140(12) . . .
150(12) . . .
143(12) . . .
139(12) . . .
137(12) . . .
148(12) . . .
143(12) . . .
132(11) . . .
138(12) . . .
147(12) . . .
141(12) . . .
134(12) . . .
130(11) . . .
143(12) . . .
133(12) . . .
136(12) . . .
152(12) . . .
153(12) . . .
130(11) . . .
143(12) . . .
152(12) . . .
138(12) . . .
138(12) . . .
146(12) . . .
139(12) . . .
141(12) . . .
134(12) . . .
140(12) . . .
151(12) . . .
154(12) . . .
146(12) . . .
127(11) . . .
140(12) . . .
141(12) . . .
141(12) . . .
160(13) . . .
135(12) . . .
163(13) . . .
144(12) . . .
158(13) . . .
142(12) . . .
127(11) . . .
153(12) . . .
154(12) . . .
154(12) . . .
146(12) . . .
144(12) . . .
144(12) . . .
138(12) . . .
170(13) . . .
143(12) . . .
159(13) . . .
155(12) . . .
126(11) . . .
143(12) . . .
140(12) . . .
152(12) . . .
145(12) . . .
147(12) . . .
151(12) . . .
160(13) . . .
137(12) . . .
139(12) . . .
141(12) . . .
141(12) . . .
139(12) . . .
149(12) . . .
151(12) . . .
139(12) . . .
146(12) . . .
130(11) . . .
151(12) . . .
154(12) . . .
148(12) . . .
146(12) . . .
152(12) . . .
134(12) . . .
145(12) . . .
144(12) . . .
152(12) . . .
153(12) . . .
160(13) . . .
136(12) . . .
142(12) . . .
130(11) . . .
138(12) . . .
141(12) . . .
132(11) . . .
143(12) . . .
144(12) . . .
131(11) . . .
151(12) . . .
133(12) . . .
147(12) . . .
141(12) . . .
149(12) . . .
146(12) . . .
154(12) . . .
160(13) . . .
159(13) . . .
134(12) . . .
136(12) . . .
135(12) . . .
129(11) . . .
165(13) . . .
127(11) . . .
149(12) . . .
153(12) . . .
146(12) . . .
152(12) . . .
122(11) . . .
141(12) . . .
133(12) . . .
152(12) . . .
130(11) . . .
126(11) . . .
145(12) . . .
148(12) . . .
150(12) . . .
137(12) . . .
158(13) . . .
137(12) . . .
140(12) . . .
134(12) . . .
139(12) . . .
122(11) . . .
155(12) . . .
147(12) . . .
138(12) . . .
141(12) . . .
131(11) . . .
125(11) . . .
151(12) . . .
148(12) . . .
144(12) . . .
128(11) . . .
150(12) . . .
147(12) . . .
147(12) . . .
129(11) . . .
135(12) . . .
129(11) . . .
139(12) . . .
137(12) . . .
147(12) . . .
128(11) . . .
131(11) . . .
143(12) . . .
123(11) . . .
125(11) . . .
154(12) . . .
127(11) . . .
130(11) . . .
136(12) . . .
118(11) . . .
147(12) . . .
145(12) . . .
151(12) . . .
143(12) . . .
149(12) . . .
152(12) . . .
158(13) . . .
137(12) . . .
166(13) . . .
150(12) . . .
134(12) . . .
142(12) . . .
133(12) . . .
152(12) . . .
142(12) . . .
132(11) . . .
132(11) . . .
134(12) . . .
102(10) . . .
142(12) . . .
151(12) . . .
135(12) . . .
132(11) . . .
136(12) . . .
147(12) . . .
146(12) . . .
133(12) . . .
132(11) . . .
146(12) . . .
143(12) . . .
129(11) . . .
141(12) . . .
126(11) . . .
143(12) . . .
145(12) . . .
129(11) . . .
162(13) . . .
129(11) . . .
137(12) . . .
114(11) . . .
132(11) . . .
134(12) . . .
138(12) . . .
151(12) . . .
118(11) . . .
134(12) . . .
141(12) . . .
153(12) . . .
139(12) . . .
129(11) . . .
151(12) . . .
147(12) . . .
147(12) . . .
141(12) . . .
153(12) . . .
136(12) . . .
141(12) . . .
147(12) . . .
134(12) . . .
132(11) . . .
140(12) . . .
134(12) . . .
142(12) . . .
136(12) . . .
142(12) . . .
140(12) . . .
143(12) . . .
139(12) . . .
138(12) . . .
138(12) . . .
155(12) . . .
142(12) . . .
146(12) . . .
134(12) . . .
145(12) . . .
129(11) . . .
127(11) . . .
141(12) . . .
146(12) . . .
153(12) . . .
151(12) . . .
147(12) . . .
152(12) . . .
146(12) . . .
135(12) . . .
146(12) . . .
126(11) . . .
150(12) . . .
134(12) . . .
132(11) . . .
122(11) . . .
134(12) . . .
138(12) . . .
141(12) . . .
148(12) . . .
146(12) . . .
153(12) . . .
129(11) . . .
144(12) . . .
136(12) . . .
145(12) . . .
133(12) . . .
142(12) . . .
145(12) . . .
150(12) . . .
141(12) . . .
118(11) . . .
154(12) . . .
139(12) . . .
129(11) . . .
135(12) . . .
135(12) . . .
154(12) . . .
141(12) . . .
126(11) . . .
127(11) . . .
132(11) . . .
148(12) . . .
136(12) . . .
143(12) . . .
147(12) . . .
144(12) . . .
130(11) . . .
144(12) . . .
140(12) . . .
157(13) . . .
129(11) . . .
128(11) . . .
153(12) . . .
164(13) . . .
131(11) . . .
140(12) . . .
146(12) . . .
156(12) . . .
136(12) . . .
155(12) . . .
152(12) . . .
139(12) . . .
144(12) . . .
135(12) . . .
167(13) . . .
143(12) . . .
144(12) . . .
135(12) . . .
125(11) . . .
127(11) . . .
160(13) . . .
148(12) . . .
143(12) . . .
160(13) . . .
161(13) . . .
141(12) . . .
134(12) . . .
128(11) . . .
136(12) . . .
135(12) . . .
122(11) . . .
150(12) . . .
142(12) . . .
132(11) . . .
128(11) . . .
142(12) . . .
149(12) . . .
144(12) . . .
168(13) . . .
143(12) . . .
128(11) . . .
153(12) . . .
143(12) . . .
141(12) . . .
143(12) . . .
132(11) . . .
150(12) . . .
161(13) . . .
147(12) . . .
129(11) . . .
136(12) . . .
123(11) . . .
147(12) . . .
161(13) . . .
146(12) . . .
135(12) . . .
162(13) . . .
109(10) . . .
144(12) . . .
153(12) . . .
150(12) . . .
138(12) . . .
145(12) . . .
139(12) . . .
151(12) . . .
152(12) . . .
141(12) . . .
150(12) . . .
129(11) . . .
143(12) . . .
134(12) . . .
149(12) . . .
146(12) . . .
130(11) . . .
139(12) . . .
140(12) . . .
152(12) . . .
142(12) . . .
165(13) . . .
141(12) . . .
148(12) . . .
161(13) . . .
152(12) . . .
147(12) . . .
123(11) . . .
140(12) . . .
144(12) . . .
143(12) . . .
152(12) . . .
157(13) . . .
165(13) . . .
129(11) . . .
139(12) . . .
137(12) . . .
155(12) . . .
150(12) . . .
130(11) . . .
136(12) . . .
132(11) . . .
145(12) . . .
142(12) . . .
131(11) . . .
135(12) . . .
141(12) . . .
151(12) . . .
137(12) . . .
130(11) . . .
150(12) . . .
165(13) . . .
137(12) . . .
132(11) . . .
153(12) . . .
165(13) . . .
136(12) . . .
145(12) . . .
148(12) . . .
143(12) . . .
168(13) . . .
158(13) . . .
153(12) . . .
146(12) . . .
142(12) . . .
150(12) . . .
137(12) . . .
154(12) . . .
156(12) . . .
145(12) . . .
159(13) . . .
156(12) . . .
139(12) . . .
146(12) . . .
157(13) . . .
138(12) . . .
150(12) . . .
135(12) . . .
132(11) . . .
145(12) . . .
144(12) . . .
147(12) . . .
146(12) . . .
146(12) . . .
153(12) . . .
146(12) . . .
138(12) . . .
125(11) . . .
161(13) . . .
164(13) . . .
136(12) . . .
159(13) . . .
161(13) . . .
147(12) . . .
146(12) . . .
145(12) . . .
145(12) . . .
149(12) . . .
141(12) . . .
136(12) . . .
141(12) . . .
154(12) . . .
142(12) . . .
131(11) . . .
149(12) . . .
133(12) . . .
140(12) . . .
157(13) . . .
139(12) . . .
158(13) . . .
159(13) . . .
139(12) . . .
144(12) . . .
134(12) . . .
126(11) . . .
149(12) . . .
160(13) . . .
139(12) . . .
150(12) . . .
148(12) . . .
156(12) . . .
154(12) . . .
144(12) . . .
142(12) . . .
158(13) . . .
164(13) . . .
154(12) . . .
157(13) . . .
155(12) . . .
149(12) . . .
157(13) . . .
155(12) . . .
134(12) . . .
140(12) . . .
143(12) . . .
145(12) . . .
142(12) . . .
145(12) . . .
136(12) . . .
146(12) . . .
148(12) . . .
136(12) . . .
162(13) . . .
161(13) . . .
159(13) . . .
142(12) . . .
154(12) . . .
156(12) . . .
151(12) . . .
149(12) . . .
140(12) . . .
144(12) . . .
142(12) . . .
131(11) . . .
163(13) . . .
167(13) . . .
141(12) . . .
163(13) . . .
152(12) . . .
140(12) . . .
145(12) . . .
140(12) . . .
138(12) . . .
148(12) . . .
149(12) . . .
155(12) . . .
140(12) . . .
148(12) . . .
138(12) . . .
149(12) . . .
162(13) . . .
148(12) . . .
152(12) . . .
161(13) . . .
154(12) . . .
145(12) . . .
124(11) . . .
141(12) . . .
153(12) . . .
147(12) . . .
140(12) . . .
158(13) . . .
160(13) . . .
148(12) . . .
155(12) . . .
179(13) . . .
167(13) . . .
164(13) . . .
126(11) . . .
145(12) . . .
153(12) . . .
156(12) . . .
168(13) . . .
172(13) . . .
160(13) . . .
151(12) . . .
146(12) . . .
161(13) . . .
143(12) . . .
154(12) . . .
180(13) . . .
158(13) . . .
150(12) . . .
144(12) . . .
156(12) . . .
161(13) . . .
158(13) . . .
143(12) . . .
163(13) . . .
145(12) . . .
171(13) . . .
168(13) . . .
157(13) . . .
174(13) . . .
152(12) . . .
160(13) . . .
146(12) . . .
187(14) . . .
154(12) . . .
164(13) . . .
152(12) . . .
152(12) . . .
167(13) . . .
157(13) . . .
179(13) . . .
166(13) . . .
171(13) . . .
184(14) . . .
181(13) . . .
181(13) . . .
163(13) . . .
183(14) . . .
149(12) . . .
162(13) . . .
169(13) . . .
163(13) . . .
191(14) . . .
189(14) . . .
169(13) . . .
166(13) . . .
190(14) . . .
166(13) . . .
169(13) . . .
212(15) . . .
195(14) . . .
195(14) . . .
200(14) . . .
196(14) . . .
205(14) . . .
198(14) . . .
192(14) . . .
214(15) . . .
197(14) . . .
193(14) . . .
207(14) . . .
183(14) . . .
225(15) . . .
197(14) . . .
217(15) . . .
205(14) . . .
206(14) . . .
196(14) . . .
219(15) . . .
202(14) . . .
216(15) . . .
241(16) . . .
228(15) . . .
244(16) . . .
253(16) . . .
216(15) . . .
279(17) . . .
242(16) . . .
230(15) . . .
278(17) . . .
263(16) . . .
283(17) . . .
289(17) . . .
317(18) . . .
316(18) . . .
294(17) . . .
334(18) . . .
332(18) . . .
339(18) . . .
376(19) . . .
332(18) . . .
345(19) . . .
370(19) . . .
335(18) . . .
429(21) . . .
428(21) . . .
441(21) . . .
440(21) . . .
436(21) . . .
480(22) . . .
518(23) . . .
578(24) . . .
583(24) . . .
609(25) . . .
651(26) . . .
713(27) . . .
704(27) . . .
741(27) . . .
802(28) . . .
819(29) . . .
863(29) . . .
947(31) . . .
1013(32) . . .
1114(33) . . .
1152(34) . . .
1216(35) . . .
1359(37) . . .
1461(38) . . .
1588(40) . . .
1696(41) . . .
1779(42) . . .
1943(44) . . .
2177(47) . . .
2308(48) . . .
2487(50) . . .
2713(52) . . .
2794(53) . . .
3078(55) . . .
3200(57) . . .
3388(58) . . .
3489(59) . . .
3642(60) . . .
3614(60) . . .
3662(61) . . .
3608(60) . . .
3726(61) . . .
3809(62) . . .
3623(60) . . .
3512(59) . . .
3407(58) . . .
3215(57) . . .
2956(54) . . .
2783(53) . . .
2626(51) . . .
2463(50) . . .
2253(47) . . .
2084(46) . . .
1977(44) . . .
1862(43) . . .
1728(42) . . .
1535(39) . . .
1429(38) . . .
1304(36) . . .
1201(35) . . .
1110(33) . . .
1048(32) . . .
993(32) . . .
908(30) . . .
902(30) . . .
803(28) . . .
779(28) . . .
708(27) . . .
638(25) . . .
621(25) . . .
563(24) . . .
564(24) . . .
549(23) . . .
515(23) . . .
502(22) . . .
459(21) . . .
463(22) . . .
436(21) . . .
388(20) . . .
383(20) . . .
372(19) . . .
361(19) . . .
380(19) . . .
365(19) . . .
347(19) . . .
312(18) . . .
303(17) . . .
322(18) . . .
285(17) . . .
274(17) . . .
285(17) . . .
286(17) . . .
278(17) . . .
258(16) . . .
255(16) . . .
249(16) . . .
232(15) . . .
224(15) . . .
231(15) . . .
234(15) . . .
229(15) . . .
230(15) . . .
220(15) . . .
236(15) . . .
214(15) . . .
225(15) . . .
202(14) . . .
203(14) . . .
216(15) . . .
185(14) . . .
182(13) . . .
184(14) . . .
195(14) . . .
194(14) . . .
192(14) . . .
192(14) . . .
164(13) . . .
194(14) . . .
188(14) . . .
178(13) . . .
193(14) . . .
186(14) . . .
166(13) . . .
175(13) . . .
172(13) . . .
193(14) . . .
183(14) . . .
185(14) . . .
166(13) . . .
181(13) . . .
157(13) . . .
158(13) . . .
169(13) . . .
141(12) . . .
183(14) . . .
149(12) . . .
168(13) . . .
178(13) . . .
146(12) . . .
152(12) . . .
159(13) . . .
152(12) . . .
162(13) . . .
167(13) . . .
162(13) . . .
161(13) . . .
146(12) . . .
167(13) . . .
143(12) . . .
137(12) . . .
150(12) . . .
161(13) . . .
169(13) . . .
156(12) . . .
155(12) . . .
142(12) . . .
137(12) . . .
156(12) . . .
155(12) . . .
143(12) . . .
164(13) . . .
150(12) . . .
160(13) . . .
165(13) . . .
150(12) . . .
160(13) . . .
154(12) . . .
143(12) . . .
150(12) . . .
152(12) . . .
168(13) . . .
155(12) . . .
155(12) . . .
152(12) . . .
135(12) . . .
161(13) . . .
140(12) . . .
149(12) . . .
138(12) . . .
164(13) . . .
135(12) . . .
145(12) . . .
146(12) . . .
143(12) . . .
145(12) . . .
126(11) . . .
170(13) . . .
167(13) . . .
152(12) . . .
152(12) . . .
142(12) . . .
173(13) . . .
139(12) . . .
155(12) . . .
166(13) . . .
141(12) . . .
147(12) . . .
154(12) . . .
136(12) . . .
171(13) . . .
159(13) . . .
160(13) . . .
143(12) . . .
156(12) . . .
146(12) . . .
148(12) . . .
142(12) . . .
141(12) . . .
150(12) . . .
143(12) . . .
142(12) . . .
136(12) . . .
148(12) . . .
143(12) . . .
135(12) . . .
147(12) . . .
146(12) . . .
127(11) . . .
139(12) . . .
144(12) . . .
135(12) . . .
145(12) . . .
138(12) . . .
146(12) . . .
126(11) . . .
175(13) . . .
142(12) . . .
150(12) . . .
139(12) . . .
141(12) . . .
142(12) . . .
135(12) . . .
120(11) . . .
149(12) . . .
145(12) . . .
127(11) . . .
140(12) . . .
139(12) . . .
144(12) . . .
144(12) . . .
138(12) . . .
151(12) . . .
108(10) . . .
137(12) . . .
161(13) . . .
142(12) . . .
132(11) . . .
143(12) . . .
135(12) . . .
136(12) . . .
135(12) . . .
133(12) . . .
145(12) . . .
124(11) . . .
140(12) . . .
130(11) . . .
158(13) . . .
141(12) . . .
146(12) . . .
148(12) . . .
129(11) . . .
142(12) . . .
128(11) . . .
152(12) . . .
149(12) . . .
135(12) . . .
137(12) . . .
125(11) . . .
146(12) . . .
159(13) . . .
148(12) . . .
130(11) . . .
142(12) . . .
129(11) . . .
124(11) . . .
136(12) . . .
159(13) . . .
140(12) . . .
126(11) . . .
133(12) . . .
132(11) . . .
120(11) . . .
142(12) . . .
145(12) . . .
136(12) . . .
131(11) . . .
137(12) . . .
134(12) . . .
130(11) . . .
116(11) . . .
175(13) . . .
125(11) . . .
136(12) . . .
155(12) . . .
146(12) . . .
130(11) . . .
131(11) . . .
140(12) . . .
139(12) . . .
134(12) . . .
146(12) . . .
135(12) . . .
151(12) . . .
134(12) . . .
140(12) . . .
125(11) . . .
142(12) . . .
128(11) . . .
144(12) . . .
152(12) . . .
123(11) . . .
124(11) . . .
141(12) . . .
139(12) . . .
141(12) . . .
129(11) . . .
113(11) . . .
133(12) . . .
154(12) . . .
137(12) . . .
131(11) . . .
128(11) . . .
142(12) . . .
159(13) . . .
128(11) . . .
143(12) . . .
134(12) . . .
136(12) . . .
134(12) . . .
155(12) . . .
137(12) . . .
122(11) . . .
144(12) . . .
143(12) . . .
128(11) . . .
134(12) . . .
126(11) . . .
133(12) . . .
138(12) . . .
134(12) . . .
134(12) . . .
120(11) . . .
127(11) . . .
107(10) . . .
127(11) . . .
165(13) . . .
130(11) . . .
138(12) . . .
144(12) . . .
144(12) . . .
137(12) . . .
135(12) . . .
127(11) . . .
132(11) . . .
134(12) . . .
136(12) . . .
146(12) . . .
129(11) . . .
124(11) . . .
140(12) . . .
135(12) . . .
149(12) . . .
137(12) . . .
129(11) . . .
126(11) . . .
145(12) . . .
129(11) . . .
121(11) . . .
144(12) . . .
135(12) . . .
133(12) . . .
122(11) . . .
132(11) . . .
139(12) . . .
128(11) . . .
128(11) . . .
122(11) . . .
145(12) . . .
125(11) . . .
136(12) . . .
121(11) . . .
151(12) . . .
129(11) . . .
132(11) . . .
141(12) . . .
145(12) . . .
139(12) . . .
119(11) . . .
164(13) . . .
138(12) . . .
149(12) . . .
145(12) . . .
130(11) . . .
146(12) . . .
143(12) . . .
132(11) . . .
139(12) . . .
125(11) . . .
134(12) . . .
143(12) . . .
113(11) . . .
126(11) . . .
141(12) . . .
127(11) . . .
135(12) . . .
134(12) . . .
151(12) . . .
119(11) . . .
120(11) . . .
136(12) . . .
124(11) . . .
134(12) . . .
141(12) . . .
122(11) . . .
129(11) . . .
121(11) . . .
135(12) . . .
128(11) . . .
135(12) . . .
136(12) . . .
140(12) . . .
135(12) . . .
118(11) . . .
134(12) . . .
131(11) . . .
119(11) . . .
132(11) . . .
150(12) . . .
125(11) . . .
137(12) . . .
146(12) . . .
131(11) . . .
147(12) . . .
122(11) . . .
113(11) . . .
139(12) . . .
150(12) . . .
140(12) . . .
138(12) . . .
120(11) . . .
124(11) . . .
135(12) . . .
131(11) . . .
139(12) . . .
138(12) . . .
132(11) . . .
141(12) . . .
120(11) . . .
127(11) . . .
127(11) . . .
133(12) . . .
144(12) . . .
124(11) . . .
110(10) . . .
124(11) . . .
124(11) . . .
120(11) . . .
118(11) . . .
110(10) . . .
126(11) . . .
127(11) . . .
126(11) . . .
127(11) . . .
121(11) . . .
128(11) . . .
127(11) . . .
134(12) . . .
128(11) . . .
113(11) . . .
112(11) . . .
129(11) . . .
138(12) . . .
130(11) . . .
120(11) . . .
139(12) . . .
155(12) . . .
135(12) . . .
123(11) . . .
128(11) . . .
127(11) . . .
123(11) . . .
137(12) . . .
131(11) . . .
127(11) . . .
126(11) . . .
131(11) . . .
129(11) . . .
141(12) . . .
130(11) . . .
117(11) . . .
127(11) . . .
122(11) . . .
133(12) . . .
128(11) . . .
108(10) . . .
141(12) . . .
122(11) . . .
125(11) . . .
135(12) . . .
131(11) . . .
128(11) . . .
127(11) . . .
116(11) . . .
119(11) . . .
124(11) . . .
95(10) . . .
115(11) . . .
126(11) . . .
127(11) . . .
130(11) . . .
116(11) . . .
140(12) . . .
122(11) . . .
130(11) . . .
108(10) . . .
128(11) . . .
144(12) . . .
132(11) . . .
129(11) . . .
126(11) . . .
139(12) . . .
141(12) . . .
141(12) . . .
114(11) . . .
127(11) . . .
118(11) . . .
132(11) . . .
124(11) . . .
130(11) . . .
134(12) . . .
121(11) . . .
124(11) . . .
117(11) . . .
134(12) . . .
141(12) . . .
119(11) . . .
132(11) . . .
113(11) . . .
135(12) . . .
112(11) . . .
110(10) . . .
117(11) . . .
122(11) . . .
111(11) . . .
132(11) . . .
115(11) . . .
108(10) . . .
129(11) . . .
117(11) . . .
131(11) . . .
118(11) . . .
120(11) . . .
133(12) . . .
135(12) . . .
122(11) . . .
108(10) . . .
132(11) . . .
127(11) . . .
120(11) . . .
119(11) . . .
125(11) . . .
127(11) . . .
108(10) . . .
131(11) . . .
135(12) . . .
153(12) . . .
107(10) . . .
121(11) . . .
97(10) . . .
114(11) . . .
122(11) . . .
132(11) . . .
126(11) . . .
138(12) . . .
114(11) . . .
139(12) . . .
123(11) . . .
126(11) . . .
100(10) . . .
130(11) . . .
123(11) . . .
124(11) . . .
130(11) . . .
127(11) . . .
131(11) . . .
134(12) . . .
124(11) . . .
118(11) . . .
126(11) . . .
124(11) . . .
121(11) . . .
131(11) . . .
124(11) . . .
116(11) . . .
122(11) . . .
122(11) . . .
117(11) . . .
119(11) . . .
124(11) . . .
120(11) . . .
122(11) . . .
119(11) . . .
104(10) . . .
117(11) . . .
116(11) . . .
118(11) . . .
125(11) . . .
131(11) . . .
126(11) . . .
114(11) . . .
121(11) . . .
111(11) . . .
106(10) . . .
117(11) . . .
118(11) . . .
117(11) . . .
131(11) . . .
125(11) . . .
133(12) . . .
120(11) . . .
119(11) . . .
134(12) . . .
126(11) . . .
126(11) . . .
119(11) . . .
129(11) . . .
129(11) . . .
111(11) . . .
127(11) . . .
136(12) . . .
124(11) . . .
134(12) . . .
126(11) . . .
136(12) . . .
120(11) . . .
106(10) . . .
131(11) . . .
142(12) . . .
124(11) . . .
127(11) . . .
132(11) . . .
119(11) . . .
133(12) . . .
143(12) . . .
126(11) . . .
136(12) . . .
113(11) . . .
139(12) . . .
131(11) . . .
118(11) . . .
131(11) . . .
128(11) . . .
125(11) . . .
124(11) . . .
116(11) . . .
113(11) . . .
118(11) . . .
134(12) . . .
128(11) . . .
124(11) . . .
126(11) . . .
126(11) . . .
120(11) . . .
120(11) . . .
122(11) . . .
132(11) . . .
122(11) . . .
132(11) . . .
126(11) . . .
120(11) . . .
130(11) . . .
111(11) . . .
125(11) . . .
126(11) . . .
110(10) . . .
115(11) . . .
139(12) . . .
126(11) . . .
118(11) . . .
120(11) . . .
125(11) . . .
147(12) . . .
112(11) . . .
121(11) . . .
121(11) . . .
118(11) . . .
115(11) . . .
122(11) . . .
125(11) . . .
119(11) . . .
120(11) . . .
119(11) . . .
124(11) . . .
125(11) . . .
120(11) . . .
120(11) . . .
125(11) . . .
137(12) . . .
132(11) . . .
106(10) . . .
130(11) . . .
114(11) . . .
127(11) . . .
135(12) . . .
107(10) . . .
116(11) . . .
124(11) . . .
122(11) . . .
122(11) . . .
138(12) . . .
141(12) . . .
123(11) . . .
133(12) . . .
116(11) . . .
160(13) . . .
128(11) . . .
125(11) . . .
117(11) . . .
114(11) . . .
131(11) . . .
133(12) . . .
115(11) . . .
132(11) . . .
116(11) . . .
130(11) . . .
133(12) . . .
126(11) . . .
132(11) . . .
128(11) . . .
130(11) . . .
127(11) . . .
111(11) . . .
122(11) . . .
131(11) . . .
130(11) . . .
129(11) . . .
117(11) . . .
120(11) . . .
111(11) . . .
126(11) . . .
119(11) . . .
126(11) . . .
127(11) . . .
132(11) . . .
123(11) . . .
112(11) . . .
121(11) . . .
108(10) . . .
132(11) . . .
132(11) . . .
120(11) . . .
106(10) . . .
137(12) . . .
149(12) . . .
118(11) . . .
134(12) . . .
115(11) . . .
126(11) . . .
109(10) . . .
119(11) . . .
127(11) . . .
127(11) . . .
143(12) . . .
136(12) . . .
113(11) . . .
120(11) . . .
133(12) . . .
122(11) . . .
120(11) . . .
145(12) . . .
154(12) . . .
118(11) . . .
133(12) . . .
132(11) . . .
117(11) . . .
123(11) . . .
139(12) . . .
134(12) . . .
139(12) . . .
116(11) . . .
131(11) . . .
136(12) . . .
117(11) . . .
124(11) . . .
117(11) . . .
148(12) . . .
130(11) . . .
120(11) . . .
127(11) . . .
132(11) . . .
113(11) . . .
141(12) . . .
128(11) . . .
119(11) . . .
136(12) . . .
132(11) . . .
116(11) . . .
117(11) . . .
148(12) . . .
125(11) . . .
124(11) . . .
122(11) . . .
126(11) . . .
118(11) . . .
116(11) . . .
109(10) . . .
137(12) . . .
134(12) . . .
131(11) . . .
135(12) . . .
133(12) . . .
130(11) . . .
114(11) . . .
126(11) . . .
111(11) . . .
122(11) . . .
133(12) . . .
125(11) . . .
123(11) . . .
120(11) . . .
133(12) . . .
135(12) . . .
141(12) . . .
137(12) . . .
120(11) . . .
113(11) . . .
119(11) . . .
130(11) . . .
115(11) . . .
127(11) . . .
140(12) . . .
123(11) . . .
130(11) . . .
134(12) . . .
132(11) . . .
131(11) . . .
122(11) . . .
117(11) . . .
114(11) . . .
124(11) . . .
123(11) . . .
124(11) . . .
124(11) . . .
129(11) . . .
134(12) . . .
132(11) . . .
129(11) . . .
133(12) . . .
129(11) . . .
113(11) . . .
123(11) . . .
113(11) . . .
121(11) . . .
134(12) . . .
127(11) . . .
118(11) . . .
140(12) . . .
130(11) . . .
113(11) . . .
116(11) . . .
119(11) . . .
129(11) . . .
115(11) . . .
101(10) . . .
125(11) . . .
111(11) . . .
125(11) . . .
134(12) . . .
130(11) . . .
126(11) . . .
131(11) . . .
100(10) . . .
110(10) . . .
112(11) . . .
105(10) . . .
132(11) . . .
136(12) . . .
114(11) . . .
116(11) . . .
106(10) . . .
121(11) . . .
121(11) . . .
126(11) . . .
123(11) . . .
131(11) . . .
112(11) . . .
124(11) . . .
104(10) . . .
107(10) . . .
124(11) . . .
119(11) . . .
115(11) . . .
134(12) . . .
125(11) . . .
113(11) . . .
122(11) . . .
122(11) . . .
120(11) . . .
139(12) . . .
121(11) . . .
126(11) . . .
112(11) . . .
128(11) . . .
115(11) . . .
131(11) . . .
129(11) . . .
125(11) . . .
136(12) . . .
121(11) . . .
137(12) . . .
111(11) . . .
134(12) . . .
125(11) . . .
113(11) . . .
114(11) . . .
128(11) . . .
126(11) . . .
122(11) . . .
115(11) . . .
121(11) . . .
115(11) . . .
104(10) . . .
129(11) . . .
117(11) . . .
135(12) . . .
138(12) . . .
113(11) . . .
112(11) . . .
139(12) . . .
124(11) . . .
129(11) . . .
112(11) . . .
110(10) . . .
128(11) . . .
124(11) . . .
117(11) . . .
113(11) . . .
117(11) . . .
125(11) . . .
107(10) . . .
126(11) . . .
125(11) . . .
131(11) . . .
130(11) . . .
120(11) . . .
119(11) . . .
110(10) . . .
130(11) . . .
116(11) . . .
112(11) . . .
121(11) . . .
123(11) . . .
112(11) . . .
131(11) . . .
131(11) . . .
107(10) . . .
108(10) . . .
131(11) . . .
108(10) . . .
122(11) . . .
124(11) . . .
131(11) . . .
126(11) . . .
113(11) . . .
120(11) . . .
130(11) . . .
124(11) . . .
129(11) . . .
118(11) . . .
105(10) . . .
115(11) . . .
124(11) . . .
121(11) . . .
117(11) . . .
98(10) . . .
109(10) . . .
139(12) . . .
116(11) . . .
105(10) . . .
116(11) . . .
129(11) . . .
117(11) . . .
131(11) . . .
117(11) . . .
116(11) . . .
104(10) . . .
123(11) . . .
119(11) . . .
123(11) . . .
114(11) . . .
104(10) . . .
119(11) . . .
116(11) . . .
115(11) . . .
106(10) . . .
132(11) . . .
120(11) . . .
124(11) . . .
123(11) . . .
124(11) . . .
130(11) . . .
113(11) . . .
112(11) . . .
116(11) . . .
131(11) . . .
133(12) . . .
129(11) . . .
125(11) . . .
114(11) . . .
130(11) . . .
115(11) . . .
131(11) . . .
112(11) . . .
114(11) . . .
129(11) . . .
134(12) . . .
131(11) . . .
115(11) . . .
118(11) . . .
149(12) . . .
119(11) . . .
130(11) . . .
121(11) . . .
117(11) . . .
125(11) . . .
135(12) . . .
133(12) . . .
121(11) . . .
109(10) . . .
116(11) . . .
122(11) . . .
118(11) . . .
122(11) . . .
124(11) . . .
123(11) . . .
126(11) . . .
107(10) . . .
131(11) . . .
135(12) . . .
124(11) . . .
120(11) . . .
116(11) . . .
122(11) . . .
110(10) . . .
106(10) . . .
132(11) . . .
134(12) . . .
119(11) . . .
130(11) . . .
130(11) . . .
113(11) . . .
120(11) . . .
148(12) . . .
138(12) . . .
117(11) . . .
114(11) . . .
130(11) . . .
132(11) . . .
125(11) . . .
101(10) . . .
121(11) . . .
134(12) . . .
126(11) . . .
123(11) . . .
109(10) . . .
132(11) . . .
130(11) . . .
129(11) . . .
123(11) . . .
125(11) . . .
144(12) . . .
131(11) . . .
119(11) . . .
126(11) . . .
99(10) . . .
132(11) . . .
116(11) . . .
125(11) . . .
141(12) . . .
122(11) . . .
110(10) . . .
114(11) . . .
130(11) . . .
135(12) . . .
122(11) . . .
115(11) . . .
120(11) . . .
106(10) . . .
109(10) . . .
111(11) . . .
110(10) . . .
137(12) . . .
124(11) . . .
123(11) . . .
129(11) . . .
105(10) . . .
120(11) . . .
138(12) . . .
119(11) . . .
129(11) . . .
116(11) . . .
126(11) . . .
128(11) . . .
131(11) . . .
113(11) . . .
126(11) . . .
123(11) . . .
123(11) . . .
121(11) . . .
107(10) . . .
121(11) . . .
129(11) . . .
132(11) . . .
126(11) . . .
121(11) . . .
116(11) . . .
126(11) . . .
121(11) . . .
109(10) . . .
132(11) . . .
133(12) . . .
140(12) . . .
118(11) . . .
127(11) . . .
125(11) . . .
138(12) . . .
113(11) . . .
115(11) . . .
121(11) . . .
116(11) . . .
114(11) . . .
102(10) . . .
110(10) . . .
114(11) . . .
115(11) . . .
129(11) . . .
132(11) . . .
114(11) . . .
132(11) . . .
112(11) . . .
135(12) . . .
109(10) . . .
101(10) . . .
92(10) . . .
126(11) . . .
137(12) . . .
113(11) . . .
130(11) . . .
118(11) . . .
119(11) . . .
122(11) . . .
110(10) . . .
120(11) . . .
141(12) . . .
119(11) . . .
108(10) . . .
130(11) . . .
122(11) . . .
129(11) . . .
113(11) . . .
120(11) . . .
119(11) . . .
112(11) . . .
113(11) . . .
126(11) . . .
129(11) . . .
117(11) . . .
115(11) . . .
126(11) . . .
124(11) . . .
115(11) . . .
123(11) . . .
125(11) . . .
112(11) . . .
95(10) . . .
99(10) . . .
118(11) . . .
127(11) . . .
126(11) . . .
110(10) . . .
118(11) . . .
108(10) . . .
115(11) . . .
119(11) . . .
120(11) . . .
112(11) . . .
128(11) . . .
116(11) . . .
122(11) . . .
143(12) . . .
108(10) . . .
113(11) . . .
108(10) . . .
129(11) . . .
121(11) . . .
130(11) . . .
130(11) . . .
129(11) . . .
117(11) . . .
112(11) . . .
113(11) . . .
133(12) . . .
117(11) . . .
130(11) . . .
127(11) . . .
106(10) . . .
113(11) . . .
125(11) . . .
118(11) . . .
130(11) . . .
101(10) . . .
126(11) . . .
104(10) . . .
111(11) . . .
127(11) . . .
110(10) . . .
121(11) . . .
126(11) . . .
111(11) . . .
129(11) . . .
98(10) . . .
115(11) . . .
116(11) . . .
104(10) . . .
105(10) . . .
106(10) . . .
123(11) . . .
106(10) . . .
104(10) . . .
112(11) . . .
99(10) . . .
123(11) . . .
123(11) . . .
135(12) . . .
129(11) . . .
109(10) . . .
108(10) . . .
131(11) . . .
115(11) . . .
125(11) . . .
103(10) . . .
119(11) . . .
116(11) . . .
121(11) . . .
136(12) . . .
101(10) . . .
117(11) . . .
134(12) . . .
122(11) . . .
126(11) . . .
108(10) . . .
119(11) . . .
115(11) . . .
118(11) . . .
121(11) . . .
104(10) . . .
117(11) . . .
126(11) . . .
119(11) . . .
126(11) . . .
127(11) . . .
137(12) . . .
119(11) . . .
112(11) . . .
108(10) . . .
106(10) . . .
128(11) . . .
103(10) . . .
118(11) . . .
134(12) . . .
113(11) . . .
121(11) . . .
115(11) . . .
121(11) . . .
114(11) . . .
110(10) . . .
115(11) . . .
121(11) . . .
113(11) . . .
112(11) . . .
129(11) . . .
123(11) . . .
101(10) . . .
137(12) . . .
100(10) . . .
118(11) . . .
127(11) . . .
98(10) . . .
111(11) . . .
136(12) . . .
125(11) . . .
126(11) . . .
119(11) . . .
123(11) . . .
116(11) . . .
103(10) . . .
114(11) . . .
113(11) . . .
129(11) . . .
124(11) . . .
114(11) . . .
120(11) . . .
111(11) . . .
121(11) . . .
107(10) . . .
110(10) . . .
118(11) . . .
118(11) . . .
113(11) . . .
129(11) . . .
119(11) . . .
124(11) . . .
122(11) . . .
107(10) . . .
107(10) . . .
104(10) . . .
110(10) . . .
124(11) . . .
114(11) . . .
118(11) . . .
125(11) . . .
119(11) . . .
122(11) . . .
114(11) . . .
140(12) . . .
125(11) . . .
113(11) . . .
112(11) . . .
113(11) . . .
121(11) . . .
127(11) . . .
129(11) . . .
114(11) . . .
114(11) . . .
105(10) . . .
117(11) . . .
116(11) . . .
105(10) . . .
131(11) . . .
119(11) . . .
121(11) . . .
104(10) . . .
97(10) . . .
109(10) . . .
121(11) . . .
128(11) . . .
113(11) . . .
128(11) . . .
113(11) . . .
122(11) . . .
118(11) . . .
116(11) . . .
100(10) . . .
132(11) . . .
120(11) . . .
134(12) . . .
131(11) . . .
121(11) . . .
118(11) . . .
117(11) . . .
121(11) . . .
105(10) . . .
109(10) . . .
104(10) . . .
116(11) . . .
119(11) . . .
120(11) . . .
121(11) . . .
130(11) . . .
108(10) . . .
118(11) . . .
116(11) . . .
133(12) . . .
109(10) . . .
128(11) . . .
107(10) . . .
111(11) . . .
149(12) . . .
117(11) . . .
120(11) . . .
116(11) . . .
124(11) . . .
110(10) . . .
121(11) . . .
112(11) . . .
118(11) . . .
129(11) . . .
118(11) . . .
123(11) . . .
121(11) . . .
136(12) . . .
131(11) . . .
112(11) . . .
124(11) . . .
130(11) . . .
136(12) . . .
119(11) . . .
117(11) . . .
111(11) . . .
120(11) . . .
112(11) . . .
122(11) . . .
114(11) . . .
127(11) . . .
116(11) . . .
111(11) . . .
139(12) . . .
104(10) . . .
122(11) . . .
107(10) . . .
126(11) . . .
109(10) . . .
114(11) . . .
121(11) . . .
121(11) . . .
115(11) . . .
123(11) . . .
110(10) . . .
118(11) . . .
126(11) . . .
115(11) . . .
139(12) . . .
102(10) . . .
123(11) . . .
113(11) . . .
118(11) . . .
126(11) . . .
111(11) . . .
118(11) . . .
119(11) . . .
107(10) . . .
135(12) . . .
111(11) . . .
126(11) . . .
128(11) . . .
111(11) . . .
119(11) . . .
101(10) . . .
125(11) . . .
133(12) . . .
116(11) . . .
107(10) . . .
102(10) . . .
137(12) . . .
110(10) . . .
103(10) . . .
117(11) . . .
131(11) . . .
107(10) . . .
100(10) . . .
110(10) . . .
106(10) . . .
120(11) . . .
126(11) . . .
112(11) . . .
115(11) . . .
130(11) . . .
118(11) . . .
112(11) . . .
105(10) . . .
130(11) . . .
126(11) . . .
133(12) . . .
117(11) . . .
117(11) . . .
136(12) . . .
106(10) . . .
119(11) . . .
113(11) . . .
108(10) . . .
127(11) . . .
118(11) . . .
119(11) . . .
114(11) . . .
124(11) . . .
123(11) . . .
117(11) . . .
112(11) . . .
126(11) . . .
132(11) . . .
113(11) . . .
114(11) . . .
122(11) . . .
118(11) . . .
130(11) . . .
117(11) . . .
119(11) . . .
125(11) . . .
118(11) . . .
136(12) . . .
124(11) . . .
128(11) . . .
149(12) . . .
115(11) . . .
126(11) . . .
132(11) . . .
112(11) . . .
130(11) . . .
110(10) . . .
111(11) . . .
113(11) . . .
132(11) . . .
119(11) . . .
122(11) . . .
122(11) . . .
109(10) . . .
115(11) . . .
132(11) . . .
119(11) . . .
122(11) . . .
115(11) . . .
111(11) . . .
127(11) . . .
126(11) . . .
107(10) . . .
125(11) . . .
122(11) . . .
121(11) . . .
114(11) . . .
121(11) . . .
142(12) . . .
124(11) . . .
125(11) . . .
132(11) . . .
126(11) . . .
132(11) . . .
122(11) . . .
134(12) . . .
130(11) . . .
117(11) . . .
124(11) . . .
132(11) . . .
125(11) . . .
128(11) . . .
134(12) . . .
132(11) . . .
140(12) . . .
132(11) . . .
123(11) . . .
134(12) . . .
130(11) . . .
125(11) . . .
145(12) . . .
141(12) . . .
151(12) . . .
126(11) . . .
140(12) . . .
122(11) . . .
125(11) . . .
134(12) . . .
164(13) . . .
132(11) . . .
135(12) . . .
130(11) . . .
114(11) . . .
146(12) . . .
154(12) . . .
139(12) . . .
164(13) . . .
149(12) . . .
149(12) . . .
146(12) . . .
142(12) . . .
155(12) . . .
154(12) . . .
135(12) . . .
139(12) . . .
156(12) . . .
139(12) . . .
163(13) . . .
155(12) . . .
144(12) . . .
151(12) . . .
154(12) . . .
149(12) . . .
145(12) . . .
141(12) . . .
158(13) . . .
183(14) . . .
162(13) . . .
177(13) . . .
195(14) . . .
192(14) . . .
209(14) . . .
229(15) . . .
189(14) . . .
215(15) . . .
218(15) . . .
218(15) . . .
220(15) . . .
259(16) . . .
256(16) . . .
236(15) . . .
253(16) . . .
263(16) . . .
294(17) . . .
283(17) . . .
305(17) . . .
317(18) . . .
390(20) . . .
347(19) . . .
389(20) . . .
409(20) . . .
453(21) . . .
446(21) . . .
470(22) . . .
513(23) . . .
554(24) . . .
569(24) . . .
618(25) . . .
600(24) . . .
615(25) . . .
672(26) . . .
626(25) . . .
688(26) . . .
649(25) . . .
626(25) . . .
650(25) . . .
624(25) . . .
659(26) . . .
621(25) . . .
629(25) . . .
593(24) . . .
570(24) . . .
530(23) . . .
559(24) . . .
550(23) . . .
494(22) . . .
448(21) . . .
429(21) . . .
436(21) . . .
396(20) . . .
371(19) . . .
398(20) . . .
351(19) . . .
336(18) . . .
343(19) . . .
332(18) . . .
277(17) . . .
280(17) . . .
250(16) . . .
261(16) . . .
261(16) . . .
246(16) . . .
238(15) . . .
231(15) . . .
190(14) . . .
227(15) . . .
198(14) . . .
196(14) . . .
185(14) . . .
205(14) . . .
184(14) . . .
193(14) . . .
184(14) . . .
178(13) . . .
145(12) . . .
165(13) . . .
142(12) . . .
181(13) . . .
159(13) . . .
150(12) . . .
142(12) . . .
166(13) . . .
174(13) . . .
147(12) . . .
158(13) . . .
151(12) . . .
148(12) . . .
128(11) . . .
131(11) . . .
126(11) . . .
148(12) . . .
140(12) . . .
154(12) . . .
114(11) . . .
132(11) . . .
128(11) . . .
140(12) . . .
142(12) . . .
125(11) . . .
164(13) . . .
149(12) . . .
136(12) . . .
160(13) . . .
133(12) . . .
99(10) . . .
133(12) . . .
149(12) . . .
123(11) . . .
133(12) . . .
123(11) . . .
126(11) . . .
131(11) . . .
133(12) . . .
103(10) . . .
152(12) . . .
135(12) . . .
108(10) . . .
128(11) . . .
124(11) . . .
110(10) . . .
131(11) . . .
125(11) . . .
126(11) . . .
132(11) . . .
131(11) . . .
142(12) . . .
130(11) . . .
117(11) . . .
130(11) . . .
116(11) . . .
130(11) . . .
134(12) . . .
124(11) . . .
124(11) . . .
126(11) . . .
131(11) . . .
113(11) . . .
122(11) . . .
134(12) . . .
143(12) . . .
133(12) . . .
119(11) . . .
134(12) . . .
131(11) . . .
116(11) . . .
101(10) . . .
117(11) . . .
93(10) . . .
122(11) . . .
128(11) . . .
108(10) . . .
119(11) . . .
124(11) . . .
112(11) . . .
126(11) . . .
119(11) . . .
112(11) . . .
114(11) . . .
121(11) . . .
106(10) . . .
122(11) . . .
115(11) . . .
135(12) . . .
124(11) . . .
109(10) . . .
142(12) . . .
127(11) . . .
110(10) . . .
120(11) . . .
108(10) . . .
125(11) . . .
124(11) . . .
110(10) . . .
119(11) . . .
119(11) . . .
132(11) . . .
109(10) . . .
121(11) . . .
110(10) . . .
117(11) . . .
131(11) . . .
121(11) . . .
117(11) . . .
95(10) . . .
104(10) . . .
120(11) . . .
129(11) . . .
118(11) . . .
112(11) . . .
104(10) . . .
101(10) . . .
116(11) . . .
109(10) . . .
114(11) . . .
146(12) . . .
109(10) . . .
109(10) . . .
113(11) . . .
89(9) . . .
120(11) . . .
121(11) . . .
112(11) . . .
110(10) . . .
118(11) . . .
120(11) . . .
104(10) . . .
114(11) . . .
122(11) . . .
110(10) . . .
104(10) . . .
107(10) . . .
114(11) . . .
116(11) . . .
119(11) . . .
118(11) . . .
126(11) . . .
104(10) . . .
125(11) . . .
126(11) . . .
107(10) . . .
119(11) . . .
116(11) . . .
108(10) . . .
136(12) . . .
123(11) . . .
120(11) . . .
124(11) . . .
121(11) . . .
110(10) . . .
105(10) . . .
111(11) . . .
98(10) . . .
135(12) . . .
115(11) . . .
129(11) . . .
115(11) . . .
109(10) . . .
128(11) . . .
106(10) . . .
112(11) . . .
122(11) . . .
124(11) . . .
119(11) . . .
130(11) . . .
113(11) . . .
106(10) . . .
133(12) . . .
124(11) . . .
105(10) . . .
107(10) . . .
123(11) . . .
115(11) . . .
112(11) . . .
122(11) . . .
111(11) . . .
124(11) . . .
122(11) . . .
139(12) . . .
128(11) . . .
107(10) . . .
108(10) . . .
122(11) . . .
141(12) . . .
119(11) . . .
114(11) . . .
127(11) . . .
115(11) . . .
111(11) . . .
111(11) . . .
104(10) . . .
103(10) . . .
115(11) . . .
117(11) . . .
131(11) . . .
125(11) . . .
112(11) . . .
115(11) . . .
142(12) . . .
123(11) . . .
124(11) . . .
124(11) . . .
120(11) . . .
111(11) . . .
113(11) . . .
107(10) . . .
117(11) . . .
123(11) . . .
140(12) . . .
117(11) . . .
130(11) . . .
100(10) . . .
118(11) . . .
107(10) . . .
125(11) . . .
125(11) . . .
124(11) . . .
120(11) . . .
103(10) . . .
127(11) . . .
113(11) . . .
117(11) . . .
115(11) . . .
104(10) . . .
110(10) . . .
109(10) . . .
122(11) . . .
117(11) . . .
109(10) . . .
122(11) . . .
105(10) . . .
106(10) . . .
110(10) . . .
125(11) . . .
125(11) . . .
125(11) . . .
115(11) . . .
110(10) . . .
106(10) . . .
126(11) . . .
106(10) . . .
112(11) . . .
121(11) . . .
131(11) . . .
122(11) . . .
122(11) . . .
127(11) . . .
122(11) . . .
113(11) . . .
127(11) . . .
107(10) . . .
112(11) . . .
125(11) . . .
124(11) . . .
104(10) . . .
130(11) . . .
109(10) . . .
120(11) . . .
122(11) . . .
115(11) . . .
117(11) . . .
101(10) . . .
112(11) . . .
128(11) . . .
115(11) . . .
125(11) . . .
113(11) . . .
105(10) . . .
123(11) . . .
126(11) . . .
100(10) . . .
112(11) . . .
127(11) . . .
123(11) . . .
104(10) . . .
110(10) . . .
131(11) . . .
122(11) . . .
109(10) . . .
115(11) . . .
129(11) . . .
122(11) . . .
123(11) . . .
112(11) . . .
123(11) . . .
131(11) . . .
135(12) . . .
117(11) . . .
115(11) . . .
125(11) . . .
107(10) . . .
109(10) . . .
112(11) . . .
122(11) . . .
106(10) . . .
122(11) . . .
109(10) . . .
127(11) . . .
119(11) . . .
117(11) . . .
123(11) . . .
128(11) . . .
135(12) . . .
114(11) . . .
107(10) . . .
131(11) . . .
115(11) . . .
122(11) . . .
125(11) . . .
102(10) . . .
131(11) . . .
134(12) . . .
133(12) . . .
111(11) . . .
134(12) . . .
121(11) . . .
132(11) . . .
115(11) . . .
126(11) . . .
115(11) . . .
117(11) . . .
117(11) . . .
114(11) . . .
109(10) . . .
121(11) . . .
115(11) . . .
110(10) . . .
132(11) . . .
118(11) . . .
107(10) . . .
116(11) . . .
114(11) . . .
128(11) . . .
122(11) . . .
99(10) . . .
108(10) . . .
102(10) . . .
113(11) . . .
113(11) . . .
110(10) . . .
131(11) . . .
113(11) . . .
119(11) . . .
113(11) . . .
131(11) . . .
125(11) . . .
106(10) . . .
134(12) . . .
108(10) . . .
124(11) . . .
118(11) . . .
117(11) . . .
116(11) . . .
129(11) . . .
111(11) . . .
130(11) . . .
114(11) . . .
121(11) . . .
103(10) . . .
112(11) . . .
133(12) . . .
107(10) . . .
127(11) . . .
113(11) . . .
106(10) . . .
108(10) . . .
118(11) . . .
102(10) . . .
125(11) . . .
120(11) . . .
117(11) . . .
127(11) . . .
123(11) . . .
114(11) . . .
108(10) . . .
124(11) . . .
131(11) . . .
102(10) . . .
115(11) . . .
105(10) . . .
121(11) . . .
113(11) . . .
113(11) . . .
119(11) . . .
104(10) . . .
106(10) . . .
121(11) . . .
122(11) . . .
103(10) . . .
112(11) . . .
113(11) . . .
106(10) . . .
112(11) . . .
123(11) . . .
113(11) . . .
102(10) . . .
109(10) . . .
119(11) . . .
106(10) . . .
126(11) . . .
130(11) . . .
109(10) . . .
113(11) . . .
109(10) . . .
112(11) . . .
113(11) . . .
104(10) . . .
117(11) . . .
124(11) . . .
120(11) . . .
100(10) . . .
122(11) . . .
114(11) . . .
97(10) . . .
94(10) . . .
132(11) . . .
135(12) . . .
105(10) . . .
123(11) . . .
104(10) . . .
97(10) . . .
128(11) . . .
111(11) . . .
105(10) . . .
121(11) . . .
130(11) . . .
105(10) . . .
105(10) . . .
122(11) . . .
118(11) . . .
114(11) . . .
112(11) . . .
125(11) . . .
121(11) . . .
112(11) . . .
127(11) . . .
127(11) . . .
140(12) . . .
113(11) . . .
129(11) . . .
112(11) . . .
107(10) . . .
106(10) . . .
118(11) . . .
115(11) . . .
112(11) . . .
106(10) . . .
113(11) . . .
121(11) . . .
109(10) . . .
113(11) . . .
99(10) . . .
119(11) . . .
117(11) . . .
106(10) . . .
107(10) . . .
120(11) . . .
124(11) . . .
115(11) . . .
109(10) . . .
120(11) . . .
126(11) . . .
110(10) . . .
131(11) . . .
112(11) . . .
113(11) . . .
110(10) . . .
116(11) . . .
106(10) . . .
113(11) . . .
115(11) . . .
107(10) . . .
100(10) . . .
102(10) . . .
120(11) . . .
112(11) . . .
122(11) . . .
117(11) . . .
100(10) . . .
106(10) . . .
123(11) . . .
104(10) . . .
109(10) . . .
111(11) . . .
117(11) . . .
125(11) . . .
108(10) . . .
110(10) . . .
110(10) . . .
115(11) . . .
116(11) . . .
115(11) . . .
118(11) . . .
107(10) . . .
109(10) . . .
121(11) . . .
107(10) . . .
118(11) . . .
131(11) . . .
116(11) . . .
107(10) . . .
125(11) . . .
112(11) . . .
111(11) . . .
112(11) . . .
102(10) . . .
114(11) . . .
124(11) . . .
97(10) . . .
117(11) . . .
118(11) . . .
113(11) . . .
115(11) . . .
115(11) . . .
101(10) . . .
123(11) . . .
117(11) . . .
128(11) . . .
114(11) . . .
125(11) . . .
113(11) . . .
105(10) . . .
120(11) . . .
125(11) . . .
132(11) . . .
117(11) . . .
124(11) . . .
115(11) . . .
121(11) . . .
114(11) . . .
106(10) . . .
114(11) . . .
114(11) . . .
105(10) . . .
121(11) . . .
109(10) . . .
102(10) . . .
113(11) . . .
107(10) . . .
94(10) . . .
118(11) . . .
104(10) . . .
101(10) . . .
104(10) . . .
129(11) . . .
128(11) . . .
111(11) . . .
101(10) . . .
103(10) . . .
113(11) . . .
97(10) . . .
127(11) . . .
118(11) . . .
116(11) . . .
130(11) . . .
121(11) . . .
100(10) . . .
113(11) . . .
115(11) . . .
108(10) . . .
116(11) . . .
105(10) . . .
129(11) . . .
115(11) . . .
122(11) . . .
119(11) . . .
117(11) . . .
119(11) . . .
113(11) . . .
125(11) . . .
115(11) . . .
112(11) . . .
114(11) . . .
123(11) . . .
104(10) . . .
118(11) . . .
100(10) . . .
101(10) . . .
102(10) . . .
112(11) . . .
125(11) . . .
116(11) . . .
121(11) . . .
123(11) . . .
132(11) . . .
119(11) . . .
115(11) . . .
110(10) . . .
113(11) . . .
114(11) . . .
118(11) . . .
108(10) . . .
116(11) . . .
109(10) . . .
127(11) . . .
117(11) . . .
126(11) . . .
111(11) . . .
118(11) . . .
94(10) . . .
97(10) . . .
113(11) . . .
121(11) . . .
109(10) . . .
116(11) . . .
116(11) . . .
99(10) . . .
109(10) . . .
119(11) . . .
111(11) . . .
118(11) . . .
116(11) . . .
123(11) . . .
124(11) . . .
111(11) . . .
107(10) . . .
121(11) . . .
108(10) . . .
103(10) . . .
117(11) . . .
119(11) . . .
106(10) . . .
113(11) . . .
101(10) . . .
109(10) . . .
112(11) . . .
115(11) . . .
113(11) . . .
127(11) . . .
124(11) . . .
110(10) . . .
109(10) . . .
106(10) . . .
136(12) . . .
116(11) . . .
97(10) . . .
133(12) . . .
122(11) . . .
103(10) . . .
118(11) . . .
106(10) . . .
115(11) . . .
114(11) . . .
120(11) . . .
111(11) . . .
125(11) . . .
124(11) . . .
122(11) . . .
124(11) . . .
110(10) . . .
129(11) . . .
114(11) . . .
117(11) . . .
106(10) . . .
118(11) . . .
114(11) . . .
116(11) . . .
122(11) . . .
118(11) . . .
108(10) . . .
104(10) . . .
108(10) . . .
118(11) . . .
119(11) . . .
136(12) . . .
104(10) . . .
118(11) . . .
113(11) . . .
113(11) . . .
139(12) . . .
125(11) . . .
126(11) . . .
122(11) . . .
99(10) . . .
115(11) . . .
114(11) . . .
111(11) . . .
113(11) . . .
118(11) . . .
112(11) . . .
129(11) . . .
128(11) . . .
116(11) . . .
116(11) . . .
112(11) . . .
105(10) . . .
100(10) . . .
119(11) . . .
120(11) . . .
127(11) . . .
130(11) . . .
111(11) . . .
134(12) . . .
113(11) . . .
128(11) . . .
122(11) . . .
111(11) . . .
129(11) . . .
122(11) . . .
102(10) . . .
100(10) . . .
120(11) . . .
123(11) . . .
105(10) . . .
114(11) . . .
130(11) . . .
114(11) . . .
135(12) . . .
113(11) . . .
116(11) . . .
124(11) . . .
113(11) . . .
125(11) . . .
112(11) . . .
121(11) . . .
128(11) . . .
119(11) . . .
129(11) . . .
112(11) . . .
126(11) . . .
108(10) . . .
112(11) . . .
117(11) . . .
108(10) . . .
120(11) . . .
105(10) . . .
112(11) . . .
105(10) . . .
98(10) . . .
121(11) . . .
115(11) . . .
110(10) . . .
121(11) . . .
113(11) . . .
122(11) . . .
99(10) . . .
132(11) . . .
108(10) . . .
106(10) . . .
110(10) . . .
126(11) . . .
122(11) . . .
137(12) . . .
109(10) . . .
127(11) . . .
130(11) . . .
122(11) . . .
108(10) . . .
125(11) . . .
108(10) . . .
121(11) . . .
132(11) . . .
122(11) . . .
118(11) . . .
120(11) . . .
113(11) . . .
122(11) . . .
118(11) . . .
114(11) . . .
134(12) . . .
112(11) . . .
110(10) . . .
128(11) . . .
121(11) . . .
106(10) . . .
106(10) . . .
94(10) . . .
103(10) . . .
126(11) . . .
120(11) . . .
113(11) . . .
120(11) . . .
116(11) . . .
105(10) . . .
120(11) . . .
102(10) . . .
113(11) . . .
111(11) . . .
111(11) . . .
120(11) . . .
125(11) . . .
120(11) . . .
108(10) . . .
114(11) . . .
130(11) . . .
128(11) . . .
121(11) . . .
119(11) . . .
122(11) . . .
122(11) . . .
118(11) . . .
127(11) . . .
107(10) . . .
132(11) . . .
115(11) . . .
132(11) . . .
128(11) . . .
127(11) . . .
126(11) . . .
146(12) . . .
128(11) . . .
102(10) . . .
115(11) . . .
135(12) . . .
125(11) . . .
118(11) . . .
110(10) . . .
118(11) . . .
127(11) . . .
129(11) . . .
109(10) . . .
111(11) . . .
113(11) . . .
118(11) . . .
134(12) . . .
114(11) . . .
120(11) . . .
119(11) . . .
139(12) . . .
134(12) . . .
113(11) . . .
132(11) . . .
129(11) . . .
114(11) . . .
109(10) . . .
136(12) . . .
117(11) . . .
122(11) . . .
118(11) . . .
148(12) . . .
115(11) . . .
143(12) . . .
132(11) . . .
116(11) . . .
112(11) . . .
130(11) . . .
138(12) . . .
142(12) . . .
122(11) . . .
122(11) . . .
140(12) . . .
133(12) . . .
124(11) . . .
138(12) . . .
135(12) . . .
146(12) . . .
136(12) . . .
123(11) . . .
141(12) . . .
139(12) . . .
133(12) . . .
153(12) . . .
140(12) . . .
143(12) . . .
151(12) . . .
152(12) . . .
148(12) . . .
146(12) . . .
158(13) . . .
143(12) . . .
140(12) . . .
132(11) . . .
133(12) . . .
149(12) . . .
137(12) . . .
140(12) . . .
123(11) . . .
149(12) . . .
139(12) . . .
150(12) . . .
172(13) . . .
157(13) . . .
162(13) . . .
149(12) . . .
175(13) . . .
184(14) . . .
179(13) . . .
169(13) . . .
163(13) . . .
186(14) . . .
171(13) . . .
197(14) . . .
177(13) . . .
207(14) . . .
186(14) . . .
178(13) . . .
190(14) . . .
176(13) . . .
231(15) . . .
211(15) . . .
221(15) . . .
228(15) . . .
222(15) . . .
258(16) . . .
260(16) . . .
245(16) . . .
254(16) . . .
283(17) . . .
279(17) . . .
266(16) . . .
279(17) . . .
315(18) . . .
342(18) . . .
324(18) . . .
331(18) . . .
379(19) . . .
352(19) . . .
392(20) . . .
407(20) . . .
393(20) . . .
441(21) . . .
454(21) . . .
484(22) . . .
509(23) . . .
526(23) . . .
566(24) . . .
579(24) . . .
642(25) . . .
667(26) . . .
709(27) . . .
746(27) . . .
761(28) . . .
821(29) . . .
867(29) . . .
981(31) . . .
987(31) . . .
991(31) . . .
1038(32) . . .
1066(33) . . .
1041(32) . . .
1101(33) . . .
1096(33) . . .
1140(34) . . .
1099(33) . . .
1036(32) . . .
1026(32) . . .
1029(32) . . .
968(31) . . .
952(31) . . .
947(31) . . .
885(30) . . .
858(29) . . .
830(29) . . .
793(28) . . .
735(27) . . .
683(26) . . .
673(26) . . .
625(25) . . .
592(24) . . .
555(24) . . .
563(24) . . .
529(23) . . .
519(23) . . .
491(22) . . .
432(21) . . .
444(21) . . .
417(20) . . .
397(20) . . .
349(19) . . .
346(19) . . .
315(18) . . .
342(18) . . .
287(17) . . .
299(17) . . .
287(17) . . .
298(17) . . .
294(17) . . .
234(15) . . .
240(15) . . .
250(16) . . .
242(16) . . .
235(15) . . .
208(14) . . .
220(15) . . .
251(16) . . .
201(14) . . .
217(15) . . .
204(14) . . .
204(14) . . .
200(14) . . .
212(15) . . .
187(14) . . .
182(13) . . .
162(13) . . .
172(13) . . .
187(14) . . .
148(12) . . .
168(13) . . .
169(13) . . .
154(12) . . .
162(13) . . .
168(13) . . .
163(13) . . .
135(12) . . .
160(13) . . .
154(12) . . .
139(12) . . .
148(12) . . .
137(12) . . .
155(12) . . .
139(12) . . .
160(13) . . .
154(12) . . .
148(12) . . .
135(12) . . .
140(12) . . .
147(12) . . .
152(12) . . .
160(13) . . .
136(12) . . .
154(12) . . .
146(12) . . .
134(12) . . .
137(12) . . .
137(12) . . .
136(12) . . .
136(12) . . .
132(11) . . .
120(11) . . .
136(12) . . .
152(12) . . .
148(12) . . .
142(12) . . .
134(12) . . .
113(11) . . .
155(12) . . .
127(11) . . .
135(12) . . .
124(11) . . .
128(11) . . .
141(12) . . .
113(11) . . .
132(11) . . .
130(11) . . .
123(11) . . .
134(12) . . .
131(11) . . .
132(11) . . .
143(12) . . .
144(12) . . .
151(12) . . .
149(12) . . .
142(12) . . .
128(11) . . .
118(11) . . .
142(12) . . .
115(11) . . .
124(11) . . .
139(12) . . .
147(12) . . .
134(12) . . .
123(11) . . .
118(11) . . .
137(12) . . .
129(11) . . .
130(11) . . .
142(12) . . .
122(11) . . .
125(11) . . .
126(11) . . .
131(11) . . .
135(12) . . .
135(12) . . .
141(12) . . .
103(10) . . .
132(11) . . .
123(11) . . .
132(11) . . .
126(11) . . .
115(11) . . .
125(11) . . .
131(11) . . .
135(12) . . .
114(11) . . .
118(11) . . .
136(12) . . .
117(11) . . .
145(12) . . .
117(11) . . .
112(11) . . .
124(11) . . .
118(11) . . .
121(11) . . .
123(11) . . .
138(12) . . .
130(11) . . .
126(11) . . .
125(11) . . .
118(11) . . .
120(11) . . .
130(11) . . .
140(12) . . .
146(12) . . .
106(10) . . .
127(11) . . .
122(11) . . .
130(11) . . .
127(11) . . .
118(11) . . .
125(11) . . .
137(12) . . .
114(11) . . .
121(11) . . .
123(11) . . .
133(12) . . .
112(11) . . .
110(10) . . .
130(11) . . .
137(12) . . .
116(11) . . .
122(11) . . .
125(11) . . .
122(11) . . .
121(11) . . .
122(11) . . .
138(12) . . .
121(11) . . .
139(12) . . .
131(11) . . .
133(12) . . .
130(11) . . .
123(11) . . .
147(12) . . .
123(11) . . .
123(11) . . .
127(11) . . .
120(11) . . .
131(11) . . .
124(11) . . .
150(12) . . .
133(12) . . .
113(11) . . .
140(12) . . .
138(12) . . .
126(11) . . .
124(11) . . .
126(11) . . .
145(12) . . .
143(12) . . .
141(12) . . .
123(11) . . .
124(11) . . .
123(11) . . .
160(13) . . .
122(11) . . .
128(11) . . .
115(11) . . .
136(12) . . .
119(11) . . .
127(11) . . .
127(11) . . .
142(12) . . .
131(11) . . .
123(11) . . .
122(11) . . .
132(11) . . .
125(11) . . .
140(12) . . .
137(12) . . .
137(12) . . .
137(12) . . .
135(12) . . .
132(11) . . .
132(11) . . .
136(12) . . .
134(12) . . .
130(11) . . .
157(13) . . .
154(12) . . .
144(12) . . .
136(12) . . .
159(13) . . .
152(12) . . .
120(11) . . .
134(12) . . .
136(12) . . .
145(12) . . .
158(13) . . .
148(12) . . .
142(12) . . .
155(12) . . .
141(12) . . .
157(13) . . .
169(13) . . .
162(13) . . .
158(13) . . .
159(13) . . .
161(13) . . .
162(13) . . .
173(13) . . .
176(13) . . .
182(13) . . .
165(13) . . .
190(14) . . .
193(14) . . .
173(13) . . .
169(13) . . .
182(13) . . .
157(13) . . .
184(14) . . .
169(13) . . .
203(14) . . .
171(13) . . .
184(14) . . .
194(14) . . .
172(13) . . .
189(14) . . .
181(13) . . .
215(15) . . .
228(15) . . .
199(14) . . .
219(15) . . .
218(15) . . .
252(16) . . .
239(15) . . .
240(15) . . .
234(15) . . .
230(15) . . .
267(16) . . .
260(16) . . .
288(17) . . .
266(16) . . .
278(17) . . .
304(17) . . .
333(18) . . .
321(18) . . .
338(18) . . .
340(18) . . .
367(19) . . .
368(19) . . .
398(20) . . .
417(20) . . .
406(20) . . .
451(21) . . .
496(22) . . .
473(22) . . .
554(24) . . .
545(23) . . .
535(23) . . .
616(25) . . .
611(25) . . .
663(26) . . .
679(26) . . .
738(27) . . .
799(28) . . .
849(29) . . .
873(30) . . .
915(30) . . .
972(31) . . .
1063(33) . . .
1094(33) . . .
1178(34) . . .
1334(37) . . .
1413(38) . . .
1400(37) . . .
1437(38) . . .
1566(40) . . .
1631(40) . . .
1631(40) . . .
1762(42) . . .
1750(42) . . .
1804(42) . . .
1785(42) . . .
1852(43) . . .
1868(43) . . .
1872(43) . . .
1814(43) . . .
1764(42) . . .
1818(43) . . .
1791(42) . . .
1658(41) . . .
1647(41) . . .
1614(40) . . .
1536(39) . . .
1455(38) . . .
1414(38) . . .
1285(36) . . .
1240(35) . . .
1188(34) . . .
1137(34) . . .
1054(32) . . .
1005(32) . . .
971(31) . . .
931(31) . . .
868(29) . . .
808(28) . . .
734(27) . . .
731(27) . . .
663(26) . . .
654(26) . . .
564(24) . . .
546(23) . . .
500(22) . . .
502(22) . . .
472(22) . . .
430(21) . . .
423(21) . . .
417(20) . . .
390(20) . . .
338(18) . . .
351(19) . . .
358(19) . . .
358(19) . . .
298(17) . . .
298(17) . . .
292(17) . . .
316(18) . . .
280(17) . . .
265(16) . . .
248(16) . . .
261(16) . . .
259(16) . . .
227(15) . . .
236(15) . . .
217(15) . . .
227(15) . . .
230(15) . . .
242(16) . . .
248(16) . . .
221(15) . . .
212(15) . . .
187(14) . . .
190(14) . . .
182(13) . . .
189(14) . . .
187(14) . . .
201(14) . . .
197(14) . . .
180(13) . . .
173(13) . . .
186(14) . . .
196(14) . . .
176(13) . . .
145(12) . . .
155(12) . . .
160(13) . . .
163(13) . . .
159(13) . . .
149(12) . . .
162(13) . . .
169(13) . . .
155(12) . . .
161(13) . . .
152(12) . . .
141(12) . . .
147(12) . . .
156(12) . . .
127(11) . . .
157(13) . . .
132(11) . . .
138(12) . . .
156(12) . . .
136(12) . . .
154(12) . . .
158(13) . . .
148(12) . . .
149(12) . . .
136(12) . . .
157(13) . . .
136(12) . . .
139(12) . . .
144(12) . . .
122(11) . . .
134(12) . . .
159(13) . . .
124(11) . . .
134(12) . . .
137(12) . . .
135(12) . . .
118(11) . . .
135(12) . . .
144(12) . . .
126(11) . . .
153(12) . . .
139(12) . . .
121(11) . . .
137(12) . . .
133(12) . . .
116(11) . . .
127(11) . . .
113(11) . . .
132(11) . . .
118(11) . . .
118(11) . . .
114(11) . . .
143(12) . . .
139(12) . . .
130(11) . . .
120(11) . . .
130(11) . . .
116(11) . . .
112(11) . . .
132(11) . . .
132(11) . . .
118(11) . . .
127(11) . . .
129(11) . . .
118(11) . . .
136(12) . . .
118(11) . . .
124(11) . . .
135(12) . . .
118(11) . . .
114(11) . . .
131(11) . . .
116(11) . . .
107(10) . . .
136(12) . . .
126(11) . . .
119(11) . . .
120(11) . . .
127(11) . . .
131(11) . . .
125(11) . . .
124(11) . . .
122(11) . . .
118(11) . . .
109(10) . . .
112(11) . . .
122(11) . . .
126(11) . . .
106(10) . . .
129(11) . . .
117(11) . . .
133(12) . . .
120(11) . . .
107(10) . . .
130(11) . . .
126(11) . . .
126(11) . . .
127(11) . . .
119(11) . . .
133(12) . . .
114(11) . . .
124(11) . . .
117(11) . . .
116(11) . . .
120(11) . . .
117(11) . . .
112(11) . . .
117(11) . . .
111(11) . . .
110(10) . . .
113(11) . . .
119(11) . . .
123(11) . . .
114(11) . . .
114(11) . . .
137(12) . . .
106(10) . . .
128(11) . . .
126(11) . . .
114(11) . . .
111(11) . . .
113(11) . . .
100(10) . . .
112(11) . . .
122(11) . . .
105(10) . . .
128(11) . . .
120(11) . . .
130(11) . . .
120(11) . . .
130(11) . . .
114(11) . . .
108(10) . . .
117(11) . . .
116(11) . . .
110(10) . . .
95(10) . . .
112(11) . . .
114(11) . . .
115(11) . . .
104(10) . . .
119(11) . . .
123(11) . . .
109(10) . . .
103(10) . . .
101(10) . . .
129(11) . . .
122(11) . . .
120(11) . . .
123(11) . . .
104(10) . . .
127(11) . . .
117(11) . . .
120(11) . . .
107(10) . . .
102(10) . . .
123(11) . . .
114(11) . . .
109(10) . . .
116(11) . . .
97(10) . . .
109(10) . . .
102(10) . . .
120(11) . . .
107(10) . . .
114(11) . . .
122(11) . . .
104(10) . . .
106(10) . . .
102(10) . . .
107(10) . . .
120(11) . . .
104(10) . . .
119(11) . . .
95(10) . . .
122(11) . . .
109(10) . . .
111(11) . . .
113(11) . . .
118(11) . . .
122(11) . . .
113(11) . . .
124(11) . . .
123(11) . . .
111(11) . . .
117(11) . . .
121(11) . . .
107(10) . . .
95(10) . . .
108(10) . . .
115(11) . . .
124(11) . . .
118(11) . . .
115(11) . . .
116(11) . . .
123(11) . . .
91(10) . . .
109(10) . . .
104(10) . . .
122(11) . . .
124(11) . . .
123(11) . . .
122(11) . . .
95(10) . . .
124(11) . . .
106(10) . . .
107(10) . . .
121(11) . . .
113(11) . . .
117(11) . . .
126(11) . . .
123(11) . . .
134(12) . . .
90(9) . . .
122(11) . . .
117(11) . . .
127(11) . . .
112(11) . . .
120(11) . . .
126(11) . . .
118(11) . . .
118(11) . . .
100(10) . . .
116(11) . . .
99(10) . . .
129(11) . . .
102(10) . . .
105(10) . . .
120(11) . . .
104(10) . . .
129(11) . . .
122(11) . . .
108(10) . . .
124(11) . . .
98(10) . . .
87(9) . . .
121(11) . . .
118(11) . . .
125(11) . . .
123(11) . . .
116(11) . . .
104(10) . . .
94(10) . . .
105(10) . . .
123(11) . . .
119(11) . . .
108(10) . . .
111(11) . . .
126(11) . . .
119(11) . . .
119(11) . . .
94(10) . . .
109(10) . . .
106(10) . . .
98(10) . . .
107(10) . . .
115(11) . . .
108(10) . . .
105(10) . . .
104(10) . . .
103(10) . . .
112(11) . . .
109(10) . . .
111(11) . . .
106(10) . . .
104(10) . . .
99(10) . . .
113(11) . . .
106(10) . . .
115(11) . . .
120(11) . . .
113(11) . . .
109(10) . . .
108(10) . . .
120(11) . . .
122(11) . . .
119(11) . . .
116(11) . . .
106(10) . . .
117(11) . . .
128(11) . . .
97(10) . . .
101(10) . . .
111(11) . . .
86(9) . . .
109(10) . . .
112(11) . . .
120(11) . . .
113(11) . . .
93(10) . . .
108(10) . . .
109(10) . . .
114(11) . . .
125(11) . . .
118(11) . . .
100(10) . . .
115(11) . . .
111(11) . . .
100(10) . . .
116(11) . . .
128(11) . . .
113(11) . . .
114(11) . . .
115(11) . . .
118(11) . . .
110(10) . . .
112(11) . . .
127(11) . . .
104(10) . . .
117(11) . . .
119(11) . . .
93(10) . . .
109(10) . . .
114(11) . . .
113(11) . . .
121(11) . . .
95(10) . . .
112(11) . . .
103(10) . . .
114(11) . . .
110(10) . . .
112(11) . . .
108(10) . . .
125(11) . . .
96(10) . . .
108(10) . . .
102(10) . . .
110(10) . . .
119(11) . . .
108(10) . . .
113(11) . . .
112(11) . . .
105(10) . . .
114(11) . . .
120(11) . . .
102(10) . . .
106(10) . . .
122(11) . . .
114(11) . . .
105(10) . . .
115(11) . . .
97(10) . . .
104(10) . . .
106(10) . . .
120(11) . . .
114(11) . . .
86(9) . . .
105(10) . . .
105(10) . . .
99(10) . . .
103(10) . . .
99(10) . . .
116(11) . . .
107(10) . . .
91(10) . . .
110(10) . . .
121(11) . . .
93(10) . . .
107(10) . . .
111(11) . . .
111(11) . . .
109(10) . . .
117(11) . . .
104(10) . . .
97(10) . . .
121(11) . . .
123(11) . . .
107(10) . . .
122(11) . . .
102(10) . . .
101(10) . . .
101(10) . . .
106(10) . . .
108(10) . . .
124(11) . . .
113(11) . . .
107(10) . . .
95(10) . . .
100(10) . . .
127(11) . . .
120(11) . . .
124(11) . . .
119(11) . . .
113(11) . . .
103(10) . . .
100(10) . . .
91(10) . . .
105(10) . . .
100(10) . . .
115(11) . . .
115(11) . . .
104(10) . . .
102(10) . . .
89(9) . . .
110(10) . . .
102(10) . . .
99(10) . . .
113(11) . . .
110(10) . . .
107(10) . . .
107(10) . . .
105(10) . . .
102(10) . . .
114(11) . . .
112(11) . . .
114(11) . . .
112(11) . . .
118(11) . . .
111(11) . . .
123(11) . . .
96(10) . . .
115(11) . . .
114(11) . . .
100(10) . . .
96(10) . . .
98(10) . . .
99(10) . . .
110(10) . . .
97(10) . . .
100(10) . . .
100(10) . . .
116(11) . . .
127(11) . . .
133(12) . . .
109(10) . . .
111(11) . . .
101(10) . . .
111(11) . . .
127(11) . . .
131(11) . . .
101(10) . . .
117(11) . . .
88(9) . . .
113(11) . . .
112(11) . . .
114(11) . . .
117(11) . . .
114(11) . . .
106(10) . . .
112(11) . . .
94(10) . . .
105(10) . . .
129(11) . . .
104(10) . . .
108(10) . . .
106(10) . . .
112(11) . . .
114(11) . . .
106(10) . . .
104(10) . . .
108(10) . . .
116(11) . . .
105(10) . . .
96(10) . . .
112(11) . . .
104(10) . . .
106(10) . . .
108(10) . . .
108(10) . . .
106(10) . . .
112(11) . . .
119(11) . . .
123(11) . . .
101(10) . . .
114(11) . . .
107(10) . . .
97(10) . . .
86(9) . . .
101(10) . . .
84(9) . . .
115(11) . . .
110(10) . . .
100(10) . . .
107(10) . . .
109(10) . . .
106(10) . . .
116(11) . . .
99(10) . . .
99(10) . . .
119(11) . . .
107(10) . . .
106(10) . . .
107(10) . . .
123(11) . . .
106(10) . . .
107(10) . . .
102(10) . . .
111(11) . . .
104(10) . . .
128(11) . . .
121(11) . . .
96(10) . . .
109(10) . . .
103(10) . . .
106(10) . . .
104(10) . . .
106(10) . . .
117(11) . . .
103(10) . . .
104(10) . . .
125(11) . . .
115(11) . . .
117(11) . . .
126(11) . . .
120(11) . . .
102(10) . . .
130(11) . . .
113(11) . . .
115(11) . . .
112(11) . . .
94(10) . . .
115(11) . . .
100(10) . . .
114(11) . . .
111(11) . . .
115(11) . . .
94(10) . . .
115(11) . . .
115(11) . . .
113(11) . . .
119(11) . . .
91(10) . . .
104(10) . . .
93(10) . . .
108(10) . . .
118(11) . . .
93(10) . . .
116(11) . . .
113(11) . . .
111(11) . . .
108(10) . . .
105(10) . . .
107(10) . . .
113(11) . . .
110(10) . . .
116(11) . . .
113(11) . . .
116(11) . . .
116(11) . . .
113(11) . . .
99(10) . . .
103(10) . . .
137(12) . . .
112(11) . . .
118(11) . . .
115(11) . . .
114(11) . . .
104(10) . . .
107(10) . . .
95(10) . . .
103(10) . . .
111(11) . . .
123(11) . . .
110(10) . . .
92(10) . . .
111(11) . . .
100(10) . . .
115(11) . . .
107(10) . . .
111(11) . . .
120(11) . . .
107(10) . . .
133(12) . . .
97(10) . . .
112(11) . . .
125(11) . . .
119(11) . . .
119(11) . . .
109(10) . . .
117(11) . . .
112(11) . . .
100(10) . . .
116(11) . . .
112(11) . . .
117(11) . . .
104(10) . . .
101(10) . . .
107(10) . . .
110(10) . . .
99(10) . . .
114(11) . . .
102(10) . . .
117(11) . . .
108(10) . . .
112(11) . . .
134(12) . . .
98(10) . . .
116(11) . . .
111(11) . . .
110(10) . . .
117(11) . . .
121(11) . . .
100(10) . . .
113(11) . . .
108(10) . . .
104(10) . . .
111(11) . . .
122(11) . . .
97(10) . . .
92(10) . . .
114(11) . . .
114(11) . . .
105(10) . . .
115(11) . . .
104(10) . . .
117(11) . . .
108(10) . . .
116(11) . . .
117(11) . . .
122(11) . . .
101(10) . . .
100(10) . . .
119(11) . . .
95(10) . . .
133(12) . . .
103(10) . . .
103(10) . . .
115(11) . . .
114(11) . . .
99(10) . . .
100(10) . . .
116(11) . . .
115(11) . . .
112(11) . . .
118(11) . . .
101(10) . . .
116(11) . . .
105(10) . . .
108(10) . . .
100(10) . . .
100(10) . . .
107(10) . . .
94(10) . . .
122(11) . . .
107(10) . . .
112(11) . . .
125(11) . . .
118(11) . . .
146(12) . . .
130(11) . . .
119(11) . . .
99(10) . . .
104(10) . . .
116(11) . . .
125(11) . . .
106(10) . . .
121(11) . . .
122(11) . . .
123(11) . . .
117(11) . . .
141(12) . . .
114(11) . . .
131(11) . . .
138(12) . . .
116(11) . . .
172(13) . . .
123(11) . . .
117(11) . . .
89(9) . . .
98(10) . . .
117(11) . . .
121(11) . . .
115(11) . . .
93(10) . . .
125(11) . . .
110(10) . . .
114(11) . . .
108(10) . . .
104(10) . . .
107(10) . . .
102(10) . . .
121(11) . . .
117(11) . . .
103(10) . . .
108(10) . . .
110(10) . . .
115(11) . . .
124(11) . . .
101(10) . . .
118(11) . . .
108(10) . . .
127(11) . . .
114(11) . . .
106(10) . . .
109(10) . . .
112(11) . . .
108(10) . . .
117(11) . . .
111(11) . . .
121(11) . . .
122(11) . . .
129(11) . . .
113(11) . . .
121(11) . . .
121(11) . . .
95(10) . . .
101(10) . . .
110(10) . . .
107(10) . . .
124(11) . . .
111(11) . . .
120(11) . . .
123(11) . . .
101(10) . . .
124(11) . . .
110(10) . . .
105(10) . . .
111(11) . . .
116(11) . . .
101(10) . . .
110(10) . . .
100(10) . . .
96(10) . . .
110(10) . . .
118(11) . . .
107(10) . . .
117(11) . . .
110(10) . . .
119(11) . . .
96(10) . . .
132(11) . . .
108(10) . . .
112(11) . . .
104(10) . . .
123(11) . . .
104(10) . . .
118(11) . . .
106(10) . . .
99(10) . . .
109(10) . . .
114(11) . . .
117(11) . . .
118(11) . . .
120(11) . . .
93(10) . . .
107(10) . . .
126(11) . . .
108(10) . . .
130(11) . . .
109(10) . . .
106(10) . . .
121(11) . . .
112(11) . . .
108(10) . . .
116(11) . . .
113(11) . . .
110(10) . . .
105(10) . . .
98(10) . . .
114(11) . . .
126(11) . . .
108(10) . . .
97(10) . . .
124(11) . . .
115(11) . . .
117(11) . . .
102(10) . . .
106(10) . . .
110(10) . . .
107(10) . . .
118(11) . . .
110(10) . . .
103(10) . . .
109(10) . . .
100(10) . . .
93(10) . . .
106(10) . . .
116(11) . . .
121(11) . . .
94(10) . . .
106(10) . . .
102(10) . . .
111(11) . . .
103(10) . . .
102(10) . . .
121(11) . . .
108(10) . . .
111(11) . . .
117(11) . . .
107(10) . . .
114(11) . . .
99(10) . . .
106(10) . . .
116(11) . . .
112(11) . . .
115(11) . . .
108(10) . . .
112(11) . . .
124(11) . . .
118(11) . . .
124(11) . . .
142(12) . . .
110(10) . . .
97(10) . . .
106(10) . . .
120(11) . . .
123(11) . . .
112(11) . . .
117(11) . . .
104(10) . . .
138(12) . . .
125(11) . . .
118(11) . . .
108(10) . . .
129(11) . . .
99(10) . . .
121(11) . . .
116(11) . . .
102(10) . . .
107(10) . . .
98(10) . . .
94(10) . . .
102(10) . . .
115(11) . . .
91(10) . . .
111(11) . . .
115(11) . . .
126(11) . . .
100(10) . . .
129(11) . . .
100(10) . . .
118(11) . . .
111(11) . . .
105(10) . . .
108(10) . . .
111(11) . . .
123(11) . . .
106(10) . . .
109(10) . . .
106(10) . . .
127(11) . . .
127(11) . . .
114(11) . . .
104(10) . . .
103(10) . . .
102(10) . . .
104(10) . . .
109(10) . . .
109(10) . . .
111(11) . . .
116(11) . . .
126(11) . . .
112(11) . . .
104(10) . . .
106(10) . . .
117(11) . . .
101(10) . . .
104(10) . . .
116(11) . . .
104(10) . . .
112(11) . . .
121(11) . . .
100(10) . . .
106(10) . . .
109(10) . . .
106(10) . . .
114(11) . . .
107(10) . . .
119(11) . . .
116(11) . . .
117(11) . . .
129(11) . . .
122(11) . . .
117(11) . . .
123(11) . . .
118(11) . . .
102(10) . . .
112(11) . . .
111(11) . . .
105(10) . . .
103(10) . . .
116(11) . . .
97(10) . . .
97(10) . . .
101(10) . . .
117(11) . . .
101(10) . . .
101(10) . . .
92(10) . . .
118(11) . . .
103(10) . . .
108(10) . . .
99(10) . . .
108(10) . . .
117(11) . . .
122(11) . . .
109(10) . . .
118(11) . . .
106(10) . . .
114(11) . . .
96(10) . . .
132(11) . . .
106(10) . . .
106(10) . . .
112(11) . . .
92(10) . . .
102(10) . . .
109(10) . . .
93(10) . . .
119(11) . . .
118(11) . . .
102(10) . . .
118(11) . . .
104(10) . . .
112(11) . . .
119(11) . . .
115(11) . . .
105(10) . . .
103(10) . . .
123(11) . . .
116(11) . . .
109(10) . . .
115(11) . . .
110(10) . . .
118(11) . . .
115(11) . . .
105(10) . . .
120(11) . . .
123(11) . . .
112(11) . . .
93(10) . . .
108(10) . . .
101(10) . . .
116(11) . . .
112(11) . . .
115(11) . . .
109(10) . . .
107(10) . . .
111(11) . . .
114(11) . . .
100(10) . . .
95(10) . . .
123(11) . . .
111(11) . . .
120(11) . . .
123(11) . . .
109(10) . . .
106(10) . . .
125(11) . . .
115(11) . . .
97(10) . . .
98(10) . . .
98(10) . . .
116(11) . . .
103(10) . . .
108(10) . . .
119(11) . . .
135(12) . . .
101(10) . . .
104(10) . . .
106(10) . . .
128(11) . . .
97(10) . . .
99(10) . . .
119(11) . . .
119(11) . . .
104(10) . . .
107(10) . . .
102(10) . . .
103(10) . . .
110(10) . . .
100(10) . . .
124(11) . . .
115(11) . . .
106(10) . . .
105(10) . . .
125(11) . . .
103(10) . . .
95(10) . . .
118(11) . . .
111(11) . . .
118(11) . . .
102(10) . . .
110(10) . . .
110(10) . . .
112(11) . . .
98(10) . . .
118(11) . . .
133(12) . . .
102(10) . . .
105(10) . . .
113(11) . . .
94(10) . . .
131(11) . . .
119(11) . . .
123(11) . . .
114(11) . . .
111(11) . . .
103(10) . . .
111(11) . . .
121(11) . . .
109(10) . . .
102(10) . . .
116(11) . . .
99(10) . . .
105(10) . . .
123(11) . . .
120(11) . . .
112(11) . . .
119(11) . . .
110(10) . . .
112(11) . . .
117(11) . . .
102(10) . . .
117(11) . . .
98(10) . . .
122(11) . . .
109(10) . . .
99(10) . . .
111(11) . . .
115(11) . . .
126(11) . . .
98(10) . . .
103(10) . . .
126(11) . . .
111(11) . . .
104(10) . . .
122(11) . . .
114(11) . . .
116(11) . . .
118(11) . . .
118(11) . . .
125(11) . . .
97(10) . . .
124(11) . . .
106(10) . . .
129(11) . . .
107(10) . . .
110(10) . . .
120(11) . . .
108(10) . . .
96(10) . . .
117(11) . . .
131(11) . . .
137(12) . . .
117(11) . . .
124(11) . . .
101(10) . . .
109(10) . . .
120(11) . . .
116(11) . . .
112(11) . . .
106(10) . . .
104(10) . . .
124(11) . . .
121(11) . . .
108(10) . . .
119(11) . . .
118(11) . . .
108(10) . . .
116(11) . . .
112(11) . . .
119(11) . . .
125(11) . . .
113(11) . . .
132(11) . . .
132(11) . . .
112(11) . . .
116(11) . . .
129(11) . . .
114(11) . . .
130(11) . . .
102(10) . . .
115(11) . . .
124(11) . . .
116(11) . . .
128(11) . . .
122(11) . . .
99(10) . . .
124(11) . . .
115(11) . . .
106(10) . . .
114(11) . . .
106(10) . . .
130(11) . . .
108(10) . . .
127(11) . . .
119(11) . . .
124(11) . . .
118(11) . . .
128(11) . . .
110(10) . . .
123(11) . . .
110(10) . . .
132(11) . . .
114(11) . . .
113(11) . . .
128(11) . . .
137(12) . . .
116(11) . . .
99(10) . . .
127(11) . . .
132(11) . . .
126(11) . . .
129(11) . . .
118(11) . . .
114(11) . . .
102(10) . . .
114(11) . . .
103(10) . . .
96(10) . . .
117(11) . . .
124(11) . . .
129(11) . . .
101(10) . . .
116(11) . . .
128(11) . . .
117(11) . . .
124(11) . . .
132(11) . . .
116(11) . . .
113(11) . . .
96(10) . . .
119(11) . . .
119(11) . . .
125(11) . . .
109(10) . . .
133(12) . . .
126(11) . . .
114(11) . . .
125(11) . . .
105(10) . . .
127(11) . . .
123(11) . . .
111(11) . . .
122(11) . . .
114(11) . . .
135(12) . . .
128(11) . . .
130(11) . . .
124(11) . . .
130(11) . . .
118(11) . . .
114(11) . . .
129(11) . . .
118(11) . . .
115(11) . . .
137(12) . . .
120(11) . . .
139(12) . . .
120(11) . . .
100(10) . . .
117(11) . . .
118(11) . . .
114(11) . . .
129(11) . . .
125(11) . . .
127(11) . . .
113(11) . . .
128(11) . . .
138(12) . . .
127(11) . . .
117(11) . . .
138(12) . . .
125(11) . . .
127(11) . . .
119(11) . . .
137(12) . . .
128(11) . . .
113(11) . . .
148(12) . . .
111(11) . . .
124(11) . . .
114(11) . . .
151(12) . . .
138(12) . . .
138(12) . . .
139(12) . . .
129(11) . . .
125(11) . . .
131(11) . . .
126(11) . . .
117(11) . . .
128(11) . . .
137(12) . . .
114(11) . . .
121(11) . . .
137(12) . . .
140(12) . . .
143(12) . . .
121(11) . . .
132(11) . . .
134(12) . . .
132(11) . . .
131(11) . . .
126(11) . . .
152(12) . . .
127(11) . . .
134(12) . . .
119(11) . . .
149(12) . . .
144(12) . . .
133(12) . . .
140(12) . . .
124(11) . . .
145(12) . . .
128(11) . . .
135(12) . . .
141(12) . . .
149(12) . . .
121(11) . . .
156(12) . . .
150(12) . . .
140(12) . . .
155(12) . . .
146(12) . . .
129(11) . . .
162(13) . . .
148(12) . . .
131(11) . . .
147(12) . . .
146(12) . . .
150(12) . . .
159(13) . . .
153(12) . . .
161(13) . . .
115(11) . . .
157(13) . . .
145(12) . . .
180(13) . . .
167(13) . . .
149(12) . . .
173(13) . . .
158(13) . . .
162(13) . . .
163(13) . . .
154(12) . . .
164(13) . . .
157(13) . . .
165(13) . . .
183(14) . . .
184(14) . . .
166(13) . . .
164(13) . . .
177(13) . . .
182(13) . . .
190(14) . . .
179(13) . . .
178(13) . . .
199(14) . . .
206(14) . . .
222(15) . . .
222(15) . . .
215(15) . . .
238(15) . . .
225(15) . . .
229(15) . . .
225(15) . . .
250(16) . . .
235(15) . . .
251(16) . . .
244(16) . . .
258(16) . . .
291(17) . . .
282(17) . . .
297(17) . . .
319(18) . . .
292(17) . . .
319(18) . . .
366(19) . . .
337(18) . . .
355(19) . . .
386(20) . . .
354(19) . . .
374(19) . . .
401(20) . . .
423(21) . . .
440(21) . . .
436(21) . . .
487(22) . . .
521(23) . . .
487(22) . . .
528(23) . . .
565(24) . . .
574(24) . . .
642(25) . . .
635(25) . . .
671(26) . . .
734(27) . . .
796(28) . . .
793(28) . . .
814(29) . . .
864(29) . . .
954(31) . . .
965(31) . . .
996(32) . . .
1046(32) . . .
1124(34) . . .
1157(34) . . .
1205(35) . . .
1333(37) . . .
1407(38) . . .
1405(37) . . .
1487(39) . . .
1497(39) . . .
1536(39) . . .
1575(40) . . .
1580(40) . . .
1709(41) . . .
1598(40) . . .
1678(41) . . .
1681(41) . . .
1645(41) . . .
1662(41) . . .
1612(40) . . .
1652(41) . . .
1596(40) . . .
1530(39) . . .
1455(38) . . .
1509(39) . . .
1413(38) . . .
1365(37) . . .
1318(36) . . .
1265(36) . . .
1181(34) . . .
1202(35) . . .
1069(33) . . .
1037(32) . . .
984(31) . . .
914(30) . . .
878(30) . . .
773(28) . . .
780(28) . . .
762(28) . . .
725(27) . . .
659(26) . . .
637(25) . . .
642(25) . . .
568(24) . . .
555(24) . . .
532(23) . . .
488(22) . . .
492(22) . . .
478(22) . . .
445(21) . . .
416(20) . . .
424(21) . . .
357(19) . . .
357(19) . . .
403(20) . . .
356(19) . . .
336(18) . . .
351(19) . . .
310(18) . . .
338(18) . . .
320(18) . . .
282(17) . . .
272(16) . . .
293(17) . . .
267(16) . . .
292(17) . . .
245(16) . . .
258(16) . . .
231(15) . . .
227(15) . . .
257(16) . . .
225(15) . . .
230(15) . . .
225(15) . . .
223(15) . . .
235(15) . . .
210(14) . . .
190(14) . . .
211(15) . . .
187(14) . . .
197(14) . . .
189(14) . . .
189(14) . . .
196(14) . . .
203(14) . . .
195(14) . . .
182(13) . . .
180(13) . . .
175(13) . . .
163(13) . . .
165(13) . . .
184(14) . . .
169(13) . . .
160(13) . . .
175(13) . . .
146(12) . . .
156(12) . . .
162(13) . . .
154(12) . . .
170(13) . . .
162(13) . . .
148(12) . . .
142(12) . . .
162(13) . . .
159(13) . . .
154(12) . . .
150(12) . . .
143(12) . . .
157(13) . . .
125(11) . . .
149(12) . . .
144(12) . . .
167(13) . . .
149(12) . . .
145(12) . . .
132(11) . . .
137(12) . . .
158(13) . . .
139(12) . . .
146(12) . . .
159(13) . . .
140(12) . . .
124(11) . . .
133(12) . . .
139(12) . . .
127(11) . . .
143(12) . . .
129(11) . . .
146(12) . . .
137(12) . . .
120(11) . . .
140(12) . . .
138(12) . . .
150(12) . . .
136(12) . . .
132(11) . . .
112(11) . . .
122(11) . . .
144(12) . . .
128(11) . . .
136(12) . . .
144(12) . . .
131(11) . . .
134(12) . . .
116(11) . . .
104(10) . . .
125(11) . . .
127(11) . . .
117(11) . . .
139(12) . . .
119(11) . . .
150(12) . . .
128(11) . . .
115(11) . . .
130(11) . . .
124(11) . . .
139(12) . . .
142(12) . . .
134(12) . . .
127(11) . . .
138(12) . . .
121(11) . . .
128(11) . . .
120(11) . . .
142(12) . . .
130(11) . . .
131(11) . . .
130(11) . . .
149(12) . . .
95(10) . . .
125(11) . . .
131(11) . . .
129(11) . . .
122(11) . . .
136(12) . . .
110(10) . . .
110(10) . . .
132(11) . . .
123(11) . . .
133(12) . . .
120(11) . . .
145(12) . . .
104(10) . . .
133(12) . . .
122(11) . . .
112(11) . . .
113(11) . . .
139(12) . . .
118(11) . . .
120(11) . . .
113(11) . . .
118(11) . . .
128(11) . . .
126(11) . . .
121(11) . . .
115(11) . . .
117(11) . . .
92(10) . . .
127(11) . . .
112(11) . . .
119(11) . . .
131(11) . . .
131(11) . . .
118(11) . . .
110(10) . . .
127(11) . . .
108(10) . . .
115(11) . . .
116(11) . . .
126(11) . . .
122(11) . . .
129(11) . . .
118(11) . . .
119(11) . . .
105(10) . . .
105(10) . . .
125(11) . . .
105(10) . . .
120(11) . . .
111(11) . . .
116(11) . . .
129(11) . . .
128(11) . . .
119(11) . . .
110(10) . . .
122(11) . . .
118(11) . . .
119(11) . . .
113(11) . . .
115(11) . . .
124(11) . . .
119(11) . . .
121(11) . . .
127(11) . . .
130(11) . . .
120(11) . . .
125(11) . . .
123(11) . . .
121(11) . . .
119(11) . . .
131(11) . . .
113(11) . . .
147(12) . . .
125(11) . . .
112(11) . . .
116(11) . . .
119(11) . . .
113(11) . . .
128(11) . . .
131(11) . . .
120(11) . . .
110(10) . . .
118(11) . . .
134(12) . . .
101(10) . . .
127(11) . . .
108(10) . . .
107(10) . . .
133(12) . . .
115(11) . . .
127(11) . . .
122(11) . . .
123(11) . . .
104(10) . . .
112(11) . . .
103(10) . . .
102(10) . . .
121(11) . . .
97(10) . . .
121(11) . . .
101(10) . . .
122(11) . . .
121(11) . . .
108(10) . . .
111(11) . . .
122(11) . . .
124(11) . . .
112(11) . . .
106(10) . . .
128(11) . . .
122(11) . . .
115(11) . . .
111(11) . . .
126(11) . . .
103(10) . . .
126(11) . . .
111(11) . . .
97(10) . . .
113(11) . . .
106(10) . . .
113(11) . . .
122(11) . . .
126(11) . . .
116(11) . . .
116(11) . . .
104(10) . . .
133(12) . . .
115(11) . . .
106(10) . . .
122(11) . . .
109(10) . . .
117(11) . . .
105(10) . . .
113(11) . . .
112(11) . . .
117(11) . . .
134(12) . . .
121(11) . . .
113(11) . . .
116(11) . . .
129(11) . . .
121(11) . . .
116(11) . . .
119(11) . . .
121(11) . . .
108(10) . . .
102(10) . . .
120(11) . . .
123(11) . . .
119(11) . . .
121(11) . . .
104(10) . . .
108(10) . . .
106(10) . . .
117(11) . . .
117(11) . . .
116(11) . . .
116(11) . . .
126(11) . . .
121(11) . . .
110(10) . . .
133(12) . . .
112(11) . . .
123(11) . . .
105(10) . . .
107(10) . . .
123(11) . . .
131(11) . . .
123(11) . . .
112(11) . . .
120(11) . . .
120(11) . . .
121(11) . . .
113(11) . . .
115(11) . . .
120(11) . . .
125(11) . . .
127(11) . . .
125(11) . . .
145(12) . . .
107(10) . . .
125(11) . . .
99(10) . . .
115(11) . . .
99(10) . . .
117(11) . . .
112(11) . . .
124(11) . . .
105(10) . . .
112(11) . . .
106(10) . . .
112(11) . . .
126(11) . . .
101(10) . . .
116(11) . . .
121(11) . . .
113(11) . . .
96(10) . . .
129(11) . . .
123(11) . . .
116(11) . . .
117(11) . . .
100(10) . . .
125(11) . . .
96(10) . . .
105(10) . . .
115(11) . . .
117(11) . . .
108(10) . . .
119(11) . . .
129(11) . . .
122(11) . . .
113(11) . . .
115(11) . . .
111(11) . . .
109(10) . . .
120(11) . . .
114(11) . . .
102(10) . . .
109(10) . . .
112(11) . . .
109(10) . . .
112(11) . . .
115(11) . . .
120(11) . . .
130(11) . . .
122(11) . . .
116(11) . . .
107(10) . . .
109(10) . . .
114(11) . . .
109(10) . . .
124(11) . . .
130(11) . . .
127(11) . . .
118(11) . . .
132(11) . . .
111(11) . . .
116(11) . . .
115(11) . . .
120(11) . . .
113(11) . . .
101(10) . . .
119(11) . . .
117(11) . . .
108(10) . . .
129(11) . . .
117(11) . . .
106(10) . . .
108(10) . . .
117(11) . . .
105(10) . . .
103(10) . . .
116(11) . . .
107(10) . . .
120(11) . . .
96(10) . . .
102(10) . . .
102(10) . . .
105(10) . . .
122(11) . . .
118(11) . . .
120(11) . . .
105(10) . . .
106(10) . . .
125(11) . . .
133(12) . . .
117(11) . . .
114(11) . . .
110(10) . . .
121(11) . . .
119(11) . . .
119(11) . . .
115(11) . . .
111(11) . . .
124(11) . . .
115(11) . . .
97(10) . . .
104(10) . . .
126(11) . . .
119(11) . . .
113(11) . . .
120(11) . . .
109(10) . . .
112(11) . . .
102(10) . . .
124(11) . . .
117(11) . . .
116(11) . . .
116(11) . . .
114(11) . . .
110(10) . . .
123(11) . . .
105(10) . . .
133(12) . . .
117(11) . . .
113(11) . . .
120(11) . . .
121(11) . . .
103(10) . . .
127(11) . . .
113(11) . . .
135(12) . . .
121(11) . . .
124(11) . . .
124(11) . . .
114(11) . . .
117(11) . . .
109(10) . . .
118(11) . . .
100(10) . . .
103(10) . . .
118(11) . . .
109(10) . . .
103(10) . . .
119(11) . . .
106(10) . . .
117(11) . . .
109(10) . . .
118(11) . . .
105(10) . . .
95(10) . . .
110(10) . . .
122(11) . . .
106(10) . . .
128(11) . . .
105(10) . . .
111(11) . . .
105(10) . . .
123(11) . . .
113(11) . . .
114(11) . . .
135(12) . . .
109(10) . . .
110(10) . . .
121(11) . . .
104(10) . . .
104(10) . . .
138(12) . . .
126(11) . . .
116(11) . . .
122(11) . . .
115(11) . . .
119(11) . . .
122(11) . . .
126(11) . . .
112(11) . . .
116(11) . . .
114(11) . . .
105(10) . . .
106(10) . . .
118(11) . . .
112(11) . . .
107(10) . . .
122(11) . . .
110(10) . . .
124(11) . . .
106(10) . . .
124(11) . . .
126(11) . . .
102(10) . . .
133(12) . . .
108(10) . . .
106(10) . . .
113(11) . . .
126(11) . . .
103(10) . . .
102(10) . . .
123(11) . . .
103(10) . . .
108(10) . . .
130(11) . . .
119(11) . . .
107(10) . . .
113(11) . . .
101(10) . . .
114(11) . . .
111(11) . . .
103(10) . . .
110(10) . . .
126(11) . . .
106(10) . . .
124(11) . . .
111(11) . . .
115(11) . . .
121(11) . . .
117(11) . . .
131(11) . . .
136(12) . . .
127(11) . . .
138(12) . . .
121(11) . . .
88(9) . . .
97(10) . . .
111(11) . . .
103(10) . . .
105(10) . . .
112(11) . . .
122(11) . . .
90(9) . . .
108(10) . . .
107(10) . . .
124(11) . . .
122(11) . . .
119(11) . . .
113(11) . . .
123(11) . . .
112(11) . . .
116(11) . . .
111(11) . . .
97(10) . . .
99(10) . . .
123(11) . . .
112(11) . . .
123(11) . . .
118(11) . . .
131(11) . . .
114(11) . . .
126(11) . . .
112(11) . . .
117(11) . . .
127(11) . . .
111(11) . . .
123(11) . . .
125(11) . . .
123(11) . . .
110(10) . . .
127(11) . . .
104(10) . . .
97(10) . . .
107(10) . . .
109(10) . . .
95(10) . . .
106(10) . . .
118(11) . . .
128(11) . . .
102(10) . . .
122(11) . . .
115(11) . . .
132(11) . . .
124(11) . . .
117(11) . . .
118(11) . . .
109(10) . . .
112(11) . . .
127(11) . . .
115(11) . . .
130(11) . . .
129(11) . . .
116(11) . . .
116(11) . . .
134(12) . . .
115(11) . . .
111(11) . . .
114(11) . . .
103(10) . . .
113(11) . . .
101(10) . . .
119(11) . . .
114(11) . . .
118(11) . . .
135(12) . . .
121(11) . . .
129(11) . . .
127(11) . . .
126(11) . . .
129(11) . . .
117(11) . . .
111(11) . . .
137(12) . . .
116(11) . . .
112(11) . . .
113(11) . . .
119(11) . . .
130(11) . . .
125(11) . . .
123(11) . . .
116(11) . . .
132(11) . . .
130(11) . . .
126(11) . . .
106(10) . . .
115(11) . . .
126(11) . . .
105(10) . . .
113(11) . . .
118(11) . . .
127(11) . . .
130(11) . . .
113(11) . . .
134(12) . . .
125(11) . . .
117(11) . . .
113(11) . . .
102(10) . . .
119(11) . . .
139(12) . . .
135(12) . . .
130(11) . . .
98(10) . . .
116(11) . . .
148(12) . . .
132(11) . . .
120(11) . . .
136(12) . . .
125(11) . . .
113(11) . . .
116(11) . . .
133(12) . . .
128(11) . . .
131(11) . . .
122(11) . . .
115(11) . . .
121(11) . . .
138(12) . . .
125(11) . . .
138(12) . . .
128(11) . . .
124(11) . . .
117(11) . . .
107(10) . . .
130(11) . . .
126(11) . . .
112(11) . . .
133(12) . . .
111(11) . . .
121(11) . . .
134(12) . . .
120(11) . . .
145(12) . . .
139(12) . . .
132(11) . . .
129(11) . . .
129(11) . . .
127(11) . . .
120(11) . . .
136(12) . . .
114(11) . . .
119(11) . . .
136(12) . . .
119(11) . . .
117(11) . . .
136(12) . . .
114(11) . . .
118(11) . . .
112(11) . . .
126(11) . . .
119(11) . . .
133(12) . . .
129(11) . . .
123(11) . . .
143(12) . . .
118(11) . . .
116(11) . . .
122(11) . . .
130(11) . . .
137(12) . . .
117(11) . . .
131(11) . . .
122(11) . . .
124(11) . . .
119(11) . . .
134(12) . . .
107(10) . . .
100(10) . . .
134(12) . . .
125(11) . . .
125(11) . . .
138(12) . . .
128(11) . . .
113(11) . . .
118(11) . . .
125(11) . . .
92(10) . . .
122(11) . . .
126(11) . . .
114(11) . . .
112(11) . . .
136(12) . . .
112(11) . . .
127(11) . . .
115(11) . . .
120(11) . . .
136(12) . . .
123(11) . . .
133(12) . . .
122(11) . . .
121(11) . . .
106(10) . . .
113(11) . . .
111(11) . . .
116(11) . . .
130(11) . . .
110(10) . . .
126(11) . . .
118(11) . . .
121(11) . . .
129(11) . . .
118(11) . . .
105(10) . . .
113(11) . . .
116(11) . . .
112(11) . . .
125(11) . . .
128(11) . . .
122(11) . . .
128(11) . . .
139(12) . . .
107(10) . . .
128(11) . . .
123(11) . . .
129(11) . . .
117(11) . . .
110(10) . . .
112(11) . . .
126(11) . . .
116(11) . . .
115(11) . . .
109(10) . . .
121(11) . . .
120(11) . . .
116(11) . . .
130(11) . . .
112(11) . . .
127(11) . . .
127(11) . . .
132(11) . . .
116(11) . . .
117(11) . . .
109(10) . . .
108(10) . . .
100(10) . . .
145(12) . . .
125(11) . . .
124(11) . . .
111(11) . . .
128(11) . . .
118(11) . . .
132(11) . . .
110(10) . . .
113(11) . . .
101(10) . . .
126(11) . . .
106(10) . . .
126(11) . . .
111(11) . . .
120(11) . . .
146(12) . . .
120(11) . . .
130(11) . . .
120(11) . . .
123(11) . . .
114(11) . . .
132(11) . . .
107(10) . . .
137(12) . . .
118(11) . . .
110(10) . . .
133(12) . . .
124(11) . . .
115(11) . . .
116(11) . . .
103(10) . . .
122(11) . . .
119(11) . . .
127(11) . . .
137(12) . . .
124(11) . . .
124(11) . . .
122(11) . . .
125(11) . . .
111(11) . . .
126(11) . . .
106(10) . . .
104(10) . . .
128(11) . . .
121(11) . . .
112(11) . . .
135(12) . . .
119(11) . . .
108(10) . . .
101(10) . . .
122(11) . . .
103(10) . . .
115(11) . . .
125(11) . . .
125(11) . . .
122(11) . . .
128(11) . . .
129(11) . . .
123(11) . . .
140(12) . . .
119(11) . . .
105(10) . . .
113(11) . . .
121(11) . . .
111(11) . . .
114(11) . . .
106(10) . . .
110(10) . . .
140(12) . . .
123(11) . . .
128(11) . . .
120(11) . . .
131(11) . . .
120(11) . . .
102(10) . . .
111(11) . . .
121(11) . . .
135(12) . . .
125(11) . . .
122(11) . . .
115(11) . . .
123(11) . . .
105(10) . . .
114(11) . . .
135(12) . . .
118(11) . . .
126(11) . . .
132(11) . . .
129(11) . . .
129(11) . . .
116(11) . . .
126(11) . . .
122(11) . . .
129(11) . . .
125(11) . . .
116(11) . . .
116(11) . . .
133(12) . . .
112(11) . . .
136(12) . . .
106(10) . . .
110(10) . . .
134(12) . . .
113(11) . . .
137(12) . . .
120(11) . . .
107(10) . . .
109(10) . . .
130(11) . . .
118(11) . . .
119(11) . . .
116(11) . . .
133(12) . . .
134(12) . . .
128(11) . . .
140(12) . . .
126(11) . . .
126(11) . . .
125(11) . . .
148(12) . . .
128(11) . . .
131(11) . . .
134(12) . . .
121(11) . . .
122(11) . . .
123(11) . . .
120(11) . . .
132(11) . . .
116(11) . . .
129(11) . . .
125(11) . . .
112(11) . . .
142(12) . . .
111(11) . . .
117(11) . . .
123(11) . . .
142(12) . . .
130(11) . . .
135(12) . . .
125(11) . . .
127(11) . . .
119(11) . . .
136(12) . . .
124(11) . . .
128(11) . . .
141(12) . . .
148(12) . . .
130(11) . . .
137(12) . . .
134(12) . . .
155(12) . . .
130(11) . . .
138(12) . . .
145(12) . . .
125(11) . . .
163(13) . . .
144(12) . . .
138(12) . . .
134(12) . . .
124(11) . . .
143(12) . . .
161(13) . . .
140(12) . . .
148(12) . . .
158(13) . . .
140(12) . . .
145(12) . . .
159(13) . . .
139(12) . . .
125(11) . . .
148(12) . . .
137(12) . . .
148(12) . . .
156(12) . . .
147(12) . . .
151(12) . . .
166(13) . . .
159(13) . . .
163(13) . . .
160(13) . . .
166(13) . . .
172(13) . . .
176(13) . . .
168(13) . . .
168(13) . . .
140(12) . . .
168(13) . . .
169(13) . . .
171(13) . . .
157(13) . . .
161(13) . . .
175(13) . . .
174(13) . . .
169(13) . . .
185(14) . . .
195(14) . . .
167(13) . . .
190(14) . . .
199(14) . . .
187(14) . . .
184(14) . . .
192(14) . . .
186(14) . . .
187(14) . . .
181(13) . . .
201(14) . . .
210(14) . . .
188(14) . . .
179(13) . . .
187(14) . . .
203(14) . . .
187(14) . . .
209(14) . . .
208(14) . . .
217(15) . . .
246(16) . . .
234(15) . . .
239(15) . . .
233(15) . . .
224(15) . . .
230(15) . . .
266(16) . . .
242(16) . . .
257(16) . . .
271(16) . . .
258(16) . . .
265(16) . . .
284(17) . . .
271(16) . . .
284(17) . . .
287(17) . . .
302(17) . . .
311(18) . . .
327(18) . . .
342(18) . . .
344(19) . . .
336(18) . . .
350(19) . . .
346(19) . . .
381(20) . . .
374(19) . . .
361(19) . . .
364(19) . . .
382(20) . . .
415(20) . . .
397(20) . . .
416(20) . . .
417(20) . . .
448(21) . . .
460(21) . . .
492(22) . . .
501(22) . . .
516(23) . . .
543(23) . . .
526(23) . . .
564(24) . . .
615(25) . . .
617(25) . . .
657(26) . . .
645(25) . . .
726(27) . . .
712(27) . . .
780(28) . . .
832(29) . . .
859(29) . . .
894(30) . . .
940(31) . . .
989(31) . . .
992(31) . . .
1105(33) . . .
1139(34) . . .
1215(35) . . .
1232(35) . . .
1354(37) . . .
1439(38) . . .
1548(39) . . .
1579(40) . . .
1642(41) . . .
1769(42) . . .
1825(43) . . .
1949(44) . . .
1932(44) . . .
2058(45) . . .
2093(46) . . .
2171(47) . . .
2291(48) . . .
2334(48) . . .
2356(49) . . .
2537(50) . . .
2613(51) . . .
2701(52) . . .
2616(51) . . .
2578(51) . . .
2649(51) . . .
2618(51) . . .
2666(52) . . .
2607(51) . . .
2592(51) . . .
2541(50) . . .
2482(50) . . .
2453(50) . . .
2441(49) . . .
2360(49) . . .
2217(47) . . .
2235(47) . . .
2086(46) . . .
1990(45) . . .
2010(45) . . .
1835(43) . . .
1758(42) . . .
1693(41) . . .
1643(41) . . .
1559(39) . . .
1456(38) . . .
1406(37) . . .
1361(37) . . .
1346(37) . . .
1252(35) . . .
1181(34) . . .
1086(33) . . .
1063(33) . . .
1051(32) . . .
1034(32) . . .
956(31) . . .
842(29) . . .
872(30) . . .
805(28) . . .
801(28) . . .
681(26) . . .
747(27) . . .
667(26) . . .
637(25) . . .
638(25) . . .
580(24) . . .
575(24) . . .
565(24) . . .
525(23) . . .
500(22) . . .
505(22) . . .
494(22) . . .
470(22) . . .
452(21) . . .
433(21) . . .
395(20) . . .
424(21) . . .
385(20) . . .
380(19) . . .
364(19) . . .
371(19) . . .
349(19) . . .
368(19) . . .
308(18) . . .
320(18) . . .
329(18) . . .
321(18) . . .
298(17) . . .
276(17) . . .
248(16) . . .
271(16) . . .
294(17) . . .
287(17) . . .
226(15) . . .
235(15) . . .
258(16) . . .
250(16) . . .
253(16) . . .
251(16) . . .
224(15) . . .
232(15) . . .
216(15) . . .
236(15) . . .
216(15) . . .
202(14) . . .
219(15) . . .
198(14) . . .
208(14) . . .
215(15) . . .
212(15) . . .
191(14) . . .
214(15) . . .
191(14) . . .
197(14) . . .
196(14) . . .
199(14) . . .
208(14) . . .
191(14) . . .
193(14) . . .
192(14) . . .
181(13) . . .
185(14) . . .
180(13) . . .
193(14) . . .
189(14) . . .
187(14) . . .
183(14) . . .
170(13) . . .
183(14) . . .
178(13) . . .
154(12) . . .
172(13) . . .
171(13) . . .
171(13) . . .
139(12) . . .
156(12) . . .
161(13) . . .
165(13) . . .
155(12) . . .
154(12) . . .
154(12) . . .
163(13) . . .
146(12) . . .
162(13) . . .
138(12) . . .
163(13) . . .
170(13) . . .
149(12) . . .
146(12) . . .
138(12) . . .
145(12) . . .
150(12) . . .
153(12) . . .
143(12) . . .
146(12) . . .
156(12) . . .
131(11) . . .
152(12) . . .
137(12) . . .
139(12) . . .
137(12) . . .
137(12) . . .
142(12) . . .
160(13) . . .
130(11) . . .
136(12) . . .
141(12) . . .
138(12) . . .
145(12) . . .
140(12) . . .
135(12) . . .
153(12) . . .
131(11) . . .
138(12) . . .
137(12) . . .
152(12) . . .
144(12) . . .
151(12) . . .
131(11) . . .
146(12) . . .
144(12) . . .
121(11) . . .
143(12) . . .
119(11) . . .
132(11) . . .
131(11) . . .
133(12) . . .
136(12) . . .
142(12) . . .
136(12) . . .
132(11) . . .
119(11) . . .
109(10) . . .
126(11) . . .
130(11) . . .
141(12) . . .
107(10) . . .
114(11) . . .
135(12) . . .
135(12) . . .
139(12) . . .
135(12) . . .
109(10) . . .
119(11) . . .
136(12) . . .
124(11) . . .
141(12) . . .
137(12) . . .
137(12) . . .
128(11) . . .
140(12) . . .
144(12) . . .
134(12) . . .
131(11) . . .
129(11) . . .
132(11) . . .
120(11) . . .
111(11) . . .
141(12) . . .
122(11) . . .
120(11) . . .
124(11) . . .
134(12) . . .
131(11) . . .
132(11) . . .
118(11) . . .
122(11) . . .
110(10) . . .
131(11) . . .
144(12) . . .
133(12) . . .
123(11) . . .
144(12) . . .
124(11) . . .
138(12) . . .
127(11) . . .
120(11) . . .
131(11) . . .
122(11) . . .
130(11) . . .
132(11) . . .
131(11) . . .
122(11) . . .
122(11) . . .
118(11) . . .
114(11) . . .
138(12) . . .
110(10) . . .
124(11) . . .
114(11) . . .
135(12) . . .
134(12) . . .
119(11) . . .
129(11) . . .
121(11) . . .
119(11) . . .
140(12) . . .
134(12) . . .
131(11) . . .
135(12) . . .
121(11) . . .
120(11) . . .
113(11) . . .
131(11) . . .
129(11) . . .
123(11) . . .
117(11) . . .
116(11) . . .
136(12) . . .
121(11) . . .
120(11) . . .
116(11) . . .
127(11) . . .
133(12) . . .
117(11) . . .
142(12) . . .
125(11) . . .
128(11) . . .
123(11) . . .
136(12) . . .
133(12) . . .
119(11) . . .
125(11) . . .
115(11) . . .
117(11) . . .
131(11) . . .
136(12) . . .
135(12) . . .
124(11) . . .
141(12) . . .
151(12) . . .
133(12) . . .
127(11) . . .
131(11) . . .
124(11) . . .
128(11) . . .
149(12) . . .
129(11) . . .
135(12) . . .
126(11) . . .
141(12) . . .
127(11) . . .
139(12) . . .
153(12) . . .
148(12) . . .
150(12) . . .
144(12) . . .
134(12) . . .
126(11) . . .
138(12) . . .
138(12) . . .
133(12) . . .
142(12) . . .
146(12) . . .
136(12) . . .
166(13) . . .
151(12) . . .
135(12) . . .
163(13) . . .
145(12) . . .
146(12) . . .
149(12) . . .
150(12) . . .
168(13) . . .
155(12) . . .
159(13) . . .
174(13) . . .
146(12) . . .
185(14) . . .
151(12) . . .
156(12) . . .
172(13) . . .
194(14) . . .
184(14) . . .
152(12) . . .
146(12) . . .
192(14) . . .
198(14) . . .
181(13) . . .
170(13) . . .
178(13) . . .
175(13) . . .
183(14) . . .
190(14) . . .
190(14) . . .
186(14) . . .
201(14) . . .
217(15) . . .
208(14) . . .
197(14) . . .
203(14) . . .
204(14) . . .
233(15) . . .
236(15) . . .
241(16) . . .
221(15) . . .
243(16) . . .
233(15) . . .
266(16) . . .
284(17) . . .
283(17) . . .
277(17) . . .
317(18) . . .
311(18) . . .
302(17) . . .
315(18) . . .
325(18) . . .
334(18) . . .
338(18) . . .
354(19) . . .
370(19) . . .
398(20) . . .
384(20) . . .
402(20) . . .
411(20) . . .
459(21) . . .
485(22) . . .
492(22) . . .
488(22) . . .
565(24) . . .
533(23) . . .
595(24) . . .
592(24) . . .
625(25) . . .
603(25) . . .
709(27) . . .
694(26) . . .
698(26) . . .
746(27) . . .
754(27) . . .
756(27) . . .
800(28) . . .
779(28) . . .
814(29) . . .
836(29) . . .
807(28) . . .
871(30) . . .
878(30) . . .
890(30) . . .
839(29) . . .
853(29) . . .
880(30) . . .
860(29) . . .
794(28) . . .
849(29) . . .
803(28) . . .
807(28) . . .
837(29) . . .
814(29) . . .
785(28) . . .
725(27) . . .
725(27) . . .
698(26) . . .
634(25) . . .
639(25) . . .
630(25) . . .
562(24) . . .
509(23) . . .
529(23) . . .
461(21) . . .
467(22) . . .
471(22) . . .
479(22) . . .
446(21) . . .
385(20) . . .
405(20) . . .
387(20) . . .
380(19) . . .
359(19) . . .
341(18) . . .
324(18) . . .
340(18) . . .
332(18) . . .
308(18) . . .
304(17) . . .
317(18) . . .
258(16) . . .
278(17) . . .
301(17) . . .
273(17) . . .
257(16) . . .
245(16) . . .
227(15) . . .
233(15) . . .
209(14) . . .
213(15) . . .
224(15) . . .
198(14) . . .
219(15) . . .
164(13) . . .
192(14) . . .
203(14) . . .
197(14) . . .
179(13) . . .
182(13) . . .
199(14) . . .
191(14) . . .
179(13) . . .
167(13) . . .
168(13) . . .
163(13) . . .
167(13) . . .
168(13) . . .
166(13) . . .
163(13) . . .
154(12) . . .
169(13) . . .
156(12) . . .
168(13) . . .
154(12) . . .
163(13) . . .
153(12) . . .
156(12) . . .
151(12) . . .
152(12) . . .
138(12) . . .
128(11) . . .
125(11) . . .
143(12) . . .
154(12) . . .
161(13) . . .
144(12) . . .
137(12) . . .
138(12) . . .
146(12) . . .
145(12) . . .
150(12) . . .
120(11) . . .
140(12) . . .
129(11) . . .
139(12) . . .
132(11) . . .
123(11) . . .
131(11) . . .
129(11) . . .
123(11) . . .
144(12) . . .
128(11) . . .
138(12) . . .
143(12) . . .
149(12) . . .
140(12) . . .
126(11) . . .
139(12) . . .
135(12) . . .
138(12) . . .
131(11) . . .
113(11) . . .
136(12) . . .
133(12) . . .
106(10) . . .
125(11) . . .
130(11) . . .
122(11) . . .
129(11) . . .
138(12) . . .
127(11) . . .
113(11) . . .
121(11) . . .
115(11) . . .
124(11) . . .
116(11) . . .
124(11) . . .
120(11) . . .
122(11) . . .
111(11) . . .
136(12) . . .
123(11) . . .
119(11) . . .
118(11) . . .
123(11) . . .
123(11) . . .
136(12) . . .
119(11) . . .
126(11) . . .
114(11) . . .
121(11) . . .
119(11) . . .
126(11) . . .
122(11) . . .
121(11) . . .
125(11) . . .
113(11) . . .
129(11) . . .
112(11) . . .
116(11) . . .
115(11) . . .
129(11) . . .
116(11) . . .
134(12) . . .
114(11) . . .
121(11) . . .
110(10) . . .
114(11) . . .
105(10) . . .
123(11) . . .
119(11) . . .
122(11) . . .
117(11) . . .
125(11) . . .
126(11) . . .
121(11) . . .
126(11) . . .
104(10) . . .
107(10) . . .
120(11) . . .
119(11) . . .
116(11) . . .
136(12) . . .
129(11) . . .
137(12) . . .
108(10) . . .
105(10) . . .
125(11) . . .
112(11) . . .
117(11) . . .
120(11) . . .
119(11) . . .
125(11) . . .
120(11) . . .
114(11) . . .
107(10) . . .
111(11) . . .
139(12) . . .
127(11) . . .
123(11) . . .
133(12) . . .
121(11) . . .
95(10) . . .
115(11) . . .
115(11) . . .
140(12) . . .
122(11) . . .
116(11) . . .
124(11) . . .
117(11) . . .
119(11) . . .
120(11) . . .
107(10) . . .
122(11) . . .
96(10) . . .
129(11) . . .
110(10) . . .
115(11) . . .
95(10) . . .
121(11) . . .
120(11) . . .
118(11) . . .
126(11) . . .
110(10) . . .
120(11) . . .
103(10) . . .
134(12) . . .
114(11) . . .
101(10) . . .
125(11) . . .
104(10) . . .
104(10) . . .
125(11) . . .
113(11) . . .
116(11) . . .
112(11) . . .
117(11) . . .
132(11) . . .
118(11) . . .
109(10) . . .
105(10) . . .
116(11) . . .
99(10) . . .
122(11) . . .
124(11) . . .
105(10) . . .
119(11) . . .
120(11) . . .
118(11) . . .
109(10) . . .
119(11) . . .
115(11) . . .
110(10) . . .
110(10) . . .
115(11) . . .
132(11) . . .
103(10) . . .
132(11) . . .
117(11) . . .
119(11) . . .
135(12) . . .
125(11) . . .
112(11) . . .
131(11) . . .
107(10) . . .
115(11) . . .
128(11) . . .
112(11) . . .
120(11) . . .
112(11) . . .
126(11) . . .
120(11) . . .
98(10) . . .
129(11) . . .
98(10) . . .
114(11) . . .
118(11) . . .
121(11) . . .
109(10) . . .
115(11) . . .
112(11) . . .
110(10) . . .
124(11) . . .
98(10) . . .
107(10) . . .
114(11) . . .
123(11) . . .
111(11) . . .
110(10) . . .
114(11) . . .
119(11) . . .
105(10) . . .
99(10) . . .
120(11) . . .
113(11) . . .
116(11) . . .
110(10) . . .
112(11) . . .
106(10) . . .
119(11) . . .
112(11) . . .
108(10) . . .
120(11) . . .
116(11) . . .
117(11) . . .
130(11) . . .
106(10) . . .
105(10) . . .
124(11) . . .
109(10) . . .
113(11) . . .
110(10) . . .
112(11) . . .
101(10) . . .
118(11) . . .
122(11) . . .
106(10) . . .
106(10) . . .
122(11) . . .
127(11) . . .
135(12) . . .
120(11) . . .
97(10) . . .
126(11) . . .
128(11) . . .
113(11) . . .
109(10) . . .
108(10) . . .
121(11) . . .
108(10) . . .
115(11) . . .
122(11) . . .
119(11) . . .
109(10) . . .
125(11) . . .
106(10) . . .
103(10) . . .
101(10) . . .
121(11) . . .
113(11) . . .
113(11) . . .
123(11) . . .
113(11) . . .
106(10) . . .
110(10) . . .
117(11) . . .
132(11) . . .
115(11) . . .
131(11) . . .
127(11) . . .
126(11) . . .
98(10) . . .
99(10) . . .
113(11) . . .
123(11) . . .
115(11) . . .
103(10) . . .
106(10) . . .
110(10) . . .
102(10) . . .
121(11) . . .
126(11) . . .
112(11) . . .
114(11) . . .
117(11) . . .
111(11) . . .
110(10) . . .
116(11) . . .
112(11) . . .
106(10) . . .
102(10) . . .
111(11) . . .
118(11) . . .
113(11) . . .
107(10) . . .
115(11) . . .
124(11) . . .
123(11) . . .
125(11) . . .
111(11) . . .
109(10) . . .
113(11) . . .
113(11) . . .
107(10) . . .
115(11) . . .
96(10) . . .
104(10) . . .
121(11) . . .
112(11) . . .
132(11) . . .
124(11) . . .
106(10) . . .
114(11) . . .
113(11) . . .
112(11) . . .
119(11) . . .
105(10) . . .
95(10) . . .
119(11) . . .
118(11) . . .
113(11) . . .
118(11) . . .
113(11) . . .
113(11) . . .
114(11) . . .
118(11) . . .
116(11) . . .
118(11) . . .
132(11) . . .
114(11) . . .
125(11) . . .
106(10) . . .
104(10) . . .
110(10) . . .
119(11) . . .
101(10) . . .
119(11) . . .
110(10) . . .
102(10) . . .
114(11) . . .
109(10) . . .
126(11) . . .
124(11) . . .
114(11) . . .
111(11) . . .
113(11) . . .
120(11) . . .
122(11) . . .
112(11) . . .
107(10) . . .
113(11) . . .
115(11) . . .
113(11) . . .
124(11) . . .
103(10) . . .
106(10) . . .
113(11) . . .
128(11) . . .
101(10) . . .
95(10) . . .
103(10) . . .
102(10) . . .
127(11) . . .
101(10) . . .
111(11) . . .
106(10) . . .
108(10) . . .
94(10) . . .
108(10) . . .
114(11) . . .
104(10) . . .
97(10) . . .
109(10) . . .
119(11) . . .
98(10) . . .
115(11) . . .
109(10) . . .
106(10) . . .
88(9) . . .
112(11) . . .
123(11) . . .
111(11) . . .
108(10) . . .
115(11) . . .
111(11) . . .
112(11) . . .
112(11) . . .
112(11) . . .
102(10) . . .
122(11) . . .
112(11) . . .
106(10) . . .
133(12) . . .
107(10) . . .
130(11) . . .
114(11) . . .
105(10) . . .
111(11) . . .
103(10) . . .
120(11) . . .
106(10) . . .
95(10) . . .
141(12) . . .
95(10) . . .
127(11) . . .
109(10) . . .
102(10) . . .
105(10) . . .
100(10) . . .
120(11) . . .
119(11) . . .
116(11) . . .
111(11) . . .
130(11) . . .
120(11) . . .
111(11) . . .
114(11) . . .
112(11) . . .
109(10) . . .
89(9) . . .
101(10) . . .
103(10) . . .
95(10) . . .
113(11) . . .
111(11) . . .
127(11) . . .
114(11) . . .
121(11) . . .
103(10) . . .
110(10) . . .
111(11) . . .
121(11) . . .
114(11) . . .
109(10) . . .
110(10) . . .
101(10) . . .
121(11) . . .
123(11) . . .
107(10) . . .
109(10) . . .
107(10) . . .
106(10) . . .
105(10) . . .
121(11) . . .
112(11) . . .
104(10) . . .
112(11) . . .
108(10) . . .
104(10) . . .
121(11) . . .
97(10) . . .
115(11) . . .
88(9) . . .
110(10) . . .
121(11) . . .
111(11) . . .
108(10) . . .
100(10) . . .
96(10) . . .
110(10) . . .
114(11) . . .
102(10) . . .
110(10) . . .
118(11) . . .
112(11) . . .
110(10) . . .
116(11) . . .
101(10) . . .
93(10) . . .
106(10) . . .
107(10) . . .
87(9) . . .
94(10) . . .
98(10) . . .
124(11) . . .
119(11) . . .
110(10) . . .
115(11) . . .
106(10) . . .
91(10) . . .
123(11) . . .
122(11) . . .
115(11) . . .
116(11) . . .
108(10) . . .
86(9) . . .
114(11) . . .
100(10) . . .
111(11) . . .
122(11) . . .
123(11) . . .
100(10) . . .
106(10) . . .
102(10) . . .
110(10) . . .
109(10) . . .
134(12) . . .
106(10) . . .
118(11) . . .
111(11) . . .
93(10) . . .
108(10) . . .
113(11) . . .
114(11) . . .
109(10) . . .
114(11) . . .
117(11) . . .
126(11) . . .
121(11) . . .
124(11) . . .
109(10) . . .
129(11) . . .
117(11) . . .
113(11) . . .
103(10) . . .
121(11) . . .
101(10) . . .
121(11) . . .
114(11) . . .
108(10) . . .
117(11) . . .
115(11) . . .
116(11) . . .
119(11) . . .
112(11) . . .
115(11) . . .
115(11) . . .
105(10) . . .
95(10) . . .
111(11) . . .
108(10) . . .
89(9) . . .
114(11) . . .
115(11) . . .
92(10) . . .
103(10) . . .
131(11) . . .
130(11) . . .
112(11) . . .
115(11) . . .
118(11) . . .
112(11) . . .
99(10) . . .
131(11) . . .
109(10) . . .
111(11) . . .
103(10) . . .
117(11) . . .
126(11) . . .
106(10) . . .
123(11) . . .
122(11) . . .
95(10) . . .
118(11) . . .
133(12) . . .
107(10) . . .
127(11) . . .
121(11) . . .
111(11) . . .
122(11) . . .
124(11) . . .
129(11) . . .
107(10) . . .
127(11) . . .
116(11) . . .
106(10) . . .
92(10) . . .
111(11) . . .
128(11) . . .
124(11) . . .
109(10) . . .
119(11) . . .
122(11) . . .
124(11) . . .
106(10) . . .
113(11) . . .
121(11) . . .
110(10) . . .
102(10) . . .
107(10) . . .
112(11) . . .
112(11) . . .
111(11) . . .
108(10) . . .
113(11) . . .
128(11) . . .
117(11) . . .
115(11) . . .
103(10) . . .
116(11) . . .
110(10) . . .
117(11) . . .
111(11) . . .
120(11) . . .
123(11) . . .
135(12) . . .
112(11) . . .
114(11) . . .
118(11) . . .
114(11) . . .
116(11) . . .
104(10) . . .
121(11) . . .
105(10) . . .
110(10) . . .
121(11) . . .
112(11) . . .
95(10) . . .
107(10) . . .
130(11) . . .
101(10) . . .
122(11) . . .
128(11) . . .
112(11) . . .
117(11) . . .
104(10) . . .
125(11) . . .
106(10) . . .
116(11) . . .
119(11) . . .
98(10) . . .
109(10) . . .
110(10) . . .
117(11) . . .
111(11) . . .
131(11) . . .
118(11) . . .
116(11) . . .
122(11) . . .
106(10) . . .
113(11) . . .
94(10) . . .
116(11) . . .
114(11) . . .
119(11) . . .
125(11) . . .
102(10) . . .
123(11) . . .
113(11) . . .
105(10) . . .
120(11) . . .
106(10) . . .
120(11) . . .
106(10) . . .
111(11) . . .
117(11) . . .
99(10) . . .
125(11) . . .
105(10) . . .
113(11) . . .
99(10) . . .
119(11) . . .
112(11) . . .
117(11) . . .
119(11) . . .
111(11) . . .
107(10) . . .
109(10) . . .
103(10) . . .
115(11) . . .
114(11) . . .
123(11) . . .
119(11) . . .
99(10) . . .
111(11) . . .
136(12) . . .
119(11) . . .
102(10) . . .
112(11) . . .
100(10) . . .
109(10) . . .
110(10) . . .
109(10) . . .
119(11) . . .
129(11) . . .
107(10) . . .
132(11) . . .
107(10) . . .
121(11) . . .
128(11) . . .
106(10) . . .
123(11) . . .
123(11) . . .
107(10) . . .
105(10) . . .
95(10) . . .
113(11) . . .
107(10) . . .
100(10) . . .
101(10) . . .
117(11) . . .
110(10) . . .
97(10) . . .
93(10) . . .
91(10) . . .
119(11) . . .
110(10) . . .
100(10) . . .
103(10) . . .
111(11) . . .
123(11) . . .
118(11) . . .
105(10) . . .
101(10) . . .
101(10) . . .
114(11) . . .
127(11) . . .
116(11) . . .
107(10) . . .
105(10) . . .
114(11) . . .
106(10) . . .
117(11) . . .
117(11) . . .
111(11) . . .
114(11) . . .
113(11) . . .
114(11) . . .
128(11) . . .
105(10) . . .
96(10) . . .
110(10) . . .
117(11) . . .
113(11) . . .
107(10) . . .
114(11) . . .
99(10) . . .
95(10) . . .
119(11) . . .
119(11) . . .
100(10) . . .
124(11) . . .
111(11) . . .
104(10) . . .
112(11) . . .
101(10) . . .
115(11) . . .
109(10) . . .
119(11) . . .
105(10) . . .
112(11) . . .
105(10) . . .
104(10) . . .
97(10) . . .
107(10) . . .
101(10) . . .
123(11) . . .
110(10) . . .
122(11) . . .
94(10) . . .
101(10) . . .
111(11) . . .
114(11) . . .
121(11) . . .
100(10) . . .
98(10) . . .
111(11) . . .
114(11) . . .
103(10) . . .
115(11) . . .
115(11) . . .
108(10) . . .
107(10) . . .
104(10) . . .
108(10) . . .
101(10) . . .
102(10) . . .
131(11) . . .
121(11) . . .
95(10) . . .
86(9) . . .
105(10) . . .
115(11) . . .
110(10) . . .
115(11) . . .
119(11) . . .
118(11) . . .
106(10) . . .
110(10) . . .
123(11) . . .
100(10) . . .
95(10) . . .
138(12) . . .
110(10) . . .
115(11) . . .
134(12) . . .
116(11) . . .
104(10) . . .
105(10) . . .
106(10) . . .
104(10) . . .
101(10) . . .
103(10) . . .
101(10) . . .
104(10) . . .
104(10) . . .
106(10) . . .
115(11) . . .
119(11) . . .
113(11) . . .
129(11) . . .
117(11) . . .
103(10) . . .
137(12) . . .
115(11) . . .
107(10) . . .
102(10) . . .
103(10) . . .
105(10) . . .
109(10) . . .
110(10) . . .
108(10) . . .
103(10) . . .
104(10) . . .
120(11) . . .
115(11) . . .
125(11) . . .
101(10) . . .
110(10) . . .
128(11) . . .
111(11) . . .
97(10) . . .
116(11) . . .
113(11) . . .
103(10) . . .
120(11) . . .
119(11) . . .
120(11) . . .
121(11) . . .
106(10) . . .
115(11) . . .
118(11) . . .
119(11) . . .
114(11) . . .
116(11) . . .
115(11) . . .
108(10) . . .
109(10) . . .
111(11) . . .
123(11) . . .
117(11) . . .
107(10) . . .
107(10) . . .
104(10) . . .
123(11) . . .
104(10) . . .
123(11) . . .
116(11) . . .
113(11) . . .
109(10) . . .
104(10) . . .
98(10) . . .
100(10) . . .
107(10) . . .
103(10) . . .
103(10) . . .
130(11) . . .
107(10) . . .
118(11) . . .
113(11) . . .
114(11) . . .
111(11) . . .
127(11) . . .
94(10) . . .
110(10) . . .
114(11) . . .
108(10) . . .
113(11) . . .
127(11) . . .
99(10) . . .
114(11) . . .
123(11) . . .
108(10) . . .
98(10) . . .
116(11) . . .
110(10) . . .
106(10) . . .
131(11) . . .
117(11) . . .
117(11) . . .
114(11) . . .
113(11) . . .
118(11) . . .
117(11) . . .
110(10) . . .
107(10) . . .
106(10) . . .
115(11) . . .
112(11) . . .
110(10) . . .
110(10) . . .
114(11) . . .
104(10) . . .
104(10) . . .
116(11) . . .
112(11) . . .
107(10) . . .
115(11) . . .
111(11) . . .
110(10) . . .
109(10) . . .
108(10) . . .
108(10) . . .
106(10) . . .
100(10) . . .
99(10) . . .
118(11) . . .
116(11) . . .
113(11) . . .
109(10) . . .
110(10) . . .
107(10) . . .
99(10) . . .
101(10) . . .
99(10) . . .
115(11) . . .
107(10) . . .
98(10) . . .
103(10) . . .
96(10) . . .
102(10) . . .
109(10) . . .
105(10) . . .
109(10) . . .
100(10) . . .
102(10) . . .
100(10) . . .
118(11) . . .
96(10) . . .
109(10) . . .
111(11) . . .
106(10) . . .
93(10) . . .
110(10) . . .
99(10) . . .
120(11) . . .
118(11) . . .
98(10) . . .
107(10) . . .
121(11) . . .
102(10) . . .
97(10) . . .
123(11) . . .
106(10) . . .
102(10) . . .
97(10) . . .
104(10) . . .
127(11) . . .
107(10) . . .
100(10) . . .
111(11) . . .
115(11) . . .
113(11) . . .
100(10) . . .
98(10) . . .
97(10) . . .
112(11) . . .
113(11) . . .
95(10) . . .
106(10) . . .
109(10) . . .
125(11) . . .
107(10) . . .
111(11) . . .
116(11) . . .
110(10) . . .
104(10) . . .
105(10) . . .
98(10) . . .
101(10) . . .
117(11) . . .
138(12) . . .
106(10) . . .
106(10) . . .
113(11) . . .
116(11) . . .
127(11) . . .
106(10) . . .
122(11) . . .
88(9) . . .
103(10) . . .
106(10) . . .
108(10) . . .
97(10) . . .
104(10) . . .
106(10) . . .
103(10) . . .
103(10) . . .
112(11) . . .
98(10) . . .
110(10) . . .
102(10) . . .
109(10) . . .
109(10) . . .
114(11) . . .
109(10) . . .
95(10) . . .
91(10) . . .
107(10) . . .
106(10) . . .
111(11) . . .
107(10) . . .
99(10) . . .
89(9) . . .
104(10) . . .
97(10) . . .
115(11) . . .
117(11) . . .
115(11) . . .
116(11) . . .
102(10) . . .
107(10) . . .
109(10) . . .
110(10) . . .
110(10) . . .
115(11) . . .
105(10) . . .
109(10) . . .
118(11) . . .
116(11) . . .
118(11) . . .
126(11) . . .
110(10) . . .
114(11) . . .
103(10) . . .
99(10) . . .
128(11) . . .
120(11) . . .
98(10) . . .
106(10) . . .
114(11) . . .
104(10) . . .
90(9) . . .
125(11) . . .
108(10) . . .
83(9) . . .
106(10) . . .
103(10) . . .
101(10) . . .
107(10) . . .
118(11) . . .
104(10) . . .
107(10) . . .
109(10) . . .
118(11) . . .
116(11) . . .
114(11) . . .
116(11) . . .
97(10) . . .
112(11) . . .
111(11) . . .
107(10) . . .
104(10) . . .
100(10) . . .
109(10) . . .
106(10) . . .
110(10) . . .
112(11) . . .
115(11) . . .
100(10) . . .
109(10) . . .
118(11) . . .
88(9) . . .
106(10) . . .
96(10) . . .
105(10) . . .
106(10) . . .
124(11) . . .
103(10) . . .
111(11) . . .
106(10) . . .
103(10) . . .
105(10) . . .
119(11) . . .
96(10) . . .
104(10) . . .
131(11) . . .
125(11) . . .
114(11) . . .
100(10) . . .
103(10) . . .
121(11) . . .
105(10) . . .
115(11) . . .
109(10) . . .
112(11) . . .
104(10) . . .
110(10) . . .
115(11) . . .
108(10) . . .
114(11) . . .
130(11) . . .
110(10) . . .
104(10) . . .
92(10) . . .
98(10) . . .
116(11) . . .
119(11) . . .
124(11) . . .
102(10) . . .
92(10) . . .
127(11) . . .
127(11) . . .
100(10) . . .
103(10) . . .
125(11) . . .
122(11) . . .
103(10) . . .
105(10) . . .
117(11) . . .
112(11) . . .
112(11) . . .
116(11) . . .
109(10) . . .
104(10) . . .
97(10) . . .
122(11) . . .
102(10) . . .
102(10) . . .
108(10) . . .
100(10) . . .
119(11) . . .
111(11) . . .
105(10) . . .
96(10) . . .
92(10) . . .
127(11) . . .
126(11) . . .
112(11) . . .
103(10) . . .
91(10) . . .
127(11) . . .
109(10) . . .
115(11) . . .
107(10) . . .
112(11) . . .
143(12) . . .
98(10) . . .
108(10) . . .
104(10) . . .
113(11) . . .
107(10) . . .
107(10) . . .
115(11) . . .
119(11) . . .
112(11) . . .
117(11) . . .
99(10) . . .
93(10) . . .
115(11) . . .
102(10) . . .
99(10) . . .
105(10) . . .
98(10) . . .
109(10) . . .
120(11) . . .
106(10) . . .
109(10) . . .
109(10) . . .
107(10) . . .
122(11) . . .
102(10) . . .
119(11) . . .
109(10) . . .
108(10) . . .
113(11) . . .
95(10) . . .
110(10) . . .
98(10) . . .
112(11) . . .
116(11) . . .
121(11) . . .
98(10) . . .
114(11) . . .
98(10) . . .
113(11) . . .
111(11) . . .
106(10) . . .
102(10) . . .
103(10) . . .
115(11) . . .
114(11) . . .
104(10) . . .
120(11) . . .
108(10) . . .
110(10) . . .
104(10) . . .
124(11) . . .
113(11) . . .
113(11) . . .
107(10) . . .
111(11) . . .
117(11) . . .
112(11) . . .
117(11) . . .
102(10) . . .
106(10) . . .
102(10) . . .
116(11) . . .
107(10) . . .
95(10) . . .
94(10) . . .
92(10) . . .
125(11) . . .
101(10) . . .
108(10) . . .
93(10) . . .
108(10) . . .
95(10) . . .
119(11) . . .
101(10) . . .
104(10) . . .
106(10) . . .
126(11) . . .
115(11) . . .
87(9) . . .
98(10) . . .
121(11) . . .
109(10) . . .
109(10) . . .
109(10) . . .
100(10) . . .
109(10) . . .
108(10) . . .
102(10) . . .
96(10) . . .
112(11) . . .
114(11) . . .
132(11) . . .
116(11) . . .
110(10) . . .
99(10) . . .
99(10) . . .
102(10) . . .
102(10) . . .
100(10) . . .
91(10) . . .
129(11) . . .
106(10) . . .
104(10) . . .
110(10) . . .
109(10) . . .
99(10) . . .
105(10) . . .
103(10) . . .
87(9) . . .
125(11) . . .
109(10) . . .
99(10) . . .
112(11) . . .
98(10) . . .
120(11) . . .
116(11) . . .
124(11) . . .
110(10) . . .
115(11) . . .
102(10) . . .
107(10) . . .
105(10) . . .
108(10) . . .
93(10) . . .
97(10) . . .
102(10) . . .
122(11) . . .
125(11) . . .
112(11) . . .
122(11) . . .
110(10) . . .
118(11) . . .
113(11) . . .
114(11) . . .
118(11) . . .
101(10) . . .
120(11) . . .
107(10) . . .
110(10) . . .
132(11) . . .
97(10) . . .
107(10) . . .
108(10) . . .
109(10) . . .
104(10) . . .
109(10) . . .
124(11) . . .
107(10) . . .
100(10) . . .
121(11) . . .
119(11) . . .
112(11) . . .
113(11) . . .
125(11) . . .
107(10) . . .
107(10) . . .
122(11) . . .
109(10) . . .
122(11) . . .
113(11) . . .
113(11) . . .
120(11) . . .
118(11) . . .
103(10) . . .
109(10) . . .
117(11) . . .
118(11) . . .
124(11) . . .
109(10) . . .
125(11) . . .
121(11) . . .
120(11) . . .
119(11) . . .
125(11) . . .
118(11) . . .
121(11) . . .
115(11) . . .
117(11) . . .
102(10) . . .
121(11) . . .
117(11) . . .
113(11) . . .
111(11) . . .
100(10) . . .
109(10) . . .
100(10) . . .
105(10) . . .
102(10) . . .
107(10) . . .
114(11) . . .
120(11) . . .
109(10) . . .
115(11) . . .
126(11) . . .
120(11) . . .
142(12) . . .
112(11) . . .
118(11) . . .
102(10) . . .
110(10) . . .
116(11) . . .
102(10) . . .
117(11) . . .
115(11) . . .
126(11) . . .
116(11) . . .
106(10) . . .
103(10) . . .
109(10) . . .
113(11) . . .
117(11) . . .
129(11) . . .
117(11) . . .
107(10) . . .
112(11) . . .
114(11) . . .
121(11) . . .
118(11) . . .
96(10) . . .
117(11) . . .
118(11) . . .
118(11) . . .
110(10) . . .
105(10) . . .
116(11) . . .
109(10) . . .
114(11) . . .
110(10) . . .
111(11) . . .
107(10) . . .
126(11) . . .
115(11) . . .
122(11) . . .
110(10) . . .
127(11) . . .
113(11) . . .
109(10) . . .
113(11) . . .
118(11) . . .
122(11) . . .
116(11) . . .
104(10) . . .
124(11) . . .
145(12) . . .
120(11) . . .
105(10) . . .
112(11) . . .
119(11) . . .
129(11) . . .
128(11) . . .
124(11) . . .
108(10) . . .
132(11) . . .
125(11) . . .
129(11) . . .
118(11) . . .
111(11) . . .
106(10) . . .
128(11) . . .
120(11) . . .
130(11) . . .
121(11) . . .
131(11) . . .
117(11) . . .
132(11) . . .
126(11) . . .
128(11) . . .
118(11) . . .
131(11) . . .
109(10) . . .
151(12) . . .
143(12) . . .
153(12) . . .
125(11) . . .
138(12) . . .
150(12) . . .
154(12) . . .
125(11) . . .
139(12) . . .
131(11) . . .
146(12) . . .
137(12) . . .
147(12) . . .
157(13) . . .
149(12) . . .
148(12) . . .
127(11) . . .
136(12) . . .
153(12) . . .
161(13) . . .
140(12) . . .
152(12) . . .
126(11) . . .
141(12) . . .
163(13) . . .
163(13) . . .
148(12) . . .
133(12) . . .
159(13) . . .
145(12) . . .
149(12) . . .
158(13) . . .
154(12) . . .
149(12) . . .
191(14) . . .
182(13) . . .
171(13) . . .
162(13) . . .
173(13) . . .
193(14) . . .
171(13) . . .
177(13) . . .
191(14) . . .
181(13) . . .
190(14) . . .
200(14) . . .
194(14) . . .
196(14) . . .
215(15) . . .
233(15) . . .
210(14) . . .
227(15) . . .
225(15) . . .
223(15) . . .
223(15) . . .
255(16) . . .
245(16) . . .
243(16) . . .
233(15) . . .
287(17) . . .
265(16) . . .
284(17) . . .
282(17) . . .
305(17) . . .
300(17) . . .
329(18) . . .
337(18) . . .
347(19) . . .
344(19) . . .
370(19) . . .
366(19) . . .
389(20) . . .
403(20) . . .
403(20) . . .
460(21) . . .
466(22) . . .
428(21) . . .
460(21) . . .
500(22) . . .
522(23) . . .
544(23) . . .
575(24) . . .
577(24) . . .
636(25) . . .
615(25) . . .
681(26) . . .
662(26) . . .
646(25) . . .
691(26) . . .
700(26) . . .
706(27) . . .
713(27) . . .
746(27) . . .
783(28) . . .
761(28) . . .
764(28) . . .
756(27) . . .
780(28) . . .
785(28) . . .
796(28) . . .
787(28) . . .
816(29) . . .
810(28) . . .
805(28) . . .
767(28) . . .
760(28) . . .
783(28) . . .
738(27) . . .
766(28) . . .
658(26) . . .
691(26) . . .
651(26) . . .
627(25) . . .
616(25) . . .
604(25) . . .
623(25) . . .
568(24) . . .
520(23) . . .
520(23) . . .
493(22) . . .
513(23) . . .
480(22) . . .
449(21) . . .
439(21) . . .
431(21) . . .
402(20) . . .
383(20) . . .
409(20) . . .
380(19) . . .
347(19) . . .
330(18) . . .
337(18) . . .
300(17) . . .
312(18) . . .
297(17) . . .
289(17) . . .
291(17) . . .
273(17) . . .
261(16) . . .
244(16) . . .
264(16) . . .
249(16) . . .
256(16) . . .
232(15) . . .
237(15) . . .
206(14) . . .
223(15) . . .
241(16) . . .
203(14) . . .
219(15) . . .
198(14) . . .
195(14) . . .
190(14) . . .
187(14) . . .
185(14) . . .
193(14) . . .
193(14) . . .
186(14) . . .
192(14) . . .
178(13) . . .
189(14) . . .
180(13) . . .
177(13) . . .
189(14) . . .
174(13) . . .
180(13) . . .
167(13) . . .
149(12) . . .
162(13) . . .
162(13) . . .
144(12) . . .
138(12) . . .
148(12) . . .
142(12) . . .
158(13) . . .
166(13) . . .
163(13) . . .
141(12) . . .
146(12) . . .
175(13) . . .
157(13) . . .
141(12) . . .
139(12) . . .
134(12) . . .
153(12) . . .
138(12) . . .
151(12) . . .
139(12) . . .
130(11) . . .
120(11) . . .
130(11) . . .
155(12) . . .
116(11) . . .
130(11) . . .
137(12) . . .
126(11) . . .
121(11) . . .
146(12) . . .
119(11) . . .
110(10) . . .
137(12) . . .
130(11) . . .
118(11) . . .
127(11) . . .
132(11) . . .
115(11) . . .
108(10) . . .
143(12) . . .
125(11) . . .
124(11) . . .
116(11) . . .
123(11) . . .
123(11) . . .
122(11) . . .
130(11) . . .
133(12) . . .
115(11) . . .
122(11) . . .
118(11) . . .
117(11) . . .
112(11) . . .
134(12) . . .
122(11) . . .
116(11) . . .
114(11) . . .
143(12) . . .
121(11) . . .
106(10) . . .
125(11) . . .
119(11) . . .
102(10) . . .
133(12) . . .
118(11) . . .
121(11) . . .
109(10) . . .
124(11) . . .
138(12) . . .
111(11) . . .
113(11) . . .
122(11) . . .
106(10) . . .
121(11) . . .
134(12) . . .
131(11) . . .
132(11) . . .
118(11) . . .
111(11) . . .
118(11) . . .
106(10) . . .
111(11) . . .
121(11) . . .
112(11) . . .
105(10) . . .
129(11) . . .
101(10) . . .
105(10) . . .
98(10) . . .
94(10) . . .
112(11) . . .
109(10) . . .
114(11) . . .
102(10) . . .
103(10) . . .
112(11) . . .
118(11) . . .
119(11) . . .
104(10) . . .
119(11) . . .
116(11) . . .
110(10) . . .
109(10) . . .
115(11) . . .
144(12) . . .
102(10) . . .
115(11) . . .
118(11) . . .
112(11) . . .
104(10) . . .
116(11) . . .
105(10) . . .
116(11) . . .
119(11) . . .
111(11) . . .
101(10) . . .
107(10) . . .
117(11) . . .
101(10) . . .
110(10) . . .
108(10) . . .
112(11) . . .
125(11) . . .
120(11) . . .
98(10) . . .
117(11) . . .
121(11) . . .
118(11) . . .
112(11) . . .
120(11) . . .
94(10) . . .
105(10) . . .
101(10) . . .
108(10) . . .
119(11) . . .
120(11) . . .
114(11) . . .
132(11) . . .
113(11) . . .
111(11) . . .
104(10) . . .
110(10) . . .
106(10) . . .
118(11) . . .
104(10) . . .
106(10) . . .
108(10) . . .
113(11) . . .
101(10) . . .
111(11) . . .
119(11) . . .
118(11) . . .
119(11) . . .
97(10) . . .
124(11) . . .
116(11) . . .
98(10) . . .
106(10) . . .
125(11) . . .
102(10) . . .
114(11) . . .
114(11) . . .
113(11) . . .
114(11) . . .
118(11) . . .
112(11) . . .
119(11) . . .
114(11) . . .
121(11) . . .
111(11) . . .
112(11) . . .
123(11) . . .
108(10) . . .
104(10) . . .
106(10) . . .
105(10) . . .
124(11) . . .
93(10) . . .
118(11) . . .
102(10) . . .
114(11) . . .
101(10) . . .
121(11) . . .
124(11) . . .
109(10) . . .
95(10) . . .
106(10) . . .
105(10) . . .
116(11) . . .
103(10) . . .
120(11) . . .
89(9) . . .
107(10) . . .
104(10) . . .
104(10) . . .
108(10) . . .
98(10) . . .
117(11) . . .
107(10) . . .
116(11) . . .
90(9) . . .
112(11) . . .
111(11) . . .
109(10) . . .
106(10) . . .
98(10) . . .
110(10) . . .
99(10) . . .
109(10) . . .
110(10) . . .
114(11) . . .
105(10) . . .
112(11) . . .
114(11) . . .
106(10) . . .
123(11) . . .
114(11) . . .
114(11) . . .
130(11) . . .
110(10) . . .
103(10) . . .
108(10) . . .
103(10) . . .
98(10) . . .
109(10) . . .
123(11) . . .
109(10) . . .
105(10) . . .
112(11) . . .
92(10) . . .
110(10) . . .
112(11) . . .
95(10) . . .
119(11) . . .
115(11) . . .
128(11) . . .
115(11) . . .
102(10) . . .
115(11) . . .
110(10) . . .
113(11) . . .
105(10) . . .
116(11) . . .
115(11) . . .
101(10) . . .
97(10) . . .
104(10) . . .
91(10) . . .
101(10) . . .
118(11) . . .
92(10) . . .
100(10) . . .
122(11) . . .
116(11) . . .
110(10) . . .
103(10) . . .
103(10) . . .
109(10) . . .
109(10) . . .
110(10) . . .
107(10) . . .
129(11) . . .
118(11) . . .
101(10) . . .
111(11) . . .
112(11) . . .
104(10) . . .
106(10) . . .
110(10) . . .
105(10) . . .
102(10) . . .
107(10) . . .
103(10) . . .
124(11) . . .
128(11) . . .
112(11) . . .
105(10) . . .
99(10) . . .
116(11) . . .
112(11) . . .
110(10) . . .
127(11) . . .
99(10) . . .
124(11) . . .
107(10) . . .
117(11) . . .
100(10) . . .
109(10) . . .
114(11) . . .
109(10) . . .
100(10) . . .
114(11) . . .
104(10) . . .
123(11) . . .
102(10) . . .
121(11) . . .
104(10) . . .
119(11) . . .
118(11) . . .
108(10) . . .
97(10) . . .
101(10) . . .
109(10) . . .
101(10) . . .
121(11) . . .
115(11) . . .
106(10) . . .
117(11) . . .
111(11) . . .
104(10) . . .
124(11) . . .
122(11) . . .
100(10) . . .
101(10) . . .
117(11) . . .
112(11) . . .
90(9) . . .
119(11) . . .
114(11) . . .
117(11) . . .
106(10) . . .
106(10) . . .
105(10) . . .
110(10) . . .
102(10) . . .
114(11) . . .
116(11) . . .
120(11) . . .
95(10) . . .
113(11) . . .
104(10) . . .
112(11) . . .
128(11) . . .
107(10) . . .
107(10) . . .
109(10) . . .
109(10) . . .
105(10) . . .
102(10) . . .
119(11) . . .
121(11) . . .
106(10) . . .
99(10) . . .
123(11) . . .
102(10) . . .
114(11) . . .
111(11) . . .
101(10) . . .
98(10) . . .
97(10) . . .
111(11) . . .
119(11) . . .
122(11) . . .
104(10) . . .
102(10) . . .
118(11) . . .
110(10) . . .
100(10) . . .
138(12) . . .
111(11) . . .
114(11) . . .
107(10) . . .
113(11) . . .
131(11) . . .
107(10) . . .
96(10) . . .
113(11) . . .
105(10) . . .
109(10) . . .
115(11) . . .
103(10) . . .
104(10) . . .
109(10) . . .
109(10) . . .
121(11) . . .
92(10) . . .
112(11) . . .
125(11) . . .
111(11) . . .
117(11) . . .
107(10) . . .
109(10) . . .
128(11) . . .
108(10) . . .
110(10) . . .
111(11) . . .
125(11) . . .
88(9) . . .
99(10) . . .
98(10) . . .
94(10) . . .
106(10) . . .
101(10) . . .
112(11) . . .
113(11) . . .
101(10) . . .
115(11) . . .
112(11) . . .
118(11) . . .
116(11) . . .
107(10) . . .
99(10) . . .
107(10) . . .
104(10) . . .
97(10) . . .
106(10) . . .
112(11) . . .
120(11) . . .
120(11) . . .
110(10) . . .
95(10) . . .
107(10) . . .
101(10) . . .
112(11) . . .
105(10) . . .
116(11) . . .
110(10) . . .
99(10) . . .
104(10) . . .
106(10) . . .
106(10) . . .
114(11) . . .
100(10) . . .
108(10) . . .
110(10) . . .
99(10) . . .
103(10) . . .
118(11) . . .
110(10) . . .
106(10) . . .
108(10) . . .
95(10) . . .
112(11) . . .
99(10) . . .
94(10) . . .
118(11) . . .
104(10) . . .
111(11) . . .
107(10) . . .
102(10) . . .
111(11) . . .
117(11) . . .
100(10) . . .
107(10) . . .
100(10) . . .
108(10) . . .
102(10) . . .
105(10) . . .
106(10) . . .
107(10) . . .
104(10) . . .
105(10) . . .
118(11) . . .
101(10) . . .
96(10) . . .
110(10) . . .
104(10) . . .
100(10) . . .
93(10) . . .
115(11) . . .
110(10) . . .
94(10) . . .
116(11) . . .
115(11) . . .
115(11) . . .
123(11) . . .
118(11) . . .
110(10) . . .
110(10) . . .
112(11) . . .
90(9) . . .
108(10) . . .
109(10) . . .
106(10) . . .
108(10) . . .
110(10) . . .
105(10) . . .
107(10) . . .
120(11) . . .
104(10) . . .
97(10) . . .
100(10) . . .
93(10) . . .
112(11) . . .
98(10) . . .
110(10) . . .
119(11) . . .
101(10) . . .
104(10) . . .
121(11) . . .
110(10) . . .
118(11) . . .
126(11) . . .
110(10) . . .
102(10) . . .
109(10) . . .
99(10) . . .
122(11) . . .
114(11) . . .
97(10) . . .
102(10) . . .
111(11) . . .
94(10) . . .
93(10) . . .
118(11) . . .
119(11) . . .
103(10) . . .
113(11) . . .
102(10) . . .
101(10) . . .
95(10) . . .
96(10) . . .
104(10) . . .
112(11) . . .
106(10) . . .
104(10) . . .
99(10) . . .
97(10) . . .
96(10) . . .
113(11) . . .
112(11) . . .
107(10) . . .
110(10) . . .
98(10) . . .
104(10) . . .
95(10) . . .
107(10) . . .
129(11) . . .
106(10) . . .
120(11) . . .
129(11) . . .
112(11) . . .
103(10) . . .
106(10) . . .
90(9) . . .
113(11) . . .
115(11) . . .
121(11) . . .
103(10) . . .
111(11) . . .
95(10) . . .
87(9) . . .
104(10) . . .
112(11) . . .
105(10) . . .
119(11) . . .
113(11) . . .
97(10) . . .
114(11) . . .
103(10) . . .
111(11) . . .
97(10) . . .
115(11) . . .
105(10) . . .
103(10) . . .
98(10) . . .
96(10) . . .
97(10) . . .
121(11) . . .
98(10) . . .
94(10) . . .
102(10) . . .
95(10) . . .
89(9) . . .
102(10) . . .
111(11) . . .
103(10) . . .
95(10) . . .
106(10) . . .
99(10) . . .
99(10) . . .
117(11) . . .
111(11) . . .
98(10) . . .
127(11) . . .
117(11) . . .
100(10) . . .
93(10) . . .
91(10) . . .
114(11) . . .
89(9) . . .
111(11) . . .
86(9) . . .
110(10) . . .
112(11) . . .
114(11) . . .
101(10) . . .
120(11) . . .
84(9) . . .
108(10) . . .
103(10) . . .
96(10) . . .
110(10) . . .
105(10) . . .
92(10) . . .
91(10) . . .
96(10) . . .
107(10) . . .
100(10) . . .
101(10) . . .
105(10) . . .
102(10) . . .
103(10) . . .
105(10) . . .
101(10) . . .
97(10) . . .
123(11) . . .
103(10) . . .
107(10) . . .
97(10) . . .
112(11) . . .
100(10) . . .
110(10) . . .
109(10) . . .
104(10) . . .
101(10) . . .
105(10) . . .
86(9) . . .
95(10) . . .
93(10) . . .
126(11) . . .
115(11) . . .
100(10) . . .
105(10) . . .
107(10) . . .
123(11) . . .
102(10) . . .
92(10) . . .
94(10) . . .
104(10) . . .
97(10) . . .
97(10) . . .
110(10) . . .
114(11) . . .
95(10) . . .
110(10) . . .
108(10) . . .
120(11) . . .
108(10) . . .
101(10) . . .
102(10) . . .
90(9) . . .
105(10) . . .
119(11) . . .
102(10) . . .
113(11) . . .
103(10) . . .
108(10) . . .
90(9) . . .
97(10) . . .
100(10) . . .
112(11) . . .
103(10) . . .
114(11) . . .
116(11) . . .
120(11) . . .
118(11) . . .
112(11) . . .
111(11) . . .
121(11) . . .
110(10) . . .
95(10) . . .
107(10) . . .
114(11) . . .
111(11) . . .
100(10) . . .
107(10) . . .
103(10) . . .
108(10) . . .
111(11) . . .
106(10) . . .
102(10) . . .
93(10) . . .
79(9) . . .
107(10) . . .
119(11) . . .
103(10) . . .
105(10) . . .
105(10) . . .
86(9) . . .
121(11) . . .
112(11) . . .
110(10) . . .
117(11) . . .
115(11) . . .
129(11) . . .
104(10) . . .
122(11) . . .
104(10) . . .
108(10) . . .
107(10) . . .
102(10) . . .
107(10) . . .
112(11) . . .
143(12) . . .
111(11) . . .
109(10) . . .
109(10) . . .
92(10) . . .
105(10) . . .
98(10) . . .
97(10) . . .
107(10) . . .
115(11) . . .
97(10) . . .
102(10) . . .
107(10) . . .
103(10) . . .
131(11) . . .
118(11) . . .
125(11) . . .
107(10) . . .
90(9) . . .
102(10) . . .
108(10) . . .
98(10) . . .
98(10) . . .
108(10) . . .
108(10) . . .
107(10) . . .
104(10) . . .
114(11) . . .
105(10) . . .
112(11) . . .
110(10) . . .
119(11) . . .
95(10) . . .
105(10) . . .
107(10) . . .
96(10) . . .
101(10) . . .
127(11) . . .
116(11) . . .
115(11) . . .
114(11) . . .
109(10) . . .
101(10) . . .
105(10) . . .
107(10) . . .
99(10) . . .
97(10) . . .
108(10) . . .
97(10) . . .
114(11) . . .
97(10) . . .
113(11) . . .
121(11) . . .
102(10) . . .
106(10) . . .
109(10) . . .
93(10) . . .
115(11) . . .
108(10) . . .
103(10) . . .
108(10) . . .
104(10) . . .
104(10) . . .
107(10) . . .
118(11) . . .
101(10) . . .
94(10) . . .
120(11) . . .
108(10) . . .
95(10) . . .
109(10) . . .
91(10) . . .
113(11) . . .
103(10) . . .
107(10) . . .
103(10) . . .
103(10) . . .
97(10) . . .
113(11) . . .
110(10) . . .
106(10) . . .
108(10) . . .
120(11) . . .
118(11) . . .
101(10) . . .
108(10) . . .
124(11) . . .
109(10) . . .
110(10) . . .
103(10) . . .
105(10) . . .
103(10) . . .
115(11) . . .
111(11) . . .
113(11) . . .
115(11) . . .
95(10) . . .
116(11) . . .
112(11) . . .
105(10) . . .
113(11) . . .
93(10) . . .
105(10) . . .
102(10) . . .
107(10) . . .
120(11) . . .
128(11) . . .
94(10) . . .
122(11) . . .
96(10) . . .
108(10) . . .
124(11) . . .
103(10) . . .
112(11) . . .
97(10) . . .
98(10) . . .
108(10) . . .
106(10) . . .
93(10) . . .
106(10) . . .
104(10) . . .
97(10) . . .
124(11) . . .
102(10) . . .
103(10) . . .
121(11) . . .
105(10) . . .
108(10) . . .
105(10) . . .
101(10) . . .
113(11) . . .
108(10) . . .
99(10) . . .
105(10) . . .
111(11) . . .
104(10) . . .
127(11) . . .
114(11) . . .
104(10) . . .
116(11) . . .
117(11) . . .
127(11) . . .
97(10) . . .
108(10) . . .
120(11) . . .
97(10) . . .
109(10) . . .
110(10) . . .
113(11) . . .
107(10) . . .
105(10) . . .
95(10) . . .
111(11) . . .
122(11) . . .
144(12) . . .
92(10) . . .
101(10) . . .
99(10) . . .
112(11) . . .
113(11) . . .
109(10) . . .
108(10) . . .
100(10) . . .
107(10) . . .
93(10) . . .
97(10) . . .
104(10) . . .
124(11) . . .
99(10) . . .
111(11) . . .
106(10) . . .
109(10) . . .
100(10) . . .
106(10) . . .
109(10) . . .
107(10) . . .
110(10) . . .
109(10) . . .
104(10) . . .
113(11) . . .
104(10) . . .
122(11) . . .
116(11) . . .
106(10) . . .
101(10) . . .
98(10) . . .
113(11) . . .
126(11) . . .
111(11) . . .
99(10) . . .
117(11) . . .
107(10) . . .
125(11) . . .
99(10) . . .
102(10) . . .
111(11) . . .
113(11) . . .
101(10) . . .
115(11) . . .
115(11) . . .
99(10) . . .
111(11) . . .
104(10) . . .
123(11) . . .
122(11) . . .
108(10) . . .
116(11) . . .
108(10) . . .
105(10) . . .
113(11) . . .
102(10) . . .
113(11) . . .
118(11) . . .
124(11) . . .
110(10) . . .
103(10) . . .
119(11) . . .
109(10) . . .
108(10) . . .
95(10) . . .
123(11) . . .
103(10) . . .
104(10) . . .
117(11) . . .
121(11) . . .
114(11) . . .
105(10) . . .
112(11) . . .
97(10) . . .
109(10) . . .
117(11) . . .
107(10) . . .
128(11) . . .
119(11) . . .
120(11) . . .
117(11) . . .
123(11) . . .
108(10) . . .
115(11) . . .
99(10) . . .
112(11) . . .
135(12) . . .
96(10) . . .
108(10) . . .
101(10) . . .
119(11) . . .
107(10) . . .
104(10) . . .
110(10) . . .
111(11) . . .
116(11) . . .
114(11) . . .
106(10) . . .
101(10) . . .
106(10) . . .
113(11) . . .
101(10) . . .
125(11) . . .
117(11) . . .
109(10) . . .
115(11) . . .
109(10) . . .
115(11) . . .
112(11) . . .
113(11) . . .
126(11) . . .
124(11) . . .
121(11) . . .
99(10) . . .
129(11) . . .
117(11) . . .
106(10) . . .
113(11) . . .
119(11) . . .
122(11) . . .
123(11) . . .
107(10) . . .
112(11) . . .
120(11) . . .
108(10) . . .
101(10) . . .
107(10) . . .
113(11) . . .
115(11) . . .
116(11) . . .
107(10) . . .
109(10) . . .
101(10) . . .
111(11) . . .
114(11) . . .
122(11) . . .
117(11) . . .
102(10) . . .
115(11) . . .
100(10) . . .
101(10) . . .
114(11) . . .
102(10) . . .
108(10) . . .
119(11) . . .
94(10) . . .
123(11) . . .
118(11) . . .
109(10) . . .
137(12) . . .
111(11) . . .
121(11) . . .
121(11) . . .
108(10) . . .
110(10) . . .
121(11) . . .
101(10) . . .
122(11) . . .
120(11) . . .
122(11) . . .
110(10) . . .
127(11) . . .
127(11) . . .
117(11) . . .
130(11) . . .
119(11) . . .
122(11) . . .
110(10) . . .
122(11) . . .
113(11) . . .
100(10) . . .
112(11) . . .
116(11) . . .
100(10) . . .
107(10) . . .
108(10) . . .
110(10) . . .
115(11) . . .
129(11) . . .
111(11) . . .
113(11) . . .
107(10) . . .
122(11) . . .
113(11) . . .
130(11) . . .
127(11) . . .
121(11) . . .
128(11) . . .
117(11) . . .
133(12) . . .
113(11) . . .
95(10) . . .
110(10) . . .
131(11) . . .
122(11) . . .
126(11) . . .
133(12) . . .
137(12) . . .
98(10) . . .
114(11) . . .
134(12) . . .
123(11) . . .
111(11) . . .
147(12) . . .
144(12) . . .
127(11) . . .
135(12) . . .
125(11) . . .
124(11) . . .
131(11) . . .
120(11) . . .
132(11) . . .
137(12) . . .
126(11) . . .
149(12) . . .
140(12) . . .
146(12) . . .
138(12) . . .
123(11) . . .
132(11) . . .
138(12) . . .
123(11) . . .
145(12) . . .
139(12) . . .
143(12) . . .
123(11) . . .
118(11) . . .
159(13) . . .
136(12) . . .
134(12) . . .
135(12) . . .
113(11) . . .
125(11) . . .
146(12) . . .
134(12) . . .
129(11) . . .
140(12) . . .
145(12) . . .
151(12) . . .
148(12) . . .
135(12) . . .
147(12) . . .
146(12) . . .
142(12) . . .
119(11) . . .
147(12) . . .
137(12) . . .
142(12) . . .
148(12) . . .
155(12) . . .
155(12) . . .
146(12) . . .
147(12) . . .
166(13) . . .
169(13) . . .
150(12) . . .
155(12) . . .
150(12) . . .
154(12) . . .
175(13) . . .
155(12) . . .
155(12) . . .
150(12) . . .
166(13) . . .
157(13) . . .
156(12) . . .
161(13) . . .
180(13) . . .
187(14) . . .
192(14) . . .
166(13) . . .
183(14) . . .
174(13) . . .
172(13) . . .
193(14) . . .
195(14) . . .
191(14) . . .
221(15) . . .
192(14) . . .
200(14) . . .
205(14) . . .
194(14) . . .
203(14) . . .
201(14) . . .
221(15) . . .
200(14) . . .
219(15) . . .
217(15) . . .
200(14) . . .
217(15) . . .
226(15) . . .
214(15) . . .
240(15) . . .
243(16) . . .
247(16) . . .
244(16) . . .
248(16) . . .
260(16) . . .
241(16) . . .
265(16) . . .
301(17) . . .
270(16) . . .
296(17) . . .
272(16) . . .
287(17) . . .
303(17) . . .
275(17) . . .
304(17) . . .
287(17) . . .
299(17) . . .
318(18) . . .
300(17) . . .
299(17) . . .
336(18) . . .
345(19) . . .
350(19) . . .
337(18) . . .
381(20) . . .
381(20) . . .
376(19) . . .
400(20) . . .
422(21) . . .
419(20) . . .
395(20) . . .
406(20) . . .
488(22) . . .
469(22) . . .
482(22) . . .
486(22) . . .
499(22) . . .
533(23) . . .
557(24) . . .
574(24) . . .
595(24) . . .
576(24) . . .
607(25) . . .
666(26) . . .
683(26) . . .
677(26) . . .
685(26) . . .
750(27) . . .
737(27) . . .
757(28) . . .
791(28) . . .
804(28) . . .
863(29) . . .
910(30) . . .
921(30) . . .
994(32) . . .
1013(32) . . .
1101(33) . . .
1098(33) . . .
1151(34) . . .
1155(34) . . .
1172(34) . . .
1204(35) . . .
1253(35) . . .
1317(36) . . .
1381(37) . . .
1339(37) . . .
1434(38) . . .
1444(38) . . .
1486(39) . . .
1488(39) . . .
1525(39) . . .
1511(39) . . .
1585(40) . . .
1605(40) . . .
1591(40) . . .
1670(41) . . .
1689(41) . . .
1705(41) . . .
1704(41) . . .
1699(41) . . .
1678(41) . . .
1708(41) . . .
1681(41) . . .
1700(41) . . .
1689(41) . . .
1688(41) . . .
1639(40) . . .
1608(40) . . .
1599(40) . . .
1647(41) . . .
1592(40) . . .
1522(39) . . .
1545(39) . . .
1490(39) . . .
1438(38) . . .
1473(38) . . .
1347(37) . . .
1339(37) . . .
1319(36) . . .
1195(35) . . .
1227(35) . . .
1182(34) . . .
1186(34) . . .
1093(33) . . .
1071(33) . . .
1058(33) . . .
1050(32) . . .
982(31) . . .
955(31) . . .
938(31) . . .
871(30) . . .
829(29) . . .
831(29) . . .
782(28) . . .
775(28) . . .
691(26) . . .
731(27) . . .
719(27) . . .
679(26) . . .
684(26) . . .
636(25) . . .
617(25) . . .
577(24) . . .
535(23) . . .
540(23) . . .
520(23) . . .
495(22) . . .
465(22) . . .
496(22) . . .
446(21) . . .
476(22) . . .
451(21) . . .
386(20) . . .
404(20) . . .
437(21) . . .
407(20) . . .
387(20) . . .
347(19) . . .
370(19) . . .
350(19) . . .
355(19) . . .
308(18) . . .
328(18) . . .
332(18) . . .
308(18) . . .
308(18) . . .
315(18) . . .
313(18) . . .
304(17) . . .
260(16) . . .
275(17) . . .
263(16) . . .
279(17) . . .
275(17) . . .
272(16) . . .
251(16) . . .
234(15) . . .
250(16) . . .
218(15) . . .
213(15) . . .
233(15) . . .
203(14) . . .
235(15) . . .
217(15) . . .
224(15) . . .
235(15) . . .
208(14) . . .
227(15) . . .
232(15) . . .
219(15) . . .
198(14) . . .
214(15) . . .
193(14) . . .
191(14) . . .
200(14) . . .
187(14) . . .
186(14) . . .
165(13) . . .
179(13) . . .
173(13) . . .
187(14) . . .
184(14) . . .
182(13) . . .
176(13) . . .
205(14) . . .
164(13) . . .
183(14) . . .
173(13) . . .
194(14) . . .
169(13) . . .
168(13) . . .
164(13) . . .
174(13) . . .
183(14) . . .
195(14) . . .
158(13) . . .
168(13) . . .
159(13) . . .
169(13) . . .
148(12) . . .
164(13) . . .
155(12) . . .
153(12) . . .
156(12) . . .
149(12) . . .
159(13) . . .
156(12) . . .
152(12) . . .
148(12) . . .
149(12) . . .
141(12) . . .
149(12) . . .
145(12) . . .
152(12) . . .
157(13) . . .
150(12) . . .
143(12) . . .
159(13) . . .
141(12) . . .
142(12) . . .
131(11) . . .
150(12) . . .
147(12) . . .
146(12) . . .
143(12) . . .
164(13) . . .
145(12) . . .
148(12) . . .
136(12) . . .
132(11) . . .
131(11) . . .
128(11) . . .
130(11) . . .
125(11) . . .
122(11) . . .
135(12) . . .
136(12) . . .
135(12) . . .
126(11) . . .
141(12) . . .
159(13) . . .
135(12) . . .
150(12) . . .
132(11) . . .
155(12) . . .
129(11) . . .
131(11) . . .
131(11) . . .
130(11) . . .
127(11) . . .
124(11) . . .
121(11) . . .
122(11) . . .
129(11) . . .
121(11) . . .
121(11) . . .
126(11) . . .
129(11) . . .
137(12) . . .
112(11) . . .
130(11) . . .
130(11) . . .
123(11) . . .
161(13) . . .
134(12) . . .
126(11) . . .
122(11) . . .
126(11) . . .
112(11) . . .
117(11) . . .
136(12) . . .
115(11) . . .
128(11) . . .
140(12) . . .
140(12) . . .
129(11) . . .
110(10) . . .
140(12) . . .
130(11) . . .
136(12) . . .
129(11) . . .
135(12) . . .
139(12) . . .
130(11) . . .
133(12) . . .
123(11) . . .
126(11) . . .
127(11) . . .
121(11) . . .
114(11) . . .
114(11) . . .
129(11) . . .
118(11) . . .
123(11) . . .
111(11) . . .
133(12) . . .
119(11) . . .
127(11) . . .
130(11) . . .
108(10) . . .
130(11) . . .
127(11) . . .
129(11) . . .
115(11) . . .
105(10) . . .
116(11) . . .
115(11) . . .
119(11) . . .
112(11) . . .
139(12) . . .
103(10) . . .
123(11) . . .
117(11) . . .
128(11) . . .
125(11) . . .
112(11) . . .
134(12) . . .
133(12) . . .
116(11) . . .
123(11) . . .
109(10) . . .
120(11) . . .
113(11) . . .
123(11) . . .
103(10) . . .
129(11) . . .
106(10) . . .
140(12) . . .
144(12) . . .
111(11) . . .
127(11) . . .
129(11) . . .
121(11) . . .
118(11) . . .
121(11) . . .
119(11) . . .
107(10) . . .
127(11) . . .
124(11) . . .
122(11) . . .
116(11) . . .
111(11) . . .
125(11) . . .
126(11) . . .
140(12) . . .
154(12) . . .
108(10) . . .
119(11) . . .
115(11) . . .
117(11) . . .
126(11) . . .
133(12) . . .
140(12) . . .
132(11) . . .
118(11) . . .
125(11) . . .
131(11) . . .
136(12) . . .
116(11) . . .
143(12) . . .
103(10) . . .
133(12) . . .
134(12) . . .
127(11) . . .
120(11) . . .
111(11) . . .
126(11) . . .
118(11) . . .
125(11) . . .
138(12) . . .
137(12) . . .
108(10) . . .
114(11) . . .
120(11) . . .
132(11) . . .
119(11) . . .
131(11) . . .
114(11) . . .
128(11) . . .
125(11) . . .
136(12) . . .
145(12) . . .
140(12) . . .
107(10) . . .
109(10) . . .
128(11) . . .
144(12) . . .
138(12) . . .
135(12) . . .
115(11) . . .
113(11) . . .
136(12) . . .
117(11) . . .
141(12) . . .
126(11) . . .
149(12) . . .
121(11) . . .
130(11) . . .
114(11) . . .
130(11) . . .
141(12) . . .
126(11) . . .
150(12) . . .
135(12) . . .
118(11) . . .
133(12) . . .
138(12) . . .
137(12) . . .
117(11) . . .
131(11) . . .
123(11) . . .
158(13) . . .
139(12) . . .
151(12) . . .
141(12) . . .
126(11) . . .
134(12) . . .
118(11) . . .
135(12) . . .
147(12) . . .
144(12) . . .
135(12) . . .
144(12) . . .
142(12) . . .
147(12) . . .
155(12) . . .
146(12) . . .
143(12) . . .
138(12) . . .
134(12) . . .
142(12) . . .
141(12) . . .
166(13) . . .
162(13) . . .
150(12) . . .
162(13) . . .
144(12) . . .
137(12) . . .
156(12) . . .
148(12) . . .
171(13) . . .
171(13) . . .
170(13) . . .
160(13) . . .
157(13) . . .
185(14) . . .
152(12) . . .
175(13) . . .
147(12) . . .
161(13) . . .
173(13) . . .
160(13) . . .
175(13) . . .
184(14) . . .
170(13) . . .
191(14) . . .
163(13) . . .
185(14) . . .
157(13) . . .
190(14) . . .
190(14) . . .
205(14) . . .
193(14) . . .
191(14) . . .
193(14) . . .
206(14) . . .
185(14) . . .
181(13) . . .
212(15) . . .
238(15) . . .
221(15) . . .
215(15) . . .
224(15) . . .
225(15) . . .
226(15) . . .
237(15) . . .
243(16) . . .
242(16) . . .
251(16) . . .
240(15) . . .
229(15) . . .
233(15) . . .
260(16) . . .
253(16) . . .
271(16) . . .
254(16) . . .
260(16) . . .
304(17) . . .
289(17) . . .
334(18) . . .
316(18) . . .
325(18) . . .
329(18) . . .
333(18) . . .
329(18) . . .
327(18) . . .
334(18) . . .
348(19) . . .
401(20) . . .
367(19) . . .
363(19) . . .
409(20) . . .
382(20) . . .
435(21) . . .
421(21) . . .
397(20) . . .
443(21) . . .
443(21) . . .
489(22) . . .
496(22) . . .
481(22) . . .
501(22) . . .
568(24) . . .
553(24) . . .
593(24) . . .
572(24) . . .
614(25) . . .
671(26) . . .
684(26) . . .
686(26) . . .
702(26) . . .
715(27) . . .
757(28) . . .
758(28) . . .
827(29) . . .
809(28) . . .
833(29) . . .
810(28) . . .
891(30) . . .
939(31) . . .
923(30) . . .
927(30) . . .
954(31) . . .
992(31) . . .
950(31) . . .
961(31) . . .
987(31) . . .
1019(32) . . .
1014(32) . . .
1029(32) . . .
1040(32) . . .
1086(33) . . .
1064(33) . . .
1065(33) . . .
1070(33) . . .
1062(33) . . .
1104(33) . . .
1065(33) . . .
1033(32) . . .
998(32) . . .
965(31) . . .
990(31) . . .
983(31) . . .
1005(32) . . .
976(31) . . .
918(30) . . .
976(31) . . .
927(30) . . .
950(31) . . .
879(30) . . .
849(29) . . .
859(29) . . .
777(28) . . .
775(28) . . .
740(27) . . .
705(27) . . .
686(26) . . .
686(26) . . .
626(25) . . .
602(25) . . .
617(25) . . .
600(24) . . .
591(24) . . .
568(24) . . .
566(24) . . .
533(23) . . .
541(23) . . .
493(22) . . .
475(22) . . .
488(22) . . .
469(22) . . .
454(21) . . .
465(22) . . .
443(21) . . .
416(20) . . .
394(20) . . .
384(20) . . .
372(19) . . .
352(19) . . .
370(19) . . .
337(18) . . .
330(18) . . .
338(18) . . .
319(18) . . .
299(17) . . .
306(17) . . .
289(17) . . .
275(17) . . .
293(17) . . .
262(16) . . .
277(17) . . .
275(17) . . .
260(16) . . .
272(16) . . .
289(17) . . .
259(16) . . .
227(15) . . .
252(16) . . .
242(16) . . .
214(15) . . .
232(15) . . .
230(15) . . .
213(15) . . .
215(15) . . .
210(14) . . .
216(15) . . .
186(14) . . .
194(14) . . .
187(14) . . .
210(14) . . .
197(14) . . .
184(14) . . .
196(14) . . .
181(13) . . .
182(13) . . .
180(13) . . .
190(14) . . .
160(13) . . .
182(13) . . .
192(14) . . .
182(13) . . .
171(13) . . .
169(13) . . .
154(12) . . .
161(13) . . .
172(13) . . .
167(13) . . .
170(13) . . .
143(12) . . .
164(13) . . .
163(13) . . .
150(12) . . .
170(13) . . .
145(12) . . .
151(12) . . .
144(12) . . .
149(12) . . .
157(13) . . .
145(12) . . .
157(13) . . .
155(12) . . .
157(13) . . .
151(12) . . .
156(12) . . .
165(13) . . .
156(12) . . .
131(11) . . .
140(12) . . .
147(12) . . .
154(12) . . .
145(12) . . .
152(12) . . .
135(12) . . .
135(12) . . .
146(12) . . .
130(11) . . .
128(11) . . .
141(12) . . .
128(11) . . .
134(12) . . .
144(12) . . .
139(12) . . .
132(11) . . .
142(12) . . .
144(12) . . .
129(11) . . .
137(12) . . .
116(11) . . .
125(11) . . .
128(11) . . .
131(11) . . .
133(12) . . .
129(11) . . .
136(12) . . .
129(11) . . .
128(11) . . .
120(11) . . .
121(11) . . .
129(11) . . .
114(11) . . .
116(11) . . .
123(11) . . .
128(11) . . .
128(11) . . .
123(11) . . .
122(11) . . .
125(11) . . .
114(11) . . .
123(11) . . .
111(11) . . .
126(11) . . .
107(10) . . .
118(11) . . .
119(11) . . .
115(11) . . .
137(12) . . .
123(11) . . .
113(11) . . .
130(11) . . .
113(11) . . .
134(12) . . .
132(11) . . .
111(11) . . .
143(12) . . .
133(12) . . .
112(11) . . .
117(11) . . .
119(11) . . .
111(11) . . .
124(11) . . .
119(11) . . .
112(11) . . .
135(12) . . .
116(11) . . .
96(10) . . .
112(11) . . .
100(10) . . .
116(11) . . .
115(11) . . .
115(11) . . .
98(10) . . .
106(10) . . .
124(11) . . .
136(12) . . .
127(11) . . .
106(10) . . .
118(11) . . .
109(10) . . .
101(10) . . .
113(11) . . .
115(11) . . .
99(10) . . .
105(10) . . .
114(11) . . .
110(10) . . .
109(10) . . .
115(11) . . .
106(10) . . .
128(11) . . .
122(11) . . .
107(10) . . .
108(10) . . .
130(11) . . .
128(11) . . .
120(11) . . .
113(11) . . .
118(11) . . .
121(11) . . .
101(10) . . .
117(11) . . .
108(10) . . .
113(11) . . .
99(10) . . .
108(10) . . .
103(10) . . .
115(11) . . .
108(10) . . .
120(11) . . .
111(11) . . .
109(10) . . .
133(12) . . .
106(10) . . .
113(11) . . .
127(11) . . .
103(10) . . .
101(10) . . .
112(11) . . .
117(11) . . .
110(10) . . .
111(11) . . .
89(9) . . .
98(10) . . .
108(10) . . .
115(11) . . .
100(10) . . .
122(11) . . .
103(10) . . .
108(10) . . .
126(11) . . .
108(10) . . .
97(10) . . .
123(11) . . .
99(10) . . .
126(11) . . .
104(10) . . .
107(10) . . .
114(11) . . .
104(10) . . .
113(11) . . .
91(10) . . .
111(11) . . .
115(11) . . .
120(11) . . .
105(10) . . .
105(10) . . .
107(10) . . .
110(10) . . .
122(11) . . .
101(10) . . .
111(11) . . .
115(11) . . .
115(11) . . .
111(11) . . .
123(11) . . .
117(11) . . .
107(10) . . .
110(10) . . .
110(10) . . .
104(10) . . .
118(11) . . .
110(10) . . .
103(10) . . .
105(10) . . .
94(10) . . .
104(10) . . .
103(10) . . .
115(11) . . .
124(11) . . .
101(10) . . .
108(10) . . .
144(12) . . .
102(10) . . .
108(10) . . .
125(11) . . .
111(11) . . .
100(10) . . .
120(11) . . .
102(10) . . .
122(11) . . .
94(10) . . .
104(10) . . .
110(10) . . .
111(11) . . .
103(10) . . .
123(11) . . .
94(10) . . .
94(10) . . .
117(11) . . .
105(10) . . .
112(11) . . .
93(10) . . .
98(10) . . .
95(10) . . .
97(10) . . .
111(11) . . .
92(10) . . .
99(10) . . .
115(11) . . .
110(10) . . .
88(9) . . .
106(10) . . .
109(10) . . .
99(10) . . .
103(10) . . .
106(10) . . .
109(10) . . .
102(10) . . .
101(10) . . .
120(11) . . .
112(11) . . .
121(11) . . .
113(11) . . .
108(10) . . .
110(10) . . .
102(10) . . .
114(11) . . .
98(10) . . .
110(10) . . .
93(10) . . .
106(10) . . .
122(11) . . .
92(10) . . .
90(9) . . .
120(11) . . .
95(10) . . .
89(9) . . .
87(9) . . .
92(10) . . .
103(10) . . .
93(10) . . .
114(11) . . .
118(11) . . .
100(10) . . .
115(11) . . .
101(10) . . .
115(11) . . .
102(10) . . .
96(10) . . .
97(10) . . .
101(10) . . .
97(10) . . .
106(10) . . .
93(10) . . .
105(10) . . .
113(11) . . .
87(9) . . .
113(11) . . .
108(10) . . .
109(10) . . .
93(10) . . .
89(9) . . .
107(10) . . .
106(10) . . .
111(11) . . .
107(10) . . .
111(11) . . .
109(10) . . .
119(11) . . .
113(11) . . .
109(10) . . .
107(10) . . .
96(10) . . .
96(10) . . .
114(11) . . .
96(10) . . .
110(10) . . .
97(10) . . .
109(10) . . .
92(10) . . .
86(9) . . .
116(11) . . .
115(11) . . .
118(11) . . .
112(11) . . .
93(10) . . .
108(10) . . .
109(10) . . .
112(11) . . .
112(11) . . .
110(10) . . .
116(11) . . .
104(10) . . .
109(10) . . .
95(10) . . .
121(11) . . .
91(10) . . .
98(10) . . .
96(10) . . .
113(11) . . .
98(10) . . .
119(11) . . .
92(10) . . .
105(10) . . .
96(10) . . .
97(10) . . .
102(10) . . .
99(10) . . .
106(10) . . .
105(10) . . .
98(10) . . .
96(10) . . .
106(10) . . .
102(10) . . .
96(10) . . .
94(10) . . .
100(10) . . .
107(10) . . .
111(11) . . .
101(10) . . .
113(11) . . .
105(10) . . .
103(10) . . .
116(11) . . .
84(9) . . .
87(9) . . .
91(10) . . .
97(10) . . .
89(9) . . .
109(10) . . .
108(10) . . .
103(10) . . .
99(10) . . .
117(11) . . .
114(11) . . .
99(10) . . .
99(10) . . .
94(10) . . .
103(10) . . .
108(10) . . .
103(10) . . .
112(11) . . .
105(10) . . .
87(9) . . .
98(10) . . .
114(11) . . .
106(10) . . .
106(10) . . .
90(9) . . .
81(9) . . .
106(10) . . .
112(11) . . .
119(11) . . .
105(10) . . .
94(10) . . .
106(10) . . .
104(10) . . .
98(10) . . .
111(11) . . .
101(10) . . .
97(10) . . .
107(10) . . .
87(9) . . .
99(10) . . .
85(9) . . .
95(10) . . .
95(10) . . .
90(9) . . .
112(11) . . .
100(10) . . .
105(10) . . .
112(11) . . .
116(11) . . .
99(10) . . .
117(11) . . .
109(10) . . .
102(10) . . .
100(10) . . .
114(11) . . .
87(9) . . .
108(10) . . .
106(10) . . .
95(10) . . .
116(11) . . .
117(11) . . .
96(10) . . .
114(11) . . .
106(10) . . .
112(11) . . .
119(11) . . .
107(10) . . .
98(10) . . .
110(10) . . .
109(10) . . .
113(11) . . .
116(11) . . .
87(9) . . .
107(10) . . .
92(10) . . .
91(10) . . .
88(9) . . .
102(10) . . .
97(10) . . .
88(9) . . .
97(10) . . .
107(10) . . .
104(10) . . .
105(10) . . .
119(11) . . .
109(10) . . .
85(9) . . .
109(10) . . .
91(10) . . .
104(10) . . .
98(10) . . .
114(11) . . .
95(10) . . .
96(10) . . .
119(11) . . .
100(10) . . .
83(9) . . .
101(10) . . .
95(10) . . .
102(10) . . .
101(10) . . .
118(11) . . .
101(10) . . .
123(11) . . .
112(11) . . .
90(9) . . .
104(10) . . .
117(11) . . .
107(10) . . .
120(11) . . .
127(11) . . .
128(11) . . .
103(10) . . .
147(12) . . .
130(11) . . .
133(12) . . .
123(11) . . .
129(11) . . .
137(12) . . .
102(10) . . .
115(11) . . .
110(10) . . .
115(11) . . .
131(11) . . .
132(11) . . .
109(10) . . .
124(11) . . .
110(10) . . .
122(11) . . .
121(11) . . .
108(10) . . .
103(10) . . .
115(11) . . .
118(11) . . .
109(10) . . .
122(11) . . .
113(11) . . .
96(10) . . .
115(11) . . .
111(11) . . .
103(10) . . .
103(10) . . .
105(10) . . .
84(9) . . .
106(10) . . .
98(10) . . .
97(10) . . .
113(11) . . .
107(10) . . .
106(10) . . .
107(10) . . .
101(10) . . .
97(10) . . .
95(10) . . .
119(11) . . .
112(11) . . .
101(10) . . .
95(10) . . .
88(9) . . .
100(10) . . .
121(11) . . .
106(10) . . .
107(10) . . .
92(10) . . .
107(10) . . .
107(10) . . .
102(10) . . .
107(10) . . .
106(10) . . .
108(10) . . .
115(11) . . .
118(11) . . .
111(11) . . .
112(11) . . .
115(11) . . .
108(10) . . .
113(11) . . .
104(10) . . .
100(10) . . .
94(10) . . .
112(11) . . .
106(10) . . .
112(11) . . .
123(11) . . .
89(9) . . .
90(9) . . .
96(10) . . .
102(10) . . .
95(10) . . .
97(10) . . .
101(10) . . .
96(10) . . .
111(11) . . .
108(10) . . .
99(10) . . .
107(10) . . .
94(10) . . .
108(10) . . .
106(10) . . .
92(10) . . .
102(10) . . .
87(9) . . .
106(10) . . .
97(10) . . .
117(11) . . .
91(10) . . .
107(10) . . .
99(10) . . .
90(9) . . .
111(11) . . .
102(10) . . .
96(10) . . .
113(11) . . .
101(10) . . .
108(10) . . .
93(10) . . .
115(11) . . .
104(10) . . .
88(9) . . .
105(10) . . .
93(10) . . .
102(10) . . .
104(10) . . .
94(10) . . .
104(10) . . .
103(10) . . .
109(10) . . .
114(11) . . .
110(10) . . .
103(10) . . .
99(10) . . .
100(10) . . .
94(10) . . .
84(9) . . .
117(11) . . .
112(11) . . .
119(11) . . .
107(10) . . .
110(10) . . .
91(10) . . .
101(10) . . .
98(10) . . .
98(10) . . .
102(10) . . .
101(10) . . .
104(10) . . .
89(9) . . .
107(10) . . .
99(10) . . .
107(10) . . .
102(10) . . .
102(10) . . .
97(10) . . .
91(10) . . .
100(10) . . .
91(10) . . .
89(9) . . .
95(10) . . .
96(10) . . .
113(11) . . .
83(9) . . .
93(10) . . .
99(10) . . .
103(10) . . .
99(10) . . .
95(10) . . .
96(10) . . .
109(10) . . .
97(10) . . .
84(9) . . .
92(10) . . .
123(11) . . .
107(10) . . .
105(10) . . .
103(10) . . .
105(10) . . .
94(10) . . .
113(11) . . .
109(10) . . .
103(10) . . .
86(9) . . .
91(10) . . .
108(10) . . .
110(10) . . .
104(10) . . .
104(10) . . .
109(10) . . .
89(9) . . .
95(10) . . .
110(10) . . .
103(10) . . .
102(10) . . .
105(10) . . .
108(10) . . .
90(9) . . .
85(9) . . .
95(10) . . .
102(10) . . .
94(10) . . .
103(10) . . .
101(10) . . .
92(10) . . .
101(10) . . .
104(10) . . .
96(10) . . .
92(10) . . .
93(10) . . .
109(10) . . .
86(9) . . .
99(10) . . .
98(10) . . .
80(9) . . .
86(9) . . .
104(10) . . .
97(10) . . .
75(9) . . .
99(10) . . .
90(9) . . .
113(11) . . .
96(10) . . .
84(9) . . .
99(10) . . .
95(10) . . .
97(10) . . .
100(10) . . .
98(10) . . .
99(10) . . .
95(10) . . .
116(11) . . .
98(10) . . .
93(10) . . .
93(10) . . .
98(10) . . .
101(10) . . .
107(10) . . .
107(10) . . .
105(10) . . .
102(10) . . .
106(10) . . .
90(9) . . .
108(10) . . .
97(10) . . .
101(10) . . .
112(11) . . .
100(10) . . .
108(10) . . .
88(9) . . .
116(11) . . .
102(10) . . .
101(10) . . .
86(9) . . .
107(10) . . .
98(10) . . .
98(10) . . .
101(10) . . .
89(9) . . .
102(10) . . .
96(10) . . .
113(11) . . .
98(10) . . .
105(10) . . .
104(10) . . .
99(10) . . .
107(10) . . .
103(10) . . .
106(10) . . .
97(10) . . .
103(10) . . .
98(10) . . .
95(10) . . .
104(10) . . .
86(9) . . .
98(10) . . .
97(10) . . .
93(10) . . .
99(10) . . .
93(10) . . .
103(10) . . .
97(10) . . .
103(10) . . .
111(11) . . .
110(10) . . .
111(11) . . .
105(10) . . .
111(11) . . .
105(10) . . .
94(10) . . .
86(9) . . .
90(9) . . .
102(10) . . .
103(10) . . .
93(10) . . .
86(9) . . .
99(10) . . .
94(10) . . .
104(10) . . .
97(10) . . .
102(10) . . .
113(11) . . .
104(10) . . .
107(10) . . .
92(10) . . .
103(10) . . .
94(10) . . .
99(10) . . .
101(10) . . .
87(9) . . .
97(10) . . .
110(10) . . .
107(10) . . .
92(10) . . .
93(10) . . .
98(10) . . .
105(10) . . .
89(9) . . .
99(10) . . .
95(10) . . .
89(9) . . .
96(10) . . .
89(9) . . .
96(10) . . .
96(10) . . .
87(9) . . .
115(11) . . .
112(11) . . .
94(10) . . .
106(10) . . .
92(10) . . .
102(10) . . .
100(10) . . .
99(10) . . .
88(9) . . .
85(9) . . .
97(10) . . .
122(11) . . .
100(10) . . .
107(10) . . .
106(10) . . .
103(10) . . .
120(11) . . .
98(10) . . .
94(10) . . .
103(10) . . .
110(10) . . .
95(10) . . .
96(10) . . .
101(10) . . .
88(9) . . .
96(10) . . .
91(10) . . .
119(11) . . .
103(10) . . .
110(10) . . .
101(10) . . .
85(9) . . .
105(10) . . .
108(10) . . .
98(10) . . .
108(10) . . .
98(10) . . .
105(10) . . .
104(10) . . .
101(10) . . .
100(10) . . .
100(10) . . .
103(10) . . .
97(10) . . .
80(9) . . .
106(10) . . .
103(10) . . .
86(9) . . .
85(9) . . .
97(10) . . .
84(9) . . .
91(10) . . .
95(10) . . .
86(9) . . .
81(9) . . .
85(9) . . .
118(11) . . .
97(10) . . .
81(9) . . .
104(10) . . .
80(9) . . .
87(9) . . .
89(9) . . .
91(10) . . .
118(11) . . .
126(11) . . .
98(10) . . .
97(10) . . .
82(9) . . .
105(10) . . .
93(10) . . .
109(10) . . .
89(9) . . .
106(10) . . .
97(10) . . .
94(10) . . .
93(10) . . .
87(9) . . .
108(10) . . .
116(11) . . .
100(10) . . .
86(9) . . .
108(10) . . .
91(10) . . .
105(10) . . .
85(9) . . .
113(11) . . .
94(10) . . .
93(10) . . .
95(10) . . .
101(10) . . .
97(10) . . .
93(10) . . .
104(10) . . .
89(9) . . .
99(10) . . .
103(10) . . .
94(10) . . .
93(10) . . .
104(10) . . .
102(10) . . .
99(10) . . .
113(11) . . .
112(11) . . .
101(10) . . .
121(11) . . .
94(10) . . .
97(10) . . .
100(10) . . .
95(10) . . .
105(10) . . .
104(10) . . .
96(10) . . .
94(10) . . .
93(10) . . .
88(9) . . .
92(10) . . .
84(9) . . .
100(10) . . .
118(11) . . .
75(9) . . .
110(10) . . .
101(10) . . .
95(10) . . .
89(9) . . .
98(10) . . .
96(10) . . .
124(11) . . .
95(10) . . .
99(10) . . .
93(10) . . .
98(10) . . .
107(10) . . .
98(10) . . .
93(10) . . .
111(11) . . .
99(10) . . .
81(9) . . .
89(9) . . .
116(11) . . .
105(10) . . .
93(10) . . .
89(9) . . .
87(9) . . .
101(10) . . .
83(9) . . .
108(10) . . .
86(9) . . .
103(10) . . .
100(10) . . .
87(9) . . .
97(10) . . .
86(9) . . .
103(10) . . .
104(10) . . .
97(10) . . .
98(10) . . .
94(10) . . .
99(10) . . .
105(10) . . .
92(10) . . .
99(10) . . .
98(10) . . .
98(10) . . .
103(10) . . .
96(10) . . .
95(10) . . .
109(10) . . .
93(10) . . .
98(10) . . .
121(11) . . .
115(11) . . .
109(10) . . .
115(11) . . .
112(11) . . .
85(9) . . .
104(10) . . .
101(10) . . .
102(10) . . .
106(10) . . .
96(10) . . .
99(10) . . .
94(10) . . .
105(10) . . .
100(10) . . .
95(10) . . .
100(10) . . .
102(10) . . .
92(10) . . .
103(10) . . .
111(11) . . .
107(10) . . .
88(9) . . .
108(10) . . .
99(10) . . .
109(10) . . .
97(10) . . .
116(11) . . .
92(10) . . .
105(10) . . .
86(9) . . .
113(11) . . .
91(10) . . .
93(10) . . .
102(10) . . .
95(10) . . .
99(10) . . .
104(10) . . .
102(10) . . .
97(10) . . .
88(9) . . .
85(9) . . .
86(9) . . .
98(10) . . .
97(10) . . .
110(10) . . .
106(10) . . .
76(9) . . .
103(10) . . .
95(10) . . .
102(10) . . .
88(9) . . .
106(10) . . .
105(10) . . .
83(9) . . .
96(10) . . .
95(10) . . .
98(10) . . .
102(10) . . .
95(10) . . .
105(10) . . .
84(9) . . .
83(9) . . .
89(9) . . .
89(9) . . .
88(9) . . .
98(10) . . .
99(10) . . .
90(9) . . .
103(10) . . .
105(10) . . .
85(9) . . .
98(10) . . .
87(9) . . .
125(11) . . .
96(10) . . .
97(10) . . .
100(10) . . .
91(10) . . .
87(9) . . .
119(11) . . .
98(10) . . .
100(10) . . .
92(10) . . .
109(10) . . .
103(10) . . .
88(9) . . .
102(10) . . .
97(10) . . .
83(9) . . .
99(10) . . .
96(10) . . .
100(10) . . .
89(9) . . .
107(10) . . .
118(11) . . .
103(10) . . .
91(10) . . .
106(10) . . .
109(10) . . .
97(10) . . .
83(9) . . .
108(10) . . .
115(11) . . .
89(9) . . .
104(10) . . .
108(10) . . .
113(11) . . .
112(11) . . .
98(10) . . .
98(10) . . .
101(10) . . .
89(9) . . .
89(9) . . .
92(10) . . .
95(10) . . .
96(10) . . .
85(9) . . .
97(10) . . .
90(9) . . .
96(10) . . .
81(9) . . .
98(10) . . .
99(10) . . .
100(10) . . .
113(11) . . .
99(10) . . .
106(10) . . .
101(10) . . .
93(10) . . .
89(9) . . .
82(9) . . .
95(10) . . .
101(10) . . .
96(10) . . .
94(10) . . .
98(10) . . .
96(10) . . .
99(10) . . .
98(10) . . .
90(9) . . .
92(10) . . .
97(10) . . .
90(9) . . .
114(11) . . .
87(9) . . .
98(10) . . .
94(10) . . .
90(9) . . .
89(9) . . .
88(9) . . .
94(10) . . .
87(9) . . .
97(10) . . .
104(10) . . .
95(10) . . .
86(9) . . .
87(9) . . .
87(9) . . .
100(10) . . .
101(10) . . .
113(11) . . .
90(9) . . .
106(10) . . .
105(10) . . .
87(9) . . .
106(10) . . .
91(10) . . .
96(10) . . .
97(10) . . .
86(9) . . .
95(10) . . .
91(10) . . .
93(10) . . .
101(10) . . .
105(10) . . .
98(10) . . .
97(10) . . .
95(10) . . .
89(9) . . .
106(10) . . .
92(10) . . .
82(9) . . .
102(10) . . .
95(10) . . .
105(10) . . .
90(9) . . .
97(10) . . .
89(9) . . .
94(10) . . .
87(9) . . .
99(10) . . .
100(10) . . .
103(10) . . .
95(10) . . .
94(10) . . .
88(9) . . .
96(10) . . .
109(10) . . .
95(10) . . .
85(9) . . .
94(10) . . .
100(10) . . .
96(10) . . .
91(10) . . .
91(10) . . .
87(9) . . .
89(9) . . .
101(10) . . .
106(10) . . .
92(10) . . .
89(9) . . .
93(10) . . .
106(10) . . .
102(10) . . .
114(11) . . .
90(9) . . .
86(9) . . .
97(10) . . .
104(10) . . .
101(10) . . .
104(10) . . .
94(10) . . .
98(10) . . .
95(10) . . .
90(9) . . .
92(10) . . .
103(10) . . .
96(10) . . .
90(9) . . .
113(11) . . .
99(10) . . .
109(10) . . .
110(10) . . .
100(10) . . .
95(10) . . .
97(10) . . .
108(10) . . .
90(9) . . .
94(10) . . .
102(10) . . .
97(10) . . .
96(10) . . .
86(9) . . .
81(9) . . .
90(9) . . .
83(9) . . .
106(10) . . .
85(9) . . .
88(9) . . .
93(10) . . .
91(10) . . .
83(9) . . .
114(11) . . .
84(9) . . .
96(10) . . .
107(10) . . .
87(9) . . .
93(10) . . .
103(10) . . .
104(10) . . .
91(10) . . .
94(10) . . .
91(10) . . .
113(11) . . .
103(10) . . .
87(9) . . .
92(10) . . .
96(10) . . .
91(10) . . .
83(9) . . .
106(10) . . .
92(10) . . .
95(10) . . .
112(11) . . .
99(10) . . .
94(10) . . .
104(10) . . .
99(10) . . .
92(10) . . .
110(10) . . .
81(9) . . .
118(11) . . .
110(10) . . .
90(9) . . .
101(10) . . .
99(10) . . .
95(10) . . .
92(10) . . .
113(11) . . .
97(10) . . .
98(10) . . .
101(10) . . .
90(9) . . .
90(9) . . .
108(10) . . .
88(9) . . .
111(11) . . .
96(10) . . .
84(9) . . .
88(9) . . .
81(9) . . .
101(10) . . .
82(9) . . .
92(10) . . .
90(9) . . .
93(10) . . .
106(10) . . .
97(10) . . .
98(10) . . .
90(9) . . .
112(11) . . .
97(10) . . .
94(10) . . .
98(10) . . .
91(10) . . .
101(10) . . .
107(10) . . .
114(11) . . .
98(10) . . .
107(10) . . .
100(10) . . .
93(10) . . .
103(10) . . .
106(10) . . .
111(11) . . .
86(9) . . .
124(11) . . .
104(10) . . .
98(10) . . .
94(10) . . .
85(9) . . .
95(10) . . .
98(10) . . .
119(11) . . .
100(10) . . .
82(9) . . .
107(10) . . .
93(10) . . .
101(10) . . .
96(10) . . .
110(10) . . .
107(10) . . .
99(10) . . .
86(9) . . .
86(9) . . .
81(9) . . .
99(10) . . .
89(9) . . .
109(10) . . .
114(11) . . .
96(10) . . .
97(10) . . .
104(10) . . .
91(10) . . .
118(11) . . .
103(10) . . .
93(10) . . .
96(10) . . .
91(10) . . .
102(10) . . .
98(10) . . .
107(10) . . .
105(10) . . .
110(10) . . .
92(10) . . .
86(9) . . .
90(9) . . .
86(9) . . .
94(10) . . .
96(10) . . .
99(10) . . .
94(10) . . .
107(10) . . .
100(10) . . .
94(10) . . .
100(10) . . .
92(10) . . .
102(10) . . .
101(10) . . .
91(10) . . .
102(10) . . .
101(10) . . .
108(10) . . .
99(10) . . .
98(10) . . .
89(9) . . .
95(10) . . .
102(10) . . .
110(10) . . .
104(10) . . .
92(10) . . .
80(9) . . .
77(9) . . .
86(9) . . .
95(10) . . .
123(11) . . .
95(10) . . .
100(10) . . .
97(10) . . .
86(9) . . .
93(10) . . .
111(11) . . .
91(10) . . .
67(8) . . .
84(9) . . .
84(9) . . .
84(9) . . .
96(10) . . .
87(9) . . .
102(10) . . .
110(10) . . .
95(10) . . .
96(10) . . .
83(9) . . .
95(10) . . .
92(10) . . .
87(9) . . .
89(9) . . .
88(9) . . .
109(10) . . .
95(10) . . .
103(10) . . .
107(10) . . .
89(9) . . .
119(11) . . .
105(10) . . .
113(11) . . .
105(10) . . .
109(10) . . .
108(10) . . .
103(10) . . .
97(10) . . .
89(9) . . .
103(10) . . .
104(10) . . .
94(10) . . .
105(10) . . .
104(10) . . .
93(10) . . .
113(11) . . .
113(11) . . .
92(10) . . .
115(11) . . .
102(10) . . .
91(10) . . .
103(10) . . .
101(10) . . .
88(9) . . .
98(10) . . .
105(10) . . .
94(10) . . .
94(10) . . .
87(9) . . .
86(9) . . .
92(10) . . .
85(9) . . .
91(10) . . .
82(9) . . .
91(10) . . .
92(10) . . .
88(9) . . .
92(10) . . .
88(9) . . .
96(10) . . .
97(10) . . .
91(10) . . .
93(10) . . .
96(10) . . .
90(9) . . .
84(9) . . .
93(10) . . .
92(10) . . .
99(10) . . .
109(10) . . .
90(9) . . .
110(10) . . .
111(11) . . .
89(9) . . .
83(9) . . .
96(10) . . .
101(10) . . .
88(9) . . .
94(10) . . .
83(9) . . .
90(9) . . .
81(9) . . .
99(10) . . .
104(10) . . .
101(10) . . .
109(10) . . .
111(11) . . .
82(9) . . .
73(9) . . .
99(10) . . .
102(10) . . .
101(10) . . .
76(9) . . .
92(10) . . .
82(9) . . .
90(9) . . .
100(10) . . .
94(10) . . .
105(10) . . .
99(10) . . .
103(10) . . .
110(10) . . .
91(10) . . .
102(10) . . .
101(10) . . .
96(10) . . .
84(9) . . .
104(10) . . .
92(10) . . .
99(10) . . .
101(10) . . .
87(9) . . .
92(10) . . .
78(9) . . .
110(10) . . .
113(11) . . .
95(10) . . .
105(10) . . .
90(9) . . .
93(10) . . .
88(9) . . .
88(9) . . .
92(10) . . .
93(10) . . .
94(10) . . .
88(9) . . .
96(10) . . .
106(10) . . .
94(10) . . .
94(10) . . .
90(9) . . .
93(10) . . .
104(10) . . .
92(10) . . .
112(11) . . .
95(10) . . .
97(10) . . .
99(10) . . .
76(9) . . .
89(9) . . .
106(10) . . .
95(10) . . .
101(10) . . .
114(11) . . .
86(9) . . .
106(10) . . .
90(9) . . .
89(9) . . .
101(10) . . .
92(10) . . .
107(10) . . .
90(9) . . .
112(11) . . .
102(10) . . .
95(10) . . .
101(10) . . .
95(10) . . .
82(9) . . .
98(10) . . .
88(9) . . .
80(9) . . .
102(10) . . .
95(10) . . .
90(9) . . .
106(10) . . .
107(10) . . .
99(10) . . .
85(9) . . .
76(9) . . .
91(10) . . .
100(10) . . .
95(10) . . .
86(9) . . .
93(10) . . .
91(10) . . .
100(10) . . .
113(11) . . .
104(10) . . .
94(10) . . .
91(10) . . .
98(10) . . .
91(10) . . .
82(9) . . .
91(10) . . .
104(10) . . .
115(11) . . .
91(10) . . .
96(10) . . .
91(10) . . .
88(9) . . .
112(11) . . .
98(10) . . .
93(10) . . .
93(10) . . .
77(9) . . .
97(10) . . .
87(9) . . .
89(9) . . .
95(10) . . .
87(9) . . .
95(10) . . .
91(10) . . .
89(9) . . .
85(9) . . .
95(10) . . .
98(10) . . .
104(10) . . .
100(10) . . .
101(10) . . .
98(10) . . .
96(10) . . .
107(10) . . .
99(10) . . .
89(9) . . .
108(10) . . .
77(9) . . .
89(9) . . .
92(10) . . .
100(10) . . .
80(9) . . .
104(10) . . .
92(10) . . .
107(10) . . .
106(10) . . .
99(10) . . .
99(10) . . .
89(9) . . .
90(9) . . .
85(9) . . .
86(9) . . .
94(10) . . .
97(10) . . .
95(10) . . .
83(9) . . .
94(10) . . .
103(10) . . .
95(10) . . .
99(10) . . .
100(10) . . .
99(10) . . .
102(10) . . .
102(10) . . .
97(10) . . .
97(10) . . .
110(10) . . .
95(10) . . .
95(10) . . .
93(10) . . .
96(10) . . .
87(9) . . .
101(10) . . .
82(9) . . .
108(10) . . .
108(10) . . .
99(10) . . .
93(10) . . .
88(9) . . .
99(10) . . .
84(9) . . .
88(9) . . .
102(10) . . .
91(10) . . .
99(10) . . .
93(10) . . .
85(9) . . .
84(9) . . .
85(9) . . .
111(11) . . .
89(9) . . .
94(10) . . .
90(9) . . .
88(9) . . .
104(10) . . .
87(9) . . .
93(10) . . .
91(10) . . .
89(9) . . .
88(9) . . .
83(9) . . .
91(10) . . .
84(9) . . .
83(9) . . .
94(10) . . .
95(10) . . .
76(9) . . .
83(9) . . .
92(10) . . .
109(10) . . .
94(10) . . .
91(10) . . .
92(10) . . .
94(10) . . .
90(9) . . .
92(10) . . .
108(10) . . .
99(10) . . .
96(10) . . .
94(10) . . .
90(9) . . .
91(10) . . .
89(9) . . .
81(9) . . .
107(10) . . .
97(10) . . .
112(11) . . .
94(10) . . .
95(10) . . .
92(10) . . .
89(9) . . .
95(10) . . .
78(9) . . .
84(9) . . .
101(10) . . .
98(10) . . .
104(10) . . .
92(10) . . .
111(11) . . .
101(10) . . .
101(10) . . .
108(10) . . .
97(10) . . .
90(9) . . .
86(9) . . .
96(10) . . .
82(9) . . .
93(10) . . .
91(10) . . .
86(9) . . .
87(9) . . .
71(8) . . .
93(10) . . .
90(9) . . .
94(10) . . .
102(10) . . .
102(10) . . .
96(10) . . .
95(10) . . .
77(9) . . .
84(9) . . .
99(10) . . .
106(10) . . .
92(10) . . .
108(10) . . .
87(9) . . .
91(10) . . .
95(10) . . .
89(9) . . .
88(9) . . .
102(10) . . .
108(10) . . .
85(9) . . .
89(9) . . .
104(10) . . .
98(10) . . .
89(9) . . .
90(9) . . .
96(10) . . .
90(9) . . .
98(10) . . .
91(10) . . .
92(10) . . .
119(11) . . .
92(10) . . .
102(10) . . .
108(10) . . .
81(9) . . .
90(9) . . .
88(9) . . .
83(9) . . .
87(9) . . .
97(10) . . .
102(10) . . .
84(9) . . .
91(10) . . .
94(10) . . .
96(10) . . .
98(10) . . .
99(10) . . .
90(9) . . .
86(9) . . .
91(10) . . .
90(9) . . .
97(10) . . .
89(9) . . .
85(9) . . .
82(9) . . .
80(9) . . .
102(10) . . .
106(10) . . .
109(10) . . .
100(10) . . .
99(10) . . .
83(9) . . .
103(10) . . .
92(10) . . .
94(10) . . .
92(10) . . .
102(10) . . .
93(10) . . .
92(10) . . .
113(11) . . .
77(9) . . .
90(9) . . .
108(10) . . .
103(10) . . .
86(9) . . .
87(9) . . .
82(9) . . .
108(10) . . .
100(10) . . .
101(10) . . .
98(10) . . .
105(10) . . .
89(9) . . .
91(10) . . .
86(9) . . .
94(10) . . .
94(10) . . .
88(9) . . .
68(8) . . .
94(10) . . .
99(10) . . .
96(10) . . .
93(10) . . .
95(10) . . .
99(10) . . .
93(10) . . .
101(10) . . .
97(10) . . .
105(10) . . .
100(10) . . .
79(9) . . .
84(9) . . .
82(9) . . .
68(8) . . .
102(10) . . .
102(10) . . .
91(10) . . .
99(10) . . .
87(9) . . .
97(10) . . .
99(10) . . .
97(10) . . .
108(10) . . .
90(9) . . .
92(10) . . .
93(10) . . .
107(10) . . .
92(10) . . .
92(10) . . .
92(10) . . .
104(10) . . .
94(10) . . .
101(10) . . .
91(10) . . .
96(10) . . .
94(10) . . .
90(9) . . .
107(10) . . .
103(10) . . .
82(9) . . .
93(10) . . .
96(10) . . .
99(10) . . .
101(10) . . .
88(9) . . .
94(10) . . .
117(11) . . .
89(9) . . .
97(10) . . .
95(10) . . .
99(10) . . .
93(10) . . .
100(10) . . .
86(9) . . .
117(11) . . .
92(10) . . .
97(10) . . .
110(10) . . .
101(10) . . .
93(10) . . .
98(10) . . .
92(10) . . .
107(10) . . .
108(10) . . .
102(10) . . .
108(10) . . .
115(11) . . .
100(10) . . .
95(10) . . .
102(10) . . .
79(9) . . .
82(9) . . .
72(8) . . .
91(10) . . .
100(10) . . .
103(10) . . .
97(10) . . .
83(9) . . .
92(10) . . .
104(10) . . .
86(9) . . .
122(11) . . .
83(9) . . .
105(10) . . .
118(11) . . .
112(11) . . .
95(10) . . .
118(11) . . .
87(9) . . .
91(10) . . .
105(10) . . .
105(10) . . .
99(10) . . .
116(11) . . .
113(11) . . .
95(10) . . .
103(10) . . .
99(10) . . .
101(10) . . .
110(10) . . .
103(10) . . .
89(9) . . .
88(9) . . .
107(10) . . .
112(11) . . .
102(10) . . .
95(10) . . .
118(11) . . .
88(9) . . .
96(10) . . .
88(9) . . .
119(11) . . .
110(10) . . .
97(10) . . .
103(10) . . .
111(11) . . .
94(10) . . .
118(11) . . .
94(10) . . .
105(10) . . .
130(11) . . .
114(11) . . .
119(11) . . .
106(10) . . .
112(11) . . .
114(11) . . .
104(10) . . .
120(11) . . .
119(11) . . .
133(12) . . .
107(10) . . .
92(10) . . .
137(12) . . .
126(11) . . .
115(11) . . .
108(10) . . .
117(11) . . .
118(11) . . .
109(10) . . .
108(10) . . .
116(11) . . .
113(11) . . .
127(11) . . .
114(11) . . .
119(11) . . .
109(10) . . .
138(12) . . .
118(11) . . .
113(11) . . .
123(11) . . .
124(11) . . .
124(11) . . .
137(12) . . .
126(11) . . .
129(11) . . .
127(11) . . .
137(12) . . .
139(12) . . .
129(11) . . .
117(11) . . .
122(11) . . .
131(11) . . .
144(12) . . .
142(12) . . .
128(11) . . .
141(12) . . .
128(11) . . .
157(13) . . .
137(12) . . .
147(12) . . .
168(13) . . .
151(12) . . .
132(11) . . .
182(13) . . .
151(12) . . .
166(13) . . .
164(13) . . .
157(13) . . .
155(12) . . .
158(13) . . .
172(13) . . .
167(13) . . .
179(13) . . .
181(13) . . .
182(13) . . .
184(14) . . .
179(13) . . .
177(13) . . .
180(13) . . .
184(14) . . .
177(13) . . .
179(13) . . .
186(14) . . .
219(15) . . .
183(14) . . .
202(14) . . .
213(15) . . .
198(14) . . .
187(14) . . .
206(14) . . .
199(14) . . .
206(14) . . .
193(14) . . .
223(15) . . .
222(15) . . .
217(15) . . .
206(14) . . .
221(15) . . .
217(15) . . .
216(15) . . .
228(15) . . .
223(15) . . .
217(15) . . .
244(16) . . .
217(15) . . .
202(14) . . .
226(15) . . .
221(15) . . .
228(15) . . .
219(15) . . .
225(15) . . .
207(14) . . .
193(14) . . .
199(14) . . .
174(13) . . .
182(13) . . .
196(14) . . .
185(14) . . .
219(15) . . .
215(15) . . .
194(14) . . .
173(13) . . .
173(13) . . .
175(13) . . .
174(13) . . .
180(13) . . .
174(13) . . .
153(12) . . .
171(13) . . .
174(13) . . .
159(13) . . .
183(14) . . .
163(13) . . .
148(12) . . .
141(12) . . .
171(13) . . .
159(13) . . .
161(13) . . .
159(13) . . .
167(13) . . .
153(12) . . .
125(11) . . .
160(13) . . .
130(11) . . .
158(13) . . .
150(12) . . .
133(12) . . .
129(11) . . .
116(11) . . .
135(12) . . .
142(12) . . .
134(12) . . .
132(11) . . .
130(11) . . .
127(11) . . .
129(11) . . .
124(11) . . .
120(11) . . .
134(12) . . .
125(11) . . .
131(11) . . .
118(11) . . .
115(11) . . .
131(11) . . .
125(11) . . .
126(11) . . .
113(11) . . .
115(11) . . .
124(11) . . .
120(11) . . .
121(11) . . .
114(11) . . .
119(11) . . .
124(11) . . .
118(11) . . .
116(11) . . .
111(11) . . .
101(10) . . .
116(11) . . .
103(10) . . .
113(11) . . .
132(11) . . .
118(11) . . .
106(10) . . .
106(10) . . .
94(10) . . .
115(11) . . .
110(10) . . .
109(10) . . .
127(11) . . .
111(11) . . .
101(10) . . .
113(11) . . .
103(10) . . .
94(10) . . .
102(10) . . .
113(11) . . .
108(10) . . .
111(11) . . .
117(11) . . .
98(10) . . .
97(10) . . .
119(11) . . .
99(10) . . .
93(10) . . .
89(9) . . .
110(10) . . .
99(10) . . .
107(10) . . .
93(10) . . .
109(10) . . .
102(10) . . .
102(10) . . .
112(11) . . .
96(10) . . .
116(11) . . .
108(10) . . .
87(9) . . .
105(10) . . .
108(10) . . .
106(10) . . .
110(10) . . .
99(10) . . .
98(10) . . .
97(10) . . .
116(11) . . .
103(10) . . .
81(9) . . .
102(10) . . .
102(10) . . .
91(10) . . .
114(11) . . .
98(10) . . .
104(10) . . .
81(9) . . .
108(10) . . .
91(10) . . .
97(10) . . .
100(10) . . .
102(10) . . .
98(10) . . .
111(11) . . .
98(10) . . .
94(10) . . .
95(10) . . .
92(10) . . .
111(11) . . .
98(10) . . .
86(9) . . .
99(10) . . .
88(9) . . .
83(9) . . .
115(11) . . .
102(10) . . .
114(11) . . .
102(10) . . .
118(11) . . .
89(9) . . .
97(10) . . .
100(10) . . .
103(10) . . .
108(10) . . .
98(10) . . .
103(10) . . .
93(10) . . .
91(10) . . .
99(10) . . .
102(10) . . .
97(10) . . .
91(10) . . .
79(9) . . .
99(10) . . .
97(10) . . .
100(10) . . .
99(10) . . .
105(10) . . .
87(9) . . .
95(10) . . .
91(10) . . .
88(9) . . .
96(10) . . .
83(9) . . .
88(9) . . .
100(10) . . .
92(10) . . .
78(9) . . .
89(9) . . .
87(9) . . .
87(9) . . .
93(10) . . .
97(10) . . .
89(9) . . .
102(10) . . .
89(9) . . .
95(10) . . .
78(9) . . .
77(9) . . .
82(9) . . .
79(9) . . .
85(9) . . .
87(9) . . .
94(10) . . .
93(10) . . .
93(10) . . .
96(10) . . .
84(9) . . .
98(10) . . .
90(9) . . .
109(10) . . .
82(9) . . .
101(10) . . .
101(10) . . .
97(10) . . .
106(10) . . .
112(11) . . .
90(9) . . .
94(10) . . .
92(10) . . .
98(10) . . .
90(9) . . .
99(10) . . .
86(9) . . .
92(10) . . .
76(9) . . .
81(9) . . .
106(10) . . .
84(9) . . .
84(9) . . .
96(10) . . .
92(10) . . .
94(10) . . .
85(9) . . .
96(10) . . .
74(9) . . .
88(9) . . .
103(10) . . .
87(9) . . .
90(9) . . .
77(9) . . .
77(9) . . .
95(10) . . .
91(10) . . .
87(9) . . .
92(10) . . .
100(10) . . .
88(9) . . .
91(10) . . .
98(10) . . .
98(10) . . .
87(9) . . .
96(10) . . .
96(10) . . .
112(11) . . .
98(10) . . .
88(9) . . .
95(10) . . .
96(10) . . .
95(10) . . .
81(9) . . .
89(9) . . .
98(10) . . .
96(10) . . .
87(9) . . .
89(9) . . .
110(10) . . .
96(10) . . .
93(10) . . .
86(9) . . .
88(9) . . .
97(10) . . .
96(10) . . .
90(9) . . .
98(10) . . .
95(10) . . .
92(10) . . .
101(10) . . .
94(10) . . .
92(10) . . .
96(10) . . .
80(9) . . .
85(9) . . .
82(9) . . .
83(9) . . .
86(9) . . .
89(9) . . .
96(10) . . .
91(10) . . .
73(9) . . .
88(9) . . .
104(10) . . .
89(9) . . .
80(9) . . .
95(10) . . .
99(10) . . .
104(10) . . .
87(9) . . .
85(9) . . .
99(10) . . .
97(10) . . .
103(10) . . .
97(10) . . .
73(9) . . .
87(9) . . .
94(10) . . .
88(9) . . .
94(10) . . .
95(10) . . .
95(10) . . .
99(10) . . .
82(9) . . .
83(9) . . .
97(10) . . .
94(10) . . .
88(9) . . .
82(9) . . .
105(10) . . .
81(9) . . .
97(10) . . .
114(11) . . .
83(9) . . .
102(10) . . .
85(9) . . .
93(10) . . .
96(10) . . .
102(10) . . .
83(9) . . .
71(8) . . .
93(10) . . .
91(10) . . .
91(10) . . .
104(10) . . .
82(9) . . .
109(10) . . .
84(9) . . .
88(9) . . .
92(10) . . .
109(10) . . .
87(9) . . .
108(10) . . .
95(10) . . .
91(10) . . .
83(9) . . .
100(10) . . .
96(10) . . .
92(10) . . .
84(9) . . .
104(10) . . .
91(10) . . .
94(10) . . .
79(9) . . .
82(9) . . .
99(10) . . .
105(10) . . .
89(9) . . .
114(11) . . .
93(10) . . .
101(10) . . .
81(9) . . .
108(10) . . .
101(10) . . .
90(9) . . .
90(9) . . .
89(9) . . .
93(10) . . .
96(10) . . .
102(10) . . .
98(10) . . .
100(10) . . .
87(9) . . .
95(10) . . .
92(10) . . .
102(10) . . .
85(9) . . .
83(9) . . .
97(10) . . .
83(9) . . .
79(9) . . .
101(10) . . .
96(10) . . .
102(10) . . .
92(10) . . .
83(9) . . .
95(10) . . .
97(10) . . .
107(10) . . .
88(9) . . .
101(10) . . .
95(10) . . .
93(10) . . .
91(10) . . .
85(9) . . .
79(9) . . .
100(10) . . .
88(9) . . .
85(9) . . .
85(9) . . .
92(10) . . .
99(10) . . .
99(10) . . .
85(9) . . .
82(9) . . .
78(9) . . .
110(10) . . .
91(10) . . .
93(10) . . .
99(10) . . .
74(9) . . .
83(9) . . .
93(10) . . .
92(10) . . .
101(10) . . .
92(10) . . .
94(10) . . .
93(10) . . .
97(10) . . .
107(10) . . .
97(10) . . .
84(9) . . .
81(9) . . .
90(9) . . .
99(10) . . .
97(10) . . .
107(10) . . .
86(9) . . .
89(9) . . .
99(10) . . .
112(11) . . .
91(10) . . .
99(10) . . .
27(5) . . .
0.00(10) . . .
0.00(10) . . .
0.00(10) . . .
0.0(10) . . .
loop_
_refln_index_h
_refln_index_k
_refln_index_l
_refln_observed_status
_refln_F_squared_meas
_refln_F_squared_calc
_refln_phase_calc
_refln_d_spacing
_gsas_i100_meas
0 2 0 o 1201.023 1340.481 180.00 8.21914 4.89
0 0 2 o 72.486 163.382 180.00 6.56904 0.19
1 0 1 o 12252.061 12798.230 0.00 5.86365 50.83
0 3 1 o 1179.686 1213.273 180.00 5.05722 3.64
0 2 2 o 31455.721 31209.064 0.00 5.13147 100.00
-1 2 1 o 2533.002 2406.224 0.00 4.79381 7.03
1 1 2 o 2584.380 2291.769 0.00 4.45647 6.20
1 2 1 o 1145.921 1109.344 0.00 4.75328 3.13
-1 1 2 o 6164.606 5659.532 0.00 4.47306 14.90
0 4 0 o 2748.183 1117.430 0.00 4.10957 2.80
1 0 3 o 283.901 224.756 180.00 3.64101 0.46
0 0 4 o 314.484 304.386 180.00 3.28452 0.21
1 2 3 o 100.345 85.012 0.00 3.32214 0.13
-1 4 1 o 764.169 767.807 180.00 3.37963 1.06
0 3 3 o 12598.496 11779.563 0.00 3.42098 17.85
1 3 2 o 2442.940 2675.660 0.00 3.52825 3.68
-1 2 3 o 2307.416 2058.035 0.00 3.33588 3.11
-1 3 2 o 5265.387 5618.392 0.00 3.55306 8.04
0 4 2 o 13.664 20.689 0.00 3.48397 0.02
1 4 1 o 1180.156 1119.037 180.00 3.35122 1.60
0 5 1 o 30.321 29.079 180.00 3.18932 0.04
0 2 4 o 1474.281 1264.264 0.00 3.05000 1.66
1 1 4 o 193.387 102.640 0.00 2.88828 0.20
-1 1 4 o 228.692 118.739 0.00 2.89278 0.23
2 0 0 o 2419.840 2274.197 180.00 3.27622 1.57
2 1 1 o 1276.263 940.431 180.00 3.11540 1.50
-2 1 1 o 648.055 576.680 180.00 3.12673 0.77
0 1 5 o 1830.037 1888.807 180.00 2.59468 1.50
-2 2 0 o 154.274 143.413 0.00 3.05391 0.09
0 6 0 o 1308.947 1285.727 0.00 2.73971 0.60
2 2 0 o 16.937 12.066 180.00 3.03290 0.01
2 0 2 o 367.567 184.135 0.00 2.93182 0.38
1 0 5 o 693.225 789.653 180.00 2.43883 0.50
-1 5 2 o 3438.066 3563.139 180.00 2.69141 3.02
-2 3 1 o 944.991 858.364 0.00 2.76134 0.87
1 3 4 o 569.001 578.301 180.00 2.58327 0.46
2 2 2 o 3317.884 3173.709 180.00 2.75359 3.05
2 3 1 o 287.540 285.093 0.00 2.73810 0.26
-2 2 2 o 1253.769 1146.772 180.00 2.76928 1.17
1 4 3 o 3554.598 3726.108 0.00 2.71774 3.19
-1 3 4 o 875.414 848.065 0.00 2.59296 0.71
2 1 3 o 1254.040 1246.576 0.00 2.58735 1.02
-1 6 1 o 1515.802 1983.411 0.00 2.49073 1.14
-1 4 3 o 8046.993 8206.302 0.00 2.73283 7.29
1 5 2 o 2218.298 2282.235 180.00 2.67343 1.92
-2 1 3 o 1044.357 992.574 0.00 2.59383 0.85
-2 4 0 o 2016.602 2070.986 180.00 2.57439 0.81
0 6 2 o 191.750 360.831 0.00 2.52861 0.15
0 4 4 o 10632.509 11242.980 0.00 2.56573 8.50
0 0 6 o 2792.142 2803.584 0.00 2.18968 0.82
0 3 5 o 142.263 117.545 0.00 2.36928 0.10
2 4 0 o 1053.873 1010.064 180.00 2.54934 0.42
1 6 1 o 56.726 83.436 0.00 2.47364 0.04
0 5 3 o 333.763 471.599 180.00 2.62922 0.28
0 2 6 o 343.456 369.175 180.00 2.11588 0.19
-2 4 2 o 82.753 123.761 180.00 2.39690 0.06
2 3 3 o 994.832 680.205 180.00 2.35879 0.67
-1 1 6 o 611.735 492.836 180.00 2.06122 0.32
1 1 6 o 2882.987 2286.342 180.00 2.05959 1.49
2 4 2 o 425.247 430.487 180.00 2.37664 0.29
-2 3 3 o 156.553 138.136 0.00 2.37360 0.11
2 2 4 o 93.516 137.614 0.00 2.22824 0.06
-2 2 4 o 2.043 1.797 180.00 2.23653 0.00
0 8 0 o 209.787 162.087 0.00 2.05479 0.05
-2 6 0 o 559.302 583.274 180.00 2.11215 0.15
-1 7 2 o 5852.005 5461.973 0.00 2.10121 3.15
2 1 5 o 2318.724 593.424 180.00 2.03248 1.17
1 4 5 o 1775.906 1645.064 180.00 2.09388 0.95
-1 6 3 o 6320.442 6170.337 180.00 2.19507 3.71
0 1 7 o 411.674 597.535 0.00 1.86475 0.18
-1 4 5 o 272.953 253.901 0.00 2.10076 0.15
-2 1 5 o 687.065 206.273 180.00 2.03561 0.35
1 5 4 o 4144.478 4093.512 0.00 2.18512 2.41
1 7 2 o 677.366 595.953 0.00 2.08921 0.36
1 6 3 o 3586.554 3569.532 180.00 2.18334 2.08
-1 3 6 o 334.260 299.061 0.00 1.94403 0.15
1 3 6 o 2091.903 1916.713 0.00 1.93994 0.96
-1 5 4 o 9507.993 9271.146 0.00 2.19490 5.58
2 6 0 o 4951.352 4578.118 180.00 2.09140 1.32
-1 8 1 o 1175.495 1047.029 180.00 1.94462 0.54
3 0 1 o 2963.185 2383.081 180.00 2.15458 1.68
1 0 7 o 1465.433 1273.038 0.00 1.80431 0.58
0 5 5 o 27064.410 21912.953 0.00 2.05259 13.92
0 4 6 o 2998.126 2720.036 180.00 1.93248 1.37
0 8 2 o 3875.824 3264.813 180.00 1.96108 1.82
0 7 3 o 7891.020 6897.012 0.00 2.06956 4.12
1 8 1 o 496.639 454.046 180.00 1.93376 0.23
-2 5 3 o 127.001 115.743 0.00 2.05864 0.07
3 2 1 o 8.050 4.342 0.00 2.07912 0.00
1 2 7 o 2420.254 2432.890 180.00 1.76132 0.92
2 3 5 o 1447.050 1201.018 0.00 1.91591 0.65
-3 2 1 o 228.136 209.588 0.00 2.08924 0.12
2 0 6 o 12.589 10.921 0.00 1.82050 0.01
2 5 3 o 472.701 235.940 0.00 2.04257 0.24
3 1 2 o 1816.437 1563.671 180.00 2.05388 0.94
0 6 4 o 8125.246 7738.831 180.00 2.10388 4.39
-2 7 1 o 52.207 37.597 180.00 1.89768 0.02
0 3 7 o 1521.932 1574.245 0.00 1.77559 0.59
-2 3 5 o 751.114 651.090 0.00 1.92383 0.34
-3 1 2 o 4433.853 4120.860 180.00 2.05874 2.29
-1 2 7 o 386.010 389.217 180.00 1.76336 0.15
0 9 1 o 5329.651 4583.093 0.00 1.80908 2.14
3 0 3 o 2814.721 2652.690 0.00 1.95455 1.31
0 0 8 o 3.055 4.094 180.00 1.64226 0.00
-2 2 6 o 1238.978 1322.029 180.00 1.77952 0.48
2 2 6 o 1277.042 1312.798 180.00 1.77534 0.49
2 7 1 o 1001.458 1193.983 180.00 1.88010 0.43
-3 4 1 o 1341.175 1097.279 180.00 1.91604 0.60
3 3 2 o 456.600 405.148 0.00 1.93247 0.21
-3 3 2 o 1773.274 1512.688 0.00 1.94468 0.82
3 2 3 o 3281.733 2165.922 180.00 1.89769 1.45
-3 2 3 o 7513.080 6005.206 180.00 1.90538 3.34
3 4 1 o 352.778 233.349 180.00 1.90050 0.16
-2 8 0 o 10.954 10.138 180.00 1.74866 0.00
0 2 8 o 916.564 1019.900 180.00 1.61043 0.29
-1 8 3 o 611.006 592.538 0.00 1.79377 0.24
3 1 4 o 3642.178 3072.016 0.00 1.80605 1.46
1 5 6 o 193.421 186.570 0.00 1.75329 0.07
-1 1 8 o 535.120 806.674 0.00 1.58593 0.17
1 1 8 o 748.383 1161.453 0.00 1.58519 0.23
-3 1 4 o 3544.975 3015.487 0.00 1.80936 1.42
-1 5 6 o 2957.497 3000.645 0.00 1.75834 1.12
-1 7 4 o 648.448 545.118 180.00 1.83798 0.27
1 6 5 o 21.567 18.476 0.00 1.81827 0.01
-1 4 7 o 280.214 331.560 180.00 1.65377 0.09
-1 9 2 o 121.427 126.461 0.00 1.70363 0.04
1 4 7 o 240.892 301.840 180.00 1.65041 0.08
-2 1 7 o 514.983 699.193 0.00 1.62142 0.17
-1 6 5 o 1691.001 1428.969 0.00 1.82503 0.69
2 1 7 o 149.331 189.380 0.00 1.61984 0.05
1 8 3 o 74.443 92.819 180.00 1.78523 0.03
0 10 0 o 8979.774 11579.975 180.00 1.64383 1.49
-2 7 3 o 1038.933 1071.891 180.00 1.75673 0.39
2 8 0 o 39.203 49.621 0.00 1.73294 0.01
1 7 4 o 223.349 171.860 180.00 1.82994 0.09
1 9 2 o 4.766 5.894 180.00 1.69540 0.00
2 5 5 o 3577.968 4249.270 180.00 1.73453 1.32
-2 8 2 o 19.034 19.151 0.00 1.68981 0.01
2 4 6 o 1765.983 1684.647 0.00 1.66107 0.60
3 0 5 o 3109.886 2499.041 180.00 1.67965 1.08
-3 5 2 o 49.841 49.359 0.00 1.76085 0.02
3 3 4 o 0.103 0.197 0.00 1.72184 0.00
3 4 3 o 341.041 347.681 180.00 1.75897 0.13
-2 6 4 o 894.961 856.129 0.00 1.77653 0.35
0 5 7 o 8.272 18.200 0.00 1.62996 0.00
1 3 8 o 126.077 225.762 0.00 1.52866 0.04
0 6 6 o 5033.118 4708.025 0.00 1.71049 1.81
-2 4 6 o 2848.760 2696.875 0.00 1.66794 0.97
2 6 4 o 1289.881 1239.955 0.00 1.76413 0.49
0 9 3 o 198.348 160.042 180.00 1.68574 0.07
-2 5 5 o 794.941 724.829 180.00 1.74433 0.30
2 7 3 o 1739.236 1589.893 180.00 1.74276 0.65
-3 6 1 o 1459.328 1589.386 180.00 1.70180 0.52
-3 4 3 o 17.170 17.776 180.00 1.77126 0.01
-1 10 1 o 973.559 1412.860 180.00 1.58651 0.30
-3 3 4 o 621.148 918.907 180.00 1.73046 0.23
2 3 7 o 870.731 1163.281 180.00 1.55895 0.26
3 5 2 o 707.975 639.361 0.00 1.74579 0.26
0 8 4 o 729.570 670.756 0.00 1.74199 0.27
-1 3 8 o 42.747 70.823 0.00 1.53066 0.01
0 1 9 o 2301.396 1875.508 0.00 1.45406 0.60
3 2 5 o 97.929 123.322 0.00 1.64315 0.03
0 4 8 o 46.677 97.643 180.00 1.52500 0.01
0 10 2 o 631.349 778.605 0.00 1.59466 0.20
2 8 2 o 146.629 135.062 180.00 1.67561 0.05
-2 9 1 o 9.444 12.176 180.00 1.59038 0.00
-2 3 7 o 2604.614 3583.079 180.00 1.56320 0.78
0 7 5 o 880.016 703.885 180.00 1.75096 0.33
-3 2 5 o 83.420 109.093 0.00 1.64813 0.03
3 6 1 o 1755.675 1329.673 180.00 1.68551 0.61
1 10 1 o 28.688 68.803 180.00 1.57913 0.01
2 0 8 o 863.016 817.567 180.00 1.46814 0.23
3 1 6 o 28.069 37.937 180.00 1.53856 0.01
2 9 1 o 46.564 129.048 180.00 1.57706 0.01
2 2 8 o 211.130 129.253 0.00 1.44414 0.05
0 11 1 o 4843.524 4720.733 180.00 1.48481 1.32
-3 1 6 o 57.708 74.585 180.00 1.54060 0.02
-2 10 0 o 59.390 55.048 180.00 1.47520 0.01
-2 2 8 o 3937.274 2600.052 0.00 1.44639 1.02
-3 6 3 o 215.450 238.976 0.00 1.59794 0.07
-3 7 2 o 1717.899 2223.423 180.00 1.56132 0.52
3 5 4 o 79.102 111.358 180.00 1.58585 0.02
3 4 5 o 2.905 3.564 0.00 1.55061 0.00
4 0 0 o 2545.445 3979.853 0.00 1.63811 0.42
1 6 7 o 0.338 0.534 0.00 1.50497 0.00
4 1 1 o 1858.351 1997.592 0.00 1.61606 0.60
-1 10 3 o 0.164 0.245 0.00 1.50136 0.00
-1 9 4 o 704.918 936.110 0.00 1.55405 0.21
3 6 3 o 215.062 341.248 0.00 1.58443 0.07
-3 5 4 o 225.967 242.517 180.00 1.59711 0.07
-4 1 1 o 815.861 810.454 0.00 1.61921 0.26
-3 8 1 o 64.922 99.606 0.00 1.49439 0.02
4 2 0 o 256.879 277.707 180.00 1.60343 0.04
-3 4 5 o 125.705 163.684 180.00 1.55901 0.04
-1 6 7 o 1479.269 2156.173 0.00 1.50880 0.42
-4 2 0 o 38.487 32.294 180.00 1.60961 0.01
-2 9 3 o 281.636 450.844 0.00 1.50463 0.08
3 3 6 o 72.389 69.099 0.00 1.48549 0.02
1 7 6 o 42.430 56.300 0.00 1.55325 0.01
4 0 2 o 106.018 116.501 180.00 1.58944 0.03
1 9 4 o 16.370 18.613 180.00 1.54779 0.00
3 7 2 o 678.352 776.955 180.00 1.54664 0.20
2 6 6 o 2953.488 4261.646 180.00 1.51239 0.83
1 10 3 o 80.009 126.381 180.00 1.49509 0.02
-2 8 4 o 1435.026 1735.148 180.00 1.54354 0.42
-1 7 6 o 876.350 1164.839 0.00 1.55816 0.26
2 5 7 o 2243.561 1906.409 0.00 1.45644 0.59
0 0 10 o 5226.101 5413.883 180.00 1.31381 0.56
-3 3 6 o 21.118 26.076 180.00 1.49102 0.01
-1 8 5 o 255.326 618.250 180.00 1.57430 0.08
4 2 2 o 2678.805 3616.223 0.00 1.55770 0.80
2 10 0 o 719.836 670.086 0.00 1.46338 0.10
-2 5 7 o 2968.429 2755.455 0.00 1.46223 0.79
1 4 9 o 7.861 8.729 0.00 1.34533 0.00
4 3 1 o 684.157 910.461 180.00 1.55418 0.20
2 7 5 o 1359.134 1671.816 0.00 1.53947 0.40
-4 2 2 o 1108.360 1408.625 0.00 1.56337 0.33
-4 3 1 o 339.190 426.894 180.00 1.56264 0.10
-2 7 5 o 1246.715 1362.856 0.00 1.54908 0.37
2 4 8 o 1067.049 1286.485 180.00 1.38060 0.25
-2 6 6 o 300.424 804.186 180.00 1.52019 0.09
2 8 4 o 1465.582 1991.626 180.00 1.53269 0.43
1 8 5 o 175.120 299.168 180.00 1.56852 0.05
0 2 10 o 27.616 27.398 0.00 1.29734 0.01
-4 4 0 o 489.916 1136.021 0.00 1.52696 0.07
4 1 3 o 167.721 423.711 180.00 1.52632 0.05
2 9 3 o 7.198 11.938 180.00 1.49334 0.00
0 12 0 o 1789.812 2013.335 0.00 1.36986 0.21
-2 1 9 o 1989.732 2213.146 180.00 1.32948 0.44
2 1 9 o 340.924 381.491 180.00 1.32861 0.07
-1 4 9 o 30.327 35.443 0.00 1.34714 0.01
4 4 0 o 1139.781 2062.651 0.00 1.51645 0.16
-2 4 8 o 2484.668 2943.968 180.00 1.38453 0.59
-4 1 3 o 322.921 644.254 180.00 1.52898 0.09
0 10 4 o 201.646 194.955 180.00 1.47000 0.05
-1 1 10 o 93.897 107.546 180.00 1.28443 0.02
1 1 10 o 961.250 1105.401 0.00 1.28403 0.20
0 7 7 o 3320.907 3132.284 0.00 1.46613 0.88
3 8 1 o 11.145 10.205 180.00 1.47968 0.00
0 5 9 o 5.209 5.649 180.00 1.33418 0.00
0 9 5 o 435.760 533.794 0.00 1.49975 0.12
-2 11 1 o 3.822 4.984 0.00 1.35750 0.00
-1 12 1 o 54.743 58.863 180.00 1.33660 0.01
4 0 4 o 1079.397 1017.683 0.00 1.46591 0.29
4 4 2 o 999.825 827.872 180.00 1.47759 0.27
-4 5 1 o 2418.865 2256.773 0.00 1.46294 0.64
-4 4 2 o 1175.533 981.507 180.00 1.48730 0.32
0 8 6 o 538.040 620.230 180.00 1.49837 0.15
2 3 9 o 355.235 349.069 0.00 1.29439 0.07
4 3 3 o 3990.605 3777.737 0.00 1.47387 1.07
1 3 10 o 125.328 176.081 180.00 1.25343 0.02
-4 3 3 o 1488.389 1449.548 0.00 1.48108 0.40
0 12 2 o 3311.519 3495.702 180.00 1.34101 0.74
-3 7 4 o 1.127 0.574 180.00 1.44377 0.00
-2 3 9 o 2011.746 1958.503 0.00 1.29682 0.42
1 12 1 o 39.537 43.232 180.00 1.33129 0.01
4 5 1 o 2404.260 1874.424 0.00 1.45141 0.63
-3 9 2 o 3.264 4.200 180.00 1.37683 0.00
-3 1 8 o 878.506 863.759 180.00 1.30907 0.19
-1 3 10 o 25.120 35.135 0.00 1.25453 0.00
-4 2 4 o 1296.966 781.130 180.00 1.44538 0.34
3 4 7 o 459.947 478.055 0.00 1.34238 0.10
3 1 8 o 594.959 587.028 180.00 1.30782 0.13
0 4 10 o 0.533 0.758 180.00 1.25141 0.00
0 1 11 o 819.412 1161.027 180.00 1.19123 0.15
2 11 1 o 695.155 794.454 0.00 1.34736 0.16
-4 1 5 o 758.139 879.521 0.00 1.38615 0.18
4 1 5 o 850.248 946.544 0.00 1.38417 0.20
-3 4 7 o 0.476 0.555 180.00 1.34782 0.00
-3 10 1 o 70.750 70.954 0.00 1.31318 0.02
1 0 11 o 1575.924 1391.918 180.00 1.17501 0.27
-4 6 2 o 839.391 995.646 0.00 1.38067 0.20
3 3 8 o 134.180 147.354 180.00 1.27475 0.03
3 9 2 o 132.399 157.191 180.00 1.36388 0.03
4 4 4 o 1473.177 1934.781 0.00 1.37679 0.35
-1 11 4 o 25.964 27.938 0.00 1.33425 0.01
-2 11 3 o 1262.855 1295.497 180.00 1.30300 0.27
1 7 8 o 12.531 13.671 0.00 1.31680 0.00
4 5 3 o 168.173 181.671 180.00 1.38536 0.04
-2 10 4 o 1662.518 1721.128 0.00 1.34570 0.37
-2 12 0 o 70.620 85.925 180.00 1.26837 0.01
-1 12 3 o 684.214 802.581 180.00 1.28448 0.14
1 6 9 o 108.091 120.585 180.00 1.26299 0.02
-3 3 8 o 12.470 14.838 0.00 1.27824 0.00
2 6 8 o 2152.608 2153.601 0.00 1.29163 0.45
2 7 7 o 4332.111 4637.109 180.00 1.33513 0.96
-4 4 4 o 388.325 406.812 0.00 1.38464 0.09
0 13 1 o 1290.470 1735.356 0.00 1.25867 0.26
-1 7 8 o 1229.525 1345.483 0.00 1.31979 0.27
4 3 5 o 0.292 0.293 180.00 1.34469 0.00
4 6 2 o 1001.679 972.401 0.00 1.36905 0.23
-2 9 5 o 3302.112 3106.704 180.00 1.36793 0.77
1 11 4 o 545.265 600.483 180.00 1.32941 0.12
-4 7 1 o 3526.238 3561.598 180.00 1.34283 0.79
1 8 7 o 1.641 3.690 0.00 1.35394 0.00
-1 10 5 o 526.004 579.380 0.00 1.36547 0.12
4 0 6 o 769.076 740.955 180.00 1.31168 0.16
-2 6 8 o 3933.575 3696.371 0.00 1.29648 0.83
0 3 11 o 164.026 140.994 0.00 1.16697 0.03
2 5 9 o 1460.863 1246.675 180.00 1.23390 0.28
-4 3 5 o 181.275 271.096 180.00 1.35016 0.04
-1 6 9 o 16.659 17.884 180.00 1.26525 0.00
2 8 6 o 2564.078 2661.963 0.00 1.35887 0.59
-1 8 7 o 695.950 836.841 0.00 1.35766 0.16
-2 12 2 o 157.228 246.492 0.00 1.24537 0.03
-2 7 7 o 1392.391 1432.633 180.00 1.34138 0.31
1 10 5 o 1.304 1.389 0.00 1.36075 0.00
2 10 4 o 190.070 201.918 0.00 1.33671 0.04
-2 5 9 o 3411.710 3305.399 180.00 1.23741 0.65
-2 8 6 o 2585.705 2571.389 0.00 1.36641 0.60
2 11 3 o 987.964 928.586 180.00 1.29402 0.21
1 12 3 o 429.816 533.565 0.00 1.27977 0.09
4 2 6 o 84.410 79.823 0.00 1.29367 0.02
-1 9 6 o 241.043 353.958 180.00 1.37369 0.06
4 7 1 o 857.519 923.635 180.00 1.33037 0.19
1 9 6 o 296.185 279.277 180.00 1.36936 0.07
2 9 5 o 3289.066 3258.168 180.00 1.35943 0.76
2 12 0 o 723.131 967.831 180.00 1.25934 0.07
3 10 1 o 44.141 45.186 0.00 1.30070 0.01
-4 8 0 o 2437.376 2732.150 0.00 1.28720 0.25
-4 2 6 o 358.044 331.140 0.00 1.29691 0.08
0 7 9 o 438.615 480.633 0.00 1.23977 0.08
0 12 4 o 37.086 37.347 180.00 1.26430 0.01
-3 10 3 o 118.786 122.424 180.00 1.26365 0.02
0 6 10 o 296.829 355.006 180.00 1.18464 0.05
2 4 10 o 462.507 383.744 0.00 1.16785 0.08
0 8 8 o 229.494 280.357 0.00 1.28287 0.05
-3 9 4 o 253.272 235.235 180.00 1.29419 0.05
2 12 2 o 1703.866 1590.424 0.00 1.23682 0.33
1 4 11 o 241.105 419.462 180.00 1.12920 0.04
3 7 6 o 287.533 321.344 0.00 1.28732 0.06
0 11 5 o 294.747 281.832 0.00 1.29900 0.06
0 14 0 o 1783.369 1514.939 180.00 1.17416 0.15
3 6 7 o 89.691 119.616 180.00 1.25980 0.02
0 0 12 o 11.575 20.162 0.00 1.09484 0.00
-3 8 5 o 194.872 188.950 180.00 1.30540 0.04
4 1 7 o 38.795 27.948 180.00 1.23000 0.01
-2 4 10 o 2564.210 2119.070 0.00 1.17023 0.44
-4 7 3 o 442.599 473.373 0.00 1.29001 0.09
4 5 5 o 1561.290 1748.985 0.00 1.27646 0.32
-4 8 2 o 2428.300 2509.084 180.00 1.26318 0.48
-2 1 11 o 203.845 392.444 0.00 1.11979 0.03
2 1 11 o 800.512 1556.309 0.00 1.11926 0.13
3 8 5 o 108.527 100.017 180.00 1.29556 0.02
-2 13 1 o 385.227 353.445 180.00 1.17889 0.07
4 4 6 o 3.454 6.135 0.00 1.24668 0.00
0 2 12 o 894.777 1165.132 180.00 1.08525 0.13
-4 1 7 o 424.936 326.653 180.00 1.23139 0.08
-1 4 11 o 180.465 313.017 0.00 1.13028 0.03
0 9 7 o 78.052 74.738 0.00 1.30897 0.02
-3 6 7 o 592.141 610.935 180.00 1.26656 0.12
4 6 4 o 162.887 180.822 180.00 1.28772 0.03
-4 6 4 o 233.282 204.962 180.00 1.29738 0.05
0 10 6 o 138.652 148.801 180.00 1.31461 0.03
-3 7 6 o 100.192 92.064 0.00 1.29575 0.02
4 8 0 o 934.160 882.119 0.00 1.27467 0.09
3 9 4 o 18.727 22.792 0.00 1.28342 0.00
-1 14 1 o 101.059 106.479 180.00 1.15330 0.02
0 5 11 o 58.838 107.501 0.00 1.12259 0.01
4 7 3 o 794.231 1040.561 0.00 1.27895 0.16
5 0 1 o 2655.306 2813.424 0.00 1.30402 0.56
-4 5 5 o 267.584 324.739 0.00 1.28428 0.06
3 10 3 o 417.103 615.596 180.00 1.25252 0.08
-4 4 6 o 360.356 532.059 180.00 1.25249 0.07
2 3 11 o 294.453 559.176 180.00 1.09857 0.05
5 2 1 o 1024.979 1196.345 0.00 1.28592 0.21
0 14 2 o 283.286 303.377 0.00 1.15584 0.05
-5 1 2 o 547.766 687.419 0.00 1.28224 0.11
-5 2 1 o 534.419 604.958 0.00 1.28990 0.11
-3 1 10 o 348.382 626.378 0.00 1.12359 0.06
5 1 2 o 255.220 347.223 0.00 1.28028 0.05
4 8 2 o 738.540 1080.617 180.00 1.25133 0.14
3 1 10 o 61.194 111.490 0.00 1.12280 0.01
1 14 1 o 690.186 685.877 0.00 1.14932 0.12
2 13 1 o 2223.720 1810.675 180.00 1.17103 0.38
-2 12 4 o 27.573 29.462 180.00 1.18321 0.00
-2 3 11 o 623.073 1202.255 180.00 1.10006 0.10
5 0 3 o 16.380 27.177 0.00 1.25548 0.00
5 2 3 o 285.693 297.231 0.00 1.23931 0.05
5 3 2 o 894.228 1363.095 0.00 1.24848 0.17
-5 4 1 o 2.793 6.354 0.00 1.24654 0.00
1 8 9 o 13.714 10.797 180.00 1.16969 0.00
-5 3 2 o 313.888 485.083 0.00 1.25396 0.06
-2 13 3 o 86.539 100.157 180.00 1.14266 0.01
3 3 10 o 43.406 85.477 180.00 1.10167 0.01
2 8 8 o 291.767 447.463 180.00 1.19202 0.05
1 7 10 o 0.172 0.306 180.00 1.12847 0.00
2 6 10 o 1.069 2.552 180.00 1.11251 0.00
5 4 1 o 50.220 52.553 180.00 1.23938 0.01
-4 2 8 o 1001.799 974.734 180.00 1.14954 0.17
-2 14 0 o 225.027 520.542 0.00 1.10886 0.02
-5 2 3 o 345.275 560.203 0.00 1.24287 0.07
-1 8 9 o 2204.538 1810.520 0.00 1.17209 0.38
4 2 8 o 0.364 0.367 0.00 1.14728 0.00
-1 14 3 o 62.756 124.167 180.00 1.11932 0.01
-4 9 3 o 550.374 497.842 180.00 1.18027 0.10
-1 7 10 o 142.192 259.815 180.00 1.13035 0.02
-3 3 10 o 24.404 48.914 180.00 1.10391 0.00
-2 6 10 o 6.031 13.311 180.00 1.11560 0.00
-4 10 2 o 392.957 378.001 0.00 1.14825 0.07
1 12 5 o 90.793 131.626 180.00 1.19245 0.02
4 6 6 o 512.424 454.851 0.00 1.17939 0.09
-1 6 11 o 53.319 89.976 0.00 1.08059 0.01
-2 14 2 o 3.723 6.310 0.00 1.09339 0.00
0 15 1 o 256.629 409.776 180.00 1.09209 0.04
2 12 4 o 507.131 421.752 0.00 1.17587 0.09
4 5 7 o 283.197 297.928 0.00 1.15256 0.05
3 12 1 o 345.497 341.575 180.00 1.15085 0.06
-3 12 3 o 1668.411 2907.747 0.00 1.12654 0.27
4 7 5 o 59.338 94.980 0.00 1.19179 0.01
-3 10 5 o 739.322 651.863 0.00 1.17938 0.13
2 13 3 o 118.402 176.118 180.00 1.13550 0.02
4 8 4 o 9.511 23.936 0.00 1.18832 0.00
5 3 4 o 15.461 22.093 0.00 1.18588 0.00
3 7 8 o 772.995 891.106 180.00 1.14284 0.13
3 6 9 o 600.001 1355.738 0.00 1.10738 0.09
5 5 2 o 606.276 799.780 180.00 1.19299 0.11
0 8 10 o 20.295 44.831 0.00 1.10689 0.00
5 0 5 o 10.772 8.878 180.00 1.17273 0.00
-5 6 1 o 97.992 96.573 0.00 1.18204 0.02
1 14 3 o 49.888 110.789 180.00 1.11568 0.01
4 4 8 o 25.470 62.307 180.00 1.11412 0.00
-4 6 6 o 93.103 184.093 180.00 1.18680 0.02
2 14 0 o 1375.272 2739.205 0.00 1.10182 0.11
-4 1 9 o 249.362 303.114 0.00 1.08793 0.04
-3 9 6 o 2211.917 2338.996 180.00 1.18435 0.39
4 1 9 o 20.766 23.711 180.00 1.08697 0.00
4 10 0 o 2413.466 2640.215 180.00 1.15456 0.20
-5 3 4 o 28.185 59.359 0.00 1.19057 0.01
-3 13 2 o 1896.896 2411.994 180.00 1.08405 0.28
0 9 9 o 414.880 496.026 0.00 1.14033 0.07
-4 4 8 o 2.058 4.108 180.00 1.11826 0.00
4 9 3 o 12.614 9.435 180.00 1.16940 0.00
0 13 5 o 0.832 0.992 180.00 1.13941 0.00
0 14 4 o 245.378 507.883 180.00 1.10564 0.04
-4 11 1 o 84.275 174.337 180.00 1.10563 0.01
-3 7 8 o 2089.400 1944.932 180.00 1.14872 0.35
3 9 6 o 1475.829 1202.482 180.00 1.17608 0.26
-3 8 7 o 1840.893 1491.549 0.00 1.17373 0.32
5 6 1 o 613.483 505.975 0.00 1.17291 0.11
-3 6 9 o 291.666 731.003 0.00 1.11196 0.05
3 10 5 o 1275.753 987.980 0.00 1.17032 0.22
2 14 2 o 71.477 76.931 0.00 1.08664 0.01
3 11 4 o 2342.128 2174.839 180.00 1.14992 0.39
4 10 2 o 104.980 130.541 0.00 1.13713 0.02
5 1 6 o 28.451 55.236 180.00 1.12121 0.00
3 12 3 o 930.729 1863.591 0.00 1.11707 0.15
-5 7 2 o 281.501 569.724 0.00 1.13208 0.05
-5 1 6 o 100.404 181.883 180.00 1.12252 0.02
5 5 4 o 2354.201 2697.638 0.00 1.13802 0.39
5 6 3 o 1037.340 1237.835 180.00 1.13722 0.17
-5 6 3 o 542.292 580.762 180.00 1.14553 0.09
5 4 5 o 0.329 0.581 0.00 1.12505 0.00
0 11 7 o 14.841 10.480 180.00 1.16908 0.00
-5 5 4 o 1897.659 2154.136 0.00 1.14494 0.31
5 3 6 o 55.151 107.485 0.00 1.09967 0.01
-4 10 4 o 218.881 420.592 180.00 1.09898 0.03
-5 8 1 o 104.273 218.781 180.00 1.10602 0.02
5 7 2 o 515.862 911.440 0.00 1.12274 0.08
-5 4 5 o 53.177 112.768 180.00 1.13039 0.01
4 11 1 o 389.894 761.231 180.00 1.09472 0.06
4 7 7 o 538.664 778.710 0.00 1.08909 0.08
-5 3 6 o 533.466 1054.530 0.00 1.10340 0.08
-4 9 5 o 22.428 60.242 180.00 1.11074 0.00
4 8 6 o 2.246 4.694 0.00 1.10161 0.00
-2 12 6 o 360.472 701.334 0.00 1.09754 0.06
5 8 1 o 33.675 76.369 180.00 1.09608 0.01
-4 8 6 o 13.090 35.447 0.00 1.10967 0.00
4 9 5 o 46.206 97.478 0.00 1.10166 0.01
2 10 8 o 498.811 748.908 0.00 1.09256 0.08
-1 13 6 o 21.455 41.276 180.00 1.08157 0.00
4 10 4 o 22.565 35.592 180.00 1.08922 0.00
-4 7 7 o 5.481 12.760 180.00 1.09589 0.00
-2 10 8 o 235.123 447.879 0.00 1.09745 0.04
-2 11 7 o 413.342 748.518 180.00 1.10382 0.06
-5 7 4 o 32.527 35.160 0.00 1.08479 0.00
2 12 6 o 2.739 4.195 180.00 1.09167 0.00
2 11 7 o 581.960 1063.652 180.00 1.09835 0.09
-1 12 7 o 418.223 590.732 0.00 1.09250 0.06
1 11 8 o 62.440 92.778 180.00 1.08856 0.01
-5 6 5 o 65.177 132.366 0.00 1.08163 0.01
-3 10 7 o 1.872 5.933 180.00 1.07959 0.00
6 0 0 o 1808.299 2534.136 0.00 1.09207 0.14
6 1 1 o 193.683 188.766 0.00 1.08523 0.03
-1 11 8 o 102.742 170.368 180.00 1.09121 0.02
1 12 7 o 43.248 82.818 180.00 1.08959 0.01
6 2 0 o 89.185 188.278 0.00 1.08114 0.01
-6 1 1 o 1211.101 767.449 0.00 1.08666 0.18
-6 2 0 o 14.411 18.084 180.00 1.08398 0.00
