#------------------------------------------------------------------------------
#$Date: 2016-03-21 01:21:50 +0200 (Mon, 21 Mar 2016) $
#$Revision: 178377 $
#$URL: svn://www.crystallography.net/cod/cif/4/00/21/4002108.cif $
#------------------------------------------------------------------------------
#
# This file is available in the Crystallography Open Database (COD),
# http://www.crystallography.net/
#
# All data on this site have been placed in the public domain by the
# contributors.
#
data_4002108
loop_
_publ_author_name
'Nanthamathee, Chompoonoot'
'Ling, Sanliang'
'Slater, Ben'
'Attfield, Martin P.'
_publ_section_title
;
 Contradistinct Thermoresponsive Behavior of Isostructural MIL-53 Type
 Metal--Organic Frameworks by Modifying the Framework Inorganic Anion
;
_journal_name_full               'Chemistry of Materials'
_journal_page_first              141223143002002
_journal_paper_doi               10.1021/cm503311x
_journal_year                    2014
_chemical_formula_sum            'C8 Al O5'
_chemical_formula_weight         203.07
_chemical_name_systematic        ' ?'
_space_group_IT_number           74
_symmetry_cell_setting           orthorhombic
_symmetry_space_group_name_Hall  '-I 2b 2'
_symmetry_space_group_name_H-M   'I m m a'
_audit_creation_date             2014-08-28T12:14
_audit_creation_method           'from EXP file using GSAS2CIF'
_audit_update_record
' 2014-08-28T12:14  Initial CIF as created by GSAS2CIF'
_cell_angle_alpha                90.0
_cell_angle_beta                 90.0
_cell_angle_gamma                90.0
_cell_formula_units_Z            4
_cell_length_a                   6.63046(6)
_cell_length_b                   16.77590(17)
_cell_length_c                   12.77032(23)
_cell_volume                     1420.47(3)
_computing_structure_refinement  GSAS
_diffrn_radiation_polarisn_ratio 0.95
_diffrn_radiation_probe          x-ray
_diffrn_radiation_wavelength     0.825993
_exptl_absorpt_correction_T_max  1.00000
_exptl_absorpt_correction_T_min  1.00000
_exptl_absorpt_process_details
;   GSAS Absorption/surface roughness correction: function number 0
 No correction is applied.
;
_pd_block_id                     2014-08-28T12:14|225K|300k|i11
_pd_calc_method                  'Rietveld Refinement'
_pd_instr_location               ' ?'
_pd_meas_2theta_range_inc        0.003
_pd_meas_2theta_range_max        149.9955
_pd_meas_2theta_range_min        0.0015
_pd_meas_number_of_points        49999
_pd_phase_name                   300K
_pd_proc_2theta_range_inc        0.003
_pd_proc_2theta_range_max        150.00461
_pd_proc_2theta_range_min        0.010603
_pd_proc_info_datetime           2014-08-28T12:14:58
_pd_proc_info_excluded_regions   ' ?'
_pd_proc_ls_background_function
;   GSAS Background function number 1 with  2 terms.
 Shifted Chebyshev function of 1st kind
      1:    0.00000     2:    0.00000    
;
_pd_proc_ls_peak_cutoff          0.00100
_pd_proc_ls_profile_function
;
 CW Profile function number 4 with  18 terms
 Pseudovoigt profile coefficients as parameterized in
 P. Thompson, D.E. Cox & J.B. Hastings (1987). J. Appl. Cryst.,20,79-83.
 Asymmetry correction of L.W. Finger, D.E. Cox & A. P. Jephcoat (1994).
 J. Appl. Cryst.,27,892-900.
 Microstrain broadening by P.W. Stephens,  (1999). J. Appl. Cryst.,32,281-289.
 Peak tails are ignored  where the intensity is below 0.0010 times the peak
   Aniso. broadening axis   1.0   0.0   1.0
;
_pd_proc_ls_prof_R_factor        0.0342
_pd_proc_ls_prof_wR_expected     0.0224
_pd_proc_ls_prof_wR_factor       0.0453
_pd_proc_number_of_points        49999
_pd_spec_mounting                ' ?'
_refine_ls_goodness_of_fit_all   2.02
_refine_ls_matrix_type           full
_refine_ls_number_parameters     28
_refine_ls_number_restraints     0
_refine_ls_R_Fsqd_factor         0.20307
_refine_ls_shift/su_max          0.07
_refine_ls_shift/su_mean         0.01
_reflns_d_resolution_high        1.207
_reflns_d_resolution_low         8.388
_reflns_limit_h_max              5
_reflns_limit_h_min              0
_reflns_limit_k_max              13
_reflns_limit_k_min              0
_reflns_limit_l_max              10
_reflns_limit_l_min              0
_reflns_number_total             252
_cod_data_source_file            aloh225K.cif
_cod_data_source_block           225K_publ
_cod_depositor_comments
;
The following automatic conversions were performed:

'_geom_bond_publ_flag' value 'N' changed to 'n' according to
/home/saulius/struct/COD-crude-data--automatic-downloads/rss-feeds/ACS/lib/dictionaries/cif_core.dic
dictionary named 'cif_core.dic' version 2.4.2 from 2011-04-26 (18
times).

'_geom_angle_publ_flag' value 'N' changed to 'n' according
to
/home/saulius/struct/COD-crude-data--automatic-downloads/rss-feeds/ACS/lib/dictionaries/cif_core.dic
dictionary named 'cif_core.dic' version 2.4.2 from 2011-04-26 (24
times).

Automatic conversion script
Id: cif_fix_values 2935 2014-11-11 08:27:57Z andrius 
;
_cod_original_cell_volume        1420.468(31)
_cod_database_code               4002108
#BEGIN Tags that were not found in dictionaries:
_gsas_exptl_extinct_corr_t_min   1.00000
_gsas_exptl_extinct_corr_t_max   1.00000
#END Tags that were not found in dictionaries
loop_
_symmetry_equiv_pos_site_id
_symmetry_equiv_pos_as_xyz
1 +x,+y,+z
2 -x,+y,+z
3 +x,-y+1/2,+z
4 -x,-y+1/2,+z
-1 -x,-y,-z
-2 +x,-y,-z
-3 -x,+y+1/2,-z
-4 +x,+y+1/2,-z
101 +x+1/2,+y+1/2,+z+1/2
102 -x+1/2,+y+1/2,+z+1/2
103 +x+1/2,-y,+z+1/2
104 -x+1/2,-y,+z+1/2
-101 -x+1/2,-y+1/2,-z+1/2
-102 +x+1/2,-y+1/2,-z+1/2
-103 -x+1/2,+y,-z+1/2
-104 +x+1/2,+y,-z+1/2
loop_
_atom_site_type_symbol
_atom_site_label
_atom_site_fract_x
_atom_site_fract_y
_atom_site_fract_z
_atom_site_occupancy
_atom_site_thermal_displace_type
_atom_site_U_iso_or_equiv
_atom_site_symmetry_multiplicity
Al Al1 0.25 0.25 0.75 1.0 Uiso 0.0205(10) 4
O O2 0.0 0.25 0.6846(4) 1.0 Uiso 0.0159(8) 4
O O1 0.16765(30) 0.16790(13) 0.84281(20) 1.0 Uiso 0.0159(8) 16
C C3 -0.1909(4) 0.03505(28) 0.9686(4) 1.0 Uiso 0.0339(13) 16
C C2 0.0 0.06366(35) 0.9453(5) 1.0 Uiso 0.0339(13) 8
C C1 0.0 0.13826(34) 0.8711(6) 1.0 Uiso 0.0339(13) 8
loop_
_atom_type_symbol
_atom_type_number_in_cell
_atom_type_scat_dispersion_real
_atom_type_scat_dispersion_imag
_atom_type_scat_Cromer_Mann_a1
_atom_type_scat_Cromer_Mann_a2
_atom_type_scat_Cromer_Mann_a3
_atom_type_scat_Cromer_Mann_a4
_atom_type_scat_Cromer_Mann_b1
_atom_type_scat_Cromer_Mann_b2
_atom_type_scat_Cromer_Mann_b3
_atom_type_scat_Cromer_Mann_b4
_atom_type_scat_Cromer_Mann_c
_atom_type_scat_source
Al 4.0 0.000 0.000 6.42020 3.03870 1.90020 0.74260 1.59360 31.5472 1.96460
85.0886 1.11510 International_Tables_Vol_C
O 20.0 0.000 0.000 3.04850 13.2771 2.28680 5.70110 1.54630 0.32390 0.86700
32.9089 0.25080 International_Tables_Vol_C
C 32.0 0.000 0.000 2.31000 20.8439 1.02000 10.2075 1.58860 0.56870 0.86500
51.6512 0.21560 International_Tables_Vol_C
loop_
_geom_angle_atom_site_label_1
_geom_angle_atom_site_label_2
_geom_angle_atom_site_label_3
_geom_angle
_geom_angle_site_symmetry_1
_geom_angle_site_symmetry_3
_geom_angle_publ_flag
O2 Al1 O2 180.0 1_555 -101_546 n
O2 Al1 O1 91.39(12) 1_555 1_555 n
O2 Al1 O1 91.39(12) 1_555 3_555 n
O2 Al1 O1 88.61(12) 1_555 -101_566 n
O2 Al1 O1 88.61(12) 1_555 -103_566 n
O2 Al1 O1 88.61(12) -101_566 1_555 n
O2 Al1 O1 88.61(12) -101_566 3_555 n
O2 Al1 O1 91.39(12) -101_566 -101_566 n
O2 Al1 O1 91.39(12) -101_566 -103_566 n
O1 Al1 O1 93.09(16) 1_555 3_555 n
O1 Al1 O1 180.0 1_555 -101_566 n
O1 Al1 O1 86.91(16) 1_555 -103_566 n
O1 Al1 O1 86.91(16) 3_555 -101_566 n
O1 Al1 O1 180.0 3_555 -103_566 n
O1 Al1 O1 93.09(16) -101_566 -103_566 n
Al1 O2 Al1 126.49(29) 1_555 2_555 n
Al1 O1 C1 135.54(33) 1_555 1_555 n
C3 C3 C2 114.01(32) -2_557 1_555 n
C3 C2 C3 131.9(6) 1_555 2_555 n
C3 C2 C1 113.93(32) 1_555 1_555 n
C3 C2 C1 113.93(32) 2_555 1_555 n
O1 C1 O1 122.1(6) 1_555 2_555 n
O1 C1 C2 118.94(28) 1_555 1_555 n
O1 C1 C2 118.94(28) 2_555 1_555 n
loop_
_geom_bond_atom_site_label_1
_geom_bond_atom_site_label_2
_geom_bond_distance
_geom_bond_site_symmetry_2
_geom_bond_publ_flag
Al1 O2 1.8564(24) 1_555 n
Al1 O2 1.8564(24) -101_445 n
Al1 O1 1.8973(19) 1_555 n
Al1 O1 1.8973(19) 3_555 n
Al1 O1 1.8973(19) -101_445 n
Al1 O1 1.8973(19) -103_445 n
O2 Al1 1.8564(24) 1_555 n
O2 Al1 1.8564(24) 2_555 n
O1 Al1 1.8973(19) 1_555 n
O1 C1 1.2703(30) 1_555 n
C3 C3 1.424(7) -2_557 n
C3 C2 1.3861(30) 1_555 n
C2 C3 1.3861(30) 1_555 n
C2 C3 1.3861(30) 2_555 n
C2 C1 1.569(6) 1_555 n
C1 O1 1.2703(30) 1_555 n
C1 O1 1.2703(30) 2_555 n
C1 C2 1.569(6) 1_555 n
loop_
_pd_meas_intensity_total
_pd_proc_ls_weight
_pd_proc_intensity_bkg_calc
_pd_calc_intensity_total
26.6(28) 0.0 0.00 .
25.3(27) 0.0 0.00 .
19.7(24) 0.0 0.00 .
22.1(26) 0.0 0.00 .
37.7(31) 0.0 0.00 .
128(6) 0.0 0.0 .
119(6) 0.0 0.0 .
755(15) 0.0 0.0 .
1308(19) 0.0 0.0 .
2646(28) 0.0 0.0 .
3001(29) 0.0 0.0 .
3028(29) 0.0 0.0 .
3063(29) 0.0 0.0 .
1076(20) 0.0 0.0 .
96(5) 0.0 0.0 .
55(4) 0.0 0.0 .
41.5(33) 0.0 0.00 .
34.6(31) 0.0 0.00 .
34.7(32) 0.0 0.00 .
59(4) 0.0 0.0 .
206(8) 0.0 0.0 .
335(10) 0.0 0.0 .
699(14) 0.0 0.0 .
922(16) 0.0 0.0 .
1025(18) 0.0 0.0 .
1201(18) 0.0 0.0 .
1343(19) 0.0 0.0 .
1435(20) 0.0 0.0 .
1775(23) 0.0 0.0 .
1829(24) 0.0 0.0 .
1985(24) 0.0 0.0 .
2100(24) 0.0 0.0 .
1870(23) 0.0 0.0 .
1636(22) 0.0 0.0 .
1204(19) 0.0 0.0 .
678(14) 0.0 0.0 .
332(9) 0.0 0.0 .
215(8) 0.0 0.0 .
141(6) 0.0 0.0 .
79(5) 0.0 0.0 .
41(4) 0.0 0.0 .
32.4(30) 0.0 0.00 .
35.0(31) 0.0 0.00 .
38.9(34) 0.0 0.00 .
33.6(31) 0.0 0.00 .
34.4(30) 0.0 0.00 .
32.1(30) 0.0 0.00 .
32.6(31) 0.0 0.00 .
33.1(32) 0.0 0.00 .
27.4(27) 0.0 0.00 .
26.4(27) 0.0 0.00 .
31.3(29) 0.0 0.00 .
28.5(29) 0.0 0.00 .
35.6(32) 0.0 0.00 .
29.3(28) 0.0 0.00 .
28.6(28) 0.0 0.00 .
29.4(28) 0.0 0.00 .
32.0(30) 0.0 0.00 .
33.9(31) 0.0 0.00 .
32.2(29) 0.0 0.00 .
22.5(26) 0.0 0.00 .
30.1(28) 0.0 0.00 .
27.4(28) 0.0 0.00 .
36.9(34) 0.0 0.00 .
26.6(27) 0.0 0.00 .
38.0(33) 0.0 0.00 .
25.4(27) 0.0 0.00 .
32.0(31) 0.0 0.00 .
38.1(34) 0.0 0.00 .
36.9(32) 0.0 0.00 .
36.6(31) 0.0 0.00 .
37.2(32) 0.0 0.00 .
38.7(33) 0.0 0.00 .
37.8(34) 0.0 0.00 .
29.2(28) 0.0 0.00 .
33.5(30) 0.0 0.00 .
32.3(29) 0.0 0.00 .
33.4(31) 0.0 0.00 .
29.7(30) 0.0 0.00 .
34.6(30) 0.0 0.00 .
36.3(31) 0.0 0.00 .
35.7(31) 0.0 0.00 .
36.5(33) 0.0 0.00 .
27.2(28) 0.0 0.00 .
33.7(32) 0.0 0.00 .
37.8(33) 0.0 0.00 .
44.6(35) 0.0 0.00 .
46(4) 0.0 0.0 .
35.6(32) 0.0 0.00 .
47(4) 0.0 0.0 .
41.2(33) 0.0 0.00 .
42.1(35) 0.0 0.00 .
41.0(35) 0.0 0.00 .
47(4) 0.0 0.0 .
61(4) 0.0 0.0 .
64(4) 0.0 0.0 .
60(4) 0.0 0.0 .
74(5) 0.0 0.0 .
82(5) 0.0 0.0 .
91(5) 0.0 0.0 .
98(5) 0.0 0.0 .
105(5) 0.0 0.0 .
97(5) 0.0 0.0 .
128(6) 0.0 0.0 .
140(6) 0.0 0.0 .
156(6) 0.0 0.0 .
162(7) 0.0 0.0 .
159(7) 0.0 0.0 .
168(7) 0.0 0.0 .
164(7) 0.0 0.0 .
187(7) 0.0 0.0 .
197(8) 0.0 0.0 .
199(8) 0.0 0.0 .
224(8) 0.0 0.0 .
223(8) 0.0 0.0 .
231(8) 0.0 0.0 .
241(8) 0.0 0.0 .
261(9) 0.0 0.0 .
269(9) 0.0 0.0 .
279(9) 0.0 0.0 .
288(9) 0.0 0.0 .
296(9) 0.0 0.0 .
283(9) 0.0 0.0 .
296(9) 0.0 0.0 .
299(9) 0.0 0.0 .
348(10) 0.0 0.0 .
345(10) 0.0 0.0 .
359(11) 0.0 0.0 .
337(10) 0.0 0.0 .
364(10) 0.0 0.0 .
370(10) 0.0 0.0 .
401(11) 0.0 0.0 .
386(11) 0.0 0.0 .
393(11) 0.0 0.0 .
404(10) 0.0 0.0 .
419(11) 0.0 0.0 .
413(11) 0.0 0.0 .
449(12) 0.0 0.0 .
454(11) 0.0 0.0 .
431(11) 0.0 0.0 .
470(11) 0.0 0.0 .
455(11) 0.0 0.0 .
500(12) 0.0 0.0 .
508(12) 0.0 0.0 .
520(12) 0.0 0.0 .
491(12) 0.0 0.0 .
506(12) 0.0 0.0 .
526(13) 0.0 0.0 .
521(12) 0.0 0.0 .
520(12) 0.0 0.0 .
520(12) 0.0 0.0 .
492(12) 0.0 0.0 .
522(12) 0.0 0.0 .
543(12) 0.0 0.0 .
550(12) 0.0 0.0 .
554(13) 0.0 0.0 .
512(12) 0.0 0.0 .
514(12) 0.0 0.0 .
538(12) 0.0 0.0 .
523(12) 0.0 0.0 .
544(13) 0.0 0.0 .
525(12) 0.0 0.0 .
567(13) 0.0 0.0 .
567(13) 0.0 0.0 .
546(12) 0.0 0.0 .
558(13) 0.0 0.0 .
557(13) 0.0 0.0 .
608(13) 0.0 0.0 .
553(12) 0.0 0.0 .
577(12) 0.0 0.0 .
597(13) 0.0 0.0 .
611(14) 0.0 0.0 .
597(13) 0.0 0.0 .
618(13) 0.0 0.0 .
617(13) 0.0 0.0 .
585(13) 0.0 0.0 .
620(14) 0.0 0.0 .
662(14) 0.0 0.0 .
629(13) 0.0 0.0 .
638(13) 0.0 0.0 .
618(13) 0.0 0.0 .
589(13) 0.0 0.0 .
626(13) 0.0 0.0 .
676(13) 0.0 0.0 .
636(13) 0.0 0.0 .
637(14) 0.0 0.0 .
686(15) 0.0 0.0 .
633(13) 0.0 0.0 .
647(13) 0.0 0.0 .
649(13) 0.0 0.0 .
648(14) 0.0 0.0 .
620(13) 0.0 0.0 .
707(14) 0.0 0.0 .
671(13) 0.0 0.0 .
647(14) 0.0 0.0 .
644(14) 0.0 0.0 .
634(14) 0.0 0.0 .
698(14) 0.0 0.0 .
686(14) 0.0 0.0 .
712(14) 0.0 0.0 .
673(14) 0.0 0.0 .
686(14) 0.0 0.0 .
685(14) 0.0 0.0 .
737(14) 0.0 0.0 .
691(14) 0.0 0.0 .
706(15) 0.0 0.0 .
722(15) 0.0 0.0 .
687(14) 0.0 0.0 .
740(14) 0.0 0.0 .
716(14) 0.0 0.0 .
689(14) 0.0 0.0 .
702(14) 0.0 0.0 .
704(14) 0.0 0.0 .
745(14) 0.0 0.0 .
739(15) 0.0 0.0 .
764(15) 0.0 0.0 .
733(14) 0.0 0.0 .
758(14) 0.0 0.0 .
721(14) 0.0 0.0 .
723(14) 0.0 0.0 .
747(15) 0.0 0.0 .
768(15) 0.0 0.0 .
778(15) 0.0 0.0 .
767(14) 0.0 0.0 .
756(15) 0.0 0.0 .
763(15) 0.0 0.0 .
797(15) 0.0 0.0 .
706(14) 0.0 0.0 .
762(14) 0.0 0.0 .
758(15) 0.0 0.0 .
796(16) 0.0 0.0 .
742(14) 0.0 0.0 .
802(15) 0.0 0.0 .
801(15) 0.0 0.0 .
760(15) 0.0 0.0 .
789(16) 0.0 0.0 .
775(15) 0.0 0.0 .
797(15) 0.0 0.0 .
778(15) 0.0 0.0 .
806(15) 0.0 0.0 .
790(15) 0.0 0.0 .
821(16) 0.0 0.0 .
815(15) 0.0 0.0 .
800(15) 0.0 0.0 .
824(16) 0.0 0.0 .
845(16) 0.0 0.0 .
856(16) 0.0 0.0 .
832(15) 0.0 0.0 .
840(15) 0.0 0.0 .
821(15) 0.0 0.0 .
830(16) 0.0 0.0 .
834(15) 0.0 0.0 .
860(15) 0.0 0.0 .
859(16) 0.0 0.0 .
871(16) 0.0 0.0 .
848(16) 0.0 0.0 .
864(16) 0.0 0.0 .
877(15) 0.0 0.0 .
831(15) 0.0 0.0 .
855(16) 0.0 0.0 .
834(16) 0.0 0.0 .
874(16) 0.0 0.0 .
873(15) 0.0 0.0 .
885(16) 0.0 0.0 .
838(16) 0.0 0.0 .
844(16) 0.0 0.0 .
848(15) 0.0 0.0 .
872(15) 0.0 0.0 .
901(16) 0.0 0.0 .
908(17) 0.0 0.0 .
866(16) 0.0 0.0 .
884(16) 0.0 0.0 .
885(15) 0.0 0.0 .
903(16) 0.0 0.0 .
917(17) 0.0 0.0 .
924(16) 0.0 0.0 .
891(16) 0.0 0.0 .
926(16) 0.0 0.0 .
901(16) 0.0 0.0 .
871(16) 0.0 0.0 .
909(16) 0.0 0.0 .
886(15) 0.0 0.0 .
923(16) 0.0 0.0 .
904(16) 0.0 0.0 .
918(17) 0.0 0.0 .
892(16) 0.0 0.0 .
917(16) 0.0 0.0 .
932(16) 0.0 0.0 .
903(16) 0.0 0.0 .
884(16) 0.0 0.0 .
925(16) 0.0 0.0 .
927(16) 0.0 0.0 .
939(16) 0.0 0.0 .
939(16) 0.0 0.0 .
951(17) 0.0 0.0 .
952(16) 0.0 0.0 .
999(16) 0.0 0.0 .
940(16) 0.0 0.0 .
937(16) 0.0 0.0 .
953(17) 0.0 0.0 .
981(17) 0.0 0.0 .
967(16) 0.0 0.0 .
916(16) 0.0 0.0 .
936(17) 0.0 0.0 .
954(17) 0.0 0.0 .
935(16) 0.0 0.0 .
917(16) 0.0 0.0 .
907(16) 0.0 0.0 .
974(17) 0.0 0.0 .
931(16) 0.0 0.0 .
905(16) 0.0 0.0 .
953(16) 0.0 0.0 .
958(17) 0.0 0.0 .
967(17) 0.0 0.0 .
956(17) 0.0 0.0 .
921(16) 0.0 0.0 .
972(16) 0.0 0.0 .
971(17) 0.0 0.0 .
985(17) 0.0 0.0 .
947(16) 0.0 0.0 .
975(16) 0.0 0.0 .
968(16) 0.0 0.0 .
952(17) 0.0 0.0 .
932(17) 0.0 0.0 .
969(17) 0.0 0.0 .
1018(17) 0.0 0.0 .
1013(17) 0.0 0.0 .
1007(17) 0.0 0.0 .
1007(18) 0.0 0.0 .
1006(17) 0.0 0.0 .
986(16) 0.0 0.0 .
1013(17) 0.0 0.0 .
997(17) 0.0 0.0 .
972(17) 0.0 0.0 .
989(17) 0.0 0.0 .
1020(17) 0.0 0.0 .
966(16) 0.0 0.0 .
968(17) 0.0 0.0 .
1041(18) 0.0 0.0 .
1019(17) 0.0 0.0 .
985(16) 0.0 0.0 .
1014(17) 0.0 0.0 .
970(17) 0.0 0.0 .
1037(18) 0.0 0.0 .
1015(17) 0.0 0.0 .
1047(17) 0.0 0.0 .
1044(17) 0.0 0.0 .
1014(17) 0.0 0.0 .
1028(17) 0.0 0.0 .
1032(17) 0.0 0.0 .
1060(17) 0.0 0.0 .
1052(17) 0.0 0.0 .
1039(17) 0.0 0.0 .
1078(18) 0.0 0.0 .
1059(17) 0.0 0.0 .
1034(17) 0.0 0.0 .
1103(18) 0.0 0.0 .
1087(18) 0.0 0.0 .
1113(18) 0.0 0.0 .
1112(18) 0.0 0.0 .
1089(17) 0.0 0.0 .
1084(18) 0.0 0.0 .
1098(18) 0.0 0.0 .
1061(17) 0.0 0.0 .
1088(17) 0.0 0.0 .
1030(17) 0.0 0.0 .
1102(18) 0.0 0.0 .
1123(18) 0.0 0.0 .
1130(18) 0.0 0.0 .
1155(18) 0.0 0.0 .
1144(18) 0.0 0.0 .
1118(18) 0.0 0.0 .
1172(19) 0.0 0.0 .
1159(18) 0.0 0.0 .
1152(18) 0.0 0.0 .
1116(18) 0.0 0.0 .
1151(18) 0.0 0.0 .
1169(19) 0.0 0.0 .
1113(18) 0.0 0.0 .
1173(18) 0.0 0.0 .
1140(18) 0.0 0.0 .
1156(18) 0.0 0.0 .
1190(19) 0.0 0.0 .
1214(19) 0.0 0.0 .
1216(18) 0.0 0.0 .
1192(18) 0.0 0.0 .
1223(19) 0.0 0.0 .
1225(19) 0.0 0.0 .
1210(19) 0.0 0.0 .
1220(18) 0.0 0.0 .
1192(18) 0.0 0.0 .
1219(19) 0.0 0.0 .
1208(19) 0.0 0.0 .
1184(19) 0.0 0.0 .
1189(18) 0.0 0.0 .
1247(19) 0.0 0.0 .
1216(19) 0.0 0.0 .
1216(19) 0.0 0.0 .
1197(19) 0.0 0.0 .
1213(18) 0.0 0.0 .
1201(18) 0.0 0.0 .
1238(19) 0.0 0.0 .
1187(19) 0.0 0.0 .
1243(19) 0.0 0.0 .
1229(18) 0.0 0.0 .
1270(19) 0.0 0.0 .
1222(19) 0.0 0.0 .
1211(19) 0.0 0.0 .
1253(19) 0.0 0.0 .
1295(19) 0.0 0.0 .
1286(19) 0.0 0.0 .
1259(19) 0.0 0.0 .
1311(20) 0.0 0.0 .
1300(19) 0.0 0.0 .
1249(18) 0.0 0.0 .
1251(19) 0.0 0.0 .
1259(19) 0.0 0.0 .
1268(19) 0.0 0.0 .
1237(18) 0.0 0.0 .
1235(18) 0.0 0.0 .
1334(20) 0.0 0.0 .
1275(20) 0.0 0.0 .
1262(19) 0.0 0.0 .
1306(19) 0.0 0.0 .
1290(19) 0.0 0.0 .
1323(20) 0.0 0.0 .
1278(20) 0.0 0.0 .
1265(19) 0.0 0.0 .
1306(19) 0.0 0.0 .
1218(18) 0.0 0.0 .
1260(19) 0.0 0.0 .
1263(20) 0.0 0.0 .
1279(19) 0.0 0.0 .
1234(18) 0.0 0.0 .
1260(18) 0.0 0.0 .
1267(19) 0.0 0.0 .
1288(20) 0.0 0.0 .
1317(20) 0.0 0.0 .
1317(19) 0.0 0.0 .
1297(19) 0.0 0.0 .
1239(19) 0.0 0.0 .
1302(20) 0.0 0.0 .
1343(20) 0.0 0.0 .
1331(19) 0.0 0.0 .
1262(19) 0.0 0.0 .
1275(19) 0.0 0.0 .
1302(20) 0.0 0.0 .
1307(20) 0.0 0.0 .
1287(19) 0.0 0.0 .
1332(19) 0.0 0.0 .
1337(20) 0.0 0.0 .
1299(20) 0.0 0.0 .
1306(19) 0.0 0.0 .
1329(19) 0.0 0.0 .
1313(19) 0.0 0.0 .
1297(19) 0.0 0.0 .
1276(19) 0.0 0.0 .
1317(19) 0.0 0.0 .
1338(19) 0.0 0.0 .
1305(19) 0.0 0.0 .
1298(19) 0.0 0.0 .
1336(20) 0.0 0.0 .
1335(19) 0.0 0.0 .
1265(18) 0.0 0.0 .
1304(20) 0.0 0.0 .
1313(20) 0.0 0.0 .
1311(19) 0.0 0.0 .
1314(19) 0.0 0.0 .
1293(19) 0.0 0.0 .
1320(20) 0.0 0.0 .
1254(19) 0.0 0.0 .
1276(19) 0.0 0.0 .
1286(19) 0.0 0.0 .
1348(19) 0.0 0.0 .
1272(19) 0.0 0.0 .
1295(20) 0.0 0.0 .
1295(19) 0.0 0.0 .
1337(19) 0.0 0.0 .
1315(19) 0.0 0.0 .
1298(19) 0.0 0.0 .
1269(20) 0.0 0.0 .
1256(19) 0.0 0.0 .
1321(19) 0.0 0.0 .
1298(19) 0.0 0.0 .
1297(19) 0.0 0.0 .
1303(20) 0.0 0.0 .
1310(19) 0.0 0.0 .
1277(19) 0.0 0.0 .
1302(19) 0.0 0.0 .
1300(19) 0.0 0.0 .
1271(19) 0.0 0.0 .
1302(20) 0.0 0.0 .
1326(19) 0.0 0.0 .
1252(19) 0.0 0.0 .
1261(19) 0.0 0.0 .
1247(19) 0.0 0.0 .
1310(20) 0.0 0.0 .
1233(18) 0.0 0.0 .
1277(19) 0.0 0.0 .
1310(20) 0.0 0.0 .
1283(20) 0.0 0.0 .
1282(19) 0.0 0.0 .
1301(19) 0.0 0.0 .
1324(19) 0.0 0.0 .
1323(20) 0.0 0.0 .
1326(20) 0.0 0.0 .
1278(19) 0.0 0.0 .
1233(18) 0.0 0.0 .
1309(19) 0.0 0.0 .
1322(20) 0.0 0.0 .
1256(19) 0.0 0.0 .
1298(19) 0.0 0.0 .
1282(19) 0.0 0.0 .
1301(19) 0.0 0.0 .
1274(19) 0.0 0.0 .
1242(19) 0.0 0.0 .
1297(19) 0.0 0.0 .
1308(19) 0.0 0.0 .
1334(20) 0.0 0.0 .
1309(20) 0.0 0.0 .
1295(19) 0.0 0.0 .
1265(19) 0.0 0.0 .
1237(18) 0.0 0.0 .
1278(19) 0.0 0.0 .
1302(20) 0.0 0.0 .
1345(20) 0.0 0.0 .
1309(19) 0.0 0.0 .
1285(19) 0.0 0.0 .
1326(20) 0.0 0.0 .
1299(20) 0.0 0.0 .
1294(19) 0.0 0.0 .
1248(18) 0.0 0.0 .
1292(19) 0.0 0.0 .
1283(19) 0.0 0.0 .
1326(20) 0.0 0.0 .
1269(19) 0.0 0.0 .
1252(18) 0.0 0.0 .
1285(19) 0.0 0.0 .
1282(19) 0.0 0.0 .
1268(19) 0.0 0.0 .
1309(19) 0.0 0.0 .
1334(19) 0.0 0.0 .
1330(19) 0.0 0.0 .
1290(19) 0.0 0.0 .
1255(19) 0.0 0.0 .
1319(20) 0.0 0.0 .
1306(19) 0.0 0.0 .
1261(19) 0.0 0.0 .
1242(19) 0.0 0.0 .
1295(20) 0.0 0.0 .
1240(19) 0.0 0.0 .
1275(19) 0.0 0.0 .
1281(19) 0.0 0.0 .
1283(20) 0.0 0.0 .
1298(20) 0.0 0.0 .
1273(19) 0.0 0.0 .
1254(18) 0.0 0.0 .
1290(19) 0.0 0.0 .
1275(19) 0.0 0.0 .
1302(19) 0.0 0.0 .
1284(19) 0.0 0.0 .
1251(18) 0.0 0.0 .
1271(19) 0.0 0.0 .
1294(20) 0.0 0.0 .
1246(19) 0.0 0.0 .
1280(19) 0.0 0.0 .
1270(18) 0.0 0.0 .
1285(19) 0.0 0.0 .
1254(20) 0.0 0.0 .
1245(19) 0.0 0.0 .
1250(18) 0.0 0.0 .
1281(19) 0.0 0.0 .
1245(19) 0.0 0.0 .
1227(19) 0.0 0.0 .
1263(19) 0.0 0.0 .
1240(18) 0.0 0.0 .
1275(18) 0.0 0.0 .
1257(19) 0.0 0.0 .
1308(20) 0.0 0.0 .
1280(19) 0.0 0.0 .
1263(18) 0.0 0.0 .
1245(18) 0.0 0.0 .
1233(19) 0.0 0.0 .
1263(20) 0.0 0.0 .
1274(19) 0.0 0.0 .
1266(18) 0.0 0.0 .
1227(18) 0.0 0.0 .
1270(19) 0.0 0.0 .
1260(20) 0.0 0.0 .
1232(19) 0.0 0.0 .
1266(18) 0.0 0.0 .
1211(18) 0.0 0.0 .
1268(19) 0.0 0.0 .
1234(19) 0.0 0.0 .
1260(19) 0.0 0.0 .
1252(18) 0.0 0.0 .
1201(18) 0.0 0.0 .
1258(19) 0.0 0.0 .
1236(19) 0.0 0.0 .
1258(19) 0.0 0.0 .
1226(18) 0.0 0.0 .
1245(19) 0.0 0.0 .
1213(19) 0.0 0.0 .
1242(19) 0.0 0.0 .
1199(18) 0.0 0.0 .
1231(18) 0.0 0.0 .
1218(19) 0.0 0.0 .
1222(19) 0.0 0.0 .
1222(19) 0.0 0.0 .
1201(18) 0.0 0.0 .
1237(18) 0.0 0.0 .
1213(19) 0.0 0.0 .
1212(19) 0.0 0.0 .
1284(19) 0.0 0.0 .
1262(19) 0.0 0.0 .
1201(18) 0.0 0.0 .
1187(18) 0.0 0.0 .
1228(19) 0.0 0.0 .
1244(19) 0.0 0.0 .
1290(19) 0.0 0.0 .
1220(18) 0.0 0.0 .
1236(19) 0.0 0.0 .
1243(19) 0.0 0.0 .
1192(18) 0.0 0.0 .
1173(18) 0.0 0.0 .
1225(18) 0.0 0.0 .
1253(19) 0.0 0.0 .
1255(20) 0.0 0.0 .
1191(19) 0.0 0.0 .
1220(18) 0.0 0.0 .
1215(18) 0.0 0.0 .
1246(19) 0.0 0.0 .
1197(19) 0.0 0.0 .
1206(19) 0.0 0.0 .
1199(18) 0.0 0.0 .
1143(18) 0.0 0.0 .
1221(19) 0.0 0.0 .
1182(19) 0.0 0.0 .
1242(19) 0.0 0.0 .
1181(18) 0.0 0.0 .
1166(18) 0.0 0.0 .
1189(18) 0.0 0.0 .
1211(19) 0.0 0.0 .
1223(19) 0.0 0.0 .
1190(18) 0.0 0.0 .
1192(18) 0.0 0.0 .
1159(18) 0.0 0.0 .
1257(20) 0.0 0.0 .
1194(19) 0.0 0.0 .
1192(18) 0.0 0.0 .
1185(18) 0.0 0.0 .
1216(19) 0.0 0.0 .
1198(19) 0.0 0.0 .
1188(18) 0.0 0.0 .
1204(18) 0.0 0.0 .
1149(18) 0.0 0.0 .
1154(18) 0.0 0.0 .
1179(19) 0.0 0.0 .
1198(18) 0.0 0.0 .
1140(17) 0.0 0.0 .
1189(18) 0.0 0.0 .
1155(18) 0.0 0.0 .
1249(19) 0.0 0.0 .
1187(18) 0.0 0.0 .
1199(18) 0.0 0.0 .
1127(18) 0.0 0.0 .
1167(19) 0.0 0.0 .
1190(19) 0.0 0.0 .
1181(18) 0.0 0.0 .
1160(18) 0.0 0.0 .
1173(19) 0.0 0.0 .
1158(19) 0.0 0.0 .
1180(18) 0.0 0.0 .
1156(18) 0.0 0.0 .
1140(18) 0.0 0.0 .
1152(18) 0.0 0.0 .
1160(19) 0.0 0.0 .
1120(18) 0.0 0.0 .
1186(18) 0.0 0.0 .
1142(17) 0.0 0.0 .
1118(18) 0.0 0.0 .
1106(19) 0.0 0.0 .
1074(17) 0.0 0.0 .
1135(17) 0.0 0.0 .
1132(18) 0.0 0.0 .
1183(19) 0.0 0.0 .
1118(18) 0.0 0.0 .
1177(18) 0.0 0.0 .
1132(17) 0.0 0.0 .
1163(18) 0.0 0.0 .
1166(19) 0.0 0.0 .
1129(19) 0.0 0.0 .
1133(18) 0.0 0.0 .
1169(18) 0.0 0.0 .
1144(18) 0.0 0.0 .
1093(18) 0.0 0.0 .
1116(18) 0.0 0.0 .
1131(18) 0.0 0.0 .
1187(18) 0.0 0.0 .
1162(18) 0.0 0.0 .
1133(18) 0.0 0.0 .
1153(18) 0.0 0.0 .
1136(18) 0.0 0.0 .
1176(18) 0.0 0.0 .
1112(18) 0.0 0.0 .
1118(18) 0.0 0.0 .
1102(18) 0.0 0.0 .
1146(18) 0.0 0.0 .
1198(18) 0.0 0.0 .
1139(18) 0.0 0.0 .
1130(18) 0.0 0.0 .
1112(18) 0.0 0.0 .
1137(18) 0.0 0.0 .
1143(17) 0.0 0.0 .
1112(18) 0.0 0.0 .
1118(18) 0.0 0.0 .
1129(18) 0.0 0.0 .
1139(18) 0.0 0.0 .
1125(17) 0.0 0.0 .
1106(18) 0.0 0.0 .
1121(18) 0.0 0.0 .
1099(18) 0.0 0.0 .
1141(18) 0.0 0.0 .
1106(17) 0.0 0.0 .
1092(18) 0.0 0.0 .
1125(19) 0.0 0.0 .
1115(18) 0.0 0.0 .
1154(18) 0.0 0.0 .
1100(17) 0.0 0.0 .
1107(18) 0.0 0.0 .
1085(18) 0.0 0.0 .
1081(18) 0.0 0.0 .
1099(17) 0.0 0.0 .
1102(17) 0.0 0.0 .
1116(18) 0.0 0.0 .
1079(18) 0.0 0.0 .
1078(18) 0.0 0.0 .
1123(17) 0.0 0.0 .
1088(17) 0.0 0.0 .
1089(18) 0.0 0.0 .
1134(19) 0.0 0.0 .
1123(18) 0.0 0.0 .
1086(17) 0.0 0.0 .
1066(17) 0.0 0.0 .
1081(18) 0.0 0.0 .
1085(18) 0.0 0.0 .
1103(18) 0.0 0.0 .
1098(17) 0.0 0.0 .
1116(18) 0.0 0.0 .
1111(18) 0.0 0.0 .
1119(18) 0.0 0.0 .
1126(18) 0.0 0.0 .
1130(17) 0.0 0.0 .
1088(17) 0.0 0.0 .
1082(18) 0.0 0.0 .
1061(18) 0.0 0.0 .
1100(18) 0.0 0.0 .
1116(17) 0.0 0.0 .
1084(18) 0.0 0.0 .
1067(18) 0.0 0.0 .
1110(18) 0.0 0.0 .
1119(18) 0.0 0.0 .
1096(17) 0.0 0.0 .
1074(18) 0.0 0.0 .
1077(18) 0.0 0.0 .
1028(17) 0.0 0.0 .
1010(17) 0.0 0.0 .
1093(17) 0.0 0.0 .
1088(18) 0.0 0.0 .
1063(18) 0.0 0.0 .
1041(17) 0.0 0.0 .
1045(17) 0.0 0.0 .
1061(17) 0.0 0.0 .
1048(17) 0.0 0.0 .
1090(18) 0.0 0.0 .
1026(17) 0.0 0.0 .
1082(17) 0.0 0.0 .
1074(17) 0.0 0.0 .
1070(17) 0.0 0.0 .
1089(19) 0.0 0.0 .
1043(17) 0.0 0.0 .
1125(17) 0.0 0.0 .
1083(17) 0.0 0.0 .
1110(18) 0.0 0.0 .
1043(18) 0.0 0.0 .
1050(17) 0.0 0.0 .
1052(17) 0.0 0.0 .
1022(17) 0.0 0.0 .
1016(17) 0.0 0.0 .
1036(18) 0.0 0.0 .
1085(18) 0.0 0.0 .
1107(17) 0.0 0.0 .
1064(17) 0.0 0.0 .
1057(17) 0.0 0.0 .
1052(18) 0.0 0.0 .
1032(17) 0.0 0.0 .
1090(17) 0.0 0.0 .
1069(17) 0.0 0.0 .
999(17) 0.0 0.0 .
1027(17) 0.0 0.0 .
1072(18) 0.0 0.0 .
1043(17) 0.0 0.0 .
1078(17) 0.0 0.0 .
1041(17) 0.0 0.0 .
1020(17) 0.0 0.0 .
1022(17) 0.0 0.0 .
1059(17) 0.0 0.0 .
1006(17) 0.0 0.0 .
1062(18) 0.0 0.0 .
1026(17) 0.0 0.0 .
1039(17) 0.0 0.0 .
1039(17) 0.0 0.0 .
1028(17) 0.0 0.0 .
1049(18) 0.0 0.0 .
1041(17) 0.0 0.0 .
1013(17) 0.0 0.0 .
996(16) 0.0 0.0 .
1004(17) 0.0 0.0 .
1011(17) 0.0 0.0 .
1053(17) 0.0 0.0 .
1049(17) 0.0 0.0 .
1049(17) 0.0 0.0 .
1062(17) 0.0 0.0 .
1028(18) 0.0 0.0 .
1038(17) 0.0 0.0 .
1037(17) 0.0 0.0 .
1066(17) 0.0 0.0 .
1024(17) 0.0 0.0 .
1006(18) 0.0 0.0 .
1041(17) 0.0 0.0 .
1015(17) 0.0 0.0 .
1034(17) 0.0 0.0 .
1025(17) 0.0 0.0 .
1038(18) 0.0 0.0 .
1039(17) 0.0 0.0 .
1014(17) 0.0 0.0 .
1029(17) 0.0 0.0 .
1034(17) 0.0 0.0 .
1003(17) 0.0 0.0 .
980(17) 0.0 0.0 .
973(16) 0.0 0.0 .
1009(17) 0.0 0.0 .
1015(17) 0.0 0.0 .
1019(18) 0.0 0.0 .
1060(18) 0.0 0.0 .
995(16) 0.0 0.0 .
990(17) 0.0 0.0 .
1043(17) 0.0 0.0 .
1030(18) 0.0 0.0 .
1023(17) 0.0 0.0 .
971(16) 0.0 0.0 .
986(16) 0.0 0.0 .
985(17) 0.0 0.0 .
997(17) 0.0 0.0 .
988(17) 0.0 0.0 .
934(16) 0.0 0.0 .
998(17) 0.0 0.0 .
997(17) 0.0 0.0 .
1009(17) 0.0 0.0 .
972(17) 0.0 0.0 .
1021(17) 0.0 0.0 .
1017(17) 0.0 0.0 .
1002(17) 0.0 0.0 .
996(17) 0.0 0.0 .
1030(17) 0.0 0.0 .
1009(16) 0.0 0.0 .
1007(17) 0.0 0.0 .
999(17) 0.0 0.0 .
975(17) 0.0 0.0 .
1015(17) 0.0 0.0 .
998(16) 0.0 0.0 .
1013(17) 0.0 0.0 .
999(17) 0.0 0.0 .
973(17) 0.0 0.0 .
1003(17) 0.0 0.0 .
980(16) 0.0 0.0 .
993(17) 0.0 0.0 .
1026(18) 0.0 0.0 .
993(17) 0.0 0.0 .
1003(16) 0.0 0.0 .
978(16) 0.0 0.0 .
989(17) 0.0 0.0 .
988(17) 0.0 0.0 .
976(17) 0.0 0.0 .
1007(17) 0.0 0.0 .
939(16) 0.0 0.0 .
971(17) 0.0 0.0 .
987(17) 0.0 0.0 .
975(17) 0.0 0.0 .
991(16) 0.0 0.0 .
1008(17) 0.0 0.0 .
1007(17) 0.0 0.0 .
962(17) 0.0 0.0 .
969(17) 0.0 0.0 .
964(16) 0.0 0.0 .
1007(17) 0.0 0.0 .
1009(17) 0.0 0.0 .
956(17) 0.0 0.0 .
978(17) 0.0 0.0 .
965(16) 0.0 0.0 .
948(16) 0.0 0.0 .
942(16) 0.0 0.0 .
1000(17) 0.0 0.0 .
952(17) 0.0 0.0 .
984(16) 0.0 0.0 .
961(16) 0.0 0.0 .
933(17) 0.0 0.0 .
981(17) 0.0 0.0 .
972(17) 0.0 0.0 .
996(16) 0.0 0.0 .
949(17) 0.0 0.0 .
954(17) 0.0 0.0 .
951(17) 0.0 0.0 .
961(16) 0.0 0.0 .
946(16) 0.0 0.0 .
953(17) 0.0 0.0 .
1009(18) 0.0 0.0 .
974(17) 0.0 0.0 .
989(17) 0.0 0.0 .
1007(16) 0.0 0.0 .
969(17) 0.0 0.0 .
978(17) 0.0 0.0 .
969(17) 0.0 0.0 .
968(16) 0.0 0.0 .
917(16) 0.0 0.0 .
945(17) 0.0 0.0 .
940(17) 0.0 0.0 .
962(17) 0.0 0.0 .
918(16) 0.0 0.0 .
965(16) 0.0 0.0 .
954(17) 0.0 0.0 .
935(17) 0.0 0.0 .
948(16) 0.0 0.0 .
935(16) 0.0 0.0 .
971(16) 0.0 0.0 .
928(16) 0.0 0.0 .
947(17) 0.0 0.0 .
964(17) 0.0 0.0 .
949(16) 0.0 0.0 .
885(16) 0.0 0.0 .
947(17) 0.0 0.0 .
939(17) 0.0 0.0 .
949(16) 0.0 0.0 .
938(16) 0.0 0.0 .
955(16) 0.0 0.0 .
974(17) 0.0 0.0 .
953(17) 0.0 0.0 .
937(17) 0.0 0.0 .
947(16) 0.0 0.0 .
991(17) 0.0 0.0 .
911(16) 0.0 0.0 .
946(17) 0.0 0.0 .
961(17) 0.0 0.0 .
926(16) 0.0 0.0 .
951(16) 0.0 0.0 .
946(17) 0.0 0.0 .
926(16) 0.0 0.0 .
945(16) 0.0 0.0 .
924(16) 0.0 0.0 .
923(16) 0.0 0.0 .
913(16) 0.0 0.0 .
949(17) 0.0 0.0 .
936(16) 0.0 0.0 .
914(16) 0.0 0.0 .
953(17) 0.0 0.0 .
966(17) 0.0 0.0 .
919(16) 0.0 0.0 .
922(16) 0.0 0.0 .
933(16) 0.0 0.0 .
914(16) 0.0 0.0 .
947(17) 0.0 0.0 .
925(16) 0.0 0.0 .
890(16) 0.0 0.0 .
899(16) 0.0 0.0 .
912(16) 0.0 0.0 .
938(17) 0.0 0.0 .
920(16) 0.0 0.0 .
892(16) 0.0 0.0 .
941(16) 0.0 0.0 .
921(16) 0.0 0.0 .
871(16) 0.0 0.0 .
865(16) 0.0 0.0 .
879(15) 0.0 0.0 .
885(15) 0.0 0.0 .
904(16) 0.0 0.0 .
898(16) 0.0 0.0 .
896(16) 0.0 0.0 .
905(16) 0.0 0.0 .
928(16) 0.0 0.0 .
910(16) 0.0 0.0 .
916(17) 0.0 0.0 .
890(16) 0.0 0.0 .
936(16) 0.0 0.0 .
892(16) 0.0 0.0 .
881(16) 0.0 0.0 .
916(17) 0.0 0.0 .
893(16) 0.0 0.0 .
906(16) 0.0 0.0 .
880(16) 0.0 0.0 .
906(16) 0.0 0.0 .
887(16) 0.0 0.0 .
850(16) 0.0 0.0 .
883(15) 0.0 0.0 .
897(16) 0.0 0.0 .
870(16) 0.0 0.0 .
931(17) 0.0 0.0 .
873(16) 0.0 0.0 .
922(16) 0.0 0.0 .
902(16) 0.0 0.0 .
890(16) 0.0 0.0 .
900(16) 0.0 0.0 .
893(16) 0.0 0.0 .
936(16) 0.0 0.0 .
910(16) 0.0 0.0 .
868(16) 0.0 0.0 .
868(16) 0.0 0.0 .
946(16) 0.0 0.0 .
878(15) 0.0 0.0 .
867(16) 0.0 0.0 .
915(17) 0.0 0.0 .
897(16) 0.0 0.0 .
930(16) 0.0 0.0 .
867(15) 0.0 0.0 .
879(16) 0.0 0.0 .
898(17) 0.0 0.0 .
909(16) 0.0 0.0 .
865(15) 0.0 0.0 .
855(15) 0.0 0.0 .
905(16) 0.0 0.0 .
837(16) 0.0 0.0 .
855(16) 0.0 0.0 .
861(15) 0.0 0.0 .
875(15) 0.0 0.0 .
878(16) 0.0 0.0 .
893(17) 0.0 0.0 .
871(16) 0.0 0.0 .
862(15) 0.0 0.0 .
880(15) 0.0 0.0 .
865(16) 0.0 0.0 .
836(16) 0.0 0.0 .
886(16) 0.0 0.0 .
893(16) 0.0 0.0 .
844(15) 0.0 0.0 .
842(16) 0.0 0.0 .
889(16) 0.0 0.0 .
874(16) 0.0 0.0 .
834(15) 0.0 0.0 .
871(16) 0.0 0.0 .
845(16) 0.0 0.0 .
864(16) 0.0 0.0 .
875(16) 0.0 0.0 .
872(15) 0.0 0.0 .
869(16) 0.0 0.0 .
857(16) 0.0 0.0 .
835(16) 0.0 0.0 .
868(16) 0.0 0.0 .
827(15) 0.0 0.0 .
847(16) 0.0 0.0 .
855(16) 0.0 0.0 .
849(16) 0.0 0.0 .
820(15) 0.0 0.0 .
810(15) 0.0 0.0 .
793(15) 0.0 0.0 .
832(16) 0.0 0.0 .
872(16) 0.0 0.0 .
816(15) 0.0 0.0 .
830(15) 0.0 0.0 .
791(15) 0.0 0.0 .
815(16) 0.0 0.0 .
802(15) 0.0 0.0 .
812(15) 0.0 0.0 .
810(15) 0.0 0.0 .
819(15) 0.0 0.0 .
909(17) 0.0 0.0 .
821(15) 0.0 0.0 .
809(15) 0.0 0.0 .
816(15) 0.0 0.0 .
804(15) 0.0 0.0 .
798(16) 0.0 0.0 .
843(16) 0.0 0.0 .
868(15) 0.0 0.0 .
828(15) 0.0 0.0 .
852(16) 0.0 0.0 .
815(16) 0.0 0.0 .
824(15) 0.0 0.0 .
798(15) 0.0 0.0 .
820(15) 0.0 0.0 .
841(15) 0.0 0.0 .
847(16) 0.0 0.0 .
816(15) 0.0 0.0 .
827(15) 0.0 0.0 .
810(15) 0.0 0.0 .
829(15) 0.0 0.0 .
815(16) 0.0 0.0 .
802(15) 0.0 0.0 .
838(15) 0.0 0.0 .
827(15) 0.0 0.0 .
813(15) 0.0 0.0 .
810(16) 0.0 0.0 .
758(15) 0.0 0.0 .
806(15) 0.0 0.0 .
825(15) 0.0 0.0 .
832(15) 0.0 0.0 .
813(15) 0.0 0.0 .
824(15) 0.0 0.0 .
796(15) 0.0 0.0 .
795(15) 0.0 0.0 .
826(16) 0.0 0.0 .
824(15) 0.0 0.0 .
791(15) 0.0 0.0 .
785(15) 0.0 0.0 .
834(16) 0.0 0.0 .
842(16) 0.0 0.0 .
811(15) 0.0 0.0 .
818(15) 0.0 0.0 .
770(14) 0.0 0.0 .
788(15) 0.0 0.0 .
853(16) 0.0 0.0 .
788(15) 0.0 0.0 .
815(15) 0.0 0.0 .
783(14) 0.0 0.0 .
787(15) 0.0 0.0 .
756(15) 0.0 0.0 .
788(15) 0.0 0.0 .
796(15) 0.0 0.0 .
790(15) 0.0 0.0 .
825(15) 0.0 0.0 .
812(16) 0.0 0.0 .
749(15) 0.0 0.0 .
778(15) 0.0 0.0 .
832(15) 0.0 0.0 .
794(15) 0.0 0.0 .
788(16) 0.0 0.0 .
769(15) 0.0 0.0 .
807(15) 0.0 0.0 .
825(15) 0.0 0.0 .
807(15) 0.0 0.0 .
764(16) 0.0 0.0 .
767(15) 0.0 0.0 .
797(15) 0.0 0.0 .
789(15) 0.0 0.0 .
801(15) 0.0 0.0 .
764(15) 0.0 0.0 .
814(15) 0.0 0.0 .
761(14) 0.0 0.0 .
771(15) 0.0 0.0 .
772(15) 0.0 0.0 .
799(15) 0.0 0.0 .
778(15) 0.0 0.0 .
795(15) 0.0 0.0 .
790(15) 0.0 0.0 .
757(15) 0.0 0.0 .
766(15) 0.0 0.0 .
792(15) 0.0 0.0 .
774(14) 0.0 0.0 .
772(15) 0.0 0.0 .
777(15) 0.0 0.0 .
782(15) 0.0 0.0 .
815(15) 0.0 0.0 .
768(14) 0.0 0.0 .
756(15) 0.0 0.0 .
751(15) 0.0 0.0 .
803(15) 0.0 0.0 .
765(15) 0.0 0.0 .
788(15) 0.0 0.0 .
785(15) 0.0 0.0 .
767(15) 0.0 0.0 .
799(15) 0.0 0.0 .
739(14) 0.0 0.0 .
751(14) 0.0 0.0 .
764(15) 0.0 0.0 .
761(15) 0.0 0.0 .
774(15) 0.0 0.0 .
751(14) 0.0 0.0 .
729(14) 0.0 0.0 .
783(15) 0.0 0.0 .
806(16) 0.0 0.0 .
789(15) 0.0 0.0 .
739(14) 0.0 0.0 .
741(14) 0.0 0.0 .
743(15) 0.0 0.0 .
755(15) 0.0 0.0 .
782(15) 0.0 0.0 .
774(14) 0.0 0.0 .
786(15) 0.0 0.0 .
765(15) 0.0 0.0 .
778(16) 0.0 0.0 .
790(15) 0.0 0.0 .
767(14) 0.0 0.0 .
778(14) 0.0 0.0 .
777(15) 0.0 0.0 .
769(15) 0.0 0.0 .
744(15) 0.0 0.0 .
698(14) 0.0 0.0 .
756(14) 0.0 0.0 .
780(15) 0.0 0.0 .
776(15) 0.0 0.0 .
765(15) 0.0 0.0 .
773(14) 0.0 0.0 .
779(15) 0.0 0.0 .
759(15) 0.0 0.0 .
770(15) 0.0 0.0 .
755(15) 0.0 0.0 .
755(14) 0.0 0.0 .
733(14) 0.0 0.0 .
729(15) 0.0 0.0 .
788(15) 0.0 0.0 .
763(15) 0.0 0.0 .
753(14) 0.0 0.0 .
756(14) 0.0 0.0 .
784(15) 0.0 0.0 .
762(15) 0.0 0.0 .
755(15) 0.0 0.0 .
749(14) 0.0 0.0 .
795(15) 0.0 0.0 .
767(15) 0.0 0.0 .
766(15) 0.0 0.0 .
798(15) 0.0 0.0 .
787(14) 0.0 0.0 .
773(15) 0.0 0.0 .
761(15) 0.0 0.0 .
759(15) 0.0 0.0 .
697(14) 0.0 0.0 .
756(14) 0.0 0.0 .
756(15) 0.0 0.0 .
775(15) 0.0 0.0 .
760(15) 0.0 0.0 .
724(14) 0.0 0.0 .
739(14) 0.0 0.0 .
761(15) 0.0 0.0 .
745(15) 0.0 0.0 .
758(15) 0.0 0.0 .
752(14) 0.0 0.0 .
730(14) 0.0 0.0 .
744(15) 0.0 0.0 .
761(15) 0.0 0.0 .
738(14) 0.0 0.0 .
743(14) 0.0 0.0 .
752(14) 0.0 0.0 .
748(15) 0.0 0.0 .
762(15) 0.0 0.0 .
749(15) 0.0 0.0 .
736(14) 0.0 0.0 .
725(14) 0.0 0.0 .
750(15) 0.0 0.0 .
773(15) 0.0 0.0 .
753(15) 0.0 0.0 .
764(14) 0.0 0.0 .
735(14) 0.0 0.0 .
775(15) 0.0 0.0 .
715(15) 0.0 0.0 .
738(15) 0.0 0.0 .
698(14) 0.0 0.0 .
743(14) 0.0 0.0 .
721(14) 0.0 0.0 .
747(15) 0.0 0.0 .
765(15) 0.0 0.0 .
747(14) 0.0 0.0 .
727(14) 0.0 0.0 .
748(15) 0.0 0.0 .
736(15) 0.0 0.0 .
745(14) 0.0 0.0 .
739(14) 0.0 0.0 .
719(14) 0.0 0.0 .
701(14) 0.0 0.0 .
707(14) 0.0 0.0 .
738(14) 0.0 0.0 .
711(14) 0.0 0.0 .
755(15) 0.0 0.0 .
741(15) 0.0 0.0 .
762(15) 0.0 0.0 .
725(14) 0.0 0.0 .
712(14) 0.0 0.0 .
745(15) 0.0 0.0 .
743(15) 0.0 0.0 .
728(14) 0.0 0.0 .
743(14) 0.0 0.0 .
703(14) 0.0 0.0 .
690(14) 0.0 0.0 .
745(15) 0.0 0.0 .
741(15) 0.0 0.0 .
728(14) 0.0 0.0 .
756(14) 0.0 0.0 .
712(14) 0.0 0.0 .
703(15) 0.0 0.0 .
681(14) 0.0 0.0 .
740(14) 0.0 0.0 .
726(14) 0.0 0.0 .
748(15) 0.0 0.0 .
742(15) 0.0 0.0 .
743(15) 0.0 0.0 .
731(14) 0.0 0.0 .
711(14) 0.0 0.0 .
754(15) 0.0 0.0 .
731(15) 0.0 0.0 .
732(14) 0.0 0.0 .
741(14) 0.0 0.0 .
737(14) 0.0 0.0 .
728(15) 0.0 0.0 .
713(14) 0.0 0.0 .
734(15) 0.0 0.0 .
747(14) 0.0 0.0 .
720(14) 0.0 0.0 .
703(14) 0.0 0.0 .
762(15) 0.0 0.0 .
743(15) 0.0 0.0 .
758(14) 0.0 0.0 .
727(14) 0.0 0.0 .
728(15) 0.0 0.0 .
750(15) 0.0 0.0 .
735(14) 0.0 0.0 .
728(14) 0.0 0.0 .
699(14) 0.0 0.0 .
698(14) 0.0 0.0 .
726(14) 0.0 0.0 .
693(14) 0.0 0.0 .
711(14) 0.0 0.0 .
716(14) 0.0 0.0 .
714(14) 0.0 0.0 .
679(14) 0.0 0.0 .
666(14) 0.0 0.0 .
700(14) 0.0 0.0 .
711(14) 0.0 0.0 .
680(14) 0.0 0.0 .
712(14) 0.0 0.0 .
700(14) 0.0 0.0 .
735(14) 0.0 0.0 .
705(14) 0.0 0.0 .
702(15) 0.0 0.0 .
735(15) 0.0 0.0 .
694(14) 0.0 0.0 .
726(14) 0.0 0.0 .
670(14) 0.0 0.0 .
701(15) 0.0 0.0 .
707(14) 0.0 0.0 .
739(14) 0.0 0.0 .
697(14) 0.0 0.0 .
720(14) 0.0 0.0 .
709(15) 0.0 0.0 .
727(14) 0.0 0.0 .
722(14) 0.0 0.0 .
709(14) 0.0 0.0 .
704(14) 0.0 0.0 .
729(15) 0.0 0.0 .
724(14) 0.0 0.0 .
706(14) 0.0 0.0 .
738(14) 0.0 0.0 .
725(14) 0.0 0.0 .
708(15) 0.0 0.0 .
706(14) 0.0 0.0 .
739(14) 0.0 0.0 .
716(14) 0.0 0.0 .
698(14) 0.0 0.0 .
693(15) 0.0 0.0 .
682(14) 0.0 0.0 .
724(14) 0.0 0.0 .
724(14) 0.0 0.0 .
715(14) 0.0 0.0 .
708(14) 0.0 0.0 .
694(14) 0.0 0.0 .
731(14) 0.0 0.0 .
703(14) 0.0 0.0 .
671(14) 0.0 0.0 .
701(14) 0.0 0.0 .
720(14) 0.0 0.0 .
720(14) 0.0 0.0 .
740(15) 0.0 0.0 .
706(14) 0.0 0.0 .
692(14) 0.0 0.0 .
692(14) 0.0 0.0 .
699(14) 0.0 0.0 .
707(14) 0.0 0.0 .
718(15) 0.0 0.0 .
674(14) 0.0 0.0 .
726(14) 0.0 0.0 .
740(14) 0.0 0.0 .
682(14) 0.0 0.0 .
715(15) 0.0 0.0 .
668(14) 0.0 0.0 .
652(13) 0.0 0.0 .
730(14) 0.0 0.0 .
709(14) 0.0 0.0 .
715(15) 0.0 0.0 .
750(15) 0.0 0.0 .
704(14) 0.0 0.0 .
656(13) 0.0 0.0 .
690(14) 0.0 0.0 .
726(15) 0.0 0.0 .
729(15) 0.0 0.0 .
708(14) 0.0 0.0 .
702(14) 0.0 0.0 .
734(15) 0.0 0.0 .
693(15) 0.0 0.0 .
702(14) 0.0 0.0 .
698(14) 0.0 0.0 .
716(14) 0.0 0.0 .
723(14) 0.0 0.0 .
745(15) 0.0 0.0 .
699(14) 0.0 0.0 .
749(14) 0.0 0.0 .
714(14) 0.0 0.0 .
711(14) 0.0 0.0 .
713(15) 0.0 0.0 .
711(14) 0.0 0.0 .
725(14) 0.0 0.0 .
692(14) 0.0 0.0 .
694(14) 0.0 0.0 .
727(15) 0.0 0.0 .
707(14) 0.0 0.0 .
707(14) 0.0 0.0 .
687(14) 0.0 0.0 .
711(14) 0.0 0.0 .
733(15) 0.0 0.0 .
704(14) 0.0 0.0 .
755(14) 0.0 0.0 .
713(14) 0.0 0.0 .
737(15) 0.0 0.0 .
722(14) 0.0 0.0 .
691(14) 0.0 0.0 .
696(14) 0.0 0.0 .
726(14) 0.0 0.0 .
719(15) 0.0 0.0 .
747(15) 0.0 0.0 .
761(14) 0.0 0.0 .
687(14) 0.0 0.0 .
695(14) 0.0 0.0 .
735(15) 0.0 0.0 .
753(15) 0.0 0.0 .
727(14) 0.0 0.0 .
724(14) 0.0 0.0 .
729(15) 0.0 0.0 .
690(15) 0.0 0.0 .
700(14) 0.0 0.0 .
713(14) 0.0 0.0 .
698(14) 0.0 0.0 .
729(15) 0.0 0.0 .
716(15) 0.0 0.0 .
762(15) 0.0 0.0 .
775(14) 0.0 0.0 .
704(14) 0.0 0.0 .
712(14) 0.0 0.0 .
699(14) 0.0 0.0 .
710(14) 0.0 0.0 .
725(14) 0.0 0.0 .
693(14) 0.0 0.0 .
750(15) 0.0 0.0 .
721(15) 0.0 0.0 .
732(14) 0.0 0.0 .
728(14) 0.0 0.0 .
705(14) 0.0 0.0 .
706(14) 0.0 0.0 .
724(15) 0.0 0.0 .
692(14) 0.0 0.0 .
734(14) 0.0 0.0 .
727(14) 0.0 0.0 .
728(15) 0.0 0.0 .
731(15) 0.0 0.0 .
713(14) 0.0 0.0 .
726(14) 0.0 0.0 .
732(14) 0.0 0.0 .
773(15) 0.0 0.0 .
749(15) 0.0 0.0 .
733(14) 0.0 0.0 .
769(14) 0.0 0.0 .
709(14) 0.0 0.0 .
733(15) 0.0 0.0 .
740(15) 0.0 0.0 .
751(14) 0.0 0.0 .
773(14) 0.0 0.0 .
752(15) 0.0 0.0 .
740(15) 0.0 0.0 .
724(14) 0.0 0.0 .
735(14) 0.0 0.0 .
774(14) 0.0 0.0 .
748(15) 0.0 0.0 .
735(15) 0.0 0.0 .
798(15) 0.0 0.0 .
795(15) 0.0 0.0 .
802(15) 0.0 0.0 .
813(15) 0.0 0.0 .
808(16) 0.0 0.0 .
773(15) 0.0 0.0 .
748(14) 0.0 0.0 .
769(14) 0.0 0.0 .
807(15) 0.0 0.0 .
802(16) 0.0 0.0 .
796(15) 0.0 0.0 .
788(15) 0.0 0.0 .
764(14) 0.0 0.0 .
827(16) 0.0 0.0 .
832(16) 0.0 0.0 .
838(15) 0.0 0.0 .
843(15) 0.0 0.0 .
856(15) 0.0 0.0 .
888(16) 0.0 0.0 .
848(16) 0.0 0.0 .
848(16) 0.0 0.0 .
824(15) 0.0 0.0 .
836(15) 0.0 0.0 .
831(15) 0.0 0.0 .
910(17) 0.0 0.0 .
887(16) 0.0 0.0 .
926(16) 0.0 0.0 .
902(16) 0.0 0.0 .
918(16) 0.0 0.0 .
958(17) 0.0 0.0 .
958(17) 0.0 0.0 .
995(16) 0.0 0.0 .
1003(17) 0.0 0.0 .
1006(17) 0.0 0.0 .
1039(17) 0.0 0.0 .
1056(17) 0.0 0.0 .
1061(17) 0.0 0.0 .
1107(18) 0.0 0.0 .
1134(18) 0.0 0.0 .
1222(19) 0.0 0.0 .
1189(18) 0.0 0.0 .
1250(18) 0.0 0.0 .
1258(19) 0.0 0.0 .
1300(20) 0.0 0.0 .
1380(20) 0.0 0.0 .
1449(20) 0.0 0.0 .
1631(21) 0.0 0.0 .
1721(22) 0.0 0.0 .
1868(24) 0.0 0.0 .
2050(24) 0.0 0.0 .
2313(25) 0.0 0.0 .
2751(27) 0.0 0.0 .
3316(31) 0.0 0.0 .
4050(35) 0.0 0. .
4906(38) 0.0 0. .
6205(41) 0.0 0. .
7578(45) 0.0 0. .
9502(52) 0.0 0. .
11487(60) 0.0 0. .
13855(64) 0.0 0. .
16342(67) 0.0 0. .
18786(72) 0.0 0. .
21436(79) 0.0 0. .
23814(87) 0.0 0. .
26522(90) 0.0 0. .
29098(91) 0.0 0. .
32540(96) 0.0 0. .
36280(110) 0.0 0. .
40900(120) 0.0 0. .
46680(120) 0.0 0. .
54050(130) 0.0 0. .
63010(140) 0.0 0. .
73020(150) 0.0 0. .
82740(170) 0.0 0. .
87310(170) 0.0 0. .
82730(160) 0.0 0. .
69600(150) 0.0 0. .
54650(130) 0.0 0. .
40730(110) 0.0 0. .
30277(95) 0.0 0. .
22525(79) 0.0 0. .
16967(70) 0.0 0. .
13297(63) 0.0 0. .
10641(56) 0.0 0. .
8606(50) 0.0 0. .
7071(44) 0.0 0. .
6067(42) 0.0 0. .
5256(40) 0.0 0. .
4496(36) 0.0 0. .
3980(33) 0.0 0.0 .
3615(31) 0.0 0.0 .
3207(30) 0.0 0.0 .
2972(30) 0.0 0.0 .
2711(28) 0.0 0.0 .
2429(26) 0.0 0.0 .
2295(25) 0.0 0.0 .
2149(25) 0.0 0.0 .
1980(24) 0.0 0.0 .
1905(23) 0.0 0.0 .
1735(22) 0.0 0.0 .
1678(21) 0.0 0.0 .
1578(22) 0.0 0.0 .
1503(21) 0.0 0.0 .
1471(21) 0.0 0.0 .
1382(19) 0.0 0.0 .
1316(19) 0.0 0.0 .
1322(20) 0.0 0.0 .
1306(20) 0.0 0.0 .
1221(19) 0.0 0.0 .
1154(18) 0.0 0.0 .
1144(18) 0.0 0.0 .
1106(18) 0.0 0.0 .
1088(19) 0.0 0.0 .
1094(18) 0.0 0.0 .
1021(17) 0.0 0.0 .
1021(17) 0.0 0.0 .
996(17) 0.0 0.0 .
986(17) 0.0 0.0 .
899(16) 0.0 0.0 .
901(16) 0.0 0.0 .
905(16) 0.0 0.0 .
965(17) 0.0 0.0 .
936(17) 0.0 0.0 .
919(16) 0.0 0.0 .
892(15) 0.0 0.0 .
848(15) 0.0 0.0 .
837(16) 0.0 0.0 .
796(16) 0.0 0.0 .
799(15) 0.0 0.0 .
829(15) 0.0 0.0 .
857(16) 0.0 0.0 .
850(16) 0.0 0.0 .
790(15) 0.0 0.0 .
806(15) 0.0 0.0 .
787(15) 0.0 0.0 .
771(15) 0.0 0.0 .
790(15) 0.0 0.0 .
745(15) 0.0 0.0 .
764(15) 0.0 0.0 .
803(15) 0.0 0.0 .
767(15) 0.0 0.0 .
744(15) 0.0 0.0 .
748(15) 0.0 0.0 .
759(15) 0.0 0.0 .
790(15) 0.0 0.0 .
751(15) 0.0 0.0 .
747(15) 0.0 0.0 .
771(15) 0.0 0.0 .
742(14) 0.0 0.0 .
750(14) 0.0 0.0 .
748(15) 0.0 0.0 .
751(15) 0.0 0.0 .
746(15) 0.0 0.0 .
731(14) 0.0 0.0 .
730(14) 0.0 0.0 .
689(14) 0.0 0.0 .
717(15) 0.0 0.0 .
728(14) 0.0 0.0 .
732(14) 0.0 0.0 .
748(14) 0.0 0.0 .
749(15) 0.0 0.0 .
703(15) 0.0 0.0 .
709(14) 0.0 0.0 .
728(14) 0.0 0.0 .
704(14) 0.0 0.0 .
691(14) 0.0 0.0 .
712(15) 0.0 0.0 .
666(14) 0.0 0.0 .
729(14) 0.0 0.0 .
674(13) 0.0 0.0 .
654(14) 0.0 0.0 .
692(15) 0.0 0.0 .
700(14) 0.0 0.0 .
674(13) 0.0 0.0 .
682(14) 0.0 0.0 .
678(14) 0.0 0.0 .
712(15) 0.0 0.0 .
713(14) 0.0 0.0 .
696(14) 0.0 0.0 .
676(14) 0.0 0.0 .
679(14) 0.0 0.0 .
666(14) 0.0 0.0 .
657(14) 0.0 0.0 .
698(14) 0.0 0.0 .
713(14) 0.0 0.0 .
668(14) 0.0 0.0 .
714(14) 0.0 0.0 .
674(14) 0.0 0.0 .
695(14) 0.0 0.0 .
691(14) 0.0 0.0 .
674(14) 0.0 0.0 .
681(14) 0.00498 657.1 65.8
703(14) 0.00508 657.1 64.7
646(13) 0.00572 657.1 63.7
662(14) 0.00511 657.1 62.6
662(14) 0.00502 656.9 61.6
668(14) 0.00509 656.4 60.6
651(13) 0.00556 656.0 59.6
667(13) 0.00560 655.6 58.7
657(14) 0.00522 655.1 0.0
641(14) 0.00513 654.7 0.0
656(14) 0.00522 654.2 0.0
659(13) 0.00553 653.8 0.0
644(13) 0.00577 653.3 0.0
672(14) 0.00508 652.9 0.0
636(14) 0.00528 652.5 0.0
645(14) 0.00535 652.0 0.0
684(14) 0.00534 651.6 0.0
677(13) 0.00552 651.1 0.0
662(14) 0.00530 650.7 0.0
640(14) 0.00521 650.2 0.0
665(14) 0.00525 649.8 0.0
684(14) 0.00545 649.4 0.0
670(14) 0.00545 648.9 0.0
617(13) 0.00581 648.5 0.0
649(14) 0.00498 648.0 0.0
668(14) 0.00507 647.6 0.0
652(13) 0.00573 647.1 0.0
669(14) 0.00534 646.7 0.0
631(14) 0.00542 646.3 0.0
675(14) 0.00480 645.8 0.0
680(14) 0.00509 645.4 0.0
646(13) 0.00577 644.9 0.0
667(14) 0.00543 644.5 0.0
667(14) 0.00526 644.1 0.0
623(14) 0.00527 643.6 0.0
656(14) 0.00515 643.2 0.0
625(13) 0.00590 642.7 0.0
621(13) 0.00575 642.3 0.0
679(14) 0.00501 641.8 0.0
666(14) 0.00490 641.4 0.0
638(14) 0.00546 641.0 0.0
654(13) 0.00566 640.5 0.0
667(14) 0.00534 640.1 0.0
621(13) 0.00556 639.6 0.0
627(14) 0.00547 639.2 0.0
642(14) 0.00546 638.7 0.0
673(13) 0.00550 638.3 0.0
644(14) 0.00543 637.9 0.0
639(14) 0.00544 637.4 0.0
651(14) 0.00528 637.0 0.0
658(14) 0.00533 636.5 0.0
608(13) 0.00615 636.1 0.0
642(14) 0.00527 635.6 0.0
605(13) 0.00558 635.2 0.0
616(13) 0.00557 634.8 0.0
603(13) 0.00604 634.3 0.0
617(13) 0.00599 633.9 0.0
656(14) 0.00522 633.4 0.0
625(14) 0.00534 633.0 0.0
609(13) 0.00585 632.5 0.0
647(13) 0.00562 632.1 0.0
656(13) 0.00566 631.7 0.0
613(13) 0.00567 631.2 0.0
637(14) 0.00510 630.8 0.0
592(13) 0.00594 630.3 0.0
628(13) 0.00582 629.9 0.0
615(13) 0.00604 629.4 0.0
623(13) 0.00559 629.0 0.0
659(14) 0.00491 628.6 0.0
674(14) 0.00520 628.1 0.0
632(13) 0.00579 627.7 0.0
625(13) 0.00596 627.2 0.0
650(14) 0.00531 626.8 0.0
631(14) 0.00512 626.3 0.0
651(14) 0.00537 625.9 0.0
628(13) 0.00585 625.5 0.0
649(13) 0.00569 625.0 0.0
633(13) 0.00560 624.6 0.0
654(14) 0.00497 624.1 0.0
626(13) 0.00566 623.7 0.0
637(13) 0.00578 623.2 0.0
629(13) 0.00580 622.8 0.0
641(14) 0.00548 622.4 0.0
648(14) 0.00520 621.9 0.0
604(13) 0.00578 621.5 0.0
601(13) 0.00622 621.0 0.8
659(14) 0.00548 620.6 0.8
633(13) 0.00552 620.1 0.8
647(14) 0.00517 619.7 0.9
626(13) 0.00552 619.3 0.9
620(13) 0.00598 618.8 0.9
601(13) 0.00590 618.4 0.9
606(13) 0.00568 617.9 0.9
611(13) 0.00562 617.5 0.9
630(13) 0.00561 617.0 0.9
595(13) 0.00625 616.6 1.0
598(13) 0.00577 616.2 1.0
625(14) 0.00544 615.7 1.0
638(14) 0.00536 615.3 1.0
624(13) 0.00572 614.8 1.0
637(13) 0.00586 614.4 1.1
614(13) 0.00573 613.9 1.1
618(13) 0.00558 613.5 1.1
617(13) 0.00560 613.1 1.1
591(13) 0.00603 612.6 1.1
628(13) 0.00597 612.2 1.2
629(14) 0.00548 611.7 1.2
596(13) 0.00559 611.3 1.2
578(13) 0.00610 610.8 1.2
634(13) 0.00576 610.4 1.2
630(13) 0.00591 610.0 1.3
642(14) 0.00542 609.5 1.3
667(14) 0.00494 609.1 1.3
602(13) 0.00580 608.6 1.4
619(13) 0.00588 608.2 1.4
622(13) 0.00607 607.7 1.4
572(13) 0.00612 607.3 1.4
596(14) 0.00548 606.9 1.5
603(13) 0.00581 606.4 1.5
598(13) 0.00618 606.0 1.5
604(13) 0.00611 605.5 1.6
610(13) 0.00573 605.1 1.6
632(14) 0.00508 604.6 1.6
617(13) 0.00560 604.2 1.7
627(13) 0.00589 603.8 1.7
631(13) 0.00584 603.3 1.8
601(13) 0.00587 602.9 1.8
610(14) 0.00526 602.4 1.8
619(14) 0.00547 602.0 1.9
632(13) 0.00585 601.5 1.9
581(13) 0.00634 601.1 2.0
579(13) 0.00610 600.7 2.0
618(14) 0.00541 600.2 2.1
593(13) 0.00579 599.8 2.1
622(13) 0.00595 599.3 2.2
580(13) 0.00639 598.9 2.2
593(13) 0.00585 598.7 2.3
604(13) 0.00556 598.6 2.4
630(13) 0.00553 598.4 2.4
652(13) 0.00569 598.3 2.5
611(13) 0.00589 598.2 2.6
592(13) 0.00570 598.1 2.6
614(14) 0.00543 597.9 2.7
606(13) 0.00575 597.8 2.8
623(13) 0.00597 597.7 2.9
612(13) 0.00577 597.5 3.0
597(13) 0.00582 597.4 3.1
658(14) 0.00517 597.3 3.2
610(13) 0.00601 597.1 3.3
607(13) 0.00618 597.0 3.4
595(13) 0.00596 596.9 3.5
589(13) 0.00560 596.7 3.6
557(13) 0.00620 596.6 3.7
632(13) 0.00572 596.5 3.8
642(13) 0.00580 596.4 4.0
610(13) 0.00567 596.2 4.1
630(14) 0.00527 596.1 4.3
645(14) 0.00524 596.0 4.4
591(13) 0.00624 595.8 4.6
593(13) 0.00630 595.7 4.8
628(13) 0.00555 595.6 5.0
610(14) 0.00541 595.4 5.2
589(13) 0.00582 595.3 5.4
584(13) 0.00619 595.2 5.6
577(12) 0.00643 595.0 5.8
621(13) 0.00554 594.9 6.1
609(14) 0.00538 594.8 6.4
598(13) 0.00584 594.7 6.6
611(13) 0.00605 594.5 6.9
651(13) 0.00574 594.4 7.3
604(13) 0.00585 594.3 7.6
587(13) 0.00561 594.1 8.0
681(14) 0.00506 594.0 8.4
660(13) 0.00565 593.9 8.9
623(13) 0.00594 593.7 9.3
610(13) 0.00573 593.6 9.9
615(14) 0.00523 593.5 10.4
631(13) 0.00564 593.3 11.0
625(13) 0.00597 593.2 11.7
610(13) 0.00602 593.1 12.4
595(13) 0.00590 593.0 13.2
584(13) 0.00576 592.8 14.1
619(13) 0.00550 592.7 15.0
629(13) 0.00595 592.6 16.1
608(13) 0.00601 592.4 17.3
600(13) 0.00575 592.3 18.6
641(14) 0.00510 592.2 20.0
605(13) 0.00575 592.0 21.7
662(13) 0.00562 591.9 23.5
640(13) 0.00559 591.8 25.6
648(14) 0.00523 591.6 28.0
631(14) 0.00536 591.5 30.7
675(14) 0.00514 591.4 33.8
669(13) 0.00564 591.3 37.5
691(14) 0.00508 591.1 41.8
699(14) 0.00495 591.0 47.1
708(14) 0.00480 590.9 53.8
729(15) 0.00474 590.7 62.5
770(14) 0.00483 590.6 74.2
808(15) 0.00439 590.5 90.2
877(16) 0.00379 590.3 112.6
859(16) 0.00402 590.2 143.8
928(16) 0.00384 590.1 186.4
960(16) 0.00390 589.9 243.3
950(17) 0.00367 589.8 316.4
1008(17) 0.003301 589.7 406.4
1115(18) 0.003064 589.6 511.9
1134(18) 0.003211 589.4 628.1
1187(18) 0.003141 589.3 746.0
1251(19) 0.002820 589.2 851.0
1275(19) 0.002641 589.0 923.7
1359(20) 0.002557 588.9 946.3
1390(20) 0.002616 588.8 912.4
1299(19) 0.002876 588.6 831.4
1238(19) 0.002804 588.5 722.2
1095(18) 0.003036 588.4 603.7
960(16) 0.00369 588.2 489.0
877(15) 0.00425 588.1 386.5
816(15) 0.00461 588.0 299.9
732(14) 0.00482 587.9 230.3
756(16) 0.00416 587.7 176.6
676(14) 0.00525 587.6 136.5
690(14) 0.00537 587.5 107.4
646(13) 0.00563 587.3 86.5
638(14) 0.00545 587.2 71.4
637(14) 0.00515 587.1 60.5
603(13) 0.00593 586.9 52.3
584(13) 0.00637 586.8 45.9
638(13) 0.00581 586.7 40.8
616(13) 0.00570 586.5 36.7
616(14) 0.00538 586.4 33.1
627(13) 0.00556 586.3 30.1
619(13) 0.00605 586.2 27.4
595(13) 0.00610 586.0 25.1
596(13) 0.00591 585.9 23.1
595(13) 0.00568 585.8 21.3
609(13) 0.00563 585.6 19.7
623(13) 0.00601 585.5 18.3
575(13) 0.00630 585.4 17.0
623(13) 0.00553 585.2 15.9
581(13) 0.00589 585.1 14.8
610(13) 0.00566 585.0 13.9
592(13) 0.00630 584.8 13.0
577(13) 0.00619 584.7 12.3
570(13) 0.00613 584.6 11.6
597(13) 0.00574 584.5 10.9
615(13) 0.00572 584.3 10.3
551(12) 0.00674 584.2 9.8
571(13) 0.00612 584.1 9.2
565(13) 0.00589 583.9 8.8
577(13) 0.00590 583.8 8.3
566(13) 0.00621 583.7 7.9
584(13) 0.00637 583.5 7.6
614(13) 0.00575 583.4 7.2
622(13) 0.00555 583.3 6.9
609(13) 0.00560 583.1 6.6
591(13) 0.00593 583.0 6.3
584(13) 0.00632 582.9 6.0
586(13) 0.00581 582.8 5.8
567(13) 0.00590 582.6 5.5
587(13) 0.00587 582.5 5.3
578(12) 0.00642 582.4 5.1
581(13) 0.00638 582.2 4.9
579(13) 0.00602 582.1 4.7
607(14) 0.00530 582.0 4.6
567(13) 0.00622 581.8 4.4
583(13) 0.00626 581.7 4.2
580(12) 0.00644 581.6 4.1
578(13) 0.00603 581.4 3.9
613(14) 0.00520 581.3 3.8
565(13) 0.00625 581.2 3.7
564(12) 0.00663 581.1 3.6
592(13) 0.00614 580.9 3.5
582(13) 0.00590 580.8 3.3
595(14) 0.00548 580.7 3.2
603(13) 0.00571 580.5 3.1
606(13) 0.00609 580.4 3.0
567(12) 0.00644 580.3 3.0
589(13) 0.00577 580.1 2.9
574(13) 0.00568 580.0 2.8
562(13) 0.00632 579.9 2.7
568(12) 0.00656 579.7 2.6
593(13) 0.00613 579.6 2.6
557(12) 0.00644 579.5 2.5
607(13) 0.00554 579.4 2.4
602(13) 0.00590 579.2 2.4
576(12) 0.00647 579.1 2.3
591(13) 0.00611 579.0 2.2
620(14) 0.00536 578.8 2.2
567(13) 0.00605 578.7 2.1
570(13) 0.00618 578.6 2.1
596(13) 0.00628 578.4 2.0
538(12) 0.00649 578.3 2.0
630(14) 0.00537 578.2 1.9
589(13) 0.00568 578.0 1.9
579(13) 0.00607 577.9 1.8
588(13) 0.00637 577.8 1.8
612(13) 0.00563 577.7 1.7
585(13) 0.00569 577.5 1.7
565(13) 0.00606 577.4 1.7
560(12) 0.00646 577.3 1.6
562(12) 0.00661 577.1 1.6
592(13) 0.00584 577.0 1.6
607(13) 0.00558 576.9 1.5
591(13) 0.00591 576.7 1.5
594(13) 0.00612 576.6 1.5
590(13) 0.00626 576.5 1.4
559(13) 0.00631 576.3 1.4
592(13) 0.00552 576.2 1.4
595(13) 0.00579 576.1 1.3
563(12) 0.00647 576.0 1.3
583(13) 0.00632 575.8 1.3
586(13) 0.00586 575.8 1.3
569(13) 0.00592 575.8 1.2
599(13) 0.00579 575.7 1.2
574(12) 0.00648 575.7 1.2
550(12) 0.00668 575.7 1.2
578(13) 0.00599 575.7 1.1
577(13) 0.00569 575.6 1.1
596(13) 0.00578 575.6 1.1
559(12) 0.00663 575.6 1.1
579(13) 0.00637 575.5 1.1
571(13) 0.00603 575.5 1.0
595(14) 0.00545 575.5 1.0
600(13) 0.00587 575.5 1.0
584(13) 0.00627 575.4 1.0
568(12) 0.00653 575.4 1.0
543(12) 0.00644 575.4 1.0
586(14) 0.00545 575.4 0.9
575(13) 0.00608 575.3 0.9
571(12) 0.00659 575.3 0.9
579(13) 0.00623 575.3 0.9
617(14) 0.00548 575.3 0.9
576(13) 0.00601 575.2 0.9
595(13) 0.00586 575.2 0.9
569(12) 0.00658 575.2 0.8
595(13) 0.00610 575.2 0.8
565(13) 0.00629 575.1 0.0
586(13) 0.00587 575.1 0.0
564(13) 0.00625 575.1 0.0
597(13) 0.00623 575.1 0.0
563(12) 0.00642 575.0 0.0
560(13) 0.00628 575.0 0.0
585(13) 0.00575 575.0 0.0
595(13) 0.00600 575.0 0.0
602(13) 0.00619 574.9 0.0
576(13) 0.00620 574.9 0.0
587(13) 0.00573 574.9 0.0
556(13) 0.00605 574.9 0.0
582(13) 0.00593 574.8 0.0
582(12) 0.00642 574.8 0.0
581(13) 0.00599 574.8 0.0
584(13) 0.00586 574.8 0.0
607(13) 0.00556 574.7 0.0
583(13) 0.00628 574.7 0.0
571(13) 0.00640 574.7 0.0
580(13) 0.00602 574.7 0.0
567(13) 0.00603 574.6 0.0
599(13) 0.00572 574.6 0.0
562(12) 0.00654 574.6 0.0
580(12) 0.00642 574.6 0.0
566(13) 0.00621 574.5 0.0
591(13) 0.00561 574.5 0.0
575(13) 0.00622 574.5 0.0
562(12) 0.00653 574.5 0.0
572(12) 0.00646 574.4 0.0
568(13) 0.00605 574.4 0.0
577(13) 0.00568 574.4 0.0
560(13) 0.00628 574.3 0.0
593(13) 0.00618 574.3 0.0
600(13) 0.00620 574.3 0.0
587(13) 0.00596 574.3 0.0
576(14) 0.00548 574.2 0.0
559(13) 0.00610 574.2 0.0
569(12) 0.00659 574.2 0.0
549(12) 0.00662 574.2 0.0
566(13) 0.00600 574.1 0.0
549(13) 0.00598 574.1 0.0
589(13) 0.00589 574.1 0.0
583(13) 0.00631 574.1 0.0
591(13) 0.00615 574.0 0.0
581(13) 0.00593 574.0 0.0
563(13) 0.00596 574.0 0.0
575(13) 0.00612 574.0 0.0
618(13) 0.00595 573.9 0.0
586(13) 0.00634 573.9 0.0
584(13) 0.00605 573.9 0.0
585(13) 0.00565 573.9 0.0
554(13) 0.00620 573.8 0.0
567(12) 0.00659 573.8 0.0
622(13) 0.00568 573.8 0.0
631(14) 0.00540 573.8 0.0
608(13) 0.00557 573.7 0.0
578(13) 0.00588 573.7 0.0
583(12) 0.00640 573.7 0.0
554(13) 0.00637 573.7 0.0
571(13) 0.00610 573.6 0.0
563(13) 0.00611 573.6 0.0
559(13) 0.00611 573.6 0.0
554(12) 0.00675 573.6 0.0
584(13) 0.00599 573.5 0.0
595(13) 0.00556 573.5 0.0
581(13) 0.00582 573.5 0.0
572(13) 0.00635 573.5 0.0
582(13) 0.00635 573.4 0.0
587(13) 0.00579 573.4 0.0
552(13) 0.00618 573.4 0.0
608(13) 0.00569 573.4 0.0
590(13) 0.00607 573.3 0.0
576(12) 0.00648 573.3 0.0
584(13) 0.00604 573.3 0.0
562(13) 0.00593 573.3 0.0
583(13) 0.00583 573.2 0.0
612(13) 0.00605 573.2 0.0
553(12) 0.00667 573.2 0.0
561(13) 0.00626 573.2 0.0
603(14) 0.00549 573.1 0.0
582(13) 0.00608 573.1 0.0
579(13) 0.00630 573.1 0.0
551(12) 0.00680 573.0 0.0
571(13) 0.00605 573.0 0.0
585(13) 0.00550 573.0 0.0
559(13) 0.00622 573.0 0.0
546(12) 0.00677 572.9 0.0
572(12) 0.00645 572.9 0.0
547(12) 0.00653 572.9 0.0
529(13) 0.00621 572.9 0.0
568(13) 0.00597 572.8 0.0
597(13) 0.00614 572.8 0.0
575(13) 0.00634 572.8 0.0
560(13) 0.00626 572.8 0.0
587(13) 0.00550 572.7 0.0
563(13) 0.00615 572.7 0.0
569(12) 0.00651 572.7 0.0
551(12) 0.00661 572.7 0.0
598(13) 0.00581 572.6 0.0
569(13) 0.00585 572.6 0.0
568(13) 0.00598 572.6 0.0
573(12) 0.00652 572.6 0.0
577(13) 0.00620 572.5 0.0
571(13) 0.00603 572.5 0.0
564(13) 0.00590 572.5 0.0
568(13) 0.00626 572.5 0.0
600(13) 0.00618 572.4 0.0
600(13) 0.00592 572.4 0.0
566(13) 0.00611 572.4 0.0
563(13) 0.00589 572.4 0.0
573(13) 0.00612 572.3 0.0
582(12) 0.00640 572.3 0.0
566(13) 0.00632 572.3 0.0
579(13) 0.00583 572.3 0.0
564(13) 0.00625 572.2 0.0
560(13) 0.00628 572.2 0.0
559(12) 0.00665 572.2 0.0
580(13) 0.00588 572.2 0.0
582(13) 0.00566 572.1 0.0
531(12) 0.00660 572.1 0.0
563(12) 0.00640 572.1 0.0
570(12) 0.00655 572.1 0.0
601(13) 0.00568 572.0 0.0
595(13) 0.00555 572.0 0.0
586(13) 0.00586 572.0 0.0
552(12) 0.00649 572.0 0.0
585(13) 0.00636 571.9 0.0
568(13) 0.00601 571.9 0.0
567(13) 0.00579 571.9 0.0
576(13) 0.00613 571.8 0.0
606(13) 0.00605 571.8 0.0
550(12) 0.00681 571.8 0.0
563(13) 0.00631 571.8 0.0
551(13) 0.00584 571.7 0.0
556(13) 0.00627 571.7 0.0
591(13) 0.00624 571.7 0.0
616(13) 0.00599 571.7 0.0
608(13) 0.00566 571.6 0.0
610(14) 0.00522 571.6 0.0
595(13) 0.00570 571.6 0.0
573(13) 0.00639 571.6 0.0
593(13) 0.00625 571.5 0.0
594(13) 0.00594 571.5 0.0
587(13) 0.00559 571.5 0.0
549(13) 0.00628 571.5 0.0
551(12) 0.00672 571.4 0.0
553(12) 0.00663 571.4 0.0
577(13) 0.00602 571.4 0.0
579(13) 0.00571 571.4 0.0
547(12) 0.00642 571.3 0.0
550(12) 0.00678 571.3 0.0
562(13) 0.00639 571.3 0.0
589(13) 0.00577 571.3 0.0
542(13) 0.00617 571.2 0.0
591(13) 0.00574 571.2 0.0
594(13) 0.00628 571.2 0.0
575(13) 0.00623 571.2 0.0
558(13) 0.00617 571.1 0.0
565(13) 0.00596 571.1 0.0
557(13) 0.00636 571.1 0.0
583(13) 0.00636 571.1 0.0
604(13) 0.00579 571.0 0.0
567(13) 0.00618 571.0 0.0
567(13) 0.00612 571.0 0.0
562(12) 0.00642 571.0 0.0
563(12) 0.00664 570.9 0.0
577(13) 0.00611 570.9 0.0
577(13) 0.00588 570.9 0.0
583(13) 0.00592 570.9 0.0
561(12) 0.00643 570.8 0.0
577(12) 0.00646 570.8 0.0
591(13) 0.00579 570.8 0.0
560(13) 0.00590 570.8 0.0
528(12) 0.00659 570.7 0.0
555(12) 0.00650 570.7 0.0
583(12) 0.00641 570.7 0.0
561(13) 0.00615 570.6 0.0
583(13) 0.00567 570.6 0.0
572(13) 0.00619 570.6 0.0
568(12) 0.00651 570.6 0.0
562(12) 0.00666 570.5 0.0
559(13) 0.00630 570.5 0.0
595(13) 0.00553 570.5 0.0
591(13) 0.00592 570.5 0.0
595(13) 0.00616 570.4 0.0
573(12) 0.00656 570.4 0.0
566(13) 0.00618 570.4 0.0
565(13) 0.00564 570.4 0.0
576(13) 0.00606 570.3 0.0
570(12) 0.00648 570.3 0.0
553(12) 0.00677 570.3 0.0
591(13) 0.00585 570.3 0.0
572(13) 0.00569 570.2 0.0
593(13) 0.00588 570.2 0.0
583(13) 0.00638 570.2 0.0
573(13) 0.00639 570.2 0.0
558(13) 0.00620 570.1 0.0
583(13) 0.00568 570.1 0.0
559(13) 0.00624 570.1 0.0
577(12) 0.00648 570.1 0.0
569(12) 0.00648 570.0 0.0
569(13) 0.00610 570.0 0.0
557(13) 0.00606 570.0 0.0
578(13) 0.00591 570.0 0.0
611(13) 0.00607 569.9 0.0
572(13) 0.00627 569.9 0.0
560(13) 0.00614 569.9 0.0
574(13) 0.00590 569.9 0.0
563(13) 0.00622 569.8 0.0
578(12) 0.00645 569.8 0.0
542(12) 0.00680 569.8 0.0
565(13) 0.00617 569.8 0.0
560(13) 0.00617 569.7 0.0
577(13) 0.00611 569.7 0.0
565(12) 0.00663 569.7 0.0
607(13) 0.00576 569.7 0.0
561(13) 0.00601 569.6 0.0
574(13) 0.00591 569.6 0.0
572(13) 0.00624 569.6 0.0
569(12) 0.00652 569.6 0.0
559(13) 0.00623 569.5 0.0
589(13) 0.00574 569.5 0.0
613(13) 0.00572 569.5 0.0
614(13) 0.00588 569.5 0.0
564(12) 0.00660 569.4 0.0
581(13) 0.00601 569.4 0.0
544(13) 0.00599 569.4 0.0
563(13) 0.00594 569.3 0.0
570(13) 0.00638 569.3 0.0
593(13) 0.00620 569.3 0.0
553(13) 0.00636 569.3 0.0
568(13) 0.00573 569.2 0.0
577(13) 0.00593 569.2 0.0
548(12) 0.00672 569.2 0.0
565(12) 0.00663 569.2 0.0
553(13) 0.00617 569.1 0.0
577(13) 0.00559 569.1 0.0
602(13) 0.00584 569.1 0.0
570(12) 0.00645 569.1 0.0
567(12) 0.00652 569.0 0.0
608(13) 0.00577 569.0 0.0
559(13) 0.00597 569.0 0.0
566(13) 0.00614 569.0 0.0
555(12) 0.00662 568.9 0.0
577(13) 0.00635 568.9 0.0
564(13) 0.00611 568.9 0.0
563(13) 0.00584 568.9 0.0
577(13) 0.00597 568.8 0.0
544(12) 0.00690 568.8 0.0
530(12) 0.00699 568.8 0.0
573(13) 0.00603 568.9 0.0
553(13) 0.00588 569.0 0.0
565(13) 0.00603 569.0 0.0
597(13) 0.00623 569.1 0.0
573(13) 0.00622 569.1 0.0
540(13) 0.00639 569.2 0.0
551(13) 0.00619 569.3 0.0
585(13) 0.00592 569.3 0.0
573(12) 0.00653 569.4 0.0
581(13) 0.00618 569.4 0.0
573(13) 0.00593 569.5 0.0
572(13) 0.00600 569.6 0.0
577(13) 0.00622 569.6 0.0
572(12) 0.00653 569.7 0.0
572(13) 0.00618 569.7 0.0
592(13) 0.00577 569.8 0.0
595(13) 0.00577 569.9 0.0
594(13) 0.00587 569.9 0.0
559(12) 0.00658 570.0 0.0
566(13) 0.00611 570.0 0.0
572(13) 0.00588 570.1 0.0
572(13) 0.00611 570.2 0.0
586(13) 0.00624 570.2 0.0
562(12) 0.00664 570.3 0.0
591(13) 0.00584 570.3 0.0
599(13) 0.00557 570.4 0.0
603(13) 0.00584 570.5 0.0
559(12) 0.00658 570.5 0.0
595(13) 0.00627 570.6 0.0
562(13) 0.00612 570.6 0.0
555(13) 0.00580 570.7 0.0
547(12) 0.00647 570.8 0.0
580(13) 0.00629 570.8 0.0
554(12) 0.00670 570.9 0.0
576(13) 0.00593 570.9 0.0
545(13) 0.00574 571.0 0.0
547(13) 0.00611 571.1 0.0
567(12) 0.00657 571.1 0.0
575(12) 0.00648 571.2 0.0
554(13) 0.00640 571.2 0.0
582(13) 0.00566 571.3 0.0
573(13) 0.00620 571.4 0.0
568(12) 0.00660 571.4 0.0
557(12) 0.00665 571.5 0.0
580(13) 0.00590 571.5 0.0
580(13) 0.00571 571.6 0.0
575(13) 0.00615 571.7 0.0
581(12) 0.00643 571.7 0.0
576(13) 0.00631 571.8 0.0
549(13) 0.00632 571.8 0.0
559(13) 0.00594 571.9 0.0
607(13) 0.00571 572.0 0.0
600(13) 0.00620 572.0 0.0
572(12) 0.00646 572.1 0.0
576(13) 0.00593 572.1 0.0
573(13) 0.00572 572.2 0.0
590(13) 0.00599 572.3 0.0
638(13) 0.00582 572.3 0.0
571(13) 0.00609 572.4 0.0
555(13) 0.00613 572.4 0.0
565(13) 0.00614 572.5 0.0
590(13) 0.00601 572.6 0.0
573(12) 0.00648 572.6 0.0
572(13) 0.00616 572.7 0.0
578(13) 0.00576 572.7 0.0
574(13) 0.00597 572.8 0.0
573(13) 0.00626 572.9 0.0
589(13) 0.00634 572.9 0.0
589(13) 0.00606 573.0 0.0
566(13) 0.00590 573.0 0.0
557(13) 0.00613 573.1 0.0
596(13) 0.00600 573.2 0.0
585(13) 0.00630 573.2 0.0
571(13) 0.00602 573.3 0.0
575(13) 0.00595 573.3 0.0
571(13) 0.00610 573.4 0.0
561(12) 0.00648 573.5 0.0
590(13) 0.00629 573.5 0.0
558(13) 0.00627 573.6 0.0
594(14) 0.00540 573.6 0.0
545(12) 0.00644 573.7 0.0
591(13) 0.00624 573.8 0.0
575(12) 0.00649 573.8 0.0
547(13) 0.00630 573.9 0.0
580(14) 0.00547 573.9 0.0
586(13) 0.00590 574.0 0.0
591(13) 0.00620 574.1 0.0
573(12) 0.00647 574.1 0.0
582(13) 0.00606 574.2 0.0
597(14) 0.00536 574.2 0.0
573(13) 0.00619 574.3 0.0
593(13) 0.00630 574.4 0.0
560(12) 0.00663 574.4 0.0
604(13) 0.00583 574.5 0.0
580(13) 0.00567 574.5 0.0
580(13) 0.00595 574.6 0.0
587(13) 0.00623 574.7 0.0
575(12) 0.00645 574.7 0.0
566(13) 0.00617 574.8 0.0
581(13) 0.00568 574.8 0.0
587(13) 0.00605 574.9 0.0
583(13) 0.00633 575.0 0.0
567(12) 0.00647 575.0 0.0
603(13) 0.00560 575.1 0.0
578(13) 0.00581 575.1 0.0
591(13) 0.00582 575.2 0.0
569(12) 0.00652 575.3 0.0
591(13) 0.00610 575.3 0.0
579(13) 0.00601 575.4 0.0
581(13) 0.00609 575.4 0.0
600(13) 0.00596 575.5 0.0
607(13) 0.00611 575.6 0.0
627(13) 0.00556 575.6 0.0
612(13) 0.00552 575.7 0.0
578(13) 0.00584 575.7 0.0
572(13) 0.00615 575.8 0.0
630(13) 0.00590 575.9 0.0
580(13) 0.00604 575.9 0.0
610(14) 0.00547 576.0 0.0
605(13) 0.00569 576.0 0.0
577(13) 0.00628 576.1 0.0
591(13) 0.00619 576.2 0.0
569(13) 0.00601 576.2 0.0
590(13) 0.00560 576.3 0.0
601(13) 0.00560 576.3 0.0
556(12) 0.00654 576.4 0.0
558(12) 0.00659 576.5 0.0
603(13) 0.00572 576.5 0.0
567(13) 0.00574 576.6 0.0
534(12) 0.00655 576.6 0.0
591(13) 0.00623 576.7 0.0
576(12) 0.00647 576.8 0.0
581(13) 0.00609 576.8 0.0
607(14) 0.00520 576.9 0.0
542(13) 0.00635 576.9 0.0
581(13) 0.00635 577.0 0.0
583(13) 0.00635 577.1 0.0
591(13) 0.00579 577.1 0.0
579(13) 0.00565 577.2 0.0
579(13) 0.00610 577.2 0.0
568(12) 0.00657 577.3 0.0
567(12) 0.00653 577.4 0.0
590(13) 0.00585 577.4 0.0
606(14) 0.00520 577.5 0.0
571(13) 0.00614 577.5 0.0
567(12) 0.00658 577.6 0.0
598(13) 0.00619 577.7 0.0
587(13) 0.00587 577.7 0.1
583(13) 0.00561 577.8 0.1
599(13) 0.00582 577.8 0.1
581(13) 0.00639 577.9 0.1
584(13) 0.00632 578.0 0.1
603(13) 0.00577 578.0 0.1
597(13) 0.00575 578.1 0.1
570(13) 0.00617 578.1 0.1
565(12) 0.00659 578.2 0.1
611(13) 0.00595 578.3 0.1
615(13) 0.00563 578.3 0.1
562(13) 0.00630 578.4 0.1
593(13) 0.00584 578.4 0.1
594(13) 0.00626 578.5 0.1
601(13) 0.00600 578.6 0.1
624(13) 0.00562 578.6 0.1
609(13) 0.00574 578.7 0.1
593(13) 0.00581 578.7 0.1
569(12) 0.00664 578.8 0.1
596(13) 0.00581 578.9 0.1
574(13) 0.00607 578.9 0.1
596(13) 0.00561 579.0 0.1
563(12) 0.00648 579.0 0.1
608(13) 0.00608 579.1 0.1
589(13) 0.00602 579.2 0.1
580(13) 0.00588 579.2 0.1
591(13) 0.00577 579.3 0.1
587(13) 0.00613 579.3 0.1
600(13) 0.00620 579.4 0.1
602(13) 0.00576 579.5 0.1
606(13) 0.00556 579.5 0.2
616(13) 0.00579 579.6 0.2
572(12) 0.00645 579.6 0.2
542(12) 0.00689 579.7 0.2
612(13) 0.00564 579.8 0.2
594(14) 0.00545 579.8 0.2
552(13) 0.00638 579.9 0.2
575(12) 0.00648 579.9 0.2
588(13) 0.00630 580.0 0.2
535(12) 0.00655 580.1 0.3
566(13) 0.00558 580.1 0.3
573(13) 0.00599 580.2 0.3
580(12) 0.00642 580.2 0.3
596(13) 0.00618 580.3 0.4
613(13) 0.00575 580.4 0.4
621(14) 0.00530 580.4 0.4
590(13) 0.00572 580.5 0.5
584(13) 0.00637 580.5 0.5
590(13) 0.00631 580.6 0.6
593(13) 0.00583 580.7 0.7
582(13) 0.00564 580.7 0.8
616(13) 0.00565 580.8 0.9
574(12) 0.00649 580.8 1.0
604(13) 0.00594 580.9 1.1
593(13) 0.00576 581.0 1.2
562(13) 0.00596 581.0 1.4
601(13) 0.00575 581.1 1.6
585(13) 0.00637 581.1 1.7
591(13) 0.00617 581.2 1.9
602(13) 0.00556 581.3 2.1
555(13) 0.00616 581.3 2.4
552(13) 0.00629 581.4 2.6
579(12) 0.00645 581.4 2.8
559(12) 0.00641 581.5 3.0
568(13) 0.00609 581.6 3.2
570(13) 0.00587 581.6 3.3
533(12) 0.00662 581.7 3.4
584(12) 0.00643 581.7 3.5
613(13) 0.00568 581.8 3.5
597(13) 0.00573 581.9 3.5
594(13) 0.00587 581.9 3.4
605(13) 0.00594 582.0 3.3
585(13) 0.00632 582.0 3.1
564(13) 0.00623 582.1 2.9
566(13) 0.00601 582.2 2.7
580(13) 0.00601 582.2 2.5
590(13) 0.00615 582.3 2.3
574(12) 0.00645 582.3 2.0
610(13) 0.00564 582.4 1.8
610(14) 0.00538 582.5 1.7
571(13) 0.00625 582.5 1.5
613(13) 0.00590 582.6 1.3
591(13) 0.00632 582.6 1.2
601(13) 0.00591 582.7 1.0
592(13) 0.00558 582.8 0.9
589(13) 0.00593 582.8 0.8
589(13) 0.00632 582.9 0.7
618(13) 0.00596 582.9 0.6
607(13) 0.00565 583.0 0.6
599(14) 0.00541 583.1 0.5
592(13) 0.00599 583.1 0.5
615(13) 0.00601 583.2 0.4
596(13) 0.00627 583.2 0.4
592(13) 0.00596 583.3 0.3
601(14) 0.00534 583.4 0.3
584(13) 0.00596 583.4 0.3
602(13) 0.00610 583.5 0.3
609(13) 0.00600 583.5 0.3
616(14) 0.00548 583.6 0.2
570(13) 0.00570 583.7 0.2
583(13) 0.00600 583.7 0.2
580(12) 0.00643 583.8 0.2
569(12) 0.00644 583.8 0.2
573(13) 0.00627 583.9 0.2
603(13) 0.00556 584.0 0.2
577(13) 0.00605 584.0 0.2
611(13) 0.00608 584.1 0.2
582(13) 0.00623 584.1 0.1
588(13) 0.00588 584.2 0.1
578(13) 0.00575 584.3 0.1
585(13) 0.00605 584.3 0.1
588(13) 0.00634 584.4 0.1
595(13) 0.00600 584.4 0.1
625(13) 0.00551 584.5 0.1
580(13) 0.00600 584.6 0.1
598(13) 0.00595 584.6 0.1
592(13) 0.00632 584.7 0.1
634(13) 0.00551 584.7 0.1
597(13) 0.00575 584.8 0.1
585(13) 0.00561 585.0 0.1
579(13) 0.00618 585.2 0.1
586(13) 0.00634 585.5 0.1
607(13) 0.00563 585.7 0.1
603(13) 0.00562 585.9 0.1
576(13) 0.00597 586.2 0.1
590(13) 0.00605 586.4 0.1
556(12) 0.00665 586.7 0.1
611(13) 0.00559 586.9 0.1
567(13) 0.00603 587.1 0.1
576(13) 0.00612 587.4 0.1
587(13) 0.00619 587.6 0.1
603(13) 0.00623 587.8 0.1
601(13) 0.00576 588.1 0.1
583(13) 0.00561 588.3 0.1
570(13) 0.00603 588.5 0.1
575(13) 0.00627 588.8 0.1
571(12) 0.00657 589.0 0.1
623(13) 0.00566 589.2 0.0
617(14) 0.00513 589.5 0.0
570(13) 0.00609 589.7 0.0
594(13) 0.00619 589.9 0.0
582(12) 0.00645 590.2 0.0
607(13) 0.00578 590.4 0.0
576(13) 0.00572 590.6 0.0
607(13) 0.00571 590.9 0.0
615(13) 0.00606 591.1 0.0
611(13) 0.00595 591.4 0.0
589(13) 0.00591 591.6 0.0
566(13) 0.00577 591.8 0.0
629(13) 0.00555 592.1 0.0
607(13) 0.00614 592.3 0.0
570(12) 0.00641 592.5 0.0
569(13) 0.00607 592.8 6.8
610(14) 0.00530 593.0 6.9
593(13) 0.00584 593.2 7.0
596(13) 0.00627 593.5 7.1
587(13) 0.00617 593.7 7.2
616(13) 0.00562 593.9 7.3
615(14) 0.00536 594.2 7.5
649(14) 0.00529 594.4 7.6
624(13) 0.00598 594.6 7.7
598(13) 0.00604 594.9 7.8
613(13) 0.00558 595.1 8.0
592(13) 0.00574 595.3 8.1
578(13) 0.00589 595.6 8.2
557(12) 0.00671 595.8 8.4
596(13) 0.00585 596.1 8.5
603(13) 0.00571 596.3 8.7
582(13) 0.00588 596.5 8.8
577(13) 0.00634 596.8 9.0
637(13) 0.00589 597.0 9.2
609(13) 0.00575 597.2 9.3
602(14) 0.00548 597.5 9.5
591(13) 0.00588 597.7 9.7
605(13) 0.00584 597.9 9.9
591(13) 0.00625 598.2 10.1
605(13) 0.00563 598.4 10.3
614(14) 0.00535 598.6 10.5
576(13) 0.00615 598.9 10.7
609(13) 0.00603 599.1 10.9
600(13) 0.00623 599.3 11.1
624(14) 0.00527 599.6 11.4
613(13) 0.00551 599.8 11.6
611(13) 0.00577 600.0 11.8
624(13) 0.00598 600.3 12.1
615(13) 0.00603 600.5 12.3
585(13) 0.00575 600.8 12.6
569(13) 0.00571 601.0 12.9
605(13) 0.00584 601.2 13.2
605(13) 0.00614 601.5 13.5
567(12) 0.00659 601.7 13.8
621(13) 0.00563 601.9 14.1
604(14) 0.00536 602.2 14.4
597(13) 0.00591 602.4 14.7
601(13) 0.00623 602.6 15.1
622(13) 0.00590 602.9 15.5
637(14) 0.00538 603.1 15.8
613(14) 0.00537 603.3 16.2
623(13) 0.00560 603.6 16.6
614(13) 0.00602 603.8 17.0
606(13) 0.00605 604.0 17.5
650(14) 0.00525 604.3 17.9
594(13) 0.00576 604.5 18.4
619(13) 0.00559 604.7 18.9
590(13) 0.00630 605.0 19.4
634(13) 0.00573 605.2 19.9
604(13) 0.00578 605.5 20.5
629(14) 0.00528 605.7 21.1
619(13) 0.00557 605.9 21.7
599(13) 0.00621 606.2 22.3
632(13) 0.00566 606.4 22.9
624(14) 0.00544 606.6 23.6
623(14) 0.00521 606.9 24.3
592(13) 0.00588 607.1 25.1
592(13) 0.00627 607.3 25.8
604(13) 0.00590 607.6 26.7
647(14) 0.00512 607.8 27.5
622(13) 0.00551 608.0 28.4
615(13) 0.00587 608.3 29.4
622(13) 0.00599 608.5 30.4
605(13) 0.00585 608.7 31.4
611(13) 0.00557 609.0 32.5
626(14) 0.00543 609.2 33.6
644(13) 0.00559 609.4 34.9
641(13) 0.00576 609.7 36.1
609(13) 0.00567 609.9 37.5
611(14) 0.00529 610.2 38.9
612(13) 0.00554 610.4 40.4
650(13) 0.00553 610.6 42.1
659(13) 0.00564 610.9 43.8
623(13) 0.00557 611.1 45.6
666(14) 0.00488 611.3 47.5
631(13) 0.00558 611.6 49.5
629(13) 0.00588 611.8 51.7
649(13) 0.00569 612.0 54.0
618(13) 0.00570 612.3 56.5
627(14) 0.00530 612.5 59.2
652(14) 0.00537 612.7 62.1
610(13) 0.00595 613.0 65.1
611(13) 0.00607 613.2 68.4
610(13) 0.00579 613.4 72.0
646(14) 0.00510 613.7 75.8
632(14) 0.00547 613.9 80.0
630(13) 0.00596 614.1 84.5
646(13) 0.00566 614.4 89.4
665(14) 0.00515 614.6 94.7
659(14) 0.00484 614.9 100.5
643(14) 0.00532 615.1 106.9
662(13) 0.00560 615.3 113.9
666(13) 0.00550 615.6 121.5
665(14) 0.00527 615.8 130.0
673(14) 0.00497 616.0 139.4
674(14) 0.00519 616.3 149.9
664(13) 0.00563 616.5 161.5
678(14) 0.00545 616.7 174.5
759(15) 0.00445 617.0 189.2
714(15) 0.00466 617.2 205.8
682(14) 0.00509 617.4 224.6
778(14) 0.00478 617.7 246.0
793(15) 0.00450 617.9 270.7
807(15) 0.00425 618.1 299.1
829(16) 0.00400 618.4 332.3
862(16) 0.00406 618.6 371.4
916(16) 0.00408 618.9 418.2
1017(17) 0.00352 619.1 475.5
1189(19) 0.002810 619.3 548.0
1307(20) 0.002608 619.6 643.8
1483(21) 0.002373 619.8 776.4
1826(22) 0.002035 620.0 967.0
2299(25) 0.001558 620.3 1246.9
2869(29) 0.001180 620.5 1657.5
3534(32) 0.000952 620.7 2246.5
4233(35) 0.000828 621.0 3059.8
5133(37) 0.000721 621. 4125.
5894(41) 0.000587 621. 5438.
6837(45) 0.000490 622. 6935.
8249(49) 0.000411 622. 8469.
9630(52) 0.000365 622. 9788.
10899(55) 0.0003355 622. 10551.
11873(59) 0.0002870 623. 10499.
11307(59) 0.0002887 623. 9651.
9430(52) 0.000366 623. 8291.
7331(45) 0.000497 623. 6749.
5559(39) 0.000660 624. 5269.
4287(36) 0.000784 624. 3984.
3271(31) 0.001014 624.0 2948.8
2652(28) 0.001319 624.3 2164.8
2207(25) 0.001665 624.5 1599.6
1858(22) 0.001983 624.7 1207.3
1636(22) 0.002109 625.0 940.1
1389(21) 0.002330 625.2 757.9
1240(19) 0.002836 625.4 630.7
1174(18) 0.003180 625.7 538.3
1117(17) 0.003302 625.9 467.9
979(17) 0.00362 626.1 412.1
974(17) 0.003351 626.4 366.4
963(17) 0.00357 626.6 328.1
866(15) 0.00427 626.8 295.5
900(16) 0.00408 627.1 267.5
826(15) 0.00422 627.3 243.3
821(16) 0.00395 627.5 222.2
807(15) 0.00428 627.8 203.7
777(14) 0.00481 628.0 187.3
778(15) 0.00470 628.3 172.9
771(15) 0.00444 628.5 160.0
762(15) 0.00435 628.7 148.5
744(15) 0.00458 629.0 138.2
696(14) 0.00539 629.2 129.0
729(14) 0.00494 629.4 120.6
737(15) 0.00472 629.7 113.0
709(14) 0.00485 629.9 106.1
698(14) 0.00500 630.1 99.8
704(14) 0.00528 630.4 94.0
682(14) 0.00526 630.6 88.8
678(14) 0.00505 630.8 83.9
667(14) 0.00526 631.1 79.5
666(14) 0.00539 631.3 75.3
672(13) 0.00554 631.5 71.5
657(14) 0.00537 631.8 68.0
652(14) 0.00530 632.0 64.7
693(14) 0.00496 632.2 61.7
664(14) 0.00538 632.5 58.9
673(13) 0.00553 632.7 56.2
618(13) 0.00571 633.0 53.8
667(14) 0.00511 633.2 51.4
651(14) 0.00526 633.4 49.3
647(13) 0.00554 633.7 47.2
645(13) 0.00576 633.9 45.3
654(14) 0.00528 634.1 43.5
672(14) 0.00492 634.4 41.8
653(14) 0.00540 634.6 40.3
666(13) 0.00554 634.8 38.7
673(13) 0.00552 635.1 37.3
646(14) 0.00536 635.3 36.0
630(14) 0.00515 635.5 34.7
672(14) 0.00514 635.8 33.5
652(13) 0.00574 636.0 32.3
678(14) 0.00546 636.2 31.3
633(13) 0.00557 636.5 30.2
641(14) 0.00514 636.7 29.2
632(13) 0.00561 636.9 28.3
654(13) 0.00564 637.2 27.4
644(13) 0.00581 637.4 26.6
658(14) 0.00516 637.7 25.7
675(15) 0.00470 637.9 25.0
703(14) 0.00485 638.1 24.2
668(13) 0.00556 638.4 23.5
652(13) 0.00568 638.6 22.8
657(14) 0.00514 638.8 22.2
595(14) 0.00543 639.1 21.6
672(14) 0.00514 639.3 21.0
622(13) 0.00605 639.5 20.4
622(13) 0.00595 639.8 19.9
640(13) 0.00559 640.0 19.3
650(14) 0.00505 640.2 18.8
632(13) 0.00552 640.5 18.3
635(13) 0.00586 640.7 17.9
634(13) 0.00576 640.9 17.4
663(14) 0.00519 641.2 17.0
644(14) 0.00509 641.4 16.6
610(13) 0.00576 641.6 16.2
639(13) 0.00583 641.9 15.8
629(13) 0.00569 642.1 15.4
684(14) 0.00503 642.4 15.0
682(14) 0.00502 642.6 14.7
649(14) 0.00548 642.8 14.4
648(13) 0.00576 643.1 14.0
601(13) 0.00584 643.3 13.7
674(14) 0.00488 643.5 13.4
653(14) 0.00540 643.8 13.1
653(13) 0.00551 644.0 12.8
642(13) 0.00578 644.2 12.6
661(14) 0.00533 644.5 12.3
667(14) 0.00512 644.7 12.0
658(14) 0.00521 644.9 11.8
634(13) 0.00568 645.2 11.5
671(13) 0.00553 645.4 11.3
662(14) 0.00527 645.6 11.1
663(14) 0.00502 645.9 10.9
669(14) 0.00507 646.1 10.6
634(13) 0.00565 646.3 10.4
675(14) 0.00547 646.6 10.2
648(14) 0.00537 646.8 10.0
694(15) 0.00469 647.1 9.8
625(13) 0.00555 647.3 9.7
627(13) 0.00581 647.5 9.5
673(13) 0.00550 647.8 9.3
638(13) 0.00551 648.0 9.1
627(14) 0.00502 648.2 9.0
645(14) 0.00531 648.5 8.8
628(13) 0.00585 648.7 8.6
669(13) 0.00555 648.9 8.5
674(14) 0.00515 649.2 8.3
645(14) 0.00503 649.4 8.2
616(13) 0.00581 649.6 8.1
676(14) 0.00543 649.9 7.9
628(13) 0.00587 650.1 7.8
607(13) 0.00578 650.3 7.7
669(14) 0.00486 650.6 7.5
686(14) 0.00503 650.8 7.4
683(14) 0.00547 651.0 7.3
663(13) 0.00557 651.3 7.2
647(14) 0.00532 651.5 7.1
651(14) 0.00517 651.8 6.9
701(14) 0.00493 652.0 0.0
688(14) 0.00541 652.2 0.0
663(13) 0.00561 652.5 0.0
683(14) 0.00509 652.7 0.0
645(14) 0.00516 652.9 0.0
641(13) 0.00549 653.2 0.0
669(13) 0.00558 653.4 0.0
615(13) 0.00592 653.6 0.0
658(14) 0.00531 653.9 0.0
644(14) 0.00524 654.1 0.0
646(14) 0.00535 654.3 0.0
637(13) 0.00585 654.6 0.0
654(13) 0.00550 654.8 0.0
680(14) 0.00505 655.0 0.0
663(14) 0.00525 655.3 0.0
651(14) 0.00538 655.5 0.0
690(14) 0.00540 655.8 0.0
667(14) 0.00533 656.0 0.0
672(14) 0.00507 656.2 0.0
708(14) 0.00482 656.5 0.0
661(13) 0.00550 656.7 0.0
633(13) 0.00582 656.9 0.0
666(14) 0.00525 657.2 0.0
664(14) 0.00501 657.4 0.0
647(14) 0.00524 657.6 0.0
664(14) 0.00542 657.9 0.0
660(13) 0.00561 658.1 0.0
677(14) 0.00501 658.3 0.0
627(14) 0.00537 658.6 0.0
680(14) 0.00503 658.8 0.0
659(13) 0.00553 659.0 0.0
693(14) 0.00537 659.3 0.0
665(14) 0.00532 659.5 0.0
695(15) 0.00461 659.7 0.0
677(14) 0.00514 660.0 0.0
677(14) 0.00539 660.2 0.0
631(13) 0.00593 660.5 0.0
651(14) 0.00524 660.7 0.0
673(14) 0.00489 660.9 0.0
683(14) 0.00512 661.2 0.0
683(14) 0.00544 661.4 0.0
710(14) 0.00515 661.6 0.0
661(14) 0.00545 661.9 0.0
707(15) 0.00461 662.1 0.0
643(14) 0.00543 662.3 0.0
692(14) 0.00539 662.6 0.0
659(13) 0.00555 662.8 0.0
680(14) 0.00509 663.0 0.0
659(14) 0.00504 663.3 0.0
676(14) 0.00508 663.5 0.0
659(13) 0.00567 663.7 0.0
654(13) 0.00554 664.0 0.0
701(14) 0.00491 664.2 0.0
665(14) 0.00516 664.4 0.0
679(14) 0.00496 664.7 0.0
687(14) 0.00546 664.9 0.0
704(14) 0.00514 665.2 0.0
681(14) 0.00499 665.4 0.0
668(14) 0.00505 665.6 0.0
686(14) 0.00503 665.9 0.0
661(13) 0.00565 666.1 0.0
665(14) 0.00542 666.3 0.0
672(14) 0.00523 666.6 0.0
629(14) 0.00548 666.8 0.0
667(14) 0.00512 667.0 0.0
685(14) 0.00545 667.3 0.0
666(14) 0.00522 667.5 0.0
638(14) 0.00536 667.7 0.0
681(14) 0.00498 668.0 0.0
712(14) 0.00496 668.2 0.0
684(14) 0.00546 668.4 0.0
683(14) 0.00507 668.7 0.0
701(15) 0.00465 668.9 0.0
705(14) 0.00480 669.1 0.0
665(13) 0.00549 669.4 0.0
685(14) 0.00544 669.6 0.0
701(14) 0.00500 669.9 0.0
697(14) 0.00476 670.3 0.0
682(14) 0.00495 670.8 0.0
701(14) 0.00518 671.4 0.0
707(14) 0.00528 672.0 0.0
709(14) 0.00486 672.5 0.0
691(15) 0.00471 673.1 0.0
700(14) 0.00485 673.7 0.0
681(14) 0.00528 674.2 0.0
647(13) 0.00581 674.8 0.0
667(14) 0.00526 675.4 0.0
693(15) 0.00469 675.9 0.0
688(14) 0.00506 676.5 0.0
668(13) 0.00557 677.1 0.0
659(13) 0.00558 677.6 0.0
639(13) 0.00556 678.2 0.0
709(15) 0.00439 678.8 0.0
697(14) 0.00492 679.3 0.0
688(14) 0.00540 679.9 0.0
702(14) 0.00520 680.5 0.0
675(14) 0.00524 681.0 0.0
680(14) 0.00483 681.6 0.0
692(14) 0.00491 682.2 0.0
698(14) 0.00533 682.7 0.0
721(14) 0.00510 683.3 0.0
744(15) 0.00461 683.9 0.0
686(14) 0.00478 684.4 0.0
709(14) 0.00480 685.0 0.0
665(13) 0.00555 685.6 0.0
664(14) 0.00540 686.1 0.0
683(14) 0.00514 686.7 0.0
696(14) 0.00484 687.3 0.0
712(14) 0.00480 687.8 0.0
671(13) 0.00552 688.4 0.0
691(14) 0.00507 689.0 0.0
709(14) 0.00483 689.6 0.0
699(14) 0.00477 690.1 0.0
708(14) 0.00499 690.7 0.0
710(14) 0.00524 691.3 0.0
730(15) 0.00475 691.8 0.0
695(14) 0.00489 692.4 0.0
696(14) 0.00485 693.0 0.0
650(13) 0.00559 693.5 0.0
729(14) 0.00510 694.1 0.0
720(14) 0.00491 694.7 0.0
735(15) 0.00465 695.2 0.0
753(15) 0.00468 695.8 0.0
725(14) 0.00502 696.4 0.0
677(14) 0.00548 696.9 9.4
676(14) 0.00523 697.5 9.5
710(15) 0.00467 698.1 9.6
676(14) 0.00502 698.6 9.7
678(14) 0.00533 699.2 9.8
650(13) 0.00577 699.8 9.9
721(14) 0.00480 700.3 10.1
729(15) 0.00453 700.9 10.2
677(14) 0.00522 701.5 10.3
734(14) 0.00495 702.0 10.4
725(14) 0.00513 702.6 10.5
762(15) 0.00453 703.2 10.7
724(15) 0.00458 703.7 10.8
703(14) 0.00501 704.3 10.9
718(14) 0.00514 704.9 11.1
689(14) 0.00536 705.4 11.2
676(14) 0.00518 706.0 11.3
722(15) 0.00442 706.6 11.5
744(15) 0.00455 707.1 11.6
728(14) 0.00511 707.7 11.8
728(14) 0.00502 708.3 11.9
697(14) 0.00487 708.9 12.1
700(15) 0.00468 709.4 12.2
722(14) 0.00481 710.0 12.4
711(14) 0.00521 710.6 13.1
716(14) 0.00510 711.1 13.3
739(15) 0.00468 711.7 13.4
699(14) 0.00477 712.3 13.6
761(15) 0.00447 712.8 13.8
719(14) 0.00521 713.4 14.0
728(14) 0.00493 714.0 14.2
706(14) 0.00497 714.5 14.4
684(14) 0.00497 715.1 14.6
723(14) 0.00479 715.7 14.8
711(14) 0.00522 716.2 15.0
709(14) 0.00510 716.8 15.2
780(15) 0.00438 717.4 15.4
709(14) 0.00485 717.9 15.7
739(15) 0.00473 718.5 15.9
716(14) 0.00522 719.1 16.1
730(14) 0.00495 719.6 16.4
730(15) 0.00465 720.2 16.6
762(15) 0.00436 720.8 16.9
737(14) 0.00481 721.3 17.1
763(14) 0.00488 721.9 17.4
729(14) 0.00493 722.5 17.6
761(15) 0.00442 723.0 17.9
739(14) 0.00478 723.6 18.2
734(14) 0.00494 724.2 18.5
725(14) 0.00515 724.7 18.8
768(15) 0.00456 725.3 19.1
730(15) 0.00462 725.9 19.4
693(14) 0.00496 726.4 19.7
712(14) 0.00511 727.0 20.0
717(14) 0.00519 727.6 20.4
728(15) 0.00474 728.1 20.7
754(15) 0.00434 728.7 21.1
741(14) 0.00478 729.3 21.4
734(14) 0.00498 729.9 21.8
712(14) 0.00524 730.4 22.2
748(15) 0.00466 731.0 22.6
734(15) 0.00448 731.6 23.0
757(15) 0.00452 732.1 23.4
740(14) 0.00503 732.7 23.8
722(14) 0.00514 733.3 24.2
715(14) 0.00483 733.8 24.7
710(15) 0.00454 734.4 25.1
758(15) 0.00459 735.0 25.6
766(14) 0.00483 735.5 26.1
738(14) 0.00504 736.1 26.6
723(14) 0.00481 736.7 27.1
744(15) 0.00439 737.2 27.6
744(15) 0.00472 737.8 28.1
724(14) 0.00511 738.4 28.7
748(14) 0.00492 738.9 29.3
783(15) 0.00447 739.5 29.8
787(16) 0.00412 740.1 30.5
788(15) 0.00435 740.6 31.1
755(14) 0.00489 741.2 31.7
775(15) 0.00466 741.8 32.4
728(14) 0.00481 742.3 33.1
748(15) 0.00444 742.9 33.8
741(15) 0.00459 743.5 34.5
761(14) 0.00486 744.0 35.3
810(15) 0.00433 744.6 36.1
771(15) 0.00449 745.2 36.9
715(15) 0.00473 745.7 37.7
757(15) 0.00448 746.3 38.6
753(14) 0.00490 746.9 39.5
760(15) 0.00465 747.4 40.4
783(15) 0.00428 748.0 41.4
800(16) 0.00414 748.6 42.4
761(15) 0.00462 749.2 43.4
787(15) 0.00470 749.7 44.5
781(15) 0.00451 750.3 45.6
794(15) 0.00422 750.9 46.7
767(15) 0.00448 751.4 47.9
748(14) 0.00478 752.0 49.2
784(15) 0.00471 752.6 50.5
777(15) 0.00443 753.1 51.8
809(16) 0.00413 753.7 53.2
778(15) 0.00445 754.3 54.7
745(15) 0.00475 754.8 56.2
787(15) 0.00473 755.4 57.8
770(15) 0.00450 756.0 59.5
780(15) 0.00423 756.5 61.2
797(15) 0.00427 757.1 63.0
747(14) 0.00482 757.7 64.9
771(14) 0.00481 758.2 66.9
785(15) 0.00434 758.8 69.0
810(16) 0.00404 759.4 71.2
812(15) 0.00433 759.9 73.4
797(15) 0.00459 760.5 75.8
818(15) 0.00453 761.1 78.4
784(15) 0.00435 761.6 81.0
810(16) 0.00390 762.2 83.8
821(15) 0.00428 762.8 86.7
794(15) 0.00466 763.3 89.8
839(15) 0.00444 763.9 93.1
775(15) 0.00445 764.5 96.6
811(16) 0.00395 765.0 100.3
818(15) 0.00426 765.6 104.2
823(15) 0.00450 766.2 108.3
829(15) 0.00440 766.7 112.7
834(16) 0.00405 767.3 117.4
868(16) 0.00373 767.9 122.4
823(15) 0.00421 768.5 127.8
840(15) 0.00446 769.0 133.5
853(15) 0.00429 769.6 139.7
842(15) 0.00418 770.2 146.3
857(16) 0.00394 770.7 153.5
882(16) 0.00391 771.3 161.3
885(15) 0.00420 771.9 169.7
896(16) 0.00401 772.4 179.0
912(16) 0.00374 773.0 189.2
891(16) 0.00380 773.6 200.5
859(16) 0.00406 774.1 213.4
916(16) 0.00409 774.7 228.1
952(16) 0.00378 775.3 245.7
1046(18) 0.003182 775.8 267.1
1032(17) 0.003300 776.4 294.1
1071(17) 0.003285 777.0 328.7
1074(17) 0.003481 777.5 373.5
1183(18) 0.003020 778.1 431.1
1281(19) 0.002668 778.7 503.4
1273(19) 0.002703 779.2 591.3
1434(20) 0.002477 779.8 693.6
1479(20) 0.002506 780.4 805.8
1731(22) 0.001994 780.9 919.3
1718(22) 0.002005 781.5 1020.2
1797(23) 0.001939 782.1 1091.7
1862(23) 0.001923 782.6 1121.3
1950(23) 0.001904 783.2 1110.2
1903(24) 0.001776 783.8 1072.6
1760(23) 0.001907 784.3 1026.9
1620(22) 0.002158 784.9 988.1
1558(21) 0.002338 785.5 966.9
1610(21) 0.002302 786.0 970.4
1633(22) 0.002104 786.6 1003.8
1733(23) 0.001901 787.2 1071.8
1809(23) 0.001915 787.7 1179.5
2002(24) 0.001808 788.3 1334.1
2226(24) 0.001671 788.9 1544.5
2572(27) 0.001355 789.5 1822.4
2900(30) 0.001104 790.0 2181.5
3398(32) 0.000998 790.6 2636.1
4018(33) 0.000907 791.2 3200.2
4873(36) 0.000759 792. 3884.
5797(41) 0.000601 792. 4693.
6789(46) 0.000472 793. 5623.
7739(48) 0.000439 793. 6658.
8772(49) 0.000415 794. 7765.
10201(53) 0.000357 795. 8887.
11285(57) 0.0003050 795. 9941.
12084(61) 0.0002678 796. 10813.
12686(61) 0.0002673 796. 11379.
12741(59) 0.0002853 797. 11541.
12192(58) 0.0002935 797. 11267.
11230(57) 0.0003031 798. 10610.
10162(56) 0.0003213 799. 9678.
9090(51) 0.000381 799. 8595.
8092(47) 0.000455 800. 7467.
7005(44) 0.000511 800. 6372.
6070(42) 0.000565 801. 5359.
5321(40) 0.000626 801. 4456.
4655(37) 0.000746 802. 3676.
3957(33) 0.000933 802.5 3019.2
3582(32) 0.000984 803.1 2479.3
3166(30) 0.001076 803.6 2044.1
2849(29) 0.001199 804.2 1698.5
2531(27) 0.001388 804.8 1427.1
2300(25) 0.001616 805.3 1215.0
2159(25) 0.001617 805.9 1049.1
2029(24) 0.001686 806.5 918.4
1863(23) 0.001841 807.0 814.0
1742(22) 0.002015 807.6 729.3
1674(21) 0.002216 808.2 659.2
1580(21) 0.002211 808.8 600.2
1436(21) 0.002348 809.3 549.7
1378(20) 0.002483 809.9 505.8
1339(19) 0.002657 810.5 467.2
1283(19) 0.002882 811.0 433.0
1302(19) 0.002658 811.6 402.5
1240(19) 0.002702 812.2 375.1
1177(18) 0.002948 812.7 350.3
1212(18) 0.003002 813.3 327.9
1103(17) 0.003376 813.9 307.6
1157(18) 0.002996 814.4 289.1
1122(18) 0.002925 815.0 272.2
1060(17) 0.003302 815.6 256.7
1071(17) 0.003421 816.1 242.5
1062(17) 0.003500 816.7 229.4
1066(17) 0.003274 817.3 217.3
1035(18) 0.003222 817.8 206.2
1026(17) 0.003448 818.4 195.9
1001(17) 0.00366 819.0 186.3
964(16) 0.00388 819.5 177.4
959(17) 0.00365 820.1 169.1
1002(18) 0.003185 820.7 161.4
955(16) 0.00368 821.2 154.2
958(16) 0.00386 821.8 147.5
980(16) 0.00376 822.4 141.2
946(17) 0.00366 822.9 135.3
991(17) 0.003287 823.5 129.8
960(17) 0.00367 824.1 124.5
948(16) 0.00394 824.6 119.6
921(16) 0.00398 825.2 115.0
891(16) 0.00386 825.8 110.7
924(17) 0.00355 826.3 106.5
901(16) 0.00385 826.9 102.6
971(16) 0.00380 827.5 99.0
930(16) 0.00386 828.0 95.5
902(16) 0.00384 828.6 92.1
898(17) 0.00366 829.2 89.0
900(16) 0.00382 829.8 86.0
882(15) 0.00419 830.3 83.2
903(16) 0.00404 830.9 80.5
908(16) 0.00384 831.5 77.9
920(17) 0.00366 832.0 75.5
886(16) 0.00398 832.6 73.1
899(16) 0.00414 833.2 70.9
836(15) 0.00434 833.7 68.8
872(16) 0.00398 834.3 66.7
837(16) 0.00410 834.9 64.8
864(16) 0.00404 835.4 62.9
904(16) 0.00414 836.0 61.1
878(16) 0.00404 836.6 59.4
873(16) 0.00392 837.1 57.8
893(16) 0.00388 837.7 56.2
919(16) 0.00383 838.3 54.7
911(16) 0.00408 838.8 53.3
873(16) 0.00401 839.4 51.9
906(16) 0.00375 840.0 50.5
853(16) 0.00415 840.5 49.2
896(16) 0.00401 841.1 48.0
851(15) 0.00440 841.7 46.8
844(15) 0.00417 842.2 45.7
867(16) 0.00382 842.8 44.6
848(15) 0.00425 843.4 43.5
861(15) 0.00426 843.9 42.5
846(15) 0.00442 844.5 41.5
846(16) 0.00405 845.1 40.5
846(16) 0.00386 845.6 41.0
892(16) 0.00387 846.2 40.2
866(15) 0.00421 846.8 39.3
890(16) 0.00416 847.3 38.5
874(16) 0.00398 847.9 37.8
848(16) 0.00388 848.5 37.0
874(16) 0.00402 849.1 36.3
874(15) 0.00424 849.6 35.6
884(16) 0.00416 850.2 35.0
812(15) 0.00428 850.8 34.3
853(16) 0.00378 851.3 33.7
807(15) 0.00435 851.9 33.1
850(15) 0.00431 852.5 32.5
832(15) 0.00442 853.0 32.0
867(16) 0.00398 853.6 31.4
885(16) 0.00369 854.2 30.9
873(16) 0.00387 854.7 30.4
859(15) 0.00431 855.3 30.0
854(15) 0.00424 855.9 29.5
864(16) 0.00409 856.4 29.1
863(16) 0.00391 857.0 28.6
887(16) 0.00390 857.6 28.2
861(15) 0.00429 858.1 27.8
880(16) 0.00414 858.7 27.5
894(16) 0.00385 859.3 27.1
850(16) 0.00406 859.8 26.8
888(16) 0.00394 860.4 26.5
870(15) 0.00428 861.0 26.2
861(16) 0.00409 861.5 25.9
862(16) 0.00395 862.1 25.6
887(16) 0.00377 862.7 25.3
882(16) 0.00400 863.3 25.1
888(15) 0.00417 863.9 24.9
866(16) 0.00404 864.6 24.7
824(15) 0.00422 865.2 24.5
861(16) 0.00407 865.8 24.3
875(16) 0.00405 866.4 24.2
905(16) 0.00412 867.0 24.0
902(16) 0.00379 867.6 23.9
870(16) 0.00386 868.2 23.8
898(16) 0.00380 868.9 23.8
922(16) 0.00397 869.5 23.7
858(15) 0.00434 870.1 23.7
893(16) 0.00379 870.7 23.7
879(16) 0.00383 871.3 23.7
904(16) 0.00379 871.9 23.8
832(15) 0.00442 872.6 23.9
850(15) 0.00440 873.2 24.0
886(16) 0.00386 873.8 24.2
893(16) 0.00368 874.4 24.4
901(16) 0.00389 875.0 24.6
847(15) 0.00436 875.6 24.9
855(15) 0.00436 876.2 25.3
883(16) 0.00391 876.9 25.7
898(17) 0.00360 877.5 26.1
913(16) 0.00377 878.1 26.7
880(16) 0.00415 878.7 27.3
870(15) 0.00424 879.3 28.0
876(16) 0.00399 879.9 28.9
904(17) 0.00358 880.5 29.9
886(16) 0.00394 881.2 31.0
895(16) 0.00413 881.8 32.3
891(16) 0.00412 882.4 33.8
962(17) 0.00358 883.0 35.5
949(17) 0.003415 883.6 37.5
918(16) 0.00378 884.2 39.8
915(16) 0.00404 884.8 42.6
934(16) 0.00396 885.5 45.9
913(16) 0.00379 886.1 49.8
930(17) 0.00361 886.7 54.4
947(17) 0.00367 887.3 60.1
930(16) 0.00399 887.9 67.0
1001(17) 0.00364 888.5 75.9
968(17) 0.00364 889.2 87.6
1031(17) 0.003297 889.8 104.5
1122(18) 0.003087 890.4 131.5
1167(18) 0.003165 891.0 178.2
1302(19) 0.002759 891.6 261.2
1510(21) 0.002279 892.2 404.2
1695(22) 0.001986 892.8 633.7
1831(23) 0.001917 893.5 966.4
2106(24) 0.001760 894.1 1393.0
2392(26) 0.001477 894.7 1862.3
2720(28) 0.001263 895.3 2269.7
3188(31) 0.001071 895.9 2472.1
3697(32) 0.000955 896.5 2373.5
3544(31) 0.001042 897.1 2023.0
2585(28) 0.001296 897.8 1560.9
1813(23) 0.001866 898.4 1110.2
1527(21) 0.002258 899.0 740.3
1250(19) 0.002915 899.6 464.8
1172(18) 0.003183 900.2 293.4
1106(18) 0.003075 900.8 191.6
1101(18) 0.002942 901.4 134.0
1011(17) 0.003412 902.1 101.2
950(16) 0.00385 902.7 81.3
928(16) 0.00401 903.3 67.9
976(17) 0.00355 903.9 58.0
956(17) 0.00354 904.5 50.3
947(16) 0.00372 905.1 44.1
916(16) 0.00402 905.8 38.9
944(16) 0.00393 906.4 34.6
949(16) 0.00370 907.0 31.0
918(17) 0.00366 907.6 27.9
940(16) 0.00369 908.2 25.2
916(16) 0.00404 908.8 22.9
893(16) 0.00411 909.4 20.9
910(16) 0.00385 910.1 19.2
953(17) 0.003359 910.7 17.6
946(16) 0.00371 911.3 16.3
929(16) 0.00402 911.9 15.1
938(16) 0.00393 912.5 14.0
953(17) 0.00360 913.1 13.0
937(17) 0.00351 913.7 12.1
953(17) 0.00365 914.4 11.3
923(16) 0.00404 915.0 10.6
957(16) 0.00385 915.6 10.0
940(16) 0.00378 916.2 9.4
932(17) 0.00359 916.8 8.8
967(17) 0.00358 917.4 8.3
952(16) 0.00391 918.1 7.9
911(16) 0.00396 918.7 7.5
900(16) 0.00386 919.3 7.1
914(16) 0.00369 919.9 6.7
919(16) 0.00374 920.5 6.4
919(16) 0.00405 921.1 6.1
913(16) 0.00393 921.7 5.8
946(17) 0.00367 922.4 5.5
968(17) 0.00351 923.0 5.3
897(16) 0.00394 923.6 5.1
889(15) 0.00419 924.2 4.8
946(16) 0.00377 924.8 4.6
901(16) 0.00387 925.4 4.4
886(16) 0.00385 926.0 5.6
907(16) 0.00394 926.7 5.4
948(16) 0.00395 927.3 5.3
935(16) 0.00370 927.9 5.1
892(16) 0.00386 928.5 5.0
949(17) 0.00365 929.1 4.9
937(16) 0.00387 929.7 4.8
932(16) 0.00400 930.3 4.7
916(16) 0.00380 931.0 4.6
940(17) 0.00353 931.6 4.5
901(16) 0.00381 932.2 4.4
949(16) 0.00382 932.8 4.3
937(16) 0.00400 933.4 4.2
957(17) 0.00356 934.0 4.1
924(17) 0.00360 934.7 4.1
932(16) 0.00368 935.3 4.0
900(16) 0.00410 935.9 3.9
920(16) 0.00404 936.5 3.9
956(17) 0.00367 937.1 3.8
982(17) 0.003354 937.7 3.8
962(17) 0.00367 938.3 3.7
919(16) 0.00404 939.0 3.7
950(16) 0.00389 939.6 3.6
960(17) 0.00360 940.2 3.6
954(17) 0.003451 940.8 3.5
963(16) 0.00369 941.4 3.5
944(16) 0.00394 942.0 3.5
958(16) 0.00382 942.6 3.4
933(16) 0.00369 943.3 3.4
941(17) 0.003427 943.9 3.4
941(16) 0.00370 944.5 3.4
929(16) 0.00401 945.1 3.3
942(16) 0.00389 945.7 3.3
955(17) 0.00365 946.3 3.3
932(17) 0.003492 947.0 3.3
929(16) 0.00375 947.6 1.8
948(16) 0.00393 948.2 1.8
930(16) 0.00394 948.8 1.8
988(17) 0.00352 949.4 1.9
957(17) 0.00356 950.0 1.9
982(17) 0.00351 950.6 1.9
954(16) 0.00392 951.3 1.9
947(16) 0.00380 951.9 1.9
956(17) 0.00363 952.5 2.0
991(17) 0.003346 953.1 2.0
969(17) 0.00358 953.7 2.0
967(16) 0.00385 954.3 2.0
971(17) 0.00367 954.9 2.0
938(16) 0.00369 955.6 2.1
979(17) 0.003465 956.2 2.1
926(16) 0.00386 956.8 2.1
957(16) 0.00391 957.4 2.1
964(17) 0.00361 958.0 2.2
962(17) 0.00355 958.6 2.2
948(17) 0.00363 959.2 2.2
988(17) 0.00364 959.9 2.2
941(16) 0.00393 960.5 2.3
966(17) 0.00357 961.1 2.3
946(17) 0.00359 961.7 2.3
961(17) 0.00356 962.3 2.3
936(16) 0.00385 962.9 2.4
983(16) 0.00376 963.6 2.4
958(17) 0.00353 964.2 2.4
945(17) 0.003454 964.8 2.4
966(17) 0.00356 965.4 2.5
989(16) 0.00367 966.0 2.5
980(16) 0.00377 966.6 2.5
959(17) 0.00361 967.2 2.6
964(17) 0.003442 967.8 2.6
1008(17) 0.003450 968.4 2.6
1005(17) 0.00361 969.1 2.7
971(16) 0.00385 969.7 2.7
988(17) 0.00352 970.3 2.7
948(17) 0.003396 970.9 2.8
965(17) 0.00358 971.5 2.8
970(16) 0.00378 972.1 2.8
955(16) 0.00389 972.7 2.9
985(17) 0.00356 973.3 2.9
966(17) 0.003426 973.9 2.9
1011(17) 0.003449 974.6 3.0
1000(16) 0.00372 975.2 3.0
1020(17) 0.00357 975.8 3.1
984(17) 0.00357 976.4 3.1
983(17) 0.003343 977.0 3.1
971(17) 0.00359 977.6 3.2
995(16) 0.00376 978.2 3.2
949(16) 0.00386 978.8 3.3
1025(17) 0.003330 979.4 3.3
1032(18) 0.003225 980.1 3.3
1006(17) 0.003493 980.7 3.4
994(16) 0.00369 981.3 3.4
962(16) 0.00380 981.9 3.5
1000(17) 0.003410 982.5 3.5
1012(17) 0.003334 983.1 3.6
996(17) 0.00353 983.7 3.6
1001(16) 0.00371 984.3 3.7
1030(17) 0.003456 984.9 3.7
974(17) 0.00355 985.6 3.8
1027(17) 0.003348 986.2 3.9
999(17) 0.00354 986.8 3.9
970(16) 0.00385 987.4 4.0
1012(17) 0.003487 988.0 4.0
998(17) 0.003422 988.6 4.1
979(17) 0.003438 989.2 4.2
939(16) 0.00379 989.8 4.2
998(16) 0.00373 990.5 4.3
1026(17) 0.003349 991.1 4.4
1015(17) 0.003313 991.7 4.4
1017(17) 0.003410 992.3 4.5
951(16) 0.00382 992.9 4.6
971(16) 0.00383 993.5 4.6
989(17) 0.003470 994.1 4.7
996(17) 0.003324 994.7 4.8
987(17) 0.00355 995.3 4.9
1024(17) 0.00355 996.0 4.9
1021(17) 0.00364 996.6 5.0
961(17) 0.00366 997.2 5.1
973(17) 0.003328 997.8 5.2
957(17) 0.00359 998.4 5.3
1002(16) 0.00368 999.0 5.4
1032(17) 0.00360 999.6 5.5
963(16) 0.00368 1000.2 5.6
990(17) 0.003297 1000.8 5.7
1019(17) 0.003400 1001.5 5.8
1037(17) 0.00360 1002.1 5.9
996(16) 0.00370 1002.7 6.0
969(17) 0.00361 1003.3 6.1
1008(18) 0.003201 1003.9 6.2
1026(17) 0.003371 1004.5 6.3
994(16) 0.00367 1005.1 6.5
1040(17) 0.00352 1005.7 6.6
1003(17) 0.003455 1006.3 6.7
987(17) 0.003334 1007.0 6.8
982(17) 0.00356 1007.6 7.0
965(16) 0.00384 1008.2 7.1
991(16) 0.00368 1008.8 7.3
1033(17) 0.003331 1009.4 7.4
1053(18) 0.003192 1010.0 7.6
1020(17) 0.003423 1010.6 7.7
1021(17) 0.00364 1011.2 7.9
1050(17) 0.003467 1011.8 8.0
1031(17) 0.003361 1012.5 8.2
1039(17) 0.003302 1013.1 8.4
1052(17) 0.003293 1013.7 8.6
1010(16) 0.00367 1014.3 8.8
970(17) 0.00365 1014.9 9.0
1031(18) 0.003232 1015.5 9.2
1046(18) 0.003180 1016.1 9.4
1026(17) 0.003429 1016.7 9.6
1077(17) 0.003464 1017.3 9.8
1052(17) 0.003410 1018.0 10.0
1049(17) 0.003316 1018.6 10.3
1045(18) 0.003258 1019.2 10.5
1045(17) 0.003399 1019.8 10.8
1073(17) 0.003464 1020.4 11.1
994(17) 0.00357 1021.0 11.3
1024(17) 0.003294 1021.6 11.6
1060(18) 0.003232 1022.2 11.9
1053(17) 0.003361 1022.8 12.2
1068(17) 0.003493 1023.5 12.6
1012(17) 0.003393 1024.1 12.9
1017(18) 0.003246 1024.7 13.3
1011(17) 0.00351 1025.3 13.6
1029(17) 0.00354 1025.9 14.0
1047(17) 0.00356 1026.5 14.4
1037(17) 0.003303 1027.1 14.8
1037(18) 0.003220 1027.7 15.3
1056(17) 0.003288 1028.3 15.7
1015(17) 0.00364 1029.0 16.2
1051(17) 0.00353 1029.6 16.7
1034(17) 0.003291 1030.2 17.2
1046(18) 0.003065 1030.8 17.7
1017(17) 0.003484 1031.4 18.3
1047(17) 0.00354 1032.0 18.9
1067(17) 0.003456 1032.6 19.5
1054(17) 0.003274 1033.2 20.2
1069(18) 0.002979 1033.8 20.9
1094(18) 0.003163 1034.5 21.6
1034(17) 0.00357 1035.1 22.3
1041(17) 0.00356 1035.7 23.1
1008(17) 0.003431 1036.3 24.0
1002(17) 0.003384 1036.9 24.9
1076(18) 0.003264 1037.5 25.8
1085(17) 0.003420 1038.1 26.8
1075(17) 0.003389 1038.7 27.9
1096(18) 0.003189 1039.3 29.0
1055(18) 0.003176 1040.0 30.2
1071(18) 0.003249 1040.6 31.4
1100(17) 0.003368 1041.2 32.8
1121(18) 0.003219 1041.8 34.2
1080(18) 0.003153 1042.4 35.7
1042(17) 0.003272 1043.0 37.3
1082(18) 0.003174 1043.6 39.1
1091(17) 0.003426 1044.2 40.9
1082(17) 0.003351 1044.8 42.9
1125(18) 0.003061 1045.5 45.1
1061(18) 0.003217 1046.1 47.4
1075(18) 0.003240 1046.7 49.8
1093(17) 0.003425 1047.3 52.5
1070(17) 0.003281 1047.9 55.4
1075(18) 0.003169 1048.5 58.5
1117(18) 0.003058 1049.1 61.9
1107(18) 0.003229 1049.7 65.6
1120(17) 0.003319 1050.4 69.7
1136(18) 0.003112 1051.0 74.1
1160(18) 0.002927 1051.6 79.0
1123(18) 0.003051 1052.2 84.4
1142(18) 0.003129 1052.8 90.3
1107(17) 0.003368 1053.4 96.9
1153(18) 0.002986 1054.0 104.3
1116(18) 0.003078 1054.6 112.7
1177(18) 0.002993 1055.2 122.2
1166(18) 0.003087 1055.9 133.3
1175(18) 0.003176 1056.5 146.3
1236(19) 0.002810 1057.1 161.7
1246(20) 0.002600 1057.7 180.3
1247(19) 0.002752 1058.3 202.8
1227(18) 0.002993 1058.9 230.4
1249(18) 0.002965 1059.5 264.3
1368(20) 0.002518 1060.1 306.1
1371(21) 0.002369 1060.7 357.3
1432(20) 0.002412 1061.4 419.7
1520(20) 0.002405 1062.0 495.0
1637(21) 0.002274 1062.6 584.7
1703(22) 0.002044 1063.2 689.9
1839(24) 0.001739 1063.8 811.1
2042(24) 0.001681 1064.4 948.2
2093(24) 0.001774 1065.0 1099.6
2347(25) 0.001571 1065.6 1262.5
2521(27) 0.001393 1066.2 1431.8
2688(29) 0.001219 1066.9 1599.4
2872(29) 0.001192 1067.5 1754.8
3013(29) 0.001230 1068.1 1884.2
3060(29) 0.001194 1068.7 1973.1
3027(30) 0.001146 1069.3 2009.5
3060(31) 0.001066 1069.9 1988.2
2940(29) 0.001184 1070.5 1912.2
2728(27) 0.001362 1071.1 1792.2
2637(27) 0.001368 1071.7 1642.2
2386(26) 0.001468 1072.4 1476.6
2253(26) 0.001493 1073.0 1306.9
2121(25) 0.001628 1073.6 1141.8
1993(23) 0.001862 1074.2 987.0
1873(23) 0.001933 1074.8 845.9
1794(23) 0.001917 1075.4 720.3
1707(22) 0.001995 1076.0 610.9
1594(21) 0.002235 1076.6 517.3
1497(20) 0.002489 1077.2 438.3
1501(21) 0.002344 1077.9 372.7
1483(21) 0.002282 1078.5 318.6
1426(21) 0.002327 1079.1 274.5
1353(20) 0.002598 1079.7 238.7
1376(19) 0.002711 1080.3 209.6
1327(20) 0.002623 1080.9 185.8
1268(19) 0.002717 1081.5 166.3
1244(19) 0.002749 1082.1 150.2
1243(19) 0.002855 1082.7 136.6
1304(19) 0.002842 1083.4 125.1
1251(19) 0.002749 1084.0 115.1
1250(19) 0.002672 1084.6 106.5
1141(18) 0.003043 1085.2 98.8
1195(18) 0.003038 1085.8 92.0
1207(18) 0.003083 1086.4 85.9
1173(19) 0.002891 1087.0 80.4
1186(19) 0.002749 1087.6 75.5
1163(18) 0.002942 1088.2 70.9
1138(18) 0.003191 1088.9 66.8
1186(18) 0.003140 1089.5 63.0
1145(18) 0.002965 1090.1 59.5
1166(19) 0.002712 1090.7 56.3
1187(18) 0.002929 1091.3 53.4
1147(18) 0.003182 1091.9 50.7
1144(18) 0.003231 1092.5 48.1
1209(19) 0.002900 1093.1 45.8
1134(19) 0.002895 1093.7 43.6
1149(18) 0.003063 1094.4 41.6
1193(18) 0.003092 1095.0 39.7
1189(18) 0.003137 1095.6 37.9
1164(18) 0.002974 1096.2 36.3
1128(19) 0.002898 1096.8 34.7
1169(18) 0.002981 1097.4 33.3
1154(18) 0.003224 1098.0 31.9
1109(17) 0.003334 1098.6 30.6
1156(18) 0.002974 1099.2 29.4
1128(19) 0.002917 1099.9 28.3
1146(18) 0.003065 1100.5 27.2
1171(18) 0.003163 1101.1 26.2
1157(18) 0.003131 1101.7 25.3
1160(18) 0.002955 1102.3 24.4
1209(19) 0.002726 1102.9 23.5
1138(18) 0.003072 1103.5 22.7
1092(17) 0.003389 1104.1 21.9
1150(18) 0.003171 1104.7 21.2
1150(18) 0.002979 1105.4 20.5
1102(18) 0.003094 1106.0 19.8
1111(18) 0.003133 1106.6 19.2
1153(18) 0.003207 1107.2 18.6
1128(18) 0.003164 1107.8 18.0
1116(18) 0.003096 1108.4 17.5
1119(18) 0.003045 1109.0 17.0
1135(18) 0.003077 1109.6 16.5
1111(17) 0.003360 1110.3 16.0
1143(18) 0.003086 1110.9 15.6
1137(18) 0.003009 1111.5 15.1
1144(18) 0.002967 1112.1 14.7
1162(18) 0.003020 1112.7 14.3
1152(18) 0.003245 1113.3 13.9
1176(19) 0.002921 1113.9 13.6
1155(19) 0.002879 1114.5 13.2
1185(19) 0.002865 1115.1 12.9
1129(18) 0.003175 1115.8 12.5
1140(18) 0.003253 1116.4 12.2
1130(18) 0.003067 1117.0 11.9
1156(19) 0.002850 1117.6 11.6
1172(19) 0.002844 1118.2 11.4
1155(18) 0.003157 1118.8 11.1
1105(17) 0.003352 1119.4 10.8
1144(18) 0.003079 1120.0 10.6
1147(19) 0.002919 1120.6 10.4
1169(18) 0.002997 1121.3 10.1
1124(17) 0.003304 1121.9 9.9
1163(18) 0.003173 1122.5 9.7
1160(18) 0.003025 1123.1 9.5
1161(19) 0.002763 1123.7 9.3
1101(18) 0.003181 1124.3 9.1
1153(18) 0.003192 1124.9 8.9
1127(17) 0.003275 1125.5 8.7
1137(18) 0.003054 1126.1 8.5
1135(19) 0.002872 1126.8 8.4
1124(18) 0.003144 1127.4 8.2
1118(17) 0.003327 1128.0 8.0
1137(18) 0.003219 1128.6 7.9
1123(18) 0.003094 1129.2 7.7
1138(19) 0.002890 1129.8 7.6
1149(18) 0.003022 1130.4 7.5
1171(18) 0.003169 1131.0 7.3
1150(18) 0.003180 1131.6 7.2
1099(18) 0.003201 1132.3 7.1
1143(19) 0.002916 1132.9 7.0
1082(18) 0.003191 1133.5 6.8
1075(17) 0.003475 1134.1 6.7
1186(18) 0.003019 1134.7 6.6
1138(18) 0.003104 1135.3 6.5
1184(19) 0.002824 1135.9 6.4
1161(18) 0.002972 1136.5 6.3
1157(18) 0.003201 1137.1 6.2
1141(18) 0.003202 1137.8 6.1
1140(18) 0.003109 1138.4 6.0
1129(18) 0.003044 1139.0 5.9
1176(18) 0.002963 1139.6 5.8
1176(18) 0.003128 1140.2 5.8
1167(18) 0.002984 1140.8 5.7
1165(19) 0.002897 1141.4 5.6
1158(19) 0.002917 1142.0 5.5
1135(18) 0.003170 1142.6 5.5
1193(18) 0.003088 1143.3 5.4
1141(18) 0.003093 1143.9 5.3
1199(19) 0.002773 1144.5 5.2
1082(18) 0.003226 1145.1 5.2
1121(18) 0.003164 1145.6 5.1
1135(18) 0.003265 1145.9 5.1
1164(18) 0.002983 1146.1 5.0
1159(19) 0.002841 1146.4 5.0
1127(18) 0.003078 1146.6 4.9
1127(18) 0.003229 1146.9 4.8
1168(18) 0.003179 1147.1 4.8
1219(19) 0.002783 1147.4 4.8
1168(19) 0.002841 1147.6 4.7
1131(18) 0.003142 1147.8 4.7
1150(18) 0.003161 1148.1 4.6
1142(18) 0.003253 1148.3 4.6
1175(19) 0.002912 1148.6 4.6
1144(19) 0.002835 1148.8 4.5
1167(18) 0.002953 1149.1 4.5
1137(18) 0.003210 1149.3 4.5
1142(18) 0.003219 1149.6 4.4
1104(18) 0.003179 1149.8 4.4
1118(19) 0.002896 1150.0 4.4
1181(18) 0.002969 1150.3 4.4
1161(18) 0.003190 1150.5 4.3
1113(17) 0.003297 1150.8 4.3
1167(18) 0.002959 1151.0 4.3
1179(19) 0.002732 1151.3 4.3
1144(18) 0.003013 1151.5 4.3
1139(18) 0.003260 1151.8 4.3
1140(18) 0.003187 1152.0 4.3
1161(18) 0.003037 1152.3 4.3
1157(19) 0.002851 1152.5 4.3
1141(18) 0.003009 1152.7 4.3
1136(17) 0.003269 1153.0 4.3
1168(18) 0.003084 1153.2 4.3
1178(19) 0.002890 1153.5 4.3
1139(18) 0.002968 1153.7 4.4
1150(18) 0.002991 1154.0 4.4
1218(18) 0.003060 1154.2 4.4
1198(18) 0.002957 1154.5 4.4
1130(18) 0.003054 1154.7 4.5
1108(18) 0.003021 1154.9 4.5
1132(18) 0.003035 1155.2 4.6
1171(18) 0.003183 1155.4 4.6
1177(18) 0.002998 1155.7 4.7
1185(19) 0.002871 1155.9 4.8
1184(19) 0.002870 1156.2 4.9
1152(18) 0.003098 1156.4 4.9
1174(18) 0.003161 1156.7 5.0
1163(18) 0.003011 1156.9 5.1
1172(19) 0.002913 1157.1 5.3
1161(18) 0.002964 1157.4 5.4
1165(18) 0.002988 1157.6 5.6
1181(18) 0.003154 1157.9 5.7
1138(18) 0.003046 1158.1 5.9
1183(19) 0.002868 1158.4 6.1
1223(19) 0.002846 1158.6 6.4
1215(18) 0.003023 1158.9 6.6
1152(18) 0.003211 1159.1 6.9
1200(19) 0.002879 1159.4 7.3
1203(19) 0.002771 1159.6 7.7
1180(18) 0.002943 1159.8 8.2
1137(18) 0.003195 1160.1 8.7
1165(18) 0.003186 1160.3 9.4
1182(18) 0.002926 1160.6 10.2
1190(19) 0.002762 1160.8 11.2
1212(19) 0.002824 1161.1 12.4
1164(18) 0.003132 1161.3 13.9
1194(18) 0.003114 1161.6 15.7
1213(19) 0.002874 1161.8 17.8
1278(20) 0.002473 1162.0 20.3
1219(19) 0.002892 1162.3 23.3
1212(18) 0.003062 1162.5 26.8
1240(18) 0.003011 1162.8 30.8
1253(19) 0.002815 1163.0 35.4
1211(19) 0.002695 1163.3 40.5
1228(19) 0.002833 1163.5 46.0
1271(19) 0.002918 1163.8 51.9
1276(19) 0.002864 1164.0 58.1
1260(19) 0.002816 1164.2 64.2
1275(20) 0.002548 1164.5 70.1
1247(19) 0.002750 1164.7 75.3
1243(18) 0.002963 1165.0 79.5
1269(19) 0.002882 1165.2 82.2
1264(19) 0.002782 1165.5 83.1
1267(19) 0.002659 1165.7 82.0
1242(19) 0.002759 1166.0 79.3
1253(18) 0.002967 1166.2 75.0
1280(19) 0.002847 1166.5 69.7
1290(20) 0.002614 1166.7 63.8
1237(19) 0.002697 1166.9 57.6
1214(19) 0.002825 1167.2 51.4
1232(18) 0.002996 1167.4 45.5
1163(18) 0.003063 1167.7 39.9
1147(18) 0.002982 1167.9 34.9
1231(19) 0.002682 1168.2 30.3
1224(19) 0.002894 1168.4 26.3
1273(18) 0.002923 1168.7 22.8
1197(18) 0.002928 1168.9 19.8
1249(19) 0.002699 1169.1 17.3
1185(18) 0.002964 1169.4 15.1
1171(18) 0.003046 1169.6 13.4
1201(18) 0.003087 1169.9 11.9
1239(19) 0.002779 1170.1 10.7
1179(19) 0.002850 1170.4 9.7
1180(19) 0.002919 1170.6 8.8
1249(19) 0.002921 1170.9 8.1
1211(18) 0.003050 1171.1 7.6
1228(19) 0.002843 1171.3 7.1
1177(19) 0.002853 1171.6 6.6
1172(18) 0.002957 1171.8 6.3
1212(18) 0.003024 1172.1 6.0
1176(18) 0.003152 1172.3 4.4
1175(18) 0.003012 1172.6 4.1
1175(19) 0.002832 1172.8 3.9
1207(19) 0.002857 1173.1 3.8
1193(18) 0.003069 1173.3 3.6
1200(18) 0.003106 1173.6 3.5
1191(19) 0.002904 1173.8 3.3
1187(19) 0.002664 1174.0 3.2
1162(18) 0.003060 1174.3 3.1
1169(18) 0.003167 1174.5 3.1
1234(18) 0.003017 1174.8 3.0
1177(18) 0.002983 1175.0 3.0
1172(19) 0.002808 1175.3 3.0
1203(19) 0.002918 1175.5 2.9
1199(18) 0.003072 1175.8 2.9
1208(18) 0.003065 1176.0 3.0
1163(18) 0.003033 1176.2 3.0
1175(19) 0.002819 1176.5 3.0
1230(19) 0.002806 1176.7 3.1
1205(18) 0.003076 1177.0 3.2
1246(19) 0.002916 1177.2 3.2
1191(19) 0.002919 1177.5 3.3
1235(19) 0.002667 1177.7 3.4
1191(18) 0.002932 1178.0 3.5
1278(19) 0.002897 1178.2 3.6
1185(18) 0.003019 1178.4 3.7
1168(18) 0.002980 1178.7 3.9
1220(19) 0.002746 1178.9 4.0
1173(18) 0.002988 1179.2 4.1
1170(18) 0.003181 1179.4 4.2
1191(18) 0.002953 1179.7 4.3
1150(18) 0.003058 1179.9 4.3
1225(19) 0.002766 1180.2 4.4
1236(19) 0.002872 1180.4 4.4
1204(18) 0.003087 1180.7 4.4
1159(18) 0.003093 1180.9 4.3
1166(19) 0.002856 1181.1 4.3
1173(19) 0.002894 1181.4 4.2
1214(19) 0.002910 1181.6 4.1
1211(18) 0.003072 1181.9 4.0
1235(19) 0.002843 1182.1 3.8
1201(19) 0.002860 1182.4 3.6
1200(19) 0.002838 1182.6 3.5
1187(18) 0.003016 1182.9 3.3
1223(18) 0.003025 1183.1 3.1
1218(19) 0.002809 1183.3 2.9
1184(19) 0.002812 1183.6 2.8
1181(19) 0.002880 1183.8 2.6
1169(18) 0.003094 1184.1 2.4
1189(18) 0.003136 1184.3 2.3
1173(18) 0.003033 1184.6 2.1
1183(19) 0.002801 1184.8 2.0
1165(18) 0.003001 1185.1 1.9
1184(18) 0.003087 1185.3 1.7
1191(18) 0.003140 1185.5 1.6
1219(19) 0.002854 1185.8 1.5
1204(19) 0.002691 1186.0 1.4
1197(19) 0.002867 1186.3 1.3
1197(18) 0.003064 1186.5 1.2
1249(18) 0.002936 1186.8 1.2
1185(18) 0.002941 1187.0 1.1
1202(19) 0.002671 1187.3 1.0
1215(19) 0.002802 1187.5 1.0
1187(18) 0.003137 1187.8 0.9
1142(18) 0.003239 1188.0 0.9
1143(18) 0.003077 1188.2 0.8
1181(19) 0.002795 1188.5 0.8
1263(19) 0.002757 1188.7 0.8
1164(18) 0.003205 1189.0 0.7
1209(18) 0.003025 1189.2 0.7
1234(19) 0.002840 1189.5 0.7
1206(19) 0.002783 1189.7 0.6
1164(18) 0.002987 1190.0 0.6
1177(18) 0.003165 1190.2 0.6
1195(18) 0.002984 1190.4 0.6
1233(19) 0.002835 1190.7 0.6
1234(19) 0.002718 1190.9 0.5
1241(19) 0.002805 1191.2 0.5
1164(18) 0.003182 1191.4 0.5
1179(18) 0.003036 1191.6 0.5
1151(18) 0.003007 1191.3 0.5
1183(19) 0.002876 1190.9 0.5
1221(19) 0.002835 1190.6 0.5
1140(17) 0.003269 1190.3 0.4
1176(18) 0.003023 1190.0 0.4
1200(19) 0.002859 1189.6 0.4
1197(19) 0.002865 1189.3 0.4
1184(18) 0.002999 1189.0 0.4
1208(18) 0.003079 1188.7 0.4
1209(19) 0.002888 1188.4 0.4
1199(19) 0.002828 1188.0 0.4
1221(19) 0.002749 1187.7 0.4
1196(18) 0.002968 1187.4 0.4
1150(18) 0.003221 1187.1 0.4
1199(19) 0.002857 1186.7 0.3
1245(19) 0.002666 1186.4 0.3
1195(19) 0.002911 1186.1 0.3
1192(18) 0.003014 1185.8 0.3
1209(18) 0.003083 1185.5 0.3
1169(18) 0.002953 1185.1 0.3
1147(18) 0.002923 1184.8 0.3
1178(19) 0.002894 1184.5 0.3
1145(18) 0.003193 1184.2 0.3
1216(18) 0.003048 1183.8 0.3
1221(19) 0.002873 1183.5 0.3
1229(19) 0.002653 1183.2 0.3
1155(18) 0.003014 1182.9 0.3
1254(19) 0.002889 1182.5 0.3
1172(18) 0.003139 1182.2 0.3
1193(18) 0.002934 1181.9 0.3
1178(19) 0.002699 1181.6 0.3
1164(18) 0.003011 1181.3 0.3
1197(18) 0.003111 1180.9 0.2
1233(18) 0.003014 1180.6 0.2
1245(19) 0.002806 1180.3 0.2
1193(19) 0.002774 1180.0 0.2
1190(18) 0.002950 1179.6 0.2
1166(18) 0.003187 1179.3 0.2
1154(18) 0.003220 1179.0 0.2
1177(18) 0.002939 1178.7 0.2
1180(19) 0.002803 1178.4 0.2
1151(18) 0.003061 1178.0 0.2
1168(18) 0.003194 1177.7 0.2
1234(19) 0.002904 1177.4 0.2
1186(18) 0.002925 1177.1 0.2
1186(19) 0.002828 1176.7 0.2
1167(18) 0.002932 1176.4 0.2
1224(18) 0.003038 1176.1 0.2
1227(19) 0.002917 1175.8 0.2
1226(19) 0.002806 1175.5 0.2
1187(19) 0.002890 1175.1 0.2
1203(18) 0.002956 1174.8 0.2
1211(18) 0.003065 1174.5 0.2
1145(18) 0.003171 1174.2 0.2
1179(18) 0.002948 1173.8 0.2
1257(19) 0.002679 1173.5 0.2
1169(18) 0.003054 1173.2 0.2
1220(18) 0.003058 1172.9 0.2
1205(19) 0.002919 1172.6 0.2
1178(18) 0.002927 1172.2 0.2
1228(19) 0.002814 1171.9 0.2
1197(18) 0.003004 1171.6 0.2
1184(18) 0.003139 1171.3 0.2
1235(19) 0.002820 1170.9 0.2
1196(19) 0.002791 1170.6 0.2
1236(19) 0.002712 1170.3 0.2
1174(18) 0.003063 1170.0 0.1
1185(18) 0.003144 1169.7 0.1
1189(19) 0.002820 1169.3 0.1
1193(19) 0.002773 1169.0 0.1
1185(19) 0.002906 1168.7 0.1
1144(18) 0.003246 1168.4 0.1
1197(18) 0.003084 1168.0 0.1
1190(18) 0.002924 1167.7 0.1
1180(19) 0.002766 1167.4 0.1
1184(18) 0.002957 1167.1 0.1
1176(18) 0.003137 1166.7 0.1
1142(18) 0.003247 1166.4 0.1
1160(18) 0.003054 1166.1 0.1
1170(19) 0.002781 1165.8 0.1
1134(18) 0.003104 1165.5 0.1
1159(18) 0.003194 1165.1 0.1
1206(18) 0.003082 1164.8 0.1
1195(18) 0.002975 1164.5 0.1
1237(19) 0.002651 1164.2 0.1
1234(19) 0.002791 1163.8 0.1
1203(18) 0.003057 1163.5 0.1
1202(18) 0.003045 1163.2 0.1
1165(18) 0.002985 1162.9 0.1
1181(19) 0.002797 1162.6 0.1
1209(19) 0.002850 1162.2 0.1
1154(18) 0.003214 1161.9 0.1
1184(18) 0.003076 1161.6 0.1
1135(18) 0.003069 1161.3 0.1
1148(19) 0.002908 1160.9 0.1
1195(19) 0.002791 1160.6 0.1
1187(18) 0.003143 1160.3 0.1
1215(18) 0.002934 1160.0 0.1
1193(19) 0.002909 1159.7 0.1
1239(19) 0.002672 1159.3 0.1
1207(19) 0.002914 1159.0 0.1
1159(18) 0.003213 1158.7 0.1
1173(18) 0.003076 1158.4 0.1
1195(19) 0.002854 1158.0 0.1
1147(18) 0.002965 1157.7 0.1
1158(18) 0.003075 1157.4 0.1
1184(18) 0.003137 1157.1 0.1
1200(18) 0.002960 1156.8 0.1
1205(19) 0.002808 1156.4 0.1
1188(19) 0.002895 1156.1 0.1
1180(18) 0.003121 1155.8 0.1
1209(18) 0.003069 1155.5 0.1
1205(19) 0.002863 1155.1 0.1
1247(19) 0.002683 1154.8 0.1
1223(19) 0.002816 1154.5 0.1
1216(18) 0.003000 1154.2 0.1
1176(18) 0.003151 1153.9 0.1
1225(19) 0.002810 1153.5 0.1
1189(19) 0.002782 1153.2 0.1
1169(18) 0.002959 1152.9 0.1
1221(18) 0.002981 1152.6 0.1
1203(18) 0.003087 1152.2 0.1
1202(19) 0.002865 1151.9 0.1
1197(19) 0.002741 1151.6 0.1
1195(18) 0.002922 1151.3 0.1
1221(18) 0.002997 1151.0 0.1
1234(18) 0.003017 1150.6 0.1
1214(19) 0.002889 1150.3 0.1
1201(19) 0.002739 1150.0 0.1
1191(19) 0.002898 1149.7 0.1
1182(18) 0.003101 1149.3 0.1
1173(18) 0.003160 1149.0 0.1
1187(18) 0.002950 1148.7 0.1
1176(19) 0.002741 1148.4 0.1
1179(18) 0.002942 1148.0 0.1
1167(18) 0.003179 1147.7 0.1
1164(18) 0.003164 1147.4 0.1
1191(18) 0.002940 1147.1 0.1
1173(19) 0.002751 1146.8 0.1
1107(18) 0.003158 1146.4 0.1
1236(18) 0.003016 1146.1 0.1
1170(18) 0.003132 1145.8 0.1
1191(19) 0.002893 1145.5 0.1
1193(19) 0.002781 1145.1 0.1
1183(18) 0.002935 1144.8 0.1
1180(18) 0.003132 1144.5 0.1
1195(18) 0.002994 1144.2 0.1
1126(18) 0.003081 1143.9 0.1
1182(19) 0.002756 1143.5 0.1
1187(19) 0.002852 1143.2 0.1
1191(18) 0.003105 1142.9 0.1
1144(18) 0.003146 1142.6 0.1
1157(18) 0.002994 1142.2 0.1
1179(19) 0.002842 1141.9 0.1
1135(18) 0.003092 1141.6 0.1
1175(18) 0.003173 1141.3 0.1
1172(18) 0.003024 1141.0 0.1
1211(19) 0.002787 1140.6 0.1
1131(18) 0.003034 1140.3 0.1
1199(18) 0.002939 1140.0 0.1
1212(18) 0.003075 1139.7 0.1
1189(18) 0.002934 1139.3 0.1
1161(18) 0.002965 1139.0 0.1
1214(19) 0.002844 1138.7 0.1
1176(18) 0.003054 1138.4 0.1
1169(18) 0.003186 1138.1 0.1
1161(18) 0.003011 1137.7 0.1
1191(19) 0.002805 1137.4 0.1
1178(18) 0.002926 1137.1 0.1
1153(18) 0.003143 1136.8 0.1
1194(18) 0.003102 1136.4 0.1
1155(18) 0.003022 1136.1 0.1
1152(19) 0.002850 1135.8 0.1
1211(19) 0.002811 1135.5 0.1
1178(18) 0.003064 1135.2 0.1
1129(17) 0.003297 1134.8 0.1
1176(18) 0.003007 1134.5 0.1
1175(19) 0.002777 1134.2 0.1
1165(18) 0.003010 1133.9 0.1
1174(18) 0.003132 1133.5 0.1
1162(18) 0.003183 1133.2 0.1
1142(18) 0.002999 1132.9 0.1
1164(19) 0.002783 1132.6 0.1
1157(18) 0.002998 1132.3 0.1
1114(17) 0.003334 1131.9 0.1
1164(18) 0.003163 1131.6 0.1
1180(18) 0.002964 1131.3 0.1
1158(19) 0.002780 1131.0 0.1
1173(19) 0.002909 1130.6 0.1
1152(18) 0.003240 1130.3 0.1
1188(18) 0.003068 1130.0 0.1
1187(18) 0.002950 1129.7 0.1
1150(19) 0.002855 1129.3 0.1
1144(18) 0.003008 1129.0 0.1
1133(17) 0.003277 1128.7 0.1
1123(18) 0.003178 1128.4 0.1
1125(18) 0.003014 1128.1 0.1
1157(19) 0.002867 1127.7 0.1
1174(18) 0.002928 1127.4 0.1
1156(18) 0.003200 1127.1 0.1
1136(18) 0.003151 1126.8 0.1
1143(18) 0.002998 1126.4 0.1
1117(18) 0.003061 1126.1 0.1
1131(18) 0.003086 1125.8 0.1
1139(17) 0.003275 1125.5 0.1
1152(18) 0.003072 1125.2 0.1
1168(19) 0.002903 1124.8 0.1
1114(18) 0.003055 1124.5 0.1
1153(18) 0.003049 1124.2 0.1
1194(18) 0.003117 1123.9 0.1
1100(18) 0.003250 1123.5 0.1
1104(18) 0.003083 1123.2 0.1
1119(18) 0.003081 1122.9 0.1
1151(18) 0.003141 1122.6 0.1
1124(17) 0.003298 1122.3 0.1
1117(18) 0.003076 1121.9 0.1
1144(18) 0.002936 1121.6 0.1
1144(18) 0.003044 1121.3 0.1
1168(18) 0.003146 1121.0 0.1
1167(18) 0.003195 1120.6 0.1
1125(18) 0.003093 1120.3 0.1
1119(18) 0.002958 1120.0 0.1
1128(18) 0.003106 1119.7 0.1
1096(17) 0.003338 1119.4 0.1
1138(17) 0.003271 1119.0 0.1
1144(18) 0.003078 1118.7 0.1
1144(19) 0.002861 1118.4 0.1
1122(18) 0.003068 1118.1 0.1
1159(18) 0.003135 1117.7 0.1
1150(18) 0.003246 1117.3 0.1
1081(18) 0.003211 1116.7 0.1
1081(18) 0.002968 1116.1 0.1
1114(18) 0.003058 1115.6 0.1
1126(17) 0.003305 1115.0 0.1
1111(17) 0.003346 1114.4 0.1
1158(18) 0.002926 1113.9 0.1
1105(18) 0.002954 1113.3 0.1
1116(18) 0.003082 1112.7 0.1
1130(17) 0.003270 1112.1 0.1
1112(17) 0.003289 1111.6 0.1
1140(18) 0.003074 1111.0 0.1
1107(18) 0.003023 1110.4 0.1
1165(18) 0.002947 1109.9 0.1
1138(18) 0.003247 1109.3 0.1
1127(18) 0.003222 1108.7 0.1
1151(18) 0.003023 1108.1 0.1
1110(18) 0.003100 1107.6 0.1
1157(18) 0.002965 1107.0 0.1
1129(17) 0.003300 1106.4 0.1
1121(18) 0.003122 1105.8 0.1
1084(18) 0.003182 1105.3 0.1
1115(18) 0.002996 1104.7 0.1
1114(18) 0.003064 1104.1 0.1
1147(18) 0.003240 1103.6 0.1
1085(17) 0.003302 1103.0 0.1
1086(18) 0.003051 1102.4 0.1
1111(18) 0.003053 1101.8 0.1
1134(18) 0.003131 1101.3 0.1
1112(17) 0.003340 1100.7 0.1
1146(18) 0.003072 1100.1 0.1
1109(18) 0.003069 1099.5 0.1
1097(18) 0.003118 1099.0 0.1
1116(18) 0.003231 1098.4 0.1
1106(17) 0.003365 1097.8 0.1
1106(18) 0.003035 1097.3 0.1
1093(18) 0.003011 1096.7 0.1
1051(17) 0.003309 1096.1 0.1
1116(18) 0.003229 1095.5 0.1
1081(17) 0.003451 1095.0 0.1
1059(17) 0.003375 1094.4 0.1
1171(19) 0.002786 1093.8 0.1
1124(18) 0.003076 1093.2 0.1
1066(17) 0.003455 1092.7 0.1
1126(17) 0.003284 1092.1 0.1
1092(18) 0.003190 1091.5 0.1
1065(18) 0.003114 1091.0 0.1
1123(18) 0.003104 1090.4 0.1
1084(17) 0.003393 1089.8 0.1
1067(17) 0.003478 1089.2 0.1
1046(17) 0.003340 1088.7 0.1
1115(19) 0.002880 1088.1 0.1
1093(18) 0.003212 1087.5 0.1
1122(17) 0.003300 1086.9 0.1
1073(17) 0.003479 1086.4 0.1
1091(18) 0.003225 1085.8 0.1
1056(18) 0.003185 1085.2 0.1
1095(18) 0.003224 1084.7 0.1
1133(17) 0.003304 1084.1 0.1
1100(17) 0.003344 1083.5 0.1
1094(18) 0.003158 1082.9 0.1
1096(18) 0.003002 1082.4 0.1
1114(18) 0.003041 1081.8 0.1
1077(17) 0.003466 1081.2 0.1
1071(17) 0.003378 1080.6 0.1
1094(18) 0.003141 1080.1 0.1
1077(18) 0.003099 1079.5 0.1
1060(18) 0.003199 1078.9 0.1
1105(17) 0.003333 1078.4 0.1
1128(18) 0.003229 1077.8 0.1
1080(18) 0.003232 1077.2 0.1
1078(18) 0.003069 1076.6 0.1
1084(18) 0.003189 1076.1 0.1
1061(17) 0.003504 1075.5 0.1
1088(18) 0.003254 1074.9 0.1
1089(18) 0.003155 1074.3 0.1
1084(18) 0.003101 1073.8 0.1
1076(18) 0.003249 1073.2 0.1
1063(17) 0.003485 1072.6 0.1
1060(17) 0.003333 1072.1 0.1
1083(18) 0.003108 1071.5 0.1
1060(18) 0.003216 1070.9 0.1
1071(17) 0.003382 1070.3 0.1
1082(17) 0.003412 1069.8 0.1
1100(18) 0.003146 1069.2 0.1
1076(18) 0.003154 1068.6 0.1
1096(18) 0.003139 1068.1 0.1
1108(18) 0.003211 1067.5 0.1
1064(17) 0.003504 1066.9 0.1
1075(18) 0.003186 1066.3 0.1
1083(18) 0.003081 1065.8 0.1
1061(17) 0.003282 1065.2 0.1
1087(17) 0.003351 1064.6 0.1
1058(17) 0.00352 1064.0 0.1
1104(18) 0.003126 1063.5 0.1
1025(17) 0.003265 1062.9 0.1
1068(18) 0.003214 1062.3 0.1
1079(17) 0.003412 1061.8 0.1
1070(17) 0.003452 1061.2 0.1
1084(18) 0.003241 1060.6 0.1
1083(18) 0.002944 1060.0 0.1
1043(17) 0.003329 1059.5 0.0
1082(17) 0.003407 1058.9 0.0
1071(17) 0.003470 1058.3 0.0
1097(18) 0.003131 1057.7 0.0
1044(18) 0.003039 1057.2 0.0
1064(17) 0.003308 1056.6 0.0
1095(17) 0.003412 1056.0 0.0
1078(17) 0.003425 1055.5 0.0
1039(17) 0.003376 1054.9 0.0
1060(18) 0.003114 1054.3 0.0
1023(17) 0.003429 1053.7 0.0
1052(17) 0.00354 1053.2 0.0
1056(17) 0.003477 1052.6 0.0
1069(18) 0.003198 1052.0 0.1
1044(18) 0.003203 1051.4 0.1
1038(17) 0.003350 1050.9 0.1
1028(17) 0.00362 1050.3 0.1
1051(17) 0.003453 1049.7 0.1
1044(17) 0.003301 1049.2 0.1
1038(18) 0.003187 1048.6 0.1
984(17) 0.00357 1048.0 0.1
1065(17) 0.003476 1047.4 0.1
1069(17) 0.003390 1046.9 0.1
1035(17) 0.003373 1046.3 0.1
1015(17) 0.003369 1045.7 0.1
1066(17) 0.003298 1045.1 0.1
1045(17) 0.00355 1044.6 0.1
1064(17) 0.003270 1044.0 0.1
1031(17) 0.003329 1043.4 0.1
1062(18) 0.003189 1042.9 0.1
1075(17) 0.003294 1042.3 0.1
1023(17) 0.00363 1041.7 0.1
1066(18) 0.003247 1041.1 0.1
1033(17) 0.003342 1040.6 0.1
1016(17) 0.003407 1040.0 0.1
1053(17) 0.003388 1039.4 0.1
1043(17) 0.00357 1038.8 0.1
1039(18) 0.003255 1038.3 0.1
1042(18) 0.003126 1037.7 0.1
1078(18) 0.003204 1037.1 0.1
1075(17) 0.003407 1036.6 0.1
1039(17) 0.00353 1036.0 0.1
1039(17) 0.003387 1035.4 0.1
1021(17) 0.003292 1034.8 0.1
1035(17) 0.003383 1034.3 0.1
1027(17) 0.00363 1033.7 0.1
1025(17) 0.00363 1033.1 0.1
1009(17) 0.003432 1032.6 0.1
1026(18) 0.003121 1032.0 0.1
1031(17) 0.003415 1031.4 0.1
1025(17) 0.00359 1030.8 0.1
996(16) 0.00374 1030.3 0.1
1101(18) 0.003152 1029.7 0.1
1075(18) 0.002992 1029.1 0.1
1035(17) 0.003389 1028.5 0.1
1024(17) 0.00367 1028.0 0.1
1064(17) 0.003472 1027.4 0.1
1010(17) 0.003487 1026.8 0.1
1045(18) 0.003104 1026.3 0.1
1046(17) 0.003275 1025.7 0.1
1081(17) 0.003403 1025.1 0.1
1033(17) 0.00356 1024.5 0.1
1026(17) 0.003362 1024.0 0.1
1015(18) 0.003244 1023.4 0.1
1032(17) 0.003367 1022.8 0.1
1066(17) 0.003481 1022.2 0.1
1065(17) 0.003469 1021.7 0.1
1070(18) 0.003153 1021.1 0.1
1070(18) 0.003034 1020.5 0.1
997(17) 0.003474 1020.0 0.1
1027(17) 0.00364 1019.4 0.1
1022(17) 0.003462 1018.8 0.1
973(17) 0.00362 1018.2 0.1
1018(17) 0.003294 1017.7 0.1
1031(17) 0.003394 1017.1 0.1
998(16) 0.00373 1016.5 0.1
1064(17) 0.003288 1015.9 0.1
1053(18) 0.003260 1015.4 0.1
1079(18) 0.003144 1014.8 0.1
1074(18) 0.003246 1014.2 0.1
1037(17) 0.00361 1013.7 0.1
1015(17) 0.00351 1013.1 0.1
1007(17) 0.003374 1012.5 0.1
994(17) 0.003500 1011.9 0.1
1028(17) 0.003470 1011.4 0.1
1019(17) 0.00364 1010.8 0.1
1003(17) 0.003434 1010.2 0.1
992(17) 0.003378 1009.6 0.1
1017(17) 0.003422 1009.1 0.1
996(17) 0.00367 1008.5 0.1
975(16) 0.00379 1007.9 0.1
999(17) 0.003473 1007.4 0.1
1038(18) 0.003166 1006.8 0.1
1013(17) 0.003405 1006.2 0.1
990(16) 0.00370 1005.6 0.1
1048(17) 0.00352 1005.1 0.1
973(17) 0.00359 1004.5 0.2
984(17) 0.003403 1003.9 0.2
995(17) 0.00352 1003.3 0.2
993(16) 0.00371 1002.8 0.2
998(16) 0.00373 1002.2 0.2
994(17) 0.003478 1001.6 0.2
994(17) 0.003282 1001.1 0.2
998(17) 0.00355 1000.5 0.2
990(16) 0.00370 999.9 0.2
980(16) 0.00380 999.3 0.2
986(17) 0.003457 998.8 0.2
966(17) 0.003411 998.2 0.2
1003(17) 0.003459 997.6 0.2
1002(16) 0.00372 997.0 0.2
1046(17) 0.003463 996.4 0.2
1002(17) 0.00351 995.9 0.2
992(17) 0.003307 995.3 0.2
1005(17) 0.003376 994.7 0.2
975(16) 0.00383 994.1 0.2
1025(17) 0.00360 993.5 0.2
986(17) 0.00354 992.9 0.2
1003(17) 0.003315 992.3 0.2
982(17) 0.00353 991.7 0.2
963(16) 0.00383 991.2 1.3
1035(17) 0.003484 990.6 1.4
988(17) 0.00352 990.0 1.4
1026(18) 0.003246 989.4 1.4
988(17) 0.00356 988.8 1.4
946(16) 0.00394 988.2 1.5
1009(17) 0.003498 987.6 1.5
1005(17) 0.003432 987.1 1.5
992(17) 0.003436 986.5 1.6
1000(17) 0.00353 985.9 1.6
969(16) 0.00381 985.3 1.6
1018(17) 0.003402 984.7 1.6
946(17) 0.00360 984.1 1.7
960(17) 0.003500 983.5 1.7
951(16) 0.00380 983.0 1.7
1013(17) 0.00367 982.4 1.8
997(17) 0.003499 981.8 1.8
1013(18) 0.003255 981.2 1.8
993(17) 0.003489 980.6 1.9
983(16) 0.00370 980.0 1.9
985(16) 0.00379 979.4 2.0
968(17) 0.00353 978.8 2.0
990(17) 0.003328 978.3 2.0
1007(17) 0.003400 977.7 2.1
995(16) 0.00369 977.1 2.1
998(16) 0.00369 976.5 2.2
974(17) 0.003436 975.9 2.2
968(17) 0.003354 975.3 2.3
990(17) 0.003481 974.7 2.3
978(16) 0.00377 974.2 2.4
981(16) 0.00373 973.6 2.4
969(17) 0.00356 973.0 2.5
992(18) 0.003245 972.4 2.5
1024(17) 0.003345 971.8 2.6
1017(17) 0.00361 971.2 2.7
994(16) 0.00371 970.6 2.7
993(17) 0.003483 970.0 2.8
935(17) 0.003432 969.5 2.9
967(17) 0.00355 968.9 3.0
984(16) 0.00371 968.3 3.0
986(16) 0.00373 967.7 3.1
985(17) 0.00356 967.1 3.2
981(17) 0.003310 966.5 3.3
997(17) 0.003346 965.9 3.4
971(16) 0.00381 965.4 3.5
968(16) 0.00377 964.8 3.6
940(16) 0.00374 964.2 3.7
989(17) 0.003320 963.6 3.8
991(17) 0.003506 963.0 3.9
975(16) 0.00377 962.4 4.0
958(16) 0.00375 961.8 4.2
940(17) 0.00355 961.3 4.3
913(16) 0.00368 960.7 4.5
975(17) 0.003432 960.1 4.6
1010(17) 0.00366 959.5 4.8
962(16) 0.00375 958.9 5.0
994(17) 0.003407 958.3 5.2
967(17) 0.00356 957.7 5.4
967(17) 0.00359 957.1 5.6
990(16) 0.00376 956.6 5.9
1014(17) 0.003416 956.0 6.1
993(17) 0.003443 955.4 6.4
995(17) 0.003471 954.8 6.7
972(16) 0.00372 954.2 7.1
922(16) 0.00403 953.6 7.5
927(16) 0.00373 953.0 7.9
962(17) 0.00351 952.5 8.4
976(17) 0.003456 951.9 8.9
953(16) 0.00374 951.3 9.4
900(16) 0.00416 950.7 10.0
945(17) 0.00366 950.1 10.7
980(17) 0.003399 949.5 11.4
963(16) 0.00368 948.9 12.2
970(16) 0.00375 948.4 13.0
980(16) 0.00379 947.8 13.9
944(16) 0.00370 947.2 14.8
1014(18) 0.003188 946.6 15.8
967(17) 0.00362 946.0 16.9
946(16) 0.00393 945.4 18.0
980(16) 0.00378 944.8 19.1
960(17) 0.00366 944.2 20.3
1010(18) 0.003109 943.7 21.5
986(17) 0.003494 943.1 22.8
963(16) 0.00383 942.5 24.0
999(16) 0.00368 941.9 25.2
960(16) 0.00368 941.3 26.3
957(17) 0.003315 940.7 27.4
940(16) 0.00369 940.1 28.4
966(16) 0.00386 939.6 29.2
963(16) 0.00384 939.0 30.0
956(16) 0.00372 938.4 30.6
943(17) 0.00357 937.8 31.1
945(17) 0.00367 937.2 31.5
937(16) 0.00397 936.6 31.9
965(16) 0.00379 936.0 32.2
977(17) 0.00359 935.4 32.6
959(17) 0.00353 934.9 32.9
984(17) 0.00357 934.3 33.3
942(16) 0.00393 933.7 33.9
957(16) 0.00379 933.1 34.6
946(16) 0.00369 932.5 35.4
905(16) 0.00382 931.9 36.5
983(17) 0.003485 931.3 37.9
1006(16) 0.00370 930.8 39.5
918(16) 0.00393 930.2 41.6
991(17) 0.003497 929.6 44.0
998(17) 0.003403 929.0 46.9
983(17) 0.00358 928.4 50.4
972(16) 0.00381 927.8 54.5
992(17) 0.00356 927.2 59.5
994(17) 0.003482 926.7 66.7
1012(17) 0.003351 926.1 73.9
950(16) 0.00371 925.5 82.7
988(16) 0.00377 924.9 93.8
1026(17) 0.003437 924.3 108.2
1060(18) 0.003201 923.7 127.9
1075(18) 0.003179 923.1 156.5
1092(17) 0.003298 922.5 199.8
1226(18) 0.003034 922.0 266.8
1265(19) 0.002709 921.4 369.4
1391(21) 0.002366 920.8 521.2
1566(21) 0.002182 920.2 733.5
1775(22) 0.002027 919.6 1010.7
2110(24) 0.001757 919.0 1343.1
2474(27) 0.001407 918.4 1700.9
2776(29) 0.001193 917.9 2026.7
3156(30) 0.001078 917.3 2235.9
3330(30) 0.001092 916.7 2252.6
3232(30) 0.001144 916.1 2069.9
2703(28) 0.001273 915.5 1756.6
2256(26) 0.001445 914.9 1399.2
1886(23) 0.001858 914.3 1059.9
1596(21) 0.002330 913.7 772.8
1446(20) 0.002551 913.2 550.2
1372(20) 0.002518 912.6 389.3
1246(19) 0.002638 912.0 279.6
1160(18) 0.002983 911.4 207.6
1133(18) 0.003265 910.8 161.0
1049(17) 0.003482 910.2 130.3
1065(18) 0.003260 909.6 109.2
1069(18) 0.003005 909.1 93.9
1007(17) 0.003491 908.5 82.1
1035(17) 0.00361 907.9 72.6
1030(17) 0.00358 907.3 64.8
948(16) 0.00375 906.7 58.2
947(17) 0.003430 906.1 52.6
920(16) 0.00380 905.5 47.8
990(16) 0.00376 905.0 43.7
913(16) 0.00393 904.4 40.1
948(17) 0.00367 903.8 36.9
952(17) 0.00351 903.2 34.1
959(17) 0.00361 902.6 31.7
977(16) 0.00380 902.0 29.5
914(16) 0.00400 901.4 27.6
887(16) 0.00388 900.8 25.8
927(17) 0.00362 900.3 24.3
895(16) 0.00396 899.7 22.9
918(16) 0.00407 899.1 21.6
921(16) 0.00385 898.5 20.5
942(17) 0.00360 897.9 19.4
929(17) 0.00366 897.3 18.5
915(16) 0.00385 896.7 17.6
901(16) 0.00411 896.2 16.8
918(16) 0.00385 895.6 16.1
906(16) 0.00378 895.0 15.4
911(16) 0.00379 894.4 14.8
847(15) 0.00419 893.8 14.2
929(16) 0.00401 893.2 13.7
951(17) 0.00358 892.6 13.2
910(17) 0.00365 892.1 12.7
921(16) 0.00370 891.5 12.3
921(16) 0.00392 890.9 11.9
894(16) 0.00414 890.3 11.6
901(16) 0.00393 889.7 11.3
895(16) 0.00381 889.1 11.0
916(16) 0.00381 888.5 10.9
917(16) 0.00395 887.9 10.6
899(16) 0.00415 887.4 10.4
851(16) 0.00408 886.8 10.2
841(16) 0.00397 886.2 10.0
870(16) 0.00403 885.6 9.9
914(16) 0.00403 885.0 9.9
936(16) 0.00398 884.4 10.0
935(16) 0.00369 883.8 10.2
908(17) 0.00357 883.3 10.5
885(16) 0.00396 882.7 10.7
916(16) 0.00405 882.1 10.8
874(15) 0.00417 881.5 10.5
881(16) 0.00390 880.9 10.1
939(17) 0.003401 880.3 9.6
883(16) 0.00399 879.7 9.1
872(15) 0.00422 879.1 8.7
893(16) 0.00415 878.6 8.4
883(16) 0.00393 878.0 8.2
892(17) 0.00367 877.4 8.0
912(16) 0.00382 876.8 7.9
874(15) 0.00422 876.2 7.8
886(16) 0.00401 875.6 7.8
876(16) 0.00393 875.0 7.7
865(16) 0.00380 874.5 7.7
864(16) 0.00390 873.9 7.6
858(15) 0.00437 873.3 7.6
854(15) 0.00424 872.7 7.6
884(16) 0.00392 872.1 7.5
911(17) 0.00363 871.6 7.5
912(16) 0.00377 871.1 7.5
881(15) 0.00420 870.6 7.5
881(16) 0.00402 870.1 7.5
873(16) 0.00385 869.6 7.5
887(16) 0.00380 869.1 7.5
871(16) 0.00402 868.6 7.5
881(15) 0.00424 868.1 7.5
856(16) 0.00414 867.5 7.5
860(16) 0.00402 867.0 7.6
885(16) 0.00383 866.5 7.6
872(16) 0.00406 866.0 7.6
843(15) 0.00441 865.5 7.6
829(16) 0.00407 865.0 7.7
888(17) 0.00365 864.5 7.7
819(15) 0.00420 864.0 7.8
868(16) 0.00407 863.5 7.8
874(15) 0.00426 863.0 7.9
876(16) 0.00387 862.5 7.9
861(16) 0.00384 861.9 8.0
854(16) 0.00403 861.4 8.0
830(15) 0.00444 860.9 8.1
833(15) 0.00445 860.4 8.2
824(15) 0.00416 859.9 8.3
894(17) 0.00356 859.4 8.3
894(16) 0.00382 858.9 8.4
854(15) 0.00428 858.4 8.5
866(15) 0.00429 857.9 8.6
827(15) 0.00424 857.4 8.7
811(16) 0.00394 856.9 8.8
831(15) 0.00423 856.3 8.9
848(15) 0.00441 855.8 9.0
874(16) 0.00414 855.3 9.2
899(16) 0.00386 854.8 9.3
870(16) 0.00373 854.3 9.4
868(16) 0.00401 853.8 9.6
841(15) 0.00442 853.3 9.7
845(15) 0.00432 852.8 9.8
862(16) 0.00406 852.3 10.0
880(16) 0.00377 851.8 10.2
862(16) 0.00408 851.3 10.3
819(15) 0.00458 850.7 10.5
849(15) 0.00428 850.2 10.7
835(16) 0.00411 849.7 10.9
806(16) 0.00410 849.2 11.1
816(15) 0.00425 848.7 11.3
820(15) 0.00452 848.2 11.5
880(16) 0.00414 847.7 11.8
831(15) 0.00418 847.2 12.0
877(16) 0.00370 846.7 12.3
893(16) 0.00382 846.2 12.5
824(15) 0.00448 845.7 12.8
867(16) 0.00413 845.1 13.1
859(16) 0.00390 844.6 13.4
819(16) 0.00414 844.1 13.7
886(16) 0.00393 843.6 14.1
830(15) 0.00448 843.1 14.4
814(15) 0.00439 842.6 14.8
856(16) 0.00396 842.1 15.2
868(16) 0.00390 841.6 15.6
830(15) 0.00435 841.1 16.0
815(15) 0.00460 840.6 16.5
817(15) 0.00430 840.1 17.0
837(16) 0.00393 839.5 17.5
868(16) 0.00389 839.0 18.0
803(15) 0.00451 838.5 18.6
866(15) 0.00426 838.0 19.2
858(16) 0.00393 837.5 19.8
846(16) 0.00402 837.0 20.5
862(16) 0.00408 836.5 21.3
876(15) 0.00419 836.0 22.0
857(15) 0.00437 835.5 22.9
851(16) 0.00400 835.0 23.8
831(16) 0.00394 834.5 24.8
852(16) 0.00406 833.9 25.8
879(16) 0.00416 833.4 26.9
850(15) 0.00439 832.9 28.2
851(16) 0.00405 832.4 29.5
872(17) 0.00366 831.9 31.0
832(15) 0.00421 831.4 32.6
875(15) 0.00421 830.9 34.4
866(15) 0.00424 830.4 36.4
817(15) 0.00419 829.9 38.6
868(17) 0.00365 829.4 41.2
849(16) 0.00410 828.9 44.3
830(15) 0.00445 828.3 47.9
869(15) 0.00421 827.8 52.3
890(16) 0.00383 827.3 57.7
904(17) 0.00354 826.8 64.6
887(16) 0.00386 826.3 73.3
860(15) 0.00434 825.8 84.2
894(16) 0.00411 825.3 98.0
915(16) 0.00379 824.8 115.0
953(17) 0.003445 824.3 135.8
968(17) 0.00358 823.8 160.6
991(16) 0.00374 823.3 189.3
1063(17) 0.003383 822.7 221.5
1064(18) 0.003236 822.2 256.2
1068(18) 0.003155 821.7 291.8
1133(18) 0.003006 821.2 325.5
1164(18) 0.003195 820.7 353.5
1222(19) 0.002920 820.2 371.9
1219(19) 0.002814 819.7 377.6
1188(19) 0.002867 819.2 369.7
1172(18) 0.003008 818.7 350.3
1167(18) 0.003189 818.2 323.3
1102(18) 0.003178 817.7 292.7
1076(18) 0.003225 817.1 261.8
1017(17) 0.003407 816.6 232.8
1009(17) 0.00355 816.1 207.1
986(16) 0.00377 815.6 185.4
946(16) 0.00376 815.1 168.1
976(17) 0.003465 814.6 155.1
963(17) 0.00361 814.1 146.2
985(16) 0.00372 813.6 140.9
942(16) 0.00394 813.1 139.0
872(16) 0.00391 812.6 140.2
898(16) 0.00369 812.1 144.2
910(16) 0.00376 811.5 151.0
943(16) 0.00381 811.0 160.7
949(16) 0.00391 810.5 173.4
960(17) 0.00366 810.0 189.5
975(17) 0.003442 809.5 209.5
1038(17) 0.003370 809.0 233.9
1045(17) 0.003424 808.5 263.4
1073(17) 0.003476 808.0 298.6
1129(18) 0.003100 807.5 340.2
1129(18) 0.002956 807.0 388.8
1251(19) 0.002758 806.5 445.0
1211(18) 0.003039 806.0 508.9
1348(19) 0.002775 805.4 580.7
1480(21) 0.002372 804.9 660.2
1565(22) 0.002033 804.4 746.7
1639(22) 0.002104 803.9 839.0
1757(22) 0.002092 803.4 935.0
1932(23) 0.001920 802.9 1032.2
2082(24) 0.001681 802.4 1126.6
2135(26) 0.001534 801.9 1213.3
2149(25) 0.001615 801.4 1286.6
2189(24) 0.001696 800.9 1340.5
2263(25) 0.001619 800.4 1369.8
2249(25) 0.001541 799.8 1371.6
2177(26) 0.001503 799.3 1345.5
2087(25) 0.001666 798.8 1294.3
1996(23) 0.001864 798.3 1222.9
1939(23) 0.001849 797.8 1137.3
1807(23) 0.001887 797.3 1043.1
1679(23) 0.001974 796.8 945.5
1632(22) 0.002122 796.3 848.5
1618(21) 0.002286 795.8 755.0
1454(20) 0.002437 795.3 667.0
1370(20) 0.002492 794.8 585.8
1312(20) 0.002592 794.2 512.1
1262(19) 0.002783 793.7 446.2
1193(18) 0.003112 793.2 388.1
1164(18) 0.003011 792.7 337.5
1134(18) 0.002991 792.2 293.9
1064(18) 0.003239 791.7 256.6
1057(17) 0.003324 791.2 225.0
1000(16) 0.00373 790.7 198.3
988(17) 0.00357 790.2 176.0
1024(17) 0.003311 789.7 157.2
979(17) 0.00352 789.2 141.5
932(16) 0.00384 788.6 128.2
931(16) 0.00399 788.1 117.0
956(17) 0.00360 787.6 107.4
932(17) 0.00366 787.1 99.2
910(16) 0.00387 786.6 92.1
894(16) 0.00408 786.1 85.8
890(15) 0.00418 785.6 80.3
870(16) 0.00390 785.1 75.4
867(16) 0.00378 784.6 71.0
878(16) 0.00389 784.1 67.0
887(16) 0.00407 783.6 63.3
875(15) 0.00429 783.0 60.0
845(15) 0.00418 782.5 56.9
849(16) 0.00391 782.0 54.1
822(15) 0.00427 781.5 51.5
826(15) 0.00448 781.0 49.1
820(15) 0.00450 780.5 46.9
858(16) 0.00405 780.0 44.9
822(16) 0.00391 779.5 43.0
802(15) 0.00438 779.0 41.2
806(15) 0.00461 778.5 39.5
810(15) 0.00460 778.0 37.9
821(15) 0.00436 777.4 36.5
807(16) 0.00410 776.9 35.1
800(15) 0.00443 776.4 33.9
787(15) 0.00475 775.9 32.7
800(15) 0.00458 775.4 31.6
824(16) 0.00415 774.9 30.5
788(15) 0.00422 774.4 29.9
722(14) 0.00481 773.9 29.0
775(14) 0.00479 773.4 28.2
800(15) 0.00458 772.9 27.4
791(15) 0.00438 772.4 26.6
755(15) 0.00457 771.8 25.9
775(15) 0.00439 771.3 25.2
740(14) 0.00501 770.8 24.6
808(15) 0.00450 770.3 24.0
804(15) 0.00441 769.8 23.5
828(16) 0.00405 769.3 23.0
791(15) 0.00445 768.8 22.5
787(15) 0.00472 768.3 22.1
779(15) 0.00448 767.8 21.7
758(15) 0.00448 767.3 21.3
756(15) 0.00452 766.8 20.9
785(15) 0.00446 766.2 20.6
776(14) 0.00478 765.7 20.3
780(15) 0.00450 765.2 20.1
771(15) 0.00445 764.7 19.8
758(15) 0.00458 764.2 19.6
773(15) 0.00474 763.7 19.5
742(14) 0.00501 763.2 19.3
755(15) 0.00474 762.7 19.2
792(15) 0.00427 762.2 19.1
750(15) 0.00450 761.7 19.1
730(14) 0.00488 761.2 19.1
757(14) 0.00490 760.6 19.1
752(15) 0.00466 760.1 19.1
782(15) 0.00427 759.6 19.2
780(15) 0.00455 759.1 19.4
749(14) 0.00487 758.6 19.6
755(14) 0.00487 758.1 19.8
787(15) 0.00447 757.6 20.1
772(15) 0.00438 757.1 20.5
762(15) 0.00455 756.6 21.0
723(14) 0.00506 756.1 21.6
793(15) 0.00464 755.6 22.3
735(15) 0.00473 755.0 23.2
752(15) 0.00430 754.5 24.3
758(15) 0.00466 754.0 25.6
771(14) 0.00478 753.5 27.5
748(14) 0.00495 753.0 30.4
795(15) 0.00440 752.5 35.5
784(15) 0.00421 752.0 45.3
792(15) 0.00447 751.5 64.3
851(15) 0.00441 751.0 98.7
883(15) 0.00419 750.5 154.2
944(16) 0.00371 750.0 231.7
991(17) 0.003344 749.4 322.6
1112(18) 0.003080 748.9 406.2
1224(18) 0.003022 748.4 452.8
1323(19) 0.002766 747.9 439.9
1267(19) 0.002675 747.4 375.0
992(17) 0.003352 746.9 286.8
900(16) 0.00386 746.4 202.1
855(15) 0.00433 745.9 136.2
797(15) 0.00460 745.4 93.1
778(15) 0.00451 744.9 69.0
797(15) 0.00420 744.4 57.9
824(16) 0.00414 743.8 54.0
768(14) 0.00481 743.3 54.0
738(14) 0.00482 742.8 56.1
808(16) 0.00415 742.3 59.5
808(15) 0.00422 741.8 64.0
840(15) 0.00417 741.3 69.5
801(15) 0.00464 740.8 75.9
816(15) 0.00427 740.3 83.3
807(15) 0.00416 739.8 91.7
783(15) 0.00438 739.3 101.0
818(15) 0.00433 738.8 111.1
802(15) 0.00463 738.2 122.3
796(15) 0.00436 737.7 134.2
871(16) 0.00382 737.2 146.8
832(15) 0.00421 736.7 159.8
881(16) 0.00412 736.2 172.9
923(16) 0.00402 735.7 185.8
877(16) 0.00394 735.2 198.0
924(17) 0.00359 734.7 209.0
931(16) 0.00371 734.2 218.2
937(16) 0.00393 733.7 225.0
948(16) 0.00389 733.2 228.9
905(16) 0.00391 732.6 229.7
910(17) 0.00366 732.1 227.3
899(16) 0.00382 731.6 221.8
875(15) 0.00417 731.1 213.6
864(15) 0.00430 730.6 203.3
850(15) 0.00416 730.1 191.4
820(16) 0.00402 729.6 178.6
843(16) 0.00404 729.1 165.2
829(15) 0.00446 728.6 151.8
793(15) 0.00469 728.1 138.6
803(15) 0.00430 727.6 125.9
821(16) 0.00384 727.0 113.9
783(15) 0.00445 726.5 102.6
815(15) 0.00451 726.0 92.2
809(15) 0.00459 725.5 82.7
790(15) 0.00453 725.0 74.1
786(15) 0.00421 724.5 66.4
744(15) 0.00470 724.0 59.5
738(14) 0.00502 723.5 53.4
756(14) 0.00487 723.0 48.0
746(15) 0.00463 722.5 43.3
765(15) 0.00434 722.0 39.2
787(15) 0.00444 721.4 35.7
733(14) 0.00508 720.9 32.6
736(14) 0.00496 720.4 29.9
743(15) 0.00466 719.9 27.6
699(14) 0.00488 719.4 25.6
712(14) 0.00480 718.9 23.8
700(14) 0.00534 718.4 22.3
720(14) 0.00496 717.9 21.0
733(15) 0.00461 717.4 19.8
724(15) 0.00465 716.9 18.7
735(14) 0.00484 716.4 17.8
731(14) 0.00514 715.9 16.9
726(14) 0.00480 715.3 16.1
722(15) 0.00467 714.8 15.4
690(14) 0.00504 714.3 14.8
748(15) 0.00470 713.8 14.2
709(14) 0.00527 713.3 13.6
730(14) 0.00484 712.8 13.1
722(15) 0.00466 712.3 12.6
699(14) 0.00483 711.8 12.2
725(14) 0.00487 711.3 11.8
711(14) 0.00521 710.8 11.5
704(14) 0.00486 710.3 11.2
710(15) 0.00471 709.7 10.9
691(14) 0.00511 709.2 10.6
647(13) 0.00570 708.7 10.3
723(14) 0.00515 708.2 10.0
722(14) 0.00480 707.7 9.8
711(15) 0.00468 707.2 9.6
700(14) 0.00486 706.7 9.5
669(14) 0.00545 706.2 9.3
715(14) 0.00525 705.7 9.2
709(14) 0.00493 705.2 9.1
687(14) 0.00477 704.7 9.1
696(14) 0.00500 704.1 9.1
705(14) 0.00523 703.6 9.2
709(14) 0.00524 703.1 9.3
698(14) 0.00503 702.6 9.5
717(15) 0.00456 702.1 9.7
678(14) 0.00519 701.6 10.0
657(13) 0.00566 701.1 10.4
708(14) 0.00517 700.6 10.9
680(14) 0.00506 700.1 11.4
678(14) 0.00483 699.6 11.9
721(15) 0.00474 699.1 12.6
767(14) 0.00484 698.5 13.2
737(14) 0.00498 698.0 13.9
671(14) 0.00515 697.5 14.5
649(14) 0.00507 697.0 15.0
692(14) 0.00503 696.5 15.4
683(14) 0.00541 696.0 15.6
685(14) 0.00533 695.5 15.7
722(14) 0.00478 695.0 15.4
706(15) 0.00469 694.5 15.0
673(14) 0.00516 694.0 14.4
674(13) 0.00549 693.5 13.7
693(14) 0.00524 692.9 12.9
695(14) 0.00506 692.4 12.1
746(15) 0.00446 691.9 11.2
692(14) 0.00505 691.4 10.4
709(14) 0.00525 690.9 9.6
705(14) 0.00508 690.4 8.9
683(14) 0.00502 689.9 8.3
700(14) 0.00485 689.4 7.7
727(14) 0.00477 688.9 7.1
680(14) 0.00548 688.4 6.7
686(14) 0.00510 687.9 6.3
695(14) 0.00494 687.3 5.9
703(14) 0.00483 686.8 5.6
683(14) 0.00517 686.3 5.3
703(14) 0.00527 685.8 5.1
683(14) 0.00516 685.3 4.9
673(14) 0.00500 684.8 4.7
673(14) 0.00514 684.3 4.6
687(14) 0.00521 683.8 4.5
692(14) 0.00535 683.3 4.4
646(14) 0.00545 682.8 4.3
636(14) 0.00525 682.3 4.2
657(14) 0.00522 681.7 4.1
663(13) 0.00552 681.2 4.0
682(14) 0.00542 680.7 3.9
665(14) 0.00512 680.2 3.9
663(14) 0.00502 679.7 3.8
681(14) 0.00511 679.2 3.8
689(14) 0.00531 678.7 3.7
660(13) 0.00564 678.2 3.7
659(14) 0.00534 677.7 3.7
700(15) 0.00458 677.2 3.6
653(14) 0.00543 676.7 3.6
654(13) 0.00561 676.1 3.6
700(14) 0.00528 675.6 3.5
665(14) 0.00546 675.1 3.5
665(14) 0.00496 674.6 3.5
697(14) 0.00499 674.1 3.5
681(13) 0.00549 673.6 3.5
682(14) 0.00540 673.1 3.5
686(14) 0.00515 672.6 3.5
650(14) 0.00521 672.1 3.5
635(13) 0.00552 671.6 3.5
687(14) 0.00541 671.1 3.6
663(14) 0.00543 670.7 3.6
659(14) 0.00512 670.3 3.6
686(15) 0.00473 669.9 3.6
695(14) 0.00485 669.5 3.7
665(13) 0.00558 669.1 3.7
683(14) 0.00521 668.8 3.8
699(14) 0.00480 668.4 3.8
670(14) 0.00504 668.0 3.9
667(14) 0.00534 667.6 4.0
657(13) 0.00565 667.2 4.0
646(14) 0.00547 666.9 4.1
645(14) 0.00516 666.5 4.2
656(14) 0.00522 666.1 4.7
664(14) 0.00536 665.7 4.8
680(14) 0.00546 665.4 4.9
668(14) 0.00536 665.0 5.1
725(15) 0.00475 664.6 5.2
678(14) 0.00513 664.2 5.3
675(14) 0.00539 663.8 5.4
682(13) 0.00549 663.5 5.5
663(14) 0.00528 663.1 5.6
672(14) 0.00516 662.7 5.8
702(14) 0.00480 662.3 5.9
682(14) 0.00526 661.9 6.0
688(14) 0.00538 661.6 6.1
671(14) 0.00510 661.2 6.2
701(15) 0.00472 660.8 6.3
676(14) 0.00524 660.4 6.3
682(14) 0.00526 660.1 6.4
657(13) 0.00567 659.7 6.5
672(14) 0.00516 659.3 6.5
644(14) 0.00513 658.9 6.5
672(14) 0.00509 658.5 6.5
649(13) 0.00573 658.2 6.5
686(14) 0.00534 657.8 6.5
712(15) 0.00471 657.4 6.5
724(15) 0.00448 657.0 6.4
692(14) 0.00509 656.7 6.4
704(14) 0.00516 656.3 6.3
692(14) 0.00539 655.9 6.2
678(14) 0.00525 655.5 6.1
707(15) 0.00453 655.1 6.0
661(14) 0.00523 654.8 6.0
649(13) 0.00566 654.4 5.9
653(13) 0.00566 654.0 5.8
674(14) 0.00519 653.6 5.7
663(14) 0.00498 653.2 5.6
679(14) 0.00502 652.9 5.5
667(13) 0.00559 652.5 5.4
623(13) 0.00588 652.1 5.3
631(13) 0.00561 651.7 5.3
632(14) 0.00537 651.4 5.2
659(14) 0.00538 651.0 5.2
683(14) 0.00543 650.6 5.1
665(13) 0.00549 650.2 5.1
665(14) 0.00525 649.8 5.1
658(14) 0.00519 649.5 5.1
671(14) 0.00521 649.1 5.1
656(13) 0.00566 648.7 5.1
644(13) 0.00560 648.3 5.1
665(14) 0.00507 647.9 5.2
689(14) 0.00492 647.6 5.2
673(14) 0.00525 647.2 5.3
627(13) 0.00593 646.8 5.4
675(14) 0.00521 646.4 5.5
672(14) 0.00499 646.1 5.6
640(14) 0.00540 645.7 5.8
666(14) 0.00521 645.3 6.0
642(13) 0.00577 644.9 6.2
639(13) 0.00558 644.5 6.4
645(14) 0.00515 644.2 6.7
647(14) 0.00517 643.8 7.1
628(13) 0.00576 643.4 7.4
611(13) 0.00613 643.0 7.9
648(14) 0.00520 642.6 8.4
637(14) 0.00536 642.3 8.9
686(14) 0.00506 641.9 9.6
673(14) 0.00535 641.5 10.4
616(13) 0.00606 641.1 11.3
648(14) 0.00526 640.8 12.3
683(15) 0.00466 640.4 13.6
665(14) 0.00521 640.0 15.1
632(13) 0.00584 639.6 16.9
664(13) 0.00549 639.2 19.2
644(14) 0.00542 638.9 22.0
635(14) 0.00522 638.5 26.0
693(14) 0.00507 638.1 31.7
653(13) 0.00554 637.7 40.6
680(14) 0.00545 637.3 55.4
731(14) 0.00481 637.0 79.6
721(15) 0.00451 636.6 117.9
766(15) 0.00436 636.2 174.7
828(15) 0.00443 635.8 251.8
911(16) 0.00404 635.5 346.0
997(17) 0.003499 635.1 446.1
1125(19) 0.002860 634.7 531.1
1204(19) 0.002858 634.3 572.8
1252(18) 0.002966 633.9 552.6
1186(18) 0.003050 633.6 479.9
988(17) 0.003490 633.2 382.3
894(16) 0.00370 632.8 284.2
805(15) 0.00422 632.4 200.2
782(14) 0.00476 632.0 136.0
709(14) 0.00511 631.7 91.4
713(14) 0.00484 631.3 62.6
685(14) 0.00478 630.9 44.9
680(14) 0.00495 630.5 34.2
646(13) 0.00574 630.2 27.5
636(13) 0.00566 629.8 23.0
652(14) 0.00530 629.4 19.8
650(14) 0.00516 629.0 17.3
641(13) 0.00553 628.6 15.3
642(13) 0.00575 628.3 13.7
638(14) 0.00545 627.9 12.3
649(14) 0.00516 627.5 11.2
664(14) 0.00515 627.1 10.2
635(13) 0.00559 626.8 9.3
639(13) 0.00579 626.4 8.6
658(14) 0.00537 626.0 7.9
636(14) 0.00529 625.6 7.4
667(14) 0.00521 625.2 6.9
637(13) 0.00566 624.9 6.4
629(13) 0.00591 624.5 6.0
628(14) 0.00542 624.1 5.7
601(14) 0.00543 623.7 5.4
620(13) 0.00556 623.3 5.1
617(13) 0.00593 623.0 4.9
609(13) 0.00613 622.6 4.6
642(14) 0.00528 622.2 4.4
586(13) 0.00580 621.8 4.2
608(13) 0.00567 621.5 4.1
609(13) 0.00595 621.1 3.9
623(13) 0.00596 620.7 3.8
599(13) 0.00590 620.3 3.6
644(14) 0.00508 619.9 3.5
662(14) 0.00524 619.6 3.4
647(13) 0.00573 619.2 3.3
635(13) 0.00585 618.8 3.2
622(13) 0.00553 618.4 3.1
650(14) 0.00492 618.0 3.0
660(14) 0.00531 617.7 2.9
639(13) 0.00578 617.3 2.8
614(13) 0.00603 616.9 2.8
602(13) 0.00599 616.5 2.7
633(14) 0.00509 616.2 2.6
623(13) 0.00570 615.8 2.6
661(13) 0.00559 615.4 2.5
578(12) 0.00652 615.0 2.5
609(13) 0.00572 614.6 2.4
607(13) 0.00552 614.3 2.4
644(14) 0.00546 613.9 2.3
616(13) 0.00605 613.5 2.3
641(13) 0.00561 613.1 2.3
600(13) 0.00574 612.7 2.2
625(14) 0.00525 612.4 2.2
608(13) 0.00592 612.0 2.2
613(13) 0.00605 611.6 2.1
609(13) 0.00589 611.2 2.1
641(14) 0.00535 610.9 2.1
618(14) 0.00540 610.5 2.1
610(13) 0.00567 610.1 2.0
658(13) 0.00569 609.7 2.0
650(14) 0.00541 609.4 2.0
617(14) 0.00544 609.0 2.0
601(13) 0.00580 608.7 2.0
610(13) 0.00583 608.4 2.0
633(13) 0.00585 608.1 1.9
625(14) 0.00547 607.8 1.9
624(13) 0.00554 607.4 1.9
611(13) 0.00581 607.1 1.9
619(13) 0.00578 606.8 1.9
585(13) 0.00633 606.5 1.9
606(13) 0.00570 606.2 1.9
610(13) 0.00555 605.8 1.9
608(13) 0.00572 605.5 1.9
584(13) 0.00619 605.2 1.9
625(13) 0.00597 604.9 1.9
600(13) 0.00580 604.6 1.9
584(13) 0.00580 604.2 1.9
636(14) 0.00537 603.9 1.9
629(13) 0.00580 603.6 2.0
612(13) 0.00611 603.3 2.0
614(13) 0.00552 603.0 2.0
588(14) 0.00539 602.6 2.0
601(13) 0.00576 602.3 2.0
604(13) 0.00608 602.0 2.1
593(13) 0.00628 601.7 2.1
595(13) 0.00591 601.3 2.2
590(13) 0.00561 601.0 2.2
608(13) 0.00574 600.7 2.3
604(13) 0.00617 600.4 2.4
566(12) 0.00650 600.1 2.5
620(13) 0.00549 599.7 2.6
603(13) 0.00552 599.4 2.7
597(13) 0.00592 599.1 2.9
607(13) 0.00613 598.8 3.1
602(13) 0.00618 598.5 3.3
619(13) 0.00557 598.1 3.7
639(14) 0.00505 597.8 4.2
609(13) 0.00563 597.5 4.9
626(13) 0.00593 597.2 6.2
600(13) 0.00608 596.9 8.1
595(13) 0.00588 596.5 11.3
629(14) 0.00531 596.2 15.8
622(13) 0.00552 595.9 22.1
576(12) 0.00649 595.6 29.9
621(13) 0.00581 595.3 38.4
612(13) 0.00563 594.9 46.3
635(14) 0.00529 594.6 51.2
642(13) 0.00554 594.3 51.1
628(13) 0.00591 594.0 46.2
594(13) 0.00601 593.7 38.3
632(14) 0.00538 593.3 29.8
613(13) 0.00559 593.0 22.0
592(13) 0.00585 592.7 15.8
575(12) 0.00648 592.4 11.2
573(13) 0.00599 592.0 8.1
583(13) 0.00569 591.7 6.1
601(13) 0.00560 591.4 4.9
576(13) 0.00629 591.1 4.2
606(13) 0.00611 590.8 3.7
615(13) 0.00579 590.4 3.3
598(13) 0.00565 590.1 3.1
573(13) 0.00616 589.8 2.9
574(13) 0.00634 589.5 2.7
575(12) 0.00649 589.2 2.6
566(13) 0.00603 588.8 2.5
605(14) 0.00541 588.5 2.4
598(13) 0.00567 588.2 2.3
599(13) 0.00600 587.9 2.2
612(13) 0.00614 587.6 2.2
608(13) 0.00556 587.2 2.1
621(14) 0.00520 586.9 2.1
581(13) 0.00609 586.6 2.0
627(13) 0.00583 586.3 2.0
584(13) 0.00636 586.0 2.0
622(13) 0.00561 585.6 1.9
596(13) 0.00553 585.3 1.9
592(13) 0.00587 585.0 1.9
599(13) 0.00617 584.7 1.9
619(13) 0.00598 584.3 1.9
568(13) 0.00603 584.0 1.9
595(14) 0.00539 583.7 1.9
602(13) 0.00599 583.4 1.9
588(13) 0.00637 583.1 1.9
600(13) 0.00602 582.7 1.9
582(13) 0.00600 582.4 1.9
638(14) 0.00500 582.1 1.9
622(13) 0.00562 581.8 1.9
599(13) 0.00622 581.5 1.9
593(13) 0.00610 581.1 1.9
577(13) 0.00592 580.8 1.9
559(13) 0.00582 580.5 1.9
579(13) 0.00593 580.2 1.9
613(13) 0.00603 579.9 1.9
586(13) 0.00619 579.5 1.9
609(13) 0.00567 579.2 1.9
604(13) 0.00551 578.9 1.9
576(13) 0.00596 578.6 1.9
586(13) 0.00635 578.3 1.9
579(13) 0.00620 577.9 1.9
612(13) 0.00556 577.6 2.0
562(13) 0.00607 577.3 2.0
576(13) 0.00588 577.0 2.0
566(12) 0.00657 576.6 2.0
585(13) 0.00605 576.3 2.0
574(13) 0.00599 576.0 2.0
568(13) 0.00617 575.7 2.1
572(13) 0.00627 575.4 2.1
565(12) 0.00659 575.0 2.1
547(12) 0.00646 574.7 2.1
562(13) 0.00616 574.4 2.1
622(13) 0.00550 574.1 2.2
580(13) 0.00613 573.8 2.2
596(13) 0.00627 573.4 2.2
565(13) 0.00611 573.1 2.2
555(13) 0.00621 572.8 2.3
572(13) 0.00604 572.5 2.3
570(13) 0.00629 572.2 2.3
570(12) 0.00654 571.8 2.3
565(13) 0.00602 571.5 2.4
588(14) 0.00546 571.2 2.4
557(13) 0.00618 570.9 2.5
579(13) 0.00630 570.6 2.5
578(12) 0.00642 570.3 2.5
624(13) 0.00549 570.1 2.6
567(13) 0.00569 569.8 2.6
554(13) 0.00620 569.6 2.7
554(12) 0.00670 569.3 2.7
580(12) 0.00647 569.1 2.7
607(13) 0.00577 568.8 2.8
583(13) 0.00556 568.6 2.8
589(13) 0.00597 568.4 2.9
580(12) 0.00644 568.1 2.9
554(12) 0.00662 567.9 3.0
541(12) 0.00644 567.6 3.0
538(13) 0.00607 567.4 3.1
569(13) 0.00607 567.1 3.1
550(12) 0.00663 566.9 3.2
560(12) 0.00661 566.6 3.3
576(13) 0.00606 566.4 3.3
574(13) 0.00593 566.2 3.4
581(13) 0.00602 565.9 3.4
601(13) 0.00621 565.7 3.5
569(12) 0.00646 565.4 3.6
550(13) 0.00637 565.2 3.7
592(13) 0.00553 564.9 3.7
559(13) 0.00609 564.7 3.8
578(12) 0.00642 564.5 3.9
564(13) 0.00630 564.2 4.0
551(13) 0.00620 564.0 4.1
559(13) 0.00609 563.7 4.2
565(13) 0.00619 563.5 4.3
580(13) 0.00639 563.2 4.4
566(13) 0.00622 563.0 4.5
552(13) 0.00627 562.8 4.6
576(13) 0.00600 562.5 4.7
568(13) 0.00629 562.3 4.9
546(12) 0.00680 562.0 5.0
600(13) 0.00571 561.8 5.1
591(13) 0.00564 561.5 5.3
578(13) 0.00582 561.3 5.4
560(13) 0.00638 561.0 5.6
542(12) 0.00682 560.8 5.7
588(13) 0.00601 560.6 5.9
586(13) 0.00581 560.3 6.1
587(13) 0.00586 560.1 6.3
570(13) 0.00629 559.8 6.5
592(13) 0.00630 559.6 6.7
573(13) 0.00611 559.3 7.0
560(13) 0.00605 559.1 7.2
588(13) 0.00593 558.9 7.5
588(13) 0.00627 558.6 7.8
556(12) 0.00667 558.4 8.1
593(13) 0.00580 558.1 8.4
543(13) 0.00602 557.9 8.8
558(13) 0.00618 557.6 9.2
560(12) 0.00659 557.4 9.6
592(13) 0.00625 557.2 10.1
546(12) 0.00642 556.9 10.6
531(13) 0.00610 556.7 11.2
584(13) 0.00581 556.4 11.8
547(12) 0.00670 556.2 12.4
593(13) 0.00617 555.9 13.2
534(12) 0.00672 555.7 14.0
575(13) 0.00580 555.5 14.9
574(13) 0.00599 555.2 15.8
591(13) 0.00627 555.0 16.9
553(12) 0.00660 554.7 18.0
562(13) 0.00612 554.5 19.3
597(14) 0.00530 554.2 20.6
573(13) 0.00601 554.0 22.1
574(12) 0.00646 553.7 23.7
558(12) 0.00652 553.5 25.4
588(13) 0.00584 553.3 27.3
583(13) 0.00568 553.0 29.3
592(13) 0.00587 552.8 31.5
596(13) 0.00623 552.5 33.8
588(13) 0.00612 552.3 36.3
582(13) 0.00594 552.0 38.9
588(13) 0.00563 551.8 41.7
596(13) 0.00581 551.6 44.6
624(13) 0.00599 551.3 47.7
612(13) 0.00579 551.1 50.9
608(13) 0.00556 550.8 54.3
615(13) 0.00554 550.6 57.8
587(13) 0.00604 550.3 61.3
603(13) 0.00615 550.1 65.0
617(13) 0.00573 549.9 68.7
625(14) 0.00541 549.6 72.4
624(13) 0.00571 549.4 76.1
632(13) 0.00567 549.1 79.8
627(13) 0.00594 548.9 83.3
637(13) 0.00550 548.6 86.7
621(13) 0.00556 548.4 89.9
634(14) 0.00540 548.2 92.7
614(13) 0.00588 547.9 95.3
612(13) 0.00609 547.7 97.4
604(13) 0.00577 547.4 99.0
637(14) 0.00528 547.2 100.2
662(14) 0.00529 546.9 100.7
652(13) 0.00560 546.7 100.8
650(13) 0.00571 546.4 100.2
679(14) 0.00519 546.2 99.1
661(14) 0.00496 546.0 97.5
616(13) 0.00578 545.7 95.5
642(13) 0.00573 545.5 93.0
604(13) 0.00616 545.2 90.1
606(13) 0.00573 545.0 87.0
622(14) 0.00516 544.7 83.6
619(13) 0.00558 544.5 80.1
596(13) 0.00625 544.3 76.5
634(13) 0.00585 544.0 72.8
629(14) 0.00548 543.8 69.1
605(14) 0.00539 543.5 65.4
615(13) 0.00572 543.3 61.7
616(13) 0.00601 543.0 58.2
613(13) 0.00598 542.8 54.7
585(13) 0.00616 542.6 51.3
603(13) 0.00559 542.3 48.1
602(13) 0.00575 542.1 45.0
596(13) 0.00625 541.8 42.1
577(13) 0.00638 541.6 39.3
547(13) 0.00637 541.3 36.7
591(13) 0.00557 541.1 34.3
597(13) 0.00559 540.9 32.0
574(12) 0.00643 540.6 29.8
589(13) 0.00612 540.4 27.8
558(13) 0.00608 540.1 25.9
550(13) 0.00583 539.9 24.2
569(13) 0.00596 539.6 22.6
575(12) 0.00649 539.4 21.2
572(13) 0.00631 539.1 19.8
541(12) 0.00641 538.9 18.6
571(13) 0.00594 538.7 17.5
547(12) 0.00641 538.4 16.5
546(12) 0.00687 538.2 15.5
544(12) 0.00648 537.9 14.7
535(13) 0.00639 537.7 14.0
569(13) 0.00599 537.4 13.3
598(13) 0.00595 537.2 12.6
540(12) 0.00688 537.0 12.1
571(13) 0.00605 536.7 11.6
565(13) 0.00587 536.5 11.1
554(13) 0.00613 536.2 10.7
554(12) 0.00651 536.0 10.4
534(12) 0.00691 535.7 10.1
557(13) 0.00612 535.5 9.8
556(13) 0.00598 535.3 9.6
575(13) 0.00606 535.0 9.4
544(12) 0.00666 534.8 9.2
574(12) 0.00651 534.5 9.1
548(13) 0.00633 534.3 9.0
560(13) 0.00577 534.0 9.0
548(13) 0.00633 533.8 8.9
549(12) 0.00668 533.5 9.0
558(12) 0.00670 533.3 9.1
557(13) 0.00625 533.1 9.2
562(13) 0.00574 532.8 9.5
543(12) 0.00657 532.6 9.8
570(12) 0.00651 532.3 10.3
549(12) 0.00672 532.1 10.9
554(13) 0.00630 531.8 11.8
560(13) 0.00567 531.6 13.0
563(13) 0.00615 531.4 14.5
567(12) 0.00657 531.1 16.5
556(12) 0.00667 530.9 19.1
545(13) 0.00613 530.6 22.3
569(13) 0.00571 530.4 26.2
561(13) 0.00630 530.1 30.8
586(12) 0.00641 529.9 36.0
560(12) 0.00649 529.7 41.6
555(13) 0.00626 529.4 47.5
580(13) 0.00559 529.2 53.0
569(13) 0.00603 528.9 57.5
576(12) 0.00643 528.7 60.4
576(13) 0.00619 528.4 61.1
569(13) 0.00606 528.2 59.4
598(14) 0.00546 528.0 55.6
565(13) 0.00610 527.7 50.4
562(12) 0.00660 527.5 44.5
589(13) 0.00606 527.2 38.6
580(13) 0.00577 527.0 32.9
561(13) 0.00603 526.7 27.8
564(13) 0.00611 526.5 23.3
563(12) 0.00660 526.2 19.5
564(13) 0.00638 526.0 16.4
545(13) 0.00629 525.8 13.8
560(13) 0.00589 525.5 11.8
541(12) 0.00647 525.3 10.2
564(12) 0.00661 525.0 9.0
519(12) 0.00669 524.8 8.0
541(13) 0.00606 524.5 7.3
515(12) 0.00663 524.3 6.6
528(12) 0.00674 524.1 6.1
509(12) 0.00728 523.8 5.7
553(13) 0.00613 523.6 5.4
546(13) 0.00600 523.3 5.1
524(12) 0.00659 523.1 4.8
536(12) 0.00671 522.8 4.5
522(12) 0.00717 522.6 4.3
542(13) 0.00631 522.4 4.1
499(12) 0.00660 522.1 4.0
526(12) 0.00651 521.9 3.8
524(12) 0.00690 521.6 3.6
540(12) 0.00691 521.4 3.5
514(12) 0.00693 521.1 3.4
495(12) 0.00677 520.9 3.3
520(12) 0.00680 520.7 3.2
508(12) 0.00734 520.4 3.1
542(12) 0.00679 520.2 3.0
535(12) 0.00663 519.9 2.9
565(13) 0.00560 519.7 2.8
540(12) 0.00641 519.4 2.7
541(12) 0.00683 519.2 2.6
541(12) 0.00684 518.9 2.6
524(12) 0.00675 518.7 2.5
532(13) 0.00611 518.5 2.5
544(13) 0.00629 518.2 2.4
537(12) 0.00694 518.0 2.3
508(12) 0.00720 517.7 2.3
539(13) 0.00635 517.5 2.2
540(13) 0.00600 517.2 2.2
541(13) 0.00626 517.0 2.1
536(12) 0.00694 516.8 2.1
538(12) 0.00664 516.5 2.1
524(12) 0.00662 516.3 2.0
552(13) 0.00598 516.0 2.0
531(12) 0.00649 515.8 1.9
536(12) 0.00697 515.5 1.9
499(12) 0.00716 515.3 1.9
504(12) 0.00681 515.1 1.8
536(13) 0.00614 514.8 1.8
498(12) 0.00690 514.6 1.8
516(12) 0.00717 514.3 1.8
536(12) 0.00665 514.1 1.7
518(12) 0.00669 513.8 1.7
538(13) 0.00625 513.6 1.7
530(12) 0.00678 513.4 1.6
538(12) 0.00691 513.1 1.6
530(12) 0.00668 512.9 1.6
511(12) 0.00672 512.6 1.6
510(12) 0.00685 512.4 1.6
528(12) 0.00696 512.1 1.5
479(11) 0.00772 511.9 1.5
500(12) 0.00685 511.6 1.5
503(12) 0.00657 511.4 1.5
524(12) 0.00654 511.2 1.5
525(12) 0.00701 510.9 1.4
526(12) 0.00704 510.7 1.4
513(12) 0.00665 510.4 1.4
528(13) 0.00624 510.2 1.4
522(12) 0.00665 509.9 1.4
506(12) 0.00713 509.7 1.4
524(12) 0.00704 509.5 1.3
515(12) 0.00667 509.2 1.3
506(12) 0.00655 509.0 1.3
532(12) 0.00654 508.7 1.3
534(12) 0.00684 508.5 1.3
490(11) 0.00765 508.2 1.3
489(12) 0.00697 508.0 1.3
495(13) 0.00632 507.8 1.2
545(13) 0.00637 507.5 1.2
508(12) 0.00724 507.3 1.2
503(12) 0.00738 507.0 1.2
513(12) 0.00679 506.8 1.2
513(13) 0.00631 506.5 1.2
531(12) 0.00641 506.3 1.2
503(12) 0.00741 506.0 1.2
525(12) 0.00688 505.8 1.2
491(12) 0.00736 505.6 1.2
537(13) 0.00625 505.3 1.1
494(12) 0.00700 505.3 1.1
505(12) 0.00740 505.2 1.1
509(12) 0.00700 505.1 1.1
537(13) 0.00632 505.0 1.1
503(12) 0.00651 504.9 1.1
474(12) 0.00746 504.8 1.1
531(12) 0.00702 504.8 1.1
494(12) 0.00716 504.7 1.1
503(12) 0.00695 504.6 1.1
516(12) 0.00662 504.5 1.1
478(12) 0.00755 504.4 1.1
492(11) 0.00760 504.3 1.1
510(12) 0.00710 504.3 1.1
513(12) 0.00658 504.2 1.0
488(12) 0.00690 504.1 1.0
534(12) 0.00641 504.0 1.0
534(12) 0.00698 503.9 1.0
547(12) 0.00654 503.8 1.0
523(12) 0.00657 503.8 1.0
539(13) 0.00629 503.7 1.0
518(12) 0.00673 503.6 1.0
530(12) 0.00708 503.5 1.0
523(12) 0.00681 503.4 1.0
529(13) 0.00629 503.3 1.0
529(12) 0.00648 503.3 1.0
515(12) 0.00699 503.2 1.0
519(12) 0.00718 503.1 1.0
518(12) 0.00673 503.0 1.0
539(13) 0.00623 502.9 1.0
501(12) 0.00693 502.8 1.0
495(12) 0.00740 502.8 0.8
493(12) 0.00756 502.7 0.8
498(12) 0.00695 502.6 0.8
478(12) 0.00689 502.5 0.8
481(12) 0.00732 502.4 0.8
509(12) 0.00718 502.3 0.8
501(12) 0.00732 502.3 0.8
524(12) 0.00677 502.2 0.8
527(13) 0.00628 502.1 0.8
533(12) 0.00667 502.0 0.8
522(12) 0.00712 501.9 0.8
509(12) 0.00728 501.8 0.8
501(12) 0.00701 501.8 0.8
518(13) 0.00635 501.7 0.8
502(12) 0.00695 501.6 0.8
494(12) 0.00743 501.5 0.8
498(12) 0.00739 501.4 0.9
511(12) 0.00684 501.3 0.9
520(13) 0.00625 501.3 0.9
520(12) 0.00661 501.2 0.9
502(12) 0.00745 501.1 0.9
498(12) 0.00736 501.0 0.9
494(12) 0.00699 500.9 0.9
517(13) 0.00633 500.8 0.9
501(12) 0.00705 500.8 0.9
511(12) 0.00722 500.7 0.9
479(11) 0.00762 500.6 0.9
487(12) 0.00729 500.5 0.9
495(12) 0.00683 500.4 0.9
505(12) 0.00681 500.3 0.9
475(11) 0.00777 500.3 0.9
468(11) 0.00764 500.2 1.0
497(12) 0.00672 500.1 1.0
492(12) 0.00691 500.0 1.0
482(12) 0.00725 499.9 1.0
513(12) 0.00723 499.8 1.0
537(12) 0.00668 499.8 1.0
535(12) 0.00650 499.7 1.0
504(12) 0.00700 499.6 1.1
526(12) 0.00677 499.5 1.1
518(12) 0.00709 499.4 1.1
496(12) 0.00685 499.3 1.1
487(12) 0.00690 499.3 1.2
486(12) 0.00702 499.2 1.2
528(12) 0.00667 499.1 1.2
497(12) 0.00747 499.0 1.3
509(12) 0.00655 498.9 1.3
468(12) 0.00741 498.8 1.4
484(12) 0.00725 498.8 1.4
488(11) 0.00760 498.7 1.5
513(12) 0.00722 498.6 1.5
498(12) 0.00696 498.5 1.6
509(12) 0.00653 498.4 1.7
497(12) 0.00707 498.3 1.7
505(12) 0.00725 498.3 1.8
530(12) 0.00707 498.2 1.9
506(12) 0.00706 498.1 2.0
525(13) 0.00617 498.0 2.3
532(12) 0.00652 497.9 2.4
491(11) 0.00763 497.8 2.5
534(12) 0.00688 497.8 2.6
519(12) 0.00693 497.7 2.7
510(12) 0.00656 497.6 2.8
504(12) 0.00686 497.5 3.0
485(11) 0.00765 497.4 3.1
495(12) 0.00753 497.3 3.2
515(12) 0.00644 497.3 3.4
504(12) 0.00642 497.2 3.5
490(12) 0.00735 497.1 3.6
526(12) 0.00706 497.0 3.8
519(12) 0.00698 496.9 3.9
519(12) 0.00658 496.8 4.7
509(12) 0.00647 496.8 4.8
493(12) 0.00706 496.7 4.9
529(12) 0.00703 496.6 5.0
479(11) 0.00769 496.5 5.1
528(12) 0.00653 496.4 5.2
502(12) 0.00670 496.3 5.3
471(12) 0.00746 496.3 5.3
517(12) 0.00716 496.2 5.3
502(12) 0.00717 496.1 5.4
463(11) 0.00760 496.0 5.4
512(12) 0.00660 495.9 5.3
544(12) 0.00643 495.8 5.3
533(12) 0.00702 495.8 5.3
502(12) 0.00711 495.7 5.2
479(12) 0.00726 495.6 5.2
476(12) 0.00715 495.5 5.1
461(11) 0.00770 495.4 5.0
486(11) 0.00765 495.3 4.9
498(12) 0.00696 495.2 4.9
499(12) 0.00690 495.0 4.8
483(12) 0.00709 494.9 4.7
479(12) 0.00729 494.7 4.6
488(11) 0.00758 494.6 4.6
517(12) 0.00663 494.4 4.5
492(12) 0.00678 494.2 4.5
516(12) 0.00654 494.1 4.4
482(11) 0.00761 493.9 4.4
471(11) 0.00783 493.8 4.3
484(12) 0.00721 493.6 4.3
520(13) 0.00632 493.5 4.3
503(12) 0.00701 493.3 4.3
531(12) 0.00690 493.2 4.3
494(11) 0.00758 493.0 4.3
503(12) 0.00689 492.9 4.3
501(12) 0.00662 492.7 4.3
501(12) 0.00707 492.6 4.4
472(11) 0.00783 492.4 4.4
475(11) 0.00777 492.3 4.5
515(12) 0.00665 492.1 4.5
497(12) 0.00657 491.9 4.6
538(13) 0.00634 491.8 4.7
514(12) 0.00724 491.6 4.8
509(12) 0.00729 491.5 4.9
480(12) 0.00727 491.3 5.0
478(12) 0.00668 491.2 5.1
469(11) 0.00757 491.0 5.3
481(11) 0.00774 490.9 5.4
484(11) 0.00764 490.7 5.6
511(12) 0.00672 490.6 5.8
494(12) 0.00673 490.4 6.0
491(12) 0.00701 490.3 6.2
493(12) 0.00752 490.1 6.5
483(12) 0.00745 490.0 6.7
499(12) 0.00694 489.8 7.0
458(12) 0.00735 489.6 7.3
489(12) 0.00705 489.5 7.7
503(12) 0.00735 489.3 8.1
490(12) 0.00736 489.2 8.6
485(12) 0.00731 489.0 9.1
477(12) 0.00724 488.9 9.6
500(12) 0.00700 488.7 11.1
490(11) 0.00761 488.6 11.8
529(12) 0.00679 488.4 12.7
521(12) 0.00674 488.3 13.6
497(12) 0.00695 488.1 14.6
502(12) 0.00710 488.0 15.8
488(11) 0.00762 487.8 17.1
473(12) 0.00741 487.6 18.6
495(12) 0.00693 487.5 20.2
524(12) 0.00649 487.3 22.0
519(12) 0.00678 487.2 23.9
515(12) 0.00719 487.0 26.0
483(12) 0.00717 486.9 28.2
516(13) 0.00640 486.7 30.6
490(12) 0.00713 486.6 33.2
507(12) 0.00700 486.4 35.9
516(12) 0.00718 486.3 38.7
490(12) 0.00679 486.1 41.5
507(12) 0.00651 486.0 44.4
531(13) 0.00628 485.8 47.2
518(12) 0.00700 485.7 49.9
500(12) 0.00737 485.5 52.5
522(12) 0.00656 485.3 54.7
520(13) 0.00636 485.2 56.7
510(12) 0.00669 485.0 58.2
515(12) 0.00707 484.9 59.2
546(12) 0.00673 484.7 59.7
499(12) 0.00690 484.6 59.7
511(13) 0.00620 484.4 59.3
521(12) 0.00662 484.3 58.5
523(12) 0.00700 484.1 57.5
512(12) 0.00696 484.0 56.3
517(12) 0.00672 483.8 55.1
529(13) 0.00605 483.7 53.8
484(12) 0.00701 483.5 52.8
476(11) 0.00779 483.4 51.9
536(12) 0.00665 483.2 51.4
517(12) 0.00688 483.0 51.2
519(13) 0.00619 482.9 51.7
520(12) 0.00657 482.7 52.9
499(12) 0.00727 482.6 55.2
533(12) 0.00685 482.4 59.2
559(13) 0.00618 482.3 65.8
556(13) 0.00600 482.1 76.4
595(13) 0.00585 482.0 92.8
598(13) 0.00613 481.8 116.8
626(13) 0.00572 481.7 150.2
640(14) 0.00542 481.5 193.5
695(15) 0.00474 481.4 245.1
700(14) 0.00485 481.2 300.6
766(14) 0.00483 481.0 351.8
840(15) 0.00420 480.9 386.5
873(16) 0.00385 480.7 394.6
885(16) 0.00385 480.6 376.4
819(15) 0.00431 480.4 343.2
763(14) 0.00490 480.3 309.0
668(14) 0.00524 480.1 284.6
700(14) 0.00491 480.0 276.8
708(14) 0.00490 479.8 289.4
754(15) 0.00461 479.7 323.4
803(15) 0.00466 479.5 377.3
876(16) 0.00398 479.4 447.6
993(17) 0.003386 479.2 528.2
1060(17) 0.003295 479.1 609.4
1225(19) 0.002888 478.9 677.4
1265(18) 0.002943 478.7 716.3
1278(19) 0.002707 478.6 714.1
1118(18) 0.003058 478.4 670.8
1080(18) 0.003263 478.3 597.8
970(16) 0.00384 478.1 510.6
886(16) 0.00414 478.0 421.8
801(15) 0.00421 477.8 339.8
753(15) 0.00439 477.7 268.6
691(14) 0.00506 477.5 210.1
654(13) 0.00565 477.4 163.9
610(13) 0.00611 477.2 128.8
597(13) 0.00580 477.1 102.8
567(13) 0.00574 476.9 83.8
521(12) 0.00651 476.8 70.0
533(12) 0.00680 476.6 60.7
542(12) 0.00692 476.4 53.1
563(13) 0.00614 476.3 47.2
503(12) 0.00655 476.1 42.6
489(12) 0.00730 476.0 38.8
506(12) 0.00738 475.8 35.6
513(12) 0.00720 475.7 32.8
557(13) 0.00627 475.5 30.5
528(13) 0.00600 475.4 28.4
492(12) 0.00701 475.2 26.6
505(12) 0.00744 475.1 25.1
479(12) 0.00752 474.9 23.7
481(12) 0.00716 474.8 22.4
493(12) 0.00673 474.6 21.4
505(12) 0.00686 474.4 20.4
511(12) 0.00732 474.3 19.5
495(12) 0.00739 474.1 18.7
470(12) 0.00741 474.0 18.0
474(12) 0.00718 473.8 17.4
472(12) 0.00747 473.7 16.9
471(11) 0.00784 473.5 16.4
486(12) 0.00729 473.4 16.0
501(12) 0.00676 473.2 15.6
466(12) 0.00726 473.1 15.2
471(12) 0.00749 472.9 14.9
470(11) 0.00793 472.8 14.7
472(12) 0.00734 472.6 14.4
481(12) 0.00724 472.5 14.2
480(12) 0.00720 472.3 14.1
481(12) 0.00731 472.1 13.9
498(12) 0.00744 472.0 13.8
475(12) 0.00742 471.8 13.7
452(12) 0.00730 471.7 13.7
462(12) 0.00736 471.5 13.6
463(11) 0.00781 471.4 13.6
498(12) 0.00751 471.2 13.6
471(12) 0.00741 471.1 13.7
501(12) 0.00685 470.9 13.7
464(11) 0.00766 470.8 13.8
472(11) 0.00763 470.6 13.9
485(11) 0.00769 470.5 14.1
483(12) 0.00701 470.3 14.2
458(12) 0.00718 470.2 14.4
476(12) 0.00735 470.0 14.6
477(11) 0.00768 469.8 14.8
492(11) 0.00761 469.7 15.1
463(12) 0.00756 469.5 15.3
471(12) 0.00676 469.4 15.5
468(12) 0.00725 469.2 15.9
475(11) 0.00768 469.1 16.2
427(11) 0.00857 468.9 16.6
473(12) 0.00749 468.8 17.1
470(12) 0.00696 468.6 17.5
466(12) 0.00749 468.5 18.0
473(11) 0.00775 468.3 18.6
476(11) 0.00782 468.2 19.2
463(12) 0.00756 468.0 19.8
465(12) 0.00705 467.8 20.5
470(12) 0.00747 467.7 21.3
461(11) 0.00793 467.5 22.1
489(11) 0.00759 467.4 23.0
474(12) 0.00741 467.2 24.0
481(12) 0.00703 467.1 25.1
472(12) 0.00753 466.9 26.2
493(12) 0.00753 466.8 27.5
478(11) 0.00767 466.6 28.8
472(12) 0.00727 466.5 30.3
478(12) 0.00705 466.3 32.0
493(12) 0.00695 466.2 33.8
494(11) 0.00760 466.0 35.8
500(12) 0.00720 465.9 38.0
481(12) 0.00706 465.7 40.4
491(12) 0.00670 465.5 43.1
499(12) 0.00713 465.4 46.2
505(12) 0.00736 465.2 49.5
499(12) 0.00728 465.1 53.4
506(12) 0.00674 464.9 57.7
527(12) 0.00661 464.8 62.6
513(12) 0.00704 464.6 68.4
504(12) 0.00745 464.5 75.1
538(12) 0.00641 464.3 83.2
521(12) 0.00659 464.2 93.1
557(13) 0.00611 464.0 105.5
563(13) 0.00631 463.9 121.4
564(12) 0.00659 463.7 142.1
614(14) 0.00544 463.6 169.2
647(14) 0.00508 463.4 204.8
664(14) 0.00515 463.2 251.1
693(14) 0.00517 463.1 310.5
748(14) 0.00497 462.9 384.8
873(16) 0.00399 462.8 475.5
991(17) 0.003359 462.6 582.6
1136(18) 0.003004 462.5 704.5
1262(19) 0.002902 462.3 837.2
1459(20) 0.002561 462.2 972.9
1653(22) 0.002076 462.0 1099.3
1763(23) 0.001869 461.9 1199.8
1828(23) 0.001882 461.7 1256.6
1706(22) 0.002157 461.6 1257.5
1601(21) 0.002314 461.4 1202.4
1482(21) 0.002345 461.2 1103.6
1382(21) 0.002372 461.1 979.1
1264(19) 0.002727 460.9 845.6
1159(18) 0.003213 460.8 715.1
1065(17) 0.003462 460.6 595.6
925(16) 0.00374 460.5 491.1
834(16) 0.00388 460.3 403.4
847(16) 0.00408 460.2 332.3
795(15) 0.00468 460.0 276.6
737(14) 0.00488 459.9 234.5
718(14) 0.00476 459.7 203.9
701(15) 0.00474 459.6 183.0
696(14) 0.00508 459.4 170.1
676(13) 0.00554 459.3 164.5
715(14) 0.00509 459.1 165.8
703(14) 0.00491 458.9 174.7
698(14) 0.00485 458.8 192.3
696(14) 0.00499 458.6 220.2
762(14) 0.00488 458.5 260.2
826(15) 0.00436 458.3 313.8
856(16) 0.00406 458.2 381.6
903(16) 0.00375 458.0 462.5
965(17) 0.00357 457.9 553.5
1078(17) 0.003441 457.7 648.0
1219(18) 0.002976 457.6 735.0
1299(19) 0.002686 457.4 799.3
1362(20) 0.002467 457.3 825.6
1363(20) 0.002613 457.1 805.9
1360(19) 0.002739 457.0 745.2
1192(18) 0.002935 456.8 658.0
1035(18) 0.003245 456.6 559.8
908(16) 0.00375 456.5 462.8
786(15) 0.00454 456.3 374.2
712(14) 0.00519 456.2 298.0
643(14) 0.00549 456.0 235.3
656(14) 0.00495 455.9 185.9
581(13) 0.00587 455.7 148.1
582(13) 0.00627 455.6 119.9
561(12) 0.00666 455.4 99.1
513(12) 0.00672 455.3 83.9
538(13) 0.00605 455.1 72.5
532(12) 0.00650 455.0 63.9
517(12) 0.00715 454.8 57.1
476(11) 0.00781 454.6 51.6
488(12) 0.00722 454.5 47.1
490(12) 0.00681 454.3 43.2
491(12) 0.00711 454.2 39.9
474(11) 0.00768 454.0 37.0
474(11) 0.00784 453.9 34.4
484(12) 0.00737 453.7 32.1
483(12) 0.00676 453.6 30.0
465(12) 0.00756 453.4 28.2
468(11) 0.00787 453.3 26.5
518(12) 0.00719 453.1 25.0
524(12) 0.00669 453.0 23.6
470(12) 0.00703 452.8 22.4
464(11) 0.00768 452.7 21.2
476(11) 0.00779 452.5 20.2
480(11) 0.00776 452.3 19.2
441(11) 0.00782 452.2 18.3
468(12) 0.00672 452.0 17.5
465(12) 0.00719 451.9 16.7
443(11) 0.00839 451.7 16.0
456(11) 0.00802 451.6 15.3
481(12) 0.00696 451.4 14.7
455(12) 0.00719 451.3 14.1
443(11) 0.00783 451.1 13.6
456(11) 0.00828 451.0 13.1
490(12) 0.00722 450.8 12.6
464(11) 0.00766 450.7 12.2
468(12) 0.00731 450.5 11.7
468(12) 0.00742 450.4 11.3
446(11) 0.00839 450.2 11.0
457(11) 0.00766 450.0 10.6
458(11) 0.00763 449.9 10.3
472(12) 0.00720 449.7 10.0
459(11) 0.00774 449.6 9.7
461(11) 0.00810 449.4 9.4
449(11) 0.00790 449.3 9.1
462(12) 0.00719 449.1 8.8
459(11) 0.00762 449.0 8.6
453(12) 0.00747 448.8 8.3
431(11) 0.00863 448.7 8.1
445(11) 0.00807 448.5 7.9
444(11) 0.00789 448.4 7.7
448(11) 0.00780 448.2 7.5
438(11) 0.00825 448.0 7.3
431(11) 0.00865 447.9 7.1
480(12) 0.00733 447.7 7.0
478(12) 0.00711 447.6 6.8
448(11) 0.00797 447.4 6.6
456(11) 0.00809 447.3 6.5
472(11) 0.00787 447.1 6.3
452(11) 0.00778 447.0 6.2
445(12) 0.00740 446.8 6.1
449(11) 0.00779 446.7 5.9
440(11) 0.00843 446.5 5.8
451(11) 0.00831 446.4 5.7
450(11) 0.00782 446.2 5.6
449(12) 0.00711 446.1 5.6
434(11) 0.00803 445.9 5.5
459(11) 0.00800 445.7 5.4
454(11) 0.00818 445.6 5.3
431(11) 0.00840 445.4 5.2
466(12) 0.00686 445.3 5.1
468(12) 0.00734 445.1 5.0
429(11) 0.00860 445.0 4.9
440(11) 0.00836 444.8 4.9
413(11) 0.00846 444.7 4.8
433(11) 0.00771 444.5 4.7
455(11) 0.00780 444.4 4.7
449(11) 0.00836 444.2 4.6
475(11) 0.00766 444.1 4.6
466(11) 0.00762 443.9 4.5
451(12) 0.00737 443.7 4.4
453(11) 0.00776 443.6 4.4
472(11) 0.00787 443.4 4.3
446(11) 0.00818 443.3 4.3
430(11) 0.00829 443.1 4.2
438(11) 0.00764 443.0 4.2
430(11) 0.00802 442.8 4.7
433(11) 0.00856 442.7 4.6
441(11) 0.00806 442.5 4.6
444(11) 0.00792 442.4 4.5
451(12) 0.00750 442.2 4.5
426(11) 0.00827 442.1 4.5
439(11) 0.00845 441.9 4.4
465(11) 0.00758 441.8 4.4
430(11) 0.00790 441.6 4.4
434(11) 0.00794 441.4 4.3
427(11) 0.00834 441.3 4.3
426(11) 0.00872 441.1 4.3
437(11) 0.00780 441.0 4.2
404(11) 0.00814 440.8 4.2
423(11) 0.00789 440.7 4.2
446(11) 0.00791 440.6 4.2
458(11) 0.00807 440.5 4.2
430(11) 0.00804 440.3 4.1
448(11) 0.00765 440.2 4.1
476(12) 0.00723 440.1 4.1
459(11) 0.00781 440.0 4.1
453(11) 0.00827 439.8 4.1
427(11) 0.00838 439.7 4.1
442(12) 0.00733 439.6 4.0
436(11) 0.00793 439.5 4.0
449(11) 0.00821 439.3 4.0
445(11) 0.00840 439.2 4.0
433(11) 0.00808 439.1 4.0
437(12) 0.00755 438.9 4.0
437(11) 0.00792 438.8 4.0
419(11) 0.00889 438.7 4.0
443(11) 0.00834 438.6 4.0
439(11) 0.00781 438.4 4.0
423(11) 0.00794 438.3 4.0
439(11) 0.00809 438.2 4.0
449(11) 0.00827 438.1 4.0
440(11) 0.00836 437.9 4.0
450(11) 0.00779 437.8 4.1
425(11) 0.00806 437.7 4.1
429(11) 0.00828 437.5 4.2
426(11) 0.00886 437.4 4.2
448(11) 0.00809 437.3 4.2
453(12) 0.00738 437.2 4.2
443(12) 0.00741 437.0 4.3
446(12) 0.00745 436.9 4.3
436(11) 0.00852 436.8 4.3
451(11) 0.00802 436.7 4.4
423(11) 0.00799 436.5 4.4
423(11) 0.00808 436.4 4.5
429(11) 0.00800 436.3 4.5
439(11) 0.00854 436.2 4.6
422(11) 0.00845 436.0 4.7
431(11) 0.00800 435.9 4.8
470(12) 0.00695 435.8 4.9
464(12) 0.00755 435.6 5.0
418(11) 0.00888 435.5 5.1
425(11) 0.00850 435.4 5.3
463(12) 0.00726 435.3 5.5
418(11) 0.00820 435.1 5.7
421(11) 0.00814 435.0 5.9
458(11) 0.00812 434.9 6.2
428(11) 0.00829 434.8 6.5
452(12) 0.00746 434.6 7.0
458(12) 0.00736 434.5 7.5
426(11) 0.00863 434.4 8.3
421(11) 0.00882 434.2 9.4
443(11) 0.00761 434.1 11.2
436(11) 0.00798 434.0 14.3
462(12) 0.00753 433.9 19.6
458(11) 0.00776 433.7 28.1
437(11) 0.00847 433.6 40.9
487(12) 0.00698 433.5 58.3
481(12) 0.00691 433.4 79.3
512(12) 0.00694 433.2 100.8
547(12) 0.00663 433.1 117.7
545(12) 0.00686 433.0 123.8
576(13) 0.00594 432.9 116.3
533(13) 0.00614 432.7 98.6
518(12) 0.00676 432.6 76.9
478(11) 0.00793 432.5 56.3
467(11) 0.00785 432.3 39.5
454(11) 0.00759 432.2 27.3
441(12) 0.00699 432.1 19.2
434(11) 0.00792 432.0 14.3
465(11) 0.00797 431.8 11.5
457(11) 0.00818 431.7 9.8
460(12) 0.00750 431.6 8.8
465(12) 0.00696 431.5 8.2
446(11) 0.00790 431.3 7.7
416(11) 0.00907 431.2 7.4
444(11) 0.00818 431.1 7.1
429(11) 0.00794 431.0 6.9
428(12) 0.00752 430.8 6.7
443(11) 0.00792 430.7 6.6
459(11) 0.00810 430.6 6.5
442(11) 0.00819 430.4 6.4
418(11) 0.00833 430.3 6.4
447(12) 0.00744 430.2 6.3
454(12) 0.00753 430.1 6.3
417(11) 0.00903 429.9 6.3
454(11) 0.00795 429.8 6.3
455(12) 0.00753 429.7 6.3
438(11) 0.00762 429.6 6.4
416(11) 0.00793 429.4 6.4
417(11) 0.00896 429.3 6.5
458(11) 0.00760 429.2 6.5
450(12) 0.00744 429.0 6.6
424(11) 0.00796 428.9 6.5
431(11) 0.00820 428.8 6.6
441(11) 0.00842 428.7 6.7
400(11) 0.00886 428.5 6.8
454(12) 0.00742 428.4 7.0
439(11) 0.00801 428.3 7.1
443(11) 0.00830 428.2 7.2
438(11) 0.00837 428.0 7.4
439(11) 0.00795 427.9 7.6
452(12) 0.00722 427.8 7.7
430(11) 0.00800 427.7 7.9
431(11) 0.00842 427.5 8.1
443(11) 0.00840 427.4 8.3
442(11) 0.00774 427.3 8.6
440(12) 0.00741 427.1 8.8
440(11) 0.00792 427.0 9.1
475(11) 0.00766 426.9 9.4
461(11) 0.00809 426.8 9.8
424(11) 0.00825 426.6 10.1
452(12) 0.00713 426.5 10.5
450(11) 0.00775 426.4 10.9
428(11) 0.00856 426.3 11.4
460(11) 0.00808 426.1 11.9
442(11) 0.00783 426.0 12.5
478(12) 0.00662 425.9 13.1
466(12) 0.00753 425.7 13.8
431(11) 0.00872 425.6 14.6
437(11) 0.00844 425.5 15.5
425(11) 0.00827 425.4 16.5
444(12) 0.00725 425.2 17.7
430(11) 0.00839 425.1 19.1
440(11) 0.00842 425.0 20.8
477(11) 0.00768 424.9 22.9
444(11) 0.00784 424.7 25.6
464(12) 0.00699 424.6 29.0
468(12) 0.00732 424.5 33.4
455(11) 0.00821 424.4 39.0
482(11) 0.00761 424.2 46.2
499(12) 0.00689 424.1 55.2
487(12) 0.00688 424.0 66.3
474(12) 0.00741 423.8 79.6
494(11) 0.00756 423.7 95.2
535(12) 0.00681 423.6 112.9
548(13) 0.00638 423.5 132.1
553(13) 0.00619 423.3 151.9
561(13) 0.00614 423.2 170.6
595(13) 0.00619 423.1 186.3
652(13) 0.00552 423.0 196.5
640(14) 0.00542 422.8 199.2
673(14) 0.00506 422.7 194.0
654(14) 0.00541 422.6 182.1
580(13) 0.00640 422.5 165.7
528(12) 0.00669 422.3 147.0
561(13) 0.00616 422.2 128.1
517(12) 0.00670 422.1 110.3
492(12) 0.00713 421.9 94.3
516(12) 0.00724 421.8 80.5
473(12) 0.00733 421.7 69.1
449(12) 0.00724 421.6 59.9
478(12) 0.00703 421.4 52.8
460(11) 0.00765 421.3 47.6
453(11) 0.00826 421.2 43.9
472(12) 0.00735 421.1 41.5
464(12) 0.00736 420.9 40.2
471(12) 0.00736 420.8 39.8
459(11) 0.00787 420.7 40.1
450(11) 0.00825 420.5 41.2
473(12) 0.00713 420.4 43.0
451(12) 0.00747 420.3 45.4
460(12) 0.00746 420.2 48.6
455(11) 0.00794 420.0 52.5
492(12) 0.00748 419.9 57.2
492(12) 0.00690 419.8 62.7
480(12) 0.00674 419.7 69.1
483(12) 0.00703 419.5 76.4
525(12) 0.00709 419.4 84.6
495(12) 0.00742 419.3 93.7
505(12) 0.00689 419.2 103.7
520(13) 0.00625 419.0 114.3
541(13) 0.00633 418.9 125.6
568(12) 0.00649 418.8 137.3
603(13) 0.00614 418.6 149.0
610(13) 0.00563 418.5 160.3
602(14) 0.00547 418.4 170.7
623(14) 0.00544 418.3 179.7
638(13) 0.00585 418.1 186.6
656(13) 0.00567 418.0 190.9
633(13) 0.00564 417.9 192.1
636(14) 0.00530 417.8 190.2
590(13) 0.00598 417.6 185.4
611(13) 0.00609 417.5 178.0
574(13) 0.00633 417.4 168.6
562(13) 0.00630 417.2 157.9
576(13) 0.00573 417.1 146.3
549(13) 0.00628 417.0 134.5
562(12) 0.00659 416.9 122.8
529(12) 0.00668 416.7 111.5
533(13) 0.00618 416.6 100.8
502(12) 0.00691 416.5 90.8
501(12) 0.00708 416.4 81.7
507(12) 0.00731 416.2 73.4
491(12) 0.00720 416.1 66.0
490(12) 0.00688 416.0 59.4
484(12) 0.00715 415.9 53.7
458(11) 0.00786 415.7 48.7
448(11) 0.00825 415.6 44.4
455(11) 0.00782 415.5 40.7
442(12) 0.00755 415.3 37.6
446(11) 0.00767 415.2 35.0
454(11) 0.00783 415.1 32.8
470(11) 0.00789 415.0 30.9
460(12) 0.00755 414.8 29.4
453(12) 0.00741 414.7 28.1
463(12) 0.00748 414.6 27.0
461(11) 0.00809 414.5 26.1
433(11) 0.00851 414.3 25.4
428(11) 0.00808 414.2 24.8
428(11) 0.00798 414.1 24.3
430(11) 0.00818 413.9 24.0
443(11) 0.00823 413.8 23.7
446(11) 0.00817 413.7 23.5
440(11) 0.00792 413.6 23.4
444(12) 0.00743 413.4 23.3
406(11) 0.00878 413.3 23.4
441(11) 0.00829 413.2 23.5
411(10) 0.00908 413.1 23.7
414(11) 0.00854 412.9 23.9
434(12) 0.00730 412.8 24.3
412(11) 0.00865 412.7 24.8
456(11) 0.00816 412.6 25.4
440(11) 0.00826 412.4 26.1
410(11) 0.00863 412.3 26.9
400(11) 0.00843 412.2 27.9
410(11) 0.00830 412.0 29.0
399(10) 0.00941 411.9 30.3
432(11) 0.00840 411.8 31.7
432(11) 0.00790 411.7 33.2
433(12) 0.00745 411.5 34.9
412(11) 0.00830 411.4 36.6
406(10) 0.00915 411.3 38.4
442(11) 0.00818 411.2 40.1
436(11) 0.00833 411.0 41.7
445(12) 0.00746 410.9 43.1
443(11) 0.00783 410.8 44.2
437(11) 0.00849 410.7 45.0
464(11) 0.00774 410.5 45.6
477(12) 0.00718 410.4 45.9
435(11) 0.00806 410.3 46.2
447(11) 0.00792 410.1 46.3
461(11) 0.00807 410.0 46.5
451(11) 0.00780 409.9 46.7
448(11) 0.00774 409.8 46.9
462(12) 0.00726 409.6 47.3
421(11) 0.00861 409.5 47.7
471(11) 0.00785 409.4 48.2
426(11) 0.00829 409.3 48.9
447(12) 0.00739 409.1 49.8
458(12) 0.00754 409.0 50.8
430(11) 0.00839 408.9 52.0
442(11) 0.00844 408.7 53.5
432(11) 0.00781 408.6 55.1
446(11) 0.00762 408.5 57.1
460(11) 0.00759 408.4 59.4
470(11) 0.00774 408.2 62.0
439(11) 0.00844 408.1 65.1
456(11) 0.00768 408.0 68.6
447(12) 0.00755 407.9 72.8
460(12) 0.00745 407.7 77.5
481(11) 0.00769 407.6 83.1
472(11) 0.00783 407.5 89.5
466(12) 0.00749 407.4 96.9
490(12) 0.00679 407.2 105.5
484(12) 0.00738 407.1 115.3
503(12) 0.00746 407.0 126.6
502(12) 0.00733 406.8 139.4
517(12) 0.00668 406.7 153.9
532(13) 0.00595 406.6 170.4
532(12) 0.00647 406.5 188.8
566(12) 0.00656 406.3 209.3
613(13) 0.00597 406.2 232.0
603(13) 0.00579 406.1 256.8
649(14) 0.00495 406.0 283.8
664(14) 0.00528 405.8 312.9
702(14) 0.00527 405.7 344.0
706(14) 0.00531 405.6 376.7
779(15) 0.00446 405.4 410.6
800(15) 0.00417 405.3 445.4
856(16) 0.00410 405.2 480.4
893(16) 0.00416 405.1 514.6
913(16) 0.00403 404.9 547.1
924(16) 0.00380 404.8 576.6
1037(18) 0.003145 404.7 601.9
986(17) 0.00354 404.6 621.7
964(16) 0.00385 404.4 634.9
951(16) 0.00376 404.3 640.7
958(17) 0.00358 404.2 638.7
918(16) 0.00370 404.1 629.2
910(16) 0.00382 403.9 612.8
866(15) 0.00429 403.8 590.5
843(15) 0.00420 403.7 563.7
823(16) 0.00405 403.5 533.6
761(15) 0.00459 403.4 501.5
788(15) 0.00452 403.3 468.4
781(14) 0.00477 403.2 435.3
722(14) 0.00485 403.0 402.8
711(14) 0.00483 402.9 371.7
707(14) 0.00491 402.8 342.2
674(14) 0.00528 402.7 314.6
677(13) 0.00551 402.5 289.2
640(13) 0.00554 402.4 266.2
627(14) 0.00539 402.3 245.5
608(13) 0.00573 402.2 227.1
628(13) 0.00573 402.0 211.1
585(13) 0.00636 401.9 197.3
586(13) 0.00584 401.8 185.7
583(13) 0.00579 401.6 176.2
578(13) 0.00596 401.5 168.6
581(13) 0.00622 401.4 162.8
579(13) 0.00635 401.3 158.7
590(13) 0.00567 401.1 156.0
559(13) 0.00592 401.0 154.7
597(13) 0.00586 400.9 154.6
563(12) 0.00653 400.8 155.5
589(13) 0.00633 400.6 157.3
581(13) 0.00604 400.5 159.7
590(14) 0.00542 400.4 162.5
612(13) 0.00555 400.2 165.4
578(13) 0.00640 400.1 168.2
589(13) 0.00628 400.0 170.6
592(13) 0.00575 399.9 172.3
587(13) 0.00550 399.7 172.9
554(12) 0.00654 399.6 172.3
602(13) 0.00621 399.5 170.4
644(13) 0.00569 399.4 167.0
588(13) 0.00604 399.2 162.5
595(14) 0.00545 399.1 157.0
560(13) 0.00629 399.0 150.6
581(12) 0.00642 398.9 143.7
535(12) 0.00678 398.7 136.6
532(12) 0.00658 398.6 129.3
520(13) 0.00635 398.5 122.1
521(12) 0.00660 398.3 115.0
488(11) 0.00759 398.2 108.2
505(12) 0.00710 398.1 101.7
466(12) 0.00720 398.0 95.6
470(12) 0.00714 397.8 89.8
454(11) 0.00763 397.7 84.4
444(11) 0.00818 397.6 79.4
464(11) 0.00773 397.5 74.8
460(12) 0.00718 397.3 70.5
458(12) 0.00726 397.2 66.6
476(12) 0.00735 397.1 63.0
459(11) 0.00804 396.9 59.6
472(11) 0.00774 396.8 56.5
433(11) 0.00812 396.7 53.7
453(11) 0.00760 396.6 51.0
487(12) 0.00716 396.4 48.5
452(11) 0.00825 396.3 46.2
418(11) 0.00837 396.2 44.1
441(11) 0.00760 396.1 42.1
462(12) 0.00735 395.9 40.2
428(11) 0.00850 395.8 38.4
423(11) 0.00880 395.7 36.7
420(11) 0.00827 395.6 35.1
466(12) 0.00720 395.4 33.6
449(11) 0.00785 395.3 32.1
447(11) 0.00816 395.2 30.8
393(10) 0.00929 395.0 29.5
425(11) 0.00826 394.9 28.2
405(11) 0.00828 394.8 27.1
426(11) 0.00791 394.7 26.0
433(11) 0.00852 394.5 24.9
432(11) 0.00851 394.4 23.9
402(11) 0.00862 394.3 23.0
401(11) 0.00828 394.2 22.1
429(11) 0.00813 394.0 21.3
438(11) 0.00833 393.9 20.5
426(11) 0.00867 393.8 19.7
404(11) 0.00869 393.7 19.0
406(11) 0.00781 393.5 18.3
418(11) 0.00785 393.4 17.7
380(10) 0.00969 393.3 17.1
388(10) 0.00956 393.1 16.5
397(11) 0.00886 393.0 16.0
410(11) 0.00794 392.9 15.4
394(11) 0.00899 392.8 14.9
409(11) 0.00902 392.6 14.5
427(11) 0.00851 392.5 14.0
414(11) 0.00836 392.4 13.6
416(11) 0.00793 392.3 13.2
425(11) 0.00811 392.1 12.9
407(11) 0.00898 392.0 12.5
392(10) 0.00915 391.9 12.2
388(11) 0.00883 391.7 11.8
398(11) 0.00812 391.6 11.5
393(11) 0.00866 391.5 11.2
390(10) 0.00956 391.4 11.0
420(11) 0.00830 391.2 10.7
399(11) 0.00863 391.1 10.4
357(10) 0.00955 391.0 10.2
397(11) 0.00873 390.9 9.9
401(10) 0.00924 390.7 9.7
410(11) 0.00884 390.6 9.5
427(11) 0.00791 390.5 9.3
390(11) 0.00892 390.4 9.1
416(11) 0.00883 390.2 8.9
391(10) 0.00948 390.1 8.7
420(11) 0.00818 390.0 8.5
460(12) 0.00719 389.8 8.4
434(11) 0.00787 389.7 8.2
410(11) 0.00872 389.6 8.0
396(10) 0.00943 389.5 7.9
395(11) 0.00892 389.3 7.7
388(11) 0.00892 389.2 7.6
387(11) 0.00887 389.1 7.4
389(10) 0.00949 389.0 7.3
382(10) 0.00956 388.8 7.2
384(11) 0.00905 388.7 7.0
412(11) 0.00783 388.6 6.9
368(10) 0.00925 388.4 6.8
368(10) 0.00997 388.3 6.7
388(10) 0.00957 388.2 6.6
390(10) 0.00913 388.1 6.4
371(10) 0.00929 387.9 6.3
404(11) 0.00834 387.8 6.2
391(10) 0.00933 387.7 6.1
386(10) 0.00952 387.6 6.0
388(11) 0.00888 387.4 5.9
386(11) 0.00820 387.3 5.8
400(11) 0.00865 387.2 5.8
410(11) 0.00888 387.1 5.7
395(10) 0.00955 386.9 5.6
406(11) 0.00877 386.8 5.5
409(11) 0.00810 386.7 5.4
389(11) 0.00902 386.5 5.3
370(10) 0.01002 386.4 5.2
397(11) 0.00901 386.3 5.2
380(10) 0.00909 386.2 5.1
405(11) 0.00803 386.0 5.0
412(11) 0.00806 385.9 4.9
387(10) 0.00963 385.8 4.9
394(10) 0.00930 385.7 4.8
379(10) 0.00912 385.5 4.7
389(11) 0.00852 385.4 4.7
404(11) 0.00858 385.3 4.6
380(10) 0.00979 385.2 4.5
399(11) 0.00895 385.0 4.5
380(10) 0.00923 384.9 4.4
379(11) 0.00880 384.8 4.4
361(10) 0.00997 384.6 4.3
387(10) 0.00948 384.5 4.2
388(10) 0.00929 384.4 4.2
391(11) 0.00877 384.3 4.1
389(11) 0.00857 384.1 4.1
383(10) 0.00915 384.0 4.0
389(10) 0.00959 383.9 4.0
401(11) 0.00863 383.8 3.9
367(10) 0.00907 383.6 3.9
377(10) 0.00907 383.5 3.8
384(10) 0.00956 383.4 3.8
405(10) 0.00921 383.2 3.7
379(11) 0.00900 383.1 3.7
392(11) 0.00863 383.0 3.6
396(11) 0.00868 382.9 3.6
380(10) 0.00954 382.7 3.6
373(10) 0.00997 382.6 3.5
385(11) 0.00895 382.5 3.5
404(11) 0.00829 382.4 3.4
404(11) 0.00892 382.2 3.4
394(10) 0.00931 382.1 3.4
396(10) 0.00945 382.0 3.3
401(11) 0.00894 381.9 3.3
390(11) 0.00853 381.7 3.2
380(10) 0.00932 381.6 3.2
383(10) 0.00962 381.5 3.2
362(10) 0.01038 381.3 3.1
372(10) 0.00949 381.2 3.1
368(11) 0.00877 381.1 3.1
383(10) 0.00915 381.0 3.0
380(10) 0.00983 380.8 3.0
390(10) 0.00959 380.7 3.0
374(10) 0.00941 380.6 2.9
418(12) 0.00753 380.5 2.9
380(11) 0.00906 380.3 2.9
392(10) 0.00940 380.2 2.9
409(11) 0.00894 380.1 2.8
404(11) 0.00871 379.9 2.8
396(11) 0.00848 379.8 2.8
403(11) 0.00876 379.7 2.7
378(10) 0.00990 379.6 2.7
413(11) 0.00874 379.4 2.7
396(11) 0.00879 379.3 2.7
396(11) 0.00827 379.2 2.6
385(10) 0.00909 379.1 2.6
372(10) 0.01003 378.9 2.6
408(11) 0.00879 378.8 2.6
372(10) 0.00957 378.7 2.6
372(11) 0.00874 378.7 2.6
378(11) 0.00906 378.6 2.5
394(10) 0.00943 378.5 2.5
418(11) 0.00842 378.4 2.5
389(11) 0.00892 378.3 2.5
386(11) 0.00893 378.2 2.5
371(10) 0.00928 378.2 2.4
359(10) 0.01034 378.1 2.4
375(10) 0.00938 378.0 2.4
397(11) 0.00837 377.9 2.4
384(11) 0.00899 377.8 2.4
350(10) 0.01039 377.7 2.3
353(10) 0.01051 377.7 2.3
398(11) 0.00894 377.6 2.3
379(10) 0.00911 377.5 2.3
352(10) 0.01002 377.4 2.3
367(10) 0.00977 377.3 2.2
391(10) 0.00955 377.2 2.2
381(11) 0.00889 377.2 2.2
376(10) 0.00921 377.1 2.2
377(10) 0.00944 377.0 2.2
376(10) 0.00961 376.9 2.2
378(10) 0.00978 376.8 2.2
368(10) 0.00950 376.7 2.1
349(10) 0.00945 376.7 2.1
384(11) 0.00889 376.6 2.1
386(10) 0.00947 376.5 2.1
372(10) 0.01005 376.4 2.1
368(11) 0.00874 376.3 2.1
366(11) 0.00868 376.2 2.0
392(11) 0.00885 376.2 2.0
389(10) 0.00943 376.1 2.0
356(10) 0.01050 376.0 2.0
371(10) 0.00946 375.9 2.0
357(10) 0.00940 375.8 2.0
387(11) 0.00899 375.7 2.0
373(10) 0.01004 375.6 2.0
403(10) 0.00910 375.6 1.9
371(10) 0.00969 375.5 1.9
373(11) 0.00893 375.4 1.9
404(11) 0.00841 375.3 1.9
379(10) 0.00977 375.2 1.9
382(10) 0.00949 375.1 1.9
380(10) 0.00933 375.1 1.9
367(10) 0.00946 375.0 1.9
398(11) 0.00886 374.9 1.8
373(10) 0.00998 374.8 1.8
366(10) 0.00962 374.7 1.8
353(10) 0.00972 374.6 1.8
363(10) 0.00933 374.6 1.8
394(11) 0.00875 374.5 1.8
409(10) 0.00909 374.4 1.8
391(10) 0.00909 374.3 1.8
397(11) 0.00840 374.2 1.8
392(11) 0.00870 374.1 1.8
404(11) 0.00863 374.1 1.7
373(10) 0.00987 374.0 1.7
382(11) 0.00904 373.9 1.7
355(10) 0.00949 373.8 1.7
362(10) 0.00937 373.7 1.7
406(11) 0.00883 373.6 1.7
388(10) 0.00960 373.6 1.7
397(11) 0.00901 373.5 1.7
392(11) 0.00872 373.4 1.7
406(11) 0.00857 373.3 1.7
387(10) 0.00933 373.2 1.7
379(10) 0.00978 373.1 1.7
376(10) 0.00912 373.1 1.7
369(11) 0.00902 373.0 1.7
376(10) 0.00933 372.9 1.7
385(10) 0.00939 372.8 1.7
397(10) 0.00944 372.7 1.6
376(10) 0.00939 372.6 1.6
375(11) 0.00870 372.6 1.6
361(10) 0.00975 372.5 1.6
374(10) 0.00957 372.4 1.6
394(10) 0.00947 372.3 1.6
379(10) 0.00923 372.2 1.6
418(11) 0.00762 372.1 1.6
381(10) 0.00935 372.1 1.6
381(10) 0.00976 372.0 1.6
389(10) 0.00953 371.9 1.6
402(11) 0.00830 371.8 1.6
372(11) 0.00868 371.7 1.6
364(10) 0.00919 371.6 1.6
373(10) 0.00982 371.6 1.6
377(10) 0.01000 371.5 1.6
382(11) 0.00897 371.4 1.6
372(11) 0.00883 371.3 1.6
363(10) 0.00968 371.2 1.6
370(10) 0.01010 371.1 1.6
370(10) 0.00990 371.0 1.6
368(10) 0.00926 371.0 1.6
370(11) 0.00883 370.9 1.6
387(11) 0.00880 370.8 1.6
377(10) 0.00980 370.7 1.6
354(10) 0.01043 370.6 1.6
373(10) 0.00930 370.5 1.6
377(11) 0.00904 370.5 1.6
392(11) 0.00890 370.4 1.6
378(10) 0.00973 370.3 1.6
382(10) 0.00923 370.2 1.6
366(10) 0.00955 370.1 1.6
381(11) 0.00880 370.0 1.6
367(10) 0.00948 370.0 1.6
407(11) 0.00904 369.9 1.6
363(10) 0.00978 369.8 1.6
362(10) 0.00960 369.7 1.6
383(11) 0.00894 369.6 1.6
381(10) 0.00920 369.5 1.6
417(11) 0.00888 369.5 1.6
385(10) 0.00937 369.4 1.7
363(10) 0.00945 369.3 1.7
365(10) 0.00924 369.2 1.7
359(10) 0.00999 369.1 1.7
390(10) 0.00961 369.0 1.7
368(10) 0.00955 369.0 1.7
373(11) 0.00885 368.9 1.7
351(10) 0.01013 368.8 1.8
376(10) 0.00990 368.7 1.8
371(10) 0.01002 368.6 1.8
364(10) 0.00974 368.5 1.9
360(10) 0.00937 368.5 1.9
367(10) 0.00921 368.4 2.0
366(10) 0.00986 368.3 2.0
378(10) 0.00997 368.2 2.1
377(10) 0.00907 368.1 2.1
367(11) 0.00882 368.0 2.2
390(11) 0.00879 368.0 2.4
373(10) 0.00996 367.9 2.5
351(10) 0.01061 367.8 2.7
361(10) 0.00967 367.7 3.0
371(11) 0.00846 367.6 3.4
367(10) 0.00961 367.5 4.0
379(10) 0.00955 367.5 5.1
375(10) 0.01009 367.4 6.8
417(11) 0.00818 367.3 9.1
400(11) 0.00849 367.2 12.4
376(10) 0.00937 367.1 16.3
401(10) 0.00925 367.0 20.5
394(10) 0.00933 367.0 24.3
413(11) 0.00821 366.9 26.5
398(11) 0.00839 366.8 26.3
405(11) 0.00868 366.7 23.7
377(10) 0.00987 366.6 19.8
381(10) 0.00946 366.5 15.6
389(11) 0.00897 366.4 11.8
371(10) 0.00917 366.4 8.7
390(11) 0.00859 366.3 6.5
345(10) 0.01076 366.2 5.0
334(10) 0.01084 366.1 4.1
379(11) 0.00897 366.0 3.5
367(10) 0.00928 365.9 3.1
391(11) 0.00876 365.9 2.9
374(10) 0.00999 365.8 2.8
374(10) 0.00965 365.7 2.7
353(10) 0.00949 365.6 2.6
375(11) 0.00893 365.5 2.5
363(10) 0.00970 365.4 2.5
361(10) 0.01026 365.4 2.5
339(10) 0.01035 365.3 2.5
373(10) 0.00917 365.2 2.5
360(10) 0.00996 365.1 2.5
373(10) 0.00963 365.0 2.5
358(10) 0.01038 364.9 2.5
357(10) 0.00944 364.9 2.5
363(10) 0.00957 364.8 2.6
385(10) 0.00921 364.7 2.6
363(10) 0.00985 364.6 2.6
375(10) 0.00983 364.5 2.7
347(10) 0.01018 364.4 2.8
384(11) 0.00865 364.4 2.8
379(10) 0.00928 364.3 2.9
358(10) 0.01031 364.2 3.0
358(10) 0.01027 364.1 3.1
363(10) 0.00948 364.0 3.1
354(11) 0.00906 363.9 3.2
348(10) 0.00975 363.9 3.3
341(10) 0.01083 363.8 3.5
344(10) 0.01096 363.7 3.6
400(11) 0.00847 363.6 3.7
377(11) 0.00853 363.5 3.8
388(11) 0.00890 363.4 4.0
341(10) 0.01076 363.4 4.1
392(10) 0.00924 363.3 4.3
353(10) 0.00959 363.2 4.4
384(11) 0.00834 363.1 4.6
360(10) 0.00967 363.0 4.8
362(10) 0.01031 362.9 4.9
366(10) 0.01010 362.9 5.1
350(10) 0.01019 362.8 5.3
388(11) 0.00859 362.7 5.5
404(11) 0.00855 362.6 5.7
368(10) 0.01016 362.5 5.9
387(10) 0.00932 362.4 6.1
411(11) 0.00820 362.4 6.3
367(10) 0.00935 362.3 6.5
389(11) 0.00900 362.2 6.8
396(10) 0.00947 362.1 7.0
389(10) 0.00925 362.0 7.2
382(11) 0.00893 361.9 7.4
366(10) 0.00921 361.8 7.6
357(10) 0.00972 361.8 7.8
359(10) 0.01041 361.7 8.0
368(10) 0.00952 361.6 8.1
380(11) 0.00869 361.5 8.3
361(10) 0.00955 361.4 8.4
395(11) 0.00883 361.3 8.6
372(10) 0.00993 361.3 8.7
380(10) 0.00935 361.2 8.8
389(11) 0.00880 361.1 8.9
354(10) 0.01013 361.0 8.9
373(10) 0.00948 360.9 8.9
389(10) 0.00951 360.8 9.0
380(10) 0.00919 360.8 8.9
385(11) 0.00898 360.7 8.9
394(11) 0.00847 360.6 8.9
384(10) 0.00938 360.5 8.8
383(10) 0.00982 360.4 8.7
376(10) 0.00934 360.3 8.6
382(11) 0.00874 360.3 8.5
373(10) 0.00910 360.2 8.4
355(10) 0.01044 360.1 8.2
364(10) 0.01013 360.0 8.1
379(10) 0.00928 359.9 8.0
383(11) 0.00861 359.8 7.8
376(10) 0.00916 359.8 7.7
380(10) 0.00964 359.7 7.6
380(10) 0.00966 359.6 7.4
354(10) 0.01002 359.5 7.3
379(11) 0.00855 359.4 7.2
394(11) 0.00905 359.3 7.1
371(10) 0.00988 359.3 7.1
393(10) 0.00956 359.2 7.1
383(10) 0.00919 359.1 7.1
354(11) 0.00892 359.0 7.1
374(10) 0.00913 358.9 7.2
363(10) 0.01032 358.8 7.4
365(10) 0.01010 358.8 7.7
341(10) 0.01023 358.7 8.1
362(10) 0.00909 358.6 8.6
370(10) 0.00940 358.5 9.3
349(10) 0.01068 358.4 10.1
360(10) 0.01027 358.3 11.1
370(10) 0.00914 358.3 12.3
344(10) 0.00963 358.2 13.6
358(10) 0.00964 358.1 15.0
368(10) 0.01009 358.0 16.6
351(10) 0.01017 357.9 18.1
380(10) 0.00929 357.8 19.5
368(10) 0.00924 357.8 20.7
372(10) 0.00951 357.7 21.5
367(10) 0.01014 357.6 21.8
376(10) 0.00963 357.5 21.5
360(10) 0.00971 357.4 20.7
367(10) 0.00933 357.3 19.5
372(10) 0.00947 357.2 18.0
347(10) 0.01065 357.2 16.5
355(10) 0.01000 357.1 14.8
360(10) 0.00950 357.0 13.3
363(10) 0.00937 356.9 11.9
384(10) 0.00916 356.8 10.7
373(10) 0.00994 356.7 9.6
375(11) 0.00893 356.7 8.7
344(10) 0.00970 356.6 7.9
335(10) 0.01058 356.5 7.3
390(10) 0.00923 356.4 6.9
374(10) 0.00989 356.3 6.6
381(11) 0.00892 356.2 6.4
368(10) 0.00922 356.2 6.3
377(10) 0.00913 356.1 6.3
350(10) 0.01032 356.0 6.4
355(10) 0.01063 355.9 6.5
363(10) 0.00938 355.8 6.7
350(10) 0.00971 355.7 6.9
362(10) 0.00998 355.7 7.2
398(10) 0.00911 355.6 7.6
356(10) 0.01039 355.5 8.0
342(10) 0.01014 355.4 8.4
346(10) 0.00939 355.3 8.9
340(10) 0.01052 355.2 9.4
359(10) 0.01037 355.2 10.0
383(10) 0.00974 355.1 10.5
355(10) 0.00991 355.0 11.1
354(10) 0.00910 354.9 11.7
372(10) 0.00932 354.8 12.3
358(10) 0.01040 354.7 12.8
358(10) 0.01041 354.7 13.3
380(11) 0.00906 354.6 13.7
368(11) 0.00898 354.5 14.1
357(10) 0.01006 354.4 14.3
356(10) 0.01053 354.3 14.4
347(10) 0.01070 354.2 14.4
347(10) 0.00995 354.2 14.3
371(11) 0.00856 354.1 14.0
372(10) 0.00934 354.0 13.7
377(10) 0.00973 353.9 13.3
399(10) 0.00911 353.8 12.7
360(10) 0.00956 353.7 12.2
367(10) 0.00909 353.7 11.6
354(10) 0.01002 353.6 10.9
341(10) 0.01085 353.5 10.3
373(10) 0.00943 353.4 9.7
375(10) 0.00917 353.3 9.1
363(10) 0.00924 353.2 8.5
338(10) 0.01038 353.2 7.9
359(10) 0.01037 353.1 7.4
372(10) 0.00975 353.0 6.9
351(10) 0.00996 352.9 6.5
377(11) 0.00894 352.8 6.0
385(10) 0.00909 352.7 5.7
376(10) 0.00989 352.6 5.3
344(10) 0.01014 352.6 5.0
336(10) 0.01016 352.5 4.7
361(10) 0.00942 352.4 4.4
342(10) 0.01043 352.3 4.2
364(10) 0.01024 352.2 4.0
370(10) 0.00928 352.1 3.8
380(11) 0.00899 352.1 3.7
331(10) 0.01081 352.0 3.5
354(10) 0.01016 351.9 3.4
376(10) 0.00996 351.8 3.3
360(10) 0.00971 351.7 3.2
350(10) 0.00973 351.6 3.2
360(10) 0.00969 351.6 3.1
354(10) 0.01054 351.5 3.0
348(10) 0.01074 351.4 3.0
350(10) 0.01012 351.3 3.0
363(11) 0.00901 351.2 2.9
347(10) 0.01045 351.1 2.9
351(10) 0.01041 351.1 2.9
347(10) 0.01070 351.0 2.9
376(10) 0.00910 350.9 2.8
352(10) 0.00921 350.8 2.8
359(10) 0.00956 350.7 2.8
356(10) 0.01028 350.6 2.8
356(10) 0.01043 350.6 2.8
366(10) 0.00945 350.5 2.9
357(11) 0.00885 350.4 2.9
342(10) 0.00979 350.3 2.9
330(9) 0.01139 350.2 2.9
338(10) 0.01102 350.1 2.9
356(10) 0.00965 350.1 3.0
365(11) 0.00872 350.0 3.0
343(10) 0.00984 349.9 3.0
355(10) 0.01041 349.8 3.1
365(10) 0.01000 349.7 3.1
345(10) 0.01018 349.6 3.2
354(10) 0.00970 349.6 3.2
337(10) 0.01018 349.5 3.3
357(10) 0.01036 349.4 3.4
357(10) 0.01028 349.3 3.5
349(10) 0.00997 349.2 3.5
318(10) 0.01089 349.1 3.6
332(10) 0.01053 349.1 3.7
326(9) 0.01150 349.0 3.8
326(10) 0.01065 349.0 3.9
347(10) 0.00960 348.9 4.0
335(10) 0.01037 348.9 4.2
348(10) 0.01015 348.8 4.3
352(10) 0.01058 348.8 4.4
369(10) 0.00958 348.7 4.6
349(10) 0.00999 348.6 4.7
389(11) 0.00888 348.6 4.9
365(10) 0.00983 348.5 5.1
348(10) 0.01052 348.5 5.2
353(10) 0.00968 348.4 5.4
349(10) 0.00961 348.4 5.6
352(10) 0.00989 348.3 5.8
346(10) 0.01023 348.3 6.0
332(9) 0.01120 348.2 6.2
362(10) 0.00938 348.2 6.4
357(10) 0.00940 348.1 6.6
335(10) 0.01066 348.0 6.8
342(10) 0.01079 348.0 7.1
361(10) 0.01022 347.9 7.3
364(10) 0.00911 347.9 7.5
331(10) 0.01023 347.8 7.7
374(11) 0.00905 347.8 7.9
364(10) 0.01014 347.7 8.1
359(10) 0.01036 347.7 8.2
346(10) 0.01002 347.6 8.4
358(11) 0.00873 347.6 8.6
355(10) 0.00987 347.5 8.7
355(10) 0.01048 347.4 8.8
316(9) 0.01161 347.4 8.9
360(10) 0.00920 347.3 9.0
364(11) 0.00898 347.3 9.1
349(10) 0.01020 347.2 9.1
356(10) 0.01050 347.2 9.1
356(10) 0.01038 347.1 9.1
386(11) 0.00883 347.1 9.1
355(10) 0.00975 347.0 9.1
377(10) 0.00940 347.0 9.1
359(10) 0.01047 346.9 9.0
353(10) 0.01001 346.8 9.0
340(10) 0.01025 346.8 8.9
342(10) 0.00997 346.7 8.9
367(10) 0.00922 346.7 8.8
353(10) 0.01051 346.6 8.8
339(10) 0.01048 346.6 8.7
349(10) 0.00985 346.5 8.7
370(10) 0.00931 346.5 8.6
347(10) 0.01017 346.4 8.6
322(9) 0.01147 346.4 8.6
336(10) 0.01051 346.3 8.6
361(10) 0.00942 346.2 8.6
364(10) 0.00916 346.2 8.6
346(10) 0.00990 346.1 8.7
363(10) 0.01022 346.1 8.8
352(10) 0.00981 346.0 8.8
372(11) 0.00892 346.0 9.0
368(10) 0.00914 345.9 9.1
343(10) 0.01048 345.9 9.2
342(10) 0.01093 345.8 9.4
362(10) 0.00931 345.8 9.6
355(10) 0.00963 345.7 9.9
364(10) 0.00952 345.6 10.2
358(10) 0.01015 345.6 10.5
353(10) 0.01052 345.5 10.9
347(10) 0.00966 345.5 11.3
350(10) 0.00924 345.4 11.8
358(10) 0.00943 345.4 12.3
374(10) 0.00936 345.3 12.9
360(10) 0.01047 345.3 13.6
370(10) 0.00933 345.2 14.3
347(10) 0.00943 345.2 15.2
352(10) 0.00982 345.1 16.1
384(10) 0.00949 345.0 17.1
366(10) 0.01009 345.0 18.3
350(10) 0.00995 344.9 19.6
359(10) 0.00919 344.9 21.0
370(10) 0.00933 344.8 22.6
351(10) 0.01040 344.8 24.3
366(10) 0.01018 344.7 26.2
366(10) 0.00972 344.7 28.2
373(11) 0.00873 344.6 30.4
375(10) 0.00928 344.6 32.8
377(10) 0.00995 344.5 35.4
352(10) 0.01052 344.4 38.1
371(10) 0.00924 344.4 41.0
390(11) 0.00817 344.3 44.1
408(11) 0.00803 344.3 47.3
424(11) 0.00874 344.2 50.7
418(11) 0.00867 344.2 54.3
410(11) 0.00826 344.1 57.9
381(11) 0.00885 344.1 61.6
412(11) 0.00849 344.0 65.4
437(11) 0.00857 343.9 69.1
424(11) 0.00848 343.9 72.8
420(11) 0.00825 343.8 76.4
435(11) 0.00789 343.8 79.8
410(11) 0.00850 343.7 82.9
435(11) 0.00851 343.7 85.6
436(11) 0.00812 343.6 88.0
438(12) 0.00755 343.6 89.8
425(11) 0.00763 343.5 91.1
432(11) 0.00803 343.5 91.9
449(11) 0.00830 343.4 92.0
422(11) 0.00841 343.3 91.6
445(11) 0.00757 343.3 90.7
456(12) 0.00745 343.2 89.3
418(11) 0.00832 343.2 87.5
459(11) 0.00811 343.1 85.4
433(11) 0.00798 343.1 83.0
414(11) 0.00823 343.0 80.4
408(11) 0.00839 343.0 77.7
425(11) 0.00848 342.9 74.9
433(11) 0.00856 342.9 72.1
404(11) 0.00842 342.8 69.3
423(11) 0.00778 342.7 66.5
424(11) 0.00832 342.7 63.8
403(10) 0.00933 342.6 61.2
425(11) 0.00868 342.6 58.6
380(10) 0.00924 342.5 56.2
406(11) 0.00811 342.5 53.8
408(11) 0.00849 342.4 51.5
385(10) 0.00936 342.4 49.4
374(10) 0.00997 342.3 47.2
379(11) 0.00905 342.3 45.2
357(10) 0.00934 342.2 43.3
409(11) 0.00846 342.1 41.4
396(10) 0.00946 342.1 39.6
373(10) 0.00993 342.0 37.9
382(11) 0.00885 342.0 36.2
380(11) 0.00877 341.9 34.6
416(11) 0.00828 341.9 32.8
386(10) 0.00953 341.8 31.3
346(10) 0.01061 341.8 29.9
358(10) 0.00983 341.7 28.5
388(11) 0.00849 341.7 27.2
358(10) 0.00971 341.6 25.9
366(10) 0.01022 341.5 24.7
348(10) 0.01073 341.5 23.5
338(10) 0.01051 341.4 22.4
381(11) 0.00837 341.4 21.3
376(10) 0.00915 341.3 20.3
354(10) 0.01031 341.3 19.3
383(10) 0.00964 341.2 18.4
380(10) 0.00917 341.2 17.5
353(10) 0.00948 341.1 16.7
367(10) 0.00942 341.1 15.9
380(10) 0.00976 341.0 15.1
331(9) 0.01110 340.9 14.4
367(10) 0.00961 340.9 13.7
364(10) 0.00926 340.8 13.0
347(10) 0.01000 340.8 12.4
354(10) 0.01036 340.7 11.8
351(10) 0.01031 340.7 11.2
338(10) 0.01048 340.6 10.7
349(10) 0.00991 340.6 10.2
355(10) 0.01005 340.5 9.7
327(9) 0.01131 340.5 9.2
338(10) 0.01018 340.4 8.8
335(10) 0.01014 340.3 8.4
343(10) 0.00999 340.3 8.0
356(10) 0.00987 340.2 7.7
367(10) 0.01018 340.2 7.3
338(10) 0.01022 340.1 7.0
362(10) 0.00948 340.1 6.7
343(10) 0.01046 340.0 6.4
345(10) 0.01068 340.0 6.2
329(9) 0.01116 339.9 5.9
349(10) 0.00979 339.9 5.7
342(10) 0.00973 339.8 5.5
352(10) 0.00986 339.7 5.3
351(10) 0.00997 339.7 5.1
348(10) 0.01067 339.6 4.9
360(10) 0.00914 339.6 4.7
357(10) 0.00910 339.5 4.6
359(10) 0.00959 339.5 4.4
350(10) 0.01037 339.4 4.3
346(10) 0.01080 339.4 4.2
361(10) 0.00997 339.3 4.0
350(10) 0.00939 339.2 3.9
338(10) 0.00998 339.2 3.8
348(10) 0.01034 339.1 3.7
340(10) 0.01104 339.1 3.6
346(10) 0.00975 339.0 3.5
330(10) 0.00974 339.0 3.4
360(10) 0.00911 338.9 3.3
350(10) 0.01052 338.9 3.2
349(10) 0.01041 338.8 3.1
328(10) 0.01070 338.8 3.1
366(11) 0.00877 338.7 3.0
354(10) 0.00955 338.6 2.9
362(10) 0.01022 338.6 2.9
329(10) 0.01104 338.5 2.8
376(10) 0.00921 338.5 2.7
346(10) 0.00969 338.4 2.7
332(10) 0.01010 338.4 2.6
352(10) 0.01048 338.3 2.5
360(10) 0.01007 338.3 2.5
328(10) 0.01057 338.2 2.4
363(10) 0.00911 338.2 2.4
345(10) 0.00996 338.1 2.3
320(9) 0.01161 338.0 2.3
332(10) 0.01060 338.0 2.3
323(10) 0.01050 337.9 2.2
329(10) 0.00986 337.9 2.2
324(10) 0.01075 337.8 2.1
344(10) 0.01077 337.8 2.1
330(10) 0.01040 337.7 2.0
343(10) 0.00999 337.7 2.0
333(10) 0.01046 337.6 2.0
333(10) 0.01095 337.6 1.9
338(10) 0.01095 337.5 1.9
324(10) 0.01094 337.4 1.9
334(10) 0.00950 337.4 1.8
300(9) 0.01174 337.3 1.8
341(10) 0.01051 337.3 1.8
332(9) 0.01123 337.2 1.7
349(10) 0.01003 337.2 1.7
354(10) 0.00920 337.1 1.7
344(10) 0.01009 337.1 1.7
342(10) 0.01057 337.0 1.6
327(9) 0.01140 337.0 1.6
335(10) 0.01028 336.9 1.6
322(10) 0.01029 336.8 1.6
328(10) 0.01048 336.8 1.5
336(9) 0.01120 336.7 1.5
333(10) 0.01094 336.7 1.5
330(10) 0.01038 336.6 1.5
351(10) 0.00929 336.6 1.4
341(10) 0.01052 336.5 1.4
337(10) 0.01071 336.5 1.4
340(9) 0.01119 336.4 1.4
346(10) 0.01002 336.4 1.4
338(10) 0.00940 336.3 1.3
352(10) 0.00957 336.2 1.3
324(9) 0.01159 336.2 1.3
340(10) 0.01075 336.1 1.3
352(10) 0.00985 336.1 1.7
335(10) 0.00975 336.0 1.7
335(10) 0.01030 336.0 1.7
324(9) 0.01154 335.9 1.7
365(10) 0.01005 335.9 1.7
331(10) 0.01076 335.8 1.7
351(10) 0.00955 335.8 1.7
358(10) 0.00956 335.7 1.7
324(9) 0.01151 335.6 1.6
350(10) 0.01043 335.6 1.6
380(11) 0.00897 335.5 1.6
320(10) 0.01055 335.5 1.6
339(10) 0.01023 335.4 1.6
340(10) 0.01092 335.4 1.6
340(10) 0.01028 335.3 1.6
341(10) 0.00993 335.3 1.6
335(10) 0.00999 335.2 1.6
321(10) 0.01070 335.2 1.6
337(10) 0.01104 335.1 1.6
334(10) 0.01071 335.0 1.6
359(10) 0.00926 335.0 1.6
351(10) 0.00970 334.9 1.5
319(9) 0.01126 334.9 1.5
333(9) 0.01119 334.8 1.5
345(10) 0.01014 334.8 1.5
348(10) 0.00972 334.7 1.5
333(10) 0.01071 334.7 1.5
347(10) 0.01049 334.6 1.5
335(10) 0.01103 334.5 1.5
341(10) 0.00992 334.5 1.5
324(10) 0.01031 334.4 1.5
341(10) 0.01006 334.4 1.5
357(10) 0.01021 334.3 1.5
339(10) 0.01089 334.3 1.5
328(10) 0.01022 334.2 1.5
335(10) 0.00975 334.2 1.5
354(10) 0.00977 334.2 1.5
332(10) 0.01105 334.2 1.5
314(9) 0.01198 334.2 1.5
330(10) 0.01013 334.2 1.5
327(10) 0.00973 334.2 1.5
342(10) 0.00976 334.3 1.5
333(9) 0.01113 334.3 1.5
337(10) 0.01098 334.3 1.5
324(10) 0.01084 334.3 1.5
308(10) 0.01039 334.3 1.5
335(10) 0.01050 334.4 1.5
336(10) 0.01095 334.4 1.5
337(10) 0.01108 334.4 1.5
340(10) 0.01033 334.4 1.5
328(10) 0.01001 334.5 1.5
333(10) 0.01056 334.5 1.5
335(9) 0.01111 334.5 1.5
342(10) 0.01097 334.5 1.5
330(10) 0.01083 334.5 1.5
334(10) 0.00992 334.6 1.5
321(10) 0.01061 334.6 1.5
343(10) 0.01086 334.6 1.5
326(9) 0.01140 334.6 1.6
362(10) 0.00949 334.6 1.6
343(10) 0.01011 334.7 1.6
362(10) 0.00945 334.7 1.6
350(10) 0.01053 334.7 1.6
326(10) 0.01098 334.7 1.6
350(10) 0.00975 334.8 1.6
329(10) 0.01034 334.8 1.6
346(10) 0.00997 334.8 1.6
342(10) 0.01093 334.8 1.6
335(10) 0.01038 334.8 1.6
338(10) 0.01043 334.9 1.6
337(10) 0.01037 334.9 1.6
333(10) 0.01067 334.9 1.7
350(10) 0.01063 334.9 1.7
339(10) 0.01045 335.0 1.7
352(10) 0.00977 335.0 1.7
350(10) 0.00966 335.0 1.7
337(10) 0.01093 335.0 1.7
359(10) 0.01046 335.0 1.7
335(10) 0.01046 335.1 1.7
337(10) 0.01008 335.1 1.8
343(10) 0.01013 335.1 1.8
357(10) 0.00981 335.1 1.8
341(10) 0.01091 335.1 1.8
339(10) 0.01024 335.2 2.9
345(10) 0.00936 335.2 2.9
346(10) 0.00993 335.2 3.0
344(10) 0.01059 335.2 3.0
359(10) 0.01044 335.3 3.1
339(10) 0.01072 335.3 3.1
356(10) 0.00935 335.3 3.2
368(10) 0.00946 335.3 3.3
307(9) 0.01204 335.3 3.3
322(9) 0.01149 335.4 3.4
356(10) 0.00975 335.4 3.4
351(10) 0.00926 335.4 3.6
351(10) 0.00979 335.4 3.6
353(10) 0.01039 335.5 3.7
327(9) 0.01120 335.5 3.8
330(10) 0.01097 335.5 3.9
359(10) 0.00924 335.5 4.0
357(10) 0.00955 335.5 4.1
353(10) 0.01053 335.6 4.2
333(10) 0.01107 335.6 4.4
339(10) 0.01034 335.6 4.5
349(10) 0.00926 335.6 4.6
338(10) 0.01046 335.6 4.8
345(10) 0.01090 335.7 4.9
347(10) 0.01046 335.7 5.1
366(10) 0.00913 335.7 5.3
350(10) 0.00935 335.7 5.4
345(10) 0.01013 335.8 5.6
360(10) 0.01026 335.8 5.8
350(10) 0.01049 335.8 6.0
343(10) 0.00992 335.8 6.2
350(10) 0.00968 335.8 6.4
379(10) 0.00919 335.9 6.7
354(10) 0.01039 335.9 6.9
341(10) 0.01034 335.9 7.1
346(10) 0.01036 335.9 7.3
350(10) 0.00999 336.0 7.6
352(10) 0.01004 336.0 7.8
384(10) 0.00971 336.0 8.0
345(10) 0.01032 336.0 8.2
352(10) 0.00998 336.0 8.4
375(10) 0.00923 336.1 8.6
353(10) 0.01022 336.1 8.8
378(10) 0.00977 336.1 9.0
309(9) 0.01139 336.1 9.2
345(10) 0.00943 336.1 9.4
340(10) 0.01007 336.2 9.6
346(10) 0.01034 336.2 9.8
348(10) 0.01071 336.2 10.1
348(10) 0.01010 336.2 10.3
346(10) 0.00968 336.3 10.6
361(10) 0.00966 336.3 11.0
358(10) 0.01021 336.3 11.4
365(10) 0.01015 336.3 11.9
384(10) 0.00910 336.3 12.4
350(10) 0.00957 336.4 13.0
359(10) 0.00951 336.4 13.6
361(10) 0.01020 336.4 14.2
372(10) 0.00993 336.4 15.0
339(10) 0.01056 336.4 15.8
366(11) 0.00890 336.5 16.8
343(10) 0.01017 336.5 17.9
365(10) 0.01010 336.5 19.1
386(10) 0.00942 336.5 20.5
384(10) 0.00926 336.6 22.1
383(11) 0.00843 336.6 24.0
355(10) 0.00989 336.6 26.1
361(10) 0.01034 336.6 28.6
387(10) 0.00944 336.6 31.6
370(10) 0.00945 336.7 35.1
370(10) 0.00909 336.7 39.3
419(11) 0.00833 336.7 44.4
426(11) 0.00865 336.7 51.0
481(11) 0.00758 336.8 59.8
461(11) 0.00761 336.8 72.6
477(12) 0.00684 336.8 92.5
517(12) 0.00660 336.8 124.5
513(12) 0.00729 336.8 176.1
593(13) 0.00611 336.9 256.5
698(14) 0.00499 336.9 374.0
817(16) 0.00413 336.9 533.1
983(17) 0.003501 336.9 727.8
1172(18) 0.003151 336.9 938.8
1432(20) 0.002535 337.0 1126.9
1676(22) 0.002044 337.0 1237.4
1705(22) 0.002004 337.0 1225.5
1621(21) 0.002196 337.0 1096.6
1243(18) 0.002980 337.1 900.5
910(16) 0.00374 337.1 691.1
766(15) 0.00434 337.1 502.4
639(14) 0.00545 337.1 351.2
604(13) 0.00578 337.1 241.4
504(12) 0.00744 337.2 167.4
454(12) 0.00750 337.2 120.5
456(12) 0.00754 337.2 91.6
464(12) 0.00744 337.2 73.7
424(11) 0.00831 337.3 62.2
412(11) 0.00896 337.3 54.2
398(11) 0.00861 337.3 48.4
379(11) 0.00883 337.3 43.8
385(11) 0.00872 337.3 40.2
368(10) 0.00991 337.4 37.3
359(10) 0.01035 337.4 34.9
401(11) 0.00791 337.4 32.9
380(11) 0.00881 337.4 31.3
383(10) 0.00931 337.4 30.0
376(10) 0.00964 337.5 29.0
383(10) 0.00974 337.5 28.1
331(10) 0.01077 337.5 27.5
368(11) 0.00882 337.5 27.1
379(11) 0.00897 337.6 26.8
381(10) 0.00976 337.6 26.6
355(10) 0.01046 337.6 26.6
395(11) 0.00836 337.6 26.7
367(11) 0.00868 337.6 27.0
356(10) 0.00983 337.7 27.3
401(10) 0.00940 337.7 27.8
368(10) 0.00992 337.7 28.4
382(11) 0.00880 337.7 29.1
400(11) 0.00822 337.8 30.0
388(11) 0.00885 337.8 31.0
358(10) 0.01034 337.8 32.1
344(10) 0.01061 337.8 33.4
379(10) 0.00908 337.8 34.9
376(11) 0.00886 337.9 36.6
361(10) 0.00989 337.9 38.6
390(10) 0.00960 337.9 40.8
352(10) 0.01020 337.9 43.4
402(11) 0.00845 337.9 46.3
371(11) 0.00900 338.0 49.8
413(11) 0.00829 338.0 53.9
406(10) 0.00915 338.0 58.9
390(10) 0.00931 338.0 64.8
404(11) 0.00836 338.1 71.9
417(11) 0.00827 338.1 80.5
434(11) 0.00819 338.1 91.0
468(11) 0.00789 338.1 103.7
440(11) 0.00801 338.1 119.1
472(12) 0.00720 338.2 137.4
488(12) 0.00693 338.2 159.2
510(12) 0.00699 338.2 184.7
551(12) 0.00675 338.2 214.1
559(13) 0.00618 338.2 247.8
613(13) 0.00553 338.3 285.4
667(14) 0.00512 338.3 326.8
678(14) 0.00521 338.3 371.3
742(14) 0.00501 338.3 418.0
795(15) 0.00441 338.4 465.2
835(16) 0.00403 338.4 510.6
873(16) 0.00402 338.4 551.5
960(16) 0.00373 338.4 584.5
978(16) 0.00380 338.4 606.2
914(16) 0.00383 338.5 614.3
914(17) 0.00364 338.5 607.7
882(16) 0.00397 338.5 587.3
826(15) 0.00439 338.5 555.6
772(14) 0.00480 338.6 516.0
746(15) 0.00468 338.6 471.7
705(15) 0.00460 338.6 425.9
686(14) 0.00505 338.6 380.8
604(13) 0.00614 338.6 337.9
615(13) 0.00602 338.7 298.9
620(13) 0.00558 338.7 264.5
616(14) 0.00516 338.7 236.2
571(13) 0.00604 338.7 215.2
538(12) 0.00683 338.7 203.8
551(12) 0.00671 338.8 204.6
564(13) 0.00636 338.8 220.1
583(13) 0.00577 338.8 251.4
641(14) 0.00521 338.8 296.6
701(14) 0.00521 338.9 349.4
808(15) 0.00457 338.9 397.2
837(15) 0.00421 338.9 422.1
835(16) 0.00392 338.9 410.1
791(15) 0.00437 338.9 363.8
663(13) 0.00562 339.0 299.2
574(12) 0.00640 339.0 232.8
521(12) 0.00647 339.0 174.5
468(12) 0.00722 339.0 128.9
485(12) 0.00701 339.1 96.1
447(11) 0.00818 339.1 74.1
424(11) 0.00850 339.1 59.9
457(12) 0.00731 339.1 50.6
421(11) 0.00771 339.1 44.4
364(10) 0.00967 339.2 39.9
362(10) 0.01023 339.2 36.5
362(10) 0.00983 339.2 33.6
379(11) 0.00902 339.2 31.2
367(10) 0.00951 339.2 29.1
381(10) 0.00933 339.3 27.2
347(10) 0.01069 339.3 25.6
398(11) 0.00861 339.3 24.1
335(10) 0.01049 339.3 22.8
374(10) 0.00910 339.4 21.6
369(10) 0.00990 339.4 20.6
393(10) 0.00945 339.4 19.6
405(11) 0.00848 339.4 18.7
376(11) 0.00892 339.4 17.9
378(11) 0.00876 339.5 17.1
324(9) 0.01125 339.5 16.4
377(10) 0.00988 339.5 15.8
359(10) 0.00958 339.5 15.2
363(10) 0.00914 339.6 14.7
344(10) 0.01006 339.6 14.1
378(10) 0.00974 339.6 13.7
355(10) 0.01052 339.6 13.2
360(10) 0.00946 339.6 12.8
355(10) 0.00930 339.7 12.4
374(10) 0.00923 339.7 12.1
381(10) 0.00964 339.7 11.7
377(10) 0.00978 339.7 11.4
370(10) 0.00952 339.7 11.1
331(10) 0.00990 339.8 10.8
352(10) 0.00950 339.8 10.6
370(10) 0.00977 339.8 10.3
359(10) 0.01031 339.8 10.1
344(10) 0.01022 339.9 9.9
315(10) 0.01045 339.9 9.6
346(10) 0.00989 339.9 9.5
361(10) 0.01019 339.9 9.3
361(10) 0.01012 339.9 9.1
352(10) 0.01009 340.0 8.9
325(10) 0.00998 340.0 8.8
329(10) 0.01025 340.0 8.6
378(10) 0.00985 340.0 8.5
351(10) 0.01037 340.0 8.4
340(10) 0.01003 340.1 8.3
364(10) 0.00929 340.1 8.2
356(10) 0.00995 340.1 8.0
343(10) 0.01082 340.1 8.0
336(10) 0.01089 340.2 7.9
347(10) 0.01043 340.3 7.8
344(10) 0.01015 340.3 7.7
336(10) 0.01038 340.4 7.6
334(9) 0.01119 340.5 7.6
322(9) 0.01116 340.5 7.5
324(10) 0.01059 340.6 7.5
334(10) 0.01016 340.7 7.4
369(10) 0.00941 340.7 7.4
349(10) 0.01070 340.8 7.3
353(10) 0.00963 340.9 7.3
346(10) 0.00979 340.9 7.3
361(10) 0.00976 341.0 7.3
350(10) 0.00996 341.1 7.2
329(9) 0.01134 341.1 7.2
358(10) 0.00947 341.2 7.2
379(11) 0.00873 341.3 7.2
356(10) 0.00979 341.3 7.2
357(10) 0.01015 341.4 7.2
365(10) 0.01028 341.5 7.3
364(10) 0.00962 341.5 7.3
356(10) 0.00945 341.6 7.3
368(10) 0.00923 341.7 7.3
349(10) 0.01044 341.7 7.4
324(9) 0.01145 341.8 7.4
353(10) 0.00982 341.9 7.5
348(10) 0.00937 341.9 7.5
349(10) 0.00995 342.0 7.9
373(10) 0.01004 342.1 8.0
356(10) 0.01039 342.1 8.0
375(10) 0.00947 342.2 8.1
374(11) 0.00877 342.2 8.2
341(10) 0.01028 342.3 8.3
355(10) 0.01029 342.4 8.4
385(10) 0.00974 342.4 8.5
369(10) 0.00975 342.5 8.6
381(11) 0.00842 342.6 8.8
356(10) 0.00951 342.6 8.9
371(10) 0.01015 342.7 9.1
352(10) 0.01035 342.8 9.2
355(10) 0.00950 342.8 9.4
335(10) 0.00989 342.9 9.6
359(10) 0.00955 343.0 9.8
352(10) 0.01041 343.0 10.0
359(10) 0.01011 343.1 10.3
348(10) 0.01028 343.2 10.5
360(10) 0.00935 343.2 10.8
340(10) 0.01024 343.3 11.1
345(10) 0.01057 343.4 11.4
336(10) 0.01083 343.4 11.7
378(11) 0.00897 343.5 12.1
333(10) 0.01077 343.6 12.5
359(10) 0.00975 343.6 12.9
355(10) 0.01047 343.7 13.4
342(10) 0.01068 343.8 13.9
376(10) 0.00920 343.8 14.5
353(10) 0.01002 343.9 15.2
375(10) 0.00908 344.0 15.9
384(10) 0.00963 344.0 16.7
378(10) 0.00943 344.1 17.6
378(11) 0.00901 344.2 18.6
367(10) 0.00975 344.2 19.8
371(10) 0.00979 344.3 21.2
396(10) 0.00935 344.4 22.7
402(11) 0.00869 344.4 24.5
382(11) 0.00878 344.5 26.5
376(11) 0.00902 344.6 28.8
379(10) 0.00946 344.6 31.4
396(10) 0.00934 344.7 34.3
398(11) 0.00861 344.8 37.6
380(11) 0.00883 344.8 41.2
396(11) 0.00895 344.9 45.2
398(10) 0.00912 345.0 49.4
408(11) 0.00902 345.0 54.0
408(11) 0.00836 345.1 58.8
413(11) 0.00796 345.2 63.8
436(11) 0.00791 345.2 68.9
426(11) 0.00865 345.3 73.8
420(11) 0.00884 345.4 78.5
424(11) 0.00824 345.4 82.6
425(11) 0.00762 345.5 86.0
439(11) 0.00796 345.6 88.5
465(11) 0.00780 345.6 90.1
433(11) 0.00846 345.7 90.4
441(11) 0.00760 345.8 89.5
413(11) 0.00781 345.8 87.7
447(11) 0.00764 345.9 85.2
434(11) 0.00853 346.0 82.3
415(11) 0.00889 346.0 79.0
425(11) 0.00813 346.1 75.7
425(11) 0.00776 346.2 72.4
411(11) 0.00856 346.2 69.4
432(11) 0.00864 346.3 66.6
402(10) 0.00911 346.4 64.2
410(11) 0.00864 346.4 62.1
409(11) 0.00799 346.5 61.0
414(11) 0.00829 346.6 59.7
402(10) 0.00924 346.6 58.9
411(11) 0.00895 346.7 58.6
411(11) 0.00855 346.8 58.7
424(11) 0.00794 346.8 59.2
436(11) 0.00792 346.9 60.3
418(11) 0.00879 347.0 61.8
441(11) 0.00817 347.0 63.9
459(11) 0.00760 347.1 66.6
420(11) 0.00822 347.2 69.9
442(11) 0.00766 347.2 73.9
432(11) 0.00861 347.3 78.7
415(11) 0.00841 347.4 84.4
445(11) 0.00769 347.4 91.0
454(11) 0.00767 347.5 98.6
460(11) 0.00769 347.6 107.3
490(11) 0.00763 347.6 117.1
490(12) 0.00714 347.7 128.0
534(13) 0.00617 347.7 139.9
476(12) 0.00742 347.8 153.0
488(12) 0.00737 347.9 166.8
544(12) 0.00681 347.9 181.4
552(13) 0.00627 348.0 196.2
561(13) 0.00597 348.1 210.9
545(13) 0.00628 348.1 224.9
578(13) 0.00621 348.2 237.4
575(12) 0.00642 348.3 247.8
630(14) 0.00545 348.3 255.0
612(14) 0.00531 348.4 258.5
624(13) 0.00549 348.5 257.9
599(13) 0.00619 348.5 253.3
614(13) 0.00606 348.6 245.0
622(13) 0.00563 348.7 233.6
637(14) 0.00504 348.7 220.0
566(13) 0.00626 348.8 205.0
509(12) 0.00719 348.9 189.3
514(12) 0.00725 348.9 173.5
515(12) 0.00663 349.0 158.1
476(12) 0.00669 349.1 143.4
477(12) 0.00718 349.1 129.6
457(11) 0.00817 349.2 116.8
430(11) 0.00856 349.3 105.1
427(11) 0.00819 349.3 94.6
407(11) 0.00795 349.4 85.3
406(11) 0.00839 349.5 77.0
418(11) 0.00881 349.5 69.8
411(11) 0.00884 349.6 63.4
390(11) 0.00889 349.7 58.0
379(11) 0.00864 349.7 53.3
395(11) 0.00845 349.8 49.2
397(10) 0.00925 349.9 45.7
359(10) 0.01013 349.9 42.7
402(11) 0.00859 350.0 40.1
378(11) 0.00880 350.1 37.8
358(10) 0.00948 350.1 35.9
378(10) 0.00979 350.2 34.1
391(10) 0.00915 350.3 32.6
349(10) 0.00998 350.3 31.3
375(11) 0.00892 350.4 30.1
380(10) 0.00913 350.5 29.0
384(10) 0.00966 350.5 28.0
349(10) 0.01047 350.6 27.2
381(10) 0.00911 350.7 26.4
398(11) 0.00839 350.7 25.7
366(10) 0.00964 350.8 25.1
353(10) 0.01065 350.9 24.5
362(10) 0.00952 350.9 24.1
379(11) 0.00873 351.0 23.7
350(10) 0.00981 351.1 23.3
358(10) 0.01001 351.1 23.1
345(10) 0.01086 351.2 22.8
377(11) 0.00902 351.3 22.7
329(10) 0.01081 351.3 22.6
371(10) 0.00914 351.4 22.6
347(10) 0.01045 351.5 22.6
369(10) 0.01000 351.5 22.8
390(11) 0.00868 351.6 23.0
362(10) 0.00915 351.7 23.3
394(11) 0.00885 351.7 23.6
359(10) 0.01010 351.8 24.1
356(10) 0.01046 351.9 24.7
381(11) 0.00901 351.9 25.5
368(11) 0.00906 352.0 26.4
368(10) 0.00970 352.1 27.5
373(10) 0.00999 352.1 29.0
381(10) 0.00976 352.2 30.8
392(11) 0.00895 352.3 33.3
367(11) 0.00884 352.3 36.4
364(10) 0.00927 352.4 40.1
387(10) 0.00930 352.5 44.3
403(10) 0.00917 352.5 48.8
401(11) 0.00833 352.6 53.0
395(11) 0.00831 352.7 57.1
407(11) 0.00846 352.7 61.5
409(10) 0.00912 352.8 67.4
433(11) 0.00833 352.9 76.5
478(12) 0.00721 352.9 89.2
462(12) 0.00718 353.0 107.3
484(12) 0.00697 353.1 132.0
513(12) 0.00706 353.1 164.6
565(12) 0.00649 353.2 206.1
597(13) 0.00603 353.2 256.9
755(15) 0.00440 353.3 316.2
833(16) 0.00416 353.4 382.3
944(16) 0.00393 353.4 451.3
1065(17) 0.003401 353.5 516.5
1120(18) 0.003092 353.6 569.0
1155(19) 0.002889 353.6 598.2
1153(18) 0.002985 353.7 597.3
1061(17) 0.00351 353.8 566.3
1003(17) 0.00351 353.8 512.9
870(16) 0.00392 353.9 447.1
820(16) 0.00408 354.0 378.2
721(14) 0.00492 354.0 312.4
648(13) 0.00575 354.1 253.4
618(13) 0.00560 354.2 203.1
576(13) 0.00578 354.2 161.9
532(12) 0.00640 354.3 129.4
510(12) 0.00709 354.4 104.4
508(12) 0.00729 354.4 85.7
464(12) 0.00750 354.5 71.9
446(12) 0.00743 354.6 61.7
425(11) 0.00804 354.6 54.1
440(11) 0.00837 354.7 48.5
409(11) 0.00907 354.8 44.1
409(11) 0.00863 354.8 40.7
420(11) 0.00798 354.9 38.0
411(11) 0.00843 355.0 35.7
405(10) 0.00911 355.0 33.9
403(10) 0.00911 355.1 32.4
385(10) 0.00910 355.2 31.1
422(12) 0.00726 355.2 30.1
422(11) 0.00808 355.3 29.3
414(11) 0.00878 355.4 28.6
383(10) 0.00970 355.4 28.2
392(11) 0.00900 355.5 27.9
398(11) 0.00835 355.6 27.9
396(10) 0.00908 355.6 27.9
405(11) 0.00902 355.7 28.1
396(10) 0.00932 355.8 28.5
403(11) 0.00872 355.8 29.0
391(11) 0.00819 355.9 29.8
411(11) 0.00806 356.0 30.8
413(11) 0.00898 356.0 32.0
401(11) 0.00906 356.1 33.6
399(11) 0.00866 356.2 35.6
422(11) 0.00776 356.2 38.2
429(11) 0.00815 356.3 41.6
427(11) 0.00858 356.4 46.0
429(11) 0.00854 356.4 52.0
440(11) 0.00779 356.5 60.0
478(12) 0.00699 356.6 70.8
453(11) 0.00768 356.6 85.2
491(11) 0.00757 356.7 103.9
568(13) 0.00634 356.8 127.8
553(13) 0.00632 356.8 157.5
580(13) 0.00584 356.9 193.1
631(13) 0.00552 357.0 234.1
713(14) 0.00521 357.0 279.3
694(14) 0.00516 357.1 326.0
765(15) 0.00451 357.2 370.2
844(16) 0.00389 357.2 406.2
886(16) 0.00387 357.3 427.5
907(16) 0.00410 357.4 429.3
898(16) 0.00390 357.4 411.3
799(15) 0.00426 357.5 377.6
770(15) 0.00440 357.6 334.2
688(14) 0.00528 357.6 287.5
586(13) 0.00637 357.7 241.8
554(13) 0.00613 357.8 199.7
518(12) 0.00660 357.8 163.0
440(11) 0.00808 357.9 132.0
418(11) 0.00867 358.0 107.0
465(11) 0.00801 358.0 87.2
414(11) 0.00822 358.1 72.0
425(11) 0.00766 358.2 60.4
411(11) 0.00860 358.2 51.8
409(11) 0.00904 358.3 45.4
407(10) 0.00910 358.4 40.5
384(10) 0.00923 358.4 36.8
377(11) 0.00865 358.5 33.9
369(10) 0.00923 358.6 31.6
399(10) 0.00930 358.6 29.7
383(10) 0.00963 358.7 28.2
379(10) 0.00919 358.7 26.9
394(11) 0.00805 358.8 25.8
385(10) 0.00909 358.9 25.0
363(10) 0.01035 358.9 24.2
370(10) 0.00989 359.0 23.7
352(10) 0.01008 359.1 23.2
418(12) 0.00735 359.1 22.9
359(10) 0.01002 359.2 22.7
378(10) 0.00960 359.3 22.6
382(10) 0.00949 359.3 22.6
366(10) 0.00961 359.4 22.7
352(11) 0.00907 359.5 23.0
359(10) 0.00978 359.5 23.4
355(10) 0.01048 359.6 23.9
348(10) 0.01040 359.7 24.5
367(10) 0.00924 359.7 25.3
360(10) 0.00937 359.8 26.3
361(10) 0.00964 359.9 27.4
388(10) 0.00940 359.9 28.9
364(10) 0.00984 360.0 30.6
369(10) 0.00936 360.1 32.6
390(11) 0.00840 360.1 35.2
393(11) 0.00872 360.2 38.4
385(10) 0.00962 360.3 42.6
391(10) 0.00914 360.3 48.1
414(11) 0.00807 360.4 55.5
392(11) 0.00874 360.5 65.8
428(11) 0.00818 360.5 80.1
444(11) 0.00828 360.6 99.4
445(11) 0.00811 360.7 125.3
497(12) 0.00676 360.7 158.8
535(13) 0.00634 360.8 200.5
572(13) 0.00608 360.9 250.2
680(14) 0.00545 360.9 306.3
759(15) 0.00450 361.0 365.1
805(16) 0.00407 361.1 420.5
838(16) 0.00409 361.1 463.1
844(15) 0.00423 361.2 483.0
832(15) 0.00447 361.3 474.7
764(15) 0.00450 361.3 440.5
743(15) 0.00443 361.4 389.2
665(14) 0.00518 361.5 331.0
601(13) 0.00605 361.5 273.1
557(12) 0.00666 361.6 220.4
531(12) 0.00657 361.7 175.4
511(12) 0.00654 361.7 138.4
505(12) 0.00682 361.8 109.5
466(11) 0.00784 361.9 87.6
457(11) 0.00804 361.9 71.4
436(11) 0.00776 362.0 59.6
425(12) 0.00753 362.1 51.0
403(11) 0.00896 362.1 44.8
421(11) 0.00863 362.2 40.1
395(10) 0.00936 362.3 36.6
414(11) 0.00824 362.3 33.8
374(11) 0.00880 362.4 31.5
370(10) 0.00957 362.5 29.7
399(10) 0.00922 362.5 28.2
377(10) 0.00976 362.6 27.0
379(11) 0.00901 362.7 26.0
409(11) 0.00769 362.7 25.2
401(11) 0.00850 362.8 24.7
374(10) 0.00993 362.9 24.5
404(10) 0.00910 362.9 24.6
361(10) 0.00988 363.0 25.2
360(10) 0.00931 363.1 26.6
407(11) 0.00852 363.1 29.1
416(11) 0.00899 363.2 33.1
405(11) 0.00887 363.3 38.9
401(11) 0.00879 363.3 46.9
413(11) 0.00798 363.4 56.8
431(11) 0.00789 363.5 68.0
427(11) 0.00874 363.5 78.8
444(11) 0.00811 363.6 86.9
488(12) 0.00694 363.7 89.6
476(12) 0.00708 363.7 85.6
439(11) 0.00792 363.8 76.5
398(10) 0.00929 363.9 65.0
395(11) 0.00903 363.9 53.5
384(11) 0.00895 364.0 43.4
398(11) 0.00847 364.1 35.2
387(10) 0.00918 364.1 29.1
369(10) 0.01006 364.2 24.7
368(10) 0.00959 364.2 21.8
383(11) 0.00847 364.3 19.9
354(10) 0.00970 364.4 18.6
377(10) 0.00930 364.4 17.7
378(10) 0.00980 364.5 17.1
367(10) 0.00910 364.6 16.6
362(10) 0.00952 364.6 16.2
363(10) 0.00974 364.7 15.9
368(10) 0.01011 364.8 15.7
370(10) 0.00994 364.8 15.5
372(10) 0.00946 364.9 15.3
367(10) 0.00911 365.0 15.2
394(11) 0.00885 365.0 15.1
346(10) 0.01061 365.1 15.0
367(10) 0.01007 365.2 14.9
393(11) 0.00859 365.2 14.9
367(10) 0.00931 365.3 14.9
378(10) 0.00919 365.4 14.9
363(10) 0.01026 365.4 14.9
352(10) 0.01038 365.5 15.0
341(10) 0.01044 365.6 15.1
372(11) 0.00840 365.6 15.1
365(10) 0.00950 365.7 15.2
375(10) 0.00988 365.8 15.3
366(10) 0.01015 365.8 15.4
388(10) 0.00914 365.9 15.6
369(11) 0.00880 366.0 15.7
362(10) 0.00955 366.0 15.9
365(10) 0.01015 366.1 16.0
379(10) 0.00969 366.1 16.2
365(10) 0.00984 366.1 16.4
384(11) 0.00865 366.0 16.7
391(11) 0.00890 365.9 16.9
375(10) 0.00988 365.9 17.1
377(10) 0.00959 365.8 17.4
355(10) 0.00986 365.7 17.7
373(11) 0.00882 365.7 18.0
378(10) 0.00918 365.6 18.3
392(10) 0.00944 365.5 18.6
364(10) 0.00962 365.5 19.0
334(10) 0.01047 365.4 19.4
365(10) 0.00930 365.3 19.8
355(10) 0.00999 365.3 20.2
368(10) 0.01015 365.2 20.6
381(10) 0.00944 365.1 21.1
367(10) 0.00957 365.1 21.6
358(10) 0.00966 365.0 22.1
387(11) 0.00874 364.9 22.6
386(10) 0.00959 364.9 23.2
358(10) 0.00999 364.8 23.8
361(10) 0.00941 364.7 24.4
354(10) 0.00967 364.7 25.1
405(11) 0.00893 364.6 25.8
384(10) 0.00969 364.5 26.5
367(10) 0.00967 364.5 27.3
379(11) 0.00894 364.4 28.1
380(11) 0.00905 364.3 29.0
401(11) 0.00903 364.3 29.9
366(10) 0.01017 364.2 30.9
391(11) 0.00892 364.1 31.9
395(11) 0.00827 364.0 33.0
354(10) 0.00997 364.0 34.2
392(11) 0.00906 363.9 35.4
367(10) 0.01012 363.8 36.8
366(10) 0.00938 363.8 38.2
385(11) 0.00831 363.7 39.8
375(10) 0.00924 363.6 41.4
377(10) 0.00986 363.6 43.3
391(10) 0.00955 363.5 45.2
407(11) 0.00841 363.4 47.4
381(11) 0.00844 363.4 49.8
427(11) 0.00792 363.3 52.4
410(11) 0.00892 363.2 55.3
407(10) 0.00920 363.2 58.4
415(11) 0.00870 363.1 62.0
414(11) 0.00809 363.0 65.9
421(11) 0.00841 363.0 70.3
417(11) 0.00876 362.9 75.1
420(11) 0.00881 362.8 80.6
433(11) 0.00791 362.8 86.7
420(11) 0.00791 362.7 93.4
430(11) 0.00804 362.6 101.0
464(11) 0.00792 362.6 109.4
482(11) 0.00758 362.5 118.7
465(12) 0.00736 362.4 129.0
479(12) 0.00701 362.4 140.3
496(12) 0.00708 362.3 152.8
503(12) 0.00740 362.2 166.6
508(12) 0.00726 362.2 181.5
549(13) 0.00631 362.1 197.8
563(13) 0.00597 362.0 215.4
570(13) 0.00611 362.0 234.3
595(13) 0.00623 361.9 254.5
590(13) 0.00623 361.8 276.0
603(13) 0.00590 361.7 298.7
675(14) 0.00507 361.7 322.5
707(14) 0.00495 361.6 347.3
773(14) 0.00485 361.5 372.9
784(15) 0.00443 361.5 399.0
789(15) 0.00435 361.4 425.4
797(15) 0.00439 361.3 451.5
888(16) 0.00391 361.3 477.0
849(15) 0.00437 361.2 501.4
910(16) 0.00383 361.1 524.0
897(16) 0.00380 361.1 544.2
919(16) 0.00370 361.0 561.3
952(16) 0.00373 360.9 574.8
952(16) 0.00391 360.9 584.1
949(17) 0.00363 360.8 588.8
908(17) 0.00366 360.7 588.8
845(16) 0.00407 360.7 584.0
911(16) 0.00396 360.6 574.8
914(16) 0.00406 360.5 561.5
899(16) 0.00389 360.5 544.8
824(16) 0.00404 360.4 525.3
783(15) 0.00433 360.3 503.8
784(15) 0.00467 360.3 480.8
793(15) 0.00467 360.2 457.1
744(15) 0.00465 360.1 433.4
713(15) 0.00464 360.1 410.0
722(15) 0.00473 360.0 387.5
693(14) 0.00526 359.9 366.2
672(14) 0.00547 359.9 346.3
693(14) 0.00497 359.8 328.0
656(14) 0.00489 359.7 311.3
664(14) 0.00513 359.6 296.2
638(13) 0.00574 359.6 282.3
626(13) 0.00582 359.5 269.3
620(14) 0.00539 359.4 256.5
619(14) 0.00520 359.4 243.4
639(14) 0.00541 359.3 229.5
592(13) 0.00630 359.2 214.6
580(13) 0.00630 359.2 199.0
552(13) 0.00635 359.1 183.3
564(13) 0.00594 359.0 168.0
524(12) 0.00661 359.0 153.5
525(12) 0.00711 358.9 140.1
515(12) 0.00706 358.8 128.0
474(12) 0.00723 358.8 117.3
489(12) 0.00672 358.7 107.9
472(12) 0.00718 358.6 99.8
443(11) 0.00840 358.6 92.9
481(11) 0.00767 358.5 87.1
482(12) 0.00717 358.4 82.2
433(11) 0.00816 358.4 78.3
438(11) 0.00786 358.3 75.0
432(11) 0.00864 358.2 72.5
450(11) 0.00797 358.2 70.5
443(11) 0.00768 358.1 69.1
432(11) 0.00790 358.0 68.3
451(11) 0.00788 358.0 67.9
424(11) 0.00872 357.9 68.0
405(11) 0.00868 357.8 68.7
425(11) 0.00794 357.8 69.9
430(11) 0.00806 357.7 71.6
465(11) 0.00790 357.6 73.9
451(11) 0.00825 357.5 76.8
457(12) 0.00733 357.5 80.4
424(11) 0.00786 357.4 84.6
427(11) 0.00807 357.3 89.4
442(11) 0.00811 357.3 94.8
436(11) 0.00849 357.2 100.8
459(11) 0.00781 357.1 107.3
504(12) 0.00665 357.1 114.1
467(11) 0.00761 357.0 121.1
455(11) 0.00816 356.9 128.2
467(11) 0.00786 356.9 135.0
499(12) 0.00709 356.8 141.3
511(12) 0.00643 356.7 146.6
506(12) 0.00683 356.7 150.5
529(12) 0.00696 356.6 152.8
459(11) 0.00805 356.5 153.3
494(12) 0.00715 356.5 151.8
495(12) 0.00648 356.4 148.7
476(12) 0.00729 356.3 144.0
479(11) 0.00760 356.3 138.2
471(11) 0.00795 356.2 131.7
448(11) 0.00778 356.1 124.7
483(12) 0.00652 356.1 117.6
451(11) 0.00785 356.0 110.6
443(11) 0.00847 355.9 103.9
466(11) 0.00786 355.9 97.5
426(11) 0.00840 355.8 91.6
438(12) 0.00752 355.7 86.2
446(11) 0.00782 355.7 81.4
441(11) 0.00833 355.6 77.0
439(11) 0.00801 355.5 73.1
432(11) 0.00807 355.4 69.7
437(12) 0.00755 355.4 66.8
436(11) 0.00793 355.3 64.2
449(11) 0.00829 355.2 62.0
441(11) 0.00801 355.2 60.0
400(11) 0.00887 355.1 58.3
409(11) 0.00854 355.0 56.8
417(11) 0.00835 355.0 55.4
409(10) 0.00910 354.9 54.2
426(11) 0.00841 354.8 53.1
398(11) 0.00902 354.8 52.0
439(11) 0.00771 354.7 51.0
456(11) 0.00772 354.6 50.0
424(11) 0.00879 354.6 49.0
402(11) 0.00884 354.5 48.1
422(11) 0.00797 354.4 47.1
408(11) 0.00850 354.4 46.0
401(11) 0.00891 354.3 45.0
408(10) 0.00912 354.2 44.0
395(11) 0.00852 354.2 42.9
404(11) 0.00819 354.1 41.8
407(11) 0.00871 354.0 40.8
421(11) 0.00846 354.0 39.7
399(10) 0.00929 353.9 38.6
400(11) 0.00834 353.8 37.5
419(11) 0.00785 353.8 36.4
397(11) 0.00867 353.7 35.4
415(11) 0.00868 353.6 34.3
392(10) 0.00945 353.6 33.3
378(10) 0.00917 353.5 32.3
404(11) 0.00793 353.4 31.4
394(11) 0.00895 353.4 30.5
396(10) 0.00919 353.3 29.6
391(10) 0.00958 353.2 28.7
397(11) 0.00882 353.1 27.9
379(11) 0.00842 353.1 27.1
365(10) 0.00970 353.0 26.4
393(10) 0.00926 352.9 25.7
386(10) 0.00957 352.9 25.0
355(10) 0.00977 352.8 24.4
360(11) 0.00896 352.7 23.9
360(10) 0.00971 352.7 23.4
391(10) 0.00943 352.6 22.9
396(10) 0.00937 352.5 22.5
343(10) 0.01039 352.5 22.1
375(11) 0.00898 352.4 21.8
401(11) 0.00861 352.3 21.6
370(10) 0.01009 352.3 21.4
362(10) 0.01028 352.2 21.3
372(10) 0.00939 352.1 21.2
404(11) 0.00787 352.1 21.3
385(11) 0.00886 352.0 21.4
379(10) 0.00983 351.9 21.6
371(10) 0.00966 351.9 21.9
380(10) 0.00917 351.8 22.4
396(11) 0.00863 351.7 22.9
379(10) 0.00948 351.7 23.6
393(10) 0.00951 351.6 24.5
398(11) 0.00869 351.5 25.6
398(11) 0.00861 351.5 26.8
395(11) 0.00862 351.4 28.2
398(11) 0.00907 351.3 29.9
376(10) 0.01000 351.3 31.7
412(11) 0.00856 351.2 33.9
400(11) 0.00851 351.1 36.2
397(11) 0.00867 351.0 38.8
406(11) 0.00872 351.0 41.7
375(10) 0.01004 350.9 44.8
401(11) 0.00864 350.8 48.2
379(10) 0.00911 350.8 51.7
411(11) 0.00830 350.7 55.4
414(11) 0.00883 350.6 59.3
401(10) 0.00918 350.6 63.3
380(10) 0.00915 350.5 67.2
455(12) 0.00724 350.4 71.1
444(11) 0.00773 350.4 74.8
445(11) 0.00820 350.3 78.1
455(11) 0.00818 350.2 81.0
460(12) 0.00742 350.2 83.2
461(12) 0.00695 350.1 84.8
455(11) 0.00767 350.0 85.5
465(11) 0.00788 350.0 85.4
478(11) 0.00775 349.9 84.4
439(11) 0.00818 349.8 82.6
466(12) 0.00693 349.8 80.1
465(12) 0.00732 349.7 77.0
438(11) 0.00848 349.6 73.5
432(11) 0.00867 349.6 69.7
434(11) 0.00787 349.5 65.6
407(11) 0.00795 349.4 61.5
413(11) 0.00846 349.4 57.4
418(11) 0.00891 349.3 53.4
402(10) 0.00928 349.2 49.5
400(11) 0.00876 349.2 45.8
393(11) 0.00837 349.1 42.3
368(10) 0.00954 349.0 39.0
381(10) 0.00970 348.9 36.0
390(10) 0.00942 348.9 33.2
395(11) 0.00855 348.8 30.6
385(11) 0.00860 348.7 28.4
353(10) 0.00972 348.7 26.3
389(10) 0.00956 348.6 24.4
351(10) 0.01015 348.5 22.9
377(11) 0.00899 348.5 21.4
362(10) 0.00918 348.4 20.2
350(10) 0.01003 348.3 19.1
354(10) 0.01050 348.3 18.1
390(10) 0.00918 348.2 17.3
363(10) 0.00955 348.1 16.6
368(10) 0.00924 348.1 16.0
371(10) 0.00960 348.0 15.5
358(10) 0.01027 347.9 15.1
367(10) 0.00979 347.9 14.7
346(10) 0.01017 347.8 14.5
383(11) 0.00886 347.7 14.3
374(10) 0.00969 347.7 14.1
394(10) 0.00945 347.6 14.1
378(10) 0.00927 347.5 14.1
378(11) 0.00901 347.5 14.1
369(10) 0.00924 347.4 14.2
337(10) 0.01064 347.3 14.4
362(10) 0.01023 347.3 14.6
375(10) 0.00919 347.2 14.9
366(11) 0.00901 347.1 15.3
379(10) 0.00910 347.1 15.7
380(10) 0.00949 347.0 16.2
371(10) 0.01003 346.9 16.8
385(11) 0.00892 346.9 17.5
365(11) 0.00891 346.8 18.3
359(10) 0.00959 346.7 19.1
391(10) 0.00956 346.6 20.1
379(10) 0.00983 346.6 21.1
351(10) 0.00997 346.5 22.3
372(11) 0.00840 346.4 23.5
360(10) 0.00944 346.4 24.9
380(10) 0.00956 346.3 26.3
376(10) 0.00977 346.2 27.8
380(10) 0.00920 346.2 29.4
374(11) 0.00851 346.1 31.1
384(10) 0.00913 346.0 32.8
374(10) 0.00990 346.0 34.5
365(10) 0.01021 345.9 36.3
417(11) 0.00831 345.8 38.0
408(11) 0.00763 345.8 39.7
388(11) 0.00901 345.7 41.3
382(10) 0.00971 345.6 42.7
409(11) 0.00890 345.6 44.0
390(11) 0.00903 345.5 45.0
404(11) 0.00812 345.4 45.8
398(11) 0.00854 345.4 46.3
394(10) 0.00942 345.3 46.5
400(11) 0.00906 345.2 46.3
412(11) 0.00806 345.2 45.8
400(11) 0.00819 345.1 45.1
398(11) 0.00868 345.0 44.0
406(10) 0.00913 345.0 42.8
407(11) 0.00873 344.9 41.3
407(11) 0.00835 344.8 39.7
381(11) 0.00889 344.8 38.1
370(10) 0.00969 344.7 36.3
403(10) 0.00927 344.6 34.6
389(11) 0.00886 344.5 32.8
369(10) 0.00916 344.5 31.1
349(10) 0.00980 344.4 29.5
386(10) 0.00916 344.3 27.9
364(10) 0.01022 344.3 26.3
368(10) 0.00963 344.2 24.9
343(10) 0.00982 344.1 23.6
360(10) 0.00958 344.1 22.3
339(10) 0.01072 344.0 21.2
346(10) 0.01071 343.9 20.2
350(10) 0.00975 343.9 19.2
362(10) 0.00907 343.8 18.4
369(10) 0.00943 343.7 17.7
353(10) 0.01034 343.7 17.1
368(10) 0.01014 343.6 16.5
350(10) 0.00978 343.5 16.1
353(10) 0.00937 343.5 15.8
338(10) 0.01059 343.4 15.5
347(10) 0.01056 343.3 15.4
348(10) 0.01054 343.3 15.3
354(10) 0.00964 343.2 15.4
348(10) 0.00931 343.1 15.5
348(10) 0.00993 343.1 15.8
380(10) 0.00965 343.0 16.1
354(10) 0.01056 342.9 16.7
385(11) 0.00896 342.9 17.4
372(11) 0.00846 342.8 18.2
361(10) 0.00975 342.7 19.4
368(10) 0.00992 342.7 20.8
355(10) 0.01065 342.6 22.5
363(10) 0.00927 342.5 24.7
369(11) 0.00871 342.4 27.3
390(11) 0.00866 342.4 30.5
379(10) 0.00976 342.3 34.2
380(10) 0.00969 342.2 38.9
385(11) 0.00904 342.2 44.1
412(11) 0.00783 342.1 50.0
409(11) 0.00843 342.0 56.7
375(10) 0.00992 342.0 64.1
404(11) 0.00889 341.9 72.1
420(11) 0.00808 341.8 80.6
430(11) 0.00769 341.8 89.4
435(11) 0.00782 341.7 98.0
456(11) 0.00813 341.6 106.1
458(11) 0.00796 341.6 112.9
476(12) 0.00734 341.5 118.0
454(12) 0.00731 341.4 120.8
452(11) 0.00771 341.4 120.9
457(11) 0.00816 341.3 118.4
421(11) 0.00861 341.2 113.6
441(11) 0.00773 341.2 107.1
441(11) 0.00772 341.1 99.5
440(11) 0.00822 341.0 91.4
399(10) 0.00941 341.0 83.2
449(11) 0.00764 340.9 75.5
410(11) 0.00822 340.8 68.4
411(11) 0.00852 340.8 62.3
427(11) 0.00848 340.7 57.6
405(10) 0.00924 340.6 54.6
420(11) 0.00803 340.6 54.0
409(11) 0.00839 340.5 56.5
401(11) 0.00887 340.4 62.8
490(12) 0.00706 340.3 73.5
486(11) 0.00771 340.3 88.6
525(12) 0.00660 340.2 107.3
587(13) 0.00570 340.1 127.2
625(14) 0.00546 340.1 144.5
602(13) 0.00602 340.0 153.5
608(13) 0.00609 339.9 150.4
564(13) 0.00603 339.9 135.9
509(12) 0.00665 339.8 114.8
498(12) 0.00699 339.7 92.2
473(11) 0.00770 339.7 71.5
463(11) 0.00803 339.6 54.2
426(11) 0.00843 339.5 41.0
394(11) 0.00824 339.5 31.5
375(10) 0.00949 339.4 24.9
423(11) 0.00866 339.3 20.5
385(10) 0.00961 339.3 17.6
381(10) 0.00914 339.2 15.5
379(11) 0.00838 339.1 14.0
362(10) 0.00975 339.1 12.9
386(10) 0.00955 339.0 11.9
353(10) 0.01054 338.9 11.2
346(10) 0.00995 338.9 10.5
328(10) 0.00972 338.8 9.9
342(10) 0.01030 338.7 9.4
350(10) 0.01062 338.7 9.0
353(10) 0.01049 338.6 8.6
348(10) 0.01015 338.5 8.2
360(10) 0.00916 338.5 7.9
366(10) 0.00955 338.4 7.6
359(10) 0.01040 338.3 7.3
345(10) 0.01066 338.3 7.1
361(10) 0.00953 338.2 6.9
349(10) 0.00977 338.1 6.7
346(10) 0.01014 338.0 6.5
361(10) 0.01025 338.0 6.4
337(10) 0.01085 337.9 6.2
344(10) 0.01007 337.8 6.1
335(10) 0.01025 337.8 5.9
373(10) 0.00958 337.7 5.8
360(10) 0.01031 337.6 5.7
361(10) 0.00985 337.6 5.6
344(10) 0.00977 337.5 5.5
330(10) 0.01024 337.4 5.4
327(10) 0.01098 337.4 5.3
320(9) 0.01164 337.3 5.3
331(10) 0.01058 337.2 5.2
336(10) 0.01004 337.2 5.1
324(10) 0.01063 337.1 5.1
340(10) 0.01056 337.0 5.1
340(10) 0.01096 337.0 5.0
332(10) 0.01056 336.9 5.0
327(10) 0.01020 336.8 4.9
315(9) 0.01113 336.8 4.9
322(10) 0.01091 336.7 4.9
358(10) 0.01046 336.6 4.8
348(10) 0.01009 336.6 4.8
346(10) 0.00957 336.5 4.8
375(11) 0.00899 336.4 4.8
331(9) 0.01113 336.4 4.8
351(10) 0.01050 336.3 4.8
375(10) 0.00920 336.2 4.8
366(11) 0.00868 336.2 4.8
342(10) 0.01033 336.1 4.8
356(10) 0.01047 336.1 4.8
346(10) 0.01058 336.1 4.8
333(10) 0.01016 336.0 4.8
317(10) 0.01009 336.0 4.8
346(10) 0.00972 336.0 4.8
358(10) 0.01036 336.0 4.8
366(10) 0.01005 335.9 4.9
327(10) 0.01098 335.9 4.9
325(10) 0.01028 335.9 4.9
348(10) 0.00962 335.8 5.0
329(9) 0.01134 335.8 5.0
361(10) 0.00993 335.8 5.1
347(10) 0.00957 335.8 5.1
363(11) 0.00899 335.7 5.2
368(10) 0.00924 335.7 5.3
344(10) 0.01062 335.7 5.4
355(10) 0.01027 335.7 5.5
334(10) 0.01006 335.6 5.6
320(10) 0.01048 335.6 5.7
349(10) 0.00980 335.6 5.8
399(10) 0.00939 335.5 6.0
368(10) 0.00966 335.5 6.2
335(10) 0.01059 335.5 6.4
349(10) 0.00988 335.5 6.6
340(10) 0.01070 335.4 6.9
346(10) 0.01070 335.4 7.2
358(10) 0.00992 335.4 7.5
334(10) 0.01041 335.4 8.0
342(10) 0.00999 335.3 8.5
336(10) 0.01045 335.3 9.1
346(10) 0.01065 335.3 10.0
365(10) 0.00983 335.2 11.2
390(11) 0.00866 335.2 12.8
360(10) 0.00970 335.2 15.1
404(11) 0.00858 335.2 18.3
396(10) 0.00939 335.1 22.7
398(11) 0.00856 335.1 28.5
401(11) 0.00833 335.1 35.9
430(11) 0.00795 335.1 45.0
447(11) 0.00783 335.0 55.3
474(11) 0.00784 335.0 66.3
494(12) 0.00709 335.0 76.4
502(12) 0.00659 334.9 83.9
498(12) 0.00702 334.9 86.8
500(12) 0.00740 334.9 84.2
516(12) 0.00717 334.9 76.8
456(11) 0.00762 334.8 66.8
417(11) 0.00798 334.8 56.0
380(10) 0.00938 334.8 45.7
416(11) 0.00886 334.8 36.7
371(10) 0.00988 334.7 29.3
383(11) 0.00881 334.7 23.6
367(11) 0.00848 334.7 19.3
356(10) 0.00990 334.6 16.1
382(10) 0.00966 334.6 14.0
352(10) 0.01033 334.6 12.4
357(10) 0.00954 334.6 11.4
377(11) 0.00826 334.5 10.6
334(10) 0.01045 334.5 10.1
372(10) 0.00990 334.5 9.7
360(10) 0.01024 334.5 9.4
349(10) 0.00983 334.4 9.2
305(10) 0.01096 334.4 9.0
345(10) 0.00979 334.4 8.9
332(9) 0.01118 334.3 8.8
344(10) 0.00998 334.3 8.8
358(10) 0.00946 334.3 8.8
341(10) 0.00979 334.3 8.8
359(10) 0.00968 334.2 8.9
383(10) 0.00964 334.2 8.9
372(10) 0.00981 334.2 9.1
341(10) 0.01026 334.1 9.2
332(10) 0.01048 334.1 9.4
354(10) 0.00973 334.1 9.6
370(10) 0.01004 334.1 9.9
349(10) 0.01025 334.0 10.2
356(10) 0.00951 334.0 10.6
336(10) 0.01045 334.0 11.0
359(10) 0.00948 334.0 11.5
326(9) 0.01149 333.9 12.1
350(10) 0.01013 333.9 12.7
349(10) 0.01001 333.9 13.4
372(10) 0.00931 333.8 14.2
353(10) 0.01034 333.8 15.0
348(10) 0.01072 333.8 16.0
360(10) 0.00954 333.8 17.0
351(10) 0.00970 333.7 18.2
344(10) 0.01041 333.7 19.4
360(10) 0.01001 333.7 20.6
391(10) 0.00951 333.7 22.0
350(10) 0.00984 333.6 23.4
356(11) 0.00897 333.6 24.8
362(10) 0.00943 333.6 26.2
353(10) 0.01034 333.5 27.6
377(10) 0.00978 333.5 28.8
375(10) 0.00928 333.5 29.9
366(10) 0.00930 333.5 30.9
363(10) 0.00956 333.4 31.6
370(10) 0.00984 333.4 32.1
370(10) 0.00999 333.4 32.3
354(10) 0.00993 333.4 32.3
356(11) 0.00902 333.3 32.0
345(10) 0.01012 333.3 31.6
374(10) 0.00984 333.3 31.1
373(10) 0.00985 333.2 30.6
357(10) 0.00973 333.2 30.0
348(10) 0.00928 333.2 29.4
338(10) 0.01000 333.2 29.0
368(10) 0.01003 333.1 28.6
357(10) 0.01011 333.1 28.3
384(11) 0.00859 333.1 28.1
366(11) 0.00881 333.1 28.1
346(10) 0.01009 333.0 28.3
363(10) 0.01005 333.0 28.6
366(10) 0.00999 333.0 29.1
368(10) 0.00941 332.9 29.8
361(10) 0.00940 332.9 30.7
354(10) 0.00963 332.9 31.8
326(9) 0.01136 332.9 33.2
352(10) 0.01045 332.8 34.9
335(10) 0.01079 332.8 36.9
378(11) 0.00903 332.8 39.3
362(10) 0.00975 332.8 42.1
369(10) 0.00993 332.7 45.6
419(11) 0.00837 332.7 49.8
406(11) 0.00823 332.7 55.0
381(11) 0.00888 332.6 61.4
407(11) 0.00858 332.6 69.2
419(11) 0.00880 332.6 78.8
419(11) 0.00838 332.6 90.6
427(11) 0.00811 332.5 104.9
449(11) 0.00764 332.5 122.0
483(12) 0.00733 332.5 142.3
510(12) 0.00725 332.5 165.9
535(13) 0.00636 332.4 192.9
592(14) 0.00548 332.4 223.2
625(13) 0.00551 332.4 256.2
699(14) 0.00517 332.3 291.2
734(14) 0.00505 332.3 326.9
752(15) 0.00458 332.3 361.2
807(16) 0.00415 332.3 391.6
861(16) 0.00404 332.2 415.0
805(15) 0.00453 332.2 428.6
806(15) 0.00458 332.2 430.4
812(16) 0.00413 332.2 420.4
822(16) 0.00387 332.1 400.2
718(14) 0.00489 332.1 372.6
693(14) 0.00522 332.1 340.6
704(14) 0.00523 332.0 307.0
661(14) 0.00532 332.0 273.8
618(14) 0.00515 332.0 242.3
571(13) 0.00613 332.0 213.7
571(12) 0.00649 331.9 188.3
548(12) 0.00679 331.9 166.2
536(12) 0.00652 331.9 147.6
515(13) 0.00637 331.9 132.1
521(12) 0.00678 331.8 119.6
493(12) 0.00754 331.8 109.6
480(11) 0.00766 331.8 101.8
484(12) 0.00718 331.7 95.9
448(12) 0.00755 331.7 91.5
454(11) 0.00788 331.7 88.3
422(11) 0.00882 331.7 86.0
460(11) 0.00790 331.6 84.5
451(11) 0.00768 331.6 83.5
424(11) 0.00797 331.6 83.0
455(12) 0.00751 331.6 82.7
447(11) 0.00830 331.5 82.7
450(11) 0.00796 331.5 82.8
421(11) 0.00826 331.5 83.0
425(11) 0.00790 331.4 83.2
436(11) 0.00811 331.4 83.3
459(11) 0.00816 331.4 83.4
425(11) 0.00848 331.4 83.4
446(11) 0.00769 331.3 83.2
460(12) 0.00726 331.3 82.9
424(11) 0.00817 331.3 82.4
414(11) 0.00898 331.3 81.7
439(11) 0.00801 331.2 80.9
421(11) 0.00828 331.2 79.9
441(11) 0.00791 331.2 78.7
455(11) 0.00786 331.1 77.4
452(11) 0.00822 331.1 76.0
440(11) 0.00796 331.1 74.4
410(11) 0.00835 331.1 72.8
448(11) 0.00758 331.0 71.2
404(10) 0.00907 331.0 69.5
405(10) 0.00917 331.0 67.8
417(11) 0.00828 331.0 66.1
393(11) 0.00877 330.9 64.3
419(11) 0.00830 330.9 62.6
415(11) 0.00871 330.9 60.9
386(10) 0.00971 330.8 59.2
404(11) 0.00869 330.8 57.4
406(11) 0.00819 330.8 55.8
422(11) 0.00833 330.8 54.1
396(10) 0.00934 330.7 52.4
396(10) 0.00933 330.7 50.8
390(11) 0.00878 330.7 49.1
386(11) 0.00854 330.7 47.5
373(10) 0.00961 330.6 45.9
377(10) 0.00988 330.6 44.3
390(10) 0.00946 330.6 42.7
389(11) 0.00892 330.5 41.2
407(11) 0.00781 330.5 39.7
396(11) 0.00866 330.5 38.2
399(10) 0.00938 330.5 36.7
383(10) 0.00947 330.4 35.3
381(11) 0.00861 330.4 33.9
366(10) 0.00915 330.4 32.6
390(10) 0.00912 330.4 31.2
382(10) 0.00961 330.3 30.0
350(10) 0.01056 330.3 28.7
362(10) 0.00973 330.3 27.6
365(10) 0.00916 330.2 26.4
353(10) 0.00997 330.2 25.3
358(10) 0.01038 330.2 24.3
386(10) 0.00937 330.2 23.2
361(10) 0.00993 330.1 22.3
364(11) 0.00901 330.1 21.3
368(10) 0.00950 330.1 20.4
363(10) 0.01024 330.0 19.6
334(10) 0.01073 330.0 18.8
364(10) 0.00937 330.0 18.0
366(10) 0.00932 330.0 17.2
337(10) 0.01050 329.9 16.5
362(10) 0.01024 329.9 15.8
354(10) 0.00993 329.9 15.2
358(10) 0.00962 329.9 14.6
339(10) 0.01009 329.8 14.0
348(10) 0.01029 329.8 13.4
354(10) 0.01039 329.8 12.9
341(10) 0.01008 329.7 12.4
331(10) 0.01000 329.7 11.9
365(11) 0.00899 329.7 11.5
355(10) 0.01040 329.7 11.1
335(10) 0.01103 329.6 10.7
338(10) 0.01045 329.6 10.3
357(10) 0.00951 329.6 9.9
375(10) 0.00916 329.6 9.6
377(10) 0.00963 329.5 9.3
337(10) 0.01097 329.5 9.0
325(10) 0.01036 329.5 8.7
334(10) 0.00983 329.4 8.4
338(10) 0.01002 329.4 8.1
335(9) 0.01110 329.4 7.9
341(10) 0.01086 329.4 7.7
315(10) 0.01092 329.3 7.5
335(10) 0.00971 329.3 7.3
350(10) 0.01015 329.3 7.1
339(10) 0.01100 329.3 6.9
367(10) 0.00982 329.2 6.8
339(10) 0.01046 329.2 6.6
336(10) 0.00946 329.2 6.5
318(10) 0.01085 329.1 6.3
337(10) 0.01084 329.1 6.2
341(10) 0.01080 329.1 6.1
355(10) 0.01008 329.1 5.9
371(11) 0.00879 329.0 5.8
332(10) 0.01058 329.0 5.7
321(9) 0.01161 329.0 5.6
329(9) 0.01118 329.0 5.5
327(10) 0.01064 328.9 5.4
351(10) 0.00907 328.9 5.3
357(10) 0.00964 328.9 5.2
311(9) 0.01194 328.8 5.1
335(10) 0.01060 328.8 5.0
333(10) 0.01050 328.8 5.0
321(10) 0.01025 328.8 4.9
320(10) 0.01058 328.7 4.8
346(10) 0.01070 328.7 4.7
319(9) 0.01132 328.7 4.7
310(9) 0.01119 328.7 4.6
325(10) 0.00991 328.6 4.5
346(10) 0.00959 328.6 4.5
332(9) 0.01111 328.6 4.4
332(10) 0.01082 328.5 4.3
354(10) 0.00960 328.5 4.3
337(10) 0.01022 328.5 4.2
331(10) 0.01062 328.5 4.2
356(10) 0.01054 328.4 4.1
326(10) 0.01077 328.4 4.0
323(10) 0.01006 328.4 4.0
349(10) 0.00950 328.4 4.0
339(10) 0.01030 328.3 3.9
321(9) 0.01161 328.3 3.9
328(10) 0.01082 328.3 3.8
359(10) 0.00951 328.2 3.8
354(10) 0.00974 328.2 3.7
331(10) 0.01097 328.2 3.7
331(9) 0.01119 328.2 3.7
338(10) 0.00980 328.1 3.6
351(10) 0.00921 328.1 3.6
347(10) 0.00987 328.1 3.6
358(10) 0.00995 328.1 3.5
335(9) 0.01111 328.0 3.5
332(10) 0.01006 328.0 3.5
336(10) 0.00963 328.0 3.5
344(10) 0.01006 327.9 3.4
337(10) 0.01068 327.9 3.4
348(10) 0.01079 327.9 3.4
324(10) 0.01084 327.9 3.4
332(10) 0.00982 327.8 3.3
333(10) 0.01057 327.8 3.3
327(9) 0.01120 327.8 3.3
303(9) 0.01221 327.8 3.3
296(9) 0.01205 327.7 3.2
327(10) 0.00975 327.7 3.2
358(10) 0.00967 327.7 3.2
333(9) 0.01121 327.6 3.2
347(10) 0.01057 327.6 3.2
322(9) 0.01137 327.6 3.1
347(10) 0.00977 327.6 3.1
342(10) 0.01051 327.5 3.1
336(10) 0.01108 327.5 3.1
336(10) 0.01087 327.5 3.1
340(10) 0.01025 327.5 3.1
320(10) 0.01034 327.4 3.1
299(9) 0.01130 327.4 3.1
355(10) 0.01050 327.4 3.0
322(9) 0.01117 327.3 3.0
335(10) 0.01021 327.3 3.0
341(10) 0.00987 327.3 3.0
321(10) 0.01097 327.3 3.0
335(10) 0.01098 327.2 3.0
332(10) 0.01065 327.2 3.0
321(10) 0.01102 327.2 3.0
334(10) 0.01007 327.2 3.0
319(9) 0.01108 327.1 3.0
337(10) 0.01098 327.1 3.0
308(9) 0.01133 327.1 3.0
337(10) 0.00984 327.1 3.0
328(10) 0.01064 327.1 3.0
339(10) 0.01052 327.1 3.0
353(10) 0.01051 327.1 3.0
326(10) 0.01073 327.0 3.0
333(10) 0.00981 327.0 3.0
320(10) 0.01095 327.0 3.0
345(10) 0.01049 327.0 3.0
333(9) 0.01125 327.0 3.0
331(10) 0.01046 327.0 3.0
331(10) 0.01045 327.0 3.0
314(9) 0.01136 326.9 3.0
333(10) 0.01071 326.9 3.0
340(10) 0.01091 326.9 3.0
332(10) 0.00967 326.9 3.0
315(10) 0.01018 326.9 3.0
325(10) 0.01093 326.9 3.1
325(9) 0.01140 326.9 3.1
332(9) 0.01115 326.9 3.1
301(9) 0.01134 326.8 3.1
324(10) 0.01007 326.8 3.1
348(10) 0.01007 326.8 3.1
327(9) 0.01155 326.8 3.1
343(10) 0.01071 326.8 3.2
330(10) 0.01097 326.8 3.2
326(10) 0.01012 326.8 3.2
330(10) 0.00985 326.8 3.2
331(9) 0.01141 326.7 3.2
330(9) 0.01109 326.7 3.3
325(10) 0.01100 326.7 3.3
324(10) 0.01047 326.7 3.3
349(10) 0.01008 326.7 3.4
353(10) 0.01054 326.7 3.4
354(10) 0.01028 326.7 3.4
319(10) 0.01097 326.6 3.5
321(10) 0.01032 326.6 3.5
315(9) 0.01135 326.6 3.5
322(9) 0.01139 326.6 3.6
336(10) 0.01046 326.6 3.6
338(10) 0.01034 326.6 3.6
345(10) 0.00968 326.6 3.7
344(10) 0.01037 326.6 3.7
326(9) 0.01133 326.5 3.8
328(10) 0.01082 326.5 3.9
340(10) 0.00976 326.5 4.0
333(10) 0.00992 326.5 4.0
343(10) 0.01047 326.5 4.1
338(10) 0.01088 326.5 4.1
319(10) 0.01098 326.5 4.2
322(10) 0.01054 326.5 4.3
323(10) 0.01075 326.4 4.4
298(9) 0.01213 326.4 4.4
296(9) 0.01262 326.4 4.5
332(10) 0.01007 326.4 4.6
324(10) 0.01027 326.4 4.7
311(10) 0.01108 326.4 4.8
333(10) 0.01084 326.4 4.9
317(9) 0.01186 326.4 5.0
325(10) 0.01070 326.3 5.1
339(10) 0.01026 326.3 5.3
363(10) 0.00971 326.3 5.4
342(10) 0.01078 326.3 5.5
324(9) 0.01152 326.3 5.7
339(10) 0.01018 326.3 5.8
318(10) 0.01047 326.3 6.0
352(10) 0.00923 326.2 6.2
326(9) 0.01117 326.2 6.4
297(9) 0.01236 326.2 6.6
324(10) 0.01054 326.2 6.8
325(10) 0.00990 326.2 7.1
340(10) 0.01000 326.2 7.4
312(9) 0.01187 326.2 7.7
335(10) 0.01107 326.2 8.0
337(10) 0.01009 326.1 8.4
334(10) 0.00956 326.1 8.8
363(10) 0.00939 326.1 9.2
351(10) 0.01056 326.1 9.7
339(10) 0.01079 326.1 10.2
343(10) 0.01018 326.1 10.8
343(10) 0.00958 326.1 11.4
335(10) 0.01087 326.1 12.1
348(10) 0.01075 326.0 12.9
324(9) 0.01135 326.0 13.7
342(10) 0.01022 326.0 14.6
331(10) 0.01026 326.0 15.6
348(10) 0.00986 326.0 16.7
373(10) 0.01000 326.0 17.9
361(10) 0.00992 326.0 19.1
363(10) 0.00921 326.0 20.5
330(10) 0.01040 325.9 21.9
341(10) 0.01044 325.9 23.5
363(10) 0.01022 325.9 25.1
349(10) 0.01033 325.9 26.9
379(10) 0.00921 325.9 28.7
364(10) 0.00938 325.9 30.7
360(10) 0.00976 325.9 32.7
360(10) 0.01032 325.8 34.8
371(11) 0.00892 325.8 37.1
356(10) 0.00954 325.8 39.3
368(10) 0.00949 325.8 41.7
377(10) 0.00958 325.8 44.1
380(10) 0.00981 325.8 46.5
356(10) 0.00963 325.8 48.9
373(11) 0.00893 325.8 51.3
371(10) 0.00908 325.7 53.6
397(11) 0.00852 325.7 55.8
368(10) 0.01016 325.7 57.9
364(10) 0.00947 325.7 59.8
395(11) 0.00828 325.7 61.5
405(11) 0.00834 325.7 63.0
384(10) 0.00920 325.7 64.1
386(10) 0.00966 325.7 65.0
390(11) 0.00873 325.6 65.5
383(11) 0.00863 325.6 65.7
372(10) 0.00938 325.6 65.6
389(10) 0.00936 325.6 65.2
407(10) 0.00914 325.6 64.6
397(11) 0.00868 325.6 63.9
386(11) 0.00828 325.6 63.2
419(11) 0.00791 325.5 62.8
394(10) 0.00937 325.5 63.4
372(10) 0.00997 325.5 65.7
357(10) 0.00995 325.5 70.8
422(11) 0.00758 325.5 79.4
418(11) 0.00849 325.5 91.8
447(11) 0.00822 325.5 106.8
454(11) 0.00824 325.5 121.6
456(11) 0.00776 325.4 131.4
488(12) 0.00662 325.4 131.3
437(11) 0.00804 325.4 120.3
400(10) 0.00921 325.4 102.3
440(11) 0.00838 325.4 82.6
374(10) 0.00947 325.4 64.7
381(11) 0.00852 325.4 50.5
375(10) 0.00942 325.4 40.2
360(10) 0.01041 325.3 33.1
344(10) 0.01065 325.3 28.4
329(10) 0.01089 325.3 25.2
346(10) 0.00963 325.3 22.8
360(10) 0.00975 325.3 20.9
339(10) 0.01096 325.3 19.3
349(10) 0.01021 325.3 17.9
369(11) 0.00891 325.3 16.6
342(10) 0.00984 325.2 15.3
317(9) 0.01110 325.2 14.3
315(9) 0.01180 325.2 13.4
338(10) 0.01052 325.2 12.6
325(10) 0.01063 325.2 11.9
345(10) 0.00980 325.2 11.2
325(10) 0.01074 325.2 10.6
344(10) 0.01089 325.1 10.1
346(10) 0.00991 325.1 9.6
305(10) 0.01099 325.1 9.2
313(10) 0.01098 325.1 8.8
343(10) 0.01060 325.1 8.4
358(10) 0.01044 325.1 8.1
340(10) 0.01018 325.1 7.8
343(10) 0.01004 325.1 7.5
320(10) 0.01096 325.0 7.3
336(10) 0.01078 325.0 7.1
361(10) 0.01031 325.0 6.9
332(10) 0.01093 325.0 6.7
345(10) 0.00962 325.0 6.5
331(10) 0.01061 325.0 6.4
335(10) 0.01101 325.0 6.2
335(10) 0.01105 325.0 6.1
312(9) 0.01113 324.9 6.0
322(10) 0.01026 324.9 5.9
311(9) 0.01164 324.9 5.7
334(10) 0.01086 324.9 5.7
330(9) 0.01135 324.9 5.6
353(10) 0.00975 324.9 5.5
329(10) 0.01014 324.9 5.4
332(10) 0.01038 324.9 5.3
290(9) 0.01297 324.8 5.3
318(9) 0.01174 324.8 5.2
344(10) 0.01046 324.8 5.2
348(10) 0.00956 324.8 5.1
324(10) 0.01098 324.8 5.1
311(9) 0.01200 324.8 5.0
330(9) 0.01111 324.8 5.0
330(10) 0.01029 324.7 5.0
318(10) 0.01062 324.7 5.0
312(9) 0.01146 324.7 4.9
324(9) 0.01150 324.7 4.9
312(9) 0.01188 324.7 4.9
334(10) 0.00979 324.7 4.9
329(10) 0.01019 324.7 4.9
349(10) 0.01015 324.7 4.9
339(10) 0.01090 324.6 4.9
338(10) 0.01070 324.6 4.9
336(10) 0.00988 324.6 4.9
315(10) 0.01054 324.6 5.0
334(10) 0.01024 324.6 5.0
322(9) 0.01148 324.6 5.0
342(10) 0.01064 324.6 5.0
315(9) 0.01118 324.6 5.1
344(10) 0.00984 324.5 5.1
337(10) 0.01035 324.5 5.1
328(9) 0.01144 324.5 5.2
324(10) 0.01048 324.5 5.2
332(10) 0.01045 324.5 5.3
323(10) 0.01067 324.5 5.3
321(10) 0.01107 324.5 5.4
320(9) 0.01164 324.4 5.5
332(10) 0.01023 324.4 5.6
335(10) 0.01016 324.4 5.6
350(10) 0.01001 324.4 5.7
348(10) 0.01042 324.4 5.8
343(10) 0.01079 324.4 5.9
361(10) 0.00976 324.4 6.0
351(10) 0.00944 324.4 6.1
326(10) 0.01054 324.3 6.2
335(10) 0.01084 324.3 6.3
330(9) 0.01135 324.3 6.4
335(10) 0.01001 324.3 6.6
326(10) 0.01022 324.3 6.7
338(10) 0.01008 324.3 6.9
343(10) 0.01068 324.3 7.0
325(9) 0.01145 324.3 7.2
326(10) 0.01069 324.2 7.3
297(9) 0.01141 324.2 7.5
309(9) 0.01143 324.2 7.7
331(9) 0.01118 324.2 7.9
324(9) 0.01132 324.2 8.1
318(10) 0.01092 324.2 8.3
343(10) 0.00958 324.2 8.5
319(9) 0.01115 324.2 8.7
323(9) 0.01141 324.1 9.0
321(9) 0.01143 324.1 9.3
318(9) 0.01114 324.1 9.5
336(10) 0.00981 324.1 9.8
329(10) 0.01084 324.1 10.2
334(9) 0.01108 324.1 10.5
342(10) 0.01088 324.1 10.9
306(9) 0.01123 324.0 11.3
325(10) 0.01021 324.0 11.7
319(10) 0.01074 324.0 12.2
316(9) 0.01185 324.0 12.7
333(10) 0.01051 324.0 13.3
336(10) 0.01049 324.0 13.9
337(10) 0.00983 324.0 14.6
332(10) 0.01051 324.0 15.4
322(9) 0.01151 323.9 16.3
337(10) 0.01057 323.9 17.2
313(9) 0.01148 323.9 18.2
349(10) 0.00968 323.9 19.4
318(10) 0.01108 323.9 20.6
348(10) 0.01068 323.9 21.9
340(10) 0.01039 323.9 23.3
347(10) 0.00984 323.9 24.8
356(10) 0.00926 323.8 26.4
332(10) 0.01056 323.8 28.1
324(9) 0.01154 323.8 29.9
347(10) 0.00965 323.8 31.6
345(10) 0.01009 323.8 33.4
350(10) 0.01022 323.8 35.1
354(10) 0.01022 323.8 36.7
352(10) 0.01063 323.7 38.2
347(10) 0.01032 323.7 39.5
372(11) 0.00894 323.7 40.5
384(11) 0.00902 323.7 41.3
360(10) 0.01023 323.7 41.8
344(10) 0.01082 323.7 42.2
371(10) 0.00934 323.7 42.3
373(11) 0.00887 323.7 42.4
346(10) 0.01017 323.6 42.5
367(10) 0.00987 323.6 42.6
352(10) 0.01061 323.6 42.9
375(10) 0.00916 323.6 43.4
361(10) 0.00913 323.6 44.2
362(10) 0.00955 323.6 45.4
351(10) 0.01049 323.6 46.9
362(10) 0.01023 323.6 48.8
371(11) 0.00897 323.5 51.3
357(11) 0.00893 323.5 54.2
361(10) 0.00981 323.5 57.6
378(10) 0.00993 323.5 61.4
390(10) 0.00938 323.5 65.7
400(11) 0.00879 323.5 70.5
371(10) 0.00908 323.5 75.6
382(10) 0.00929 323.5 81.0
402(10) 0.00936 323.4 86.8
427(11) 0.00865 323.4 92.9
453(11) 0.00768 323.4 99.4
424(11) 0.00804 323.4 106.1
439(11) 0.00774 323.4 113.2
423(11) 0.00880 323.4 120.5
468(11) 0.00778 323.4 128.0
485(12) 0.00752 323.3 135.5
500(12) 0.00676 323.3 142.9
496(12) 0.00698 323.3 149.8
516(12) 0.00723 323.3 156.1
512(12) 0.00707 323.3 161.4
493(12) 0.00699 323.3 165.6
528(13) 0.00634 323.3 168.2
511(12) 0.00696 323.3 169.1
478(11) 0.00774 323.2 168.3
486(11) 0.00760 323.2 165.7
484(12) 0.00708 323.2 161.6
485(12) 0.00703 323.2 156.0
485(12) 0.00723 323.2 149.2
468(11) 0.00789 323.2 141.6
435(11) 0.00810 323.2 133.4
441(11) 0.00797 323.2 125.0
460(12) 0.00746 323.1 116.4
436(11) 0.00831 323.1 107.8
422(11) 0.00881 323.1 99.4
384(10) 0.00940 323.1 91.3
408(11) 0.00829 323.1 83.6
398(11) 0.00862 323.1 76.4
394(10) 0.00928 323.1 69.6
399(10) 0.00941 323.1 63.4
399(11) 0.00882 323.0 57.6
389(11) 0.00855 323.0 52.3
397(11) 0.00852 323.0 47.5
370(10) 0.00993 323.0 43.2
368(10) 0.01019 323.0 39.3
340(10) 0.01063 323.0 35.9
326(10) 0.01017 323.0 32.8
347(10) 0.00992 322.9 30.0
352(10) 0.01022 322.9 27.7
342(10) 0.01091 322.9 25.6
342(10) 0.01020 322.9 23.7
334(10) 0.00986 322.9 22.0
351(10) 0.00991 322.9 20.5
350(10) 0.01068 322.9 19.2
331(9) 0.01125 322.9 18.1
324(10) 0.01087 322.8 17.0
358(11) 0.00907 322.8 16.1
380(10) 0.00907 322.8 15.3
351(10) 0.01062 322.8 14.5
331(10) 0.01099 322.8 13.9
332(10) 0.01053 322.8 13.2
351(10) 0.00925 322.8 12.7
334(10) 0.01011 322.8 12.2
330(9) 0.01131 322.7 11.7
351(10) 0.01019 322.7 11.3
337(10) 0.01030 322.7 10.9
305(9) 0.01119 322.7 10.5
330(10) 0.01067 322.7 10.2
336(9) 0.01118 322.7 9.9
330(10) 0.01098 322.7 9.5
361(10) 0.00914 322.6 9.3
333(10) 0.00998 322.6 9.0
337(10) 0.01043 322.6 8.7
350(10) 0.01069 322.6 8.5
342(10) 0.01045 322.6 8.3
313(10) 0.01091 322.6 8.1
327(10) 0.01026 322.6 7.9
330(10) 0.01081 322.6 7.7
331(9) 0.01127 322.5 7.5
327(10) 0.01067 322.5 7.4
323(10) 0.01053 322.5 7.2
318(9) 0.01117 322.5 7.1
327(10) 0.01087 322.5 6.9
320(9) 0.01155 322.5 6.8
341(10) 0.00985 322.5 6.7
307(10) 0.01060 322.5 6.5
297(9) 0.01178 322.4 6.4
329(10) 0.01104 322.4 6.3
310(9) 0.01206 322.4 6.2
310(9) 0.01114 322.4 6.1
319(10) 0.01049 322.4 6.1
345(10) 0.00980 322.4 6.0
315(9) 0.01149 322.4 5.9
320(9) 0.01158 322.4 5.9
334(10) 0.01055 322.3 5.8
336(10) 0.00965 322.3 5.7
328(10) 0.01023 322.3 5.7
314(9) 0.01158 322.3 5.6
318(9) 0.01122 322.3 5.5
303(9) 0.01167 322.3 5.5
314(10) 0.01036 322.3 5.4
313(9) 0.01111 322.2 5.4
301(9) 0.01216 322.2 5.4
324(9) 0.01124 322.2 5.3
337(10) 0.01056 322.2 5.3
340(10) 0.00965 322.2 5.2
350(10) 0.00954 322.2 5.2
326(9) 0.01140 322.2 5.2
345(10) 0.01044 322.2 5.2
285(9) 0.01236 322.1 5.1
305(10) 0.01065 322.1 5.1
318(10) 0.01076 322.1 5.1
309(9) 0.01195 322.1 5.1
327(9) 0.01120 322.1 5.1
308(9) 0.01168 322.1 5.1
328(10) 0.00998 322.1 5.0
323(10) 0.01080 322.1 5.0
335(9) 0.01133 322.2 5.0
342(10) 0.01037 322.2 5.0
322(10) 0.01062 322.2 5.0
321(10) 0.01042 322.2 5.1
300(9) 0.01160 322.2 5.1
323(9) 0.01142 322.2 5.1
337(10) 0.01105 322.2 5.1
307(9) 0.01151 322.2 5.1
320(10) 0.01031 322.2 5.1
319(10) 0.01100 322.2 5.2
303(9) 0.01228 322.2 5.2
312(9) 0.01157 322.2 5.3
314(10) 0.01097 322.2 5.3
332(10) 0.01046 322.2 5.4
345(10) 0.01056 322.2 5.4
334(9) 0.01111 322.2 5.5
334(10) 0.01024 322.2 5.5
308(9) 0.01120 322.2 5.6
330(10) 0.01014 322.2 5.7
316(9) 0.01144 322.2 5.8
332(9) 0.01123 322.2 5.9
331(10) 0.01046 322.2 6.0
333(10) 0.00987 322.2 6.1
305(9) 0.01163 322.2 6.3
321(9) 0.01136 322.2 6.4
309(9) 0.01206 322.2 6.5
316(10) 0.01097 322.2 6.7
311(10) 0.01035 322.2 6.9
318(10) 0.01067 322.2 7.1
295(9) 0.01264 322.2 7.3
312(9) 0.01188 322.2 7.6
331(10) 0.01055 322.2 7.8
315(10) 0.01059 322.2 8.1
317(9) 0.01109 322.2 8.5
342(10) 0.01102 322.3 8.8
320(9) 0.01149 322.3 9.2
319(10) 0.01101 322.3 9.7
333(10) 0.00975 322.3 10.2
339(10) 0.01023 322.3 10.8
338(9) 0.01110 322.3 11.5
331(9) 0.01134 322.3 12.2
329(10) 0.01087 322.3 13.1
336(10) 0.00967 322.3 14.2
320(10) 0.01104 322.3 15.4
341(10) 0.01092 322.3 17.0
322(9) 0.01132 322.3 19.0
345(10) 0.00994 322.3 21.7
355(10) 0.00926 322.3 25.3
366(10) 0.00942 322.3 29.8
389(10) 0.00951 322.3 35.9
404(11) 0.00894 322.3 43.7
384(11) 0.00882 322.3 53.7
377(11) 0.00876 322.3 66.1
373(10) 0.00915 322.3 81.0
448(11) 0.00819 322.3 98.2
460(11) 0.00771 322.3 117.0
492(12) 0.00716 322.3 136.2
542(13) 0.00614 322.3 154.4
528(12) 0.00647 322.3 169.7
519(12) 0.00709 322.3 180.4
537(12) 0.00646 322.3 184.7
509(12) 0.00657 322.3 181.5
493(12) 0.00663 322.3 170.9
498(12) 0.00714 322.3 155.0
451(11) 0.00823 322.3 136.5
440(11) 0.00781 322.3 117.8
417(11) 0.00813 322.3 100.7
412(11) 0.00833 322.3 86.2
395(11) 0.00903 322.4 75.1
403(10) 0.00910 322.4 67.6
429(11) 0.00763 322.4 63.6
403(11) 0.00800 322.4 62.9
382(10) 0.00915 322.4 64.8
386(10) 0.00945 322.4 68.4
410(11) 0.00902 322.4 72.6
428(11) 0.00822 322.4 75.6
398(11) 0.00834 322.4 75.8
410(11) 0.00830 322.4 72.5
404(11) 0.00902 322.4 66.3
369(10) 0.01013 322.4 58.5
363(10) 0.00943 322.4 50.4
365(11) 0.00904 322.4 43.0
379(10) 0.00927 322.4 36.7
351(10) 0.01014 322.4 31.6
363(10) 0.01024 322.4 27.8
350(10) 0.01011 322.4 25.0
348(10) 0.00918 322.4 23.2
339(10) 0.01028 322.4 22.1
323(9) 0.01159 322.4 21.5
345(10) 0.01065 322.4 21.3
348(10) 0.00967 322.4 21.5
351(10) 0.00938 322.4 22.1
390(11) 0.00862 322.4 23.0
347(10) 0.01071 322.4 24.4
368(10) 0.00987 322.4 26.4
383(11) 0.00891 322.4 29.2
363(11) 0.00905 322.4 33.1
382(11) 0.00893 322.4 38.4
390(10) 0.00942 322.4 45.5
383(10) 0.00939 322.4 54.6
396(11) 0.00848 322.4 66.1
404(11) 0.00825 322.5 80.0
405(11) 0.00846 322.5 96.2
434(11) 0.00860 322.5 114.3
462(11) 0.00783 322.5 133.2
465(12) 0.00755 322.5 151.4
521(12) 0.00646 322.5 166.4
514(12) 0.00690 322.5 175.5
522(12) 0.00710 322.5 176.6
504(12) 0.00693 322.5 169.4
514(12) 0.00665 322.5 155.7
487(12) 0.00704 322.5 138.2
443(11) 0.00806 322.5 119.4
432(11) 0.00867 322.5 101.1
403(11) 0.00863 322.5 84.5
387(11) 0.00892 322.5 70.2
391(11) 0.00888 322.5 58.2
369(10) 0.00973 322.5 48.7
349(10) 0.01060 322.5 41.2
373(11) 0.00888 322.5 35.6
347(10) 0.00970 322.5 31.4
347(10) 0.01034 322.5 28.4
356(10) 0.01025 322.5 26.1
352(10) 0.01051 322.5 24.5
333(10) 0.01036 322.5 23.3
343(10) 0.00936 322.5 22.4
341(10) 0.01005 322.5 21.6
342(10) 0.01069 322.5 21.1
373(10) 0.01007 322.5 20.7
324(9) 0.01134 322.5 20.4
319(10) 0.01031 322.5 20.2
327(10) 0.01061 322.5 20.1
336(10) 0.01088 322.5 20.0
325(9) 0.01137 322.5 20.0
335(10) 0.01054 322.5 20.1
343(10) 0.00950 322.6 20.2
329(10) 0.01060 322.6 20.3
361(10) 0.01022 322.6 20.4
334(9) 0.01120 322.6 20.6
335(10) 0.01056 322.6 20.8
357(11) 0.00898 322.6 21.0
340(10) 0.01012 322.6 21.2
336(9) 0.01112 322.6 21.5
325(9) 0.01128 322.6 21.8
331(10) 0.01061 322.6 22.1
370(10) 0.00919 322.6 22.5
360(10) 0.00963 322.6 22.8
332(9) 0.01113 322.6 23.2
347(10) 0.01052 322.6 23.6
369(10) 0.00971 322.6 24.0
385(11) 0.00832 322.6 24.5
345(10) 0.00988 322.6 24.9
344(10) 0.01080 322.6 25.4
344(10) 0.01038 322.6 25.9
339(10) 0.00964 322.6 26.5
346(10) 0.00964 322.6 27.0
321(10) 0.01069 322.6 27.6
344(10) 0.01079 322.6 28.2
345(10) 0.01063 322.6 28.9
368(10) 0.00927 322.6 29.6
351(10) 0.00975 322.6 30.3
361(10) 0.00961 322.6 31.0
359(10) 0.01042 322.6 31.8
374(10) 0.00934 322.6 32.6
342(10) 0.00990 322.6 33.5
346(10) 0.01013 322.6 34.4
346(10) 0.01057 322.6 35.4
331(9) 0.01122 322.6 36.4
352(10) 0.00997 322.7 37.5
356(10) 0.00947 322.7 38.7
351(10) 0.01030 322.7 39.9
378(10) 0.00960 322.7 41.4
372(10) 0.01006 322.7 43.0
388(11) 0.00903 322.7 45.2
379(11) 0.00884 322.7 48.0
371(10) 0.00917 322.7 52.1
363(10) 0.01002 322.7 57.8
392(10) 0.00934 322.7 65.6
438(11) 0.00801 322.7 75.7
440(12) 0.00732 322.7 87.7
419(11) 0.00842 322.7 100.3
455(11) 0.00794 322.7 111.6
484(11) 0.00772 322.7 118.4
485(12) 0.00716 322.7 118.3
445(12) 0.00751 322.7 111.7
422(11) 0.00826 322.7 101.2
432(11) 0.00845 322.7 89.9
395(10) 0.00948 322.7 79.5
415(11) 0.00817 322.7 71.2
371(11) 0.00880 322.7 65.1
391(11) 0.00894 322.7 61.0
371(10) 0.01000 322.7 58.5
384(10) 0.00965 322.7 57.2
380(10) 0.00932 322.7 56.6
362(10) 0.00947 322.7 56.5
367(10) 0.00931 322.7 56.9
382(10) 0.00967 322.7 57.6
407(10) 0.00909 322.7 58.7
375(10) 0.00947 322.7 60.2
407(11) 0.00804 322.7 62.0
347(10) 0.01054 322.7 64.3
384(10) 0.00960 322.7 66.9
415(11) 0.00879 322.8 69.9
388(10) 0.00909 322.8 73.2
409(11) 0.00790 322.8 76.6
436(12) 0.00740 322.8 79.9
433(11) 0.00852 322.8 82.9
433(11) 0.00850 322.8 85.3
437(11) 0.00791 322.8 86.7
431(11) 0.00800 322.8 86.8
429(11) 0.00819 322.8 85.5
409(11) 0.00905 322.8 82.8
436(11) 0.00817 322.8 79.0
389(11) 0.00851 322.8 74.5
429(11) 0.00768 322.8 69.4
400(11) 0.00887 322.8 64.3
377(10) 0.00986 322.8 59.2
377(10) 0.00947 322.8 54.4
386(11) 0.00863 322.8 49.9
371(10) 0.00922 322.8 45.9
365(10) 0.00979 322.8 42.3
364(10) 0.01012 322.8 39.1
367(10) 0.00962 322.8 36.4
345(10) 0.00999 322.8 34.1
369(10) 0.00931 322.8 32.1
341(10) 0.01084 322.8 30.5
351(10) 0.01051 322.8 29.2
350(10) 0.00986 322.8 28.1
325(10) 0.01049 322.8 27.2
347(10) 0.01003 322.8 26.5
325(9) 0.01119 322.8 26.0
362(10) 0.01031 322.8 25.6
351(10) 0.01008 322.8 25.3
326(10) 0.01027 322.8 25.1
320(10) 0.01084 322.8 25.0
336(10) 0.01093 322.8 25.0
378(10) 0.00984 322.9 25.0
359(10) 0.00991 322.9 25.2
347(10) 0.00922 322.9 25.4
355(10) 0.00963 322.9 25.7
355(10) 0.01048 322.9 26.0
357(10) 0.01017 322.9 26.5
344(10) 0.00982 322.9 27.0
354(10) 0.00934 322.9 27.5
366(10) 0.00959 322.9 28.2
351(10) 0.01046 322.9 28.9
341(10) 0.01081 322.9 29.8
354(10) 0.01010 322.9 30.7
335(10) 0.00990 322.9 31.6
320(10) 0.01089 322.9 32.7
352(10) 0.01070 322.9 33.9
351(10) 0.01041 322.9 35.1
333(10) 0.01055 322.9 36.5
355(10) 0.00946 322.9 37.9
365(10) 0.00918 322.9 39.5
373(10) 0.01001 322.9 41.1
349(10) 0.01015 322.9 42.9
344(10) 0.00961 322.9 44.8
365(11) 0.00901 322.9 46.8
354(10) 0.00984 322.9 49.0
346(10) 0.01067 322.9 51.3
368(10) 0.00969 322.9 53.8
373(10) 0.00910 322.9 56.5
358(10) 0.00980 322.9 59.3
369(10) 0.00979 322.9 62.3
387(10) 0.00956 322.9 65.6
396(11) 0.00869 322.9 69.0
378(11) 0.00891 322.9 72.7
366(10) 0.00958 322.9 76.5
389(10) 0.00929 323.0 80.7
390(10) 0.00945 323.0 85.0
375(10) 0.00910 323.0 89.6
378(11) 0.00906 323.0 94.4
406(11) 0.00863 323.0 99.4
399(10) 0.00924 323.0 104.7
396(10) 0.00943 323.0 110.1
440(11) 0.00803 323.0 115.7
421(11) 0.00788 323.0 121.4
433(11) 0.00796 323.0 127.2
453(11) 0.00805 323.0 133.1
427(11) 0.00872 323.0 138.9
462(11) 0.00767 323.0 144.6
447(12) 0.00741 323.0 150.2
444(11) 0.00789 323.0 155.5
450(11) 0.00819 323.0 160.3
491(11) 0.00757 323.0 164.6
465(11) 0.00757 323.0 168.1
467(12) 0.00699 323.0 170.8
479(12) 0.00727 323.0 172.3
452(11) 0.00805 323.0 172.7
452(11) 0.00827 323.0 171.8
472(12) 0.00721 323.0 169.7
457(12) 0.00711 323.0 166.4
437(11) 0.00800 323.0 162.0
466(11) 0.00798 323.0 156.7
452(11) 0.00803 323.0 150.7
438(11) 0.00781 323.0 144.2
419(11) 0.00773 323.0 137.4
414(11) 0.00818 323.0 130.5
430(11) 0.00857 323.0 123.5
432(11) 0.00863 323.0 116.7
425(11) 0.00804 323.0 110.1
422(11) 0.00771 323.0 103.8
377(10) 0.00921 323.1 97.9
376(10) 0.00992 323.1 92.3
378(10) 0.00961 323.1 87.2
397(11) 0.00881 323.1 82.5
370(10) 0.00918 323.1 78.2
368(10) 0.00935 323.1 74.3
373(10) 0.01006 323.1 70.8
380(11) 0.00897 323.1 67.5
383(11) 0.00904 323.1 64.5
383(11) 0.00880 323.1 61.7
372(10) 0.00944 323.1 59.1
395(10) 0.00940 323.1 56.5
372(10) 0.00921 323.1 54.1
370(10) 0.00917 323.1 51.7
350(10) 0.00997 323.1 49.4
364(10) 0.00954 323.1 47.2
348(10) 0.01064 323.1 45.1
351(10) 0.01023 323.1 43.1
365(10) 0.00923 323.1 41.2
334(10) 0.01085 323.1 39.5
345(10) 0.01066 323.1 37.9
331(9) 0.01119 323.1 36.5
350(10) 0.00962 323.1 35.2
348(10) 0.00979 323.1 34.0
332(10) 0.01032 323.1 33.0
336(10) 0.01049 323.1 32.1
361(10) 0.01023 323.1 31.3
367(10) 0.00956 323.1 30.6
346(10) 0.00980 323.1 30.0
347(10) 0.01019 323.1 29.4
378(10) 0.00964 323.1 29.0
342(10) 0.01099 323.1 28.7
360(10) 0.00930 323.1 28.4
362(11) 0.00887 323.1 28.2
346(10) 0.01022 323.2 28.0
356(10) 0.01029 323.2 28.0
349(10) 0.01062 323.2 27.9
372(10) 0.00936 323.2 27.9
368(11) 0.00880 323.2 28.0
361(10) 0.00963 323.2 28.1
363(10) 0.01012 323.2 28.3
352(10) 0.01061 323.2 28.5
361(10) 0.00978 323.2 28.8
363(11) 0.00905 323.2 29.2
370(10) 0.00927 323.2 29.7
364(10) 0.01024 323.2 30.3
351(10) 0.01054 323.2 31.1
374(10) 0.00933 323.2 32.0
361(10) 0.00936 323.2 33.2
372(10) 0.00942 323.2 34.7
337(10) 0.01093 323.2 36.6
365(10) 0.00985 323.2 39.0
357(10) 0.00969 323.2 41.9
379(11) 0.00884 323.2 45.5
385(10) 0.00922 323.2 49.8
373(10) 0.00994 323.2 55.0
401(10) 0.00910 323.2 61.0
410(11) 0.00840 323.2 67.8
395(11) 0.00861 323.2 75.6
434(11) 0.00785 323.2 84.0
445(11) 0.00834 323.2 93.1
432(11) 0.00820 323.2 102.4
433(11) 0.00784 323.2 111.5
458(12) 0.00746 323.2 119.8
476(12) 0.00746 323.2 126.6
479(11) 0.00774 323.2 131.0
483(12) 0.00729 323.2 132.5
518(12) 0.00649 323.3 130.9
484(12) 0.00718 323.3 126.3
497(12) 0.00724 323.3 119.2
465(11) 0.00799 323.3 110.5
439(11) 0.00814 323.3 100.8
419(11) 0.00798 323.3 91.0
405(11) 0.00859 323.3 81.3
388(10) 0.00965 323.3 72.1
375(10) 0.00991 323.3 63.7
380(10) 0.00925 323.3 56.1
391(11) 0.00862 323.3 49.4
374(10) 0.00930 323.3 43.6
365(10) 0.01021 323.3 38.7
329(9) 0.01123 323.3 34.5
360(10) 0.00954 323.3 31.0
327(10) 0.00989 323.3 28.0
339(10) 0.01040 323.3 25.6
344(10) 0.01085 323.3 23.6
320(9) 0.01134 323.3 21.9
344(10) 0.01062 323.3 20.5
351(10) 0.00960 323.3 19.3
342(10) 0.00987 323.3 18.3
317(9) 0.01185 323.3 17.4
333(10) 0.01108 323.3 16.6
336(10) 0.01034 323.3 15.9
343(10) 0.00941 323.3 15.3
330(10) 0.01076 323.3 14.8
353(10) 0.01052 323.3 14.3
317(9) 0.01155 323.3 13.8
333(10) 0.01084 323.3 13.4
334(10) 0.01013 323.3 13.0
315(9) 0.01114 323.3 12.7
326(9) 0.01133 323.3 12.4
326(10) 0.01101 323.3 12.1
346(10) 0.00973 323.4 11.9
359(10) 0.00944 323.4 11.6
324(9) 0.01109 323.4 11.4
333(9) 0.01123 323.4 11.3
309(9) 0.01152 323.4 11.1
330(10) 0.01008 323.4 11.0
335(10) 0.01014 323.4 10.9
321(10) 0.01081 323.4 10.9
325(9) 0.01145 323.4 10.8
335(10) 0.01035 323.4 10.8
344(10) 0.00982 323.4 10.9
325(10) 0.01059 323.4 10.9
319(10) 0.01098 323.4 11.0
316(9) 0.01177 323.4 11.1
321(9) 0.01131 323.4 11.2
349(10) 0.00973 323.4 11.4
341(10) 0.01020 323.4 11.5
340(10) 0.01077 323.4 11.7
361(10) 0.01032 323.4 11.9
338(10) 0.01054 323.4 12.1
357(10) 0.00952 323.4 12.2
336(10) 0.01055 323.4 12.4
327(10) 0.01089 323.4 12.5
350(10) 0.01059 323.4 12.5
341(10) 0.01029 323.4 12.6
329(10) 0.01032 323.4 12.5
335(10) 0.01019 323.4 12.4
352(10) 0.01015 323.4 12.3
304(9) 0.01239 323.4 12.1
340(10) 0.01009 323.4 11.9
331(10) 0.00988 323.3 11.7
332(10) 0.01071 323.3 11.5
332(9) 0.01119 323.3 11.3
320(9) 0.01160 323.3 11.1
339(10) 0.01005 323.2 10.9
315(10) 0.01047 323.2 10.8
345(10) 0.00971 323.2 10.6
339(10) 0.01106 323.2 10.5
327(10) 0.01106 323.1 10.4
308(10) 0.01107 323.1 10.3
343(10) 0.00984 323.1 10.3
317(9) 0.01132 323.1 10.2
324(9) 0.01136 323.1 10.2
327(9) 0.01125 323.0 10.3
306(9) 0.01123 323.0 10.3
310(9) 0.01109 323.0 10.4
335(10) 0.01029 323.0 10.4
323(9) 0.01143 322.9 10.5
308(9) 0.01176 322.9 10.7
321(10) 0.01086 322.9 10.8
313(10) 0.01087 322.9 11.0
310(9) 0.01157 322.8 11.2
328(9) 0.01132 322.8 11.4
321(9) 0.01129 322.8 11.6
328(10) 0.01049 322.8 11.9
318(10) 0.01077 322.7 12.2
333(10) 0.01059 322.7 12.5
318(9) 0.01174 322.7 12.8
329(10) 0.01065 322.7 13.2
329(10) 0.01009 322.6 13.6
315(10) 0.01056 322.6 14.1
323(10) 0.01089 322.6 14.6
315(9) 0.01183 322.6 15.2
336(10) 0.01037 322.6 15.8
342(10) 0.00984 322.5 16.4
349(10) 0.00952 322.5 17.2
331(10) 0.01089 322.5 18.0
331(9) 0.01133 322.5 18.9
333(10) 0.01028 322.4 19.9
325(10) 0.01054 322.4 21.0
331(10) 0.01064 322.4 22.2
323(10) 0.01104 322.4 23.5
341(10) 0.01087 322.3 24.9
342(10) 0.01021 322.3 26.4
315(10) 0.01072 322.3 28.1
322(10) 0.01081 322.3 29.9
324(9) 0.01152 322.2 31.9
334(9) 0.01117 322.2 34.1
335(10) 0.01051 322.2 36.4
317(10) 0.01057 322.2 38.8
353(10) 0.00964 322.1 41.4
358(10) 0.01051 322.1 44.2
364(10) 0.01019 322.1 47.2
369(10) 0.00949 322.1 50.3
344(10) 0.00973 322.0 53.6
362(10) 0.00950 322.0 57.1
362(10) 0.01021 322.0 60.7
359(10) 0.01031 322.0 64.4
406(11) 0.00835 322.0 68.3
355(10) 0.00916 321.9 72.2
356(10) 0.00976 321.9 76.2
384(10) 0.00970 321.9 80.2
394(10) 0.00926 321.9 84.2
377(10) 0.00933 321.8 88.1
394(11) 0.00848 321.8 91.9
400(11) 0.00863 321.8 95.5
398(10) 0.00927 321.8 98.9
408(11) 0.00888 321.7 102.0
404(11) 0.00856 321.7 104.7
404(11) 0.00834 321.7 106.9
419(11) 0.00829 321.7 108.6
426(11) 0.00869 321.6 109.8
414(11) 0.00868 321.6 110.4
417(11) 0.00819 321.6 110.3
415(11) 0.00805 321.6 109.6
415(11) 0.00854 321.5 108.4
392(10) 0.00945 321.5 106.6
392(10) 0.00916 321.5 104.3
399(11) 0.00859 321.5 101.6
387(11) 0.00886 321.5 98.5
359(10) 0.00992 321.4 95.1
370(10) 0.01005 321.4 91.5
410(11) 0.00851 321.4 87.7
386(11) 0.00885 321.4 83.9
395(11) 0.00860 321.3 80.0
387(11) 0.00895 321.3 76.0
384(10) 0.00965 321.3 72.2
359(10) 0.00938 321.3 68.3
351(10) 0.00962 321.2 64.6
359(10) 0.00961 321.2 61.0
353(10) 0.01016 321.2 57.6
357(10) 0.01051 321.2 54.3
355(10) 0.00948 321.1 51.1
363(11) 0.00894 321.1 48.1
346(10) 0.00996 321.1 45.3
369(10) 0.00977 321.1 42.7
366(10) 0.01010 321.0 40.2
374(10) 0.00925 321.0 38.0
335(10) 0.00988 321.0 35.8
316(10) 0.01071 321.0 33.9
322(9) 0.01123 321.0 32.1
346(10) 0.01086 320.9 30.4
372(10) 0.00924 320.9 28.9
337(10) 0.00962 320.9 27.6
336(10) 0.01011 320.9 26.4
343(10) 0.01087 320.8 25.3
327(9) 0.01132 320.8 24.3
323(10) 0.01085 320.8 23.4
341(10) 0.00946 320.8 22.7
344(10) 0.01021 320.7 22.0
346(10) 0.01046 320.7 21.4
336(10) 0.01091 320.7 21.0
331(10) 0.01023 320.7 20.6
343(10) 0.00955 320.6 20.3
350(10) 0.01011 320.6 20.0
331(9) 0.01109 320.6 19.8
332(10) 0.01090 320.6 19.7
300(9) 0.01155 320.5 19.7
333(10) 0.00986 320.5 19.7
322(10) 0.01098 320.5 19.8
343(10) 0.01085 320.5 20.0
346(10) 0.01038 320.4 20.2
339(10) 0.01005 320.4 20.5
333(10) 0.00995 320.4 20.9
328(10) 0.01036 320.4 21.3
334(10) 0.01103 320.4 21.8
325(10) 0.01108 320.3 22.4
326(10) 0.01057 320.3 23.0
337(10) 0.01017 320.3 23.8
343(10) 0.01023 320.3 24.6
348(10) 0.01083 320.2 25.5
341(10) 0.01032 320.2 26.5
350(10) 0.00959 320.2 27.5
321(9) 0.01110 320.2 28.7
351(10) 0.00989 320.1 30.0
350(10) 0.01070 320.1 31.3
349(10) 0.00972 320.1 32.8
345(10) 0.00978 320.1 34.3
375(10) 0.00920 320.0 36.0
339(10) 0.01077 320.0 37.8
373(10) 0.00984 320.0 39.6
348(10) 0.01006 320.0 41.6
347(10) 0.00968 319.9 43.7
355(10) 0.00990 319.9 45.8
344(10) 0.01071 319.9 48.1
354(10) 0.01055 319.9 50.4
376(10) 0.00948 319.9 52.8
346(10) 0.00959 319.8 55.3
364(11) 0.00905 319.8 57.9
360(10) 0.01000 319.8 60.4
360(10) 0.01039 319.8 63.1
385(11) 0.00904 319.7 65.7
361(10) 0.00931 319.7 68.3
401(11) 0.00880 319.7 70.9
423(11) 0.00880 319.7 73.4
379(10) 0.00973 319.6 75.9
387(11) 0.00886 319.6 78.2
423(11) 0.00762 319.6 80.3
384(10) 0.00918 319.6 82.3
412(11) 0.00893 319.5 84.1
404(10) 0.00925 319.5 85.7
402(11) 0.00848 319.5 86.9
402(11) 0.00839 319.5 87.9
417(11) 0.00831 319.4 88.6
394(10) 0.00944 319.4 89.0
392(10) 0.00938 319.4 89.0
427(11) 0.00789 319.4 88.8
411(11) 0.00782 319.4 88.3
389(11) 0.00883 319.3 87.5
399(10) 0.00934 319.3 86.5
423(11) 0.00855 319.3 85.4
408(11) 0.00851 319.3 84.0
416(11) 0.00785 319.2 82.5
400(11) 0.00862 319.2 81.0
391(10) 0.00958 319.2 79.4
412(11) 0.00863 319.2 77.8
380(10) 0.00908 319.1 76.1
383(11) 0.00887 319.1 74.6
384(10) 0.00936 319.1 73.1
413(11) 0.00902 319.1 71.6
358(10) 0.00995 319.0 70.3
391(11) 0.00841 319.0 69.1
383(11) 0.00898 319.0 68.0
392(11) 0.00905 319.0 67.0
380(10) 0.00984 318.9 66.2
388(11) 0.00905 318.9 65.5
380(11) 0.00902 318.9 64.9
411(11) 0.00812 318.9 64.4
412(11) 0.00871 318.8 64.1
395(10) 0.00938 318.8 63.8
365(10) 0.00942 318.8 63.7
361(10) 0.00909 318.8 63.6
373(10) 0.00916 318.8 63.5
377(10) 0.00954 318.7 63.5
385(10) 0.00963 318.7 63.5
382(10) 0.00925 318.7 63.4
392(11) 0.00822 318.7 63.3
406(11) 0.00843 318.6 63.0
381(10) 0.00957 318.6 62.6
365(10) 0.01018 318.6 62.0
356(10) 0.00978 318.6 61.3
366(11) 0.00852 318.5 60.4
368(10) 0.00960 318.5 59.3
371(10) 0.00993 318.5 58.0
357(10) 0.01034 318.5 56.6
379(11) 0.00898 318.4 55.0
368(11) 0.00885 318.4 53.3
363(10) 0.00949 318.4 51.4
352(10) 0.01068 318.4 49.5
363(10) 0.01005 318.3 47.6
332(10) 0.01071 318.3 45.6
371(11) 0.00876 318.3 43.6
350(10) 0.00976 318.3 41.6
344(10) 0.01077 318.3 39.6
337(10) 0.01091 318.2 37.7
335(10) 0.01033 318.2 35.8
326(10) 0.01003 318.2 33.9
315(10) 0.01105 318.2 32.2
333(9) 0.01112 318.1 30.5
340(10) 0.01082 318.1 28.9
361(10) 0.00945 318.1 27.3
337(10) 0.00979 318.1 25.8
339(10) 0.01030 318.0 24.5
355(10) 0.01038 318.0 23.1
328(9) 0.01109 318.0 21.9
322(10) 0.01070 318.0 20.8
309(10) 0.01074 317.9 19.7
318(10) 0.01051 317.9 18.7
331(9) 0.01120 317.9 17.7
327(10) 0.01092 317.9 16.9
323(10) 0.01068 317.8 16.1
329(10) 0.01026 317.8 15.3
301(9) 0.01216 317.8 14.6
324(9) 0.01146 317.8 14.0
317(10) 0.01085 317.8 13.4
331(10) 0.01021 317.7 12.9
325(10) 0.01077 317.7 12.4
348(10) 0.01048 317.7 11.9
340(10) 0.01082 317.7 11.5
326(10) 0.01058 317.6 11.1
321(10) 0.01043 317.6 10.8
340(10) 0.00989 317.6 10.5
308(9) 0.01192 317.6 10.2
291(9) 0.01274 317.5 9.9
313(9) 0.01123 317.5 9.7
349(10) 0.00925 317.5 9.4
341(10) 0.01012 317.5 9.2
345(10) 0.01053 317.4 9.0
319(9) 0.01165 317.4 8.9
333(10) 0.01044 317.4 8.7
332(10) 0.01006 317.4 8.6
317(9) 0.01131 317.4 8.4
323(9) 0.01128 317.5 8.3
329(9) 0.01143 317.5 8.2
325(10) 0.01060 317.5 8.1
319(10) 0.01012 317.5 8.0
340(10) 0.01029 317.5 7.9
304(9) 0.01196 317.5 7.9
308(9) 0.01196 317.5 7.8
306(9) 0.01121 317.5 7.8
336(10) 0.00943 317.5 7.8
331(10) 0.01053 317.5 7.8
334(9) 0.01116 317.5 7.8
327(9) 0.01135 317.6 7.8
341(10) 0.01001 317.6 7.9
323(10) 0.01001 317.6 7.9
321(10) 0.01062 317.6 8.0
309(9) 0.01201 317.6 8.2
321(9) 0.01150 317.6 8.3
321(10) 0.01039 317.6 8.6
307(10) 0.01091 317.6 8.9
338(10) 0.01006 317.6 9.5
330(9) 0.01134 317.6 10.4
346(10) 0.01040 317.6 12.3
304(9) 0.01154 317.6 16.0
325(10) 0.01016 317.7 23.0
346(10) 0.01000 317.7 34.7
386(10) 0.00959 317.7 52.0
393(11) 0.00905 317.7 73.8
410(11) 0.00857 317.7 95.9
432(11) 0.00770 317.7 111.6
398(11) 0.00893 317.7 113.9
382(10) 0.00974 317.7 101.6
363(10) 0.00991 317.7 80.6
358(10) 0.00952 317.7 58.3
343(10) 0.01006 317.7 39.5
328(10) 0.01099 317.8 26.2
326(9) 0.01150 317.8 18.1
345(10) 0.00983 317.8 13.7
340(10) 0.00979 317.8 11.6
345(10) 0.01010 317.8 10.5
330(10) 0.01071 317.8 10.0
328(9) 0.01134 317.8 9.7
329(10) 0.01002 317.8 9.6
342(10) 0.00961 317.8 9.5
323(10) 0.01102 317.8 9.5
299(9) 0.01223 317.8 9.6
331(9) 0.01145 317.8 9.7
319(10) 0.01053 317.9 9.9
357(11) 0.00868 317.9 10.1
323(10) 0.01091 317.9 10.3
310(9) 0.01154 317.9 10.5
312(9) 0.01184 317.9 10.9
320(10) 0.01080 317.9 11.2
302(10) 0.01105 317.9 11.6
334(10) 0.01062 317.9 12.0
357(10) 0.01032 317.9 12.4
340(10) 0.01073 317.9 13.0
327(10) 0.01054 317.9 13.5
322(10) 0.01024 317.9 14.1
306(9) 0.01140 318.0 14.7
348(10) 0.01065 318.0 15.4
349(10) 0.01024 318.0 16.2
323(10) 0.01088 318.0 16.9
333(10) 0.00992 318.0 17.8
346(10) 0.00996 318.0 18.7
351(10) 0.01057 318.0 19.6
324(9) 0.01126 318.0 20.6
331(10) 0.01036 318.0 21.7
323(10) 0.01016 318.0 22.8
326(10) 0.01022 318.0 23.9
336(10) 0.01104 318.1 25.1
324(10) 0.01095 318.1 26.4
343(10) 0.00985 318.1 27.7
353(10) 0.00917 318.1 29.0
336(10) 0.01032 318.1 30.4
364(10) 0.01016 318.1 31.9
357(10) 0.00986 318.1 33.4
339(10) 0.01001 318.1 34.8
372(11) 0.00904 318.1 36.3
372(10) 0.00938 318.1 37.8
359(10) 0.01034 318.1 39.2
381(10) 0.00935 318.1 40.7
380(11) 0.00899 318.2 42.1
390(11) 0.00863 318.2 43.4
344(10) 0.01056 318.2 44.7
363(10) 0.01017 318.2 45.8
391(10) 0.00919 318.2 46.9
398(11) 0.00876 318.2 47.9
409(11) 0.00842 318.2 48.7
406(11) 0.00887 318.2 49.3
392(10) 0.00943 318.2 49.8
362(10) 0.00957 318.2 50.1
384(11) 0.00841 318.2 50.2
376(10) 0.00908 318.3 50.2
381(10) 0.00933 318.3 49.9
402(10) 0.00919 318.3 49.5
368(10) 0.00938 318.3 48.9
342(10) 0.00970 318.3 48.1
369(10) 0.00941 318.3 47.2
369(10) 0.00983 318.3 46.1
359(10) 0.01039 318.3 45.0
374(10) 0.00943 318.3 43.7
347(10) 0.00945 318.3 42.4
353(10) 0.00936 318.3 41.0
367(10) 0.00993 318.3 39.5
358(10) 0.01041 318.4 38.1
347(10) 0.01015 318.4 36.6
343(10) 0.00934 318.4 35.1
359(10) 0.00955 318.4 33.7
352(10) 0.01057 318.4 32.2
352(10) 0.01052 318.4 30.8
330(10) 0.01054 318.4 29.4
347(10) 0.00928 318.4 28.0
355(10) 0.00960 318.4 26.7
350(10) 0.01066 318.4 25.4
345(10) 0.01062 318.4 24.2
352(10) 0.00994 318.5 23.0
334(10) 0.01006 318.5 21.9
368(10) 0.00935 318.5 20.8
368(10) 0.01010 318.5 19.8
345(10) 0.01044 318.5 18.9
333(10) 0.01039 318.5 18.0
337(10) 0.00980 318.5 17.1
326(10) 0.01093 318.5 16.3
320(9) 0.01165 318.5 15.6
354(10) 0.01002 318.5 14.9
335(10) 0.01030 318.5 14.3
346(10) 0.00962 318.5 13.7
321(9) 0.01138 318.6 13.1
342(10) 0.01080 318.6 12.7
351(10) 0.00992 318.6 12.2
347(10) 0.00979 318.6 11.8
330(10) 0.01030 318.6 11.4
317(9) 0.01112 318.6 11.1
336(9) 0.01112 318.6 10.8
329(10) 0.01061 318.6 10.6
335(10) 0.00998 318.6 10.4
340(10) 0.01010 318.6 10.2
319(9) 0.01114 318.6 10.0
328(9) 0.01126 318.6 9.9
324(10) 0.01079 318.7 9.9
328(10) 0.00984 318.7 9.8
328(10) 0.01014 318.7 9.8
313(9) 0.01143 318.7 9.9
330(9) 0.01122 318.7 10.0
335(10) 0.01041 318.7 10.2
304(9) 0.01122 318.7 10.5
323(10) 0.01092 318.7 10.9
336(9) 0.01108 318.7 11.5
345(10) 0.01077 318.7 12.4
316(9) 0.01147 318.7 13.9
331(10) 0.01016 318.8 16.5
356(10) 0.00957 318.8 20.9
374(10) 0.00988 318.8 28.4
367(10) 0.01005 318.8 40.2
377(10) 0.00969 318.8 57.2
429(12) 0.00745 318.8 79.5
485(12) 0.00699 318.8 105.2
510(12) 0.00728 318.8 129.7
535(12) 0.00688 318.8 146.3
515(12) 0.00674 318.8 147.8
461(12) 0.00698 318.8 133.7
417(11) 0.00831 318.8 109.9
399(10) 0.00926 318.9 83.8
388(10) 0.00951 318.9 60.4
365(10) 0.00964 318.9 42.1
354(10) 0.00953 318.9 29.1
341(10) 0.00990 318.9 20.7
336(10) 0.01104 318.9 15.6
342(10) 0.01097 318.9 12.5
323(9) 0.01147 318.9 10.7
331(10) 0.01037 318.9 9.4
345(10) 0.00972 318.9 8.6
356(10) 0.01044 318.9 7.9
332(10) 0.01083 319.0 7.4
329(10) 0.01036 319.0 7.0
301(9) 0.01146 319.0 6.6
331(10) 0.01075 319.0 6.3
335(10) 0.01107 319.0 6.0
321(10) 0.01096 319.0 5.8
324(10) 0.01020 319.0 5.6
309(9) 0.01112 319.0 5.5
319(10) 0.01088 319.0 5.3
292(9) 0.01267 319.0 5.2
312(9) 0.01111 319.0 5.1
320(10) 0.01063 319.0 5.0
338(10) 0.01042 319.1 4.9
315(9) 0.01156 319.1 4.9
313(9) 0.01190 319.1 4.8
330(10) 0.01033 319.1 4.8
308(9) 0.01120 319.1 4.8
319(10) 0.01090 319.1 4.8
313(9) 0.01162 319.1 4.8
332(9) 0.01110 319.1 4.8
311(9) 0.01152 319.1 4.8
354(10) 0.00949 319.1 4.8
339(10) 0.01045 319.1 4.8
316(9) 0.01184 319.2 4.9
341(10) 0.01091 319.2 4.9
306(9) 0.01185 319.2 5.0
322(10) 0.01018 319.2 5.0
332(10) 0.01021 319.2 5.1
310(9) 0.01204 319.2 5.2
328(9) 0.01132 319.2 5.3
324(10) 0.01047 319.2 5.4
313(10) 0.01047 319.2 5.6
314(9) 0.01126 319.2 5.7
325(9) 0.01135 319.2 5.9
319(9) 0.01168 319.2 6.2
309(10) 0.01093 319.3 6.4
271(9) 0.01219 319.3 6.8
329(10) 0.01037 319.3 7.2
327(9) 0.01139 319.3 8.0
379(10) 0.00969 319.3 9.1
340(10) 0.01046 319.3 10.9
358(11) 0.00906 319.3 13.5
344(10) 0.01013 319.3 16.9
366(10) 0.01015 319.3 21.0
381(10) 0.00965 319.3 25.2
385(10) 0.00924 319.3 28.4
413(11) 0.00791 319.4 29.5
376(10) 0.00910 319.4 28.1
357(10) 0.01038 319.4 25.0
351(10) 0.01069 319.4 21.3
362(10) 0.00975 319.4 18.0
346(10) 0.01005 319.4 15.4
339(10) 0.01027 319.4 13.8
354(10) 0.01056 319.4 12.8
316(9) 0.01143 319.4 12.4
314(10) 0.01060 319.4 12.4
325(10) 0.01041 319.4 12.5
329(10) 0.01070 319.4 12.7
352(10) 0.01067 319.5 13.0
350(10) 0.01025 319.5 13.3
314(9) 0.01143 319.5 13.6
336(10) 0.01036 319.5 13.9
364(10) 0.01004 319.5 14.2
352(10) 0.01058 319.5 14.5
335(10) 0.01025 319.5 14.8
345(10) 0.00940 319.5 15.0
337(10) 0.01031 319.5 15.1
336(10) 0.01098 319.5 15.3
340(10) 0.01089 319.5 15.4
322(10) 0.01080 319.5 15.4
330(10) 0.00991 319.6 15.4
313(9) 0.01110 319.6 15.3
347(10) 0.01056 319.6 15.2
310(9) 0.01182 319.6 15.0
352(10) 0.00984 319.6 14.8
337(10) 0.00972 319.6 14.6
330(10) 0.01052 319.6 14.3
335(10) 0.01079 319.6 14.0
324(9) 0.01129 319.6 13.7
336(10) 0.01004 319.6 13.4
339(10) 0.00946 319.6 13.1
315(10) 0.01097 319.7 12.8
328(9) 0.01133 319.7 12.5
318(9) 0.01151 319.7 12.2
320(10) 0.01045 319.7 11.9
323(10) 0.00981 319.7 11.7
326(10) 0.01033 319.7 11.4
312(9) 0.01190 319.7 11.2
316(9) 0.01174 319.7 10.9
313(10) 0.01084 319.7 10.8
323(10) 0.00998 319.7 10.6
326(10) 0.01071 319.7 10.4
331(9) 0.01127 319.7 10.3
346(10) 0.01065 319.8 10.2
338(10) 0.01060 319.8 10.2
326(10) 0.01029 319.8 10.2
314(9) 0.01126 319.8 10.2
325(9) 0.01140 319.8 10.2
325(9) 0.01133 319.8 10.3
335(10) 0.01031 319.8 10.4
360(11) 0.00897 319.8 10.5
358(10) 0.00955 319.8 10.7
358(10) 0.01043 319.8 10.9
335(10) 0.01081 319.8 11.1
306(9) 0.01153 319.9 11.4
321(10) 0.01047 319.9 11.7
326(10) 0.01022 319.9 12.0
329(9) 0.01138 319.9 12.4
321(10) 0.01100 319.9 12.8
338(10) 0.00997 319.9 13.2
329(10) 0.01057 319.9 13.6
318(9) 0.01124 319.9 14.1
315(9) 0.01173 319.9 14.5
343(10) 0.00986 319.9 15.0
322(10) 0.01046 319.9 15.5
327(10) 0.01083 319.9 16.0
322(9) 0.01139 320.0 16.5
310(9) 0.01188 320.0 17.0
327(10) 0.01081 320.0 17.5
338(10) 0.00965 320.0 17.9
330(10) 0.01041 320.0 18.3
337(10) 0.01058 320.0 18.7
345(10) 0.01078 320.0 19.0
342(10) 0.01025 320.0 19.3
312(9) 0.01109 320.0 19.5
336(10) 0.01063 320.0 19.6
350(10) 0.01051 320.0 19.7
329(9) 0.01126 320.1 19.6
316(9) 0.01137 320.1 19.6
323(10) 0.01003 320.1 19.4
346(10) 0.00992 320.1 19.2
330(9) 0.01131 320.1 18.9
329(9) 0.01126 320.1 18.5
369(10) 0.00938 320.1 18.1
319(10) 0.01042 320.1 17.7
331(10) 0.01055 320.1 17.2
340(10) 0.01088 320.1 16.7
307(9) 0.01185 320.1 16.2
327(10) 0.01041 320.1 15.6
356(11) 0.00893 320.2 15.1
355(10) 0.00932 320.2 14.6
325(9) 0.01137 320.2 14.0
319(9) 0.01150 320.2 13.5
351(10) 0.00993 320.2 12.9
344(10) 0.00931 320.2 12.4
320(10) 0.01071 320.2 11.9
337(9) 0.01114 320.2 11.4
350(10) 0.01051 320.2 11.0
335(10) 0.01076 320.2 10.6
316(10) 0.01088 320.2 10.2
327(10) 0.01027 320.2 9.8
304(9) 0.01221 320.3 9.5
324(9) 0.01116 320.3 9.3
324(10) 0.01030 320.3 9.0
312(10) 0.01079 320.3 8.9
325(10) 0.01086 320.3 8.7
341(10) 0.01076 320.3 8.7
321(9) 0.01123 320.3 8.7
319(10) 0.01061 320.3 8.7
319(10) 0.01050 320.3 8.9
328(10) 0.01075 320.3 9.2
331(9) 0.01112 320.3 9.7
308(9) 0.01170 320.4 10.4
328(10) 0.01057 320.4 11.7
330(10) 0.01059 320.4 13.6
343(10) 0.01017 320.4 16.4
309(9) 0.01205 320.4 20.7
345(10) 0.00970 320.4 26.6
340(10) 0.00975 320.4 34.4
331(10) 0.01046 320.4 44.1
358(10) 0.00981 320.4 55.0
372(10) 0.01003 320.4 66.1
379(11) 0.00896 320.4 75.3
364(10) 0.00924 320.4 80.1
386(10) 0.00915 320.5 79.0
352(10) 0.01031 320.5 72.6
339(10) 0.01100 320.5 63.0
340(10) 0.01012 320.5 52.8
357(10) 0.00931 320.5 43.3
391(11) 0.00862 320.5 35.5
355(10) 0.01049 320.5 29.4
378(10) 0.00984 320.5 24.9
369(10) 0.00962 320.5 21.3
391(11) 0.00804 320.5 18.5
368(10) 0.00918 320.5 16.1
327(9) 0.01154 320.6 14.0
340(10) 0.01087 320.6 12.2
366(10) 0.00950 320.6 10.7
348(10) 0.00956 320.6 9.4
328(10) 0.01090 320.6 8.4
315(9) 0.01163 320.6 7.7
325(9) 0.01144 320.6 7.1
331(10) 0.01053 320.6 6.6
315(10) 0.01069 320.6 6.3
336(10) 0.01001 320.6 6.1
325(9) 0.01142 320.6 5.9
327(9) 0.01121 320.6 5.8
332(10) 0.01018 320.7 5.7
335(10) 0.00965 320.7 5.7
326(10) 0.01041 320.7 5.7
323(9) 0.01150 320.7 5.7
317(9) 0.01147 320.7 5.8
316(10) 0.01077 320.7 5.9
311(9) 0.01112 320.7 6.0
319(10) 0.01106 320.7 6.3
322(9) 0.01160 320.7 6.5
319(9) 0.01109 320.7 6.9
320(10) 0.01061 320.7 7.3
329(10) 0.01043 320.8 7.9
323(10) 0.01073 320.8 8.6
320(9) 0.01170 320.8 9.5
309(10) 0.01107 320.8 10.6
298(9) 0.01154 320.8 11.9
323(10) 0.01037 320.8 13.6
293(9) 0.01208 320.8 15.5
325(9) 0.01155 320.8 17.8
319(10) 0.01077 320.8 20.3
335(10) 0.00988 320.8 23.1
330(10) 0.01072 320.8 26.1
346(10) 0.01038 320.8 29.1
325(9) 0.01147 320.9 32.1
330(10) 0.01046 320.9 34.6
346(10) 0.00940 320.9 36.6
342(10) 0.01049 320.9 37.6
341(10) 0.01092 320.9 37.6
351(10) 0.01052 320.9 36.5
334(10) 0.01023 320.9 34.6
341(10) 0.00958 320.9 32.0
308(9) 0.01148 320.9 29.2
313(9) 0.01183 320.9 26.2
346(10) 0.01065 320.9 23.3
323(10) 0.01090 321.0 20.6
308(10) 0.01051 321.0 18.2
326(10) 0.01055 321.0 16.1
301(9) 0.01237 321.0 14.3
319(9) 0.01157 321.0 12.8
328(10) 0.01024 321.0 11.5
346(10) 0.00925 321.0 10.6
344(10) 0.01009 321.0 9.7
308(9) 0.01194 321.0 9.1
311(9) 0.01174 321.0 8.8
323(10) 0.01001 321.0 8.4
313(9) 0.01128 321.0 8.1
339(10) 0.01095 321.1 7.9
332(10) 0.01090 321.1 7.7
333(10) 0.00998 321.1 7.6
373(11) 0.00871 321.1 7.5
342(10) 0.01007 321.1 7.5
334(9) 0.01124 321.1 7.4
326(10) 0.01107 321.1 7.4
288(9) 0.01232 321.1 7.4
320(10) 0.01026 321.1 7.4
327(10) 0.01051 321.1 7.5
363(10) 0.01026 321.1 7.5
330(10) 0.01100 321.1 7.5
338(10) 0.01030 321.2 7.5
337(10) 0.01038 321.2 7.5
331(10) 0.01100 321.2 7.5
345(10) 0.01078 321.2 7.6
344(10) 0.01023 321.2 7.6
320(10) 0.01095 321.2 7.6
336(10) 0.01027 321.2 7.6
348(10) 0.01025 321.2 7.6
347(10) 0.01072 321.2 7.6
324(10) 0.01060 321.2 7.6
354(10) 0.00927 321.2 7.6
359(10) 0.00957 321.3 7.6
317(9) 0.01160 321.3 7.6
331(9) 0.01131 321.3 7.6
320(10) 0.01038 321.3 7.5
345(10) 0.00942 321.3 7.5
321(10) 0.01096 321.3 7.5
329(10) 0.01092 321.3 7.4
330(9) 0.01135 321.3 7.4
319(10) 0.01075 321.3 7.4
315(10) 0.01085 321.3 7.3
312(9) 0.01120 321.3 7.2
298(9) 0.01221 321.3 7.2
343(10) 0.01091 321.4 7.1
341(10) 0.00984 321.4 7.0
315(10) 0.01030 321.4 6.9
323(10) 0.01046 321.4 6.8
307(9) 0.01208 321.4 6.7
311(9) 0.01177 321.4 6.6
309(9) 0.01127 321.4 6.5
325(10) 0.00988 321.4 6.5
322(10) 0.01071 321.4 6.4
325(9) 0.01133 321.4 6.3
324(9) 0.01149 321.5 6.2
329(10) 0.01080 321.5 6.1
332(10) 0.00993 321.5 6.0
318(9) 0.01143 321.5 5.9
310(9) 0.01199 321.5 5.8
327(10) 0.01095 321.5 5.8
327(10) 0.01082 321.5 5.7
315(10) 0.01097 321.6 5.6
357(10) 0.00979 321.6 5.5
327(9) 0.01128 321.6 5.5
332(9) 0.01113 321.6 5.4
340(10) 0.01023 321.6 5.3
334(10) 0.01013 321.6 5.3
324(10) 0.01009 321.7 5.2
332(9) 0.01123 321.7 5.2
329(10) 0.01105 321.7 5.2
313(10) 0.01080 321.7 5.1
334(10) 0.01000 321.7 5.1
323(9) 0.01111 321.7 5.1
336(10) 0.01101 321.7 5.1
334(10) 0.01068 321.8 5.0
347(10) 0.00962 321.8 5.0
303(9) 0.01137 321.8 5.0
290(9) 0.01233 321.8 5.0
321(9) 0.01150 321.8 5.1
330(10) 0.01029 321.8 5.1
307(9) 0.01122 321.9 5.1
325(10) 0.01079 321.9 5.1
327(9) 0.01131 321.9 5.2
339(10) 0.01097 321.9 5.2
320(10) 0.01085 321.9 5.3
335(10) 0.00948 321.9 5.4
306(9) 0.01109 321.9 5.4
313(9) 0.01132 322.0 5.5
319(9) 0.01157 322.0 5.6
312(9) 0.01113 322.0 5.7
326(10) 0.01016 322.0 5.9
316(9) 0.01126 322.0 6.0
326(9) 0.01130 322.0 6.1
318(9) 0.01181 322.1 6.3
345(10) 0.01007 322.1 6.5
317(10) 0.01066 322.1 6.7
325(10) 0.01102 322.1 6.9
337(10) 0.01094 322.1 7.1
331(10) 0.01100 322.1 7.4
356(10) 0.00965 322.2 7.7
323(10) 0.01035 322.2 8.0
337(10) 0.01043 322.2 8.4
323(9) 0.01144 322.2 8.7
343(10) 0.01072 322.2 9.2
341(10) 0.00996 322.2 9.6
351(10) 0.00919 322.2 10.1
347(10) 0.00994 322.3 10.7
342(10) 0.01083 322.3 11.4
310(9) 0.01153 322.3 12.1
321(10) 0.01036 322.3 12.9
334(10) 0.00956 322.3 13.9
349(10) 0.00963 322.3 15.0
359(10) 0.01037 322.4 16.4
346(10) 0.01062 322.4 18.0
344(10) 0.00996 322.4 20.1
350(10) 0.00944 322.4 23.0
364(10) 0.00941 322.4 27.2
381(10) 0.00977 322.4 33.4
376(10) 0.00972 322.4 42.3
357(10) 0.00980 322.5 54.7
415(11) 0.00808 322.5 71.1
444(11) 0.00775 322.5 91.0
453(11) 0.00817 322.5 113.1
474(11) 0.00767 322.5 134.4
449(11) 0.00758 322.5 151.2
472(12) 0.00712 322.6 161.0
499(12) 0.00691 322.6 166.1
452(11) 0.00821 322.6 171.3
499(12) 0.00704 322.6 180.8
521(13) 0.00631 322.6 195.9
505(12) 0.00665 322.6 215.3
525(12) 0.00685 322.6 235.0
551(12) 0.00672 322.7 249.0
501(12) 0.00695 322.7 252.9
493(12) 0.00678 322.7 246.9
468(12) 0.00738 322.7 235.3
517(12) 0.00698 322.7 222.5
473(11) 0.00785 322.7 211.6
505(12) 0.00682 322.8 203.8
498(12) 0.00661 322.8 198.9
472(12) 0.00738 322.8 195.4
508(12) 0.00728 322.8 191.4
516(12) 0.00715 322.8 185.1
474(12) 0.00752 322.8 175.4
486(12) 0.00667 322.8 162.4
450(11) 0.00782 322.9 147.1
424(11) 0.00863 322.9 130.8
401(10) 0.00933 322.9 114.7
444(11) 0.00785 322.9 99.5
402(11) 0.00832 322.9 85.7
383(11) 0.00903 322.9 73.5
398(10) 0.00927 323.0 62.9
375(10) 0.01000 323.0 53.9
349(10) 0.01026 323.0 46.4
342(10) 0.00957 323.0 40.2
373(10) 0.00914 323.0 35.1
336(10) 0.01106 323.0 30.9
372(10) 0.00966 323.0 27.5
377(10) 0.00922 323.1 24.7
367(11) 0.00888 323.1 22.4
331(10) 0.01065 323.1 20.5
370(10) 0.01008 323.1 19.0
366(10) 0.01006 323.1 17.7
350(10) 0.00951 323.1 16.6
342(10) 0.00958 323.2 15.6
344(10) 0.00973 323.2 14.8
346(10) 0.01075 323.2 14.1
345(10) 0.01038 323.2 13.5
347(10) 0.01003 323.2 13.0
351(10) 0.00981 323.2 12.5
347(10) 0.00998 323.3 12.1
362(10) 0.01022 323.3 11.7
338(10) 0.01064 323.3 11.4
326(10) 0.01041 323.3 11.0
339(10) 0.01013 323.3 10.8
347(10) 0.01015 323.3 10.5
351(10) 0.01058 323.3 10.3
346(10) 0.01022 323.4 10.0
339(10) 0.00974 323.4 9.8
346(10) 0.00957 323.4 9.7
352(10) 0.01011 323.4 9.5
348(10) 0.01069 323.4 9.3
349(10) 0.00986 323.4 9.2
315(10) 0.01097 323.5 9.2
343(10) 0.01018 323.5 9.1
358(10) 0.01011 323.5 9.0
371(10) 0.00993 323.5 8.9
355(10) 0.00997 323.5 8.8
344(10) 0.00993 323.5 8.8
347(10) 0.00974 323.5 8.7
325(10) 0.01104 323.6 8.7
346(10) 0.01066 323.6 8.7
371(10) 0.00953 323.6 8.7
346(10) 0.00960 323.6 8.7
320(10) 0.01070 323.6 8.8
316(9) 0.01173 323.6 8.9
374(10) 0.00997 323.7 9.1
343(10) 0.00985 323.7 9.4
335(10) 0.00965 323.7 9.8
331(10) 0.01060 323.7 10.4
335(9) 0.01112 323.7 11.1
345(10) 0.01051 323.7 11.9
334(10) 0.01032 323.7 13.0
342(10) 0.00911 323.8 14.2
339(10) 0.01032 323.8 15.5
324(9) 0.01137 323.8 16.9
339(10) 0.01077 323.8 18.3
332(10) 0.01032 323.8 19.5
325(10) 0.01006 323.8 20.3
337(10) 0.01030 323.9 20.7
349(10) 0.01070 323.9 20.4
330(9) 0.01122 323.9 19.6
328(10) 0.01039 323.9 18.4
331(10) 0.00995 323.9 16.9
362(10) 0.00956 323.9 15.4
326(9) 0.01133 323.9 13.9
324(10) 0.01102 324.0 12.5
365(10) 0.00913 324.0 11.2
351(10) 0.00929 324.0 10.1
336(10) 0.01023 324.0 9.2
338(10) 0.01095 324.0 8.4
329(10) 0.01074 324.0 7.8
342(10) 0.00998 324.1 7.4
305(9) 0.01129 324.1 7.0
306(9) 0.01186 324.1 6.7
355(10) 0.01056 324.1 6.4
349(10) 0.01034 324.1 6.2
371(10) 0.00918 324.1 6.1
330(10) 0.01082 324.1 6.0
323(10) 0.01090 324.2 5.8
336(9) 0.01110 324.2 5.8
343(10) 0.01012 324.2 5.7
353(10) 0.00945 324.2 5.6
333(10) 0.00997 324.2 5.5
323(10) 0.01085 324.2 5.5
327(9) 0.01138 324.3 5.5
372(11) 0.00882 324.3 5.4
322(10) 0.01078 324.3 5.5
320(10) 0.01082 324.3 5.4
319(9) 0.01120 324.3 5.4
348(10) 0.01068 324.3 5.4
320(9) 0.01136 324.3 5.4
315(10) 0.01059 324.4 5.4
304(9) 0.01164 324.4 5.4
365(10) 0.01007 324.4 5.4
340(10) 0.01096 324.4 5.4
320(10) 0.01099 324.4 5.5
323(10) 0.01013 324.5 5.5
336(10) 0.01008 324.5 5.5
314(9) 0.01174 324.6 5.6
320(9) 0.01159 324.6 5.6
317(9) 0.01129 324.6 5.7
317(10) 0.01048 324.7 5.7
329(10) 0.01066 324.7 5.8
342(10) 0.01082 324.8 5.8
314(9) 0.01193 324.8 5.9
334(10) 0.00999 324.9 6.0
336(10) 0.00954 324.9 6.1
313(9) 0.01147 324.9 6.2
338(9) 0.01109 325.0 6.3
323(9) 0.01129 325.0 6.4
335(10) 0.01020 325.1 6.5
349(10) 0.00927 325.1 6.6
328(10) 0.01060 325.2 6.8
305(9) 0.01214 325.2 6.9
330(10) 0.01094 325.2 7.1
361(10) 0.00966 325.3 7.3
325(10) 0.01048 325.3 7.4
330(10) 0.01012 325.4 7.6
325(9) 0.01141 325.4 7.8
352(10) 0.01002 325.5 8.1
340(10) 0.00940 325.5 8.3
336(10) 0.00974 325.6 8.6
344(10) 0.01026 325.6 8.9
342(10) 0.01085 325.6 9.1
328(10) 0.01074 325.7 9.5
337(10) 0.01007 325.7 9.8
342(10) 0.00962 325.8 10.1
300(9) 0.01180 325.8 10.5
330(9) 0.01115 325.9 10.9
316(10) 0.01095 325.9 11.4
341(10) 0.00998 325.9 11.8
350(10) 0.00987 326.0 12.3
351(10) 0.01045 326.0 12.8
332(9) 0.01124 326.1 13.3
343(10) 0.01019 326.1 13.9
332(10) 0.01036 326.2 14.5
343(10) 0.01003 326.2 15.2
349(10) 0.01055 326.3 15.9
347(10) 0.01060 326.3 16.7
374(10) 0.00924 326.3 17.6
354(10) 0.00974 326.4 18.6
370(10) 0.00951 326.4 19.7
350(10) 0.01020 326.5 20.9
389(10) 0.00957 326.5 22.4
382(10) 0.00940 326.6 24.2
368(10) 0.00914 326.6 26.4
365(10) 0.00957 326.6 29.3
374(10) 0.00976 326.7 33.3
380(10) 0.00950 326.7 39.0
384(10) 0.00911 326.8 47.3
416(11) 0.00769 326.8 59.3
438(11) 0.00783 326.9 76.2
436(11) 0.00845 326.9 98.9
433(11) 0.00846 326.9 127.8
463(11) 0.00768 327.0 162.3
542(13) 0.00593 327.0 199.9
516(12) 0.00683 327.1 235.9
564(12) 0.00657 327.1 263.3
564(12) 0.00655 327.2 274.0
562(13) 0.00624 327.2 264.6
542(13) 0.00605 327.3 238.9
496(12) 0.00699 327.3 205.0
459(11) 0.00813 327.3 169.9
414(11) 0.00897 327.4 138.2
381(11) 0.00899 327.4 112.4
408(11) 0.00824 327.5 93.0
423(11) 0.00835 327.5 79.8
378(10) 0.00988 327.6 71.9
385(10) 0.00947 327.6 68.1
423(11) 0.00798 327.6 67.4
395(11) 0.00869 327.7 69.1
381(11) 0.00902 327.7 72.7
390(10) 0.00959 327.8 77.7
413(11) 0.00872 327.8 84.0
438(11) 0.00783 327.9 91.4
430(11) 0.00787 327.9 99.7
457(11) 0.00768 327.9 108.7
453(11) 0.00826 328.0 117.9
459(11) 0.00766 328.0 127.0
474(12) 0.00718 328.1 135.2
518(12) 0.00662 328.1 141.6
488(12) 0.00744 328.2 145.5
446(11) 0.00840 328.2 146.3
442(11) 0.00770 328.3 143.8
446(12) 0.00730 328.3 138.3
434(11) 0.00798 328.3 130.4
436(11) 0.00832 328.4 121.0
412(10) 0.00909 328.4 110.8
438(11) 0.00802 328.5 100.6
437(12) 0.00751 328.5 90.7
414(11) 0.00820 328.6 81.5
396(10) 0.00929 328.6 73.1
381(10) 0.00982 328.6 65.8
414(11) 0.00834 328.7 59.4
399(11) 0.00780 328.7 54.1
389(11) 0.00878 328.8 49.6
357(10) 0.01052 328.8 46.0
384(10) 0.00963 328.9 43.3
348(10) 0.01017 328.9 41.2
386(11) 0.00823 328.9 39.8
393(11) 0.00898 329.0 39.1
357(10) 0.01035 329.0 39.1
384(10) 0.00965 329.1 39.9
372(10) 0.00923 329.1 41.7
364(11) 0.00895 329.2 44.7
341(10) 0.01047 329.2 49.1
370(10) 0.01000 329.3 55.0
395(10) 0.00933 329.3 62.5
373(10) 0.00949 329.3 71.3
398(11) 0.00805 329.4 80.9
368(10) 0.00963 329.4 90.3
394(10) 0.00948 329.5 97.7
420(11) 0.00864 329.5 101.5
405(11) 0.00850 329.6 100.4
390(11) 0.00873 329.6 94.9
371(10) 0.00947 329.6 86.7
371(10) 0.01009 329.7 77.5
391(10) 0.00922 329.7 68.7
379(10) 0.00939 329.8 61.0
381(11) 0.00900 329.8 54.8
343(10) 0.01043 329.9 50.1
341(10) 0.01078 329.9 47.0
404(11) 0.00904 329.9 45.1
393(11) 0.00893 330.0 44.2
389(11) 0.00872 330.0 44.3
390(11) 0.00885 330.1 45.0
405(10) 0.00924 330.1 46.2
376(10) 0.00962 330.2 48.0
412(11) 0.00824 330.2 50.1
397(11) 0.00869 330.3 52.6
377(10) 0.00965 330.3 55.4
405(10) 0.00923 330.3 58.3
403(11) 0.00856 330.4 61.3
405(11) 0.00841 330.4 64.1
422(11) 0.00781 330.5 66.5
389(10) 0.00927 330.5 68.2
412(11) 0.00893 330.6 69.0
419(11) 0.00805 330.6 68.9
422(11) 0.00776 330.6 67.7
409(11) 0.00836 330.7 65.9
393(10) 0.00933 330.7 63.5
412(11) 0.00895 330.8 61.0
377(11) 0.00903 330.8 58.3
394(11) 0.00830 330.9 55.8
396(11) 0.00869 330.9 53.4
378(10) 0.00950 331.0 51.1
375(10) 0.00983 331.0 49.1
380(10) 0.00925 331.0 47.3
375(11) 0.00872 331.1 45.7
403(11) 0.00858 331.1 44.3
382(10) 0.00958 331.2 43.0
379(10) 0.00973 331.2 41.8
373(10) 0.00934 331.3 40.7
365(11) 0.00904 331.3 39.7
398(11) 0.00873 331.3 38.7
365(10) 0.01020 331.4 37.8
366(10) 0.00997 331.4 36.9
385(11) 0.00879 331.5 35.9
360(11) 0.00902 331.5 35.0
365(10) 0.00952 331.6 34.1
408(10) 0.00923 331.6 33.2
379(10) 0.00954 331.6 32.3
333(10) 0.01094 331.7 31.4
362(10) 0.00914 331.7 30.5
374(10) 0.00938 331.8 29.6
366(10) 0.00999 331.8 28.7
355(10) 0.01024 331.9 27.9
358(10) 0.00956 331.9 27.0
344(10) 0.00956 332.0 26.1
361(10) 0.00941 332.0 25.3
333(9) 0.01116 332.0 24.5
380(10) 0.00952 332.1 23.7
357(10) 0.00960 332.1 22.9
364(10) 0.00948 332.2 22.2
372(10) 0.00956 332.2 21.4
361(10) 0.01027 332.3 20.7
359(10) 0.00991 332.3 20.0
353(10) 0.00976 332.3 19.3
339(10) 0.01022 332.4 18.7
358(10) 0.00990 332.4 18.1
338(9) 0.01110 332.5 17.4
340(10) 0.01040 332.5 16.9
341(10) 0.00994 332.6 16.3
382(11) 0.00873 332.6 15.8
350(10) 0.01030 332.6 15.2
353(10) 0.01060 332.7 14.7
349(10) 0.00970 332.7 14.3
333(10) 0.01032 332.8 13.8
316(9) 0.01140 332.8 13.4
358(10) 0.01034 332.9 13.0
342(10) 0.01085 332.9 12.6
336(10) 0.01026 333.0 12.3
383(11) 0.00823 333.0 11.9
339(10) 0.01008 333.0 11.6
334(10) 0.01098 333.1 11.3
353(10) 0.01065 333.1 11.0
353(10) 0.00960 333.2 10.7
373(11) 0.00872 333.2 10.4
381(11) 0.00901 333.3 10.2
344(10) 0.01081 333.3 9.9
357(10) 0.01033 333.3 9.7
378(10) 0.00930 333.4 9.5
322(10) 0.00991 333.4 9.3
325(10) 0.01098 333.5 9.1
385(10) 0.00957 333.5 9.0
341(9) 0.01110 333.6 8.8
378(10) 0.00912 333.6 8.7
348(10) 0.00935 333.6 8.5
348(10) 0.00945 333.7 8.4
338(10) 0.01103 333.7 8.3
318(9) 0.01131 333.8 8.2
351(10) 0.00982 333.8 8.1
354(10) 0.00912 333.9 8.0
357(10) 0.00936 333.9 8.0
305(9) 0.01201 334.0 7.9
334(10) 0.01078 334.0 7.8
330(10) 0.01040 334.0 7.8
342(10) 0.00975 334.1 7.7
354(10) 0.00953 334.1 7.7
319(9) 0.01141 334.2 7.6
342(10) 0.01065 334.2 7.6
347(10) 0.01019 334.3 7.6
340(10) 0.01011 334.3 7.6
380(11) 0.00898 334.3 7.6
358(10) 0.01037 334.4 7.6
347(10) 0.01036 334.4 7.6
356(10) 0.00941 334.5 7.6
357(10) 0.00957 334.5 7.6
342(10) 0.01057 334.5 7.6
329(9) 0.01129 334.5 7.7
350(10) 0.00996 334.5 7.7
324(10) 0.01094 334.5 7.7
352(10) 0.00990 334.5 7.8
344(10) 0.01081 334.5 7.8
348(10) 0.01059 334.6 7.9
336(10) 0.01016 334.6 7.9
360(10) 0.00959 334.6 8.0
348(10) 0.01011 334.6 8.1
330(10) 0.01060 334.6 8.2
325(9) 0.01153 334.6 8.3
352(10) 0.00978 334.6 8.4
338(10) 0.00987 334.7 8.5
354(10) 0.00944 334.7 8.6
346(10) 0.01079 334.7 8.7
346(10) 0.01055 334.7 8.9
346(10) 0.01012 334.7 9.0
348(10) 0.00968 334.7 9.2
366(10) 0.00964 334.7 9.4
316(9) 0.01171 334.7 9.6
343(10) 0.01065 334.8 9.9
308(9) 0.01137 334.8 10.1
367(11) 0.00864 334.8 10.4
348(10) 0.01035 334.8 10.7
338(10) 0.01103 334.8 11.0
342(10) 0.01096 334.8 11.4
327(10) 0.01100 334.8 11.8
359(11) 0.00899 334.8 12.3
340(10) 0.01018 334.9 12.8
359(10) 0.01041 334.9 13.3
365(10) 0.00985 334.9 13.9
371(10) 0.00948 334.9 14.6
371(11) 0.00860 334.9 15.3
347(10) 0.01014 334.9 16.1
368(10) 0.01002 334.9 17.0
351(10) 0.01057 335.0 18.0
342(10) 0.01024 335.0 19.0
344(10) 0.00972 335.0 20.1
352(10) 0.00978 335.0 21.4
368(10) 0.01000 335.0 22.7
350(10) 0.01039 335.0 24.1
352(10) 0.00953 335.0 25.5
368(11) 0.00904 335.0 27.1
374(10) 0.00917 335.1 28.6
355(10) 0.01055 335.1 30.2
367(10) 0.00990 335.1 31.8
382(10) 0.00909 335.1 33.4
369(10) 0.00924 335.1 34.9
365(10) 0.00961 335.1 36.4
394(10) 0.00948 335.1 37.7
372(10) 0.00934 335.2 39.0
384(11) 0.00880 335.2 40.2
373(10) 0.00942 335.2 41.3
386(10) 0.00924 335.2 42.4
393(10) 0.00950 335.2 43.5
385(11) 0.00898 335.2 44.6
406(11) 0.00845 335.2 45.7
381(10) 0.00955 335.2 46.9
400(11) 0.00890 335.3 48.1
362(10) 0.01030 335.3 49.4
399(11) 0.00854 335.3 50.8
388(11) 0.00846 335.3 52.2
395(11) 0.00858 335.3 53.7
382(10) 0.00966 335.3 55.2
379(10) 0.00973 335.3 56.6
406(11) 0.00841 335.4 58.1
402(11) 0.00819 335.4 59.5
394(11) 0.00898 335.4 60.9
396(10) 0.00928 335.4 62.2
411(11) 0.00898 335.4 63.4
398(10) 0.00918 335.4 64.5
399(11) 0.00860 335.4 65.4
408(11) 0.00841 335.4 66.2
410(11) 0.00900 335.5 66.8
414(11) 0.00903 335.5 67.2
417(11) 0.00829 335.5 67.5
420(11) 0.00765 335.5 67.6
394(11) 0.00888 335.5 67.5
401(10) 0.00936 335.5 67.2
393(10) 0.00927 335.5 66.8
434(11) 0.00827 335.6 66.2
409(11) 0.00829 335.6 65.6
412(11) 0.00808 335.6 64.9
417(11) 0.00890 335.6 64.2
426(11) 0.00859 335.6 63.4
407(11) 0.00875 335.6 62.6
384(10) 0.00926 335.6 61.8
404(11) 0.00871 335.6 61.1
447(11) 0.00836 335.7 60.4
427(11) 0.00837 335.7 59.8
407(11) 0.00794 335.7 59.4
409(11) 0.00808 335.7 59.1
424(11) 0.00771 335.7 59.0
411(10) 0.00908 335.7 59.0
387(10) 0.00917 335.7 59.1
358(10) 0.00994 335.8 59.5
398(11) 0.00822 335.8 60.1
372(10) 0.00969 335.8 60.8
383(10) 0.00968 335.8 61.8
387(10) 0.00919 335.8 62.9
379(11) 0.00899 335.8 64.2
372(10) 0.00937 335.8 65.7
386(10) 0.00924 335.8 67.4
394(10) 0.00946 335.9 69.3
391(11) 0.00887 335.9 71.3
415(11) 0.00807 335.9 73.4
421(11) 0.00810 335.9 75.7
392(10) 0.00926 335.9 78.0
415(11) 0.00901 335.9 80.5
406(11) 0.00868 335.9 83.0
420(11) 0.00793 336.0 85.5
402(11) 0.00883 336.0 88.0
418(11) 0.00879 336.0 90.3
433(11) 0.00858 336.0 92.5
426(11) 0.00806 336.0 94.4
413(11) 0.00793 336.0 96.0
419(11) 0.00838 336.0 97.2
430(11) 0.00866 336.0 97.9
434(11) 0.00852 336.1 98.2
407(11) 0.00837 336.1 97.9
408(11) 0.00780 336.1 97.0
387(10) 0.00912 336.1 95.7
394(10) 0.00954 336.1 93.8
402(10) 0.00922 336.1 91.5
397(11) 0.00891 336.1 88.8
403(11) 0.00835 336.2 85.8
416(11) 0.00827 336.2 82.6
380(10) 0.00986 336.2 79.2
374(10) 0.00982 336.2 75.8
393(11) 0.00858 336.2 72.4
387(11) 0.00862 336.2 69.0
382(10) 0.00926 336.2 66.0
394(10) 0.00947 336.2 63.7
371(10) 0.00977 336.3 64.1
372(10) 0.00934 336.3 72.9
419(11) 0.00774 336.3 97.0
428(11) 0.00799 336.3 130.9
453(11) 0.00824 336.3 144.3
411(11) 0.00884 336.3 116.6
409(11) 0.00837 336.3 77.4
401(11) 0.00826 336.4 51.5
396(11) 0.00840 336.4 39.8
392(10) 0.00945 336.4 34.7
342(10) 0.01041 336.4 31.7
365(11) 0.00901 336.4 29.3
352(10) 0.00937 336.4 27.3
379(10) 0.00950 336.4 25.5
387(10) 0.00956 336.4 24.0
365(10) 0.01011 336.5 22.6
376(11) 0.00904 336.5 21.4
369(10) 0.00976 336.5 20.2
348(10) 0.01046 336.5 19.3
349(10) 0.01056 336.5 18.4
345(10) 0.01009 336.5 17.6
345(10) 0.00978 336.5 16.9
356(10) 0.00958 336.6 16.3
331(10) 0.01052 336.6 15.8
322(9) 0.01151 336.6 15.3
339(10) 0.01010 336.6 14.9
333(10) 0.01063 336.6 14.5
349(10) 0.01008 336.6 14.2
361(10) 0.01007 336.6 14.0
355(10) 0.01060 336.6 13.8
362(10) 0.00950 336.7 13.6
352(10) 0.00937 336.7 13.5
366(10) 0.00941 336.7 13.5
346(10) 0.01081 336.7 13.4
357(10) 0.01044 336.7 13.5
363(10) 0.00943 336.7 13.5
365(11) 0.00864 336.7 13.7
348(10) 0.01010 336.8 13.9
338(10) 0.01088 336.8 14.1
363(10) 0.01013 336.8 14.5
333(10) 0.01044 336.8 14.9
380(11) 0.00818 336.8 15.4
416(11) 0.00843 336.8 16.1
405(10) 0.00925 336.8 17.0
354(10) 0.01038 336.8 18.3
360(10) 0.00994 336.9 20.1
406(11) 0.00787 336.9 22.7
379(10) 0.00937 336.9 26.8
437(11) 0.00855 336.9 33.1
428(11) 0.00852 336.9 42.4
423(11) 0.00820 336.9 55.6
444(12) 0.00702 336.9 73.3
469(12) 0.00724 337.0 94.9
514(12) 0.00711 337.0 118.8
549(12) 0.00668 337.0 141.5
611(13) 0.00566 337.0 157.5
580(13) 0.00580 337.0 161.3
530(12) 0.00661 337.0 151.2
480(11) 0.00768 337.0 131.5
465(11) 0.00788 337.0 107.9
431(11) 0.00816 337.1 85.2
439(11) 0.00765 337.1 65.8
421(11) 0.00846 337.1 50.7
408(10) 0.00909 337.1 39.8
386(10) 0.00928 337.1 32.4
394(11) 0.00862 337.1 27.7
365(10) 0.00961 337.1 24.8
409(11) 0.00859 337.1 23.0
372(10) 0.01012 337.2 21.9
366(10) 0.00948 337.2 21.3
381(11) 0.00890 337.2 20.9
383(11) 0.00906 337.2 20.8
350(10) 0.01049 337.2 20.8
350(10) 0.01049 337.2 21.0
375(11) 0.00904 337.2 21.4
372(11) 0.00900 337.3 21.9
370(10) 0.00952 337.3 22.5
360(10) 0.00991 337.3 23.3
377(10) 0.00981 337.3 24.2
377(11) 0.00891 337.3 25.3
344(10) 0.00961 337.3 26.5
372(10) 0.00927 337.3 27.8
359(10) 0.00987 337.3 29.1
376(10) 0.00991 337.4 30.6
412(11) 0.00826 337.4 32.1
417(11) 0.00775 337.4 33.6
375(10) 0.00944 337.4 35.0
371(10) 0.00964 337.4 36.3
384(10) 0.00963 337.4 37.5
396(11) 0.00900 337.4 38.3
385(11) 0.00870 337.5 38.8
397(11) 0.00880 337.5 39.0
393(10) 0.00944 337.5 38.8
378(10) 0.00981 337.5 38.4
370(10) 0.00977 337.5 37.6
388(11) 0.00865 337.5 36.7
377(10) 0.00912 337.5 35.6
357(10) 0.01050 337.5 34.5
347(10) 0.01060 337.6 33.3
356(10) 0.00979 337.6 32.2
359(11) 0.00890 337.6 31.2
376(10) 0.00930 337.6 30.4
373(10) 0.01002 337.6 29.6
370(10) 0.00979 337.6 29.0
358(10) 0.00978 337.6 28.6
368(11) 0.00888 337.7 28.4
357(10) 0.00979 337.7 28.4
364(10) 0.01033 337.7 28.5
376(10) 0.00968 337.7 28.9
382(11) 0.00898 337.7 29.6
398(11) 0.00811 337.7 30.5
384(11) 0.00887 337.7 31.8
379(10) 0.00973 337.7 33.6
406(11) 0.00890 337.8 36.0
390(11) 0.00894 337.8 39.1
377(11) 0.00892 337.8 43.2
417(11) 0.00857 337.8 48.5
432(11) 0.00858 337.8 55.3
425(11) 0.00839 337.8 63.7
450(12) 0.00755 337.8 74.0
447(11) 0.00762 337.9 86.1
481(12) 0.00731 337.9 99.9
483(11) 0.00774 337.9 115.1
506(12) 0.00700 337.9 130.7
531(12) 0.00644 337.9 145.5
549(13) 0.00621 337.9 157.7
566(13) 0.00639 337.9 165.2
522(12) 0.00710 337.9 166.5
506(12) 0.00670 338.0 161.1
504(12) 0.00653 338.0 150.4
489(12) 0.00711 338.0 136.2
442(11) 0.00836 338.0 120.5
457(11) 0.00825 338.0 104.9
437(11) 0.00801 338.0 90.3
436(12) 0.00754 338.0 77.2
412(11) 0.00842 338.1 66.0
390(10) 0.00944 338.1 56.6
403(10) 0.00914 338.1 49.0
393(11) 0.00882 338.1 42.9
416(11) 0.00787 338.1 38.0
396(11) 0.00896 338.1 34.2
417(11) 0.00897 338.1 31.3
379(10) 0.00977 338.1 28.9
390(10) 0.00908 338.2 27.0
394(11) 0.00809 338.2 25.4
391(11) 0.00902 338.2 24.1
373(10) 0.00979 338.2 23.0
332(9) 0.01116 338.2 22.0
371(10) 0.00939 338.2 21.2
374(11) 0.00873 338.2 20.4
401(11) 0.00861 338.3 19.7
358(10) 0.01042 338.3 19.1
351(10) 0.01059 338.3 18.6
379(11) 0.00899 338.3 18.0
357(10) 0.00932 338.3 17.4
358(10) 0.00961 338.3 16.9
385(10) 0.00962 338.3 16.3
361(10) 0.00995 338.3 15.6
383(10) 0.00915 338.4 15.0
366(10) 0.00931 338.4 14.3
362(10) 0.00966 338.4 13.6
385(10) 0.00976 338.4 13.0
357(10) 0.01018 338.4 12.4
350(10) 0.00951 338.4 11.8
359(10) 0.00933 338.4 11.2
335(10) 0.01056 338.5 10.7
362(10) 0.01018 338.5 10.3
387(10) 0.00911 338.5 9.8
355(10) 0.00986 338.5 9.4
367(10) 0.00929 338.5 9.1
372(10) 0.00930 338.5 8.8
364(10) 0.01025 338.5 8.5
358(10) 0.00972 338.5 8.3
348(10) 0.00964 338.6 8.0
338(10) 0.01016 338.6 7.9
359(10) 0.00984 338.6 7.7
369(10) 0.01013 338.6 7.6
371(10) 0.00916 338.6 7.4
331(10) 0.01004 338.6 7.3
357(10) 0.00970 338.6 7.3
361(10) 0.01002 338.7 7.2
358(10) 0.01046 338.7 7.1
370(10) 0.00956 338.7 7.1
400(11) 0.00822 338.7 7.1
371(10) 0.00951 338.7 7.1
363(10) 0.01016 338.7 7.1
337(9) 0.01118 338.7 7.2
355(10) 0.00957 338.7 7.2
345(10) 0.00963 338.8 7.3
370(10) 0.00909 338.8 7.4
339(10) 0.01096 338.8 7.5
347(10) 0.01079 338.8 7.6
328(10) 0.01090 338.8 7.8
352(10) 0.00923 338.8 8.0
396(11) 0.00870 338.8 8.2
364(10) 0.01025 338.9 8.4
352(10) 0.01048 338.9 8.7
356(10) 0.00925 338.9 9.0
377(11) 0.00839 338.9 9.4
360(10) 0.00957 338.9 9.8
367(10) 0.01012 338.9 10.3
336(10) 0.01070 338.9 10.9
339(10) 0.01013 338.9 11.6
356(10) 0.00952 339.0 12.3
349(10) 0.00982 339.0 13.3
339(10) 0.01106 339.0 14.4
338(10) 0.01097 339.0 15.8
353(10) 0.01018 339.0 17.6
382(11) 0.00899 339.0 20.0
383(10) 0.00933 339.0 23.2
415(11) 0.00898 339.1 27.4
382(10) 0.00921 339.1 33.1
399(11) 0.00835 339.1 40.6
384(11) 0.00874 339.1 50.3
416(11) 0.00822 339.1 62.5
422(11) 0.00890 339.1 77.4
452(11) 0.00770 339.1 94.9
461(12) 0.00750 339.1 114.6
461(12) 0.00733 339.2 135.3
489(12) 0.00719 339.2 155.3
520(12) 0.00715 339.2 171.9
532(12) 0.00661 339.2 182.0
545(13) 0.00622 339.2 183.2
520(12) 0.00672 339.2 175.2
487(12) 0.00730 339.2 160.0
477(11) 0.00780 339.3 140.7
448(11) 0.00778 339.3 120.0
396(11) 0.00877 339.3 100.0
412(11) 0.00819 339.3 81.9
417(11) 0.00863 339.3 66.4
386(10) 0.00948 339.3 53.5
407(11) 0.00863 339.3 43.3
366(10) 0.00945 339.3 35.4
381(11) 0.00906 339.4 29.4
352(10) 0.01074 339.4 25.0
357(10) 0.01043 339.4 21.7
373(10) 0.00939 339.4 19.3
380(11) 0.00875 339.4 17.6
353(10) 0.00994 339.4 16.4
334(10) 0.01092 339.4 15.4
355(10) 0.01055 339.4 14.8
386(11) 0.00900 339.5 14.3
369(11) 0.00886 339.5 14.1
364(10) 0.00953 339.5 14.0
376(10) 0.00990 339.5 14.0
348(10) 0.01072 339.5 14.2
344(10) 0.01060 339.5 14.5
371(11) 0.00872 339.5 15.0
368(10) 0.00937 339.6 15.5
354(10) 0.01057 339.6 16.2
379(10) 0.00963 339.6 16.9
359(10) 0.00952 339.6 17.7
347(10) 0.00941 339.6 18.6
351(10) 0.00970 339.6 19.5
356(10) 0.01038 339.6 20.4
377(10) 0.00954 339.6 21.3
344(10) 0.00989 339.7 22.0
371(11) 0.00873 339.7 22.6
369(10) 0.00911 339.7 23.1
352(10) 0.01052 339.7 23.3
347(10) 0.01048 339.7 23.2
344(10) 0.00995 339.7 22.9
358(10) 0.00948 339.7 22.4
370(10) 0.00937 339.8 21.6
375(10) 0.00999 339.8 20.7
354(10) 0.00975 339.8 19.6
334(10) 0.01028 339.8 18.5
349(10) 0.00943 339.8 17.3
324(10) 0.01052 339.8 16.1
356(10) 0.01043 339.8 15.0
390(10) 0.00917 339.8 13.9
351(10) 0.00967 339.9 12.8
348(10) 0.01011 339.9 11.9
348(10) 0.01044 339.9 11.0
345(10) 0.01064 339.9 10.2
321(10) 0.01099 339.9 9.4
377(11) 0.00843 339.9 8.7
399(11) 0.00833 339.9 8.1
357(10) 0.01035 340.0 7.6
346(10) 0.01068 340.0 7.2
361(10) 0.00961 340.0 6.7
331(10) 0.01099 340.0 6.4
378(10) 0.00931 340.0 6.1
354(10) 0.01026 340.0 5.8
328(9) 0.01127 340.0 5.6
351(10) 0.00964 340.0 5.4
347(10) 0.00916 340.1 5.2
350(10) 0.00982 340.1 5.1
350(10) 0.01031 340.1 4.9
343(10) 0.01093 340.1 4.8
357(10) 0.00962 340.1 4.7
357(11) 0.00861 340.1 4.6
333(10) 0.01052 340.1 4.5
378(10) 0.00973 340.2 4.5
345(10) 0.01081 340.2 4.4
338(10) 0.01016 340.2 4.4
349(10) 0.00953 340.2 4.3
357(10) 0.00987 340.2 4.3
346(10) 0.01074 340.2 4.3
330(9) 0.01126 340.2 4.2
350(10) 0.00996 340.2 4.2
354(10) 0.00953 340.3 4.2
357(10) 0.01004 340.3 4.1
376(10) 0.00978 340.3 4.1
345(10) 0.01051 340.3 4.1
354(10) 0.00979 340.3 4.1
352(10) 0.00939 340.3 4.1
326(10) 0.01052 340.3 4.1
342(10) 0.01074 340.4 4.1
346(10) 0.01063 340.4 4.1
368(10) 0.00949 340.4 4.1
342(10) 0.00935 340.4 4.1
334(10) 0.01016 340.4 4.1
328(9) 0.01138 340.4 4.1
347(10) 0.01024 340.4 4.2
378(11) 0.00880 340.5 4.2
344(10) 0.00993 340.5 4.2
360(10) 0.00992 340.6 4.2
361(10) 0.01020 340.6 4.3
377(10) 0.00929 340.7 4.3
353(10) 0.00943 340.7 4.3
341(10) 0.01047 340.8 4.4
385(10) 0.00918 340.8 4.4
350(10) 0.01073 340.9 4.5
379(10) 0.00929 340.9 4.5
357(11) 0.00900 341.0 4.6
361(10) 0.00972 341.0 4.6
360(10) 0.00985 341.1 4.7
335(10) 0.01103 341.1 4.8
341(10) 0.01034 341.2 4.9
354(10) 0.00928 341.2 4.9
339(10) 0.01009 341.3 5.0
333(9) 0.01115 341.3 5.1
353(10) 0.01051 341.4 5.2
342(10) 0.01024 341.4 5.3
347(10) 0.00967 341.5 5.5
364(10) 0.00960 341.5 5.6
377(10) 0.00965 341.6 5.7
371(10) 0.00999 341.6 5.9
338(10) 0.01065 341.7 6.1
347(10) 0.00924 341.7 6.3
329(10) 0.01079 341.8 6.5
339(10) 0.01096 341.8 6.7
363(10) 0.01010 341.9 6.9
339(10) 0.01047 341.9 7.1
355(10) 0.00951 342.0 7.4
346(10) 0.01052 342.0 7.7
337(10) 0.01104 342.1 8.0
354(10) 0.01052 342.1 8.3
338(10) 0.01066 342.2 8.6
351(10) 0.00928 342.2 9.0
343(10) 0.00995 342.3 9.3
342(10) 0.01090 342.3 9.7
364(10) 0.00989 342.4 10.1
357(10) 0.00976 342.4 10.5
332(10) 0.01026 342.5 11.0
343(10) 0.01008 342.5 11.4
360(10) 0.01042 342.6 11.8
363(10) 0.00993 342.6 12.3
353(10) 0.00968 342.7 12.7
353(10) 0.00933 342.7 13.1
334(10) 0.01033 342.8 13.5
369(10) 0.01006 342.8 13.9
369(10) 0.00989 342.9 14.3
363(10) 0.00917 342.9 14.7
345(10) 0.00968 343.0 15.0
391(11) 0.00881 343.0 15.3
374(10) 0.00990 343.1 15.6
378(10) 0.00931 343.1 15.9
354(10) 0.00992 343.2 16.1
340(10) 0.01061 343.2 16.4
355(10) 0.01020 343.3 16.6
369(10) 0.00997 343.3 16.9
373(10) 0.00915 343.4 17.1
366(10) 0.00921 343.4 17.4
360(10) 0.00946 343.5 17.8
359(10) 0.01019 343.5 18.1
351(10) 0.01067 343.6 18.5
347(10) 0.01010 343.6 19.0
378(11) 0.00866 343.7 19.5
349(10) 0.00998 343.8 20.1
344(10) 0.01048 343.8 20.8
373(10) 0.00992 343.9 21.5
371(10) 0.00948 343.9 22.2
337(10) 0.00995 344.0 23.1
330(10) 0.01008 344.0 24.0
343(10) 0.01062 344.1 25.0
388(10) 0.00974 344.1 26.0
360(10) 0.00961 344.2 27.1
365(11) 0.00883 344.2 28.3
368(10) 0.00936 344.3 29.6
384(10) 0.00948 344.3 30.9
381(10) 0.00984 344.4 32.3
394(11) 0.00867 344.4 33.7
366(11) 0.00886 344.5 35.2
384(11) 0.00898 344.5 36.7
408(11) 0.00905 344.6 38.3
407(10) 0.00916 344.6 39.9
372(10) 0.00956 344.7 41.4
353(10) 0.00928 344.7 43.0
379(10) 0.00915 344.8 44.6
394(10) 0.00948 344.8 46.2
396(10) 0.00917 344.9 47.7
378(10) 0.00955 344.9 49.1
393(11) 0.00847 345.0 50.5
380(10) 0.00920 345.0 51.8
380(10) 0.00991 345.1 53.0
385(10) 0.00923 345.1 54.0
409(11) 0.00848 345.2 55.0
377(10) 0.00909 345.2 55.8
376(10) 0.00922 345.3 56.5
395(10) 0.00931 345.3 57.1
394(10) 0.00933 345.4 57.6
386(10) 0.00913 345.4 58.0
401(11) 0.00824 345.5 58.3
392(11) 0.00884 345.5 58.6
415(11) 0.00896 345.6 58.9
389(11) 0.00893 345.6 59.2
394(11) 0.00883 345.7 59.5
403(11) 0.00854 345.7 59.9
413(11) 0.00887 345.8 60.3
415(11) 0.00881 345.8 60.8
429(11) 0.00828 345.9 61.3
417(11) 0.00835 345.9 62.0
432(11) 0.00799 346.0 62.6
409(11) 0.00891 346.0 63.3
433(11) 0.00866 346.1 63.9
406(11) 0.00832 346.1 64.3
429(11) 0.00762 346.2 64.6
433(11) 0.00787 346.2 64.6
449(11) 0.00793 346.3 64.3
444(11) 0.00843 346.3 63.7
429(11) 0.00802 346.4 62.8
429(12) 0.00752 346.4 61.7
407(11) 0.00858 346.5 60.5
415(11) 0.00892 346.5 59.1
426(11) 0.00881 346.6 57.6
434(11) 0.00776 346.6 56.0
378(11) 0.00880 346.7 54.2
390(10) 0.00919 346.7 52.0
420(11) 0.00882 346.8 49.6
392(10) 0.00933 346.8 47.1
399(11) 0.00873 346.9 44.7
394(11) 0.00825 346.9 42.5
368(10) 0.00969 347.0 40.5
392(10) 0.00923 347.0 38.9
376(10) 0.00994 347.1 37.5
367(10) 0.00979 347.1 36.4
421(11) 0.00764 347.2 35.5
385(11) 0.00905 347.2 34.9
394(10) 0.00949 347.3 34.4
365(10) 0.00988 347.3 34.1
396(11) 0.00867 347.4 33.9
410(11) 0.00773 347.4 33.9
386(10) 0.00914 347.5 33.9
398(10) 0.00929 347.5 34.1
383(10) 0.00958 347.6 34.3
394(11) 0.00880 347.6 34.6
403(11) 0.00821 347.7 35.0
374(10) 0.00941 347.7 35.4
389(10) 0.00965 347.8 35.9
362(10) 0.00985 347.8 36.5
383(11) 0.00835 347.9 37.0
411(11) 0.00793 347.9 37.6
404(11) 0.00888 348.0 38.3
391(10) 0.00952 348.0 38.9
420(11) 0.00837 348.1 39.5
384(11) 0.00906 348.1 40.2
367(10) 0.00957 348.2 40.8
382(10) 0.00950 348.2 41.4
413(11) 0.00898 348.3 42.0
409(11) 0.00876 348.3 42.5
376(10) 0.00928 348.4 43.0
387(10) 0.00922 348.5 43.4
414(11) 0.00860 348.5 43.7
420(11) 0.00885 348.6 44.0
402(11) 0.00882 348.6 44.2
387(11) 0.00875 348.7 44.3
366(10) 0.00961 348.7 44.3
412(11) 0.00874 348.8 44.3
451(11) 0.00828 348.8 44.1
392(11) 0.00881 348.9 43.8
407(11) 0.00780 348.9 43.5
399(11) 0.00845 349.0 43.1
390(10) 0.00926 349.0 42.6
392(10) 0.00955 349.1 42.0
389(11) 0.00901 349.1 41.4
382(11) 0.00839 349.2 40.7
354(10) 0.00951 349.2 39.9
384(10) 0.00970 349.3 39.2
390(10) 0.00936 349.3 38.3
385(11) 0.00898 349.4 37.5
405(11) 0.00771 349.4 36.7
377(10) 0.00932 349.5 35.8
360(10) 0.01001 349.5 34.9
402(11) 0.00901 349.6 34.0
369(11) 0.00893 349.6 33.2
374(11) 0.00868 349.7 32.3
386(11) 0.00884 349.7 31.5
356(10) 0.01032 349.8 30.7
364(10) 0.01026 349.8 29.8
388(11) 0.00905 349.9 29.1
403(11) 0.00804 349.9 28.3
394(11) 0.00861 350.0 27.6
387(10) 0.00959 350.0 26.8
380(10) 0.00968 350.1 26.2
389(11) 0.00874 350.1 25.5
383(11) 0.00843 350.2 24.9
386(11) 0.00903 350.2 24.3
402(10) 0.00922 350.3 23.7
382(10) 0.00950 350.3 23.2
357(10) 0.00990 350.4 22.7
378(11) 0.00877 350.4 22.2
377(10) 0.00915 350.5 21.8
379(10) 0.00978 350.5 21.4
382(10) 0.00916 350.6 21.0
374(10) 0.00921 350.6 20.6
369(10) 0.00948 350.7 20.3
359(10) 0.00995 350.7 20.0
381(10) 0.00982 350.8 19.8
373(10) 0.00918 350.8 19.5
373(11) 0.00901 350.9 19.3
384(11) 0.00900 350.9 19.1
356(10) 0.00997 351.0 19.0
380(10) 0.00986 351.0 18.8
357(10) 0.01005 351.1 18.7
358(10) 0.00957 351.1 18.6
359(10) 0.00954 351.2 18.5
361(10) 0.01013 351.2 18.5
354(10) 0.01051 351.3 18.4
349(10) 0.00978 351.3 18.3
376(11) 0.00896 351.4 18.3
400(11) 0.00874 351.4 18.3
372(10) 0.00973 351.5 18.2
375(10) 0.00993 351.5 18.2
367(10) 0.00961 351.6 18.1
372(11) 0.00879 351.6 18.1
380(10) 0.00927 351.7 18.0
379(10) 0.00973 351.7 17.9
365(10) 0.01029 351.8 17.9
341(10) 0.01058 351.8 17.8
378(11) 0.00830 351.9 17.8
385(11) 0.00896 351.9 17.8
373(10) 0.00987 352.0 17.8
396(10) 0.00938 352.0 17.9
356(10) 0.00961 352.1 18.1
334(10) 0.00947 352.1 18.3
356(10) 0.00939 352.2 18.7
357(10) 0.01048 352.2 19.2
339(10) 0.01091 352.3 20.0
367(10) 0.00955 352.3 21.0
396(11) 0.00815 352.4 22.3
372(10) 0.00945 352.4 23.8
378(10) 0.00966 352.5 25.7
358(10) 0.01024 352.5 27.9
387(11) 0.00873 352.6 30.4
377(11) 0.00863 352.6 33.0
397(11) 0.00877 352.7 35.8
389(10) 0.00956 352.7 38.4
379(10) 0.00948 352.8 40.6
421(11) 0.00778 352.8 42.3
424(11) 0.00773 352.9 43.0
392(11) 0.00886 352.9 42.8
398(10) 0.00938 353.0 41.5
428(11) 0.00861 353.1 39.4
397(11) 0.00890 353.1 36.6
368(10) 0.00931 353.2 33.6
364(10) 0.00953 353.2 30.5
385(10) 0.00967 353.3 27.4
377(10) 0.00945 353.3 24.6
348(10) 0.00997 353.4 22.0
361(10) 0.00966 353.4 19.7
378(10) 0.00922 353.5 17.8
346(10) 0.01075 353.5 16.1
361(10) 0.00976 353.6 14.8
364(11) 0.00887 353.6 13.7
368(10) 0.00930 353.7 12.8
343(10) 0.01052 353.7 12.1
399(10) 0.00933 353.8 11.5
373(10) 0.00950 353.8 11.1
398(11) 0.00849 353.9 10.8
379(10) 0.00920 353.9 10.5
369(10) 0.00972 354.0 10.4
374(10) 0.00996 354.0 10.3
373(10) 0.00930 354.1 10.2
347(10) 0.00949 354.1 10.2
359(10) 0.00977 354.2 10.3
383(10) 0.00949 354.2 10.4
374(10) 0.00998 354.3 10.5
381(11) 0.00897 354.3 10.7
362(10) 0.00943 354.4 10.9
371(10) 0.00978 354.4 11.2
389(10) 0.00956 354.5 11.5
389(10) 0.00931 354.5 12.0
363(10) 0.01001 354.6 12.5
396(11) 0.00818 354.6 13.2
365(10) 0.01000 354.7 14.0
378(10) 0.00990 354.7 15.0
361(10) 0.01027 354.8 16.3
380(10) 0.00936 354.8 17.9
391(11) 0.00849 354.9 19.9
390(11) 0.00901 354.9 22.4
385(10) 0.00965 355.0 25.4
386(10) 0.00947 355.0 29.1
415(11) 0.00838 355.1 33.6
395(11) 0.00878 355.1 38.9
428(11) 0.00828 355.2 45.0
387(10) 0.00960 355.2 51.9
385(10) 0.00957 355.3 59.7
455(11) 0.00763 355.3 68.0
440(11) 0.00767 355.4 76.6
436(11) 0.00800 355.4 85.1
471(11) 0.00785 355.5 93.0
471(11) 0.00785 355.5 99.4
469(11) 0.00758 355.6 103.6
478(12) 0.00713 355.6 105.0
503(12) 0.00682 355.7 103.4
485(11) 0.00768 355.7 99.1
473(12) 0.00748 355.8 92.6
427(11) 0.00795 355.8 84.7
437(11) 0.00773 355.9 76.2
428(11) 0.00842 355.9 67.6
404(10) 0.00930 356.0 59.4
393(11) 0.00891 356.0 51.8
382(11) 0.00863 356.1 45.0
392(11) 0.00882 356.1 39.0
398(11) 0.00896 356.2 33.9
379(10) 0.00979 356.2 29.5
396(11) 0.00874 356.3 25.9
403(11) 0.00836 356.3 23.0
384(10) 0.00918 356.4 20.6
339(10) 0.01076 356.4 18.7
385(10) 0.00968 356.5 17.2
371(10) 0.00931 356.5 16.0
359(10) 0.00920 356.6 15.1
364(10) 0.00965 356.6 14.3
389(10) 0.00961 356.7 13.7
353(10) 0.01030 356.7 13.2
387(11) 0.00883 356.8 12.8
367(11) 0.00887 356.8 12.5
374(10) 0.00934 356.9 12.3
372(10) 0.00991 356.9 12.1
373(10) 0.00997 357.0 11.9
367(10) 0.00957 357.0 11.8
366(11) 0.00864 357.1 11.7
349(10) 0.01003 357.1 11.6
368(10) 0.01011 357.2 11.6
361(10) 0.01028 357.2 11.6
380(11) 0.00889 357.3 11.6
377(11) 0.00843 357.3 11.6
351(10) 0.01016 357.4 11.7
362(10) 0.01031 357.4 11.7
381(10) 0.00971 357.5 11.8
367(10) 0.00936 357.5 11.9
369(11) 0.00876 357.6 12.0
394(11) 0.00896 357.6 12.1
363(10) 0.01028 357.7 12.2
367(10) 0.00983 357.8 12.4
364(10) 0.00958 357.8 12.5
350(10) 0.00952 357.9 12.7
362(10) 0.00941 357.9 12.8
364(10) 0.01022 358.0 13.0
383(10) 0.00934 358.0 13.1
371(10) 0.00927 358.1 13.3
359(10) 0.00946 358.1 13.5
365(11) 0.00907 358.2 13.7
361(10) 0.01037 358.2 13.9
355(10) 0.01011 358.3 14.1
343(10) 0.01034 358.3 14.3
350(10) 0.00992 358.4 14.5
358(10) 0.00988 358.4 14.6
376(10) 0.00995 358.5 14.8
340(10) 0.01070 358.5 15.0
377(11) 0.00882 358.5 15.2
370(10) 0.00946 358.5 15.4
363(10) 0.00987 358.5 15.6
353(10) 0.01045 358.5 15.8
370(10) 0.00932 358.5 16.0
379(11) 0.00865 358.5 16.1
364(10) 0.00953 358.5 16.3
375(10) 0.00987 358.5 16.4
366(10) 0.01023 358.5 16.6
375(11) 0.00894 358.5 16.7
371(11) 0.00905 358.5 16.9
343(10) 0.01053 358.5 17.0
350(10) 0.01066 358.5 17.1
361(10) 0.01015 358.5 17.2
373(10) 0.00930 358.5 17.3
369(11) 0.00873 358.5 17.4
381(11) 0.00878 358.5 17.5
374(10) 0.00987 358.5 17.6
378(10) 0.00977 358.5 17.7
375(10) 0.00923 358.5 17.7
365(11) 0.00881 358.5 17.8
399(11) 0.00885 358.5 17.9
376(10) 0.00985 358.5 17.9
371(10) 0.00993 358.5 17.9
380(10) 0.00921 358.5 18.0
379(11) 0.00862 358.5 18.0
374(10) 0.00943 358.5 18.0
377(10) 0.00993 358.5 18.0
350(10) 0.01071 358.5 18.0
344(10) 0.01033 358.5 18.0
382(11) 0.00838 358.5 18.0
391(11) 0.00887 358.5 18.0
368(10) 0.01001 358.5 18.0
364(10) 0.01017 358.6 18.0
405(11) 0.00831 358.6 17.9
402(11) 0.00813 358.6 17.9
364(10) 0.00958 358.6 17.9
337(10) 0.01106 358.6 17.8
370(10) 0.00987 358.6 17.8
376(11) 0.00886 358.6 17.7
361(10) 0.00925 358.6 17.7
376(11) 0.00905 358.6 17.6
356(10) 0.01048 358.6 17.6
385(10) 0.00928 358.6 17.5
384(11) 0.00875 358.6 17.5
367(10) 0.00917 358.6 17.4
351(10) 0.00962 358.6 17.4
337(9) 0.01112 358.6 17.3
335(10) 0.01064 358.6 17.2
391(11) 0.00856 358.6 17.2
360(10) 0.01006 358.6 17.1
396(10) 0.00911 358.6 17.1
375(10) 0.00995 358.6 17.0
368(10) 0.00936 358.6 17.0
379(11) 0.00864 358.6 16.9
357(10) 0.00950 358.6 16.9
384(10) 0.00937 358.6 16.8
402(10) 0.00928 358.6 16.8
373(10) 0.00921 358.6 16.8
359(10) 0.00913 358.6 16.7
363(10) 0.00959 358.6 16.7
378(10) 0.00954 358.6 16.7
387(10) 0.00965 358.6 16.7
389(11) 0.00885 358.6 16.7
378(11) 0.00847 358.6 16.7
366(10) 0.00931 358.6 16.7
382(10) 0.00950 358.6 16.7
342(10) 0.01080 358.7 16.7
368(10) 0.00949 358.7 16.8
337(10) 0.00964 358.7 16.8
360(10) 0.00958 358.7 16.8
362(10) 0.01013 358.7 16.9
362(10) 0.01036 358.7 17.0
368(10) 0.00955 358.7 17.0
369(11) 0.00855 358.7 17.1
354(10) 0.00967 358.7 17.1
374(10) 0.01007 358.7 17.2
382(10) 0.00961 358.7 17.3
382(10) 0.00921 358.7 17.4
391(11) 0.00833 358.7 17.5
363(10) 0.00976 358.7 17.5
388(10) 0.00963 358.7 17.6
378(10) 0.00976 358.7 17.7
381(10) 0.00944 358.7 17.8
377(11) 0.00906 358.7 17.9
365(10) 0.00953 358.7 17.9
383(10) 0.00968 358.7 18.0
394(10) 0.00926 358.7 18.0
392(11) 0.00881 358.7 18.1
377(11) 0.00901 358.7 18.1
392(11) 0.00874 358.7 18.2
385(10) 0.00970 358.7 18.2
378(10) 0.00932 358.7 18.2
366(10) 0.00954 358.7 18.1
377(11) 0.00882 358.7 18.1
357(10) 0.00988 358.7 18.1
370(10) 0.01014 358.7 18.0
369(10) 0.00954 358.7 17.9
365(10) 0.00935 358.7 17.8
381(11) 0.00889 358.7 17.7
360(10) 0.01007 358.7 17.6
383(10) 0.00976 358.7 17.4
373(10) 0.00934 358.8 17.3
358(10) 0.00955 358.8 17.1
369(10) 0.00950 358.8 16.9
380(10) 0.00927 358.8 16.7
355(10) 0.01052 358.8 16.5
404(11) 0.00863 358.8 16.4
391(11) 0.00870 358.8 16.2
371(10) 0.00932 358.8 16.0
367(10) 0.00966 358.8 15.8
370(10) 0.01006 358.8 15.6
374(10) 0.00939 358.8 15.4
348(10) 0.00986 358.8 15.3
391(11) 0.00887 358.8 15.2
383(10) 0.00959 358.8 15.1
365(10) 0.01025 358.8 15.1
368(10) 0.00946 358.8 15.2
343(10) 0.00947 358.8 15.4
358(10) 0.00982 358.8 15.8
388(10) 0.00962 358.8 16.5
377(10) 0.00996 358.8 17.6
385(10) 0.00923 358.8 19.3
394(11) 0.00822 358.8 21.8
389(11) 0.00890 358.8 25.2
382(10) 0.00955 358.8 29.4
403(10) 0.00916 358.8 34.3
390(10) 0.00911 358.8 39.6
419(11) 0.00757 358.8 44.4
421(11) 0.00833 358.8 47.7
403(10) 0.00922 358.8 48.4
412(11) 0.00885 358.8 46.2
391(11) 0.00898 358.8 41.9
379(11) 0.00875 358.8 36.5
382(10) 0.00916 358.8 31.1
365(10) 0.01018 358.8 26.2
387(10) 0.00935 358.9 22.2
378(10) 0.00930 358.9 19.0
375(11) 0.00882 358.9 16.7
370(10) 0.00922 358.9 15.1
391(10) 0.00943 358.9 14.0
390(10) 0.00941 358.9 13.2
381(11) 0.00886 358.9 12.8
386(11) 0.00869 358.9 12.5
374(10) 0.00918 358.9 12.3
367(10) 0.01005 358.9 12.2
370(10) 0.00974 358.9 12.2
366(11) 0.00907 358.9 12.2
349(10) 0.00993 358.9 12.2
385(10) 0.00921 358.9 12.3
375(10) 0.00991 358.9 12.4
365(10) 0.00958 358.9 12.6
378(11) 0.00879 358.9 12.8
366(10) 0.00918 358.9 12.9
356(10) 0.01003 358.9 13.1
350(10) 0.01069 358.9 13.4
376(11) 0.00897 358.9 13.6
379(11) 0.00897 358.9 13.8
357(10) 0.00977 358.9 14.1
372(10) 0.00958 358.9 14.3
362(10) 0.01038 358.9 14.6
362(10) 0.00949 358.9 14.9
377(11) 0.00899 358.9 15.1
362(10) 0.01002 358.9 15.4
386(10) 0.00958 358.9 15.7
366(10) 0.01011 358.9 15.9
372(10) 0.00944 358.9 16.1
360(10) 0.00919 358.9 16.3
385(11) 0.00884 358.9 16.5
373(10) 0.00987 358.9 16.7
378(10) 0.00983 359.0 16.9
384(11) 0.00889 359.0 17.0
364(11) 0.00901 359.0 17.1
379(10) 0.00933 359.0 17.2
341(10) 0.01097 359.0 17.3
390(10) 0.00949 359.0 17.4
377(11) 0.00899 359.0 17.4
362(11) 0.00894 359.0 17.4
343(10) 0.01030 359.0 17.4
393(10) 0.00931 359.0 17.4
368(10) 0.00995 359.0 17.4
357(10) 0.00976 359.0 17.3
358(10) 0.00922 359.0 17.3
378(11) 0.00877 359.0 17.3
380(10) 0.00991 359.0 17.2
388(10) 0.00949 359.0 17.3
399(11) 0.00867 359.0 17.2
357(10) 0.00964 359.0 17.2
354(10) 0.00996 359.0 17.2
381(10) 0.00966 359.0 17.2
374(10) 0.00991 359.0 17.2
358(10) 0.00962 359.0 17.3
345(10) 0.00967 359.0 17.3
364(10) 0.00936 359.0 17.4
353(10) 0.01063 359.0 17.4
387(11) 0.00900 359.0 17.5
365(10) 0.00940 359.0 17.6
372(11) 0.00898 359.0 17.6
356(10) 0.01008 359.0 17.7
374(10) 0.00996 359.0 17.7
379(10) 0.00939 359.0 17.8
339(10) 0.01049 359.0 17.8
384(11) 0.00874 359.0 17.8
376(10) 0.00967 359.0 17.8
372(10) 0.01002 359.0 17.8
346(10) 0.01006 359.1 17.8
371(11) 0.00906 359.1 17.8
360(10) 0.00967 359.1 17.8
343(10) 0.01025 359.1 17.9
355(10) 0.01047 359.1 17.9
372(10) 0.00921 359.1 18.1
355(10) 0.00954 359.1 18.3
366(10) 0.00956 359.1 18.7
389(10) 0.00934 359.1 19.4
370(10) 0.01011 359.1 20.3
368(10) 0.00952 359.1 21.6
389(11) 0.00846 359.1 23.6
405(11) 0.00841 359.1 26.2
355(10) 0.01038 359.1 29.6
375(10) 0.00989 359.1 34.1
396(11) 0.00895 359.1 39.6
379(11) 0.00866 359.1 46.1
381(11) 0.00891 359.1 53.5
417(11) 0.00882 359.1 61.6
411(10) 0.00908 359.1 69.5
405(11) 0.00857 359.1 76.5
398(11) 0.00797 359.1 81.4
425(11) 0.00812 359.1 83.2
397(10) 0.00941 359.1 81.4
402(10) 0.00924 359.1 76.4
432(11) 0.00776 359.1 69.4
423(11) 0.00772 359.1 61.4
402(11) 0.00870 359.1 53.5
393(10) 0.00938 359.1 46.1
356(10) 0.01026 359.1 39.6
361(10) 0.00959 359.1 34.2
379(11) 0.00899 359.1 29.9
397(11) 0.00851 359.1 26.6
365(10) 0.00996 359.1 24.2
371(10) 0.00997 359.2 22.7
392(11) 0.00866 359.2 21.8
353(10) 0.00977 359.2 21.5
375(10) 0.00917 359.2 21.7
358(10) 0.01047 359.2 22.3
387(10) 0.00910 359.2 23.3
374(10) 0.00928 359.2 24.7
359(10) 0.00953 359.2 26.4
368(10) 0.00952 359.2 28.5
401(10) 0.00916 359.2 30.9
413(11) 0.00863 359.2 33.5
402(11) 0.00849 359.2 36.3
370(10) 0.00930 359.2 39.3
423(11) 0.00841 359.2 42.2
422(11) 0.00883 359.2 44.9
394(11) 0.00902 359.2 47.2
395(11) 0.00854 359.2 48.8
419(11) 0.00812 359.2 49.7
414(11) 0.00866 359.2 49.8
434(11) 0.00852 359.2 49.2
393(11) 0.00876 359.2 48.0
377(11) 0.00861 359.2 46.4
366(10) 0.00954 359.2 44.7
419(11) 0.00851 359.2 42.9
386(10) 0.00960 359.2 41.3
364(10) 0.00936 359.2 39.9
406(11) 0.00771 359.2 38.7
384(11) 0.00870 359.2 37.7
405(11) 0.00905 359.2 37.1
398(10) 0.00931 359.2 36.6
383(11) 0.00906 359.2 36.4
382(11) 0.00883 359.2 36.4
404(11) 0.00842 359.2 36.5
393(10) 0.00936 359.2 36.7
393(10) 0.00957 359.2 37.0
396(11) 0.00867 359.3 37.2
372(11) 0.00829 359.3 37.3
360(10) 0.00963 359.3 37.3
386(10) 0.00953 359.3 37.2
413(11) 0.00884 359.3 36.9
382(10) 0.00948 359.3 36.4
393(11) 0.00816 359.3 35.7
359(10) 0.00962 359.3 34.9
394(10) 0.00943 359.3 33.9
378(10) 0.00983 359.3 32.8
362(10) 0.00949 359.3 31.5
391(11) 0.00840 359.3 30.2
395(11) 0.00882 359.3 28.9
341(10) 0.01090 359.3 27.5
356(10) 0.01028 359.3 26.2
333(10) 0.01086 359.3 24.8
352(10) 0.00950 359.3 23.5
339(10) 0.01057 359.3 22.2
376(10) 0.00977 359.3 20.9
341(10) 0.01085 359.3 19.7
384(11) 0.00882 359.3 18.6
367(11) 0.00899 359.3 17.5
390(11) 0.00844 359.3 16.5
382(10) 0.00976 359.3 15.6
351(10) 0.01015 359.3 14.7
375(11) 0.00876 359.3 13.9
347(10) 0.00998 359.3 13.2
388(11) 0.00903 359.3 12.5
379(10) 0.00977 359.3 11.9
355(10) 0.00981 359.3 11.4
361(10) 0.00946 359.3 10.9
371(11) 0.00893 359.3 10.4
368(10) 0.00984 359.3 10.0
389(10) 0.00964 359.3 9.7
371(10) 0.00923 359.4 9.4
346(10) 0.00975 359.4 9.2
362(10) 0.00963 359.4 8.9
369(10) 0.00986 359.4 8.8
371(10) 0.01003 359.4 8.6
339(10) 0.01013 359.4 8.5
370(11) 0.00877 359.4 8.4
368(10) 0.00946 359.4 8.3
370(10) 0.00985 359.4 8.2
376(10) 0.00990 359.4 8.2
337(10) 0.01050 359.4 8.2
370(11) 0.00871 359.4 8.2
340(10) 0.01036 359.4 8.2
355(10) 0.01057 359.4 8.3
381(10) 0.00978 359.4 8.6
361(10) 0.01009 359.4 8.7
371(11) 0.00890 359.4 8.9
361(10) 0.00948 359.4 9.0
353(10) 0.01055 359.4 9.1
357(10) 0.01019 359.4 9.3
356(10) 0.01012 359.4 9.5
366(11) 0.00887 359.4 9.7
378(10) 0.00920 359.4 9.9
374(10) 0.00983 359.4 10.1
377(10) 0.00967 359.4 10.3
365(10) 0.00957 359.4 10.6
389(11) 0.00833 359.4 10.8
403(11) 0.00877 359.4 11.1
349(10) 0.01078 359.4 11.3
377(10) 0.00944 359.4 11.6
376(10) 0.00919 359.4 11.9
359(10) 0.00976 359.4 12.1
357(10) 0.00959 359.4 12.4
361(10) 0.01038 359.4 12.6
380(10) 0.00914 359.4 12.9
359(10) 0.00939 359.4 13.1
380(11) 0.00884 359.4 13.3
359(10) 0.00982 359.4 13.4
367(10) 0.01008 359.3 13.6
376(10) 0.00954 359.3 13.7
374(10) 0.00930 359.3 13.8
384(11) 0.00888 359.2 13.8
376(10) 0.00952 359.2 13.9
361(10) 0.01027 359.2 13.8
379(10) 0.00925 359.1 13.8
371(10) 0.00913 359.1 13.7
372(10) 0.00911 359.1 13.6
336(10) 0.01094 359.0 13.5
374(10) 0.01004 359.0 13.3
396(11) 0.00879 359.0 13.2
402(11) 0.00820 358.9 13.0
361(10) 0.00952 358.9 12.8
365(10) 0.00999 358.9 12.6
353(10) 0.01059 358.8 12.4
356(10) 0.00948 358.8 12.2
378(11) 0.00841 358.8 12.0
351(10) 0.01018 358.7 11.9
353(10) 0.01024 358.7 11.7
367(10) 0.01017 358.7 11.6
357(10) 0.00974 358.6 11.4
358(10) 0.00923 358.6 11.3
396(11) 0.00878 358.6 11.2
382(10) 0.00961 358.5 11.1
349(10) 0.01066 358.5 11.1
363(10) 0.00955 358.5 11.0
374(11) 0.00873 358.5 11.0
344(10) 0.01032 358.4 11.1
360(10) 0.01046 358.4 11.1
399(10) 0.00943 358.4 11.2
355(10) 0.00969 358.3 11.4
380(11) 0.00831 358.3 11.5
340(10) 0.00994 358.3 11.8
350(10) 0.01081 358.2 12.1
353(10) 0.01030 358.2 12.5
359(10) 0.00972 358.2 13.0
366(11) 0.00882 358.1 13.6
354(10) 0.01012 358.1 14.3
361(10) 0.01028 358.1 15.1
364(10) 0.01027 358.0 16.2
380(11) 0.00907 358.0 17.4
386(11) 0.00888 358.0 18.9
384(11) 0.00896 357.9 20.8
424(11) 0.00882 357.9 23.0
382(10) 0.00932 357.9 25.7
399(11) 0.00847 357.8 28.9
399(11) 0.00831 357.8 32.7
416(11) 0.00839 357.8 37.1
424(11) 0.00875 357.7 42.3
431(11) 0.00839 357.7 48.3
448(11) 0.00767 357.7 55.8
437(11) 0.00778 357.6 65.6
455(11) 0.00771 357.6 79.6
481(11) 0.00775 357.6 100.3
490(12) 0.00727 357.5 130.1
524(12) 0.00658 357.5 170.3
591(13) 0.00578 357.5 219.4
691(14) 0.00512 357.4 272.1
666(13) 0.00554 357.4 318.4
718(14) 0.00484 357.4 343.9
683(14) 0.00489 357.3 337.9
616(13) 0.00564 357.3 302.4
587(13) 0.00612 357.3 250.5
506(12) 0.00737 357.3 195.5
513(12) 0.00684 357.2 146.2
478(12) 0.00703 357.2 106.6
451(11) 0.00779 357.2 77.7
414(10) 0.00907 357.1 58.1
413(11) 0.00895 357.1 45.5
381(11) 0.00884 357.1 37.9
377(11) 0.00871 357.0 33.2
429(11) 0.00788 357.0 30.4
397(11) 0.00899 357.0 28.6
437(11) 0.00853 356.9 27.4
417(11) 0.00830 356.9 26.6
393(11) 0.00826 356.9 26.2
394(11) 0.00883 356.8 26.0
375(10) 0.00999 356.8 25.9
405(10) 0.00909 356.8 26.1
390(11) 0.00900 356.7 26.4
393(11) 0.00837 356.7 26.8
386(10) 0.00920 356.7 27.3
379(10) 0.00991 356.6 27.9
386(10) 0.00921 356.6 28.6
384(11) 0.00886 356.6 29.4
383(11) 0.00848 356.5 30.3
397(11) 0.00851 356.5 31.2
399(10) 0.00925 356.5 32.2
386(10) 0.00924 356.4 33.3
362(10) 0.00942 356.4 34.4
398(11) 0.00809 356.4 35.5
393(11) 0.00875 356.3 36.7
376(10) 0.01000 356.3 37.9
357(10) 0.01038 356.3 39.1
400(11) 0.00853 356.2 40.4
408(11) 0.00836 356.2 41.6
418(11) 0.00799 356.2 42.8
410(11) 0.00885 356.2 44.0
381(10) 0.00938 356.1 45.2
382(10) 0.00916 356.1 46.3
397(11) 0.00866 356.1 47.3
391(11) 0.00902 356.0 48.3
410(11) 0.00895 356.0 49.2
399(11) 0.00898 356.0 50.0
406(11) 0.00852 355.9 50.8
397(11) 0.00864 355.9 51.4
408(11) 0.00840 355.9 51.9
390(10) 0.00950 355.8 52.4
418(11) 0.00820 355.8 52.7
432(12) 0.00749 355.8 53.0
393(11) 0.00869 355.7 53.2
405(11) 0.00877 355.7 53.4
388(10) 0.00952 355.7 53.5
416(11) 0.00836 355.6 53.6
420(11) 0.00799 355.6 53.8
429(11) 0.00817 355.6 54.1
439(11) 0.00813 355.5 54.4
396(10) 0.00946 355.5 54.8
401(11) 0.00862 355.5 55.5
424(11) 0.00786 355.4 56.3
429(11) 0.00807 355.4 57.4
434(11) 0.00836 355.4 58.8
404(10) 0.00930 355.3 60.5
453(12) 0.00755 355.3 62.6
426(11) 0.00771 355.3 65.0
399(11) 0.00837 355.2 67.9
422(11) 0.00848 355.2 71.2
443(11) 0.00826 355.2 75.0
450(11) 0.00773 355.1 79.2
503(13) 0.00618 355.1 83.8
481(12) 0.00729 355.1 88.8
499(12) 0.00736 355.0 94.1
456(11) 0.00812 355.0 99.5
451(11) 0.00780 355.0 105.0
507(13) 0.00610 355.0 110.3
482(12) 0.00728 354.9 115.1
491(12) 0.00752 354.9 119.3
498(12) 0.00736 354.9 122.6
484(12) 0.00734 354.8 124.6
494(12) 0.00656 354.8 125.2
474(12) 0.00709 354.8 124.3
478(11) 0.00778 354.7 122.0
490(12) 0.00745 354.7 118.5
467(12) 0.00749 354.7 114.0
453(12) 0.00742 354.6 108.8
453(11) 0.00779 354.6 103.2
460(11) 0.00799 354.6 97.3
483(12) 0.00753 354.5 91.4
463(12) 0.00754 354.5 85.7
450(11) 0.00761 354.5 80.2
435(11) 0.00776 354.4 75.0
437(11) 0.00855 354.4 70.2
430(11) 0.00826 354.4 65.7
421(11) 0.00822 354.3 61.7
446(11) 0.00763 354.3 58.1
402(11) 0.00894 354.3 54.8
404(10) 0.00932 354.2 51.9
430(11) 0.00801 354.2 49.4
422(11) 0.00776 354.2 47.1
417(11) 0.00799 354.1 45.1
427(11) 0.00853 354.1 43.4
424(11) 0.00869 354.1 41.9
436(11) 0.00791 354.0 40.6
411(11) 0.00799 354.0 39.5
402(11) 0.00827 354.0 38.5
408(11) 0.00889 353.9 37.6
382(10) 0.00969 353.9 36.9
378(11) 0.00901 353.9 36.2
405(11) 0.00805 353.9 35.7
366(10) 0.00973 353.8 35.3
395(10) 0.00935 353.8 35.0
413(11) 0.00906 353.8 34.8
407(11) 0.00859 353.7 34.7
429(12) 0.00754 353.7 34.8
435(11) 0.00785 353.7 35.1
418(11) 0.00892 353.6 35.5
397(10) 0.00908 353.6 36.2
412(11) 0.00839 353.6 37.2
411(11) 0.00779 353.5 38.6
439(11) 0.00795 353.5 40.4
394(10) 0.00944 353.5 42.7
386(10) 0.00963 353.4 45.6
418(11) 0.00830 353.4 49.1
467(12) 0.00693 353.4 53.4
419(11) 0.00844 353.3 58.4
420(11) 0.00892 353.3 64.3
428(11) 0.00847 353.3 71.0
440(11) 0.00788 353.2 78.6
480(12) 0.00674 353.2 86.9
449(11) 0.00763 353.2 95.9
480(11) 0.00767 353.1 105.3
492(12) 0.00742 353.1 114.9
501(12) 0.00680 353.1 124.1
508(12) 0.00660 353.0 132.6
536(13) 0.00622 353.0 139.5
518(12) 0.00717 353.0 144.3
517(12) 0.00704 352.9 146.6
543(13) 0.00632 352.9 146.1
571(13) 0.00584 352.9 142.8
505(12) 0.00707 352.8 137.0
510(12) 0.00730 352.8 129.3
495(12) 0.00725 352.8 120.2
481(12) 0.00694 352.7 110.3
486(12) 0.00683 352.7 100.1
456(11) 0.00757 352.7 90.0
417(10) 0.00907 352.7 80.4
437(11) 0.00802 352.6 71.4
467(12) 0.00724 352.6 63.1
423(11) 0.00824 352.6 55.7
416(11) 0.00843 352.5 49.1
404(10) 0.00912 352.5 43.3
380(10) 0.00920 352.5 38.3
397(11) 0.00810 352.4 34.1
386(11) 0.00881 352.4 30.4
372(10) 0.00961 352.4 27.3
358(10) 0.01043 352.3 24.7
393(11) 0.00872 352.3 22.6
390(11) 0.00867 352.3 20.7
380(10) 0.00931 352.2 19.2
380(10) 0.00967 352.2 17.8
374(10) 0.01003 352.2 16.7
369(10) 0.00962 352.1 15.7
350(10) 0.00940 352.1 14.9
363(10) 0.01003 352.1 14.1
379(10) 0.00957 352.0 13.5
370(10) 0.00999 352.0 12.9
349(10) 0.00998 352.0 12.4
352(10) 0.00940 351.9 12.0
371(10) 0.00908 351.9 11.5
363(10) 0.01031 351.9 11.2
360(10) 0.01041 351.8 10.9
390(11) 0.00896 351.8 10.6
367(10) 0.00926 351.8 10.3
351(10) 0.00997 351.7 10.1
369(10) 0.01008 351.7 9.9
368(10) 0.00973 351.7 9.8
349(10) 0.01026 351.6 9.6
360(10) 0.00940 351.6 9.5
344(10) 0.00986 351.6 9.5
378(10) 0.00977 351.6 9.4
366(10) 0.01013 351.5 9.4
394(11) 0.00891 351.5 9.3
387(11) 0.00849 351.5 9.3
356(10) 0.00956 351.4 9.4
369(10) 0.01010 351.4 9.4
394(10) 0.00912 351.4 9.4
382(11) 0.00893 351.3 9.5
358(10) 0.00934 351.3 9.5
344(10) 0.01014 351.3 9.6
355(10) 0.01048 351.2 9.6
355(10) 0.01004 351.2 9.6
334(10) 0.01051 351.2 9.6
393(11) 0.00843 351.1 9.6
351(10) 0.00992 351.1 9.6
379(10) 0.00977 351.1 9.5
357(10) 0.01012 351.0 9.4
373(11) 0.00904 351.0 9.3
352(10) 0.00980 351.0 9.2
351(10) 0.01006 350.9 9.1
340(10) 0.01088 350.9 9.0
364(10) 0.00935 350.9 8.8
361(10) 0.00928 350.8 8.7
369(10) 0.00953 350.8 8.6
403(11) 0.00898 350.8 8.4
358(10) 0.01035 350.7 8.3
345(10) 0.01030 350.7 8.1
399(11) 0.00831 350.7 8.0
352(10) 0.00997 350.6 7.9
352(10) 0.01065 350.6 7.7
397(10) 0.00917 350.6 7.5
371(10) 0.00927 350.5 7.4
345(10) 0.00946 350.5 7.2
346(10) 0.00997 350.5 7.0
350(10) 0.01046 350.4 6.8
346(10) 0.01080 350.4 6.6
356(10) 0.00973 350.4 6.4
361(11) 0.00875 350.4 6.2
344(10) 0.01032 350.3 6.0
348(10) 0.01038 350.3 5.9
340(10) 0.01087 350.3 5.7
348(10) 0.01011 350.2 5.5
334(10) 0.00970 350.2 5.3
336(10) 0.01035 350.2 5.2
368(10) 0.01013 350.1 5.0
365(10) 0.00997 350.1 4.9
350(10) 0.00966 350.1 4.8
341(10) 0.00960 350.0 4.7
347(10) 0.01007 350.0 4.5
366(10) 0.01022 350.0 4.4
326(9) 0.01131 349.9 4.3
350(10) 0.00981 349.9 4.2
372(11) 0.00869 349.9 4.2
339(10) 0.01043 349.8 4.1
357(10) 0.01033 349.8 4.0
359(10) 0.01024 349.8 3.9
364(10) 0.00954 349.7 3.9
365(10) 0.00924 349.7 3.8
353(10) 0.00992 349.7 3.8
342(10) 0.01085 349.6 3.7
344(10) 0.01047 349.6 3.7
367(10) 0.00956 349.6 3.6
365(10) 0.00934 349.5 3.6
356(10) 0.00978 349.5 3.5
370(10) 0.01009 349.5 3.5
378(10) 0.00936 349.4 3.5
324(10) 0.01076 349.4 3.4
362(10) 0.00948 349.4 3.4
379(10) 0.00939 349.4 3.4
336(9) 0.01110 349.4 3.4
342(10) 0.01002 349.4 3.4
355(10) 0.00974 349.4 3.3
355(10) 0.00981 349.4 3.3
328(10) 0.01101 349.4 3.3
356(10) 0.01054 349.4 3.3
356(10) 0.00990 349.4 3.3
363(10) 0.00933 349.4 3.3
347(10) 0.01006 349.4 3.3
384(10) 0.00972 349.4 3.3
362(10) 0.01008 349.4 3.3
369(11) 0.00874 349.4 3.3
358(11) 0.00895 349.4 3.2
344(10) 0.01033 349.4 3.2
361(10) 0.01029 349.4 3.2
363(10) 0.01029 349.4 3.2
344(10) 0.01032 349.4 3.2
378(11) 0.00831 349.4 3.2
346(10) 0.01018 349.4 3.3
368(10) 0.01021 349.4 3.3
359(10) 0.01038 349.4 3.3
343(10) 0.01002 349.4 3.3
347(11) 0.00901 349.4 3.3
352(10) 0.00981 349.4 3.3
351(10) 0.01060 349.4 3.3
344(10) 0.01081 349.4 3.3
320(9) 0.01126 349.3 3.3
355(11) 0.00902 349.3 3.3
357(10) 0.00957 349.3 3.4
364(10) 0.01039 349.3 3.4
334(10) 0.01082 349.3 3.4
342(10) 0.01048 349.3 3.4
324(10) 0.01058 349.3 3.4
344(10) 0.00978 349.3 3.5
346(10) 0.01063 349.3 3.5
333(10) 0.01096 349.3 3.5
327(10) 0.01067 349.3 3.5
344(10) 0.00997 349.3 3.6
356(10) 0.00936 349.3 3.6
357(10) 0.01048 349.3 3.6
345(10) 0.00998 349.3 3.7
326(10) 0.01098 349.3 3.7
348(10) 0.01008 349.3 3.7
339(10) 0.01039 349.3 3.8
331(9) 0.01139 349.3 3.8
343(10) 0.01026 349.3 3.9
370(10) 0.00921 349.3 3.9
376(10) 0.00915 349.3 4.0
380(10) 0.00917 349.3 4.0
368(10) 0.01004 349.3 4.1
366(10) 0.00973 349.3 4.2
349(10) 0.00972 349.3 4.2
369(10) 0.00909 349.3 4.3
357(10) 0.01020 349.3 4.4
360(10) 0.01039 349.3 4.4
355(10) 0.00973 349.3 4.5
326(10) 0.01042 349.2 4.6
335(10) 0.00989 349.2 4.7
322(9) 0.01146 349.2 4.8
364(10) 0.01030 349.2 4.9
358(10) 0.00948 349.2 5.0
361(11) 0.00902 349.2 5.1
348(10) 0.01025 349.2 5.2
359(10) 0.01029 349.2 5.3
360(10) 0.01032 349.2 5.4
357(10) 0.00968 349.2 5.5
372(11) 0.00869 349.2 5.6
321(10) 0.01107 349.2 5.8
332(10) 0.01095 349.2 5.9
328(9) 0.01126 349.2 6.1
355(10) 0.00966 349.2 6.2
339(10) 0.00947 349.2 6.4
329(10) 0.01056 349.2 6.6
351(10) 0.01055 349.2 6.8
363(10) 0.01018 349.2 7.0
344(10) 0.01018 349.2 7.2
371(11) 0.00867 349.2 7.4
378(11) 0.00870 349.2 7.6
348(10) 0.01067 349.2 7.9
341(10) 0.01092 349.2 8.2
344(10) 0.01005 349.2 8.5
349(11) 0.00900 349.2 8.8
352(10) 0.00967 349.2 9.1
348(10) 0.01061 349.2 9.5
368(10) 0.01011 349.2 9.8
381(10) 0.00927 349.1 10.2
357(10) 0.00947 349.1 10.7
348(10) 0.00985 349.1 11.2
352(10) 0.01060 349.1 11.7
311(9) 0.01195 349.1 12.3
354(10) 0.00978 349.1 12.9
380(11) 0.00859 349.1 13.5
385(11) 0.00865 349.1 14.2
380(10) 0.00971 349.1 15.0
357(10) 0.00971 349.1 15.8
366(10) 0.00915 349.1 16.7
339(10) 0.01031 349.1 17.7
367(10) 0.00985 349.1 18.7
367(10) 0.01003 349.1 19.8
366(10) 0.00977 349.1 21.0
361(10) 0.00989 349.1 22.2
355(10) 0.00976 349.1 23.5
391(11) 0.00890 349.1 24.9
374(10) 0.00997 349.1 26.4
405(11) 0.00854 349.1 28.0
393(11) 0.00881 349.1 29.7
339(10) 0.01090 349.1 31.4
383(10) 0.00941 349.1 33.2
367(10) 0.01007 349.1 35.1
384(10) 0.00909 349.1 37.0
403(11) 0.00825 349.1 39.0
411(11) 0.00846 349.1 41.0
405(11) 0.00887 349.1 43.1
359(10) 0.01048 349.1 45.2
403(11) 0.00840 349.1 47.3
410(11) 0.00791 349.0 49.3
382(11) 0.00898 349.0 51.4
394(10) 0.00922 349.0 53.3
381(10) 0.00986 349.0 55.2
416(11) 0.00826 349.0 57.0
398(11) 0.00812 349.0 58.6
388(11) 0.00878 349.0 60.0
400(10) 0.00912 349.0 61.2
428(11) 0.00861 349.0 62.2
393(11) 0.00888 349.0 62.9
418(11) 0.00768 349.0 63.3
398(11) 0.00853 349.0 63.5
400(10) 0.00935 349.0 63.4
396(10) 0.00933 349.0 63.0
422(11) 0.00826 349.0 62.3
392(11) 0.00864 349.0 61.3
399(11) 0.00879 349.0 60.1
395(10) 0.00944 349.0 58.7
401(11) 0.00901 349.0 57.1
374(10) 0.00924 349.0 55.4
381(11) 0.00867 349.0 53.5
394(11) 0.00881 349.0 51.5
392(10) 0.00945 349.0 49.5
383(10) 0.00961 349.0 47.4
360(10) 0.00958 349.0 45.2
379(11) 0.00848 349.0 43.1
368(10) 0.00935 349.0 41.0
389(10) 0.00964 349.0 39.0
375(10) 0.00963 349.0 37.0
372(10) 0.00926 349.0 35.0
362(11) 0.00906 348.9 33.1
403(11) 0.00863 348.9 31.2
373(10) 0.00999 348.9 29.4
387(10) 0.00909 348.9 27.8
378(10) 0.00916 348.9 26.1
375(10) 0.00911 348.9 24.6
363(10) 0.00971 348.9 23.2
383(10) 0.00974 348.9 21.8
327(10) 0.01086 348.9 20.5
374(11) 0.00905 348.9 19.3
383(11) 0.00879 348.9 18.2
366(10) 0.00993 348.9 17.1
340(10) 0.01093 348.9 16.2
355(10) 0.00967 348.9 15.3
360(10) 0.00950 348.9 14.4
365(10) 0.00957 348.9 13.7
384(10) 0.00972 348.9 13.0
371(10) 0.00993 348.9 12.3
369(10) 0.00945 348.9 11.7
343(10) 0.00979 348.9 11.2
320(10) 0.01091 348.9 10.7
344(10) 0.01074 348.9 10.2
344(10) 0.01096 348.9 9.8
371(10) 0.00964 348.9 9.4
348(10) 0.00975 348.9 9.1
354(10) 0.00945 348.9 8.8
350(10) 0.01055 348.9 8.5
357(10) 0.01036 348.9 8.2
363(10) 0.00960 348.9 8.0
349(10) 0.00946 348.9 7.7
335(10) 0.01077 348.8 7.5
355(10) 0.01025 348.8 7.4
346(10) 0.01080 348.8 7.2
353(10) 0.01013 348.8 7.1
373(11) 0.00852 348.8 6.9
379(10) 0.00908 348.8 6.8
369(10) 0.01011 348.8 6.7
361(10) 0.01031 348.8 6.6
376(10) 0.00926 348.8 6.5
360(10) 0.00915 348.8 6.4
344(10) 0.01019 348.8 6.4
360(10) 0.01026 348.8 6.3
370(10) 0.00984 348.8 6.3
353(10) 0.00972 348.8 6.2
344(10) 0.01010 348.8 6.2
357(10) 0.00975 348.8 6.2
340(10) 0.01099 348.8 6.1
369(10) 0.00982 348.8 6.1
352(10) 0.00977 348.8 6.1
312(10) 0.01067 348.8 6.1
372(11) 0.00902 348.8 6.2
368(10) 0.01018 348.8 6.2
349(10) 0.01015 348.8 6.2
364(11) 0.00906 348.8 6.3
359(10) 0.00938 348.8 6.4
331(10) 0.01101 348.8 6.5
347(10) 0.01063 348.8 6.6
361(10) 0.00973 348.8 6.7
352(10) 0.00977 348.8 6.8
335(10) 0.01039 348.7 7.0
346(10) 0.01005 348.7 7.1
335(9) 0.01109 348.7 7.3
351(10) 0.00975 348.7 7.6
351(10) 0.00966 348.7 7.9
364(10) 0.00954 348.7 8.2
369(10) 0.00988 348.7 8.6
365(10) 0.01030 348.7 9.0
375(10) 0.00918 348.7 9.5
371(10) 0.00910 348.7 10.1
371(10) 0.00923 348.7 10.8
373(10) 0.00994 348.7 11.7
375(10) 0.00993 348.7 12.7
366(10) 0.00969 348.7 14.2
372(11) 0.00889 348.7 16.3
386(11) 0.00901 348.7 19.5
386(10) 0.00963 348.7 24.7
384(10) 0.00969 348.7 32.7
387(10) 0.00908 348.7 44.4
438(12) 0.00736 348.7 60.3
434(11) 0.00818 348.7 79.5
466(11) 0.00794 348.7 100.0
456(11) 0.00818 348.7 117.1
505(12) 0.00682 348.7 125.3
432(11) 0.00776 348.7 121.2
425(11) 0.00842 348.7 107.1
457(11) 0.00821 348.7 88.7
467(11) 0.00785 348.7 70.6
419(11) 0.00828 348.7 55.6
410(11) 0.00783 348.7 44.7
397(11) 0.00894 348.6 37.6
422(11) 0.00885 348.6 33.5
391(10) 0.00919 348.6 31.4
384(10) 0.00916 348.6 30.4
356(10) 0.00938 348.6 30.1
395(11) 0.00879 348.6 30.0
419(11) 0.00885 348.6 30.0
378(10) 0.00954 348.6 29.8
397(11) 0.00882 348.6 29.4
402(11) 0.00831 348.6 28.9
392(11) 0.00902 348.6 28.1
407(10) 0.00913 348.6 27.3
393(11) 0.00890 348.6 26.3
401(11) 0.00828 348.6 25.3
393(11) 0.00870 348.6 24.2
389(10) 0.00914 348.6 23.2
378(10) 0.00981 348.6 22.1
377(10) 0.00954 348.6 21.0
386(11) 0.00873 348.6 20.0
389(11) 0.00877 348.6 18.9
371(10) 0.00977 348.6 17.9
378(10) 0.00987 348.6 16.9
382(11) 0.00905 348.6 16.0
377(10) 0.00916 348.6 15.1
376(10) 0.00933 348.6 14.3
344(10) 0.01068 348.6 13.5
385(10) 0.00966 348.6 12.7
378(10) 0.00913 348.6 12.0
341(10) 0.00978 348.6 11.4
373(10) 0.00911 348.6 10.8
358(10) 0.00990 348.5 10.2
358(10) 0.01045 348.5 9.7
348(10) 0.00981 348.5 9.2
363(11) 0.00886 348.5 8.8
363(10) 0.00915 348.5 8.4
313(9) 0.01185 348.5 8.1
353(10) 0.01044 348.5 7.8
349(10) 0.01026 348.5 7.5
346(10) 0.00931 348.5 7.3
364(10) 0.00921 348.5 7.1
349(10) 0.01051 348.5 6.9
342(10) 0.01101 348.5 6.7
340(10) 0.01040 348.5 6.6
347(10) 0.00962 348.5 6.4
350(10) 0.01009 348.5 6.3
355(10) 0.01048 348.5 6.2
343(10) 0.01064 348.5 6.2
362(10) 0.00961 348.5 6.1
374(11) 0.00889 348.5 6.1
346(10) 0.01008 348.5 6.0
337(9) 0.01113 348.5 6.0
297(9) 0.01221 348.5 6.0
327(10) 0.01090 348.5 6.0
355(10) 0.00938 348.5 6.0
360(10) 0.00948 348.5 6.0
359(10) 0.01025 348.5 6.0
353(10) 0.01010 348.5 6.1
348(10) 0.00984 348.5 6.1
358(10) 0.00931 348.5 6.2
350(10) 0.00968 348.4 6.3
355(10) 0.01044 348.4 6.3
344(10) 0.01038 348.4 6.4
372(11) 0.00898 348.4 6.5
351(10) 0.00984 348.4 6.7
356(10) 0.00968 348.4 6.9
352(10) 0.01059 348.4 7.0
346(10) 0.01021 348.4 7.2
343(10) 0.00983 348.4 7.4
382(11) 0.00885 348.4 7.7
370(10) 0.00996 348.4 7.9
336(10) 0.01107 348.4 8.3
377(10) 0.00916 348.4 8.6
391(11) 0.00888 348.4 9.1
358(10) 0.00965 348.3 9.6
361(10) 0.00983 348.3 10.2
353(10) 0.01055 348.3 10.9
370(10) 0.00938 348.3 11.7
335(10) 0.01024 348.3 12.6
360(10) 0.00959 348.3 13.6
353(10) 0.01057 348.3 14.7
366(10) 0.01017 348.3 15.9
395(11) 0.00898 348.3 17.1
359(10) 0.00931 348.3 18.3
339(10) 0.01015 348.3 19.5
357(10) 0.01027 348.3 20.4
349(10) 0.01070 348.3 21.1
371(10) 0.00924 348.2 21.5
369(11) 0.00863 348.2 21.5
353(10) 0.00998 348.2 21.3
366(10) 0.01003 348.2 21.0
369(10) 0.00986 348.2 20.5
374(10) 0.00916 348.2 20.1
348(10) 0.00960 348.2 19.6
366(10) 0.00969 348.2 19.3
390(10) 0.00967 348.2 19.0
381(10) 0.00948 348.2 18.8
361(10) 0.00950 348.2 18.7
365(11) 0.00898 348.2 18.6
391(11) 0.00889 348.2 18.6
365(10) 0.01022 348.1 18.7
376(10) 0.00979 348.1 18.8
364(10) 0.00962 348.1 18.9
374(11) 0.00857 348.1 19.1
367(10) 0.00951 348.1 19.3
375(10) 0.00992 348.1 19.5
372(10) 0.00948 348.1 19.7
361(10) 0.00983 348.1 19.9
373(10) 0.00913 348.1 20.0
352(10) 0.00973 348.1 20.1
369(10) 0.01004 348.1 20.1
330(10) 0.01100 348.1 20.0
371(10) 0.00913 348.1 19.8
385(11) 0.00870 348.0 19.5
378(11) 0.00899 348.0 19.2
368(10) 0.01018 348.0 19.0
364(10) 0.00969 348.0 18.7
390(11) 0.00883 348.0 18.5
372(10) 0.00949 348.0 18.3
364(10) 0.00985 348.0 18.2
371(10) 0.00998 348.0 18.2
322(10) 0.01086 348.0 18.2
370(11) 0.00893 348.0 18.2
376(10) 0.00908 348.0 18.3
354(10) 0.01013 348.0 18.4
358(10) 0.01032 348.0 18.6
352(10) 0.00991 348.0 18.7
381(11) 0.00850 347.9 19.0
389(11) 0.00884 347.9 19.3
369(10) 0.00994 347.9 19.6
361(10) 0.01013 347.9 19.9
357(10) 0.00975 347.9 20.3
342(10) 0.01006 347.9 20.7
381(11) 0.00905 347.9 21.2
383(10) 0.00949 347.9 21.7
351(10) 0.01047 347.9 22.2
365(10) 0.00947 347.9 22.9
380(11) 0.00873 347.9 23.6
349(10) 0.01029 347.9 24.3
377(10) 0.00970 347.9 25.3
383(10) 0.00971 347.8 26.6
366(10) 0.00984 347.8 28.4
390(11) 0.00828 347.8 31.1
370(10) 0.00920 347.8 35.2
349(10) 0.01061 347.8 41.0
390(10) 0.00959 347.8 48.6
437(11) 0.00770 347.8 57.8
379(11) 0.00890 347.8 67.3
416(11) 0.00823 347.8 75.1
403(10) 0.00938 347.8 78.6
411(11) 0.00890 347.8 76.6
413(11) 0.00871 347.8 70.5
421(11) 0.00790 347.8 63.0
392(11) 0.00856 347.7 56.2
362(10) 0.01019 347.7 51.1
394(10) 0.00923 347.7 48.1
401(11) 0.00858 347.7 46.8
404(11) 0.00841 347.7 46.9
392(11) 0.00889 347.7 47.7
412(11) 0.00901 347.7 48.6
424(11) 0.00858 347.7 49.4
426(11) 0.00801 347.7 49.9
399(11) 0.00859 347.7 50.2
402(11) 0.00876 347.7 50.4
403(10) 0.00927 347.7 50.7
409(11) 0.00861 347.7 50.9
393(11) 0.00885 347.6 51.2
383(10) 0.00919 347.6 51.5
388(11) 0.00906 347.6 51.7
388(10) 0.00950 347.6 51.9
406(11) 0.00859 347.6 51.9
412(11) 0.00830 347.6 51.9
417(11) 0.00837 347.6 51.7
393(10) 0.00915 347.6 51.4
400(10) 0.00917 347.6 50.8
362(10) 0.00929 347.6 50.0
390(11) 0.00859 347.6 49.0
437(11) 0.00786 347.6 47.8
415(11) 0.00868 347.6 46.4
392(10) 0.00946 347.6 44.9
392(11) 0.00887 347.5 43.4
412(11) 0.00781 347.5 42.0
364(10) 0.00953 347.5 40.7
400(11) 0.00898 347.5 39.6
397(10) 0.00939 347.5 38.8
395(11) 0.00902 347.5 38.6
383(11) 0.00839 347.5 38.8
362(10) 0.00961 347.5 39.7
391(10) 0.00939 347.5 41.3
363(10) 0.01026 347.5 43.6
383(10) 0.00924 347.5 46.5
383(11) 0.00815 347.5 49.8
377(10) 0.00934 347.5 53.2
375(10) 0.00997 347.4 56.1
369(10) 0.01001 347.4 57.7
395(11) 0.00878 347.4 57.6
386(11) 0.00871 347.4 55.4
409(11) 0.00837 347.4 51.7
386(10) 0.00968 347.4 47.0
379(10) 0.00959 347.4 42.1
370(10) 0.00949 347.4 37.3
363(10) 0.00927 347.4 33.0
402(11) 0.00821 347.4 29.3
362(10) 0.01026 347.4 26.3
385(10) 0.00941 347.4 23.9
363(10) 0.00948 347.4 22.0
352(10) 0.00952 347.3 20.5
351(10) 0.01007 347.3 19.4
372(10) 0.00998 347.3 18.6
363(10) 0.00998 347.3 17.9
350(10) 0.00989 347.3 17.4
371(11) 0.00904 347.3 17.1
364(10) 0.00974 347.3 16.8
351(10) 0.01062 347.3 16.5
371(10) 0.00961 347.3 16.4
384(11) 0.00882 347.3 16.3
343(10) 0.00998 347.3 16.2
380(11) 0.00907 347.3 16.3
323(9) 0.01143 347.3 16.4
362(10) 0.00951 347.2 16.5
355(10) 0.00938 347.2 16.8
362(10) 0.00954 347.2 17.3
336(10) 0.01058 347.2 18.0
363(10) 0.01031 347.2 19.0
375(10) 0.00930 347.2 20.6
390(11) 0.00866 347.2 22.7
379(10) 0.00913 347.2 25.6
378(10) 0.00961 347.2 29.3
360(10) 0.01036 347.2 33.8
380(11) 0.00906 347.2 38.9
410(11) 0.00794 347.2 44.2
411(11) 0.00837 347.2 48.8
384(10) 0.00948 347.2 51.7
420(11) 0.00876 347.1 52.0
371(11) 0.00903 347.1 49.8
378(11) 0.00839 347.1 45.8
379(11) 0.00897 347.1 41.0
377(10) 0.00989 347.1 36.4
349(10) 0.01053 347.1 32.3
366(10) 0.00956 347.1 29.0
374(11) 0.00849 347.1 26.5
373(11) 0.00907 347.1 24.7
375(10) 0.01000 347.1 23.6
340(10) 0.01083 347.1 23.0
336(10) 0.01021 347.1 22.7
365(11) 0.00873 347.1 22.7
369(10) 0.00945 347.0 22.8
367(10) 0.00995 347.0 23.0
359(10) 0.01032 347.0 23.2
356(10) 0.00972 347.0 23.5
350(10) 0.00944 347.0 23.8
365(10) 0.00946 347.0 24.2
355(10) 0.01022 347.0 24.5
358(10) 0.01035 347.0 24.9
375(11) 0.00906 347.0 25.2
363(11) 0.00904 347.0 25.5
382(10) 0.00926 347.0 25.8
373(10) 0.00987 347.0 26.1
367(10) 0.00999 347.0 26.3
360(10) 0.00961 346.9 26.5
396(11) 0.00845 346.9 26.7
353(10) 0.00986 346.9 26.9
363(10) 0.01033 346.9 27.0
387(10) 0.00918 346.9 27.1
362(10) 0.00951 346.9 27.2
366(10) 0.00948 346.9 27.2
351(10) 0.01026 346.9 27.2
346(10) 0.01087 346.9 27.2
355(10) 0.00984 346.9 27.1
353(10) 0.00955 346.9 27.1
340(10) 0.01049 346.9 27.0
378(10) 0.00942 346.9 26.9
356(10) 0.01046 346.8 26.8
365(10) 0.00920 346.8 26.7
386(11) 0.00866 346.8 26.6
372(10) 0.00957 346.8 26.5
324(9) 0.01145 346.8 26.4
361(10) 0.01026 346.8 26.3
411(11) 0.00814 346.8 26.2
383(11) 0.00861 346.8 26.1
377(11) 0.00904 346.8 26.0
352(10) 0.01049 346.8 25.9
360(10) 0.01033 346.8 25.7
357(10) 0.00966 346.8 25.6
367(11) 0.00888 346.8 25.5
346(10) 0.00985 346.8 25.4
340(10) 0.01081 346.7 25.3
358(10) 0.01045 346.7 25.2
378(11) 0.00897 346.7 25.1
352(10) 0.00961 346.7 25.0
368(10) 0.00934 346.7 24.9
364(10) 0.00996 346.7 24.8
340(10) 0.01092 346.7 24.7
383(10) 0.00919 346.7 24.6
382(11) 0.00856 346.7 24.5
379(10) 0.00922 346.7 24.4
379(10) 0.00985 346.7 24.3
352(10) 0.01046 346.7 24.2
366(10) 0.00971 346.7 24.2
344(10) 0.00950 346.6 24.1
358(10) 0.00958 346.6 24.0
370(10) 0.01005 346.6 24.0
377(10) 0.00952 346.6 24.0
355(10) 0.00966 346.6 23.9
382(11) 0.00850 346.6 23.9
359(10) 0.00953 346.6 24.0
373(10) 0.01007 346.6 24.0
365(10) 0.01016 346.6 24.1
385(11) 0.00900 346.6 24.2
381(10) 0.00914 346.6 24.3
372(10) 0.00933 346.6 24.5
380(10) 0.00981 346.6 24.7
385(10) 0.00918 346.5 25.0
370(10) 0.00955 346.5 25.3
346(10) 0.00998 346.5 25.7
380(10) 0.00907 346.5 26.1
385(10) 0.00960 346.5 26.6
396(11) 0.00889 346.5 27.1
375(11) 0.00901 346.5 27.7
355(10) 0.00986 346.5 28.4
384(10) 0.00939 346.5 29.1
410(11) 0.00897 346.5 29.9
378(10) 0.00933 346.5 30.8
361(10) 0.00964 346.5 31.7
404(11) 0.00822 346.5 32.6
383(10) 0.00953 346.4 33.6
375(10) 0.00987 346.4 34.6
381(10) 0.00913 346.4 35.6
382(11) 0.00857 346.4 36.6
368(10) 0.00935 346.4 37.4
373(10) 0.00964 346.4 38.2
383(10) 0.00975 346.4 38.9
389(11) 0.00882 346.4 39.4
377(11) 0.00873 346.4 39.7
358(10) 0.00955 346.4 39.9
390(10) 0.00943 346.4 39.8
389(10) 0.00937 346.4 39.7
407(11) 0.00830 346.4 39.3
416(12) 0.00743 346.4 38.9
370(10) 0.00936 346.3 38.4
399(10) 0.00929 346.3 37.9
379(10) 0.00983 346.3 37.3
395(11) 0.00873 346.3 36.8
383(11) 0.00841 346.3 36.2
366(10) 0.00947 346.3 35.7
369(10) 0.01008 346.3 35.1
371(10) 0.01005 346.3 34.6
354(10) 0.01001 346.3 34.2
382(11) 0.00879 346.3 33.8
395(11) 0.00904 346.3 33.4
371(10) 0.01004 346.3 33.1
386(10) 0.00936 346.3 32.8
406(11) 0.00854 346.2 32.6
387(11) 0.00841 346.2 32.4
373(10) 0.00930 346.2 32.3
404(10) 0.00917 346.2 32.2
371(10) 0.00970 346.2 32.1
375(10) 0.00915 346.2 32.1
338(10) 0.01007 346.2 32.1
381(11) 0.00893 346.2 32.2
393(10) 0.00947 346.2 32.3
370(10) 0.00973 346.2 32.4
373(10) 0.00911 346.2 32.6
384(11) 0.00894 346.2 32.8
393(11) 0.00883 346.2 33.1
384(10) 0.00972 346.1 33.3
378(10) 0.00915 346.1 33.6
372(11) 0.00899 346.1 33.9
368(10) 0.00921 346.1 34.2
385(10) 0.00919 346.1 34.6
392(10) 0.00945 346.1 34.9
395(10) 0.00909 346.1 35.2
417(11) 0.00818 346.1 35.5
410(11) 0.00843 346.1 35.9
384(10) 0.00953 346.1 36.2
383(10) 0.00969 346.1 36.5
399(11) 0.00848 346.1 36.8
348(10) 0.00988 346.1 37.0
372(10) 0.00934 346.0 37.3
373(10) 0.00976 346.0 37.5
377(10) 0.00986 346.0 37.7
414(11) 0.00811 346.0 37.9
383(11) 0.00883 346.0 38.1
386(11) 0.00889 346.0 38.3
358(10) 0.01024 346.0 38.4
412(11) 0.00902 346.0 38.5
398(11) 0.00905 346.0 38.5
366(10) 0.00930 346.0 38.6
394(11) 0.00852 346.0 38.6
371(10) 0.00988 346.0 38.5
357(10) 0.01034 346.0 38.4
370(10) 0.00978 346.0 38.3
373(11) 0.00895 345.9 38.2
392(11) 0.00898 345.9 38.0
369(10) 0.01006 345.9 37.8
361(10) 0.01017 345.9 37.6
366(10) 0.00928 345.9 37.3
371(11) 0.00873 345.9 37.0
393(11) 0.00882 345.9 36.7
374(10) 0.01002 345.9 36.4
406(11) 0.00903 345.9 36.0
384(11) 0.00905 345.9 35.7
362(10) 0.00956 345.9 35.4
375(10) 0.00943 345.9 35.0
384(10) 0.00955 345.9 34.7
356(10) 0.01011 345.8 34.3
388(11) 0.00883 345.8 34.0
387(11) 0.00875 345.8 33.8
384(11) 0.00901 345.8 33.5
380(10) 0.00984 345.8 33.3
376(10) 0.00924 345.8 33.1
363(10) 0.00943 345.8 33.0
373(10) 0.00908 345.8 32.9
386(11) 0.00900 345.8 33.0
392(10) 0.00951 345.8 33.1
384(10) 0.00951 345.8 33.3
378(10) 0.00909 345.8 33.6
385(11) 0.00889 345.8 34.1
402(11) 0.00891 345.7 34.7
390(10) 0.00950 345.7 35.5
375(10) 0.00959 345.7 36.5
382(11) 0.00875 345.7 37.8
350(10) 0.00962 345.7 39.4
375(10) 0.00927 345.7 41.2
378(10) 0.00983 345.7 43.4
387(11) 0.00895 345.7 45.9
382(11) 0.00863 345.7 48.7
364(10) 0.00950 345.7 51.8
392(10) 0.00938 345.7 55.2
381(10) 0.00976 345.7 58.8
380(10) 0.00915 345.7 62.7
381(11) 0.00906 345.6 66.6
390(11) 0.00900 345.6 70.4
393(10) 0.00920 345.6 74.0
419(11) 0.00882 345.6 77.2
391(11) 0.00854 345.6 79.7
413(11) 0.00777 345.6 81.3
432(11) 0.00787 345.6 81.7
401(10) 0.00920 345.6 80.9
424(11) 0.00873 345.6 78.9
428(11) 0.00799 345.6 75.9
407(11) 0.00810 345.6 72.2
434(11) 0.00786 345.6 67.9
401(10) 0.00921 345.6 63.3
391(10) 0.00934 345.6 58.7
415(11) 0.00833 345.5 54.2
392(11) 0.00825 345.5 49.9
379(10) 0.00923 345.5 46.0
364(10) 0.01006 345.5 42.3
386(10) 0.00964 345.5 39.0
377(10) 0.00933 345.5 36.1
384(11) 0.00882 345.5 33.6
356(10) 0.01023 345.5 31.3
366(10) 0.01020 345.5 29.5
399(10) 0.00919 345.5 27.9
369(10) 0.00931 345.5 26.5
370(11) 0.00886 345.5 25.4
363(10) 0.00941 345.5 24.5
368(10) 0.01005 345.4 23.7
374(10) 0.00977 345.4 23.1
381(11) 0.00906 345.4 22.6
388(11) 0.00842 345.4 22.2
378(11) 0.00872 345.4 21.8
405(10) 0.00919 345.4 21.6
355(10) 0.01006 345.4 21.3
373(10) 0.00921 345.4 21.1
372(10) 0.00922 345.4 21.0
366(10) 0.00917 345.4 20.9
341(10) 0.01098 345.4 20.7
353(10) 0.00997 345.4 20.6
352(10) 0.00982 345.4 20.6
373(10) 0.00928 345.3 20.5
349(10) 0.01035 345.3 20.4
363(10) 0.01027 345.3 20.3
377(10) 0.00936 345.3 20.2
369(10) 0.00920 345.3 20.1
375(10) 0.00917 345.3 20.0
342(10) 0.01031 345.3 19.9
350(10) 0.01066 345.3 19.8
354(10) 0.01004 345.3 19.6
381(11) 0.00862 345.3 19.5
367(10) 0.00956 345.3 19.3
376(10) 0.00995 345.3 19.1
372(10) 0.00995 345.3 18.9
348(10) 0.01020 345.2 18.6
351(10) 0.00954 345.2 18.4
362(10) 0.00954 345.2 18.2
335(10) 0.01107 345.2 17.9
374(10) 0.00989 345.2 17.6
333(10) 0.01040 345.2 17.3
347(10) 0.00946 345.2 17.1
349(10) 0.01010 345.2 16.8
375(10) 0.00991 345.2 16.5
383(10) 0.00965 345.2 16.2
348(10) 0.01021 345.2 15.9
350(10) 0.00946 345.2 15.6
352(10) 0.00992 345.2 15.3
330(9) 0.01129 345.2 15.1
343(10) 0.01079 345.1 14.8
354(10) 0.01018 345.1 14.5
357(10) 0.00933 345.1 14.3
351(10) 0.01005 345.1 14.1
376(10) 0.00991 345.1 13.8
358(10) 0.01015 345.1 13.6
337(10) 0.01052 345.1 13.4
330(10) 0.01051 345.1 13.2
366(10) 0.00973 345.1 13.0
364(10) 0.01019 345.1 12.9
352(10) 0.01025 345.1 12.7
338(10) 0.01038 345.1 12.6
349(10) 0.00968 345.1 12.5
366(10) 0.00936 345.0 12.4
359(10) 0.01037 345.0 12.3
362(10) 0.00981 345.0 12.3
340(10) 0.01033 345.0 12.3
357(10) 0.00949 345.0 12.3
350(10) 0.00982 345.0 12.4
353(10) 0.01050 345.0 12.4
349(10) 0.01036 345.0 12.6
369(10) 0.00932 345.0 12.7
346(10) 0.01002 345.0 12.9
337(10) 0.01060 345.0 13.2
344(10) 0.01074 345.0 13.5
388(10) 0.00916 345.0 13.9
388(11) 0.00877 344.9 14.4
366(10) 0.00956 344.9 15.1
366(10) 0.00983 344.9 16.1
380(10) 0.00985 344.9 17.5
352(10) 0.01002 344.9 19.6
368(11) 0.00881 344.9 22.6
373(10) 0.00917 344.9 26.7
366(10) 0.00991 344.9 32.0
366(10) 0.01018 344.9 38.3
419(11) 0.00819 344.9 45.1
395(11) 0.00869 344.9 51.4
384(10) 0.00919 344.9 55.8
387(10) 0.00936 344.9 56.7
401(10) 0.00923 344.8 54.1
378(10) 0.00936 344.8 49.1
373(11) 0.00875 344.8 43.2
376(10) 0.00926 344.8 37.6
383(10) 0.00981 344.8 32.9
401(10) 0.00931 344.8 29.3
384(10) 0.00920 344.8 26.8
416(11) 0.00781 344.8 25.3
385(10) 0.00928 344.8 24.4
397(10) 0.00936 344.8 24.1
335(10) 0.01100 344.8 24.0
359(10) 0.00976 344.8 24.1
369(10) 0.00938 344.8 24.3
388(11) 0.00906 344.8 24.5
356(10) 0.01051 344.7 24.8
397(10) 0.00933 344.7 25.0
412(11) 0.00849 344.7 25.1
369(10) 0.00939 344.7 25.3
387(10) 0.00929 344.7 25.3
401(10) 0.00928 344.7 25.3
349(10) 0.01030 344.7 25.3
350(10) 0.01012 344.7 25.1
374(11) 0.00884 344.7 24.9
396(11) 0.00840 344.7 24.7
374(10) 0.00993 344.7 24.3
375(10) 0.00932 344.7 23.9
355(10) 0.00997 344.7 23.5
369(10) 0.00908 344.6 23.0
369(10) 0.00948 344.6 22.5
385(10) 0.00956 344.6 21.9
358(10) 0.01010 344.6 21.3
355(10) 0.00963 344.6 20.7
374(10) 0.00915 344.6 20.1
334(10) 0.01081 344.6 19.4
343(10) 0.01082 344.6 18.8
319(9) 0.01109 344.6 18.2
360(10) 0.00946 344.6 17.6
363(10) 0.00961 344.6 17.0
350(10) 0.01037 344.6 16.4
380(10) 0.00958 344.6 15.8
359(10) 0.00940 344.5 15.3
336(10) 0.00996 344.5 14.8
358(10) 0.00962 344.5 14.3
359(10) 0.00986 344.5 13.8
365(10) 0.01024 344.5 13.4
335(10) 0.01072 344.5 13.0
356(10) 0.00926 344.5 12.7
356(10) 0.00953 344.5 12.3
343(10) 0.01065 344.5 12.0
353(10) 0.01050 344.5 11.7
361(10) 0.00999 344.5 11.5
367(11) 0.00884 344.5 11.3
357(10) 0.00968 344.5 11.1
389(10) 0.00940 344.4 11.0
374(10) 0.00989 344.4 10.9
369(10) 0.00911 344.4 10.8
367(11) 0.00898 344.4 10.8
368(10) 0.00933 344.4 10.8
364(10) 0.01016 344.4 10.8
326(9) 0.01157 344.4 10.9
347(10) 0.01040 344.4 11.0
359(10) 0.00926 344.4 11.2
367(10) 0.00948 344.4 11.5
347(10) 0.01080 344.4 11.7
378(10) 0.00955 344.4 12.1
334(10) 0.01043 344.4 12.4
331(10) 0.01025 344.4 12.7
355(10) 0.00979 344.3 12.9
353(10) 0.01068 344.3 13.1
354(10) 0.00992 344.3 13.1
377(11) 0.00892 344.3 13.2
365(10) 0.00920 344.3 13.2
357(10) 0.00951 344.3 13.3
349(10) 0.01051 344.3 13.3
363(10) 0.00993 344.3 13.4
357(10) 0.00982 344.3 13.5
376(11) 0.00877 344.3 13.7
345(10) 0.00996 344.3 13.8
363(10) 0.01028 344.3 13.9
384(11) 0.00905 344.3 13.9
351(10) 0.00962 344.2 14.0
359(10) 0.00950 344.2 14.0
366(10) 0.00972 344.2 13.9
339(10) 0.01095 344.2 13.9
328(10) 0.01090 344.2 13.7
345(10) 0.00980 344.2 13.6
360(10) 0.00958 344.2 13.4
371(10) 0.00961 344.2 13.2
338(10) 0.01103 344.2 12.9
347(10) 0.01010 344.2 12.7
348(10) 0.00986 344.2 12.4
354(10) 0.00963 344.2 12.1
353(10) 0.01016 344.2 11.7
345(10) 0.01080 344.1 11.4
369(10) 0.00948 344.1 11.1
355(10) 0.00945 344.1 10.7
361(10) 0.00971 344.1 10.4
323(9) 0.01126 344.1 10.0
349(10) 0.01087 344.1 9.7
330(10) 0.01059 344.1 9.4
350(11) 0.00907 344.1 9.1
319(10) 0.01092 344.1 8.8
358(10) 0.00975 344.1 8.5
334(9) 0.01131 344.1 8.2
335(10) 0.01046 344.1 7.9
348(10) 0.00939 344.1 7.6
354(10) 0.00972 344.0 7.4
364(10) 0.01023 344.0 7.2
324(9) 0.01146 344.0 7.0
372(10) 0.00963 344.0 6.8
366(11) 0.00905 344.0 6.6
339(10) 0.01025 344.0 6.5
349(10) 0.01048 344.0 6.4
348(10) 0.01055 344.0 6.2
355(10) 0.00991 344.0 6.2
367(11) 0.00890 344.0 6.1
328(10) 0.01076 344.0 6.1
364(10) 0.01018 344.0 6.1
353(10) 0.01033 344.0 6.2
334(10) 0.01029 344.0 6.3
337(10) 0.01018 343.9 6.6
360(10) 0.00923 343.9 6.9
349(10) 0.01073 343.9 7.3
334(10) 0.01073 343.9 8.0
357(10) 0.00945 343.9 8.8
366(10) 0.00913 343.9 9.9
338(10) 0.01038 343.9 11.2
339(10) 0.01087 343.9 12.8
366(10) 0.01006 343.9 14.6
342(10) 0.01022 343.9 16.6
367(10) 0.00910 343.9 18.7
350(10) 0.00978 343.9 20.8
374(10) 0.00995 343.9 22.6
344(10) 0.01058 343.8 23.9
388(11) 0.00870 343.8 24.4
338(10) 0.01027 343.8 24.0
376(10) 0.00951 343.8 22.8
362(10) 0.01024 343.8 21.0
394(11) 0.00860 343.8 18.9
355(10) 0.00940 343.8 16.6
352(10) 0.00985 343.8 14.5
347(10) 0.01031 343.8 12.6
362(10) 0.01025 343.8 10.8
337(10) 0.00990 343.8 9.4
366(10) 0.00932 343.8 8.2
370(10) 0.00934 343.8 7.2
334(9) 0.01112 343.7 6.4
345(10) 0.01077 343.7 5.8
331(10) 0.01053 343.7 5.3
337(10) 0.00935 343.7 5.0
352(10) 0.00959 343.7 4.7
353(10) 0.01048 343.7 4.5
364(10) 0.01010 343.7 4.3
337(10) 0.01064 343.7 4.1
358(10) 0.00929 343.7 4.0
349(10) 0.01013 343.7 3.9
363(10) 0.01006 343.7 3.8
340(10) 0.01104 343.7 3.8
351(10) 0.00983 343.7 3.7
352(10) 0.00913 343.7 3.6
344(10) 0.01061 343.6 3.6
358(10) 0.01024 343.6 3.6
350(10) 0.01061 343.6 3.5
344(10) 0.01000 343.6 3.5
350(11) 0.00893 343.6 3.5
305(9) 0.01175 343.6 3.4
340(10) 0.01092 343.6 3.4
364(10) 0.00989 343.6 3.4
327(10) 0.01074 343.6 3.4
334(10) 0.00960 343.6 3.4
321(10) 0.01086 343.6 3.3
355(10) 0.01058 343.6 3.3
359(10) 0.00973 343.6 3.3
341(10) 0.01028 343.5 3.2
363(11) 0.00897 343.5 3.2
350(10) 0.00984 343.5 3.2
393(10) 0.00952 343.5 3.2
341(10) 0.01081 343.5 3.1
357(10) 0.00936 343.5 3.1
346(10) 0.00942 343.5 3.1
344(10) 0.01049 343.5 3.0
347(10) 0.01061 343.5 3.0
311(9) 0.01213 343.5 3.0
341(10) 0.01019 343.5 2.9
340(10) 0.01027 343.5 2.9
339(10) 0.01068 343.5 2.9
365(10) 0.01019 343.4 2.9
342(10) 0.01042 343.4 2.9
344(10) 0.00971 343.4 2.8
348(10) 0.00953 343.4 2.8
319(9) 0.01151 343.4 2.8
358(10) 0.01041 343.4 2.8
334(10) 0.01032 343.4 2.8
325(10) 0.01040 343.4 2.8
355(10) 0.00951 343.4 2.8
340(10) 0.01094 343.4 2.8
334(9) 0.01115 343.4 2.8
340(10) 0.01023 343.4 2.8
349(10) 0.00928 343.4 2.8
341(10) 0.01033 343.4 2.8
325(9) 0.01159 343.3 2.8
349(10) 0.01035 343.3 2.8
332(10) 0.01038 343.3 2.8
339(10) 0.00956 343.3 2.8
346(10) 0.01006 343.3 2.8
331(9) 0.01115 343.3 2.8
337(9) 0.01109 343.3 2.9
351(10) 0.01012 343.3 2.9
341(10) 0.00934 343.3 2.9
335(10) 0.01034 343.3 2.9
376(10) 0.00971 343.3 2.9
359(10) 0.01039 343.3 3.0
326(10) 0.01087 343.3 3.0
329(10) 0.01002 343.3 3.0
338(10) 0.01023 343.2 3.0
356(10) 0.01060 343.2 3.1
355(10) 0.01023 343.2 3.1
321(9) 0.01110 343.2 3.1
333(10) 0.00980 343.2 3.1
318(10) 0.01090 343.2 3.1
348(10) 0.01072 343.2 3.2
341(10) 0.01039 343.2 3.2
330(10) 0.01055 343.2 3.2
341(10) 0.00982 343.2 3.2
334(10) 0.01061 343.2 3.3
365(10) 0.01013 343.2 3.3
344(10) 0.01037 343.2 3.3
342(10) 0.01033 343.2 3.3
328(10) 0.01056 343.2 3.3
327(10) 0.01083 343.1 3.3
345(10) 0.01088 343.1 3.3
331(10) 0.01081 343.1 3.4
368(10) 0.00915 343.1 3.4
338(10) 0.00992 343.1 3.4
326(10) 0.01061 343.1 3.4
333(9) 0.01115 343.1 3.4
332(10) 0.01063 343.1 3.4
336(10) 0.01008 343.1 3.4
352(10) 0.01001 343.1 3.4
350(10) 0.01036 343.1 3.3
346(10) 0.01072 343.1 3.3
374(11) 0.00900 343.1 3.3
338(10) 0.01013 343.1 3.3
326(10) 0.01103 343.0 3.3
332(10) 0.01092 343.0 3.3
323(9) 0.01129 343.0 3.3
354(10) 0.00971 343.0 3.2
316(10) 0.01039 343.0 3.2
335(10) 0.01050 343.0 3.2
347(10) 0.01076 343.0 3.2
337(10) 0.01088 343.0 3.2
320(10) 0.01054 343.0 3.2
337(10) 0.00954 343.0 3.1
356(10) 0.00955 343.0 3.1
338(10) 0.01106 343.0 3.1
343(10) 0.01071 343.0 3.1
335(10) 0.01045 343.0 3.1
349(10) 0.00933 342.9 3.1
370(10) 0.00942 342.9 3.1
328(9) 0.01153 342.9 3.0
352(10) 0.01054 342.9 3.0
335(10) 0.01057 342.9 3.0
321(10) 0.01013 342.9 3.0
335(10) 0.01060 342.9 3.0
347(10) 0.01070 342.9 3.0
342(10) 0.01085 342.9 3.1
324(10) 0.01090 342.9 3.1
364(11) 0.00877 342.9 3.1
330(10) 0.01053 342.9 3.1
339(10) 0.01098 342.9 3.1
345(10) 0.01060 342.9 3.1
350(10) 0.01007 342.9 3.2
334(10) 0.01002 342.8 3.2
354(10) 0.00989 342.8 3.2
382(10) 0.00962 342.8 3.3
341(10) 0.01081 342.8 3.3
339(10) 0.01040 342.8 3.4
346(10) 0.00994 342.8 3.4
330(10) 0.01036 342.8 3.5
338(10) 0.01105 342.8 3.6
359(10) 0.01003 342.8 3.6
341(10) 0.01018 342.8 3.7
326(10) 0.01043 342.8 3.8
338(10) 0.01046 342.8 3.9
365(10) 0.01018 342.8 4.0
341(10) 0.01010 342.8 4.1
331(10) 0.00997 342.7 4.2
331(10) 0.01064 342.7 4.4
359(10) 0.00990 342.7 4.5
338(9) 0.01113 342.7 4.7
336(10) 0.01047 342.7 4.8
350(10) 0.00942 342.7 5.0
337(10) 0.01045 342.7 5.2
344(10) 0.01047 342.7 5.3
356(10) 0.01040 342.7 5.5
336(10) 0.00994 342.7 5.7
318(10) 0.01076 342.7 6.0
385(11) 0.00892 342.7 6.2
345(10) 0.01062 342.7 6.4
359(10) 0.01043 342.7 6.7
357(10) 0.00953 342.6 6.9
359(10) 0.00925 342.6 7.2
340(10) 0.01066 342.6 7.5
351(10) 0.01055 342.6 7.8
329(9) 0.01114 342.6 8.1
358(10) 0.00972 342.6 8.4
358(10) 0.00909 342.6 8.7
339(10) 0.01056 342.6 9.1
344(10) 0.01060 342.6 9.5
383(10) 0.00969 342.6 9.8
342(10) 0.01071 342.6 10.2
364(11) 0.00881 342.6 10.6
390(11) 0.00870 342.6 11.1
374(10) 0.01007 342.6 11.5
374(10) 0.00980 342.5 12.0
366(10) 0.00963 342.5 12.5
368(11) 0.00890 342.5 13.1
348(10) 0.01031 342.5 13.7
357(10) 0.01045 342.5 14.3
353(10) 0.01047 342.5 15.0
374(10) 0.00928 342.5 15.8
378(11) 0.00894 342.5 16.7
374(10) 0.00933 342.5 17.6
359(10) 0.01026 342.5 18.6
377(10) 0.00972 342.5 19.7
367(10) 0.00926 342.5 20.9
343(10) 0.01004 342.5 22.2
348(10) 0.00990 342.5 23.5
360(10) 0.01040 342.5 25.0
372(10) 0.00974 342.4 26.6
370(10) 0.00933 342.4 28.2
355(10) 0.00988 342.4 29.9
395(11) 0.00880 342.4 31.7
397(10) 0.00942 342.4 33.4
373(10) 0.00945 342.4 35.1
383(11) 0.00888 342.4 36.7
375(11) 0.00869 342.4 38.2
398(11) 0.00891 342.4 39.5
412(11) 0.00888 342.4 40.6
387(10) 0.00911 342.4 41.3
365(10) 0.00920 342.4 41.8
364(10) 0.00952 342.4 41.9
370(10) 0.00959 342.4 41.8
352(10) 0.01048 342.3 41.3
384(10) 0.00915 342.3 40.5
395(11) 0.00837 342.3 39.5
385(11) 0.00891 342.3 38.3
366(10) 0.00997 342.3 37.0
388(10) 0.00950 342.3 35.7
363(10) 0.00920 342.3 34.2
340(10) 0.00950 342.3 32.7
374(10) 0.00934 342.3 31.3
353(10) 0.01042 342.3 29.8
379(10) 0.00983 342.3 28.3
351(10) 0.01007 342.3 26.9
371(11) 0.00851 342.3 25.5
364(10) 0.00944 342.3 24.1
348(10) 0.01049 342.2 22.8
362(10) 0.01037 342.2 21.5
332(10) 0.01088 342.2 20.3
343(11) 0.00884 342.2 19.1
359(10) 0.00912 342.2 18.0
346(10) 0.01075 342.2 16.9
337(10) 0.01092 342.2 15.9
351(10) 0.00962 342.2 15.0
335(10) 0.00966 342.2 14.1
355(10) 0.00968 342.2 13.3
346(10) 0.01074 342.2 12.5
347(10) 0.01048 342.2 11.8
329(10) 0.01058 342.2 11.1
340(10) 0.00957 342.2 10.5
365(10) 0.00940 342.1 9.9
334(10) 0.01108 342.1 9.4
348(10) 0.01027 342.1 8.9
362(10) 0.00963 342.1 8.4
355(10) 0.00933 342.1 8.0
330(10) 0.01056 342.1 7.6
358(10) 0.01035 342.1 7.3
375(10) 0.00938 342.1 6.9
354(10) 0.00967 342.1 6.6
357(10) 0.00942 342.1 6.3
332(10) 0.01058 342.1 6.1
345(10) 0.01075 342.1 5.9
319(9) 0.01124 342.1 5.6
324(10) 0.01083 342.1 5.5
345(10) 0.00984 342.1 5.3
336(10) 0.01061 342.0 5.1
337(10) 0.01100 342.0 5.0
355(10) 0.00963 342.0 4.9
333(10) 0.01006 342.0 4.8
344(10) 0.01006 342.0 4.7
340(10) 0.01043 342.0 4.6
363(10) 0.01023 342.0 4.5
334(10) 0.01031 342.0 4.5
349(10) 0.00957 342.0 4.4
359(10) 0.00955 342.0 4.4
332(10) 0.01079 342.0 4.4
353(10) 0.01055 342.0 4.4
347(10) 0.00979 342.0 4.3
346(11) 0.00904 342.0 4.3
348(10) 0.00971 341.9 4.4
351(10) 0.01048 341.9 4.4
311(9) 0.01204 341.9 4.4
353(10) 0.00978 341.9 4.4
346(10) 0.00957 341.9 4.5
346(10) 0.01000 341.9 4.5
332(9) 0.01113 341.9 4.6
316(9) 0.01179 341.9 4.7
329(10) 0.01013 341.9 4.7
334(10) 0.00990 341.9 4.8
360(10) 0.00986 341.9 4.9
346(10) 0.01072 341.9 5.0
335(9) 0.01115 341.9 5.1
331(10) 0.01027 341.9 5.3
345(10) 0.00929 341.8 5.4
352(10) 0.00945 341.8 5.6
332(10) 0.01104 341.8 5.7
337(10) 0.01099 341.8 5.9
346(10) 0.00994 341.8 6.1
324(10) 0.01015 341.8 6.3
336(10) 0.01008 341.8 6.5
341(10) 0.01086 341.8 6.8
340(10) 0.01084 341.8 7.1
348(10) 0.00987 341.8 7.5
358(10) 0.00930 341.8 8.0
337(10) 0.01044 341.8 8.6
363(10) 0.01031 341.8 9.4
354(10) 0.01009 341.8 10.4
343(10) 0.01018 341.7 11.7
353(10) 0.00958 341.7 13.1
370(10) 0.00964 341.7 14.8
366(10) 0.01017 341.7 16.6
342(10) 0.01037 341.7 18.4
382(11) 0.00885 341.7 19.9
348(10) 0.01007 341.7 20.8
368(10) 0.00963 341.7 21.0
390(10) 0.00955 341.7 20.4
353(10) 0.01002 341.7 19.2
349(10) 0.01009 341.7 17.7
357(10) 0.00972 341.7 16.2
374(10) 0.00939 341.7 14.9
387(10) 0.00958 341.7 13.7
353(10) 0.01005 341.7 12.7
379(11) 0.00866 341.6 11.9
379(11) 0.00907 341.6 11.4
375(10) 0.00926 341.6 10.9
343(10) 0.01083 341.6 10.6
319(9) 0.01117 341.6 10.5
342(10) 0.00966 341.6 10.3
339(10) 0.01038 341.6 10.2
353(10) 0.01043 341.6 10.1
358(10) 0.01040 341.6 10.0
359(10) 0.00940 341.6 10.0
338(10) 0.01003 341.6 9.9
355(10) 0.00978 341.6 9.8
363(10) 0.01019 341.6 9.7
348(10) 0.01059 341.6 9.7
335(10) 0.01062 341.5 9.6
356(10) 0.00915 341.5 9.5
345(10) 0.01019 341.5 9.5
339(10) 0.01097 341.5 9.4
363(10) 0.01015 341.5 9.4
340(10) 0.01008 341.5 9.3
323(10) 0.01075 341.5 9.3
357(10) 0.00982 341.5 9.2
345(10) 0.01086 341.5 9.2
341(10) 0.01080 341.5 9.2
371(10) 0.00948 341.5 9.1
345(10) 0.00943 341.5 9.1
343(10) 0.01005 341.5 9.1
353(10) 0.01050 341.5 9.0
353(10) 0.01044 341.4 9.0
346(10) 0.00996 341.4 8.9
349(10) 0.00974 341.4 8.9
357(10) 0.00994 341.4 8.9
373(10) 0.00998 341.4 8.9
360(10) 0.00984 341.4 8.9
366(10) 0.00925 341.4 8.9
333(10) 0.01011 341.4 8.9
330(10) 0.01063 341.4 8.9
348(10) 0.01066 341.4 8.9
342(10) 0.01061 341.4 8.9
351(10) 0.00988 341.4 8.9
335(10) 0.01037 341.4 9.0
364(10) 0.00949 341.4 9.0
373(10) 0.00992 341.4 9.1
374(10) 0.00937 341.3 9.2
380(11) 0.00876 341.3 9.2
357(10) 0.00948 341.3 9.3
345(10) 0.01005 341.3 9.4
385(10) 0.00973 341.3 9.6
356(10) 0.00999 341.3 9.7
353(10) 0.00956 341.3 9.9
337(10) 0.01018 341.3 10.1
352(10) 0.01027 341.3 10.4
362(10) 0.01033 341.3 10.9
342(10) 0.01020 341.3 12.1
339(10) 0.00995 341.3 14.3
375(11) 0.00904 341.3 17.8
389(10) 0.00919 341.3 21.4
361(10) 0.01034 341.2 22.9
368(10) 0.00925 341.2 21.0
352(10) 0.00953 341.2 17.7
360(10) 0.00979 341.2 15.2
350(10) 0.01052 341.2 13.9
362(10) 0.01028 341.2 13.6
373(10) 0.00932 341.2 13.6
346(10) 0.00941 341.2 13.8
372(10) 0.00947 341.2 13.9
366(10) 0.01015 341.2 14.0
360(10) 0.01020 341.2 14.1
351(10) 0.00992 341.2 14.1
379(11) 0.00865 341.2 14.1
352(10) 0.00980 341.2 14.1
351(10) 0.01063 341.1 14.1
371(10) 0.01013 341.1 14.1
364(10) 0.00995 341.1 14.1
353(10) 0.00940 341.1 14.1
364(10) 0.00953 341.1 14.1
373(10) 0.00981 341.1 14.2
374(10) 0.00974 341.1 14.3
356(10) 0.00991 341.1 14.3
345(10) 0.01007 341.1 14.4
349(10) 0.01004 341.1 14.5
330(9) 0.01130 341.1 14.6
369(10) 0.00971 341.1 14.7
317(9) 0.01131 341.1 14.8
339(10) 0.00970 341.1 14.9
323(10) 0.01035 341.0 15.0
353(10) 0.01056 341.0 15.0
360(10) 0.00988 341.0 15.1
363(10) 0.00937 341.0 15.2
377(11) 0.00875 341.0 15.2
331(10) 0.01096 341.0 15.3
372(10) 0.00996 341.0 15.4
349(10) 0.01009 341.0 15.4
360(10) 0.00949 341.0 15.5
374(10) 0.00932 341.0 15.6
353(10) 0.01013 341.0 15.7
350(10) 0.01059 341.0 15.8
355(10) 0.00989 341.0 15.9
349(10) 0.00979 341.0 16.0
361(10) 0.00923 341.0 16.2
346(10) 0.01041 340.9 16.3
346(10) 0.01069 340.9 16.5
388(11) 0.00884 340.9 16.6
344(10) 0.00980 340.9 16.8
364(10) 0.00937 340.9 17.0
380(10) 0.00956 340.9 17.1
370(10) 0.00999 340.9 17.3
373(10) 0.00933 340.9 17.4
351(10) 0.00932 340.9 17.5
358(10) 0.00993 340.9 17.5
359(10) 0.01020 340.9 17.6
343(10) 0.01094 340.9 17.5
349(10) 0.00982 340.9 17.5
344(10) 0.00939 340.9 17.5
340(10) 0.01048 340.8 17.5
354(10) 0.01051 340.8 17.5
346(10) 0.01075 340.8 17.6
362(10) 0.00972 340.8 17.8
372(11) 0.00893 340.8 18.3
350(10) 0.01016 340.8 19.1
351(10) 0.01064 340.8 20.3
360(10) 0.01006 340.8 22.2
347(10) 0.01025 340.8 24.9
368(11) 0.00883 340.8 28.7
371(10) 0.00938 340.8 33.6
401(10) 0.00928 340.8 39.8
418(11) 0.00851 340.8 47.1
385(10) 0.00931 340.8 55.2
407(11) 0.00810 340.7 63.6
401(11) 0.00865 340.7 70.9
410(10) 0.00916 340.7 75.9
410(11) 0.00887 340.7 77.1
412(11) 0.00837 340.7 74.2
404(11) 0.00824 340.7 68.0
405(11) 0.00834 340.7 60.2
405(10) 0.00923 340.7 52.1
381(10) 0.00956 340.7 44.9
399(11) 0.00868 340.7 39.0
387(11) 0.00882 340.7 34.8
358(10) 0.00993 340.7 32.4
379(10) 0.00992 340.7 31.6
387(11) 0.00906 340.7 32.1
393(11) 0.00866 340.6 33.3
404(11) 0.00833 340.6 34.4
391(10) 0.00908 340.6 34.5
371(10) 0.00998 340.6 33.1
371(10) 0.00965 340.6 30.2
396(11) 0.00848 340.6 26.5
361(10) 0.00939 340.6 22.7
356(10) 0.00995 340.6 19.0
365(10) 0.01013 340.6 15.9
333(10) 0.01043 340.6 13.4
348(10) 0.00949 340.6 11.4
333(10) 0.01041 340.6 9.9
377(10) 0.00965 340.6 8.9
337(10) 0.01103 340.6 8.1
335(10) 0.01056 340.6 7.5
371(11) 0.00854 340.5 7.1
345(10) 0.01025 340.5 6.8
335(9) 0.01109 340.5 6.5
357(10) 0.01036 340.5 6.3
340(10) 0.01033 340.5 6.1
362(11) 0.00866 340.5 5.9
341(10) 0.01040 340.5 5.8
337(10) 0.01086 340.5 5.7
342(10) 0.01081 340.5 5.6
332(10) 0.01056 340.5 5.5
341(10) 0.00928 340.5 5.4
342(10) 0.01001 340.5 5.3
347(10) 0.01073 340.5 5.3
362(10) 0.01021 340.5 5.2
323(9) 0.01112 340.4 5.2
324(10) 0.01003 340.4 5.2
338(10) 0.01039 340.4 5.1
354(10) 0.01051 340.4 5.1
351(10) 0.01032 340.4 5.1
342(10) 0.01013 340.4 5.0
356(11) 0.00884 340.4 5.0
323(10) 0.01056 340.4 5.0
327(9) 0.01136 340.4 5.0
362(10) 0.01004 340.4 4.9
346(10) 0.01016 340.4 4.9
364(11) 0.00867 340.4 4.9
318(9) 0.01113 340.4 4.9
352(10) 0.01070 340.4 4.8
363(10) 0.00967 340.4 4.8
341(10) . . .
349(10) . . .
354(10) . . .
352(10) . . .
361(10) . . .
368(10) . . .
358(10) . . .
338(10) . . .
331(9) . . .
324(10) . . .
372(10) . . .
341(10) . . .
313(9) . . .
327(9) . . .
323(10) . . .
354(10) . . .
349(10) . . .
328(9) . . .
320(9) . . .
333(10) . . .
329(10) . . .
350(10) . . .
333(10) . . .
359(10) . . .
366(10) . . .
338(10) . . .
346(10) . . .
361(10) . . .
343(10) . . .
367(10) . . .
348(10) . . .
345(10) . . .
336(9) . . .
341(10) . . .
337(10) . . .
323(10) . . .
349(10) . . .
354(10) . . .
355(10) . . .
358(10) . . .
332(10) . . .
358(10) . . .
330(9) . . .
345(10) . . .
335(10) . . .
336(10) . . .
331(10) . . .
336(10) . . .
362(10) . . .
345(10) . . .
343(10) . . .
335(10) . . .
336(10) . . .
345(10) . . .
324(10) . . .
337(10) . . .
341(10) . . .
349(10) . . .
352(10) . . .
365(10) . . .
353(10) . . .
335(10) . . .
357(10) . . .
328(10) . . .
319(10) . . .
342(10) . . .
309(9) . . .
346(10) . . .
364(10) . . .
353(10) . . .
362(10) . . .
332(9) . . .
353(10) . . .
335(10) . . .
320(10) . . .
352(10) . . .
346(10) . . .
337(10) . . .
353(10) . . .
348(10) . . .
351(10) . . .
334(9) . . .
388(10) . . .
353(10) . . .
332(10) . . .
357(10) . . .
343(10) . . .
357(10) . . .
368(10) . . .
353(10) . . .
355(10) . . .
348(10) . . .
348(10) . . .
350(10) . . .
350(10) . . .
318(9) . . .
330(9) . . .
346(10) . . .
365(11) . . .
354(10) . . .
368(10) . . .
352(10) . . .
339(10) . . .
370(11) . . .
397(11) . . .
340(10) . . .
341(10) . . .
329(10) . . .
358(10) . . .
342(10) . . .
335(10) . . .
363(10) . . .
347(10) . . .
363(11) . . .
352(10) . . .
344(10) . . .
354(10) . . .
394(11) . . .
372(11) . . .
369(10) . . .
363(10) . . .
324(9) . . .
325(10) . . .
351(10) . . .
352(10) . . .
359(10) . . .
375(10) . . .
372(10) . . .
345(10) . . .
353(10) . . .
346(10) . . .
351(10) . . .
358(10) . . .
349(10) . . .
326(10) . . .
339(10) . . .
349(10) . . .
354(10) . . .
348(10) . . .
348(10) . . .
355(10) . . .
339(10) . . .
348(10) . . .
367(11) . . .
325(10) . . .
320(9) . . .
366(10) . . .
358(10) . . .
328(10) . . .
353(10) . . .
359(10) . . .
328(10) . . .
331(10) . . .
325(10) . . .
371(10) . . .
346(10) . . .
345(10) . . .
345(10) . . .
352(10) . . .
348(10) . . .
334(9) . . .
331(10) . . .
357(10) . . .
337(10) . . .
334(10) . . .
347(10) . . .
357(10) . . .
344(10) . . .
348(10) . . .
335(10) . . .
357(10) . . .
328(10) . . .
345(10) . . .
356(10) . . .
362(10) . . .
323(9) . . .
366(10) . . .
320(10) . . .
319(10) . . .
355(10) . . .
317(9) . . .
334(10) . . .
335(10) . . .
336(10) . . .
350(10) . . .
322(9) . . .
330(10) . . .
311(10) . . .
331(10) . . .
341(10) . . .
316(9) . . .
323(10) . . .
338(10) . . .
340(10) . . .
341(10) . . .
310(9) . . .
333(10) . . .
318(10) . . .
325(10) . . .
328(9) . . .
357(10) . . .
359(10) . . .
330(10) . . .
341(10) . . .
339(10) . . .
347(10) . . .
353(10) . . .
344(10) . . .
367(10) . . .
341(10) . . .
369(10) . . .
353(10) . . .
335(10) . . .
371(10) . . .
330(9) . . .
356(10) . . .
332(10) . . .
328(10) . . .
349(10) . . .
357(10) . . .
324(10) . . .
331(10) . . .
348(10) . . .
340(10) . . .
330(9) . . .
338(10) . . .
344(10) . . .
344(10) . . .
335(10) . . .
333(9) . . .
331(10) . . .
350(10) . . .
312(9) . . .
307(9) . . .
330(9) . . .
325(10) . . .
312(10) . . .
336(10) . . .
344(10) . . .
349(10) . . .
320(10) . . .
312(10) . . .
332(10) . . .
355(10) . . .
326(9) . . .
361(10) . . .
351(11) . . .
349(10) . . .
325(9) . . .
333(10) . . .
347(10) . . .
367(10) . . .
339(10) . . .
377(10) . . .
359(10) . . .
350(10) . . .
386(11) . . .
364(10) . . .
347(10) . . .
329(10) . . .
378(11) . . .
375(11) . . .
392(11) . . .
364(10) . . .
390(11) . . .
410(11) . . .
404(11) . . .
428(11) . . .
438(11) . . .
416(11) . . .
422(11) . . .
453(12) . . .
446(11) . . .
468(11) . . .
425(11) . . .
415(11) . . .
405(11) . . .
400(10) . . .
391(10) . . .
387(11) . . .
391(11) . . .
390(11) . . .
392(10) . . .
365(10) . . .
377(11) . . .
345(10) . . .
361(10) . . .
366(10) . . .
350(10) . . .
363(10) . . .
350(10) . . .
364(10) . . .
332(9) . . .
372(10) . . .
345(10) . . .
335(10) . . .
342(10) . . .
352(10) . . .
356(10) . . .
348(10) . . .
348(10) . . .
348(10) . . .
347(10) . . .
340(10) . . .
341(10) . . .
325(10) . . .
319(9) . . .
334(9) . . .
350(10) . . .
324(10) . . .
367(11) . . .
354(10) . . .
334(9) . . .
350(10) . . .
323(10) . . .
332(10) . . .
317(9) . . .
340(10) . . .
312(9) . . .
338(10) . . .
351(10) . . .
331(10) . . .
320(9) . . .
312(9) . . .
348(10) . . .
369(10) . . .
331(9) . . .
376(10) . . .
334(10) . . .
356(10) . . .
340(10) . . .
339(10) . . .
326(9) . . .
373(11) . . .
320(10) . . .
347(10) . . .
357(10) . . .
350(10) . . .
366(10) . . .
326(10) . . .
338(10) . . .
344(10) . . .
341(10) . . .
316(9) . . .
338(10) . . .
321(10) . . .
326(9) . . .
340(10) . . .
335(10) . . .
334(10) . . .
315(9) . . .
329(9) . . .
339(10) . . .
322(10) . . .
342(10) . . .
325(10) . . .
328(9) . . .
327(10) . . .
315(10) . . .
295(9) . . .
316(9) . . .
342(10) . . .
325(10) . . .
296(9) . . .
324(10) . . .
340(10) . . .
334(9) . . .
303(9) . . .
305(9) . . .
322(10) . . .
310(9) . . .
311(9) . . .
320(10) . . .
327(10) . . .
314(10) . . .
285(9) . . .
311(9) . . .
316(10) . . .
345(10) . . .
327(10) . . .
334(10) . . .
329(9) . . .
321(10) . . .
314(10) . . .
352(10) . . .
335(10) . . .
315(9) . . .
302(9) . . .
312(10) . . .
312(10) . . .
325(9) . . .
329(9) . . .
337(10) . . .
316(10) . . .
301(9) . . .
321(9) . . .
354(10) . . .
332(10) . . .
326(10) . . .
331(10) . . .
351(10) . . .
324(9) . . .
321(10) . . .
301(9) . . .
320(9) . . .
347(10) . . .
309(9) . . .
315(10) . . .
338(10) . . .
320(10) . . .
317(9) . . .
303(9) . . .
304(9) . . .
286(9) . . .
316(9) . . .
305(9) . . .
319(10) . . .
321(10) . . .
327(10) . . .
304(9) . . .
317(9) . . .
306(9) . . .
333(10) . . .
330(10) . . .
298(9) . . .
314(9) . . .
328(10) . . .
319(10) . . .
338(10) . . .
319(9) . . .
330(9) . . .
314(10) . . .
309(10) . . .
336(10) . . .
324(9) . . .
305(9) . . .
317(9) . . .
324(10) . . .
316(10) . . .
323(9) . . .
325(9) . . .
325(10) . . .
332(10) . . .
338(10) . . .
328(9) . . .
343(10) . . .
351(10) . . .
336(10) . . .
371(11) . . .
355(10) . . .
383(10) . . .
356(10) . . .
342(10) . . .
357(10) . . .
350(10) . . .
357(10) . . .
379(10) . . .
387(11) . . .
388(11) . . .
392(10) . . .
371(10) . . .
363(10) . . .
385(11) . . .
380(10) . . .
390(10) . . .
404(11) . . .
369(11) . . .
391(11) . . .
385(10) . . .
377(10) . . .
384(10) . . .
382(11) . . .
394(10) . . .
389(10) . . .
355(10) . . .
368(10) . . .
367(11) . . .
338(10) . . .
356(10) . . .
390(10) . . .
355(10) . . .
344(10) . . .
356(10) . . .
357(10) . . .
334(9) . . .
305(9) . . .
314(10) . . .
323(10) . . .
352(10) . . .
324(9) . . .
318(10) . . .
327(10) . . .
328(10) . . .
340(10) . . .
310(9) . . .
328(10) . . .
331(10) . . .
325(10) . . .
303(9) . . .
325(10) . . .
315(10) . . .
311(10) . . .
331(10) . . .
322(9) . . .
300(9) . . .
322(10) . . .
300(9) . . .
323(10) . . .
289(9) . . .
314(10) . . .
311(10) . . .
322(10) . . .
339(10) . . .
324(9) . . .
282(9) . . .
318(10) . . .
291(9) . . .
319(9) . . .
289(9) . . .
313(10) . . .
311(10) . . .
286(9) . . .
288(9) . . .
310(9) . . .
309(10) . . .
290(9) . . .
295(9) . . .
310(9) . . .
274(9) . . .
301(9) . . .
300(10) . . .
315(9) . . .
304(9) . . .
290(9) . . .
270(9) . . .
291(10) . . .
297(9) . . .
297(9) . . .
291(9) . . .
311(10) . . .
302(10) . . .
283(9) . . .
305(9) . . .
303(9) . . .
297(9) . . .
293(9) . . .
322(10) . . .
323(9) . . .
290(9) . . .
298(9) . . .
299(9) . . .
302(9) . . .
292(9) . . .
327(9) . . .
332(10) . . .
326(10) . . .
276(9) . . .
294(9) . . .
301(9) . . .
303(9) . . .
328(10) . . .
294(9) . . .
279(9) . . .
301(9) . . .
317(10) . . .
333(10) . . .
308(9) . . .
332(9) . . .
304(9) . . .
310(10) . . .
315(10) . . .
306(9) . . .
327(9) . . .
315(10) . . .
312(10) . . .
289(9) . . .
299(9) . . .
324(9) . . .
313(10) . . .
325(10) . . .
293(9) . . .
292(9) . . .
300(9) . . .
313(10) . . .
295(10) . . .
303(9) . . .
338(10) . . .
279(9) . . .
299(9) . . .
320(10) . . .
311(9) . . .
294(9) . . .
294(9) . . .
313(9) . . .
296(9) . . .
290(9) . . .
335(9) . . .
289(9) . . .
295(9) . . .
290(9) . . .
323(10) . . .
322(9) . . .
328(10) . . .
305(10) . . .
298(10) . . .
307(9) . . .
318(9) . . .
300(9) . . .
318(10) . . .
291(9) . . .
301(9) . . .
301(9) . . .
309(9) . . .
286(9) . . .
284(9) . . .
316(10) . . .
271(9) . . .
313(10) . . .
302(9) . . .
312(9) . . .
306(9) . . .
314(9) . . .
304(9) . . .
304(9) . . .
270(9) . . .
292(9) . . .
289(9) . . .
290(9) . . .
304(10) . . .
289(9) . . .
287(9) . . .
291(9) . . .
294(9) . . .
318(10) . . .
307(9) . . .
318(9) . . .
294(9) . . .
282(9) . . .
294(9) . . .
289(9) . . .
297(9) . . .
301(9) . . .
312(10) . . .
312(10) . . .
298(9) . . .
326(9) . . .
308(9) . . .
319(10) . . .
305(10) . . .
330(10) . . .
353(10) . . .
329(10) . . .
350(10) . . .
330(10) . . .
320(10) . . .
322(9) . . .
317(9) . . .
297(9) . . .
314(10) . . .
298(9) . . .
294(9) . . .
305(9) . . .
289(9) . . .
306(9) . . .
284(9) . . .
282(9) . . .
299(9) . . .
295(9) . . .
265(9) . . .
273(9) . . .
303(9) . . .
307(10) . . .
310(10) . . .
317(10) . . .
269(9) . . .
292(9) . . .
311(9) . . .
301(10) . . .
333(10) . . .
297(9) . . .
295(9) . . .
334(10) . . .
328(10) . . .
325(10) . . .
320(9) . . .
335(9) . . .
341(10) . . .
328(10) . . .
312(9) . . .
336(10) . . .
345(10) . . .
361(10) . . .
309(9) . . .
341(10) . . .
330(9) . . .
303(9) . . .
314(10) . . .
296(10) . . .
292(9) . . .
306(9) . . .
307(9) . . .
294(9) . . .
297(10) . . .
296(9) . . .
297(9) . . .
308(9) . . .
301(9) . . .
279(9) . . .
304(10) . . .
292(9) . . .
298(9) . . .
306(9) . . .
274(9) . . .
280(9) . . .
302(9) . . .
324(10) . . .
290(9) . . .
308(9) . . .
270(8) . . .
305(9) . . .
306(10) . . .
293(9) . . .
302(9) . . .
292(9) . . .
300(9) . . .
279(9) . . .
292(10) . . .
299(9) . . .
285(9) . . .
287(9) . . .
296(9) . . .
314(10) . . .
293(9) . . .
276(9) . . .
277(9) . . .
265(9) . . .
282(9) . . .
295(9) . . .
275(9) . . .
278(9) . . .
263(9) . . .
246(9) . . .
257(9) . . .
278(9) . . .
284(9) . . .
301(9) . . .
293(9) . . .
282(9) . . .
296(9) . . .
285(9) . . .
277(9) . . .
259(9) . . .
258(9) . . .
293(9) . . .
287(9) . . .
301(10) . . .
267(9) . . .
286(9) . . .
299(9) . . .
287(9) . . .
313(10) . . .
282(9) . . .
287(9) . . .
280(9) . . .
270(9) . . .
298(9) . . .
263(9) . . .
264(9) . . .
295(9) . . .
282(9) . . .
271(9) . . .
250(8) . . .
298(9) . . .
279(9) . . .
291(9) . . .
281(9) . . .
274(9) . . .
307(9) . . .
277(9) . . .
269(9) . . .
289(9) . . .
309(10) . . .
291(9) . . .
302(9) . . .
281(9) . . .
265(9) . . .
289(9) . . .
291(9) . . .
287(9) . . .
293(9) . . .
288(10) . . .
284(9) . . .
300(9) . . .
310(9) . . .
295(9) . . .
282(9) . . .
271(9) . . .
273(9) . . .
299(9) . . .
288(9) . . .
287(9) . . .
323(10) . . .
304(9) . . .
340(10) . . .
313(9) . . .
308(10) . . .
282(9) . . .
329(9) . . .
321(9) . . .
312(10) . . .
307(10) . . .
304(9) . . .
285(9) . . .
303(9) . . .
305(9) . . .
315(9) . . .
307(9) . . .
320(9) . . .
323(10) . . .
305(10) . . .
283(9) . . .
285(9) . . .
307(9) . . .
293(9) . . .
302(9) . . .
329(10) . . .
310(9) . . .
322(9) . . .
322(10) . . .
307(10) . . .
328(10) . . .
371(10) . . .
358(10) . . .
364(10) . . .
307(9) . . .
326(10) . . .
316(9) . . .
301(9) . . .
326(10) . . .
318(10) . . .
333(10) . . .
345(10) . . .
330(9) . . .
348(10) . . .
340(10) . . .
346(10) . . .
346(10) . . .
319(9) . . .
325(10) . . .
325(10) . . .
349(10) . . .
333(9) . . .
348(10) . . .
316(10) . . .
305(10) . . .
301(9) . . .
318(9) . . .
317(9) . . .
349(10) . . .
322(10) . . .
300(9) . . .
300(9) . . .
298(9) . . .
301(9) . . .
281(9) . . .
317(10) . . .
298(9) . . .
265(9) . . .
287(9) . . .
273(9) . . .
260(9) . . .
270(9) . . .
275(9) . . .
292(9) . . .
302(9) . . .
289(9) . . .
278(9) . . .
272(9) . . .
274(9) . . .
269(9) . . .
299(9) . . .
302(9) . . .
267(9) . . .
257(9) . . .
244(8) . . .
269(9) . . .
295(9) . . .
279(9) . . .
276(9) . . .
303(9) . . .
278(9) . . .
256(8) . . .
262(9) . . .
273(9) . . .
269(9) . . .
247(8) . . .
252(8) . . .
265(9) . . .
253(9) . . .
278(9) . . .
285(9) . . .
267(9) . . .
264(9) . . .
252(9) . . .
269(9) . . .
285(9) . . .
279(9) . . .
252(9) . . .
254(9) . . .
283(9) . . .
252(8) . . .
281(9) . . .
295(9) . . .
268(9) . . .
272(9) . . .
243(8) . . .
246(9) . . .
241(8) . . .
266(9) . . .
243(8) . . .
245(8) . . .
262(9) . . .
270(9) . . .
267(9) . . .
249(8) . . .
245(8) . . .
263(9) . . .
258(9) . . .
275(9) . . .
272(9) . . .
278(9) . . .
267(9) . . .
295(10) . . .
282(9) . . .
251(8) . . .
283(9) . . .
262(9) . . .
274(9) . . .
287(9) . . .
258(8) . . .
273(9) . . .
287(9) . . .
271(9) . . .
248(8) . . .
270(9) . . .
270(9) . . .
271(9) . . .
264(9) . . .
271(9) . . .
240(8) . . .
250(8) . . .
261(9) . . .
266(9) . . .
249(8) . . .
251(8) . . .
301(9) . . .
269(9) . . .
269(9) . . .
250(9) . . .
267(8) . . .
282(9) . . .
284(9) . . .
261(9) . . .
267(9) . . .
259(8) . . .
275(9) . . .
276(9) . . .
286(9) . . .
272(9) . . .
275(9) . . .
284(9) . . .
270(9) . . .
253(9) . . .
272(9) . . .
250(8) . . .
257(9) . . .
276(9) . . .
256(9) . . .
264(9) . . .
271(9) . . .
264(9) . . .
259(9) . . .
269(9) . . .
273(9) . . .
263(8) . . .
279(9) . . .
285(10) . . .
250(8) . . .
279(9) . . .
273(9) . . .
284(9) . . .
257(9) . . .
259(8) . . .
284(9) . . .
271(9) . . .
260(9) . . .
279(9) . . .
268(9) . . .
248(8) . . .
253(8) . . .
247(8) . . .
270(9) . . .
267(9) . . .
255(8) . . .
272(9) . . .
302(10) . . .
288(9) . . .
278(9) . . .
274(9) . . .
251(8) . . .
246(8) . . .
256(9) . . .
271(9) . . .
256(8) . . .
278(9) . . .
263(9) . . .
255(8) . . .
290(9) . . .
284(9) . . .
263(9) . . .
265(9) . . .
246(8) . . .
284(9) . . .
248(8) . . .
260(9) . . .
270(9) . . .
234(8) . . .
245(8) . . .
251(8) . . .
268(9) . . .
255(9) . . .
274(9) . . .
277(9) . . .
284(9) . . .
263(9) . . .
270(9) . . .
277(9) . . .
257(8) . . .
262(8) . . .
254(9) . . .
252(9) . . .
267(9) . . .
263(8) . . .
273(9) . . .
244(8) . . .
257(9) . . .
245(8) . . .
251(8) . . .
265(9) . . .
277(9) . . .
242(8) . . .
251(9) . . .
261(8) . . .
261(8) . . .
253(9) . . .
254(9) . . .
245(8) . . .
250(8) . . .
239(8) . . .
230(8) . . .
250(9) . . .
247(8) . . .
268(9) . . .
251(9) . . .
256(9) . . .
277(9) . . .
244(8) . . .
241(8) . . .
261(9) . . .
263(9) . . .
233(8) . . .
263(9) . . .
277(9) . . .
267(9) . . .
242(8) . . .
250(9) . . .
245(8) . . .
246(8) . . .
252(9) . . .
249(9) . . .
265(9) . . .
281(9) . . .
254(8) . . .
247(9) . . .
243(9) . . .
237(8) . . .
266(9) . . .
263(8) . . .
258(9) . . .
253(9) . . .
250(8) . . .
251(8) . . .
259(8) . . .
217(8) . . .
251(9) . . .
256(9) . . .
255(8) . . .
248(8) . . .
268(9) . . .
268(9) . . .
267(9) . . .
258(8) . . .
271(9) . . .
248(8) . . .
243(9) . . .
243(9) . . .
251(8) . . .
243(8) . . .
251(9) . . .
252(9) . . .
251(8) . . .
249(8) . . .
247(8) . . .
238(8) . . .
261(9) . . .
269(9) . . .
273(9) . . .
242(8) . . .
276(9) . . .
267(9) . . .
267(9) . . .
244(8) . . .
271(9) . . .
230(8) . . .
250(9) . . .
262(8) . . .
280(9) . . .
255(9) . . .
246(9) . . .
256(9) . . .
253(8) . . .
243(8) . . .
254(9) . . .
244(9) . . .
273(9) . . .
260(8) . . .
276(9) . . .
267(9) . . .
243(9) . . .
238(8) . . .
241(8) . . .
218(8) . . .
242(8) . . .
248(9) . . .
236(8) . . .
239(8) . . .
249(8) . . .
241(8) . . .
249(9) . . .
234(8) . . .
239(8) . . .
264(9) . . .
217(8) . . .
249(9) . . .
239(8) . . .
254(8) . . .
257(8) . . .
237(8) . . .
243(9) . . .
250(8) . . .
267(8) . . .
233(8) . . .
252(9) . . .
252(9) . . .
254(8) . . .
235(8) . . .
255(8) . . .
261(9) . . .
234(8) . . .
222(8) . . .
246(8) . . .
242(8) . . .
248(8) . . .
243(8) . . .
252(8) . . .
248(8) . . .
233(8) . . .
250(9) . . .
252(9) . . .
230(8) . . .
271(9) . . .
249(8) . . .
236(8) . . .
236(8) . . .
254(8) . . .
224(8) . . .
254(9) . . .
251(9) . . .
257(8) . . .
249(8) . . .
222(8) . . .
235(8) . . .
242(9) . . .
216(8) . . .
259(8) . . .
254(8) . . .
248(8) . . .
254(9) . . .
279(9) . . .
234(8) . . .
218(8) . . .
227(8) . . .
241(9) . . .
249(8) . . .
219(8) . . .
238(8) . . .
246(9) . . .
227(8) . . .
230(8) . . .
224(8) . . .
232(8) . . .
248(8) . . .
241(8) . . .
243(8) . . .
223(8) . . .
258(9) . . .
233(8) . . .
231(8) . . .
236(8) . . .
240(8) . . .
239(8) . . .
238(8) . . .
227(8) . . .
227(8) . . .
229(8) . . .
244(8) . . .
230(8) . . .
242(8) . . .
233(8) . . .
237(8) . . .
239(8) . . .
218(8) . . .
238(8) . . .
240(8) . . .
239(8) . . .
234(8) . . .
236(9) . . .
248(9) . . .
228(8) . . .
218(8) . . .
220(8) . . .
225(8) . . .
242(9) . . .
239(8) . . .
230(8) . . .
220(8) . . .
218(8) . . .
225(8) . . .
245(8) . . .
222(8) . . .
226(8) . . .
233(9) . . .
246(9) . . .
261(8) . . .
254(8) . . .
244(9) . . .
223(8) . . .
201(7) . . .
252(8) . . .
257(8) . . .
207(8) . . .
252(9) . . .
248(8) . . .
231(8) . . .
250(8) . . .
237(8) . . .
223(8) . . .
234(8) . . .
252(8) . . .
245(8) . . .
249(9) . . .
229(8) . . .
243(8) . . .
222(8) . . .
255(9) . . .
238(8) . . .
220(8) . . .
223(8) . . .
234(8) . . .
229(8) . . .
229(8) . . .
254(9) . . .
251(8) . . .
251(8) . . .
246(8) . . .
253(9) . . .
260(9) . . .
252(8) . . .
272(9) . . .
262(8) . . .
280(9) . . .
283(9) . . .
283(9) . . .
316(9) . . .
284(9) . . .
297(10) . . .
277(9) . . .
279(9) . . .
279(9) . . .
274(9) . . .
247(9) . . .
256(9) . . .
249(8) . . .
241(8) . . .
257(9) . . .
254(9) . . .
250(9) . . .
246(8) . . .
253(8) . . .
261(9) . . .
269(9) . . .
258(9) . . .
253(8) . . .
265(9) . . .
268(9) . . .
270(9) . . .
250(8) . . .
266(8) . . .
251(8) . . .
255(8) . . .
272(9) . . .
250(8) . . .
272(9) . . .
264(9) . . .
252(9) . . .
258(9) . . .
267(9) . . .
252(8) . . .
281(9) . . .
238(9) . . .
237(8) . . .
223(8) . . .
243(8) . . .
245(8) . . .
257(9) . . .
233(8) . . .
230(8) . . .
279(9) . . .
268(9) . . .
247(9) . . .
254(9) . . .
250(8) . . .
238(8) . . .
248(8) . . .
246(9) . . .
251(9) . . .
252(8) . . .
253(8) . . .
244(8) . . .
259(9) . . .
245(9) . . .
232(8) . . .
267(9) . . .
257(9) . . .
230(8) . . .
254(9) . . .
247(8) . . .
251(8) . . .
216(8) . . .
243(8) . . .
248(8) . . .
259(8) . . .
246(8) . . .
261(9) . . .
259(9) . . .
242(8) . . .
232(8) . . .
247(8) . . .
244(9) . . .
240(8) . . .
250(9) . . .
240(8) . . .
255(8) . . .
270(9) . . .
249(9) . . .
252(8) . . .
264(8) . . .
285(9) . . .
289(9) . . .
260(9) . . .
294(9) . . .
292(9) . . .
261(9) . . .
276(9) . . .
280(9) . . .
276(9) . . .
282(9) . . .
275(9) . . .
277(9) . . .
276(9) . . .
268(8) . . .
274(9) . . .
282(9) . . .
249(9) . . .
262(9) . . .
270(8) . . .
274(9) . . .
260(9) . . .
278(9) . . .
248(8) . . .
253(8) . . .
272(9) . . .
274(9) . . .
254(9) . . .
277(9) . . .
276(9) . . .
257(8) . . .
270(9) . . .
278(9) . . .
264(9) . . .
247(8) . . .
245(8) . . .
241(8) . . .
234(8) . . .
258(9) . . .
270(9) . . .
247(8) . . .
236(8) . . .
227(8) . . .
260(8) . . .
248(8) . . .
227(8) . . .
274(9) . . .
263(9) . . .
247(8) . . .
264(9) . . .
242(9) . . .
236(8) . . .
262(9) . . .
257(9) . . .
259(8) . . .
255(9) . . .
235(9) . . .
237(8) . . .
244(8) . . .
232(8) . . .
235(8) . . .
254(9) . . .
233(8) . . .
235(8) . . .
219(8) . . .
228(8) . . .
241(9) . . .
224(8) . . .
240(8) . . .
248(8) . . .
252(9) . . .
215(8) . . .
237(8) . . .
230(8) . . .
220(8) . . .
217(8) . . .
241(8) . . .
230(8) . . .
233(8) . . .
244(8) . . .
238(8) . . .
236(8) . . .
244(8) . . .
213(8) . . .
258(9) . . .
243(8) . . .
246(9) . . .
241(9) . . .
220(8) . . .
240(8) . . .
227(8) . . .
219(8) . . .
244(9) . . .
251(8) . . .
229(8) . . .
250(9) . . .
258(9) . . .
254(8) . . .
234(8) . . .
232(8) . . .
240(9) . . .
232(8) . . .
231(8) . . .
200(7) . . .
241(8) . . .
213(8) . . .
230(8) . . .
228(8) . . .
247(8) . . .
221(8) . . .
231(8) . . .
220(8) . . .
219(8) . . .
251(8) . . .
231(8) . . .
245(9) . . .
229(8) . . .
240(8) . . .
250(8) . . .
231(8) . . .
219(8) . . .
240(9) . . .
233(8) . . .
220(8) . . .
223(8) . . .
214(8) . . .
237(8) . . .
209(8) . . .
228(8) . . .
219(8) . . .
227(8) . . .
228(8) . . .
219(8) . . .
217(8) . . .
217(8) . . .
220(8) . . .
225(8) . . .
226(8) . . .
231(8) . . .
210(8) . . .
250(9) . . .
232(8) . . .
229(8) . . .
237(8) . . .
258(9) . . .
234(8) . . .
266(9) . . .
244(8) . . .
254(9) . . .
242(8) . . .
248(8) . . .
240(8) . . .
235(8) . . .
246(9) . . .
222(8) . . .
218(8) . . .
231(8) . . .
229(8) . . .
226(8) . . .
250(9) . . .
236(9) . . .
226(8) . . .
245(8) . . .
248(9) . . .
249(9) . . .
259(9) . . .
222(8) . . .
204(7) . . .
240(8) . . .
215(8) . . .
233(8) . . .
252(8) . . .
258(8) . . .
211(8) . . .
216(8) . . .
213(8) . . .
224(8) . . .
237(8) . . .
221(8) . . .
237(8) . . .
221(8) . . .
215(8) . . .
241(8) . . .
211(8) . . .
240(9) . . .
206(8) . . .
231(8) . . .
218(8) . . .
226(8) . . .
228(8) . . .
207(8) . . .
219(8) . . .
228(8) . . .
235(8) . . .
231(8) . . .
211(8) . . .
231(8) . . .
204(8) . . .
220(8) . . .
224(8) . . .
248(8) . . .
216(8) . . .
234(8) . . .
233(8) . . .
247(8) . . .
220(8) . . .
236(8) . . .
222(8) . . .
231(8) . . .
240(8) . . .
227(8) . . .
243(8) . . .
245(8) . . .
235(8) . . .
235(8) . . .
230(8) . . .
213(8) . . .
221(8) . . .
206(8) . . .
219(8) . . .
203(8) . . .
232(8) . . .
211(8) . . .
231(8) . . .
217(8) . . .
198(7) . . .
224(8) . . .
211(8) . . .
211(8) . . .
214(8) . . .
214(8) . . .
216(8) . . .
221(8) . . .
204(8) . . .
217(8) . . .
220(8) . . .
213(8) . . .
216(8) . . .
238(9) . . .
241(8) . . .
238(8) . . .
225(8) . . .
229(8) . . .
241(8) . . .
235(8) . . .
228(8) . . .
216(8) . . .
235(8) . . .
237(8) . . .
206(8) . . .
233(8) . . .
215(8) . . .
231(8) . . .
232(8) . . .
235(8) . . .
222(8) . . .
221(8) . . .
206(8) . . .
230(8) . . .
237(8) . . .
226(8) . . .
251(9) . . .
231(8) . . .
233(8) . . .
237(8) . . .
229(8) . . .
241(8) . . .
252(9) . . .
247(9) . . .
229(8) . . .
256(8) . . .
223(8) . . .
243(9) . . .
263(9) . . .
225(8) . . .
247(8) . . .
223(8) . . .
250(9) . . .
226(8) . . .
216(8) . . .
211(8) . . .
216(8) . . .
218(8) . . .
212(8) . . .
222(8) . . .
232(8) . . .
206(8) . . .
231(8) . . .
226(8) . . .
219(8) . . .
249(9) . . .
194(7) . . .
236(8) . . .
218(8) . . .
224(8) . . .
223(8) . . .
251(9) . . .
231(8) . . .
224(8) . . .
207(8) . . .
217(8) . . .
217(8) . . .
234(8) . . .
213(8) . . .
226(8) . . .
197(7) . . .
209(8) . . .
216(8) . . .
230(8) . . .
214(8) . . .
215(8) . . .
225(8) . . .
237(8) . . .
216(8) . . .
208(8) . . .
223(8) . . .
211(8) . . .
222(8) . . .
202(7) . . .
219(8) . . .
217(8) . . .
229(8) . . .
221(8) . . .
225(8) . . .
237(8) . . .
224(8) . . .
231(8) . . .
204(8) . . .
227(8) . . .
232(8) . . .
235(8) . . .
210(8) . . .
224(8) . . .
221(8) . . .
222(8) . . .
217(8) . . .
226(8) . . .
214(8) . . .
212(8) . . .
213(8) . . .
225(8) . . .
206(8) . . .
224(8) . . .
223(8) . . .
215(8) . . .
225(8) . . .
236(8) . . .
203(8) . . .
235(8) . . .
213(8) . . .
228(8) . . .
226(8) . . .
220(8) . . .
216(8) . . .
218(8) . . .
198(8) . . .
218(8) . . .
203(7) . . .
231(8) . . .
227(8) . . .
201(8) . . .
224(8) . . .
237(8) . . .
211(8) . . .
209(8) . . .
226(8) . . .
237(8) . . .
225(8) . . .
218(8) . . .
228(8) . . .
235(9) . . .
216(8) . . .
215(8) . . .
232(8) . . .
227(8) . . .
224(8) . . .
235(8) . . .
234(8) . . .
221(8) . . .
201(8) . . .
225(8) . . .
228(8) . . .
205(7) . . .
224(8) . . .
207(8) . . .
252(9) . . .
228(8) . . .
231(8) . . .
246(8) . . .
221(8) . . .
214(8) . . .
237(8) . . .
215(8) . . .
227(8) . . .
212(8) . . .
203(8) . . .
210(8) . . .
229(8) . . .
221(8) . . .
211(8) . . .
207(8) . . .
215(8) . . .
228(8) . . .
222(8) . . .
217(8) . . .
216(8) . . .
223(8) . . .
213(8) . . .
205(8) . . .
218(8) . . .
203(7) . . .
205(7) . . .
226(8) . . .
227(8) . . .
220(8) . . .
213(8) . . .
228(8) . . .
229(8) . . .
220(8) . . .
230(8) . . .
201(8) . . .
222(8) . . .
231(8) . . .
220(8) . . .
206(8) . . .
242(9) . . .
225(8) . . .
222(8) . . .
236(8) . . .
237(9) . . .
224(8) . . .
222(8) . . .
224(8) . . .
218(8) . . .
225(8) . . .
209(8) . . .
225(8) . . .
225(8) . . .
230(8) . . .
235(8) . . .
223(8) . . .
241(8) . . .
246(8) . . .
231(8) . . .
240(8) . . .
224(8) . . .
239(8) . . .
228(8) . . .
223(8) . . .
242(9) . . .
274(9) . . .
222(8) . . .
223(8) . . .
238(8) . . .
247(8) . . .
245(8) . . .
264(8) . . .
254(9) . . .
265(9) . . .
253(9) . . .
262(8) . . .
251(8) . . .
280(9) . . .
236(8) . . .
239(8) . . .
226(8) . . .
253(8) . . .
260(9) . . .
250(9) . . .
236(8) . . .
237(8) . . .
227(8) . . .
229(8) . . .
247(9) . . .
249(8) . . .
239(8) . . .
214(8) . . .
218(8) . . .
218(8) . . .
201(8) . . .
209(7) . . .
231(8) . . .
227(8) . . .
222(8) . . .
220(8) . . .
224(8) . . .
221(8) . . .
233(8) . . .
240(8) . . .
238(8) . . .
203(7) . . .
223(8) . . .
226(8) . . .
229(8) . . .
228(8) . . .
213(8) . . .
215(8) . . .
212(8) . . .
199(8) . . .
240(8) . . .
216(8) . . .
213(8) . . .
217(8) . . .
218(8) . . .
202(7) . . .
216(8) . . .
227(8) . . .
220(8) . . .
224(8) . . .
223(8) . . .
219(8) . . .
218(8) . . .
229(9) . . .
215(8) . . .
204(7) . . .
201(7) . . .
207(8) . . .
221(8) . . .
210(8) . . .
234(8) . . .
231(8) . . .
221(8) . . .
214(8) . . .
207(8) . . .
208(7) . . .
216(8) . . .
210(8) . . .
209(8) . . .
200(8) . . .
205(7) . . .
212(8) . . .
223(8) . . .
228(8) . . .
216(8) . . .
213(8) . . .
215(8) . . .
234(8) . . .
222(8) . . .
227(8) . . .
198(7) . . .
205(8) . . .
209(8) . . .
204(8) . . .
222(8) . . .
235(8) . . .
220(8) . . .
210(8) . . .
189(7) . . .
183(7) . . .
204(7) . . .
203(8) . . .
204(8) . . .
201(7) . . .
206(8) . . .
208(8) . . .
209(8) . . .
223(8) . . .
230(8) . . .
208(8) . . .
209(8) . . .
223(8) . . .
194(8) . . .
204(8) . . .
207(7) . . .
218(8) . . .
194(7) . . .
217(8) . . .
206(8) . . .
207(7) . . .
212(8) . . .
225(8) . . .
216(8) . . .
199(7) . . .
227(8) . . .
214(8) . . .
198(7) . . .
199(8) . . .
191(7) . . .
223(8) . . .
208(8) . . .
205(8) . . .
202(8) . . .
204(8) . . .
203(7) . . .
193(7) . . .
190(7) . . .
209(8) . . .
216(8) . . .
227(8) . . .
220(8) . . .
210(8) . . .
202(8) . . .
202(8) . . .
196(7) . . .
197(7) . . .
214(8) . . .
212(8) . . .
214(8) . . .
227(8) . . .
205(8) . . .
213(8) . . .
211(8) . . .
228(8) . . .
213(8) . . .
205(8) . . .
213(8) . . .
212(8) . . .
197(7) . . .
218(8) . . .
210(8) . . .
236(8) . . .
205(7) . . .
211(8) . . .
209(7) . . .
213(8) . . .
224(8) . . .
222(8) . . .
209(7) . . .
228(8) . . .
231(8) . . .
227(9) . . .
202(7) . . .
219(8) . . .
216(8) . . .
211(8) . . .
218(8) . . .
224(8) . . .
219(8) . . .
220(8) . . .
207(8) . . .
194(8) . . .
198(7) . . .
222(8) . . .
223(8) . . .
210(8) . . .
198(8) . . .
230(8) . . .
216(8) . . .
214(8) . . .
212(8) . . .
229(8) . . .
216(8) . . .
211(8) . . .
209(8) . . .
197(8) . . .
212(8) . . .
192(7) . . .
214(8) . . .
231(8) . . .
231(8) . . .
228(8) . . .
202(7) . . .
226(8) . . .
217(8) . . .
220(8) . . .
226(8) . . .
215(8) . . .
223(8) . . .
240(9) . . .
244(9) . . .
243(8) . . .
267(9) . . .
241(8) . . .
235(8) . . .
240(8) . . .
267(9) . . .
247(8) . . .
255(8) . . .
227(8) . . .
229(8) . . .
243(8) . . .
222(8) . . .
235(8) . . .
243(8) . . .
224(8) . . .
209(8) . . .
218(8) . . .
218(8) . . .
219(8) . . .
195(8) . . .
228(8) . . .
206(8) . . .
225(8) . . .
217(8) . . .
212(8) . . .
221(8) . . .
242(8) . . .
217(8) . . .
227(8) . . .
226(8) . . .
227(8) . . .
228(8) . . .
208(8) . . .
214(8) . . .
212(8) . . .
218(8) . . .
212(8) . . .
221(8) . . .
240(8) . . .
216(8) . . .
228(8) . . .
223(8) . . .
215(8) . . .
227(8) . . .
239(8) . . .
232(8) . . .
213(8) . . .
205(8) . . .
201(8) . . .
197(7) . . .
201(7) . . .
216(8) . . .
219(8) . . .
227(9) . . .
223(8) . . .
209(8) . . .
235(8) . . .
235(8) . . .
230(8) . . .
216(8) . . .
217(8) . . .
220(8) . . .
210(8) . . .
232(9) . . .
220(8) . . .
212(8) . . .
210(8) . . .
215(8) . . .
211(8) . . .
222(8) . . .
222(8) . . .
241(8) . . .
230(8) . . .
236(8) . . .
221(8) . . .
237(8) . . .
232(8) . . .
239(8) . . .
223(8) . . .
212(8) . . .
208(7) . . .
212(8) . . .
215(8) . . .
211(8) . . .
214(8) . . .
207(7) . . .
245(8) . . .
205(8) . . .
226(8) . . .
216(8) . . .
213(8) . . .
210(8) . . .
190(8) . . .
211(8) . . .
237(8) . . .
206(7) . . .
202(8) . . .
216(8) . . .
200(8) . . .
219(8) . . .
203(7) . . .
217(8) . . .
210(8) . . .
216(8) . . .
211(8) . . .
210(8) . . .
215(8) . . .
221(8) . . .
208(8) . . .
229(8) . . .
233(8) . . .
219(8) . . .
230(9) . . .
207(8) . . .
215(8) . . .
239(8) . . .
236(8) . . .
206(8) . . .
216(8) . . .
225(8) . . .
205(8) . . .
219(8) . . .
229(8) . . .
228(8) . . .
240(8) . . .
253(8) . . .
259(9) . . .
242(8) . . .
248(8) . . .
262(8) . . .
230(8) . . .
240(8) . . .
245(8) . . .
223(8) . . .
217(8) . . .
239(8) . . .
231(8) . . .
216(8) . . .
203(7) . . .
201(7) . . .
229(8) . . .
210(8) . . .
209(8) . . .
227(8) . . .
229(8) . . .
249(8) . . .
215(8) . . .
202(8) . . .
235(8) . . .
217(8) . . .
218(8) . . .
225(8) . . .
216(8) . . .
238(8) . . .
236(8) . . .
212(8) . . .
233(9) . . .
237(8) . . .
235(8) . . .
241(8) . . .
217(8) . . .
198(8) . . .
202(8) . . .
206(8) . . .
231(8) . . .
228(8) . . .
219(8) . . .
214(8) . . .
215(8) . . .
236(8) . . .
217(8) . . .
231(9) . . .
211(8) . . .
198(7) . . .
216(8) . . .
214(8) . . .
210(8) . . .
221(8) . . .
220(8) . . .
212(8) . . .
207(8) . . .
213(8) . . .
210(8) . . .
222(8) . . .
225(8) . . .
206(8) . . .
223(8) . . .
219(8) . . .
210(8) . . .
214(8) . . .
225(8) . . .
204(8) . . .
199(8) . . .
211(8) . . .
217(8) . . .
201(8) . . .
183(7) . . .
178(7) . . .
204(8) . . .
206(8) . . .
188(8) . . .
209(8) . . .
216(8) . . .
197(7) . . .
223(8) . . .
209(8) . . .
222(8) . . .
226(8) . . .
207(7) . . .
186(7) . . .
184(8) . . .
212(8) . . .
221(8) . . .
209(8) . . .
197(8) . . .
229(9) . . .
216(8) . . .
203(7) . . .
217(8) . . .
205(8) . . .
200(8) . . .
207(8) . . .
224(8) . . .
220(8) . . .
224(8) . . .
215(8) . . .
208(8) . . .
210(8) . . .
211(8) . . .
223(8) . . .
184(7) . . .
183(7) . . .
210(8) . . .
197(7) . . .
200(8) . . .
226(8) . . .
221(8) . . .
224(8) . . .
223(8) . . .
229(8) . . .
215(8) . . .
224(8) . . .
208(7) . . .
189(7) . . .
222(8) . . .
220(8) . . .
204(8) . . .
207(7) . . .
204(8) . . .
219(8) . . .
215(8) . . .
196(7) . . .
208(8) . . .
205(8) . . .
218(8) . . .
205(8) . . .
201(7) . . .
204(7) . . .
212(8) . . .
204(8) . . .
194(7) . . .
217(8) . . .
209(8) . . .
205(8) . . .
215(8) . . .
222(8) . . .
213(8) . . .
215(8) . . .
235(8) . . .
210(8) . . .
252(9) . . .
243(8) . . .
228(8) . . .
235(8) . . .
231(8) . . .
248(9) . . .
247(8) . . .
258(8) . . .
254(9) . . .
235(8) . . .
276(9) . . .
251(8) . . .
257(8) . . .
247(9) . . .
238(8) . . .
270(9) . . .
244(8) . . .
229(8) . . .
234(8) . . .
226(8) . . .
215(8) . . .
228(8) . . .
241(8) . . .
243(8) . . .
244(8) . . .
225(8) . . .
219(8) . . .
224(8) . . .
206(8) . . .
223(8) . . .
241(8) . . .
224(8) . . .
229(8) . . .
209(8) . . .
194(8) . . .
201(7) . . .
226(8) . . .
216(8) . . .
217(8) . . .
217(8) . . .
213(8) . . .
197(7) . . .
194(8) . . .
213(8) . . .
211(8) . . .
204(7) . . .
205(7) . . .
219(8) . . .
213(8) . . .
207(8) . . .
203(7) . . .
216(8) . . .
205(8) . . .
214(8) . . .
207(8) . . .
224(8) . . .
204(8) . . .
209(8) . . .
229(8) . . .
228(8) . . .
211(7) . . .
206(8) . . .
198(8) . . .
215(8) . . .
215(8) . . .
195(7) . . .
203(8) . . .
212(8) . . .
209(8) . . .
205(8) . . .
214(8) . . .
200(8) . . .
193(8) . . .
218(8) . . .
220(8) . . .
215(8) . . .
222(8) . . .
228(8) . . .
199(7) . . .
211(8) . . .
217(8) . . .
208(8) . . .
202(8) . . .
228(8) . . .
229(8) . . .
212(8) . . .
214(8) . . .
210(8) . . .
215(8) . . .
220(8) . . .
227(8) . . .
209(8) . . .
226(8) . . .
246(8) . . .
221(8) . . .
221(8) . . .
221(8) . . .
198(8) . . .
216(8) . . .
222(8) . . .
232(8) . . .
197(7) . . .
218(8) . . .
228(8) . . .
195(7) . . .
207(8) . . .
201(8) . . .
220(8) . . .
222(8) . . .
223(8) . . .
210(8) . . .
200(8) . . .
206(8) . . .
212(8) . . .
196(7) . . .
184(7) . . .
186(7) . . .
228(8) . . .
224(8) . . .
219(8) . . .
208(8) . . .
231(8) . . .
196(7) . . .
211(8) . . .
202(7) . . .
200(8) . . .
201(8) . . .
200(7) . . .
207(7) . . .
213(8) . . .
204(8) . . .
194(7) . . .
221(8) . . .
205(8) . . .
198(7) . . .
210(8) . . .
214(8) . . .
194(7) . . .
207(7) . . .
225(8) . . .
213(8) . . .
217(8) . . .
227(8) . . .
240(8) . . .
231(8) . . .
227(8) . . .
224(8) . . .
238(8) . . .
234(8) . . .
253(8) . . .
249(8) . . .
247(9) . . .
276(9) . . .
265(8) . . .
246(8) . . .
252(9) . . .
253(9) . . .
244(8) . . .
249(8) . . .
216(8) . . .
255(9) . . .
232(8) . . .
211(8) . . .
232(8) . . .
216(8) . . .
197(8) . . .
221(8) . . .
230(8) . . .
232(8) . . .
221(8) . . .
212(8) . . .
191(7) . . .
200(8) . . .
208(7) . . .
215(8) . . .
227(8) . . .
217(8) . . .
205(8) . . .
217(8) . . .
208(8) . . .
205(8) . . .
205(8) . . .
220(8) . . .
205(7) . . .
225(8) . . .
211(8) . . .
226(8) . . .
213(8) . . .
227(8) . . .
216(8) . . .
221(8) . . .
235(8) . . .
206(7) . . .
220(8) . . .
221(8) . . .
199(8) . . .
213(8) . . .
224(8) . . .
211(8) . . .
225(8) . . .
245(9) . . .
225(8) . . .
217(8) . . .
211(8) . . .
223(8) . . .
205(8) . . .
219(8) . . .
224(8) . . .
211(8) . . .
224(8) . . .
227(8) . . .
215(8) . . .
210(7) . . .
180(7) . . .
191(7) . . .
201(8) . . .
198(8) . . .
201(7) . . .
209(8) . . .
211(8) . . .
212(8) . . .
235(8) . . .
228(8) . . .
208(8) . . .
240(8) . . .
235(8) . . .
234(8) . . .
217(8) . . .
213(8) . . .
206(8) . . .
198(8) . . .
193(7) . . .
202(7) . . .
197(7) . . .
223(8) . . .
209(8) . . .
206(8) . . .
189(7) . . .
186(7) . . .
195(8) . . .
187(7) . . .
193(7) . . .
215(8) . . .
191(7) . . .
214(8) . . .
203(8) . . .
205(7) . . .
216(8) . . .
213(8) . . .
194(8) . . .
196(7) . . .
199(7) . . .
203(7) . . .
217(8) . . .
202(8) . . .
203(8) . . .
187(7) . . .
186(7) . . .
192(7) . . .
227(8) . . .
217(8) . . .
211(8) . . .
215(8) . . .
220(8) . . .
192(8) . . .
202(8) . . .
211(8) . . .
207(8) . . .
210(8) . . .
199(8) . . .
217(8) . . .
201(7) . . .
184(7) . . .
195(8) . . .
221(8) . . .
217(8) . . .
221(8) . . .
212(8) . . .
199(8) . . .
204(8) . . .
216(8) . . .
215(8) . . .
205(8) . . .
213(8) . . .
212(8) . . .
196(7) . . .
188(7) . . .
210(8) . . .
190(8) . . .
211(8) . . .
200(7) . . .
209(8) . . .
233(8) . . .
223(8) . . .
214(8) . . .
232(8) . . .
221(8) . . .
212(8) . . .
219(8) . . .
205(8) . . .
187(7) . . .
207(8) . . .
190(8) . . .
224(8) . . .
219(8) . . .
211(8) . . .
217(8) . . .
225(8) . . .
205(8) . . .
228(8) . . .
219(8) . . .
196(7) . . .
221(8) . . .
205(8) . . .
184(7) . . .
194(7) . . .
198(7) . . .
216(8) . . .
221(8) . . .
224(8) . . .
209(7) . . .
206(8) . . .
193(8) . . .
206(8) . . .
210(8) . . .
204(7) . . .
231(8) . . .
213(8) . . .
199(8) . . .
230(8) . . .
210(8) . . .
204(7) . . .
201(8) . . .
216(8) . . .
214(8) . . .
197(7) . . .
208(8) . . .
187(7) . . .
199(7) . . .
212(8) . . .
203(7) . . .
193(7) . . .
221(8) . . .
206(8) . . .
204(7) . . .
223(8) . . .
215(8) . . .
205(8) . . .
202(8) . . .
195(7) . . .
207(8) . . .
211(8) . . .
206(8) . . .
206(8) . . .
229(8) . . .
195(7) . . .
215(8) . . .
216(8) . . .
212(8) . . .
229(8) . . .
217(8) . . .
204(8) . . .
239(9) . . .
235(8) . . .
204(7) . . .
231(8) . . .
233(8) . . .
225(8) . . .
219(8) . . .
236(8) . . .
237(8) . . .
219(8) . . .
227(8) . . .
239(8) . . .
221(8) . . .
231(8) . . .
209(8) . . .
204(8) . . .
222(8) . . .
209(7) . . .
225(8) . . .
225(8) . . .
246(8) . . .
251(8) . . .
236(8) . . .
234(8) . . .
237(9) . . .
246(8) . . .
264(8) . . .
235(8) . . .
225(8) . . .
243(9) . . .
233(8) . . .
229(8) . . .
246(8) . . .
249(8) . . .
235(8) . . .
249(9) . . .
247(8) . . .
237(8) . . .
224(8) . . .
236(8) . . .
252(8) . . .
249(8) . . .
249(8) . . .
250(9) . . .
216(8) . . .
222(8) . . .
223(8) . . .
240(8) . . .
234(8) . . .
231(8) . . .
230(8) . . .
254(8) . . .
236(8) . . .
224(8) . . .
227(8) . . .
239(8) . . .
231(8) . . .
252(9) . . .
225(8) . . .
221(8) . . .
250(8) . . .
195(7) . . .
202(8) . . .
225(9) . . .
218(8) . . .
236(8) . . .
216(8) . . .
234(8) . . .
214(8) . . .
212(8) . . .
214(8) . . .
225(8) . . .
213(8) . . .
233(9) . . .
210(8) . . .
214(8) . . .
197(7) . . .
210(8) . . .
198(8) . . .
192(7) . . .
209(7) . . .
175(7) . . .
216(8) . . .
221(9) . . .
223(8) . . .
223(8) . . .
207(8) . . .
209(8) . . .
210(8) . . .
212(8) . . .
214(8) . . .
200(7) . . .
199(8) . . .
217(8) . . .
205(8) . . .
217(8) . . .
213(8) . . .
201(7) . . .
210(8) . . .
212(8) . . .
217(8) . . .
212(8) . . .
230(8) . . .
228(8) . . .
215(8) . . .
219(8) . . .
193(7) . . .
214(8) . . .
228(8) . . .
229(8) . . .
210(8) . . .
198(7) . . .
198(8) . . .
212(8) . . .
209(8) . . .
202(7) . . .
213(8) . . .
212(8) . . .
219(8) . . .
226(8) . . .
208(7) . . .
198(8) . . .
194(8) . . .
214(8) . . .
212(8) . . .
200(7) . . .
194(7) . . .
212(8) . . .
182(7) . . .
207(8) . . .
197(7) . . .
195(7) . . .
197(8) . . .
201(7) . . .
199(7) . . .
210(7) . . .
213(8) . . .
217(8) . . .
201(8) . . .
206(8) . . .
218(8) . . .
203(8) . . .
206(8) . . .
218(8) . . .
202(7) . . .
205(8) . . .
222(8) . . .
228(9) . . .
196(8) . . .
197(7) . . .
199(7) . . .
210(8) . . .
203(8) . . .
198(7) . . .
203(7) . . .
206(7) . . .
198(8) . . .
217(8) . . .
201(8) . . .
206(8) . . .
220(8) . . .
200(8) . . .
200(8) . . .
188(7) . . .
211(8) . . .
228(8) . . .
222(8) . . .
224(8) . . .
224(8) . . .
217(8) . . .
198(8) . . .
200(8) . . .
213(8) . . .
226(8) . . .
227(8) . . .
221(8) . . .
182(7) . . .
193(7) . . .
225(8) . . .
201(7) . . .
228(8) . . .
219(8) . . .
213(8) . . .
216(8) . . .
233(8) . . .
210(8) . . .
227(8) . . .
205(8) . . .
211(8) . . .
222(8) . . .
201(8) . . .
200(8) . . .
209(8) . . .
202(7) . . .
194(7) . . .
205(8) . . .
203(8) . . .
213(8) . . .
220(8) . . .
208(8) . . .
191(7) . . .
223(8) . . .
234(8) . . .
212(8) . . .
209(8) . . .
208(8) . . .
230(8) . . .
222(8) . . .
223(8) . . .
229(8) . . .
207(8) . . .
214(8) . . .
233(8) . . .
233(8) . . .
246(8) . . .
236(8) . . .
223(8) . . .
208(8) . . .
200(7) . . .
210(8) . . .
224(8) . . .
243(8) . . .
213(8) . . .
207(8) . . .
226(8) . . .
213(8) . . .
206(8) . . .
190(7) . . .
210(8) . . .
222(8) . . .
199(8) . . .
203(8) . . .
216(8) . . .
219(8) . . .
202(8) . . .
226(9) . . .
225(8) . . .
231(8) . . .
217(8) . . .
204(8) . . .
210(8) . . .
224(8) . . .
223(8) . . .
222(8) . . .
235(8) . . .
234(8) . . .
210(8) . . .
231(8) . . .
228(8) . . .
232(8) . . .
244(9) . . .
236(8) . . .
257(8) . . .
226(8) . . .
215(8) . . .
228(8) . . .
227(8) . . .
213(8) . . .
208(8) . . .
222(8) . . .
212(8) . . .
191(7) . . .
176(7) . . .
208(8) . . .
219(8) . . .
204(7) . . .
216(8) . . .
220(8) . . .
203(8) . . .
198(8) . . .
208(8) . . .
213(8) . . .
217(8) . . .
191(7) . . .
200(8) . . .
200(8) . . .
211(8) . . .
215(8) . . .
209(8) . . .
236(9) . . .
230(8) . . .
211(8) . . .
209(8) . . .
214(8) . . .
189(8) . . .
211(8) . . .
207(7) . . .
234(8) . . .
222(8) . . .
224(8) . . .
236(8) . . .
220(8) . . .
209(8) . . .
233(8) . . .
218(8) . . .
216(8) . . .
220(8) . . .
241(8) . . .
243(8) . . .
223(8) . . .
206(8) . . .
208(7) . . .
207(8) . . .
216(8) . . .
211(8) . . .
213(8) . . .
216(8) . . .
226(8) . . .
223(8) . . .
202(8) . . .
214(8) . . .
222(8) . . .
183(7) . . .
196(8) . . .
196(7) . . .
192(7) . . .
201(7) . . .
214(8) . . .
204(8) . . .
185(7) . . .
200(7) . . .
213(8) . . .
192(8) . . .
213(8) . . .
197(8) . . .
214(8) . . .
199(7) . . .
217(8) . . .
219(8) . . .
201(7) . . .
211(8) . . .
210(8) . . .
211(8) . . .
208(8) . . .
206(8) . . .
233(8) . . .
217(8) . . .
213(8) . . .
212(8) . . .
196(7) . . .
217(8) . . .
217(8) . . .
212(8) . . .
201(8) . . .
212(8) . . .
221(8) . . .
203(7) . . .
211(8) . . .
203(8) . . .
193(7) . . .
205(7) . . .
199(7) . . .
195(8) . . .
200(8) . . .
192(8) . . .
204(7) . . .
203(8) . . .
210(8) . . .
207(8) . . .
213(8) . . .
207(7) . . .
209(8) . . .
208(8) . . .
192(7) . . .
199(8) . . .
213(8) . . .
201(8) . . .
213(8) . . .
213(8) . . .
206(8) . . .
200(7) . . .
208(8) . . .
195(8) . . .
203(8) . . .
171(7) . . .
206(7) . . .
206(8) . . .
200(8) . . .
199(8) . . .
216(8) . . .
206(7) . . .
188(7) . . .
195(8) . . .
200(8) . . .
209(7) . . .
228(8) . . .
217(8) . . .
223(9) . . .
200(8) . . .
209(7) . . .
207(8) . . .
224(8) . . .
241(9) . . .
213(8) . . .
213(8) . . .
231(8) . . .
197(7) . . .
212(8) . . .
225(8) . . .
216(8) . . .
223(8) . . .
248(8) . . .
223(8) . . .
219(8) . . .
195(7) . . .
218(8) . . .
216(8) . . .
206(8) . . .
220(8) . . .
207(7) . . .
203(8) . . .
197(7) . . .
222(8) . . .
214(8) . . .
226(8) . . .
201(7) . . .
217(8) . . .
209(8) . . .
229(8) . . .
203(7) . . .
214(8) . . .
208(8) . . .
216(8) . . .
199(7) . . .
217(8) . . .
213(8) . . .
222(8) . . .
223(8) . . .
229(8) . . .
232(8) . . .
231(8) . . .
243(9) . . .
213(8) . . .
224(8) . . .
206(7) . . .
226(8) . . .
208(8) . . .
228(8) . . .
229(8) . . .
218(8) . . .
212(8) . . .
209(8) . . .
216(8) . . .
202(7) . . .
210(8) . . .
209(8) . . .
223(8) . . .
197(7) . . .
200(7) . . .
205(7) . . .
215(8) . . .
193(8) . . .
202(8) . . .
221(8) . . .
185(7) . . .
226(8) . . .
200(8) . . .
191(7) . . .
198(7) . . .
173(7) . . .
200(8) . . .
195(7) . . .
204(8) . . .
199(7) . . .
217(8) . . .
214(8) . . .
220(8) . . .
200(8) . . .
199(7) . . .
218(8) . . .
200(7) . . .
215(8) . . .
214(8) . . .
213(8) . . .
203(8) . . .
203(8) . . .
208(8) . . .
204(7) . . .
209(7) . . .
191(7) . . .
188(8) . . .
184(7) . . .
188(7) . . .
192(7) . . .
198(8) . . .
184(8) . . .
189(7) . . .
179(7) . . .
206(7) . . .
195(7) . . .
188(8) . . .
202(8) . . .
200(7) . . .
202(7) . . .
221(8) . . .
206(8) . . .
211(8) . . .
184(7) . . .
219(8) . . .
197(8) . . .
201(8) . . .
196(7) . . .
185(7) . . .
193(7) . . .
176(7) . . .
194(8) . . .
189(7) . . .
202(7) . . .
206(8) . . .
184(7) . . .
184(7) . . .
182(7) . . .
182(7) . . .
215(8) . . .
214(8) . . .
215(8) . . .
192(7) . . .
208(8) . . .
195(8) . . .
201(8) . . .
212(8) . . .
193(7) . . .
211(8) . . .
203(8) . . .
197(8) . . .
211(8) . . .
187(7) . . .
198(7) . . .
230(8) . . .
202(8) . . .
213(8) . . .
199(7) . . .
197(7) . . .
191(7) . . .
220(8) . . .
210(8) . . .
184(7) . . .
191(7) . . .
197(7) . . .
197(8) . . .
204(8) . . .
206(7) . . .
201(7) . . .
190(7) . . .
208(8) . . .
208(8) . . .
210(8) . . .
192(7) . . .
211(8) . . .
206(8) . . .
198(8) . . .
192(7) . . .
198(8) . . .
217(8) . . .
207(8) . . .
209(8) . . .
192(7) . . .
198(7) . . .
214(8) . . .
196(7) . . .
214(8) . . .
224(8) . . .
197(7) . . .
199(8) . . .
198(8) . . .
206(8) . . .
193(7) . . .
180(7) . . .
213(8) . . .
196(8) . . .
195(7) . . .
212(8) . . .
215(8) . . .
212(8) . . .
206(8) . . .
206(8) . . .
195(7) . . .
194(7) . . .
195(8) . . .
203(7) . . .
204(7) . . .
209(7) . . .
214(8) . . .
210(8) . . .
195(7) . . .
206(8) . . .
202(7) . . .
205(8) . . .
220(8) . . .
212(8) . . .
210(8) . . .
210(8) . . .
213(8) . . .
194(8) . . .
214(8) . . .
226(8) . . .
212(8) . . .
229(8) . . .
198(8) . . .
219(8) . . .
192(7) . . .
202(7) . . .
203(8) . . .
203(8) . . .
223(8) . . .
197(7) . . .
203(7) . . .
209(8) . . .
198(8) . . .
195(8) . . .
203(7) . . .
197(8) . . .
193(8) . . .
203(8) . . .
178(7) . . .
199(7) . . .
200(7) . . .
201(8) . . .
199(8) . . .
196(8) . . .
204(7) . . .
218(8) . . .
192(8) . . .
184(7) . . .
207(8) . . .
182(7) . . .
207(8) . . .
214(8) . . .
190(7) . . .
205(8) . . .
189(7) . . .
202(8) . . .
215(8) . . .
193(7) . . .
201(7) . . .
207(8) . . .
190(7) . . .
181(7) . . .
213(8) . . .
195(7) . . .
194(7) . . .
199(7) . . .
212(8) . . .
183(7) . . .
210(8) . . .
216(8) . . .
217(8) . . .
190(8) . . .
189(7) . . .
173(7) . . .
197(7) . . .
194(8) . . .
177(7) . . .
205(8) . . .
217(8) . . .
227(8) . . .
204(8) . . .
214(8) . . .
197(7) . . .
183(7) . . .
199(7) . . .
204(8) . . .
193(7) . . .
198(7) . . .
190(7) . . .
213(8) . . .
219(8) . . .
199(8) . . .
197(7) . . .
225(8) . . .
194(8) . . .
207(8) . . .
198(7) . . .
200(7) . . .
202(7) . . .
212(8) . . .
191(8) . . .
193(7) . . .
175(7) . . .
205(7) . . .
197(7) . . .
198(8) . . .
206(8) . . .
199(7) . . .
189(7) . . .
196(8) . . .
191(8) . . .
209(8) . . .
188(7) . . .
189(7) . . .
184(7) . . .
203(8) . . .
198(7) . . .
193(7) . . .
209(8) . . .
210(8) . . .
213(8) . . .
207(8) . . .
193(7) . . .
197(7) . . .
196(8) . . .
202(8) . . .
209(8) . . .
202(7) . . .
196(7) . . .
199(7) . . .
222(8) . . .
212(8) . . .
204(7) . . .
203(8) . . .
210(8) . . .
230(8) . . .
204(8) . . .
198(7) . . .
203(8) . . .
209(8) . . .
215(8) . . .
191(7) . . .
206(7) . . .
211(8) . . .
206(8) . . .
202(8) . . .
207(7) . . .
198(7) . . .
204(8) . . .
204(8) . . .
194(7) . . .
202(7) . . .
216(8) . . .
195(7) . . .
222(8) . . .
198(8) . . .
205(8) . . .
194(7) . . .
211(8) . . .
200(8) . . .
216(8) . . .
199(7) . . .
187(7) . . .
219(8) . . .
206(8) . . .
186(7) . . .
192(7) . . .
199(7) . . .
205(8) . . .
203(8) . . .
189(7) . . .
193(7) . . .
193(7) . . .
199(8) . . .
190(8) . . .
198(8) . . .
212(8) . . .
186(7) . . .
219(8) . . .
186(7) . . .
180(7) . . .
208(8) . . .
196(7) . . .
192(7) . . .
194(7) . . .
198(8) . . .
193(7) . . .
191(7) . . .
190(7) . . .
202(8) . . .
184(7) . . .
199(7) . . .
230(8) . . .
199(8) . . .
205(8) . . .
195(7) . . .
204(7) . . .
195(7) . . .
203(8) . . .
209(8) . . .
189(7) . . .
204(7) . . .
214(8) . . .
201(8) . . .
202(8) . . .
204(7) . . .
205(8) . . .
206(8) . . .
184(7) . . .
201(8) . . .
170(7) . . .
201(7) . . .
194(7) . . .
196(8) . . .
197(8) . . .
202(7) . . .
213(8) . . .
235(8) . . .
195(8) . . .
174(7) . . .
208(7) . . .
210(8) . . .
182(7) . . .
202(8) . . .
189(8) . . .
196(7) . . .
219(8) . . .
202(7) . . .
214(8) . . .
192(7) . . .
191(7) . . .
212(8) . . .
189(7) . . .
204(8) . . .
189(7) . . .
193(7) . . .
208(8) . . .
184(7) . . .
212(8) . . .
189(7) . . .
195(7) . . .
197(8) . . .
195(8) . . .
184(7) . . .
199(7) . . .
176(7) . . .
172(7) . . .
220(8) . . .
197(7) . . .
222(8) . . .
174(7) . . .
179(7) . . .
193(8) . . .
190(7) . . .
185(7) . . .
187(7) . . .
193(7) . . .
212(8) . . .
193(7) . . .
195(7) . . .
192(7) . . .
182(7) . . .
201(8) . . .
200(8) . . .
193(7) . . .
202(7) . . .
198(7) . . .
194(8) . . .
198(7) . . .
199(7) . . .
202(7) . . .
201(8) . . .
179(7) . . .
199(8) . . .
200(7) . . .
187(7) . . .
200(8) . . .
187(7) . . .
195(8) . . .
205(7) . . .
212(8) . . .
195(8) . . .
179(7) . . .
198(7) . . .
217(8) . . .
180(7) . . .
204(8) . . .
183(7) . . .
174(7) . . .
193(7) . . .
188(7) . . .
186(7) . . .
207(8) . . .
181(7) . . .
197(7) . . .
189(7) . . .
197(8) . . .
208(8) . . .
191(7) . . .
187(7) . . .
179(7) . . .
177(7) . . .
209(8) . . .
172(7) . . .
193(7) . . .
210(8) . . .
186(8) . . .
194(7) . . .
178(7) . . .
191(7) . . .
190(7) . . .
201(8) . . .
194(7) . . .
205(8) . . .
178(7) . . .
199(8) . . .
182(8) . . .
204(8) . . .
193(7) . . .
198(7) . . .
182(7) . . .
177(7) . . .
178(7) . . .
205(7) . . .
196(7) . . .
201(8) . . .
208(8) . . .
195(7) . . .
207(7) . . .
190(7) . . .
184(7) . . .
203(8) . . .
184(7) . . .
198(7) . . .
199(7) . . .
196(8) . . .
185(7) . . .
199(7) . . .
196(7) . . .
221(8) . . .
192(7) . . .
196(8) . . .
190(7) . . .
190(7) . . .
193(8) . . .
218(8) . . .
203(8) . . .
204(7) . . .
222(8) . . .
186(7) . . .
174(7) . . .
194(8) . . .
209(8) . . .
212(8) . . .
196(8) . . .
207(8) . . .
197(8) . . .
199(7) . . .
186(7) . . .
208(8) . . .
188(8) . . .
191(8) . . .
192(7) . . .
204(7) . . .
217(8) . . .
188(8) . . .
200(8) . . .
201(7) . . .
198(7) . . .
187(7) . . .
180(7) . . .
191(7) . . .
203(7) . . .
205(7) . . .
207(8) . . .
211(8) . . .
221(8) . . .
198(7) . . .
200(8) . . .
184(7) . . .
187(8) . . .
196(7) . . .
195(7) . . .
202(7) . . .
219(8) . . .
180(7) . . .
191(7) . . .
195(7) . . .
185(7) . . .
191(7) . . .
178(7) . . .
197(8) . . .
190(7) . . .
196(7) . . .
198(8) . . .
199(8) . . .
179(7) . . .
185(7) . . .
194(8) . . .
179(7) . . .
218(8) . . .
188(7) . . .
205(7) . . .
186(7) . . .
189(7) . . .
210(8) . . .
207(8) . . .
208(7) . . .
192(7) . . .
211(8) . . .
202(8) . . .
203(7) . . .
187(7) . . .
189(7) . . .
209(8) . . .
204(8) . . .
192(7) . . .
214(8) . . .
188(7) . . .
192(8) . . .
203(8) . . .
169(7) . . .
185(7) . . .
203(8) . . .
197(8) . . .
203(8) . . .
180(7) . . .
203(8) . . .
177(7) . . .
180(7) . . .
195(8) . . .
185(7) . . .
202(8) . . .
182(7) . . .
218(8) . . .
190(7) . . .
195(7) . . .
196(7) . . .
207(8) . . .
197(8) . . .
199(8) . . .
199(7) . . .
200(8) . . .
190(7) . . .
209(8) . . .
201(7) . . .
188(7) . . .
174(7) . . .
196(8) . . .
183(7) . . .
193(7) . . .
200(7) . . .
190(8) . . .
193(8) . . .
190(7) . . .
189(7) . . .
178(7) . . .
204(8) . . .
202(8) . . .
199(8) . . .
175(7) . . .
196(7) . . .
177(7) . . .
211(8) . . .
197(7) . . .
217(8) . . .
193(7) . . .
193(7) . . .
195(8) . . .
192(7) . . .
180(7) . . .
198(7) . . .
193(7) . . .
196(8) . . .
204(8) . . .
187(7) . . .
213(8) . . .
187(7) . . .
189(8) . . .
202(8) . . .
201(7) . . .
203(7) . . .
197(8) . . .
173(7) . . .
197(8) . . .
197(7) . . .
202(8) . . .
199(8) . . .
225(8) . . .
194(7) . . .
206(7) . . .
178(7) . . .
208(8) . . .
179(7) . . .
210(8) . . .
182(7) . . .
190(7) . . .
198(8) . . .
210(8) . . .
200(7) . . .
212(8) . . .
186(7) . . .
195(8) . . .
216(8) . . .
205(7) . . .
213(8) . . .
198(8) . . .
183(7) . . .
192(8) . . .
191(7) . . .
216(8) . . .
200(8) . . .
218(8) . . .
215(8) . . .
175(7) . . .
184(7) . . .
195(7) . . .
196(8) . . .
200(8) . . .
206(7) . . .
208(8) . . .
200(8) . . .
193(8) . . .
185(7) . . .
177(7) . . .
188(7) . . .
185(7) . . .
189(8) . . .
207(8) . . .
204(7) . . .
187(7) . . .
186(7) . . .
189(7) . . .
204(8) . . .
204(7) . . .
204(7) . . .
179(7) . . .
189(7) . . .
193(7) . . .
194(7) . . .
210(8) . . .
189(7) . . .
184(7) . . .
171(7) . . .
192(7) . . .
187(7) . . .
201(8) . . .
197(8) . . .
194(7) . . .
209(7) . . .
186(7) . . .
200(8) . . .
183(7) . . .
182(7) . . .
177(7) . . .
196(8) . . .
184(7) . . .
204(7) . . .
195(7) . . .
199(7) . . .
183(7) . . .
199(8) . . .
202(7) . . .
199(7) . . .
190(7) . . .
182(7) . . .
186(8) . . .
205(8) . . .
183(7) . . .
196(7) . . .
195(7) . . .
198(8) . . .
207(8) . . .
202(7) . . .
196(7) . . .
189(7) . . .
197(8) . . .
198(7) . . .
199(7) . . .
200(7) . . .
188(7) . . .
187(7) . . .
183(7) . . .
179(7) . . .
188(7) . . .
174(7) . . .
200(8) . . .
201(8) . . .
190(7) . . .
192(7) . . .
195(8) . . .
185(7) . . .
187(7) . . .
195(7) . . .
177(7) . . .
174(7) . . .
195(8) . . .
178(7) . . .
191(7) . . .
181(7) . . .
206(8) . . .
194(7) . . .
173(7) . . .
201(7) . . .
199(8) . . .
188(8) . . .
194(8) . . .
211(8) . . .
177(7) . . .
214(8) . . .
195(8) . . .
178(7) . . .
181(7) . . .
202(7) . . .
183(7) . . .
186(8) . . .
178(7) . . .
219(8) . . .
202(7) . . .
178(7) . . .
192(8) . . .
209(8) . . .
202(7) . . .
177(7) . . .
198(8) . . .
199(8) . . .
185(7) . . .
219(8) . . .
203(8) . . .
188(7) . . .
189(7) . . .
193(7) . . .
201(7) . . .
170(7) . . .
170(7) . . .
201(8) . . .
208(8) . . .
190(7) . . .
209(8) . . .
212(8) . . .
225(8) . . .
191(7) . . .
187(7) . . .
194(8) . . .
188(7) . . .
180(7) . . .
170(7) . . .
195(7) . . .
212(8) . . .
188(8) . . .
201(8) . . .
188(7) . . .
165(7) . . .
191(7) . . .
188(8) . . .
203(8) . . .
192(7) . . .
190(7) . . .
201(8) . . .
203(8) . . .
191(7) . . .
186(7) . . .
209(8) . . .
191(7) . . .
195(8) . . .
204(8) . . .
193(7) . . .
177(7) . . .
165(7) . . .
184(8) . . .
195(8) . . .
189(7) . . .
192(7) . . .
201(8) . . .
188(8) . . .
183(7) . . .
197(7) . . .
185(7) . . .
203(8) . . .
205(8) . . .
198(8) . . .
199(7) . . .
193(7) . . .
196(7) . . .
198(8) . . .
208(8) . . .
209(7) . . .
204(8) . . .
186(7) . . .
200(8) . . .
199(8) . . .
215(8) . . .
193(7) . . .
203(8) . . .
205(8) . . .
206(8) . . .
213(8) . . .
184(7) . . .
197(8) . . .
195(8) . . .
206(8) . . .
213(8) . . .
195(8) . . .
186(7) . . .
199(7) . . .
182(7) . . .
188(7) . . .
217(8) . . .
234(8) . . .
202(7) . . .
193(7) . . .
201(7) . . .
192(8) . . .
212(8) . . .
199(7) . . .
197(7) . . .
201(7) . . .
191(7) . . .
199(8) . . .
202(8) . . .
196(7) . . .
215(8) . . .
202(8) . . .
205(8) . . .
201(8) . . .
216(8) . . .
217(8) . . .
196(7) . . .
202(8) . . .
194(8) . . .
201(7) . . .
207(8) . . .
197(8) . . .
214(8) . . .
190(7) . . .
204(7) . . .
198(7) . . .
210(8) . . .
214(8) . . .
212(8) . . .
200(7) . . .
204(8) . . .
191(7) . . .
204(8) . . .
207(8) . . .
188(7) . . .
182(7) . . .
211(8) . . .
191(7) . . .
187(7) . . .
194(7) . . .
210(8) . . .
194(7) . . .
200(8) . . .
195(7) . . .
186(7) . . .
176(7) . . .
208(8) . . .
198(7) . . .
206(8) . . .
214(8) . . .
214(8) . . .
202(8) . . .
193(7) . . .
198(7) . . .
194(7) . . .
198(7) . . .
187(8) . . .
187(7) . . .
188(7) . . .
203(8) . . .
202(8) . . .
187(8) . . .
168(7) . . .
189(7) . . .
201(8) . . .
176(7) . . .
181(7) . . .
202(8) . . .
187(7) . . .
199(7) . . .
184(7) . . .
160(7) . . .
189(7) . . .
197(7) . . .
195(7) . . .
167(7) . . .
183(7) . . .
195(8) . . .
182(7) . . .
183(7) . . .
176(7) . . .
188(7) . . .
178(7) . . .
184(7) . . .
205(8) . . .
197(8) . . .
187(7) . . .
190(7) . . .
194(7) . . .
188(7) . . .
197(8) . . .
195(8) . . .
178(7) . . .
179(7) . . .
202(8) . . .
199(8) . . .
191(8) . . .
202(7) . . .
206(7) . . .
193(7) . . .
203(8) . . .
196(7) . . .
202(8) . . .
175(7) . . .
190(7) . . .
197(8) . . .
182(7) . . .
189(7) . . .
203(7) . . .
178(7) . . .
182(8) . . .
204(8) . . .
186(7) . . .
180(7) . . .
183(7) . . .
187(7) . . .
187(7) . . .
200(7) . . .
209(8) . . .
196(7) . . .
176(7) . . .
200(8) . . .
200(7) . . .
184(7) . . .
169(7) . . .
203(8) . . .
201(8) . . .
186(7) . . .
184(7) . . .
188(7) . . .
190(7) . . .
175(7) . . .
192(7) . . .
199(7) . . .
183(7) . . .
188(8) . . .
166(7) . . .
187(7) . . .
206(8) . . .
193(8) . . .
173(7) . . .
172(7) . . .
185(7) . . .
191(8) . . .
176(7) . . .
191(7) . . .
192(7) . . .
196(7) . . .
186(8) . . .
186(8) . . .
178(7) . . .
177(7) . . .
179(7) . . .
175(7) . . .
184(7) . . .
196(8) . . .
190(7) . . .
193(7) . . .
190(8) . . .
169(7) . . .
173(7) . . .
200(7) . . .
180(7) . . .
192(7) . . .
170(7) . . .
195(7) . . .
194(7) . . .
187(7) . . .
203(8) . . .
213(8) . . .
189(7) . . .
185(7) . . .
191(7) . . .
188(8) . . .
180(7) . . .
203(8) . . .
181(7) . . .
208(8) . . .
193(8) . . .
178(7) . . .
178(7) . . .
193(7) . . .
196(7) . . .
197(8) . . .
189(7) . . .
191(7) . . .
189(7) . . .
176(7) . . .
201(8) . . .
182(7) . . .
187(7) . . .
207(8) . . .
209(8) . . .
195(8) . . .
195(8) . . .
173(7) . . .
168(7) . . .
174(7) . . .
196(8) . . .
192(7) . . .
175(7) . . .
169(7) . . .
193(8) . . .
204(8) . . .
183(7) . . .
177(7) . . .
182(7) . . .
196(8) . . .
186(8) . . .
204(8) . . .
189(7) . . .
201(7) . . .
187(7) . . .
194(8) . . .
185(7) . . .
188(7) . . .
186(7) . . .
175(7) . . .
177(7) . . .
185(7) . . .
209(7) . . .
196(8) . . .
165(7) . . .
192(8) . . .
186(7) . . .
176(7) . . .
190(7) . . .
181(7) . . .
176(7) . . .
183(7) . . .
186(7) . . .
190(8) . . .
186(7) . . .
211(8) . . .
189(7) . . .
184(7) . . .
196(8) . . .
184(7) . . .
180(7) . . .
181(7) . . .
184(7) . . .
191(7) . . .
206(8) . . .
186(7) . . .
193(7) . . .
180(7) . . .
199(8) . . .
190(8) . . .
188(7) . . .
179(7) . . .
180(7) . . .
192(7) . . .
186(8) . . .
196(7) . . .
182(7) . . .
199(7) . . .
212(8) . . .
180(7) . . .
177(7) . . .
188(7) . . .
180(7) . . .
194(8) . . .
188(8) . . .
188(7) . . .
191(7) . . .
170(7) . . .
190(8) . . .
177(7) . . .
185(7) . . .
174(7) . . .
189(7) . . .
200(8) . . .
185(8) . . .
166(7) . . .
192(7) . . .
178(7) . . .
190(8) . . .
180(7) . . .
179(7) . . .
182(7) . . .
172(7) . . .
178(7) . . .
198(8) . . .
193(7) . . .
193(7) . . .
189(7) . . .
171(7) . . .
198(8) . . .
188(7) . . .
195(7) . . .
192(7) . . .
168(7) . . .
185(7) . . .
202(7) . . .
178(7) . . .
195(7) . . .
198(8) . . .
192(8) . . .
203(7) . . .
188(7) . . .
187(7) . . .
201(8) . . .
194(8) . . .
194(7) . . .
197(7) . . .
175(7) . . .
198(8) . . .
217(8) . . .
208(7) . . .
201(7) . . .
201(8) . . .
188(8) . . .
216(8) . . .
191(7) . . .
188(7) . . .
205(8) . . .
177(7) . . .
188(7) . . .
190(7) . . .
174(7) . . .
188(7) . . .
186(8) . . .
178(7) . . .
177(7) . . .
184(7) . . .
177(7) . . .
193(8) . . .
182(7) . . .
179(7) . . .
191(7) . . .
201(8) . . .
168(7) . . .
187(7) . . .
178(7) . . .
210(8) . . .
186(7) . . .
194(7) . . .
204(7) . . .
195(7) . . .
177(7) . . .
171(7) . . .
188(7) . . .
176(7) . . .
195(7) . . .
177(7) . . .
185(8) . . .
164(7) . . .
174(7) . . .
199(7) . . .
190(7) . . .
181(7) . . .
168(7) . . .
184(7) . . .
189(7) . . .
197(7) . . .
199(8) . . .
189(7) . . .
182(7) . . .
164(7) . . .
189(7) . . .
188(8) . . .
189(7) . . .
198(7) . . .
184(7) . . .
187(7) . . .
193(8) . . .
179(7) . . .
187(7) . . .
189(7) . . .
192(8) . . .
182(7) . . .
196(8) . . .
187(7) . . .
193(7) . . .
194(7) . . .
188(7) . . .
173(7) . . .
177(7) . . .
164(7) . . .
194(8) . . .
181(7) . . .
183(7) . . .
185(7) . . .
187(7) . . .
177(7) . . .
200(8) . . .
203(8) . . .
187(7) . . .
181(7) . . .
193(8) . . .
186(7) . . .
179(7) . . .
179(7) . . .
173(7) . . .
183(7) . . .
183(7) . . .
179(7) . . .
211(8) . . .
190(7) . . .
176(7) . . .
196(8) . . .
193(7) . . .
195(7) . . .
190(7) . . .
200(8) . . .
202(8) . . .
202(7) . . .
194(7) . . .
192(7) . . .
187(7) . . .
207(8) . . .
210(8) . . .
192(7) . . .
211(8) . . .
196(8) . . .
188(7) . . .
186(7) . . .
176(7) . . .
174(7) . . .
177(7) . . .
185(7) . . .
207(7) . . .
182(7) . . .
193(8) . . .
177(7) . . .
197(8) . . .
177(7) . . .
179(7) . . .
188(7) . . .
197(8) . . .
196(7) . . .
187(7) . . .
201(7) . . .
207(8) . . .
200(7) . . .
181(7) . . .
196(7) . . .
195(7) . . .
194(8) . . .
194(8) . . .
172(7) . . .
194(7) . . .
182(7) . . .
189(7) . . .
183(7) . . .
193(7) . . .
189(7) . . .
201(8) . . .
192(8) . . .
185(7) . . .
169(7) . . .
187(7) . . .
204(8) . . .
193(8) . . .
198(8) . . .
200(7) . . .
180(7) . . .
170(7) . . .
198(8) . . .
189(7) . . .
193(7) . . .
202(7) . . .
187(7) . . .
199(8) . . .
205(8) . . .
189(7) . . .
190(7) . . .
181(7) . . .
189(8) . . .
190(7) . . .
205(8) . . .
187(7) . . .
221(8) . . .
198(8) . . .
193(8) . . .
194(7) . . .
197(7) . . .
206(8) . . .
201(8) . . .
183(7) . . .
199(7) . . .
199(8) . . .
180(7) . . .
177(7) . . .
208(8) . . .
196(7) . . .
187(7) . . .
217(8) . . .
170(7) . . .
177(7) . . .
188(7) . . .
201(8) . . .
184(7) . . .
198(8) . . .
178(7) . . .
190(7) . . .
194(7) . . .
187(8) . . .
195(8) . . .
188(7) . . .
177(7) . . .
175(7) . . .
178(7) . . .
174(7) . . .
188(7) . . .
195(7) . . .
204(8) . . .
202(8) . . .
188(7) . . .
185(7) . . .
216(8) . . .
203(8) . . .
177(8) . . .
168(7) . . .
163(7) . . .
156(6) . . .
186(7) . . .
172(7) . . .
169(7) . . .
187(7) . . .
187(7) . . .
174(7) . . .
183(7) . . .
197(8) . . .
186(7) . . .
191(7) . . .
174(7) . . .
188(7) . . .
208(8) . . .
182(7) . . .
204(8) . . .
199(8) . . .
172(7) . . .
198(8) . . .
204(7) . . .
199(8) . . .
192(8) . . .
177(7) . . .
190(7) . . .
198(7) . . .
169(7) . . .
180(7) . . .
195(8) . . .
207(7) . . .
200(7) . . .
197(7) . . .
198(8) . . .
191(7) . . .
206(7) . . .
197(7) . . .
183(7) . . .
166(7) . . .
166(7) . . .
202(8) . . .
184(7) . . .
195(7) . . .
227(9) . . .
181(7) . . .
187(7) . . .
191(7) . . .
197(8) . . .
180(7) . . .
186(7) . . .
180(7) . . .
170(7) . . .
197(8) . . .
173(7) . . .
192(8) . . .
188(7) . . .
188(7) . . .
190(7) . . .
194(8) . . .
173(7) . . .
180(7) . . .
179(7) . . .
190(7) . . .
197(8) . . .
206(8) . . .
171(7) . . .
204(8) . . .
189(7) . . .
198(8) . . .
195(7) . . .
180(7) . . .
182(7) . . .
202(8) . . .
182(7) . . .
193(7) . . .
176(7) . . .
174(7) . . .
174(7) . . .
185(7) . . .
188(7) . . .
181(7) . . .
177(7) . . .
188(8) . . .
192(7) . . .
186(7) . . .
178(7) . . .
189(7) . . .
175(7) . . .
178(7) . . .
191(7) . . .
182(7) . . .
214(8) . . .
171(7) . . .
190(8) . . .
183(7) . . .
201(7) . . .
188(7) . . .
176(7) . . .
196(7) . . .
191(7) . . .
183(7) . . .
193(7) . . .
188(8) . . .
188(7) . . .
196(7) . . .
189(7) . . .
185(7) . . .
178(7) . . .
185(7) . . .
186(7) . . .
172(7) . . .
173(7) . . .
175(7) . . .
202(8) . . .
202(7) . . .
211(8) . . .
193(7) . . .
205(8) . . .
209(8) . . .
201(7) . . .
189(7) . . .
185(7) . . .
196(8) . . .
187(7) . . .
188(7) . . .
172(7) . . .
176(7) . . .
178(7) . . .
185(7) . . .
176(7) . . .
174(7) . . .
188(8) . . .
192(8) . . .
176(7) . . .
187(7) . . .
181(7) . . .
203(8) . . .
180(7) . . .
185(7) . . .
192(7) . . .
193(7) . . .
197(8) . . .
186(7) . . .
176(7) . . .
189(7) . . .
172(7) . . .
186(8) . . .
171(7) . . .
174(7) . . .
170(7) . . .
188(7) . . .
169(7) . . .
184(7) . . .
174(7) . . .
174(7) . . .
162(7) . . .
184(7) . . .
184(7) . . .
185(7) . . .
201(7) . . .
195(8) . . .
174(7) . . .
191(7) . . .
199(7) . . .
183(7) . . .
169(7) . . .
176(7) . . .
193(8) . . .
173(7) . . .
187(7) . . .
190(7) . . .
182(7) . . .
194(7) . . .
182(7) . . .
182(7) . . .
181(7) . . .
174(7) . . .
176(7) . . .
166(7) . . .
203(8) . . .
163(7) . . .
179(7) . . .
170(7) . . .
195(7) . . .
192(7) . . .
177(7) . . .
189(7) . . .
161(7) . . .
178(7) . . .
178(7) . . .
173(7) . . .
198(8) . . .
183(7) . . .
189(7) . . .
195(7) . . .
191(8) . . .
177(7) . . .
182(7) . . .
180(7) . . .
166(7) . . .
201(8) . . .
199(8) . . .
178(7) . . .
182(7) . . .
192(7) . . .
209(8) . . .
185(7) . . .
186(7) . . .
189(7) . . .
169(7) . . .
193(8) . . .
183(7) . . .
191(7) . . .
196(7) . . .
180(7) . . .
200(8) . . .
191(8) . . .
183(7) . . .
175(7) . . .
167(7) . . .
183(7) . . .
168(7) . . .
164(7) . . .
162(7) . . .
177(7) . . .
185(7) . . .
185(7) . . .
195(7) . . .
184(7) . . .
190(8) . . .
189(7) . . .
168(7) . . .
195(7) . . .
179(7) . . .
187(8) . . .
165(7) . . .
190(7) . . .
177(7) . . .
197(8) . . .
193(8) . . .
187(7) . . .
190(7) . . .
185(7) . . .
184(7) . . .
173(7) . . .
172(7) . . .
174(7) . . .
181(7) . . .
179(7) . . .
199(8) . . .
188(7) . . .
178(7) . . .
180(7) . . .
179(7) . . .
182(8) . . .
182(7) . . .
174(7) . . .
168(7) . . .
187(8) . . .
178(7) . . .
184(7) . . .
203(7) . . .
184(7) . . .
180(7) . . .
194(8) . . .
187(7) . . .
183(7) . . .
178(7) . . .
175(7) . . .
166(7) . . .
179(7) . . .
179(7) . . .
175(7) . . .
180(7) . . .
186(7) . . .
174(7) . . .
175(7) . . .
192(7) . . .
184(7) . . .
191(8) . . .
176(7) . . .
184(7) . . .
177(7) . . .
172(7) . . .
184(7) . . .
178(7) . . .
176(7) . . .
175(7) . . .
169(7) . . .
163(7) . . .
178(7) . . .
178(7) . . .
175(7) . . .
172(7) . . .
176(7) . . .
181(7) . . .
176(7) . . .
183(7) . . .
182(7) . . .
164(7) . . .
182(7) . . .
173(7) . . .
177(7) . . .
183(7) . . .
192(8) . . .
158(7) . . .
187(7) . . .
189(7) . . .
159(7) . . .
177(7) . . .
171(7) . . .
182(7) . . .
183(7) . . .
184(7) . . .
184(7) . . .
159(7) . . .
162(7) . . .
189(7) . . .
182(7) . . .
183(7) . . .
179(7) . . .
181(7) . . .
194(8) . . .
179(7) . . .
165(7) . . .
171(7) . . .
206(8) . . .
177(7) . . .
175(7) . . .
179(7) . . .
169(7) . . .
187(7) . . .
190(8) . . .
184(7) . . .
183(7) . . .
196(7) . . .
168(7) . . .
174(7) . . .
170(7) . . .
186(7) . . .
180(7) . . .
173(7) . . .
165(7) . . .
180(7) . . .
170(7) . . .
178(7) . . .
179(7) . . .
188(8) . . .
202(8) . . .
194(7) . . .
190(7) . . .
181(7) . . .
180(7) . . .
183(7) . . .
191(7) . . .
164(7) . . .
175(7) . . .
159(7) . . .
162(7) . . .
192(7) . . .
163(7) . . .
178(7) . . .
162(7) . . .
163(7) . . .
164(7) . . .
160(7) . . .
197(8) . . .
175(7) . . .
172(7) . . .
157(7) . . .
170(7) . . .
159(7) . . .
164(7) . . .
176(7) . . .
176(7) . . .
161(7) . . .
169(7) . . .
171(7) . . .
171(7) . . .
166(7) . . .
186(7) . . .
190(7) . . .
187(7) . . .
176(7) . . .
183(7) . . .
175(7) . . .
154(7) . . .
186(7) . . .
181(7) . . .
163(7) . . .
169(7) . . .
179(7) . . .
181(7) . . .
173(7) . . .
156(6) . . .
153(7) . . .
150(7) . . .
173(7) . . .
164(7) . . .
154(6) . . .
167(7) . . .
175(7) . . .
172(7) . . .
180(7) . . .
160(7) . . .
170(7) . . .
185(8) . . .
169(7) . . .
156(6) . . .
156(7) . . .
171(7) . . .
161(7) . . .
160(7) . . .
163(7) . . .
175(7) . . .
162(7) . . .
176(7) . . .
173(7) . . .
170(7) . . .
156(7) . . .
168(7) . . .
180(7) . . .
187(7) . . .
161(7) . . .
156(7) . . .
156(7) . . .
170(7) . . .
161(7) . . .
172(7) . . .
177(7) . . .
174(7) . . .
176(7) . . .
150(6) . . .
173(7) . . .
187(7) . . .
179(7) . . .
159(7) . . .
156(7) . . .
170(7) . . .
151(7) . . .
161(7) . . .
167(7) . . .
173(7) . . .
172(7) . . .
166(7) . . .
154(7) . . .
170(7) . . .
168(7) . . .
173(7) . . .
187(7) . . .
179(7) . . .
169(7) . . .
175(7) . . .
172(7) . . .
167(7) . . .
168(7) . . .
170(7) . . .
184(7) . . .
180(7) . . .
166(7) . . .
170(7) . . .
180(7) . . .
176(7) . . .
165(7) . . .
162(7) . . .
153(7) . . .
177(7) . . .
159(7) . . .
171(7) . . .
167(7) . . .
170(7) . . .
171(7) . . .
190(7) . . .
170(7) . . .
171(7) . . .
173(7) . . .
163(7) . . .
150(6) . . .
187(7) . . .
161(7) . . .
157(7) . . .
170(7) . . .
181(7) . . .
165(7) . . .
146(7) . . .
149(7) . . .
169(7) . . .
177(7) . . .
161(7) . . .
180(7) . . .
173(7) . . .
177(7) . . .
180(7) . . .
190(7) . . .
175(7) . . .
182(7) . . .
166(7) . . .
175(7) . . .
185(7) . . .
171(7) . . .
183(7) . . .
166(7) . . .
186(7) . . .
168(7) . . .
195(8) . . .
177(7) . . .
177(7) . . .
157(6) . . .
167(7) . . .
183(8) . . .
172(7) . . .
166(7) . . .
160(7) . . .
167(7) . . .
170(7) . . .
192(7) . . .
167(7) . . .
193(8) . . .
168(7) . . .
164(7) . . .
176(7) . . .
164(7) . . .
172(7) . . .
179(7) . . .
168(7) . . .
174(7) . . .
166(7) . . .
196(8) . . .
189(7) . . .
181(7) . . .
163(7) . . .
156(6) . . .
165(7) . . .
168(7) . . .
155(7) . . .
156(7) . . .
158(7) . . .
177(7) . . .
164(7) . . .
171(7) . . .
180(7) . . .
181(7) . . .
161(7) . . .
164(7) . . .
155(7) . . .
180(7) . . .
170(7) . . .
164(7) . . .
176(8) . . .
144(6) . . .
166(7) . . .
203(7) . . .
177(7) . . .
162(7) . . .
180(7) . . .
162(7) . . .
170(7) . . .
175(7) . . .
177(7) . . .
161(7) . . .
162(7) . . .
158(7) . . .
185(8) . . .
164(7) . . .
174(7) . . .
161(7) . . .
159(7) . . .
164(7) . . .
172(7) . . .
171(7) . . .
167(7) . . .
169(7) . . .
173(7) . . .
160(7) . . .
175(7) . . .
173(7) . . .
144(6) . . .
177(7) . . .
172(7) . . .
183(7) . . .
169(7) . . .
172(7) . . .
166(7) . . .
181(7) . . .
175(7) . . .
176(7) . . .
180(7) . . .
174(7) . . .
164(7) . . .
175(7) . . .
143(6) . . .
145(7) . . .
166(7) . . .
180(7) . . .
202(7) . . .
174(7) . . .
179(7) . . .
182(7) . . .
163(7) . . .
178(7) . . .
182(7) . . .
169(7) . . .
180(8) . . .
172(7) . . .
194(7) . . .
175(7) . . .
172(7) . . .
177(7) . . .
186(7) . . .
184(7) . . .
178(7) . . .
172(7) . . .
171(7) . . .
184(7) . . .
150(6) . . .
154(7) . . .
155(7) . . .
181(7) . . .
167(7) . . .
159(7) . . .
177(7) . . .
169(7) . . .
170(7) . . .
175(7) . . .
154(6) . . .
163(7) . . .
168(7) . . .
163(7) . . .
177(7) . . .
165(7) . . .
173(7) . . .
175(7) . . .
164(7) . . .
177(7) . . .
160(7) . . .
163(7) . . .
163(7) . . .
165(7) . . .
177(7) . . .
209(8) . . .
189(8) . . .
178(7) . . .
172(7) . . .
171(7) . . .
162(7) . . .
179(7) . . .
177(7) . . .
187(7) . . .
193(7) . . .
176(7) . . .
169(7) . . .
179(8) . . .
176(7) . . .
167(7) . . .
170(7) . . .
172(7) . . .
169(7) . . .
172(7) . . .
168(7) . . .
171(7) . . .
164(7) . . .
168(7) . . .
189(7) . . .
194(7) . . .
190(7) . . .
178(7) . . .
162(7) . . .
175(7) . . .
166(7) . . .
169(7) . . .
160(7) . . .
177(7) . . .
169(7) . . .
195(7) . . .
172(7) . . .
199(8) . . .
189(7) . . .
173(7) . . .
173(7) . . .
180(7) . . .
177(7) . . .
168(7) . . .
173(7) . . .
171(7) . . .
175(7) . . .
161(7) . . .
174(7) . . .
181(7) . . .
174(7) . . .
171(7) . . .
184(8) . . .
167(7) . . .
166(7) . . .
185(7) . . .
178(7) . . .
173(7) . . .
188(7) . . .
169(7) . . .
178(7) . . .
159(7) . . .
149(7) . . .
164(7) . . .
187(7) . . .
180(7) . . .
183(7) . . .
190(8) . . .
184(7) . . .
162(7) . . .
153(6) . . .
176(7) . . .
184(7) . . .
179(7) . . .
173(7) . . .
178(7) . . .
184(7) . . .
179(7) . . .
181(7) . . .
162(7) . . .
194(7) . . .
187(7) . . .
172(7) . . .
170(7) . . .
175(7) . . .
164(7) . . .
162(7) . . .
168(7) . . .
167(7) . . .
168(7) . . .
175(7) . . .
178(7) . . .
157(7) . . .
159(7) . . .
171(7) . . .
170(7) . . .
157(7) . . .
165(7) . . .
174(7) . . .
180(7) . . .
155(7) . . .
152(7) . . .
161(7) . . .
185(7) . . .
178(7) . . .
155(7) . . .
165(7) . . .
157(7) . . .
158(6) . . .
164(7) . . .
170(7) . . .
168(7) . . .
160(7) . . .
163(7) . . .
167(7) . . .
167(7) . . .
168(7) . . .
171(7) . . .
166(7) . . .
166(7) . . .
163(7) . . .
173(7) . . .
148(6) . . .
169(7) . . .
171(7) . . .
170(7) . . .
158(7) . . .
169(7) . . .
164(7) . . .
161(7) . . .
169(7) . . .
163(7) . . .
179(7) . . .
150(6) . . .
165(7) . . .
164(7) . . .
173(7) . . .
157(7) . . .
171(7) . . .
144(6) . . .
174(7) . . .
177(7) . . .
171(7) . . .
158(7) . . .
161(7) . . .
159(7) . . .
140(6) . . .
148(7) . . .
151(6) . . .
170(7) . . .
161(7) . . .
151(7) . . .
178(7) . . .
161(7) . . .
176(7) . . .
169(7) . . .
166(7) . . .
147(6) . . .
148(6) . . .
173(7) . . .
164(7) . . .
171(7) . . .
189(7) . . .
149(6) . . .
157(7) . . .
155(7) . . .
145(7) . . .
159(7) . . .
188(7) . . .
168(7) . . .
171(7) . . .
162(7) . . .
164(7) . . .
162(7) . . .
147(6) . . .
152(7) . . .
154(7) . . .
147(6) . . .
161(7) . . .
165(7) . . .
165(7) . . .
162(7) . . .
147(6) . . .
152(7) . . .
161(7) . . .
144(6) . . .
151(7) . . .
157(6) . . .
136(6) . . .
170(7) . . .
159(7) . . .
151(6) . . .
186(7) . . .
162(7) . . .
168(7) . . .
173(7) . . .
176(7) . . .
187(7) . . .
179(7) . . .
148(7) . . .
154(7) . . .
161(7) . . .
163(7) . . .
177(7) . . .
177(7) . . .
175(7) . . .
146(6) . . .
170(7) . . .
152(7) . . .
159(7) . . .
177(7) . . .
168(7) . . .
168(7) . . .
143(6) . . .
163(7) . . .
174(7) . . .
179(7) . . .
176(7) . . .
164(7) . . .
144(7) . . .
162(7) . . .
169(7) . . .
167(7) . . .
175(7) . . .
151(7) . . .
169(7) . . .
154(6) . . .
164(7) . . .
158(7) . . .
161(7) . . .
160(7) . . .
155(6) . . .
151(6) . . .
166(7) . . .
137(6) . . .
169(7) . . .
149(6) . . .
160(7) . . .
161(7) . . .
159(7) . . .
186(7) . . .
176(7) . . .
167(7) . . .
170(7) . . .
168(7) . . .
144(6) . . .
158(7) . . .
170(7) . . .
166(7) . . .
165(7) . . .
176(7) . . .
144(6) . . .
153(7) . . .
163(7) . . .
161(7) . . .
177(7) . . .
181(7) . . .
171(7) . . .
169(7) . . .
175(7) . . .
163(7) . . .
179(7) . . .
186(7) . . .
161(7) . . .
166(7) . . .
185(7) . . .
190(7) . . .
170(7) . . .
187(8) . . .
181(7) . . .
187(7) . . .
168(7) . . .
169(7) . . .
171(7) . . .
173(7) . . .
161(7) . . .
165(7) . . .
171(7) . . .
167(7) . . .
172(7) . . .
172(7) . . .
185(7) . . .
168(7) . . .
177(7) . . .
182(7) . . .
167(7) . . .
172(7) . . .
171(7) . . .
149(7) . . .
152(7) . . .
170(7) . . .
164(7) . . .
174(7) . . .
177(7) . . .
157(7) . . .
171(7) . . .
166(7) . . .
172(7) . . .
157(7) . . .
169(7) . . .
163(7) . . .
168(7) . . .
185(7) . . .
169(7) . . .
161(7) . . .
162(7) . . .
157(7) . . .
171(7) . . .
163(7) . . .
189(7) . . .
167(7) . . .
188(7) . . .
170(7) . . .
154(7) . . .
161(7) . . .
160(7) . . .
169(7) . . .
159(7) . . .
172(7) . . .
183(7) . . .
164(7) . . .
152(7) . . .
171(7) . . .
150(7) . . .
155(7) . . .
157(7) . . .
153(7) . . .
157(7) . . .
139(6) . . .
174(7) . . .
177(7) . . .
170(7) . . .
175(7) . . .
167(7) . . .
162(7) . . .
181(7) . . .
170(7) . . .
168(7) . . .
180(7) . . .
176(7) . . .
160(7) . . .
166(7) . . .
135(6) . . .
169(7) . . .
173(7) . . .
160(7) . . .
154(7) . . .
162(7) . . .
152(7) . . .
175(7) . . .
181(7) . . .
166(7) . . .
170(7) . . .
179(7) . . .
143(6) . . .
168(7) . . .
177(7) . . .
159(7) . . .
164(7) . . .
157(6) . . .
167(7) . . .
156(7) . . .
163(7) . . .
157(6) . . .
164(7) . . .
163(7) . . .
156(7) . . .
142(6) . . .
161(7) . . .
174(7) . . .
161(7) . . .
153(7) . . .
171(7) . . .
176(7) . . .
169(7) . . .
172(7) . . .
168(7) . . .
149(6) . . .
175(7) . . .
155(7) . . .
167(7) . . .
163(7) . . .
153(7) . . .
157(6) . . .
145(6) . . .
156(7) . . .
171(7) . . .
163(7) . . .
158(6) . . .
159(7) . . .
163(7) . . .
167(7) . . .
166(7) . . .
156(6) . . .
149(7) . . .
180(7) . . .
178(7) . . .
171(7) . . .
159(7) . . .
151(7) . . .
158(7) . . .
177(7) . . .
170(7) . . .
178(7) . . .
156(7) . . .
165(7) . . .
154(7) . . .
173(7) . . .
162(7) . . .
166(7) . . .
159(7) . . .
148(6) . . .
168(7) . . .
138(6) . . .
161(7) . . .
155(7) . . .
162(7) . . .
165(7) . . .
170(7) . . .
178(7) . . .
177(7) . . .
152(7) . . .
153(6) . . .
150(6) . . .
139(6) . . .
163(7) . . .
167(7) . . .
178(7) . . .
174(7) . . .
164(7) . . .
158(7) . . .
146(6) . . .
163(7) . . .
165(7) . . .
165(7) . . .
149(7) . . .
137(6) . . .
164(7) . . .
157(7) . . .
145(6) . . .
154(7) . . .
162(7) . . .
154(6) . . .
169(7) . . .
158(7) . . .
173(7) . . .
177(7) . . .
162(7) . . .
174(7) . . .
165(7) . . .
160(7) . . .
159(7) . . .
155(6) . . .
153(7) . . .
159(7) . . .
162(7) . . .
149(6) . . .
141(6) . . .
161(7) . . .
160(7) . . .
146(7) . . .
150(6) . . .
157(7) . . .
151(7) . . .
160(7) . . .
154(7) . . .
143(6) . . .
161(7) . . .
156(7) . . .
158(7) . . .
174(7) . . .
174(7) . . .
157(6) . . .
145(7) . . .
152(7) . . .
160(7) . . .
163(7) . . .
162(7) . . .
149(6) . . .
155(7) . . .
164(7) . . .
154(6) . . .
163(7) . . .
157(7) . . .
164(7) . . .
174(7) . . .
152(6) . . .
155(7) . . .
160(7) . . .
161(7) . . .
162(7) . . .
153(6) . . .
148(7) . . .
145(7) . . .
162(7) . . .
152(6) . . .
172(7) . . .
174(7) . . .
158(7) . . .
150(7) . . .
171(7) . . .
152(6) . . .
174(7) . . .
151(7) . . .
173(7) . . .
155(6) . . .
152(6) . . .
157(7) . . .
167(7) . . .
145(6) . . .
177(7) . . .
166(7) . . .
152(6) . . .
156(7) . . .
158(7) . . .
155(6) . . .
144(6) . . .
150(7) . . .
165(7) . . .
175(7) . . .
166(7) . . .
158(7) . . .
158(7) . . .
170(7) . . .
158(7) . . .
159(7) . . .
144(6) . . .
162(7) . . .
176(7) . . .
168(7) . . .
155(7) . . .
154(6) . . .
166(7) . . .
172(7) . . .
165(7) . . .
166(7) . . .
166(7) . . .
171(7) . . .
156(7) . . .
145(6) . . .
174(7) . . .
157(7) . . .
141(6) . . .
176(7) . . .
170(7) . . .
177(7) . . .
172(7) . . .
156(7) . . .
167(7) . . .
141(6) . . .
167(7) . . .
178(7) . . .
157(7) . . .
163(7) . . .
152(7) . . .
160(7) . . .
168(7) . . .
159(7) . . .
138(6) . . .
159(7) . . .
151(6) . . .
174(7) . . .
167(7) . . .
178(7) . . .
183(7) . . .
155(7) . . .
164(7) . . .
160(7) . . .
166(7) . . .
154(6) . . .
159(7) . . .
157(7) . . .
154(7) . . .
156(7) . . .
164(7) . . .
168(7) . . .
172(7) . . .
157(7) . . .
167(7) . . .
168(7) . . .
174(7) . . .
161(7) . . .
172(7) . . .
185(7) . . .
166(7) . . .
161(7) . . .
180(7) . . .
150(7) . . .
167(7) . . .
177(7) . . .
174(7) . . .
155(7) . . .
176(7) . . .
169(7) . . .
175(7) . . .
164(7) . . .
166(7) . . .
175(7) . . .
170(7) . . .
156(7) . . .
161(7) . . .
171(7) . . .
182(7) . . .
179(7) . . .
169(7) . . .
174(7) . . .
177(8) . . .
141(6) . . .
171(7) . . .
168(7) . . .
161(7) . . .
156(7) . . .
168(7) . . .
156(6) . . .
149(6) . . .
170(7) . . .
161(7) . . .
172(7) . . .
174(7) . . .
178(7) . . .
167(7) . . .
165(7) . . .
168(7) . . .
169(7) . . .
143(6) . . .
158(7) . . .
160(7) . . .
164(7) . . .
175(7) . . .
153(6) . . .
151(7) . . .
182(8) . . .
160(7) . . .
162(7) . . .
162(7) . . .
158(7) . . .
155(7) . . .
155(7) . . .
173(7) . . .
159(7) . . .
154(7) . . .
148(6) . . .
146(6) . . .
167(7) . . .
155(7) . . .
166(7) . . .
170(7) . . .
164(7) . . .
173(7) . . .
169(7) . . .
155(7) . . .
142(6) . . .
162(7) . . .
151(6) . . .
136(6) . . .
167(7) . . .
168(7) . . .
165(7) . . .
162(7) . . .
162(7) . . .
162(7) . . .
150(6) . . .
168(7) . . .
159(7) . . .
150(6) . . .
150(7) . . .
165(7) . . .
156(7) . . .
165(7) . . .
162(7) . . .
157(7) . . .
147(6) . . .
137(6) . . .
152(6) . . .
149(6) . . .
149(7) . . .
161(7) . . .
174(7) . . .
167(7) . . .
186(7) . . .
174(7) . . .
152(7) . . .
147(6) . . .
145(6) . . .
146(7) . . .
148(7) . . .
171(7) . . .
164(7) . . .
165(7) . . .
171(7) . . .
161(7) . . .
160(7) . . .
171(7) . . .
165(7) . . .
164(7) . . .
179(7) . . .
170(7) . . .
158(7) . . .
168(7) . . .
152(7) . . .
145(7) . . .
157(7) . . .
164(7) . . .
160(7) . . .
159(7) . . .
138(6) . . .
139(6) . . .
139(6) . . .
169(7) . . .
150(7) . . .
138(6) . . .
148(6) . . .
154(6) . . .
158(7) . . .
177(8) . . .
125(6) . . .
148(6) . . .
157(7) . . .
145(6) . . .
155(7) . . .
141(6) . . .
139(6) . . .
156(7) . . .
166(7) . . .
156(7) . . .
151(7) . . .
139(6) . . .
150(6) . . .
157(7) . . .
163(7) . . .
159(7) . . .
155(7) . . .
148(6) . . .
156(7) . . .
156(7) . . .
159(7) . . .
153(6) . . .
150(7) . . .
150(6) . . .
155(7) . . .
156(7) . . .
153(6) . . .
159(7) . . .
142(6) . . .
156(7) . . .
181(7) . . .
160(7) . . .
133(6) . . .
151(7) . . .
155(7) . . .
153(7) . . .
148(6) . . .
161(7) . . .
168(7) . . .
169(7) . . .
161(7) . . .
152(6) . . .
138(6) . . .
153(7) . . .
158(7) . . .
143(6) . . .
140(6) . . .
153(7) . . .
168(7) . . .
151(7) . . .
152(7) . . .
160(7) . . .
143(6) . . .
144(7) . . .
160(7) . . .
162(7) . . .
163(7) . . .
145(6) . . .
142(6) . . .
161(7) . . .
173(7) . . .
156(6) . . .
144(6) . . .
168(7) . . .
159(7) . . .
150(6) . . .
141(6) . . .
148(6) . . .
167(7) . . .
171(7) . . .
152(6) . . .
159(7) . . .
149(6) . . .
160(7) . . .
151(7) . . .
146(6) . . .
139(6) . . .
154(7) . . .
140(6) . . .
167(7) . . .
178(7) . . .
173(7) . . .
164(7) . . .
152(7) . . .
147(6) . . .
151(6) . . .
151(7) . . .
163(7) . . .
153(7) . . .
163(7) . . .
161(7) . . .
169(7) . . .
169(7) . . .
153(7) . . .
160(7) . . .
146(6) . . .
167(7) . . .
165(7) . . .
159(7) . . .
139(6) . . .
156(6) . . .
170(7) . . .
133(6) . . .
161(7) . . .
148(6) . . .
148(6) . . .
152(7) . . .
160(7) . . .
155(7) . . .
166(7) . . .
169(7) . . .
149(6) . . .
158(7) . . .
145(6) . . .
146(6) . . .
168(7) . . .
164(7) . . .
157(7) . . .
145(6) . . .
161(7) . . .
179(7) . . .
180(7) . . .
177(7) . . .
153(7) . . .
150(6) . . .
185(7) . . .
152(7) . . .
154(7) . . .
152(6) . . .
166(7) . . .
155(7) . . .
146(7) . . .
160(7) . . .
156(6) . . .
159(7) . . .
146(6) . . .
141(6) . . .
146(6) . . .
154(7) . . .
163(7) . . .
163(7) . . .
161(7) . . .
158(7) . . .
143(6) . . .
168(7) . . .
156(7) . . .
160(7) . . .
157(7) . . .
152(6) . . .
159(7) . . .
158(7) . . .
157(7) . . .
162(7) . . .
161(7) . . .
151(6) . . .
147(6) . . .
164(7) . . .
165(7) . . .
167(7) . . .
148(6) . . .
158(7) . . .
163(7) . . .
171(7) . . .
151(6) . . .
151(6) . . .
144(7) . . .
135(6) . . .
149(6) . . .
160(7) . . .
163(7) . . .
161(7) . . .
148(7) . . .
147(7) . . .
137(6) . . .
147(7) . . .
158(7) . . .
152(7) . . .
143(6) . . .
143(6) . . .
146(6) . . .
155(7) . . .
166(7) . . .
162(7) . . .
161(7) . . .
137(6) . . .
151(7) . . .
167(7) . . .
149(6) . . .
177(7) . . .
183(7) . . .
148(7) . . .
151(6) . . .
144(6) . . .
155(6) . . .
156(7) . . .
177(7) . . .
154(7) . . .
148(6) . . .
160(7) . . .
163(7) . . .
153(7) . . .
147(6) . . .
162(7) . . .
146(6) . . .
164(7) . . .
151(7) . . .
135(6) . . .
163(7) . . .
150(6) . . .
134(6) . . .
174(7) . . .
151(6) . . .
152(6) . . .
142(6) . . .
147(6) . . .
160(7) . . .
164(7) . . .
143(6) . . .
150(6) . . .
166(7) . . .
141(6) . . .
155(7) . . .
162(7) . . .
157(7) . . .
154(7) . . .
160(7) . . .
165(7) . . .
159(7) . . .
169(7) . . .
174(7) . . .
162(7) . . .
165(7) . . .
149(6) . . .
170(7) . . .
169(7) . . .
165(7) . . .
157(7) . . .
150(6) . . .
166(7) . . .
181(7) . . .
180(7) . . .
168(7) . . .
188(7) . . .
165(7) . . .
162(7) . . .
170(7) . . .
172(7) . . .
170(7) . . .
169(7) . . .
156(7) . . .
159(7) . . .
182(7) . . .
172(7) . . .
152(7) . . .
157(7) . . .
168(7) . . .
162(7) . . .
173(7) . . .
181(7) . . .
157(7) . . .
166(7) . . .
161(7) . . .
157(7) . . .
174(7) . . .
179(7) . . .
180(7) . . .
172(7) . . .
155(7) . . .
153(6) . . .
157(7) . . .
152(7) . . .
166(7) . . .
162(7) . . .
131(6) . . .
146(7) . . .
160(7) . . .
167(7) . . .
154(7) . . .
159(7) . . .
153(6) . . .
175(7) . . .
163(7) . . .
174(7) . . .
189(7) . . .
178(7) . . .
173(7) . . .
178(7) . . .
176(7) . . .
168(7) . . .
180(7) . . .
184(7) . . .
188(7) . . .
187(7) . . .
173(7) . . .
179(7) . . .
164(7) . . .
153(6) . . .
174(7) . . .
178(7) . . .
200(8) . . .
186(7) . . .
160(7) . . .
188(7) . . .
182(7) . . .
187(7) . . .
187(7) . . .
175(7) . . .
167(7) . . .
205(8) . . .
204(8) . . .
181(7) . . .
179(7) . . .
166(7) . . .
158(7) . . .
154(7) . . .
155(6) . . .
167(7) . . .
169(7) . . .
139(6) . . .
154(7) . . .
172(7) . . .
184(7) . . .
174(7) . . .
157(7) . . .
181(7) . . .
160(7) . . .
163(7) . . .
195(8) . . .
176(7) . . .
187(8) . . .
157(6) . . .
171(7) . . .
181(7) . . .
183(7) . . .
171(7) . . .
178(7) . . .
191(7) . . .
180(7) . . .
172(7) . . .
163(7) . . .
191(7) . . .
173(7) . . .
166(7) . . .
162(7) . . .
167(7) . . .
176(7) . . .
184(7) . . .
164(7) . . .
151(6) . . .
166(7) . . .
164(7) . . .
171(7) . . .
173(7) . . .
181(7) . . .
186(7) . . .
171(7) . . .
184(7) . . .
170(7) . . .
186(7) . . .
180(7) . . .
164(7) . . .
179(7) . . .
200(8) . . .
183(7) . . .
183(7) . . .
172(7) . . .
166(7) . . .
157(7) . . .
170(7) . . .
178(7) . . .
184(7) . . .
170(7) . . .
166(7) . . .
160(7) . . .
159(7) . . .
163(7) . . .
165(7) . . .
148(7) . . .
161(7) . . .
166(7) . . .
165(7) . . .
168(7) . . .
160(7) . . .
162(7) . . .
161(7) . . .
155(7) . . .
173(7) . . .
159(7) . . .
176(7) . . .
158(7) . . .
168(7) . . .
158(7) . . .
153(7) . . .
164(7) . . .
166(7) . . .
162(7) . . .
157(7) . . .
160(7) . . .
178(7) . . .
175(7) . . .
160(7) . . .
162(7) . . .
168(7) . . .
173(7) . . .
170(7) . . .
170(7) . . .
174(7) . . .
140(6) . . .
152(6) . . .
161(7) . . .
162(7) . . .
171(7) . . .
160(7) . . .
155(6) . . .
165(7) . . .
166(7) . . .
173(7) . . .
169(7) . . .
157(7) . . .
157(6) . . .
177(7) . . .
159(7) . . .
160(7) . . .
155(6) . . .
145(6) . . .
163(7) . . .
171(7) . . .
160(7) . . .
153(6) . . .
177(7) . . .
152(7) . . .
158(7) . . .
175(7) . . .
148(6) . . .
158(7) . . .
156(7) . . .
145(7) . . .
150(6) . . .
153(7) . . .
162(7) . . .
143(6) . . .
168(7) . . .
166(7) . . .
167(7) . . .
147(6) . . .
176(7) . . .
167(7) . . .
184(7) . . .
152(6) . . .
155(7) . . .
162(7) . . .
160(7) . . .
163(7) . . .
153(7) . . .
165(7) . . .
149(7) . . .
160(7) . . .
162(7) . . .
158(7) . . .
164(7) . . .
169(7) . . .
173(7) . . .
173(7) . . .
163(7) . . .
153(7) . . .
151(7) . . .
143(6) . . .
140(6) . . .
150(6) . . .
150(6) . . .
162(7) . . .
147(6) . . .
155(6) . . .
143(6) . . .
148(7) . . .
148(6) . . .
165(7) . . .
141(6) . . .
146(6) . . .
165(7) . . .
165(7) . . .
158(7) . . .
141(6) . . .
162(7) . . .
173(7) . . .
172(7) . . .
164(7) . . .
164(7) . . .
175(7) . . .
190(7) . . .
184(8) . . .
161(7) . . .
180(7) . . .
146(6) . . .
149(7) . . .
161(7) . . .
169(7) . . .
154(6) . . .
167(7) . . .
148(7) . . .
167(7) . . .
150(7) . . .
150(6) . . .
154(7) . . .
149(7) . . .
170(7) . . .
177(7) . . .
178(7) . . .
166(7) . . .
163(7) . . .
151(7) . . .
158(7) . . .
157(6) . . .
161(7) . . .
157(7) . . .
155(7) . . .
148(6) . . .
156(7) . . .
150(7) . . .
155(7) . . .
149(6) . . .
140(6) . . .
154(7) . . .
145(7) . . .
160(7) . . .
164(7) . . .
159(7) . . .
149(7) . . .
154(7) . . .
164(7) . . .
188(7) . . .
167(7) . . .
161(7) . . .
153(7) . . .
168(7) . . .
150(6) . . .
166(7) . . .
169(7) . . .
176(7) . . .
167(7) . . .
145(6) . . .
133(6) . . .
163(7) . . .
154(7) . . .
152(7) . . .
159(7) . . .
156(6) . . .
171(7) . . .
160(7) . . .
158(7) . . .
177(7) . . .
166(7) . . .
165(7) . . .
178(8) . . .
166(7) . . .
170(7) . . .
179(7) . . .
156(7) . . .
170(7) . . .
164(7) . . .
178(7) . . .
151(6) . . .
158(7) . . .
173(7) . . .
173(7) . . .
170(7) . . .
165(7) . . .
163(7) . . .
168(7) . . .
168(7) . . .
156(6) . . .
162(7) . . .
159(7) . . .
164(7) . . .
148(6) . . .
153(6) . . .
149(6) . . .
156(7) . . .
154(7) . . .
155(7) . . .
158(7) . . .
169(7) . . .
185(7) . . .
168(7) . . .
166(7) . . .
177(7) . . .
171(7) . . .
163(7) . . .
150(7) . . .
153(7) . . .
171(7) . . .
162(7) . . .
164(7) . . .
166(7) . . .
167(7) . . .
171(7) . . .
173(7) . . .
152(7) . . .
163(7) . . .
147(6) . . .
164(7) . . .
171(7) . . .
154(7) . . .
174(7) . . .
145(6) . . .
143(6) . . .
152(7) . . .
133(6) . . .
148(7) . . .
144(6) . . .
154(6) . . .
150(6) . . .
165(7) . . .
152(7) . . .
163(7) . . .
153(7) . . .
160(7) . . .
167(7) . . .
173(7) . . .
150(6) . . .
158(7) . . .
149(6) . . .
158(7) . . .
160(7) . . .
161(7) . . .
177(7) . . .
146(6) . . .
156(7) . . .
164(7) . . .
152(6) . . .
159(7) . . .
145(7) . . .
147(7) . . .
157(7) . . .
164(7) . . .
152(7) . . .
140(6) . . .
144(6) . . .
155(7) . . .
168(7) . . .
154(7) . . .
158(7) . . .
149(6) . . .
143(6) . . .
170(7) . . .
149(6) . . .
148(7) . . .
157(7) . . .
167(7) . . .
160(7) . . .
160(7) . . .
156(7) . . .
155(7) . . .
164(7) . . .
163(7) . . .
160(7) . . .
162(7) . . .
144(6) . . .
171(7) . . .
137(6) . . .
146(7) . . .
153(7) . . .
170(7) . . .
146(6) . . .
170(7) . . .
156(7) . . .
163(7) . . .
156(7) . . .
149(6) . . .
142(6) . . .
149(6) . . .
139(6) . . .
167(7) . . .
144(6) . . .
153(7) . . .
153(7) . . .
148(7) . . .
159(7) . . .
155(6) . . .
142(6) . . .
160(7) . . .
161(7) . . .
156(7) . . .
166(7) . . .
169(7) . . .
162(7) . . .
158(7) . . .
145(6) . . .
148(6) . . .
155(7) . . .
168(7) . . .
141(6) . . .
145(6) . . .
167(7) . . .
141(6) . . .
148(7) . . .
136(6) . . .
144(6) . . .
163(7) . . .
153(6) . . .
149(7) . . .
143(7) . . .
151(6) . . .
159(7) . . .
143(7) . . .
152(7) . . .
157(7) . . .
152(6) . . .
160(7) . . .
133(6) . . .
158(7) . . .
178(7) . . .
146(6) . . .
138(6) . . .
152(7) . . .
145(7) . . .
144(6) . . .
143(6) . . .
149(6) . . .
143(6) . . .
159(7) . . .
153(7) . . .
154(7) . . .
166(7) . . .
148(6) . . .
147(7) . . .
163(7) . . .
167(7) . . .
162(7) . . .
157(7) . . .
153(7) . . .
156(7) . . .
159(6) . . .
160(7) . . .
169(7) . . .
143(6) . . .
163(7) . . .
144(6) . . .
147(7) . . .
138(6) . . .
162(7) . . .
150(6) . . .
159(7) . . .
149(6) . . .
154(7) . . .
153(7) . . .
147(6) . . .
173(7) . . .
152(7) . . .
135(6) . . .
158(7) . . .
146(6) . . .
153(6) . . .
137(6) . . .
151(7) . . .
153(7) . . .
158(7) . . .
144(6) . . .
156(7) . . .
149(7) . . .
156(7) . . .
159(7) . . .
155(7) . . .
156(7) . . .
148(7) . . .
162(7) . . .
161(7) . . .
146(6) . . .
152(7) . . .
147(7) . . .
156(7) . . .
153(6) . . .
158(7) . . .
151(7) . . .
188(8) . . .
159(7) . . .
160(7) . . .
139(6) . . .
150(7) . . .
139(6) . . .
164(7) . . .
159(7) . . .
160(7) . . .
154(7) . . .
137(6) . . .
160(7) . . .
151(6) . . .
151(7) . . .
156(7) . . .
153(7) . . .
150(6) . . .
159(7) . . .
164(7) . . .
146(7) . . .
164(7) . . .
152(6) . . .
164(7) . . .
152(7) . . .
156(7) . . .
161(7) . . .
146(6) . . .
155(6) . . .
162(7) . . .
156(7) . . .
158(7) . . .
163(7) . . .
152(6) . . .
168(7) . . .
154(7) . . .
160(7) . . .
165(7) . . .
155(7) . . .
151(7) . . .
153(7) . . .
153(7) . . .
178(7) . . .
159(7) . . .
155(7) . . .
165(7) . . .
165(7) . . .
156(6) . . .
161(7) . . .
166(7) . . .
158(7) . . .
183(7) . . .
168(7) . . .
145(6) . . .
159(7) . . .
168(7) . . .
160(7) . . .
157(7) . . .
156(7) . . .
171(7) . . .
148(6) . . .
169(7) . . .
185(7) . . .
158(7) . . .
171(7) . . .
165(7) . . .
150(7) . . .
160(7) . . .
153(7) . . .
159(7) . . .
165(7) . . .
154(6) . . .
153(7) . . .
152(6) . . .
136(6) . . .
146(6) . . .
152(7) . . .
141(6) . . .
168(7) . . .
156(6) . . .
142(7) . . .
154(7) . . .
149(7) . . .
141(6) . . .
129(6) . . .
146(6) . . .
149(7) . . .
155(7) . . .
145(6) . . .
164(7) . . .
145(6) . . .
160(7) . . .
160(7) . . .
160(7) . . .
124(6) . . .
155(7) . . .
154(7) . . .
142(6) . . .
166(7) . . .
169(7) . . .
148(7) . . .
156(7) . . .
170(7) . . .
140(6) . . .
136(6) . . .
144(7) . . .
141(6) . . .
150(7) . . .
129(6) . . .
164(7) . . .
146(6) . . .
137(6) . . .
155(7) . . .
167(7) . . .
154(7) . . .
142(7) . . .
155(7) . . .
147(6) . . .
150(6) . . .
145(7) . . .
140(6) . . .
143(6) . . .
136(6) . . .
161(7) . . .
158(7) . . .
130(6) . . .
142(6) . . .
149(6) . . .
138(6) . . .
151(7) . . .
138(6) . . .
156(7) . . .
163(7) . . .
141(6) . . .
132(6) . . .
136(7) . . .
140(6) . . .
138(6) . . .
132(6) . . .
138(6) . . .
149(7) . . .
146(6) . . .
160(7) . . .
156(6) . . .
140(6) . . .
134(7) . . .
150(7) . . .
133(6) . . .
146(6) . . .
148(6) . . .
128(6) . . .
148(7) . . .
159(7) . . .
159(7) . . .
134(6) . . .
146(7) . . .
142(6) . . .
140(6) . . .
139(6) . . .
139(7) . . .
149(7) . . .
148(6) . . .
158(7) . . .
137(6) . . .
169(7) . . .
159(7) . . .
147(6) . . .
140(6) . . .
139(6) . . .
160(7) . . .
154(7) . . .
156(6) . . .
147(6) . . .
149(6) . . .
145(6) . . .
151(7) . . .
151(6) . . .
163(7) . . .
142(6) . . .
141(7) . . .
139(6) . . .
150(6) . . .
145(6) . . .
135(6) . . .
160(7) . . .
155(7) . . .
154(7) . . .
152(6) . . .
138(6) . . .
154(7) . . .
155(7) . . .
156(6) . . .
139(6) . . .
144(6) . . .
139(6) . . .
149(7) . . .
145(6) . . .
138(6) . . .
139(6) . . .
157(7) . . .
159(7) . . .
136(6) . . .
139(6) . . .
136(6) . . .
151(7) . . .
152(7) . . .
140(6) . . .
132(6) . . .
148(6) . . .
139(6) . . .
143(6) . . .
157(7) . . .
135(6) . . .
132(6) . . .
145(7) . . .
150(6) . . .
152(6) . . .
136(6) . . .
147(7) . . .
161(7) . . .
149(6) . . .
145(6) . . .
152(7) . . .
141(7) . . .
141(6) . . .
157(6) . . .
150(6) . . .
152(7) . . .
149(7) . . .
158(7) . . .
158(7) . . .
145(6) . . .
150(7) . . .
162(7) . . .
176(7) . . .
153(6) . . .
162(7) . . .
154(7) . . .
161(7) . . .
143(6) . . .
142(6) . . .
152(6) . . .
160(7) . . .
157(7) . . .
165(7) . . .
145(6) . . .
151(6) . . .
159(7) . . .
151(7) . . .
155(7) . . .
161(7) . . .
159(7) . . .
153(7) . . .
143(6) . . .
147(6) . . .
158(7) . . .
147(6) . . .
144(6) . . .
152(7) . . .
149(6) . . .
144(6) . . .
144(6) . . .
140(6) . . .
166(7) . . .
149(6) . . .
140(6) . . .
131(6) . . .
167(7) . . .
141(6) . . .
149(6) . . .
154(6) . . .
153(6) . . .
166(7) . . .
157(7) . . .
155(7) . . .
176(7) . . .
141(6) . . .
172(7) . . .
175(7) . . .
163(7) . . .
160(7) . . .
148(6) . . .
156(7) . . .
149(6) . . .
155(7) . . .
157(7) . . .
160(7) . . .
157(7) . . .
154(7) . . .
145(6) . . .
162(7) . . .
149(6) . . .
151(7) . . .
147(7) . . .
141(6) . . .
157(7) . . .
159(7) . . .
139(7) . . .
138(6) . . .
136(6) . . .
150(6) . . .
140(6) . . .
143(6) . . .
129(6) . . .
145(6) . . .
132(6) . . .
131(6) . . .
156(7) . . .
155(7) . . .
144(6) . . .
149(7) . . .
145(7) . . .
157(7) . . .
149(6) . . .
152(6) . . .
165(7) . . .
156(7) . . .
136(6) . . .
142(6) . . .
145(6) . . .
152(7) . . .
152(7) . . .
152(7) . . .
140(6) . . .
153(6) . . .
170(7) . . .
129(6) . . .
144(7) . . .
145(6) . . .
145(6) . . .
147(6) . . .
140(7) . . .
144(7) . . .
153(7) . . .
151(6) . . .
156(7) . . .
138(7) . . .
139(6) . . .
136(6) . . .
146(6) . . .
162(7) . . .
138(6) . . .
149(7) . . .
146(6) . . .
145(6) . . .
138(6) . . .
147(7) . . .
162(7) . . .
138(6) . . .
146(6) . . .
138(7) . . .
140(7) . . .
154(7) . . .
155(6) . . .
150(6) . . .
136(6) . . .
142(7) . . .
150(7) . . .
143(6) . . .
143(6) . . .
137(6) . . .
132(6) . . .
147(6) . . .
146(6) . . .
137(6) . . .
162(7) . . .
140(6) . . .
152(6) . . .
145(6) . . .
156(7) . . .
147(7) . . .
152(7) . . .
145(6) . . .
144(6) . . .
156(7) . . .
159(7) . . .
147(7) . . .
143(6) . . .
150(6) . . .
159(7) . . .
133(6) . . .
142(6) . . .
140(6) . . .
140(6) . . .
141(6) . . .
138(7) . . .
142(7) . . .
135(6) . . .
136(6) . . .
135(6) . . .
132(6) . . .
142(6) . . .
159(7) . . .
145(6) . . .
152(7) . . .
136(6) . . .
140(6) . . .
134(6) . . .
124(6) . . .
157(7) . . .
154(7) . . .
150(7) . . .
147(6) . . .
127(6) . . .
143(6) . . .
155(7) . . .
150(7) . . .
139(6) . . .
151(7) . . .
143(6) . . .
145(6) . . .
167(7) . . .
144(6) . . .
149(6) . . .
147(6) . . .
170(7) . . .
147(6) . . .
146(6) . . .
153(7) . . .
151(7) . . .
165(7) . . .
147(6) . . .
132(6) . . .
142(6) . . .
145(7) . . .
143(6) . . .
140(6) . . .
155(7) . . .
148(6) . . .
153(7) . . .
145(6) . . .
165(7) . . .
142(6) . . .
172(7) . . .
143(7) . . .
149(7) . . .
145(6) . . .
127(6) . . .
151(7) . . .
144(7) . . .
151(7) . . .
148(6) . . .
146(6) . . .
154(7) . . .
140(7) . . .
150(7) . . .
147(6) . . .
162(7) . . .
152(7) . . .
143(7) . . .
130(6) . . .
140(6) . . .
137(6) . . .
152(7) . . .
154(7) . . .
141(6) . . .
148(6) . . .
143(6) . . .
146(7) . . .
144(7) . . .
143(6) . . .
148(6) . . .
133(6) . . .
136(6) . . .
138(6) . . .
150(6) . . .
134(6) . . .
132(6) . . .
131(6) . . .
151(7) . . .
121(6) . . .
140(6) . . .
159(7) . . .
137(6) . . .
154(7) . . .
158(7) . . .
150(6) . . .
147(6) . . .
139(7) . . .
137(6) . . .
151(6) . . .
182(7) . . .
159(7) . . .
159(7) . . .
172(7) . . .
156(7) . . .
162(7) . . .
139(7) . . .
133(6) . . .
138(6) . . .
148(6) . . .
162(7) . . .
146(6) . . .
158(7) . . .
162(7) . . .
143(6) . . .
134(6) . . .
159(7) . . .
148(7) . . .
149(7) . . .
148(6) . . .
166(7) . . .
163(7) . . .
148(7) . . .
150(7) . . .
141(6) . . .
147(7) . . .
140(6) . . .
141(6) . . .
140(6) . . .
156(7) . . .
152(6) . . .
140(6) . . .
140(6) . . .
159(7) . . .
151(6) . . .
149(7) . . .
130(6) . . .
145(6) . . .
156(7) . . .
136(6) . . .
148(7) . . .
147(7) . . .
157(7) . . .
146(6) . . .
148(6) . . .
154(7) . . .
160(7) . . .
150(7) . . .
151(7) . . .
134(6) . . .
153(6) . . .
156(7) . . .
159(7) . . .
145(6) . . .
150(6) . . .
152(7) . . .
148(7) . . .
165(7) . . .
149(6) . . .
144(6) . . .
146(6) . . .
149(7) . . .
146(7) . . .
150(6) . . .
155(7) . . .
145(6) . . .
141(7) . . .
151(7) . . .
145(6) . . .
151(6) . . .
146(6) . . .
145(7) . . .
159(7) . . .
154(6) . . .
136(6) . . .
136(6) . . .
146(7) . . .
151(7) . . .
147(6) . . .
149(6) . . .
148(6) . . .
150(7) . . .
141(6) . . .
137(6) . . .
138(6) . . .
128(6) . . .
141(6) . . .
137(6) . . .
149(6) . . .
127(6) . . .
141(6) . . .
157(7) . . .
154(7) . . .
144(6) . . .
143(6) . . .
127(6) . . .
142(7) . . .
141(6) . . .
148(6) . . .
152(7) . . .
142(7) . . .
160(7) . . .
159(7) . . .
156(6) . . .
139(6) . . .
155(7) . . .
159(7) . . .
155(6) . . .
149(6) . . .
147(6) . . .
165(7) . . .
130(6) . . .
143(6) . . .
153(6) . . .
163(7) . . .
166(7) . . .
156(7) . . .
165(7) . . .
158(7) . . .
157(7) . . .
160(7) . . .
166(7) . . .
169(7) . . .
161(7) . . .
172(7) . . .
150(7) . . .
148(7) . . .
150(6) . . .
170(7) . . .
165(7) . . .
156(7) . . .
152(6) . . .
171(7) . . .
150(7) . . .
163(7) . . .
171(7) . . .
165(7) . . .
167(7) . . .
142(6) . . .
155(7) . . .
148(7) . . .
137(6) . . .
148(6) . . .
151(7) . . .
161(7) . . .
172(7) . . .
151(6) . . .
150(6) . . .
148(6) . . .
140(6) . . .
146(6) . . .
162(7) . . .
166(7) . . .
149(7) . . .
153(7) . . .
145(7) . . .
145(6) . . .
172(7) . . .
150(7) . . .
164(7) . . .
170(7) . . .
148(6) . . .
147(6) . . .
154(7) . . .
174(7) . . .
153(7) . . .
148(6) . . .
149(6) . . .
147(7) . . .
161(7) . . .
131(6) . . .
162(7) . . .
147(6) . . .
146(6) . . .
153(7) . . .
145(6) . . .
152(6) . . .
136(6) . . .
142(6) . . .
166(7) . . .
141(6) . . .
139(6) . . .
141(6) . . .
149(7) . . .
149(7) . . .
152(7) . . .
130(6) . . .
137(6) . . .
155(7) . . .
157(7) . . .
157(7) . . .
148(6) . . .
152(6) . . .
155(7) . . .
142(6) . . .
138(6) . . .
147(6) . . .
148(6) . . .
159(7) . . .
148(7) . . .
167(7) . . .
154(6) . . .
146(6) . . .
149(7) . . .
163(7) . . .
164(7) . . .
162(7) . . .
147(6) . . .
169(7) . . .
171(7) . . .
168(7) . . .
180(7) . . .
162(7) . . .
162(7) . . .
159(7) . . .
179(7) . . .
152(6) . . .
179(7) . . .
172(7) . . .
169(7) . . .
183(7) . . .
182(7) . . .
167(7) . . .
149(6) . . .
171(7) . . .
172(7) . . .
180(7) . . .
166(7) . . .
166(7) . . .
145(6) . . .
157(6) . . .
160(7) . . .
157(7) . . .
177(7) . . .
160(7) . . .
154(6) . . .
168(7) . . .
155(7) . . .
157(7) . . .
162(7) . . .
158(6) . . .
153(7) . . .
129(6) . . .
150(7) . . .
146(6) . . .
156(6) . . .
155(7) . . .
157(7) . . .
151(6) . . .
142(6) . . .
149(6) . . .
152(7) . . .
146(7) . . .
145(7) . . .
151(6) . . .
166(7) . . .
129(6) . . .
139(6) . . .
147(7) . . .
151(6) . . .
140(6) . . .
158(7) . . .
164(7) . . .
159(7) . . .
144(6) . . .
143(6) . . .
136(6) . . .
147(7) . . .
152(7) . . .
172(7) . . .
143(6) . . .
159(7) . . .
157(7) . . .
151(7) . . .
150(6) . . .
149(6) . . .
139(6) . . .
148(7) . . .
137(6) . . .
154(6) . . .
146(6) . . .
148(6) . . .
139(6) . . .
144(7) . . .
139(6) . . .
161(7) . . .
152(7) . . .
142(6) . . .
148(6) . . .
155(6) . . .
153(7) . . .
153(7) . . .
143(6) . . .
145(6) . . .
146(6) . . .
162(7) . . .
146(7) . . .
133(6) . . .
157(7) . . .
170(7) . . .
149(6) . . .
147(7) . . .
159(7) . . .
162(7) . . .
154(6) . . .
148(6) . . .
147(7) . . .
144(6) . . .
166(7) . . .
165(7) . . .
146(6) . . .
154(7) . . .
157(7) . . .
148(6) . . .
138(6) . . .
146(6) . . .
152(7) . . .
154(7) . . .
166(7) . . .
148(6) . . .
161(7) . . .
150(7) . . .
152(7) . . .
155(6) . . .
166(7) . . .
151(7) . . .
151(7) . . .
141(6) . . .
159(7) . . .
153(7) . . .
163(7) . . .
173(7) . . .
150(6) . . .
160(7) . . .
138(6) . . .
153(7) . . .
153(7) . . .
152(7) . . .
153(6) . . .
154(7) . . .
166(7) . . .
145(6) . . .
174(7) . . .
167(7) . . .
180(7) . . .
169(7) . . .
169(7) . . .
152(7) . . .
179(7) . . .
170(7) . . .
161(7) . . .
150(7) . . .
141(6) . . .
168(7) . . .
166(7) . . .
158(7) . . .
156(7) . . .
159(7) . . .
171(7) . . .
144(6) . . .
155(7) . . .
155(7) . . .
143(6) . . .
152(6) . . .
137(6) . . .
154(7) . . .
160(7) . . .
165(7) . . .
167(7) . . .
174(7) . . .
165(7) . . .
150(7) . . .
147(6) . . .
146(6) . . .
141(6) . . .
133(6) . . .
144(6) . . .
167(7) . . .
149(6) . . .
158(7) . . .
158(7) . . .
153(6) . . .
151(6) . . .
137(6) . . .
152(7) . . .
166(7) . . .
153(7) . . .
148(6) . . .
146(6) . . .
153(7) . . .
138(6) . . .
126(6) . . .
144(6) . . .
147(7) . . .
158(7) . . .
154(7) . . .
157(6) . . .
172(7) . . .
153(7) . . .
144(7) . . .
140(6) . . .
157(7) . . .
164(7) . . .
165(7) . . .
160(7) . . .
161(7) . . .
159(7) . . .
161(7) . . .
160(7) . . .
152(7) . . .
146(6) . . .
155(6) . . .
151(6) . . .
157(7) . . .
142(7) . . .
141(6) . . .
151(6) . . .
168(7) . . .
147(6) . . .
156(7) . . .
145(7) . . .
149(6) . . .
144(6) . . .
161(7) . . .
144(7) . . .
157(7) . . .
149(6) . . .
136(6) . . .
149(7) . . .
152(7) . . .
143(7) . . .
153(6) . . .
149(6) . . .
139(6) . . .
155(7) . . .
161(7) . . .
162(7) . . .
154(7) . . .
137(6) . . .
163(7) . . .
151(6) . . .
143(6) . . .
159(7) . . .
128(6) . . .
163(7) . . .
161(7) . . .
148(6) . . .
160(7) . . .
147(7) . . .
152(7) . . .
163(7) . . .
155(6) . . .
153(7) . . .
149(7) . . .
168(7) . . .
159(7) . . .
134(6) . . .
148(6) . . .
172(7) . . .
166(7) . . .
150(6) . . .
167(7) . . .
168(7) . . .
152(7) . . .
153(7) . . .
147(6) . . .
162(7) . . .
139(6) . . .
152(7) . . .
138(6) . . .
154(6) . . .
155(7) . . .
147(6) . . .
151(7) . . .
151(7) . . .
153(6) . . .
154(7) . . .
137(6) . . .
153(7) . . .
153(7) . . .
165(7) . . .
144(6) . . .
151(7) . . .
155(7) . . .
160(7) . . .
153(6) . . .
151(7) . . .
144(6) . . .
169(7) . . .
156(7) . . .
150(6) . . .
150(6) . . .
162(7) . . .
132(6) . . .
163(7) . . .
141(6) . . .
161(7) . . .
143(6) . . .
148(6) . . .
155(7) . . .
145(6) . . .
156(7) . . .
142(7) . . .
155(7) . . .
147(6) . . .
151(6) . . .
141(6) . . .
140(7) . . .
151(7) . . .
144(6) . . .
147(6) . . .
150(7) . . .
147(7) . . .
141(6) . . .
142(6) . . .
139(6) . . .
147(7) . . .
138(6) . . .
147(7) . . .
137(6) . . .
146(6) . . .
141(6) . . .
147(7) . . .
150(6) . . .
149(6) . . .
149(6) . . .
144(6) . . .
146(7) . . .
160(7) . . .
158(7) . . .
148(6) . . .
141(6) . . .
149(7) . . .
150(7) . . .
141(6) . . .
143(6) . . .
137(6) . . .
147(6) . . .
158(7) . . .
131(6) . . .
157(7) . . .
143(7) . . .
144(7) . . .
144(6) . . .
160(7) . . .
139(6) . . .
151(7) . . .
161(7) . . .
135(6) . . .
133(6) . . .
144(6) . . .
148(7) . . .
154(7) . . .
138(6) . . .
139(6) . . .
155(7) . . .
156(7) . . .
135(6) . . .
130(6) . . .
137(6) . . .
148(7) . . .
156(7) . . .
162(7) . . .
130(6) . . .
139(6) . . .
142(6) . . .
134(6) . . .
133(6) . . .
154(6) . . .
150(6) . . .
153(7) . . .
150(7) . . .
132(6) . . .
158(7) . . .
159(7) . . .
148(7) . . .
141(6) . . .
152(6) . . .
159(7) . . .
154(7) . . .
140(6) . . .
166(7) . . .
129(6) . . .
141(6) . . .
149(7) . . .
150(7) . . .
149(7) . . .
149(6) . . .
162(7) . . .
153(7) . . .
150(7) . . .
144(6) . . .
150(7) . . .
139(6) . . .
140(6) . . .
138(6) . . .
144(6) . . .
156(7) . . .
158(7) . . .
132(6) . . .
143(7) . . .
140(6) . . .
124(6) . . .
144(6) . . .
147(6) . . .
147(7) . . .
151(7) . . .
138(6) . . .
145(6) . . .
154(7) . . .
148(7) . . .
154(7) . . .
162(7) . . .
149(6) . . .
149(7) . . .
145(7) . . .
163(7) . . .
127(6) . . .
154(7) . . .
150(6) . . .
137(6) . . .
136(6) . . .
145(6) . . .
140(6) . . .
142(6) . . .
146(7) . . .
147(7) . . .
136(6) . . .
143(6) . . .
146(6) . . .
149(7) . . .
141(6) . . .
145(6) . . .
151(7) . . .
147(7) . . .
143(6) . . .
172(7) . . .
141(6) . . .
145(6) . . .
147(7) . . .
152(7) . . .
159(7) . . .
159(7) . . .
153(7) . . .
139(6) . . .
164(7) . . .
145(6) . . .
149(6) . . .
163(7) . . .
146(7) . . .
158(7) . . .
139(6) . . .
142(6) . . .
151(6) . . .
166(7) . . .
148(7) . . .
139(6) . . .
169(7) . . .
159(7) . . .
168(7) . . .
157(7) . . .
145(6) . . .
158(7) . . .
182(7) . . .
169(7) . . .
172(7) . . .
145(6) . . .
144(6) . . .
140(6) . . .
162(7) . . .
139(7) . . .
156(6) . . .
159(7) . . .
155(7) . . .
138(6) . . .
167(7) . . .
138(6) . . .
177(7) . . .
148(7) . . .
146(7) . . .
156(7) . . .
155(6) . . .
156(7) . . .
150(7) . . .
139(6) . . .
150(6) . . .
155(6) . . .
175(7) . . .
171(7) . . .
144(6) . . .
176(7) . . .
145(6) . . .
129(6) . . .
145(6) . . .
151(7) . . .
141(6) . . .
134(6) . . .
144(6) . . .
139(6) . . .
149(7) . . .
143(6) . . .
134(6) . . .
141(6) . . .
146(7) . . .
137(6) . . .
130(6) . . .
151(6) . . .
154(7) . . .
156(7) . . .
149(7) . . .
147(6) . . .
143(6) . . .
142(7) . . .
146(7) . . .
138(6) . . .
149(6) . . .
152(6) . . .
143(6) . . .
146(7) . . .
168(7) . . .
157(7) . . .
142(6) . . .
154(7) . . .
141(7) . . .
155(7) . . .
154(6) . . .
159(7) . . .
159(7) . . .
127(6) . . .
128(6) . . .
146(6) . . .
175(7) . . .
154(7) . . .
152(7) . . .
157(7) . . .
146(6) . . .
156(7) . . .
144(6) . . .
151(7) . . .
156(7) . . .
142(6) . . .
157(7) . . .
150(7) . . .
153(7) . . .
134(6) . . .
152(6) . . .
145(7) . . .
142(6) . . .
157(7) . . .
154(7) . . .
151(6) . . .
155(7) . . .
137(6) . . .
154(7) . . .
153(6) . . .
145(6) . . .
156(7) . . .
146(7) . . .
145(6) . . .
148(6) . . .
153(6) . . .
130(6) . . .
161(7) . . .
167(7) . . .
142(6) . . .
150(6) . . .
157(7) . . .
160(7) . . .
151(7) . . .
148(6) . . .
137(6) . . .
141(6) . . .
152(7) . . .
164(7) . . .
147(6) . . .
134(6) . . .
155(7) . . .
171(7) . . .
162(7) . . .
144(6) . . .
161(7) . . .
139(6) . . .
144(7) . . .
142(6) . . .
147(6) . . .
138(6) . . .
147(7) . . .
142(6) . . .
145(6) . . .
145(6) . . .
157(7) . . .
149(7) . . .
157(7) . . .
145(6) . . .
135(6) . . .
160(7) . . .
139(7) . . .
147(7) . . .
170(7) . . .
144(6) . . .
150(7) . . .
145(7) . . .
160(7) . . .
147(6) . . .
154(6) . . .
156(7) . . .
143(7) . . .
153(7) . . .
142(6) . . .
150(6) . . .
152(7) . . .
170(7) . . .
150(6) . . .
156(7) . . .
132(6) . . .
141(6) . . .
154(7) . . .
142(6) . . .
157(7) . . .
152(6) . . .
166(7) . . .
166(7) . . .
154(7) . . .
149(6) . . .
155(7) . . .
148(6) . . .
156(7) . . .
155(7) . . .
144(6) . . .
148(6) . . .
164(7) . . .
152(7) . . .
157(7) . . .
144(6) . . .
135(6) . . .
145(7) . . .
149(7) . . .
170(7) . . .
162(7) . . .
149(6) . . .
159(7) . . .
172(7) . . .
152(7) . . .
168(7) . . .
160(7) . . .
135(6) . . .
149(7) . . .
148(6) . . .
148(6) . . .
170(7) . . .
150(7) . . .
155(7) . . .
145(6) . . .
159(7) . . .
156(7) . . .
151(7) . . .
147(7) . . .
152(6) . . .
143(6) . . .
168(7) . . .
162(7) . . .
144(7) . . .
155(6) . . .
153(6) . . .
159(7) . . .
154(7) . . .
137(6) . . .
155(6) . . .
165(7) . . .
160(7) . . .
148(7) . . .
144(6) . . .
157(6) . . .
142(6) . . .
135(6) . . .
140(6) . . .
154(7) . . .
144(6) . . .
160(7) . . .
167(7) . . .
158(7) . . .
161(7) . . .
150(6) . . .
154(6) . . .
173(7) . . .
159(7) . . .
135(6) . . .
150(6) . . .
163(7) . . .
163(7) . . .
149(7) . . .
140(6) . . .
142(6) . . .
159(7) . . .
152(7) . . .
144(6) . . .
144(6) . . .
161(7) . . .
152(7) . . .
156(7) . . .
153(7) . . .
164(7) . . .
148(6) . . .
147(6) . . .
162(7) . . .
169(7) . . .
158(7) . . .
156(6) . . .
142(6) . . .
154(7) . . .
141(6) . . .
152(6) . . .
153(6) . . .
144(6) . . .
134(6) . . .
159(7) . . .
141(6) . . .
142(6) . . .
161(7) . . .
163(7) . . .
146(6) . . .
139(6) . . .
137(6) . . .
135(6) . . .
162(7) . . .
147(7) . . .
137(6) . . .
152(7) . . .
151(7) . . .
148(7) . . .
158(7) . . .
152(6) . . .
130(6) . . .
133(6) . . .
156(7) . . .
146(6) . . .
155(6) . . .
154(7) . . .
155(7) . . .
139(6) . . .
155(7) . . .
142(6) . . .
146(6) . . .
144(6) . . .
151(7) . . .
141(6) . . .
142(6) . . .
147(6) . . .
146(7) . . .
144(6) . . .
149(6) . . .
141(6) . . .
153(7) . . .
158(7) . . .
156(7) . . .
153(6) . . .
149(6) . . .
164(7) . . .
145(6) . . .
150(7) . . .
138(6) . . .
141(6) . . .
136(6) . . .
144(7) . . .
144(7) . . .
149(6) . . .
156(6) . . .
139(6) . . .
152(7) . . .
147(7) . . .
147(6) . . .
143(6) . . .
151(7) . . .
154(7) . . .
163(7) . . .
161(7) . . .
151(6) . . .
155(7) . . .
154(7) . . .
143(6) . . .
160(7) . . .
135(6) . . .
146(6) . . .
160(7) . . .
150(6) . . .
140(6) . . .
153(7) . . .
134(6) . . .
153(7) . . .
153(7) . . .
155(6) . . .
151(7) . . .
132(6) . . .
168(7) . . .
167(7) . . .
157(7) . . .
152(7) . . .
133(6) . . .
129(6) . . .
165(7) . . .
163(7) . . .
150(7) . . .
157(7) . . .
155(7) . . .
160(7) . . .
158(7) . . .
139(6) . . .
147(7) . . .
139(6) . . .
151(6) . . .
150(6) . . .
151(6) . . .
165(7) . . .
152(7) . . .
160(7) . . .
155(7) . . .
145(7) . . .
157(7) . . .
152(7) . . .
140(6) . . .
143(6) . . .
141(7) . . .
145(7) . . .
141(6) . . .
156(6) . . .
153(7) . . .
151(7) . . .
146(6) . . .
162(7) . . .
147(6) . . .
151(6) . . .
150(7) . . .
163(7) . . .
163(7) . . .
162(7) . . .
153(7) . . .
141(6) . . .
157(7) . . .
160(7) . . .
148(6) . . .
139(6) . . .
144(7) . . .
141(6) . . .
149(6) . . .
136(6) . . .
150(7) . . .
146(6) . . .
146(7) . . .
145(6) . . .
159(7) . . .
155(7) . . .
144(6) . . .
159(7) . . .
149(6) . . .
141(6) . . .
143(6) . . .
153(7) . . .
148(7) . . .
131(6) . . .
147(6) . . .
148(6) . . .
144(7) . . .
144(6) . . .
141(6) . . .
141(6) . . .
150(7) . . .
145(7) . . .
157(7) . . .
143(6) . . .
142(6) . . .
164(7) . . .
141(7) . . .
164(7) . . .
143(6) . . .
142(6) . . .
127(6) . . .
150(7) . . .
135(6) . . .
136(6) . . .
153(7) . . .
153(7) . . .
149(7) . . .
140(6) . . .
156(6) . . .
141(6) . . .
149(7) . . .
135(6) . . .
143(6) . . .
141(6) . . .
151(7) . . .
131(6) . . .
157(7) . . .
160(7) . . .
147(6) . . .
156(7) . . .
156(7) . . .
133(6) . . .
158(7) . . .
147(6) . . .
161(7) . . .
150(7) . . .
146(7) . . .
154(6) . . .
156(6) . . .
148(7) . . .
154(7) . . .
147(6) . . .
142(6) . . .
151(6) . . .
149(7) . . .
161(7) . . .
154(7) . . .
143(6) . . .
156(7) . . .
137(6) . . .
150(7) . . .
149(7) . . .
162(7) . . .
149(6) . . .
151(7) . . .
155(7) . . .
152(6) . . .
141(6) . . .
153(6) . . .
151(7) . . .
133(6) . . .
138(6) . . .
151(6) . . .
161(7) . . .
164(7) . . .
148(7) . . .
137(6) . . .
143(6) . . .
126(6) . . .
165(7) . . .
145(6) . . .
144(6) . . .
145(6) . . .
133(6) . . .
140(6) . . .
162(7) . . .
148(6) . . .
161(7) . . .
140(6) . . .
149(7) . . .
158(7) . . .
140(6) . . .
140(6) . . .
146(6) . . .
161(7) . . .
154(7) . . .
145(6) . . .
139(6) . . .
143(6) . . .
136(6) . . .
150(7) . . .
148(6) . . .
151(6) . . .
142(6) . . .
155(7) . . .
127(6) . . .
139(6) . . .
147(6) . . .
156(7) . . .
141(7) . . .
145(6) . . .
134(6) . . .
153(6) . . .
155(7) . . .
143(6) . . .
135(6) . . .
140(6) . . .
159(7) . . .
144(6) . . .
155(7) . . .
149(7) . . .
156(6) . . .
162(7) . . .
165(7) . . .
133(6) . . .
143(6) . . .
148(6) . . .
148(6) . . .
135(6) . . .
157(7) . . .
142(6) . . .
158(7) . . .
143(6) . . .
133(6) . . .
142(6) . . .
149(6) . . .
138(6) . . .
131(6) . . .
153(7) . . .
153(7) . . .
138(6) . . .
132(6) . . .
152(7) . . .
159(7) . . .
146(6) . . .
142(6) . . .
151(6) . . .
143(6) . . .
156(7) . . .
155(7) . . .
158(7) . . .
145(6) . . .
139(6) . . .
149(7) . . .
144(6) . . .
155(7) . . .
148(6) . . .
139(6) . . .
147(7) . . .
154(7) . . .
151(6) . . .
155(6) . . .
134(6) . . .
134(7) . . .
141(6) . . .
154(6) . . .
148(6) . . .
135(6) . . .
137(6) . . .
154(7) . . .
155(7) . . .
135(6) . . .
138(6) . . .
134(6) . . .
147(7) . . .
146(6) . . .
141(6) . . .
128(6) . . .
137(6) . . .
143(6) . . .
146(6) . . .
150(6) . . .
145(6) . . .
152(7) . . .
140(6) . . .
128(6) . . .
148(6) . . .
135(6) . . .
147(7) . . .
125(6) . . .
128(6) . . .
139(6) . . .
147(7) . . .
154(7) . . .
146(6) . . .
140(6) . . .
150(7) . . .
145(7) . . .
129(6) . . .
153(6) . . .
159(7) . . .
154(7) . . .
154(7) . . .
135(6) . . .
145(6) . . .
144(6) . . .
146(6) . . .
164(7) . . .
163(7) . . .
150(6) . . .
143(6) . . .
148(7) . . .
124(6) . . .
146(7) . . .
144(6) . . .
146(6) . . .
136(6) . . .
137(6) . . .
155(7) . . .
172(7) . . .
147(6) . . .
134(6) . . .
136(7) . . .
138(6) . . .
147(6) . . .
133(6) . . .
138(6) . . .
144(6) . . .
150(7) . . .
135(6) . . .
129(6) . . .
140(6) . . .
148(6) . . .
141(6) . . .
140(6) . . .
149(6) . . .
143(6) . . .
146(6) . . .
143(6) . . .
149(6) . . .
151(7) . . .
146(7) . . .
148(7) . . .
135(6) . . .
149(6) . . .
137(6) . . .
135(7) . . .
151(7) . . .
155(7) . . .
170(7) . . .
154(7) . . .
150(7) . . .
141(6) . . .
153(6) . . .
155(6) . . .
133(6) . . .
157(7) . . .
147(7) . . .
133(6) . . .
135(6) . . .
135(6) . . .
131(6) . . .
140(6) . . .
143(6) . . .
149(6) . . .
156(7) . . .
157(7) . . .
143(6) . . .
142(6) . . .
151(7) . . .
154(7) . . .
151(7) . . .
151(7) . . .
152(6) . . .
140(6) . . .
129(6) . . .
150(7) . . .
154(7) . . .
136(6) . . .
156(7) . . .
133(6) . . .
145(7) . . .
139(6) . . .
166(7) . . .
144(7) . . .
139(7) . . .
133(6) . . .
149(7) . . .
147(6) . . .
147(7) . . .
122(6) . . .
133(6) . . .
145(6) . . .
154(7) . . .
139(7) . . .
159(7) . . .
142(7) . . .
156(7) . . .
161(7) . . .
145(7) . . .
127(6) . . .
145(6) . . .
169(7) . . .
145(6) . . .
151(7) . . .
148(7) . . .
145(6) . . .
173(7) . . .
159(7) . . .
176(7) . . .
166(7) . . .
149(6) . . .
145(6) . . .
138(6) . . .
136(6) . . .
170(7) . . .
158(7) . . .
135(6) . . .
137(6) . . .
138(6) . . .
134(6) . . .
153(7) . . .
159(6) . . .
148(6) . . .
137(6) . . .
161(7) . . .
147(7) . . .
147(6) . . .
158(7) . . .
142(6) . . .
146(6) . . .
143(7) . . .
156(6) . . .
138(6) . . .
139(6) . . .
150(7) . . .
138(6) . . .
162(7) . . .
150(7) . . .
142(6) . . .
150(7) . . .
148(6) . . .
148(6) . . .
138(6) . . .
144(7) . . .
147(6) . . .
147(6) . . .
140(6) . . .
149(6) . . .
136(6) . . .
124(6) . . .
151(7) . . .
149(6) . . .
142(6) . . .
150(7) . . .
144(7) . . .
133(6) . . .
152(6) . . .
153(7) . . .
149(7) . . .
154(7) . . .
146(6) . . .
145(6) . . .
140(6) . . .
144(7) . . .
137(6) . . .
153(6) . . .
160(7) . . .
154(6) . . .
151(7) . . .
131(6) . . .
136(6) . . .
157(7) . . .
141(6) . . .
135(6) . . .
163(7) . . .
152(6) . . .
143(6) . . .
147(7) . . .
135(6) . . .
150(7) . . .
147(6) . . .
140(6) . . .
137(6) . . .
142(6) . . .
150(6) . . .
140(6) . . .
151(6) . . .
153(7) . . .
141(6) . . .
155(7) . . .
158(7) . . .
150(7) . . .
155(7) . . .
150(7) . . .
142(6) . . .
157(7) . . .
154(6) . . .
170(7) . . .
151(7) . . .
157(7) . . .
146(6) . . .
135(6) . . .
141(7) . . .
168(7) . . .
139(6) . . .
140(6) . . .
154(7) . . .
145(7) . . .
135(6) . . .
145(6) . . .
171(7) . . .
164(7) . . .
151(7) . . .
156(7) . . .
144(6) . . .
157(7) . . .
158(7) . . .
146(7) . . .
144(7) . . .
156(7) . . .
159(7) . . .
146(6) . . .
143(7) . . .
140(6) . . .
138(6) . . .
163(7) . . .
145(6) . . .
151(7) . . .
155(7) . . .
151(6) . . .
138(6) . . .
145(7) . . .
126(6) . . .
141(7) . . .
145(6) . . .
149(6) . . .
146(6) . . .
147(6) . . .
143(6) . . .
153(6) . . .
129(6) . . .
144(7) . . .
170(7) . . .
140(6) . . .
135(6) . . .
127(6) . . .
140(7) . . .
155(7) . . .
157(7) . . .
140(6) . . .
147(7) . . .
154(7) . . .
142(6) . . .
145(6) . . .
146(6) . . .
160(7) . . .
140(7) . . .
123(6) . . .
129(6) . . .
135(6) . . .
151(7) . . .
145(7) . . .
137(6) . . .
139(6) . . .
137(6) . . .
136(6) . . .
146(7) . . .
148(7) . . .
150(6) . . .
135(6) . . .
145(6) . . .
149(7) . . .
139(6) . . .
135(6) . . .
147(6) . . .
151(7) . . .
143(6) . . .
136(6) . . .
140(6) . . .
132(6) . . .
154(7) . . .
155(7) . . .
145(6) . . .
151(6) . . .
146(7) . . .
149(7) . . .
153(7) . . .
144(6) . . .
157(7) . . .
153(7) . . .
166(7) . . .
157(7) . . .
137(6) . . .
153(6) . . .
148(7) . . .
142(6) . . .
143(6) . . .
139(6) . . .
159(7) . . .
146(7) . . .
151(7) . . .
149(7) . . .
128(6) . . .
140(6) . . .
167(7) . . .
157(7) . . .
158(7) . . .
142(6) . . .
155(6) . . .
135(6) . . .
142(7) . . .
147(7) . . .
140(6) . . .
139(6) . . .
147(6) . . .
132(6) . . .
149(7) . . .
151(6) . . .
149(6) . . .
143(6) . . .
133(6) . . .
134(6) . . .
150(6) . . .
152(6) . . .
152(7) . . .
137(6) . . .
141(6) . . .
148(6) . . .
133(6) . . .
133(6) . . .
135(6) . . .
152(7) . . .
139(6) . . .
138(6) . . .
145(6) . . .
140(6) . . .
145(6) . . .
140(6) . . .
134(6) . . .
135(6) . . .
136(6) . . .
120(6) . . .
154(6) . . .
147(6) . . .
158(7) . . .
127(6) . . .
144(6) . . .
147(6) . . .
155(7) . . .
133(6) . . .
150(7) . . .
127(6) . . .
142(6) . . .
135(6) . . .
148(7) . . .
155(7) . . .
148(6) . . .
126(6) . . .
150(7) . . .
146(7) . . .
141(6) . . .
147(6) . . .
144(6) . . .
130(6) . . .
127(6) . . .
152(7) . . .
150(6) . . .
133(6) . . .
158(7) . . .
142(7) . . .
151(7) . . .
143(6) . . .
156(7) . . .
129(6) . . .
133(6) . . .
149(7) . . .
144(6) . . .
148(6) . . .
154(7) . . .
145(7) . . .
142(6) . . .
133(6) . . .
136(6) . . .
124(6) . . .
149(7) . . .
164(7) . . .
143(6) . . .
150(7) . . .
147(7) . . .
149(7) . . .
139(6) . . .
146(6) . . .
145(6) . . .
142(6) . . .
157(7) . . .
151(6) . . .
149(6) . . .
131(6) . . .
133(6) . . .
145(7) . . .
142(6) . . .
153(6) . . .
137(6) . . .
138(6) . . .
156(7) . . .
145(6) . . .
138(6) . . .
140(6) . . .
128(6) . . .
133(6) . . .
116(6) . . .
131(6) . . .
131(6) . . .
143(7) . . .
154(7) . . .
149(6) . . .
142(6) . . .
148(6) . . .
145(7) . . .
147(7) . . .
142(6) . . .
140(6) . . .
147(6) . . .
139(6) . . .
140(6) . . .
152(6) . . .
141(6) . . .
134(6) . . .
135(7) . . .
138(6) . . .
137(6) . . .
125(6) . . .
129(6) . . .
135(6) . . .
151(7) . . .
153(6) . . .
132(6) . . .
134(6) . . .
140(6) . . .
141(6) . . .
139(6) . . .
139(6) . . .
135(6) . . .
139(6) . . .
140(6) . . .
136(6) . . .
133(6) . . .
128(6) . . .
136(6) . . .
138(6) . . .
153(6) . . .
153(7) . . .
145(7) . . .
143(6) . . .
149(6) . . .
152(6) . . .
128(6) . . .
143(7) . . .
149(6) . . .
152(6) . . .
123(6) . . .
133(6) . . .
138(7) . . .
124(6) . . .
143(6) . . .
146(6) . . .
128(6) . . .
144(7) . . .
143(6) . . .
138(6) . . .
135(6) . . .
151(7) . . .
128(6) . . .
129(6) . . .
141(6) . . .
139(6) . . .
130(6) . . .
131(6) . . .
136(6) . . .
139(6) . . .
131(6) . . .
132(6) . . .
144(7) . . .
158(7) . . .
149(6) . . .
126(6) . . .
133(6) . . .
134(6) . . .
130(6) . . .
147(6) . . .
150(6) . . .
138(6) . . .
132(6) . . .
148(6) . . .
143(6) . . .
139(6) . . .
140(6) . . .
127(6) . . .
124(6) . . .
125(6) . . .
136(6) . . .
138(6) . . .
150(6) . . .
147(6) . . .
145(6) . . .
146(6) . . .
146(7) . . .
135(6) . . .
155(6) . . .
159(7) . . .
138(6) . . .
137(6) . . .
124(6) . . .
143(6) . . .
145(6) . . .
140(6) . . .
135(7) . . .
140(6) . . .
136(6) . . .
125(6) . . .
144(6) . . .
131(6) . . .
144(7) . . .
141(6) . . .
148(6) . . .
149(7) . . .
141(6) . . .
143(7) . . .
136(6) . . .
148(6) . . .
129(6) . . .
138(6) . . .
139(6) . . .
151(6) . . .
148(7) . . .
122(6) . . .
139(6) . . .
137(6) . . .
137(6) . . .
138(6) . . .
152(7) . . .
140(7) . . .
142(6) . . .
140(6) . . .
121(6) . . .
121(6) . . .
121(6) . . .
140(6) . . .
141(6) . . .
126(6) . . .
127(6) . . .
127(6) . . .
166(7) . . .
155(6) . . .
139(6) . . .
135(6) . . .
129(6) . . .
136(6) . . .
140(6) . . .
130(6) . . .
143(7) . . .
141(6) . . .
129(6) . . .
151(6) . . .
128(6) . . .
133(6) . . .
129(6) . . .
147(6) . . .
136(6) . . .
130(6) . . .
144(7) . . .
133(6) . . .
112(6) . . .
137(6) . . .
132(6) . . .
125(6) . . .
126(6) . . .
131(6) . . .
156(7) . . .
140(6) . . .
148(7) . . .
131(6) . . .
145(6) . . .
144(6) . . .
126(6) . . .
130(6) . . .
157(7) . . .
141(6) . . .
150(7) . . .
130(6) . . .
144(7) . . .
139(6) . . .
140(6) . . .
150(7) . . .
145(7) . . .
131(6) . . .
144(6) . . .
128(6) . . .
133(6) . . .
131(6) . . .
147(7) . . .
133(6) . . .
150(6) . . .
146(6) . . .
123(6) . . .
148(7) . . .
156(6) . . .
149(6) . . .
140(6) . . .
145(7) . . .
160(7) . . .
154(6) . . .
142(6) . . .
130(6) . . .
136(7) . . .
141(7) . . .
151(6) . . .
142(6) . . .
135(6) . . .
140(7) . . .
133(6) . . .
133(6) . . .
141(6) . . .
140(6) . . .
145(7) . . .
133(6) . . .
139(6) . . .
127(6) . . .
132(6) . . .
129(6) . . .
134(6) . . .
131(6) . . .
149(6) . . .
131(6) . . .
137(6) . . .
134(6) . . .
143(6) . . .
132(6) . . .
141(6) . . .
143(7) . . .
133(6) . . .
127(6) . . .
137(6) . . .
130(6) . . .
169(7) . . .
148(6) . . .
147(6) . . .
128(6) . . .
134(6) . . .
127(6) . . .
136(6) . . .
139(6) . . .
132(6) . . .
147(7) . . .
130(6) . . .
150(7) . . .
147(6) . . .
131(6) . . .
134(6) . . .
136(6) . . .
133(6) . . .
124(6) . . .
126(6) . . .
145(7) . . .
148(7) . . .
142(6) . . .
147(6) . . .
138(6) . . .
137(7) . . .
135(6) . . .
136(6) . . .
142(6) . . .
147(7) . . .
132(6) . . .
134(6) . . .
133(6) . . .
146(6) . . .
136(6) . . .
142(6) . . .
149(7) . . .
141(6) . . .
145(6) . . .
147(7) . . .
151(7) . . .
124(6) . . .
132(6) . . .
132(6) . . .
137(6) . . .
140(6) . . .
145(6) . . .
147(6) . . .
141(6) . . .
147(7) . . .
142(6) . . .
147(6) . . .
132(6) . . .
141(6) . . .
146(7) . . .
136(6) . . .
139(6) . . .
142(6) . . .
144(6) . . .
141(6) . . .
137(6) . . .
137(6) . . .
136(6) . . .
121(6) . . .
124(6) . . .
126(6) . . .
134(6) . . .
139(6) . . .
153(7) . . .
151(7) . . .
134(6) . . .
134(6) . . .
133(6) . . .
133(6) . . .
153(7) . . .
137(6) . . .
141(6) . . .
136(6) . . .
130(6) . . .
138(7) . . .
132(6) . . .
142(6) . . .
127(6) . . .
141(7) . . .
130(6) . . .
123(6) . . .
137(6) . . .
142(6) . . .
133(6) . . .
131(6) . . .
146(7) . . .
134(6) . . .
150(7) . . .
138(6) . . .
164(7) . . .
145(7) . . .
150(6) . . .
132(6) . . .
141(7) . . .
145(7) . . .
140(6) . . .
144(6) . . .
139(6) . . .
140(7) . . .
125(6) . . .
151(7) . . .
148(6) . . .
155(7) . . .
145(7) . . .
135(6) . . .
140(6) . . .
129(6) . . .
120(6) . . .
145(7) . . .
122(6) . . .
129(6) . . .
142(6) . . .
134(6) . . .
138(7) . . .
143(6) . . .
144(6) . . .
159(7) . . .
144(6) . . .
143(7) . . .
151(7) . . .
121(6) . . .
127(6) . . .
148(7) . . .
127(6) . . .
140(7) . . .
127(6) . . .
154(7) . . .
132(6) . . .
140(7) . . .
137(6) . . .
137(6) . . .
140(6) . . .
143(6) . . .
149(7) . . .
148(7) . . .
138(6) . . .
139(6) . . .
135(6) . . .
133(6) . . .
127(6) . . .
143(6) . . .
128(6) . . .
139(7) . . .
134(6) . . .
146(6) . . .
136(6) . . .
128(6) . . .
125(6) . . .
132(6) . . .
138(6) . . .
141(6) . . .
125(6) . . .
131(6) . . .
130(6) . . .
126(6) . . .
152(6) . . .
128(6) . . .
116(6) . . .
136(6) . . .
128(6) . . .
143(6) . . .
124(6) . . .
120(6) . . .
139(7) . . .
123(6) . . .
120(6) . . .
150(7) . . .
135(7) . . .
133(6) . . .
137(6) . . .
150(6) . . .
131(6) . . .
110(6) . . .
135(6) . . .
125(6) . . .
122(6) . . .
130(6) . . .
133(6) . . .
142(6) . . .
139(6) . . .
132(6) . . .
131(6) . . .
128(6) . . .
130(6) . . .
120(6) . . .
143(6) . . .
137(6) . . .
139(6) . . .
134(6) . . .
138(6) . . .
139(6) . . .
132(6) . . .
142(7) . . .
150(7) . . .
133(6) . . .
127(6) . . .
142(7) . . .
149(7) . . .
140(6) . . .
140(6) . . .
153(7) . . .
132(6) . . .
148(7) . . .
133(6) . . .
140(6) . . .
153(7) . . .
132(6) . . .
116(6) . . .
132(6) . . .
114(6) . . .
137(6) . . .
142(7) . . .
135(6) . . .
126(6) . . .
125(6) . . .
131(6) . . .
133(6) . . .
135(6) . . .
145(6) . . .
133(6) . . .
122(6) . . .
137(7) . . .
137(6) . . .
135(6) . . .
135(6) . . .
145(7) . . .
132(6) . . .
138(6) . . .
150(6) . . .
139(6) . . .
148(7) . . .
149(7) . . .
121(6) . . .
130(6) . . .
128(6) . . .
144(7) . . .
131(6) . . .
130(6) . . .
147(6) . . .
139(6) . . .
140(6) . . .
140(6) . . .
141(6) . . .
144(6) . . .
126(6) . . .
127(6) . . .
146(7) . . .
139(6) . . .
124(6) . . .
138(6) . . .
142(6) . . .
141(6) . . .
125(6) . . .
129(6) . . .
142(7) . . .
136(6) . . .
137(6) . . .
127(6) . . .
119(6) . . .
123(6) . . .
131(6) . . .
118(6) . . .
126(6) . . .
134(6) . . .
148(6) . . .
134(6) . . .
140(6) . . .
142(6) . . .
157(6) . . .
151(7) . . .
135(6) . . .
127(6) . . .
120(6) . . .
137(6) . . .
141(6) . . .
136(6) . . .
129(6) . . .
144(6) . . .
154(7) . . .
129(6) . . .
120(6) . . .
128(6) . . .
120(6) . . .
122(6) . . .
140(6) . . .
134(6) . . .
124(6) . . .
130(6) . . .
126(6) . . .
124(6) . . .
118(6) . . .
140(6) . . .
140(6) . . .
146(7) . . .
133(6) . . .
130(6) . . .
131(6) . . .
146(6) . . .
126(6) . . .
141(6) . . .
142(6) . . .
121(6) . . .
146(6) . . .
136(6) . . .
123(6) . . .
114(6) . . .
133(6) . . .
134(6) . . .
140(6) . . .
128(6) . . .
122(6) . . .
129(6) . . .
144(6) . . .
145(6) . . .
140(7) . . .
129(6) . . .
128(6) . . .
132(6) . . .
139(6) . . .
138(6) . . .
143(6) . . .
131(6) . . .
141(6) . . .
146(6) . . .
158(7) . . .
145(6) . . .
149(6) . . .
132(6) . . .
144(6) . . .
131(6) . . .
128(6) . . .
141(6) . . .
140(6) . . .
134(6) . . .
145(7) . . .
131(6) . . .
146(6) . . .
134(6) . . .
147(6) . . .
139(6) . . .
146(6) . . .
126(6) . . .
139(6) . . .
122(6) . . .
128(6) . . .
146(6) . . .
138(6) . . .
142(7) . . .
146(7) . . .
137(6) . . .
131(6) . . .
121(6) . . .
132(6) . . .
126(6) . . .
139(6) . . .
133(6) . . .
129(6) . . .
144(6) . . .
143(6) . . .
152(7) . . .
124(6) . . .
143(6) . . .
134(6) . . .
144(7) . . .
140(6) . . .
140(6) . . .
147(6) . . .
133(6) . . .
133(6) . . .
134(6) . . .
150(6) . . .
154(6) . . .
137(6) . . .
115(6) . . .
129(6) . . .
134(6) . . .
144(6) . . .
134(6) . . .
138(7) . . .
134(6) . . .
126(6) . . .
128(6) . . .
136(6) . . .
144(7) . . .
127(6) . . .
127(6) . . .
141(6) . . .
138(6) . . .
134(6) . . .
124(6) . . .
132(6) . . .
119(6) . . .
130(6) . . .
127(6) . . .
126(6) . . .
143(6) . . .
142(6) . . .
138(6) . . .
139(6) . . .
127(6) . . .
142(6) . . .
147(7) . . .
133(6) . . .
128(6) . . .
135(6) . . .
132(6) . . .
146(6) . . .
129(6) . . .
134(6) . . .
139(6) . . .
118(6) . . .
127(6) . . .
114(6) . . .
140(6) . . .
146(6) . . .
130(6) . . .
127(6) . . .
135(7) . . .
130(6) . . .
126(6) . . .
136(6) . . .
123(6) . . .
141(7) . . .
150(6) . . .
129(6) . . .
133(6) . . .
150(6) . . .
132(6) . . .
118(6) . . .
126(6) . . .
135(6) . . .
131(6) . . .
137(6) . . .
125(6) . . .
154(6) . . .
152(6) . . .
131(6) . . .
132(6) . . .
134(6) . . .
116(6) . . .
144(7) . . .
139(6) . . .
133(6) . . .
120(6) . . .
134(6) . . .
118(6) . . .
131(6) . . .
147(7) . . .
126(6) . . .
131(6) . . .
120(6) . . .
131(6) . . .
146(7) . . .
131(6) . . .
132(6) . . .
140(7) . . .
132(7) . . .
132(6) . . .
137(6) . . .
128(6) . . .
131(6) . . .
120(6) . . .
148(7) . . .
140(6) . . .
118(6) . . .
125(6) . . .
129(6) . . .
154(7) . . .
143(6) . . .
129(6) . . .
122(6) . . .
138(7) . . .
126(6) . . .
137(6) . . .
139(6) . . .
139(6) . . .
133(6) . . .
124(6) . . .
128(6) . . .
136(6) . . .
139(6) . . .
140(6) . . .
128(6) . . .
121(6) . . .
124(6) . . .
130(6) . . .
137(6) . . .
137(6) . . .
129(6) . . .
128(6) . . .
129(6) . . .
141(6) . . .
140(6) . . .
128(6) . . .
129(6) . . .
132(6) . . .
147(6) . . .
132(6) . . .
127(6) . . .
129(6) . . .
137(6) . . .
126(6) . . .
142(6) . . .
143(6) . . .
133(6) . . .
140(7) . . .
131(6) . . .
116(6) . . .
124(6) . . .
133(6) . . .
138(6) . . .
139(6) . . .
134(6) . . .
140(6) . . .
129(6) . . .
124(6) . . .
134(6) . . .
137(6) . . .
128(6) . . .
148(7) . . .
141(7) . . .
129(6) . . .
137(6) . . .
118(6) . . .
142(6) . . .
131(6) . . .
139(6) . . .
129(6) . . .
122(6) . . .
143(6) . . .
132(6) . . .
121(6) . . .
134(6) . . .
131(6) . . .
150(7) . . .
129(6) . . .
133(6) . . .
131(6) . . .
125(6) . . .
132(6) . . .
135(6) . . .
129(6) . . .
131(6) . . .
127(6) . . .
126(6) . . .
119(6) . . .
130(6) . . .
137(6) . . .
138(6) . . .
135(6) . . .
140(6) . . .
131(6) . . .
154(6) . . .
131(6) . . .
121(6) . . .
128(6) . . .
128(6) . . .
134(6) . . .
131(6) . . .
125(6) . . .
110(6) . . .
135(6) . . .
113(6) . . .
138(6) . . .
137(7) . . .
129(6) . . .
138(6) . . .
132(6) . . .
119(6) . . .
117(6) . . .
137(6) . . .
150(6) . . .
133(6) . . .
125(6) . . .
143(7) . . .
141(6) . . .
130(6) . . .
135(6) . . .
129(6) . . .
140(7) . . .
124(6) . . .
120(6) . . .
117(6) . . .
131(6) . . .
144(7) . . .
145(6) . . .
143(6) . . .
142(6) . . .
133(6) . . .
156(7) . . .
142(6) . . .
127(6) . . .
124(6) . . .
131(6) . . .
117(6) . . .
129(6) . . .
152(6) . . .
135(6) . . .
136(6) . . .
140(6) . . .
130(6) . . .
140(6) . . .
129(6) . . .
118(6) . . .
132(6) . . .
128(6) . . .
139(6) . . .
133(6) . . .
139(7) . . .
122(6) . . .
123(6) . . .
140(6) . . .
122(6) . . .
122(6) . . .
131(6) . . .
135(6) . . .
119(6) . . .
136(6) . . .
134(7) . . .
120(6) . . .
120(6) . . .
131(6) . . .
136(6) . . .
137(6) . . .
123(6) . . .
131(6) . . .
133(6) . . .
126(6) . . .
131(6) . . .
139(6) . . .
137(6) . . .
131(6) . . .
130(6) . . .
128(6) . . .
133(6) . . .
126(6) . . .
130(6) . . .
140(6) . . .
126(6) . . .
131(6) . . .
130(6) . . .
126(6) . . .
148(6) . . .
137(6) . . .
129(6) . . .
138(6) . . .
126(6) . . .
136(6) . . .
128(6) . . .
114(6) . . .
137(6) . . .
122(6) . . .
120(6) . . .
140(7) . . .
136(6) . . .
132(6) . . .
134(6) . . .
112(6) . . .
130(6) . . .
117(6) . . .
130(6) . . .
129(6) . . .
113(6) . . .
144(7) . . .
128(6) . . .
114(5) . . .
136(6) . . .
142(7) . . .
131(6) . . .
146(6) . . .
146(6) . . .
128(6) . . .
131(6) . . .
129(6) . . .
120(6) . . .
133(6) . . .
126(6) . . .
108(6) . . .
136(6) . . .
146(6) . . .
141(6) . . .
126(6) . . .
124(6) . . .
139(7) . . .
127(6) . . .
136(6) . . .
130(6) . . .
122(6) . . .
138(7) . . .
129(6) . . .
124(6) . . .
111(6) . . .
132(6) . . .
123(6) . . .
132(6) . . .
128(6) . . .
119(6) . . .
122(6) . . .
145(7) . . .
135(6) . . .
117(6) . . .
129(6) . . .
125(6) . . .
123(6) . . .
137(6) . . .
140(6) . . .
137(7) . . .
123(6) . . .
141(6) . . .
116(6) . . .
128(6) . . .
136(7) . . .
140(6) . . .
134(6) . . .
152(6) . . .
134(6) . . .
118(6) . . .
124(6) . . .
142(6) . . .
135(6) . . .
113(6) . . .
134(6) . . .
129(6) . . .
146(6) . . .
128(6) . . .
111(6) . . .
131(6) . . .
122(6) . . .
137(6) . . .
134(6) . . .
131(6) . . .
146(7) . . .
127(6) . . .
131(6) . . .
139(6) . . .
134(6) . . .
132(6) . . .
128(6) . . .
122(6) . . .
127(6) . . .
120(6) . . .
114(6) . . .
132(6) . . .
132(6) . . .
130(6) . . .
135(6) . . .
134(6) . . .
126(6) . . .
135(6) . . .
124(6) . . .
121(6) . . .
129(6) . . .
136(6) . . .
139(6) . . .
132(6) . . .
128(6) . . .
136(6) . . .
134(6) . . .
139(6) . . .
128(6) . . .
134(7) . . .
124(6) . . .
122(6) . . .
128(6) . . .
139(6) . . .
144(7) . . .
126(6) . . .
129(6) . . .
108(5) . . .
129(6) . . .
119(6) . . .
131(6) . . .
131(6) . . .
126(6) . . .
126(6) . . .
137(6) . . .
140(6) . . .
140(6) . . .
132(6) . . .
143(7) . . .
136(7) . . .
129(6) . . .
127(6) . . .
118(6) . . .
116(6) . . .
134(6) . . .
122(6) . . .
130(6) . . .
124(6) . . .
126(6) . . .
141(6) . . .
139(6) . . .
123(6) . . .
137(6) . . .
117(6) . . .
122(6) . . .
128(6) . . .
138(6) . . .
119(6) . . .
120(6) . . .
139(6) . . .
125(6) . . .
125(6) . . .
140(6) . . .
113(6) . . .
130(6) . . .
148(6) . . .
128(6) . . .
136(6) . . .
131(6) . . .
118(6) . . .
131(6) . . .
124(6) . . .
137(6) . . .
136(7) . . .
140(7) . . .
125(6) . . .
134(6) . . .
152(7) . . .
127(6) . . .
146(6) . . .
133(6) . . .
106(5) . . .
127(6) . . .
125(6) . . .
127(6) . . .
130(6) . . .
121(6) . . .
139(6) . . .
139(7) . . .
131(6) . . .
129(6) . . .
114(6) . . .
124(6) . . .
121(6) . . .
140(6) . . .
137(6) . . .
129(6) . . .
132(6) . . .
138(6) . . .
138(6) . . .
133(6) . . .
129(6) . . .
139(6) . . .
126(6) . . .
137(6) . . .
131(6) . . .
120(6) . . .
134(6) . . .
142(7) . . .
134(6) . . .
132(6) . . .
134(6) . . .
120(6) . . .
140(6) . . .
138(6) . . .
129(6) . . .
132(6) . . .
132(6) . . .
137(6) . . .
134(6) . . .
135(6) . . .
127(6) . . .
135(6) . . .
136(6) . . .
141(6) . . .
148(6) . . .
140(6) . . .
137(7) . . .
125(6) . . .
128(6) . . .
137(6) . . .
142(6) . . .
140(7) . . .
129(6) . . .
134(6) . . .
146(6) . . .
133(6) . . .
143(7) . . .
161(7) . . .
141(6) . . .
135(6) . . .
134(6) . . .
128(6) . . .
144(7) . . .
124(6) . . .
136(6) . . .
128(6) . . .
125(6) . . .
121(6) . . .
126(6) . . .
111(5) . . .
141(7) . . .
139(6) . . .
133(6) . . .
141(6) . . .
126(6) . . .
119(6) . . .
128(6) . . .
118(6) . . .
117(6) . . .
128(6) . . .
121(6) . . .
128(6) . . .
130(6) . . .
143(6) . . .
125(6) . . .
131(6) . . .
131(6) . . .
133(6) . . .
119(6) . . .
132(6) . . .
130(6) . . .
125(6) . . .
126(6) . . .
135(6) . . .
121(6) . . .
122(6) . . .
119(6) . . .
133(6) . . .
123(6) . . .
132(6) . . .
129(6) . . .
124(6) . . .
126(6) . . .
135(6) . . .
113(6) . . .
148(7) . . .
125(6) . . .
119(6) . . .
138(6) . . .
127(6) . . .
148(7) . . .
125(6) . . .
118(6) . . .
131(6) . . .
136(6) . . .
127(6) . . .
133(6) . . .
133(6) . . .
146(6) . . .
145(7) . . .
141(7) . . .
129(6) . . .
126(6) . . .
133(6) . . .
142(7) . . .
148(7) . . .
121(6) . . .
131(6) . . .
130(6) . . .
126(6) . . .
130(6) . . .
131(6) . . .
128(6) . . .
152(7) . . .
133(6) . . .
127(6) . . .
129(6) . . .
137(6) . . .
124(6) . . .
135(7) . . .
130(6) . . .
119(6) . . .
128(6) . . .
124(6) . . .
137(6) . . .
131(6) . . .
133(6) . . .
132(6) . . .
136(6) . . .
117(6) . . .
118(6) . . .
130(6) . . .
126(6) . . .
144(6) . . .
130(6) . . .
119(6) . . .
118(6) . . .
138(6) . . .
131(6) . . .
124(6) . . .
130(6) . . .
141(6) . . .
124(6) . . .
111(6) . . .
125(6) . . .
139(6) . . .
138(6) . . .
125(6) . . .
133(6) . . .
136(6) . . .
133(6) . . .
128(6) . . .
114(6) . . .
128(6) . . .
130(6) . . .
136(6) . . .
127(6) . . .
130(6) . . .
124(6) . . .
126(6) . . .
131(6) . . .
132(6) . . .
145(7) . . .
114(6) . . .
136(6) . . .
129(6) . . .
135(6) . . .
123(6) . . .
115(6) . . .
130(6) . . .
131(6) . . .
109(5) . . .
124(6) . . .
131(7) . . .
140(6) . . .
149(6) . . .
131(6) . . .
143(7) . . .
122(6) . . .
123(6) . . .
126(6) . . .
121(6) . . .
125(6) . . .
122(6) . . .
120(6) . . .
119(6) . . .
119(6) . . .
122(6) . . .
122(6) . . .
139(6) . . .
120(6) . . .
125(6) . . .
120(6) . . .
122(6) . . .
124(6) . . .
129(6) . . .
135(6) . . .
136(6) . . .
122(6) . . .
130(6) . . .
124(6) . . .
147(7) . . .
135(6) . . .
140(6) . . .
137(6) . . .
118(6) . . .
131(6) . . .
126(6) . . .
121(6) . . .
129(6) . . .
129(6) . . .
135(6) . . .
137(6) . . .
109(6) . . .
128(6) . . .
115(6) . . .
126(6) . . .
124(6) . . .
127(6) . . .
150(6) . . .
131(6) . . .
115(6) . . .
132(6) . . .
125(6) . . .
120(6) . . .
113(5) . . .
124(6) . . .
121(6) . . .
123(6) . . .
123(6) . . .
127(6) . . .
131(6) . . .
123(6) . . .
111(6) . . .
131(6) . . .
125(6) . . .
116(6) . . .
137(7) . . .
125(6) . . .
125(6) . . .
119(6) . . .
103(6) . . .
120(6) . . .
127(6) . . .
125(6) . . .
127(6) . . .
122(6) . . .
148(7) . . .
141(6) . . .
123(6) . . .
123(6) . . .
119(6) . . .
111(6) . . .
115(6) . . .
108(5) . . .
121(6) . . .
129(6) . . .
149(7) . . .
127(6) . . .
122(6) . . .
115(6) . . .
133(6) . . .
117(6) . . .
113(6) . . .
121(6) . . .
122(6) . . .
121(6) . . .
130(6) . . .
134(6) . . .
128(6) . . .
127(6) . . .
135(6) . . .
130(6) . . .
120(6) . . .
115(6) . . .
140(7) . . .
125(6) . . .
110(5) . . .
122(6) . . .
123(6) . . .
144(6) . . .
128(6) . . .
128(6) . . .
112(6) . . .
132(6) . . .
121(6) . . .
129(6) . . .
128(6) . . .
136(6) . . .
117(6) . . .
115(6) . . .
138(6) . . .
132(6) . . .
136(6) . . .
135(6) . . .
111(6) . . .
117(6) . . .
120(6) . . .
127(6) . . .
141(6) . . .
122(6) . . .
119(6) . . .
109(5) . . .
118(6) . . .
149(7) . . .
124(6) . . .
139(6) . . .
124(6) . . .
129(6) . . .
142(6) . . .
133(6) . . .
121(6) . . .
122(6) . . .
127(6) . . .
122(6) . . .
119(6) . . .
120(6) . . .
117(6) . . .
128(6) . . .
146(6) . . .
136(7) . . .
124(6) . . .
136(6) . . .
133(6) . . .
152(7) . . .
115(6) . . .
126(6) . . .
129(6) . . .
124(6) . . .
128(6) . . .
145(7) . . .
137(6) . . .
123(6) . . .
119(6) . . .
130(6) . . .
123(6) . . .
120(6) . . .
106(5) . . .
115(6) . . .
125(6) . . .
125(6) . . .
116(6) . . .
128(6) . . .
123(6) . . .
126(6) . . .
128(6) . . .
124(6) . . .
139(6) . . .
123(6) . . .
119(6) . . .
119(6) . . .
126(6) . . .
114(6) . . .
129(6) . . .
118(6) . . .
120(6) . . .
110(6) . . .
122(6) . . .
106(6) . . .
111(6) . . .
129(6) . . .
128(6) . . .
125(6) . . .
135(6) . . .
109(6) . . .
108(5) . . .
128(6) . . .
128(6) . . .
113(6) . . .
112(6) . . .
130(6) . . .
138(6) . . .
129(6) . . .
140(6) . . .
119(6) . . .
133(6) . . .
133(6) . . .
129(6) . . .
116(6) . . .
127(6) . . .
128(6) . . .
137(6) . . .
122(6) . . .
133(6) . . .
124(6) . . .
117(6) . . .
118(6) . . .
102(5) . . .
103(5) . . .
119(6) . . .
105(5) . . .
118(6) . . .
123(6) . . .
116(6) . . .
121(6) . . .
116(6) . . .
124(6) . . .
114(6) . . .
129(6) . . .
132(6) . . .
125(6) . . .
118(6) . . .
110(5) . . .
124(6) . . .
128(6) . . .
124(6) . . .
117(6) . . .
139(6) . . .
136(6) . . .
121(6) . . .
110(6) . . .
130(6) . . .
114(6) . . .
138(7) . . .
128(6) . . .
127(6) . . .
128(6) . . .
119(6) . . .
131(6) . . .
136(6) . . .
118(6) . . .
113(5) . . .
127(6) . . .
121(6) . . .
122(6) . . .
119(6) . . .
125(6) . . .
119(6) . . .
125(6) . . .
114(6) . . .
138(6) . . .
123(6) . . .
119(6) . . .
99(5) . . .
130(6) . . .
123(6) . . .
114(6) . . .
113(6) . . .
121(6) . . .
118(6) . . .
128(6) . . .
117(6) . . .
126(6) . . .
111(6) . . .
123(6) . . .
125(6) . . .
107(5) . . .
104(5) . . .
116(6) . . .
123(6) . . .
121(6) . . .
131(6) . . .
124(6) . . .
109(5) . . .
129(6) . . .
111(6) . . .
119(6) . . .
122(6) . . .
99(5) . . .
110(6) . . .
123(6) . . .
120(6) . . .
126(6) . . .
126(6) . . .
129(6) . . .
118(6) . . .
112(6) . . .
127(6) . . .
119(6) . . .
144(7) . . .
111(5) . . .
119(6) . . .
125(6) . . .
114(6) . . .
122(6) . . .
118(6) . . .
109(6) . . .
129(7) . . .
126(6) . . .
126(6) . . .
140(6) . . .
114(6) . . .
121(6) . . .
116(6) . . .
122(6) . . .
126(6) . . .
110(6) . . .
114(6) . . .
118(6) . . .
123(6) . . .
126(6) . . .
140(7) . . .
128(6) . . .
124(6) . . .
130(6) . . .
128(6) . . .
132(6) . . .
114(6) . . .
106(6) . . .
123(6) . . .
118(6) . . .
124(6) . . .
112(6) . . .
123(6) . . .
114(6) . . .
122(6) . . .
110(6) . . .
124(6) . . .
125(6) . . .
119(6) . . .
126(6) . . .
134(6) . . .
129(6) . . .
122(6) . . .
115(6) . . .
129(6) . . .
100(5) . . .
103(5) . . .
118(6) . . .
118(6) . . .
110(6) . . .
115(6) . . .
114(6) . . .
124(6) . . .
126(6) . . .
128(6) . . .
124(6) . . .
108(6) . . .
124(6) . . .
135(6) . . .
124(6) . . .
129(6) . . .
124(6) . . .
111(5) . . .
123(6) . . .
134(6) . . .
108(6) . . .
117(6) . . .
137(6) . . .
110(5) . . .
123(6) . . .
122(6) . . .
111(6) . . .
105(5) . . .
121(6) . . .
135(6) . . .
154(7) . . .
112(6) . . .
117(6) . . .
129(6) . . .
126(6) . . .
118(6) . . .
124(6) . . .
131(6) . . .
119(6) . . .
115(6) . . .
130(6) . . .
118(6) . . .
120(6) . . .
111(6) . . .
125(6) . . .
125(6) . . .
121(6) . . .
117(6) . . .
121(6) . . .
103(6) . . .
122(6) . . .
126(6) . . .
128(6) . . .
120(6) . . .
122(6) . . .
120(6) . . .
136(6) . . .
114(5) . . .
114(6) . . .
140(7) . . .
124(6) . . .
120(6) . . .
117(6) . . .
112(6) . . .
113(6) . . .
133(6) . . .
121(6) . . .
121(6) . . .
120(6) . . .
123(6) . . .
114(6) . . .
144(6) . . .
121(6) . . .
117(6) . . .
135(6) . . .
131(6) . . .
117(6) . . .
113(6) . . .
127(6) . . .
134(6) . . .
129(6) . . .
126(6) . . .
114(6) . . .
122(6) . . .
126(6) . . .
105(5) . . .
115(6) . . .
127(6) . . .
128(6) . . .
118(6) . . .
114(6) . . .
120(6) . . .
117(6) . . .
118(6) . . .
118(6) . . .
112(6) . . .
114(6) . . .
121(6) . . .
131(7) . . .
123(6) . . .
115(6) . . .
122(6) . . .
115(6) . . .
117(6) . . .
127(6) . . .
129(6) . . .
119(6) . . .
124(6) . . .
103(6) . . .
122(6) . . .
127(6) . . .
124(6) . . .
132(6) . . .
121(6) . . .
119(6) . . .
133(6) . . .
115(6) . . .
128(6) . . .
130(6) . . .
122(6) . . .
133(6) . . .
133(6) . . .
132(6) . . .
119(6) . . .
124(6) . . .
121(6) . . .
113(6) . . .
129(6) . . .
130(6) . . .
122(6) . . .
113(5) . . .
112(6) . . .
121(6) . . .
116(6) . . .
120(6) . . .
130(6) . . .
123(6) . . .
120(6) . . .
121(6) . . .
126(6) . . .
106(5) . . .
102(5) . . .
107(6) . . .
126(6) . . .
128(6) . . .
124(6) . . .
124(6) . . .
113(6) . . .
130(6) . . .
119(6) . . .
131(6) . . .
119(6) . . .
111(6) . . .
112(6) . . .
111(6) . . .
114(6) . . .
124(6) . . .
126(6) . . .
114(6) . . .
117(6) . . .
121(6) . . .
119(6) . . .
124(6) . . .
138(6) . . .
128(6) . . .
121(6) . . .
109(5) . . .
132(7) . . .
136(6) . . .
118(6) . . .
122(6) . . .
123(6) . . .
128(6) . . .
129(6) . . .
119(6) . . .
123(6) . . .
126(6) . . .
119(6) . . .
134(6) . . .
130(6) . . .
109(5) . . .
119(6) . . .
117(6) . . .
114(6) . . .
118(6) . . .
120(6) . . .
126(6) . . .
129(6) . . .
122(6) . . .
110(5) . . .
118(6) . . .
110(6) . . .
120(6) . . .
110(6) . . .
115(6) . . .
111(6) . . .
118(6) . . .
136(7) . . .
107(5) . . .
111(6) . . .
128(6) . . .
114(6) . . .
106(6) . . .
113(6) . . .
125(6) . . .
110(6) . . .
113(6) . . .
114(6) . . .
117(6) . . .
116(6) . . .
120(6) . . .
125(6) . . .
112(6) . . .
132(6) . . .
127(6) . . .
123(6) . . .
111(6) . . .
128(6) . . .
112(6) . . .
123(6) . . .
111(5) . . .
111(6) . . .
115(6) . . .
117(6) . . .
131(6) . . .
120(6) . . .
106(6) . . .
112(6) . . .
106(5) . . .
109(5) . . .
111(6) . . .
119(6) . . .
134(6) . . .
129(6) . . .
129(6) . . .
130(6) . . .
114(6) . . .
113(6) . . .
113(5) . . .
127(6) . . .
129(6) . . .
122(6) . . .
113(6) . . .
113(6) . . .
122(6) . . .
121(6) . . .
110(6) . . .
123(6) . . .
122(6) . . .
126(6) . . .
105(6) . . .
107(6) . . .
104(5) . . .
114(5) . . .
110(5) . . .
129(6) . . .
116(6) . . .
133(6) . . .
116(6) . . .
101(5) . . .
119(6) . . .
112(6) . . .
116(6) . . .
124(6) . . .
113(6) . . .
125(6) . . .
116(6) . . .
121(6) . . .
126(6) . . .
125(6) . . .
126(6) . . .
127(6) . . .
100(5) . . .
104(5) . . .
121(6) . . .
126(6) . . .
125(6) . . .
127(6) . . .
127(6) . . .
111(6) . . .
110(5) . . .
131(6) . . .
125(6) . . .
120(6) . . .
126(6) . . .
121(6) . . .
111(6) . . .
99(5) . . .
111(6) . . .
116(6) . . .
124(6) . . .
111(6) . . .
118(6) . . .
113(5) . . .
113(6) . . .
120(6) . . .
115(6) . . .
117(6) . . .
115(6) . . .
114(6) . . .
110(6) . . .
112(6) . . .
115(6) . . .
120(6) . . .
131(6) . . .
121(6) . . .
112(6) . . .
107(5) . . .
129(6) . . .
122(6) . . .
103(5) . . .
114(6) . . .
124(6) . . .
117(6) . . .
131(6) . . .
136(6) . . .
127(6) . . .
114(6) . . .
120(6) . . .
120(6) . . .
109(6) . . .
124(6) . . .
118(6) . . .
128(6) . . .
124(6) . . .
120(6) . . .
119(6) . . .
111(6) . . .
122(6) . . .
130(6) . . .
134(6) . . .
124(6) . . .
126(6) . . .
118(6) . . .
118(6) . . .
124(6) . . .
132(6) . . .
128(6) . . .
110(6) . . .
115(6) . . .
121(6) . . .
107(5) . . .
118(6) . . .
127(6) . . .
124(6) . . .
115(6) . . .
110(5) . . .
126(6) . . .
135(6) . . .
119(6) . . .
115(6) . . .
117(6) . . .
129(6) . . .
133(6) . . .
126(6) . . .
125(6) . . .
119(6) . . .
108(5) . . .
128(6) . . .
124(6) . . .
116(6) . . .
111(5) . . .
125(6) . . .
115(6) . . .
119(6) . . .
133(6) . . .
125(6) . . .
126(6) . . .
117(6) . . .
127(6) . . .
136(6) . . .
122(6) . . .
125(6) . . .
118(6) . . .
143(6) . . .
131(6) . . .
126(6) . . .
132(6) . . .
118(6) . . .
120(6) . . .
111(5) . . .
111(5) . . .
113(6) . . .
112(6) . . .
125(6) . . .
126(6) . . .
121(6) . . .
136(6) . . .
122(6) . . .
120(6) . . .
123(6) . . .
118(6) . . .
134(6) . . .
119(6) . . .
130(6) . . .
112(5) . . .
105(6) . . .
105(6) . . .
118(6) . . .
130(6) . . .
116(6) . . .
124(6) . . .
113(6) . . .
112(6) . . .
109(6) . . .
128(6) . . .
114(6) . . .
114(6) . . .
119(6) . . .
111(5) . . .
113(6) . . .
125(6) . . .
117(6) . . .
115(6) . . .
136(6) . . .
126(6) . . .
122(6) . . .
121(6) . . .
128(6) . . .
120(6) . . .
107(5) . . .
112(6) . . .
105(6) . . .
118(6) . . .
109(5) . . .
121(6) . . .
110(6) . . .
110(6) . . .
132(6) . . .
105(5) . . .
125(6) . . .
119(6) . . .
118(6) . . .
107(5) . . .
122(6) . . .
111(6) . . .
108(6) . . .
109(6) . . .
127(6) . . .
117(6) . . .
118(6) . . .
125(6) . . .
112(6) . . .
125(6) . . .
113(6) . . .
113(6) . . .
132(6) . . .
128(6) . . .
131(6) . . .
112(6) . . .
113(6) . . .
125(6) . . .
119(6) . . .
125(6) . . .
133(6) . . .
122(6) . . .
120(6) . . .
129(6) . . .
125(6) . . .
121(6) . . .
111(6) . . .
119(6) . . .
119(6) . . .
111(6) . . .
117(6) . . .
105(6) . . .
122(7) . . .
119(6) . . .
126(6) . . .
119(6) . . .
113(6) . . .
116(6) . . .
122(6) . . .
109(5) . . .
114(6) . . .
111(6) . . .
122(6) . . .
115(6) . . .
124(6) . . .
107(5) . . .
112(6) . . .
108(6) . . .
111(6) . . .
112(6) . . .
117(6) . . .
104(5) . . .
106(5) . . .
108(6) . . .
114(5) . . .
114(6) . . .
113(6) . . .
129(6) . . .
108(6) . . .
99(5) . . .
113(6) . . .
117(6) . . .
114(6) . . .
125(6) . . .
117(6) . . .
125(6) . . .
123(6) . . .
116(6) . . .
125(6) . . .
121(6) . . .
119(6) . . .
112(6) . . .
119(6) . . .
120(6) . . .
107(5) . . .
114(6) . . .
111(6) . . .
117(6) . . .
108(5) . . .
113(6) . . .
117(6) . . .
135(7) . . .
121(6) . . .
109(5) . . .
106(5) . . .
106(6) . . .
123(6) . . .
115(6) . . .
127(6) . . .
118(6) . . .
117(6) . . .
110(5) . . .
121(6) . . .
119(6) . . .
116(6) . . .
118(6) . . .
110(6) . . .
116(6) . . .
121(6) . . .
116(6) . . .
115(6) . . .
108(6) . . .
121(6) . . .
118(6) . . .
107(5) . . .
126(6) . . .
115(6) . . .
110(6) . . .
126(6) . . .
118(6) . . .
126(6) . . .
115(6) . . .
113(6) . . .
119(6) . . .
115(6) . . .
115(6) . . .
121(6) . . .
95(5) . . .
122(6) . . .
101(5) . . .
116(6) . . .
104(5) . . .
127(6) . . .
112(5) . . .
123(6) . . .
123(6) . . .
107(5) . . .
111(6) . . .
110(5) . . .
120(6) . . .
113(6) . . .
116(6) . . .
117(6) . . .
118(6) . . .
117(6) . . .
119(6) . . .
132(6) . . .
122(6) . . .
107(5) . . .
115(6) . . .
114(6) . . .
116(6) . . .
113(6) . . .
114(5) . . .
103(5) . . .
119(6) . . .
123(6) . . .
103(5) . . .
121(6) . . .
122(6) . . .
113(6) . . .
114(6) . . .
125(6) . . .
122(6) . . .
131(6) . . .
114(6) . . .
117(6) . . .
119(6) . . .
123(6) . . .
103(5) . . .
125(6) . . .
128(6) . . .
126(6) . . .
109(5) . . .
110(6) . . .
110(6) . . .
116(6) . . .
106(5) . . .
126(6) . . .
122(6) . . .
124(6) . . .
133(6) . . .
112(6) . . .
99(5) . . .
122(6) . . .
117(6) . . .
105(5) . . .
111(5) . . .
127(6) . . .
122(6) . . .
118(6) . . .
137(6) . . .
127(6) . . .
109(6) . . .
116(6) . . .
105(5) . . .
114(6) . . .
118(6) . . .
122(6) . . .
121(6) . . .
112(6) . . .
115(6) . . .
115(6) . . .
105(5) . . .
107(6) . . .
116(6) . . .
124(6) . . .
97(5) . . .
109(6) . . .
120(6) . . .
110(6) . . .
123(6) . . .
118(6) . . .
123(6) . . .
113(6) . . .
117(6) . . .
117(6) . . .
110(6) . . .
105(6) . . .
111(6) . . .
119(6) . . .
124(6) . . .
113(6) . . .
100(5) . . .
102(5) . . .
116(6) . . .
104(5) . . .
114(6) . . .
126(6) . . .
123(6) . . .
107(6) . . .
99(5) . . .
102(5) . . .
107(5) . . .
111(6) . . .
118(6) . . .
121(6) . . .
120(6) . . .
117(6) . . .
106(6) . . .
102(5) . . .
120(6) . . .
117(6) . . .
112(6) . . .
125(6) . . .
106(5) . . .
102(5) . . .
98(5) . . .
112(6) . . .
107(6) . . .
100(5) . . .
114(6) . . .
114(6) . . .
127(6) . . .
119(6) . . .
114(6) . . .
113(6) . . .
94(5) . . .
106(6) . . .
119(6) . . .
113(5) . . .
112(6) . . .
113(6) . . .
126(6) . . .
109(6) . . .
114(6) . . .
115(6) . . .
118(6) . . .
117(6) . . .
114(6) . . .
114(6) . . .
124(6) . . .
112(6) . . .
117(6) . . .
110(6) . . .
119(6) . . .
116(6) . . .
105(6) . . .
126(6) . . .
105(5) . . .
114(6) . . .
106(6) . . .
107(6) . . .
115(6) . . .
132(6) . . .
118(6) . . .
114(6) . . .
117(6) . . .
117(6) . . .
113(6) . . .
115(6) . . .
100(5) . . .
118(6) . . .
118(6) . . .
103(5) . . .
125(6) . . .
103(5) . . .
99(5) . . .
105(6) . . .
120(6) . . .
108(5) . . .
118(6) . . .
122(6) . . .
128(6) . . .
119(6) . . .
110(6) . . .
109(6) . . .
119(6) . . .
101(6) . . .
125(6) . . .
110(5) . . .
114(6) . . .
119(6) . . .
111(6) . . .
108(5) . . .
117(6) . . .
114(6) . . .
113(6) . . .
111(6) . . .
105(5) . . .
106(5) . . .
108(6) . . .
120(6) . . .
122(6) . . .
121(6) . . .
114(6) . . .
112(6) . . .
102(5) . . .
115(6) . . .
107(5) . . .
111(6) . . .
107(6) . . .
110(6) . . .
101(5) . . .
121(6) . . .
125(6) . . .
119(6) . . .
116(6) . . .
105(5) . . .
123(6) . . .
108(5) . . .
108(6) . . .
123(6) . . .
126(6) . . .
114(6) . . .
115(6) . . .
109(6) . . .
120(6) . . .
119(6) . . .
108(5) . . .
120(6) . . .
126(6) . . .
118(6) . . .
117(6) . . .
116(6) . . .
113(6) . . .
104(6) . . .
117(6) . . .
122(6) . . .
105(5) . . .
104(5) . . .
112(6) . . .
105(5) . . .
111(5) . . .
117(6) . . .
107(6) . . .
104(6) . . .
122(6) . . .
104(5) . . .
104(5) . . .
127(6) . . .
110(6) . . .
106(5) . . .
105(5) . . .
107(5) . . .
113(6) . . .
118(6) . . .
116(6) . . .
123(6) . . .
105(5) . . .
106(5) . . .
106(6) . . .
114(6) . . .
100(5) . . .
83(5) . . .
108(6) . . .
112(6) . . .
116(6) . . .
116(6) . . .
109(6) . . .
114(6) . . .
108(6) . . .
114(6) . . .
125(6) . . .
124(6) . . .
95(5) . . .
101(5) . . .
114(6) . . .
112(6) . . .
109(6) . . .
102(5) . . .
106(5) . . .
111(5) . . .
101(5) . . .
114(6) . . .
97(5) . . .
112(6) . . .
107(5) . . .
111(6) . . .
104(5) . . .
124(6) . . .
111(6) . . .
109(5) . . .
126(6) . . .
109(6) . . .
106(6) . . .
103(5) . . .
111(5) . . .
111(6) . . .
108(5) . . .
107(6) . . .
123(6) . . .
105(5) . . .
116(6) . . .
108(6) . . .
115(6) . . .
120(6) . . .
113(5) . . .
124(6) . . .
113(6) . . .
109(6) . . .
116(6) . . .
112(5) . . .
100(6) . . .
114(6) . . .
112(6) . . .
110(6) . . .
114(5) . . .
114(6) . . .
113(6) . . .
112(6) . . .
111(6) . . .
109(5) . . .
106(5) . . .
121(6) . . .
116(6) . . .
108(6) . . .
115(6) . . .
117(6) . . .
100(5) . . .
110(6) . . .
106(5) . . .
113(6) . . .
101(5) . . .
106(6) . . .
117(6) . . .
97(5) . . .
114(6) . . .
105(6) . . .
106(6) . . .
97(5) . . .
99(5) . . .
100(5) . . .
108(6) . . .
99(5) . . .
128(6) . . .
105(5) . . .
103(5) . . .
108(6) . . .
125(6) . . .
112(6) . . .
111(5) . . .
116(6) . . .
107(6) . . .
118(6) . . .
115(6) . . .
106(5) . . .
102(5) . . .
114(6) . . .
110(6) . . .
112(6) . . .
121(6) . . .
115(6) . . .
115(6) . . .
108(6) . . .
101(5) . . .
105(5) . . .
122(6) . . .
119(6) . . .
120(6) . . .
112(5) . . .
114(6) . . .
105(5) . . .
111(6) . . .
121(6) . . .
120(6) . . .
114(6) . . .
132(6) . . .
119(6) . . .
128(6) . . .
125(6) . . .
105(5) . . .
113(6) . . .
126(6) . . .
100(6) . . .
109(6) . . .
122(6) . . .
100(5) . . .
112(6) . . .
111(6) . . .
117(6) . . .
107(5) . . .
96(5) . . .
114(6) . . .
119(6) . . .
117(6) . . .
96(5) . . .
115(6) . . .
115(6) . . .
111(6) . . .
102(5) . . .
103(5) . . .
114(6) . . .
118(6) . . .
108(5) . . .
118(6) . . .
114(6) . . .
107(6) . . .
132(6) . . .
103(5) . . .
108(5) . . .
118(6) . . .
114(6) . . .
113(6) . . .
121(6) . . .
100(5) . . .
100(5) . . .
107(6) . . .
113(6) . . .
104(5) . . .
122(6) . . .
118(6) . . .
112(6) . . .
119(6) . . .
104(5) . . .
123(6) . . .
116(6) . . .
108(6) . . .
109(6) . . .
97(5) . . .
110(5) . . .
105(6) . . .
105(6) . . .
121(6) . . .
112(6) . . .
102(5) . . .
115(6) . . .
117(6) . . .
105(6) . . .
101(5) . . .
103(5) . . .
99(5) . . .
110(6) . . .
130(6) . . .
102(5) . . .
100(5) . . .
101(5) . . .
104(6) . . .
113(6) . . .
112(5) . . .
122(6) . . .
130(6) . . .
110(5) . . .
120(6) . . .
108(5) . . .
135(6) . . .
118(6) . . .
117(6) . . .
103(5) . . .
125(6) . . .
111(6) . . .
127(6) . . .
126(6) . . .
110(6) . . .
117(6) . . .
120(6) . . .
110(6) . . .
121(6) . . .
107(5) . . .
125(6) . . .
113(6) . . .
99(5) . . .
102(5) . . .
121(6) . . .
115(6) . . .
111(6) . . .
108(6) . . .
101(5) . . .
104(5) . . .
107(5) . . .
111(5) . . .
122(6) . . .
99(5) . . .
105(5) . . .
104(5) . . .
118(6) . . .
114(6) . . .
110(6) . . .
111(6) . . .
112(5) . . .
122(6) . . .
106(6) . . .
106(6) . . .
111(5) . . .
94(5) . . .
94(5) . . .
113(6) . . .
125(6) . . .
114(6) . . .
112(6) . . .
123(6) . . .
108(6) . . .
103(5) . . .
107(5) . . .
105(6) . . .
122(6) . . .
125(6) . . .
108(6) . . .
107(5) . . .
104(6) . . .
108(6) . . .
109(6) . . .
110(6) . . .
106(5) . . .
97(5) . . .
108(6) . . .
111(6) . . .
118(6) . . .
120(6) . . .
127(6) . . .
121(6) . . .
112(6) . . .
103(5) . . .
104(5) . . .
107(5) . . .
109(6) . . .
118(6) . . .
111(5) . . .
118(6) . . .
97(5) . . .
99(5) . . .
115(6) . . .
108(5) . . .
109(5) . . .
112(6) . . .
109(6) . . .
97(5) . . .
102(5) . . .
105(5) . . .
106(5) . . .
108(6) . . .
115(6) . . .
93(5) . . .
106(5) . . .
103(5) . . .
109(6) . . .
117(6) . . .
97(5) . . .
98(5) . . .
110(6) . . .
101(5) . . .
114(6) . . .
112(6) . . .
99(5) . . .
98(6) . . .
106(6) . . .
129(6) . . .
111(5) . . .
104(5) . . .
133(6) . . .
107(6) . . .
121(6) . . .
128(6) . . .
99(6) . . .
103(6) . . .
102(5) . . .
107(5) . . .
101(5) . . .
105(5) . . .
115(6) . . .
101(5) . . .
110(6) . . .
102(5) . . .
105(5) . . .
116(6) . . .
121(6) . . .
96(5) . . .
105(5) . . .
126(6) . . .
115(6) . . .
115(6) . . .
113(6) . . .
104(5) . . .
118(6) . . .
111(6) . . .
119(6) . . .
109(5) . . .
106(5) . . .
99(5) . . .
104(5) . . .
99(5) . . .
106(5) . . .
108(5) . . .
107(6) . . .
94(5) . . .
104(5) . . .
103(5) . . .
111(5) . . .
117(6) . . .
100(5) . . .
107(5) . . .
98(5) . . .
103(5) . . .
108(6) . . .
103(6) . . .
122(6) . . .
120(6) . . .
110(6) . . .
105(6) . . .
105(6) . . .
105(5) . . .
96(5) . . .
102(6) . . .
108(6) . . .
100(5) . . .
89(5) . . .
95(5) . . .
97(5) . . .
100(6) . . .
107(6) . . .
120(6) . . .
111(6) . . .
104(5) . . .
105(6) . . .
113(6) . . .
106(5) . . .
103(5) . . .
98(5) . . .
104(6) . . .
102(6) . . .
91(5) . . .
92(5) . . .
103(5) . . .
110(6) . . .
115(6) . . .
94(5) . . .
109(5) . . .
105(6) . . .
108(6) . . .
106(6) . . .
120(6) . . .
103(5) . . .
106(6) . . .
111(6) . . .
109(5) . . .
110(5) . . .
118(6) . . .
107(5) . . .
110(6) . . .
102(5) . . .
113(6) . . .
114(6) . . .
103(5) . . .
104(6) . . .
113(6) . . .
105(5) . . .
111(6) . . .
105(5) . . .
118(6) . . .
116(6) . . .
109(5) . . .
97(5) . . .
108(6) . . .
105(5) . . .
112(6) . . .
109(5) . . .
102(5) . . .
110(6) . . .
114(6) . . .
128(6) . . .
101(5) . . .
103(5) . . .
103(6) . . .
93(5) . . .
94(5) . . .
99(5) . . .
98(5) . . .
109(6) . . .
105(5) . . .
107(5) . . .
110(5) . . .
107(6) . . .
107(6) . . .
109(6) . . .
111(5) . . .
116(6) . . .
113(6) . . .
100(5) . . .
103(5) . . .
104(5) . . .
105(5) . . .
105(6) . . .
99(5) . . .
101(5) . . .
98(5) . . .
115(6) . . .
117(6) . . .
109(5) . . .
109(6) . . .
115(6) . . .
99(5) . . .
105(5) . . .
106(6) . . .
116(6) . . .
106(5) . . .
106(6) . . .
117(6) . . .
116(6) . . .
111(6) . . .
103(5) . . .
115(6) . . .
102(6) . . .
76(5) . . .
97(5) . . .
103(5) . . .
110(6) . . .
96(5) . . .
120(6) . . .
99(5) . . .
97(5) . . .
105(5) . . .
101(5) . . .
115(6) . . .
111(6) . . .
108(5) . . .
103(5) . . .
100(6) . . .
111(6) . . .
115(6) . . .
104(5) . . .
102(5) . . .
105(6) . . .
100(5) . . .
96(5) . . .
99(5) . . .
122(6) . . .
101(5) . . .
96(5) . . .
115(6) . . .
99(5) . . .
105(6) . . .
116(6) . . .
112(6) . . .
114(6) . . .
110(6) . . .
93(5) . . .
108(6) . . .
94(5) . . .
96(5) . . .
112(6) . . .
105(6) . . .
111(6) . . .
105(6) . . .
97(5) . . .
113(6) . . .
92(5) . . .
99(5) . . .
102(5) . . .
101(5) . . .
112(6) . . .
108(5) . . .
105(5) . . .
117(6) . . .
100(5) . . .
110(6) . . .
105(6) . . .
99(5) . . .
103(5) . . .
106(5) . . .
90(5) . . .
108(6) . . .
112(6) . . .
102(5) . . .
124(6) . . .
120(6) . . .
108(6) . . .
101(6) . . .
91(5) . . .
97(5) . . .
109(6) . . .
111(6) . . .
107(6) . . .
122(6) . . .
112(6) . . .
109(6) . . .
106(6) . . .
96(5) . . .
101(5) . . .
122(6) . . .
120(6) . . .
115(6) . . .
107(6) . . .
101(5) . . .
107(5) . . .
121(6) . . .
103(6) . . .
100(5) . . .
96(5) . . .
116(6) . . .
119(6) . . .
113(6) . . .
120(6) . . .
103(5) . . .
112(6) . . .
102(5) . . .
110(6) . . .
101(5) . . .
101(5) . . .
102(5) . . .
98(6) . . .
98(5) . . .
98(5) . . .
95(5) . . .
103(6) . . .
123(6) . . .
103(5) . . .
111(6) . . .
103(5) . . .
106(5) . . .
112(6) . . .
108(6) . . .
114(6) . . .
98(5) . . .
122(6) . . .
110(6) . . .
105(6) . . .
103(5) . . .
119(6) . . .
105(6) . . .
113(6) . . .
114(6) . . .
102(5) . . .
128(6) . . .
124(6) . . .
108(6) . . .
97(5) . . .
101(5) . . .
106(5) . . .
104(5) . . .
114(6) . . .
106(5) . . .
98(5) . . .
111(6) . . .
103(5) . . .
99(5) . . .
94(5) . . .
109(5) . . .
110(6) . . .
112(6) . . .
100(5) . . .
99(5) . . .
103(5) . . .
108(5) . . .
112(6) . . .
102(5) . . .
102(5) . . .
106(5) . . .
115(6) . . .
100(5) . . .
105(6) . . .
105(5) . . .
103(5) . . .
115(6) . . .
105(6) . . .
110(6) . . .
101(5) . . .
104(5) . . .
103(5) . . .
96(5) . . .
110(6) . . .
93(5) . . .
105(5) . . .
107(5) . . .
105(6) . . .
103(5) . . .
113(6) . . .
115(6) . . .
112(6) . . .
115(6) . . .
115(6) . . .
93(5) . . .
111(6) . . .
101(5) . . .
118(6) . . .
114(6) . . .
113(6) . . .
121(6) . . .
116(6) . . .
100(6) . . .
111(6) . . .
107(5) . . .
106(5) . . .
99(5) . . .
103(5) . . .
104(5) . . .
108(5) . . .
104(5) . . .
101(5) . . .
113(6) . . .
103(6) . . .
107(5) . . .
97(5) . . .
100(5) . . .
99(5) . . .
107(6) . . .
112(5) . . .
115(6) . . .
103(6) . . .
110(6) . . .
107(5) . . .
102(5) . . .
90(5) . . .
112(6) . . .
121(6) . . .
104(5) . . .
108(5) . . .
94(5) . . .
92(5) . . .
88(5) . . .
95(5) . . .
102(5) . . .
102(5) . . .
101(6) . . .
104(5) . . .
94(5) . . .
90(5) . . .
96(5) . . .
107(6) . . .
99(5) . . .
130(6) . . .
112(6) . . .
114(6) . . .
112(6) . . .
115(6) . . .
107(5) . . .
108(5) . . .
113(6) . . .
103(6) . . .
106(6) . . .
107(5) . . .
89(5) . . .
98(5) . . .
108(6) . . .
113(6) . . .
114(6) . . .
107(5) . . .
100(5) . . .
96(5) . . .
107(6) . . .
110(5) . . .
116(6) . . .
99(6) . . .
94(5) . . .
106(6) . . .
103(5) . . .
114(6) . . .
114(6) . . .
111(6) . . .
106(5) . . .
98(5) . . .
107(6) . . .
107(6) . . .
104(6) . . .
114(6) . . .
95(5) . . .
104(5) . . .
122(6) . . .
113(6) . . .
111(6) . . .
99(5) . . .
101(5) . . .
99(5) . . .
126(6) . . .
106(5) . . .
103(5) . . .
111(6) . . .
84(5) . . .
101(6) . . .
98(5) . . .
96(5) . . .
99(5) . . .
115(6) . . .
100(5) . . .
115(6) . . .
112(6) . . .
109(6) . . .
103(6) . . .
110(6) . . .
111(5) . . .
106(5) . . .
116(6) . . .
107(6) . . .
114(6) . . .
111(5) . . .
95(5) . . .
106(6) . . .
97(5) . . .
99(5) . . .
110(5) . . .
101(5) . . .
101(5) . . .
103(6) . . .
93(5) . . .
98(5) . . .
91(5) . . .
109(6) . . .
120(6) . . .
104(5) . . .
101(5) . . .
111(6) . . .
111(6) . . .
99(5) . . .
99(5) . . .
91(5) . . .
108(6) . . .
105(6) . . .
115(6) . . .
116(6) . . .
116(6) . . .
105(5) . . .
101(6) . . .
100(5) . . .
92(5) . . .
106(5) . . .
97(5) . . .
101(6) . . .
108(6) . . .
102(5) . . .
109(5) . . .
117(6) . . .
97(5) . . .
98(5) . . .
111(5) . . .
93(5) . . .
101(6) . . .
117(6) . . .
108(6) . . .
99(5) . . .
102(5) . . .
89(5) . . .
109(6) . . .
102(5) . . .
91(5) . . .
90(5) . . .
103(6) . . .
107(6) . . .
107(6) . . .
112(6) . . .
94(5) . . .
104(6) . . .
98(5) . . .
88(5) . . .
98(5) . . .
104(5) . . .
105(5) . . .
110(6) . . .
99(5) . . .
111(5) . . .
95(5) . . .
100(6) . . .
99(5) . . .
117(6) . . .
103(5) . . .
102(5) . . .
94(5) . . .
107(6) . . .
94(5) . . .
97(5) . . .
106(6) . . .
116(6) . . .
96(5) . . .
110(6) . . .
114(6) . . .
103(5) . . .
97(5) . . .
120(6) . . .
113(6) . . .
120(6) . . .
113(6) . . .
116(6) . . .
112(6) . . .
100(5) . . .
99(5) . . .
93(5) . . .
97(5) . . .
99(5) . . .
101(5) . . .
113(6) . . .
105(5) . . .
114(6) . . .
104(6) . . .
105(5) . . .
108(6) . . .
107(5) . . .
108(6) . . .
112(6) . . .
107(5) . . .
103(5) . . .
98(5) . . .
102(5) . . .
92(5) . . .
101(5) . . .
106(5) . . .
100(5) . . .
89(5) . . .
103(6) . . .
92(5) . . .
111(5) . . .
107(6) . . .
90(5) . . .
91(5) . . .
99(5) . . .
94(5) . . .
99(6) . . .
85(5) . . .
103(5) . . .
101(5) . . .
80(5) . . .
115(6) . . .
103(5) . . .
106(5) . . .
96(5) . . .
107(6) . . .
97(5) . . .
98(5) . . .
97(5) . . .
90(5) . . .
109(6) . . .
100(6) . . .
102(5) . . .
106(5) . . .
92(5) . . .
97(5) . . .
97(5) . . .
97(5) . . .
103(5) . . .
108(5) . . .
93(5) . . .
109(6) . . .
97(5) . . .
108(5) . . .
106(5) . . .
93(5) . . .
102(5) . . .
107(6) . . .
92(5) . . .
93(5) . . .
93(5) . . .
90(5) . . .
100(5) . . .
97(5) . . .
100(5) . . .
125(6) . . .
100(5) . . .
96(5) . . .
95(5) . . .
107(5) . . .
115(6) . . .
88(5) . . .
94(5) . . .
118(6) . . .
120(6) . . .
108(6) . . .
100(5) . . .
98(5) . . .
102(5) . . .
100(6) . . .
109(6) . . .
104(6) . . .
94(5) . . .
95(5) . . .
109(5) . . .
101(5) . . .
117(6) . . .
102(5) . . .
104(5) . . .
110(6) . . .
94(5) . . .
95(5) . . .
94(5) . . .
97(5) . . .
97(5) . . .
94(5) . . .
91(5) . . .
104(5) . . .
98(5) . . .
101(5) . . .
110(6) . . .
103(5) . . .
101(5) . . .
96(5) . . .
103(6) . . .
101(6) . . .
103(6) . . .
94(5) . . .
91(5) . . .
102(5) . . .
98(5) . . .
103(5) . . .
104(5) . . .
101(5) . . .
89(5) . . .
104(6) . . .
100(5) . . .
101(5) . . .
119(6) . . .
119(6) . . .
123(6) . . .
107(5) . . .
95(5) . . .
115(6) . . .
96(5) . . .
90(5) . . .
98(5) . . .
108(5) . . .
104(6) . . .
105(6) . . .
108(5) . . .
118(6) . . .
105(5) . . .
103(5) . . .
112(6) . . .
104(5) . . .
94(5) . . .
98(5) . . .
102(5) . . .
95(5) . . .
89(5) . . .
86(5) . . .
97(5) . . .
105(6) . . .
89(5) . . .
87(5) . . .
98(5) . . .
96(5) . . .
103(5) . . .
111(6) . . .
100(5) . . .
104(5) . . .
103(5) . . .
91(5) . . .
100(5) . . .
94(5) . . .
105(5) . . .
100(5) . . .
115(6) . . .
89(5) . . .
99(5) . . .
97(5) . . .
97(5) . . .
98(5) . . .
103(5) . . .
108(6) . . .
104(5) . . .
103(5) . . .
105(6) . . .
99(5) . . .
101(5) . . .
85(5) . . .
93(5) . . .
78(5) . . .
91(5) . . .
106(5) . . .
90(5) . . .
95(5) . . .
99(5) . . .
101(5) . . .
102(5) . . .
98(5) . . .
94(5) . . .
108(6) . . .
106(6) . . .
91(5) . . .
114(6) . . .
102(5) . . .
99(5) . . .
109(6) . . .
103(5) . . .
96(5) . . .
96(5) . . .
97(5) . . .
98(5) . . .
91(5) . . .
101(5) . . .
106(5) . . .
102(5) . . .
109(6) . . .
107(5) . . .
99(5) . . .
93(5) . . .
104(6) . . .
101(5) . . .
99(5) . . .
103(5) . . .
96(5) . . .
88(5) . . .
94(5) . . .
96(5) . . .
93(5) . . .
96(5) . . .
104(6) . . .
91(5) . . .
107(5) . . .
99(5) . . .
97(5) . . .
99(5) . . .
94(5) . . .
105(5) . . .
99(5) . . .
101(6) . . .
82(5) . . .
107(5) . . .
100(5) . . .
104(6) . . .
101(5) . . .
90(5) . . .
103(5) . . .
96(5) . . .
97(5) . . .
85(5) . . .
101(6) . . .
99(5) . . .
81(5) . . .
94(5) . . .
100(6) . . .
92(5) . . .
84(5) . . .
106(5) . . .
99(5) . . .
108(6) . . .
100(5) . . .
101(5) . . .
101(5) . . .
101(6) . . .
93(6) . . .
111(6) . . .
110(5) . . .
91(5) . . .
106(6) . . .
109(6) . . .
92(5) . . .
97(5) . . .
102(5) . . .
96(5) . . .
105(6) . . .
108(6) . . .
97(5) . . .
96(5) . . .
101(5) . . .
101(6) . . .
95(5) . . .
108(5) . . .
106(6) . . .
118(6) . . .
100(5) . . .
90(5) . . .
102(5) . . .
99(5) . . .
109(6) . . .
96(5) . . .
101(5) . . .
111(5) . . .
110(6) . . .
117(6) . . .
117(6) . . .
98(5) . . .
101(5) . . .
112(5) . . .
108(6) . . .
96(5) . . .
96(5) . . .
83(5) . . .
85(5) . . .
98(5) . . .
98(5) . . .
97(5) . . .
97(5) . . .
108(6) . . .
85(5) . . .
103(5) . . .
109(6) . . .
91(5) . . .
89(5) . . .
101(6) . . .
104(5) . . .
106(5) . . .
100(5) . . .
98(5) . . .
96(5) . . .
92(5) . . .
104(5) . . .
100(5) . . .
106(6) . . .
89(5) . . .
99(5) . . .
99(5) . . .
92(5) . . .
112(6) . . .
96(5) . . .
98(6) . . .
91(5) . . .
100(5) . . .
92(5) . . .
100(5) . . .
95(5) . . .
108(5) . . .
97(5) . . .
96(5) . . .
95(5) . . .
110(6) . . .
96(5) . . .
101(5) . . .
106(5) . . .
98(5) . . .
105(6) . . .
109(5) . . .
98(6) . . .
89(5) . . .
100(5) . . .
91(5) . . .
103(5) . . .
98(5) . . .
101(5) . . .
94(5) . . .
94(5) . . .
105(5) . . .
101(5) . . .
98(5) . . .
100(5) . . .
94(5) . . .
102(5) . . .
108(6) . . .
113(6) . . .
100(5) . . .
93(5) . . .
103(5) . . .
98(5) . . .
109(6) . . .
88(5) . . .
94(5) . . .
88(5) . . .
99(5) . . .
90(5) . . .
105(5) . . .
91(5) . . .
105(5) . . .
118(6) . . .
105(6) . . .
95(5) . . .
101(5) . . .
106(5) . . .
105(5) . . .
105(6) . . .
108(6) . . .
98(5) . . .
99(5) . . .
99(6) . . .
81(5) . . .
93(5) . . .
88(5) . . .
108(6) . . .
107(6) . . .
89(5) . . .
92(5) . . .
87(5) . . .
94(5) . . .
93(5) . . .
107(6) . . .
100(5) . . .
92(5) . . .
96(5) . . .
99(5) . . .
103(6) . . .
97(5) . . .
85(5) . . .
97(5) . . .
90(5) . . .
99(5) . . .
108(5) . . .
104(5) . . .
103(5) . . .
88(5) . . .
101(5) . . .
99(5) . . .
107(5) . . .
86(5) . . .
97(6) . . .
90(5) . . .
108(5) . . .
102(5) . . .
108(5) . . .
102(5) . . .
104(6) . . .
86(5) . . .
105(5) . . .
93(5) . . .
94(5) . . .
95(5) . . .
98(5) . . .
91(5) . . .
100(6) . . .
102(6) . . .
102(5) . . .
99(5) . . .
100(5) . . .
99(5) . . .
101(5) . . .
96(5) . . .
100(5) . . .
91(5) . . .
94(5) . . .
89(5) . . .
102(5) . . .
99(5) . . .
100(5) . . .
99(5) . . .
91(5) . . .
82(5) . . .
104(5) . . .
98(5) . . .
100(6) . . .
87(5) . . .
91(5) . . .
92(5) . . .
116(6) . . .
96(5) . . .
110(6) . . .
82(5) . . .
93(5) . . .
93(5) . . .
86(5) . . .
98(5) . . .
96(5) . . .
86(5) . . .
84(5) . . .
103(6) . . .
109(6) . . .
104(5) . . .
93(5) . . .
95(5) . . .
94(5) . . .
110(6) . . .
103(5) . . .
91(5) . . .
99(5) . . .
100(6) . . .
103(5) . . .
104(5) . . .
118(6) . . .
104(5) . . .
98(5) . . .
106(6) . . .
105(5) . . .
96(5) . . .
107(6) . . .
100(5) . . .
99(5) . . .
93(5) . . .
97(5) . . .
98(5) . . .
91(5) . . .
99(5) . . .
93(5) . . .
91(5) . . .
94(5) . . .
93(5) . . .
98(5) . . .
89(5) . . .
84(5) . . .
105(6) . . .
110(6) . . .
103(5) . . .
101(5) . . .
95(5) . . .
103(5) . . .
118(6) . . .
121(6) . . .
98(5) . . .
83(5) . . .
90(5) . . .
97(5) . . .
88(5) . . .
100(5) . . .
105(6) . . .
93(5) . . .
102(5) . . .
91(5) . . .
98(5) . . .
114(6) . . .
87(5) . . .
101(5) . . .
78(5) . . .
90(5) . . .
89(5) . . .
102(6) . . .
97(5) . . .
97(5) . . .
99(5) . . .
102(5) . . .
91(5) . . .
100(6) . . .
90(5) . . .
110(5) . . .
100(5) . . .
96(5) . . .
92(5) . . .
81(5) . . .
108(5) . . .
95(5) . . .
100(5) . . .
103(5) . . .
91(5) . . .
84(5) . . .
100(6) . . .
94(5) . . .
103(5) . . .
96(5) . . .
98(5) . . .
93(5) . . .
104(6) . . .
89(5) . . .
100(5) . . .
105(6) . . .
90(5) . . .
106(6) . . .
105(5) . . .
98(5) . . .
95(5) . . .
98(5) . . .
97(5) . . .
82(5) . . .
91(5) . . .
107(6) . . .
98(5) . . .
102(5) . . .
99(5) . . .
116(6) . . .
113(6) . . .
88(5) . . .
97(5) . . .
100(5) . . .
97(5) . . .
92(5) . . .
96(6) . . .
89(5) . . .
78(5) . . .
94(5) . . .
90(5) . . .
88(5) . . .
92(5) . . .
104(5) . . .
90(5) . . .
99(5) . . .
110(6) . . .
92(5) . . .
100(5) . . .
87(5) . . .
88(5) . . .
102(6) . . .
89(5) . . .
94(5) . . .
94(5) . . .
88(5) . . .
92(5) . . .
97(5) . . .
106(5) . . .
92(5) . . .
93(5) . . .
98(5) . . .
86(5) . . .
100(5) . . .
88(5) . . .
93(5) . . .
103(6) . . .
104(5) . . .
107(5) . . .
105(6) . . .
96(5) . . .
92(5) . . .
93(5) . . .
97(5) . . .
105(6) . . .
99(6) . . .
87(5) . . .
103(5) . . .
127(6) . . .
95(5) . . .
88(5) . . .
90(5) . . .
97(5) . . .
91(5) . . .
90(5) . . .
92(5) . . .
100(5) . . .
95(5) . . .
102(5) . . .
87(5) . . .
98(6) . . .
90(5) . . .
100(5) . . .
98(5) . . .
96(5) . . .
98(5) . . .
90(5) . . .
100(5) . . .
94(5) . . .
105(6) . . .
100(5) . . .
97(5) . . .
97(5) . . .
93(5) . . .
94(5) . . .
95(5) . . .
99(5) . . .
90(5) . . .
106(6) . . .
99(5) . . .
99(5) . . .
91(5) . . .
102(5) . . .
85(5) . . .
88(5) . . .
97(5) . . .
97(5) . . .
97(5) . . .
103(5) . . .
103(6) . . .
94(5) . . .
86(5) . . .
86(5) . . .
91(5) . . .
101(6) . . .
96(5) . . .
99(5) . . .
89(5) . . .
95(5) . . .
97(5) . . .
95(5) . . .
96(5) . . .
86(5) . . .
93(5) . . .
91(5) . . .
91(5) . . .
87(5) . . .
93(5) . . .
87(5) . . .
91(5) . . .
88(5) . . .
106(5) . . .
93(5) . . .
88(5) . . .
95(5) . . .
99(5) . . .
100(5) . . .
95(5) . . .
85(5) . . .
88(5) . . .
85(5) . . .
96(5) . . .
100(5) . . .
93(5) . . .
89(5) . . .
103(5) . . .
100(5) . . .
88(5) . . .
78(5) . . .
92(5) . . .
109(6) . . .
92(5) . . .
97(5) . . .
103(6) . . .
85(5) . . .
98(5) . . .
85(5) . . .
107(6) . . .
97(5) . . .
80(5) . . .
75(5) . . .
82(5) . . .
103(5) . . .
91(5) . . .
93(5) . . .
89(5) . . .
90(5) . . .
106(6) . . .
82(5) . . .
80(5) . . .
88(5) . . .
88(5) . . .
87(5) . . .
87(5) . . .
92(5) . . .
81(5) . . .
90(5) . . .
88(5) . . .
102(6) . . .
95(5) . . .
108(5) . . .
100(5) . . .
95(5) . . .
112(6) . . .
101(5) . . .
98(5) . . .
108(6) . . .
93(5) . . .
85(5) . . .
84(5) . . .
99(5) . . .
104(6) . . .
96(5) . . .
108(6) . . .
82(5) . . .
90(5) . . .
93(5) . . .
98(5) . . .
95(5) . . .
92(5) . . .
86(5) . . .
93(5) . . .
109(6) . . .
101(5) . . .
106(5) . . .
99(5) . . .
93(5) . . .
94(5) . . .
91(5) . . .
86(5) . . .
101(5) . . .
109(5) . . .
89(5) . . .
96(5) . . .
88(5) . . .
103(5) . . .
94(5) . . .
89(5) . . .
112(6) . . .
100(5) . . .
86(5) . . .
91(5) . . .
104(6) . . .
98(5) . . .
97(5) . . .
94(5) . . .
94(5) . . .
90(5) . . .
83(5) . . .
102(5) . . .
95(5) . . .
89(5) . . .
96(5) . . .
89(5) . . .
98(5) . . .
91(5) . . .
94(5) . . .
94(5) . . .
96(5) . . .
92(5) . . .
93(5) . . .
94(5) . . .
91(5) . . .
91(5) . . .
95(5) . . .
94(5) . . .
81(5) . . .
93(5) . . .
100(5) . . .
107(5) . . .
91(5) . . .
86(5) . . .
97(5) . . .
88(5) . . .
91(5) . . .
103(6) . . .
95(5) . . .
85(5) . . .
95(5) . . .
96(5) . . .
81(5) . . .
102(5) . . .
92(5) . . .
98(5) . . .
96(5) . . .
107(6) . . .
93(5) . . .
93(5) . . .
85(5) . . .
99(5) . . .
113(6) . . .
96(5) . . .
98(5) . . .
84(5) . . .
85(5) . . .
109(6) . . .
91(5) . . .
87(5) . . .
86(5) . . .
94(5) . . .
91(5) . . .
104(6) . . .
94(5) . . .
95(5) . . .
107(6) . . .
96(5) . . .
92(5) . . .
101(6) . . .
79(5) . . .
81(5) . . .
99(6) . . .
88(5) . . .
95(5) . . .
97(5) . . .
91(5) . . .
103(5) . . .
91(5) . . .
86(5) . . .
96(5) . . .
100(5) . . .
99(5) . . .
90(5) . . .
93(5) . . .
94(5) . . .
94(5) . . .
102(6) . . .
91(5) . . .
98(5) . . .
87(5) . . .
101(5) . . .
89(5) . . .
87(5) . . .
94(5) . . .
95(5) . . .
102(6) . . .
86(5) . . .
108(6) . . .
93(5) . . .
93(5) . . .
94(5) . . .
97(5) . . .
93(5) . . .
95(5) . . .
89(5) . . .
92(5) . . .
90(5) . . .
94(5) . . .
91(5) . . .
94(5) . . .
96(5) . . .
98(5) . . .
106(5) . . .
98(5) . . .
98(5) . . .
97(5) . . .
89(5) . . .
88(5) . . .
104(5) . . .
102(5) . . .
96(5) . . .
90(5) . . .
95(5) . . .
96(5) . . .
86(5) . . .
101(5) . . .
98(5) . . .
102(6) . . .
88(5) . . .
97(5) . . .
99(6) . . .
95(5) . . .
102(5) . . .
92(5) . . .
88(5) . . .
92(5) . . .
96(5) . . .
99(5) . . .
91(5) . . .
96(5) . . .
104(6) . . .
96(5) . . .
97(5) . . .
91(5) . . .
109(6) . . .
86(5) . . .
94(5) . . .
101(5) . . .
90(5) . . .
78(5) . . .
88(5) . . .
88(5) . . .
97(5) . . .
86(5) . . .
89(5) . . .
102(6) . . .
98(5) . . .
109(5) . . .
100(5) . . .
99(5) . . .
97(5) . . .
84(5) . . .
96(5) . . .
93(5) . . .
110(6) . . .
114(6) . . .
98(5) . . .
82(5) . . .
91(5) . . .
84(5) . . .
91(6) . . .
78(5) . . .
96(5) . . .
99(5) . . .
106(6) . . .
99(5) . . .
100(5) . . .
101(5) . . .
94(5) . . .
83(5) . . .
80(5) . . .
97(5) . . .
95(5) . . .
93(5) . . .
99(5) . . .
97(5) . . .
102(5) . . .
98(5) . . .
94(5) . . .
80(5) . . .
95(5) . . .
102(5) . . .
92(5) . . .
95(5) . . .
76(5) . . .
93(5) . . .
77(5) . . .
92(5) . . .
90(5) . . .
88(5) . . .
85(5) . . .
88(5) . . .
91(5) . . .
100(5) . . .
86(5) . . .
96(5) . . .
87(5) . . .
96(5) . . .
83(5) . . .
90(5) . . .
91(5) . . .
94(5) . . .
95(5) . . .
98(5) . . .
99(6) . . .
95(5) . . .
94(5) . . .
86(5) . . .
102(5) . . .
101(5) . . .
94(5) . . .
86(5) . . .
97(5) . . .
99(5) . . .
89(5) . . .
115(6) . . .
101(5) . . .
89(5) . . .
85(5) . . .
102(6) . . .
104(6) . . .
95(5) . . .
99(5) . . .
95(6) . . .
105(6) . . .
104(5) . . .
102(5) . . .
92(5) . . .
100(6) . . .
85(5) . . .
103(6) . . .
90(5) . . .
83(5) . . .
90(5) . . .
90(5) . . .
95(5) . . .
98(5) . . .
110(6) . . .
99(6) . . .
95(6) . . .
94(5) . . .
106(6) . . .
92(5) . . .
88(5) . . .
92(5) . . .
93(5) . . .
95(5) . . .
111(6) . . .
112(6) . . .
111(6) . . .
92(5) . . .
97(5) . . .
106(6) . . .
106(6) . . .
97(5) . . .
103(5) . . .
104(5) . . .
111(6) . . .
99(5) . . .
103(5) . . .
113(6) . . .
95(5) . . .
92(5) . . .
93(5) . . .
98(5) . . .
93(5) . . .
109(5) . . .
112(6) . . .
94(5) . . .
80(5) . . .
87(5) . . .
103(5) . . .
104(6) . . .
95(5) . . .
107(5) . . .
101(5) . . .
84(5) . . .
87(5) . . .
86(5) . . .
85(5) . . .
75(5) . . .
101(6) . . .
96(5) . . .
72(4) . . .
85(5) . . .
101(5) . . .
93(5) . . .
98(6) . . .
95(5) . . .
93(5) . . .
90(5) . . .
92(5) . . .
97(6) . . .
98(5) . . .
93(5) . . .
89(5) . . .
98(5) . . .
102(6) . . .
90(5) . . .
90(5) . . .
87(5) . . .
89(5) . . .
97(5) . . .
94(5) . . .
88(5) . . .
98(5) . . .
89(5) . . .
87(5) . . .
90(5) . . .
100(5) . . .
93(5) . . .
96(5) . . .
80(5) . . .
82(5) . . .
89(5) . . .
97(5) . . .
84(5) . . .
99(5) . . .
87(5) . . .
111(5) . . .
93(5) . . .
79(5) . . .
94(5) . . .
93(5) . . .
84(5) . . .
97(5) . . .
90(5) . . .
80(5) . . .
94(5) . . .
96(5) . . .
89(5) . . .
79(5) . . .
91(5) . . .
94(5) . . .
99(5) . . .
93(5) . . .
94(5) . . .
96(5) . . .
94(5) . . .
100(5) . . .
83(5) . . .
100(6) . . .
95(5) . . .
94(5) . . .
102(5) . . .
92(5) . . .
83(5) . . .
77(5) . . .
86(5) . . .
93(5) . . .
90(5) . . .
83(5) . . .
107(6) . . .
100(5) . . .
95(5) . . .
85(5) . . .
84(5) . . .
106(6) . . .
90(5) . . .
98(5) . . .
92(5) . . .
95(5) . . .
103(5) . . .
87(5) . . .
96(5) . . .
83(5) . . .
93(5) . . .
79(5) . . .
103(5) . . .
94(5) . . .
80(5) . . .
90(5) . . .
94(5) . . .
86(5) . . .
104(5) . . .
91(5) . . .
88(5) . . .
100(5) . . .
104(5) . . .
103(6) . . .
92(5) . . .
90(5) . . .
76(5) . . .
92(5) . . .
77(5) . . .
78(5) . . .
86(5) . . .
98(5) . . .
81(5) . . .
89(5) . . .
87(5) . . .
88(5) . . .
83(5) . . .
88(5) . . .
83(5) . . .
77(5) . . .
105(6) . . .
88(5) . . .
91(5) . . .
95(5) . . .
98(6) . . .
87(5) . . .
99(5) . . .
97(5) . . .
94(5) . . .
89(5) . . .
82(5) . . .
99(5) . . .
107(5) . . .
88(5) . . .
85(5) . . .
89(5) . . .
88(5) . . .
101(5) . . .
86(5) . . .
99(5) . . .
88(5) . . .
78(5) . . .
76(5) . . .
92(5) . . .
91(5) . . .
90(5) . . .
97(5) . . .
89(5) . . .
94(5) . . .
85(5) . . .
93(5) . . .
96(5) . . .
106(6) . . .
90(5) . . .
94(5) . . .
93(5) . . .
100(5) . . .
97(5) . . .
93(5) . . .
91(5) . . .
97(5) . . .
96(5) . . .
99(5) . . .
101(6) . . .
102(5) . . .
98(5) . . .
81(5) . . .
98(5) . . .
88(5) . . .
94(5) . . .
88(5) . . .
80(5) . . .
97(5) . . .
100(5) . . .
97(5) . . .
81(5) . . .
88(5) . . .
100(6) . . .
91(5) . . .
92(5) . . .
100(5) . . .
97(5) . . .
90(5) . . .
101(5) . . .
83(5) . . .
94(5) . . .
89(5) . . .
94(5) . . .
87(5) . . .
96(6) . . .
82(5) . . .
94(5) . . .
93(5) . . .
97(5) . . .
94(5) . . .
95(5) . . .
90(5) . . .
89(5) . . .
95(5) . . .
92(5) . . .
97(5) . . .
103(6) . . .
99(5) . . .
86(5) . . .
91(5) . . .
85(5) . . .
80(5) . . .
84(5) . . .
95(5) . . .
80(5) . . .
87(5) . . .
90(5) . . .
86(5) . . .
94(5) . . .
107(5) . . .
101(5) . . .
99(5) . . .
99(6) . . .
96(5) . . .
100(5) . . .
94(5) . . .
97(5) . . .
90(5) . . .
86(5) . . .
92(5) . . .
87(5) . . .
96(5) . . .
85(5) . . .
91(5) . . .
98(5) . . .
105(5) . . .
94(5) . . .
83(5) . . .
93(5) . . .
89(5) . . .
86(5) . . .
105(5) . . .
97(6) . . .
82(5) . . .
81(5) . . .
98(6) . . .
91(5) . . .
96(5) . . .
100(5) . . .
92(5) . . .
89(5) . . .
87(5) . . .
94(5) . . .
103(5) . . .
101(5) . . .
93(6) . . .
89(5) . . .
93(5) . . .
93(5) . . .
93(5) . . .
87(5) . . .
83(5) . . .
84(5) . . .
85(5) . . .
82(5) . . .
79(5) . . .
89(5) . . .
100(5) . . .
97(5) . . .
88(5) . . .
93(5) . . .
89(5) . . .
86(5) . . .
95(5) . . .
83(5) . . .
92(5) . . .
87(5) . . .
96(5) . . .
84(5) . . .
75(5) . . .
78(5) . . .
79(5) . . .
82(5) . . .
105(5) . . .
85(5) . . .
86(5) . . .
98(6) . . .
98(5) . . .
94(5) . . .
97(5) . . .
91(5) . . .
101(6) . . .
86(5) . . .
95(5) . . .
94(5) . . .
81(5) . . .
100(5) . . .
91(5) . . .
84(5) . . .
101(5) . . .
111(6) . . .
86(5) . . .
85(5) . . .
97(5) . . .
90(5) . . .
82(5) . . .
90(5) . . .
89(5) . . .
89(5) . . .
89(5) . . .
92(5) . . .
87(5) . . .
89(5) . . .
88(5) . . .
84(5) . . .
85(5) . . .
78(5) . . .
94(5) . . .
100(5) . . .
107(6) . . .
107(6) . . .
84(5) . . .
86(5) . . .
85(5) . . .
95(5) . . .
88(5) . . .
87(5) . . .
88(5) . . .
93(5) . . .
91(5) . . .
93(5) . . .
89(5) . . .
90(5) . . .
94(5) . . .
79(5) . . .
84(5) . . .
82(5) . . .
100(5) . . .
80(5) . . .
72(5) . . .
82(5) . . .
97(5) . . .
80(5) . . .
95(5) . . .
94(5) . . .
80(5) . . .
84(5) . . .
98(5) . . .
93(5) . . .
104(6) . . .
89(5) . . .
98(5) . . .
97(5) . . .
94(5) . . .
85(5) . . .
75(5) . . .
96(5) . . .
103(5) . . .
82(5) . . .
82(5) . . .
80(5) . . .
91(5) . . .
85(5) . . .
92(5) . . .
90(5) . . .
90(5) . . .
87(5) . . .
75(4) . . .
93(5) . . .
101(6) . . .
103(6) . . .
90(5) . . .
87(5) . . .
83(5) . . .
83(5) . . .
72(5) . . .
87(5) . . .
84(5) . . .
96(5) . . .
109(6) . . .
90(5) . . .
84(5) . . .
75(5) . . .
85(5) . . .
92(5) . . .
94(5) . . .
95(5) . . .
85(5) . . .
81(5) . . .
91(5) . . .
80(5) . . .
87(5) . . .
102(5) . . .
91(5) . . .
78(5) . . .
80(5) . . .
82(5) . . .
91(5) . . .
93(5) . . .
96(5) . . .
98(5) . . .
90(5) . . .
89(5) . . .
84(5) . . .
87(5) . . .
96(5) . . .
90(5) . . .
84(5) . . .
88(5) . . .
78(5) . . .
90(5) . . .
89(5) . . .
86(5) . . .
89(5) . . .
88(5) . . .
96(5) . . .
77(4) . . .
83(5) . . .
88(5) . . .
84(5) . . .
83(5) . . .
110(5) . . .
97(5) . . .
102(6) . . .
87(5) . . .
82(5) . . .
90(5) . . .
76(5) . . .
78(5) . . .
94(5) . . .
90(5) . . .
83(5) . . .
91(5) . . .
88(5) . . .
86(5) . . .
81(5) . . .
81(5) . . .
84(5) . . .
73(5) . . .
88(5) . . .
76(5) . . .
85(5) . . .
100(6) . . .
86(5) . . .
99(6) . . .
96(5) . . .
93(5) . . .
93(5) . . .
84(5) . . .
90(5) . . .
81(5) . . .
73(5) . . .
87(5) . . .
91(5) . . .
85(5) . . .
85(5) . . .
89(5) . . .
92(5) . . .
94(5) . . .
78(5) . . .
94(5) . . .
84(5) . . .
86(5) . . .
91(5) . . .
89(5) . . .
81(5) . . .
91(5) . . .
72(5) . . .
93(5) . . .
93(5) . . .
92(5) . . .
82(5) . . .
90(5) . . .
84(5) . . .
91(5) . . .
76(5) . . .
93(5) . . .
90(5) . . .
80(5) . . .
70(4) . . .
100(5) . . .
82(5) . . .
85(5) . . .
90(5) . . .
97(5) . . .
88(5) . . .
71(4) . . .
83(5) . . .
86(5) . . .
92(5) . . .
95(5) . . .
87(5) . . .
70(4) . . .
75(5) . . .
86(5) . . .
75(4) . . .
77(5) . . .
87(5) . . .
98(5) . . .
93(5) . . .
85(5) . . .
76(5) . . .
91(5) . . .
90(5) . . .
92(5) . . .
87(5) . . .
83(5) . . .
83(5) . . .
91(5) . . .
83(5) . . .
89(5) . . .
92(5) . . .
88(5) . . .
95(5) . . .
88(5) . . .
91(5) . . .
88(5) . . .
83(5) . . .
83(5) . . .
82(5) . . .
81(5) . . .
89(5) . . .
90(5) . . .
82(5) . . .
83(5) . . .
84(5) . . .
90(5) . . .
92(5) . . .
99(5) . . .
85(5) . . .
92(5) . . .
87(5) . . .
114(6) . . .
93(5) . . .
81(5) . . .
80(5) . . .
88(5) . . .
88(5) . . .
86(5) . . .
88(5) . . .
93(5) . . .
88(5) . . .
79(5) . . .
84(5) . . .
85(5) . . .
73(5) . . .
85(5) . . .
89(5) . . .
80(5) . . .
84(5) . . .
95(5) . . .
89(5) . . .
98(5) . . .
84(5) . . .
83(5) . . .
83(5) . . .
77(5) . . .
81(5) . . .
88(5) . . .
88(5) . . .
90(5) . . .
96(5) . . .
93(5) . . .
89(5) . . .
89(5) . . .
91(5) . . .
87(5) . . .
96(5) . . .
82(5) . . .
92(5) . . .
98(6) . . .
85(5) . . .
96(5) . . .
83(5) . . .
88(5) . . .
91(5) . . .
84(5) . . .
84(5) . . .
89(5) . . .
78(5) . . .
104(6) . . .
90(5) . . .
90(5) . . .
95(5) . . .
91(5) . . .
94(6) . . .
86(5) . . .
77(5) . . .
82(5) . . .
90(5) . . .
91(5) . . .
92(5) . . .
100(5) . . .
84(5) . . .
93(5) . . .
90(5) . . .
97(5) . . .
107(5) . . .
98(5) . . .
99(5) . . .
93(5) . . .
92(5) . . .
89(5) . . .
106(5) . . .
83(5) . . .
92(5) . . .
96(5) . . .
94(5) . . .
98(5) . . .
83(5) . . .
105(6) . . .
90(5) . . .
96(5) . . .
90(5) . . .
85(5) . . .
104(5) . . .
100(5) . . .
96(5) . . .
90(5) . . .
96(5) . . .
95(5) . . .
93(5) . . .
96(5) . . .
83(5) . . .
88(5) . . .
92(5) . . .
73(4) . . .
89(5) . . .
100(5) . . .
91(5) . . .
94(5) . . .
90(5) . . .
99(5) . . .
99(5) . . .
94(5) . . .
90(5) . . .
90(5) . . .
96(5) . . .
80(5) . . .
86(5) . . .
92(5) . . .
87(5) . . .
91(5) . . .
84(5) . . .
82(5) . . .
84(5) . . .
88(5) . . .
85(5) . . .
76(5) . . .
83(5) . . .
95(5) . . .
92(5) . . .
85(5) . . .
94(5) . . .
97(5) . . .
101(5) . . .
90(5) . . .
93(5) . . .
85(5) . . .
83(5) . . .
90(5) . . .
78(5) . . .
80(5) . . .
85(5) . . .
90(5) . . .
81(5) . . .
87(5) . . .
78(5) . . .
93(6) . . .
78(5) . . .
92(5) . . .
80(5) . . .
90(5) . . .
85(5) . . .
86(5) . . .
78(5) . . .
87(5) . . .
90(5) . . .
97(6) . . .
87(5) . . .
89(5) . . .
81(5) . . .
85(5) . . .
84(5) . . .
89(5) . . .
87(5) . . .
86(5) . . .
87(5) . . .
98(6) . . .
70(4) . . .
95(5) . . .
77(5) . . .
74(5) . . .
84(5) . . .
86(5) . . .
78(5) . . .
85(5) . . .
78(5) . . .
88(5) . . .
91(5) . . .
85(5) . . .
86(5) . . .
81(5) . . .
86(5) . . .
88(5) . . .
86(5) . . .
86(5) . . .
79(5) . . .
84(5) . . .
92(5) . . .
85(5) . . .
84(5) . . .
84(5) . . .
87(5) . . .
87(5) . . .
84(5) . . .
72(5) . . .
89(5) . . .
82(5) . . .
86(5) . . .
84(5) . . .
77(5) . . .
80(5) . . .
89(5) . . .
84(5) . . .
82(5) . . .
89(5) . . .
90(5) . . .
81(5) . . .
98(5) . . .
83(5) . . .
78(5) . . .
66(4) . . .
100(5) . . .
89(5) . . .
88(5) . . .
85(5) . . .
98(6) . . .
96(5) . . .
81(5) . . .
80(5) . . .
85(5) . . .
85(5) . . .
77(5) . . .
94(5) . . .
87(5) . . .
83(5) . . .
84(5) . . .
90(5) . . .
93(5) . . .
91(5) . . .
84(5) . . .
75(5) . . .
93(5) . . .
81(5) . . .
83(5) . . .
98(5) . . .
84(5) . . .
78(5) . . .
93(5) . . .
78(5) . . .
93(5) . . .
79(5) . . .
95(5) . . .
75(4) . . .
94(5) . . .
71(5) . . .
68(5) . . .
95(5) . . .
80(5) . . .
74(5) . . .
79(5) . . .
80(5) . . .
93(5) . . .
93(5) . . .
83(5) . . .
85(5) . . .
93(5) . . .
78(5) . . .
80(5) . . .
79(5) . . .
98(6) . . .
93(5) . . .
85(5) . . .
80(5) . . .
86(5) . . .
86(5) . . .
70(4) . . .
93(5) . . .
91(5) . . .
89(5) . . .
89(5) . . .
93(5) . . .
86(5) . . .
85(5) . . .
77(5) . . .
91(5) . . .
90(5) . . .
76(5) . . .
84(5) . . .
85(5) . . .
93(5) . . .
92(5) . . .
96(5) . . .
91(5) . . .
81(5) . . .
77(5) . . .
84(5) . . .
94(5) . . .
84(5) . . .
82(5) . . .
79(5) . . .
82(5) . . .
87(5) . . .
74(5) . . .
81(5) . . .
94(5) . . .
88(5) . . .
88(5) . . .
82(5) . . .
82(5) . . .
86(5) . . .
83(5) . . .
89(5) . . .
76(5) . . .
80(5) . . .
78(5) . . .
85(5) . . .
84(5) . . .
84(5) . . .
73(4) . . .
82(5) . . .
90(5) . . .
93(5) . . .
89(5) . . .
80(5) . . .
85(5) . . .
77(5) . . .
84(5) . . .
92(5) . . .
70(5) . . .
71(5) . . .
83(5) . . .
80(5) . . .
85(5) . . .
76(5) . . .
83(5) . . .
85(5) . . .
86(5) . . .
93(5) . . .
87(5) . . .
77(5) . . .
77(5) . . .
71(4) . . .
91(5) . . .
73(5) . . .
87(5) . . .
85(5) . . .
79(5) . . .
87(5) . . .
90(5) . . .
80(5) . . .
82(5) . . .
70(4) . . .
82(5) . . .
89(5) . . .
81(5) . . .
74(4) . . .
80(5) . . .
90(5) . . .
87(5) . . .
73(4) . . .
87(5) . . .
78(5) . . .
79(5) . . .
80(5) . . .
73(4) . . .
68(4) . . .
77(5) . . .
77(5) . . .
83(5) . . .
76(4) . . .
87(5) . . .
74(5) . . .
70(5) . . .
89(5) . . .
102(5) . . .
85(5) . . .
86(5) . . .
99(6) . . .
92(5) . . .
78(5) . . .
88(5) . . .
90(5) . . .
82(5) . . .
92(5) . . .
91(5) . . .
81(5) . . .
88(5) . . .
87(5) . . .
85(5) . . .
82(5) . . .
91(5) . . .
77(5) . . .
87(5) . . .
85(5) . . .
82(5) . . .
79(5) . . .
84(5) . . .
93(5) . . .
76(5) . . .
79(5) . . .
70(5) . . .
78(5) . . .
88(5) . . .
91(5) . . .
81(5) . . .
87(5) . . .
81(5) . . .
65(4) . . .
67(4) . . .
70(4) . . .
69(5) . . .
95(5) . . .
90(5) . . .
85(5) . . .
89(5) . . .
80(5) . . .
84(5) . . .
77(5) . . .
89(5) . . .
83(5) . . .
84(5) . . .
97(6) . . .
82(5) . . .
69(4) . . .
88(5) . . .
73(4) . . .
81(5) . . .
76(5) . . .
76(5) . . .
79(5) . . .
92(5) . . .
89(5) . . .
75(5) . . .
96(5) . . .
90(5) . . .
84(5) . . .
84(5) . . .
93(5) . . .
80(5) . . .
78(5) . . .
82(5) . . .
79(5) . . .
95(5) . . .
80(5) . . .
76(5) . . .
76(5) . . .
89(5) . . .
81(5) . . .
71(4) . . .
81(5) . . .
83(5) . . .
84(5) . . .
89(5) . . .
73(4) . . .
76(5) . . .
74(5) . . .
79(5) . . .
70(4) . . .
81(5) . . .
85(5) . . .
87(5) . . .
76(5) . . .
80(5) . . .
95(5) . . .
82(5) . . .
85(5) . . .
94(5) . . .
83(5) . . .
82(5) . . .
81(5) . . .
84(5) . . .
81(5) . . .
81(5) . . .
75(4) . . .
89(5) . . .
92(5) . . .
83(5) . . .
84(5) . . .
94(5) . . .
76(5) . . .
82(5) . . .
82(5) . . .
80(5) . . .
78(5) . . .
82(5) . . .
88(5) . . .
68(4) . . .
70(4) . . .
84(5) . . .
81(5) . . .
89(5) . . .
81(5) . . .
72(4) . . .
76(5) . . .
78(5) . . .
77(5) . . .
75(5) . . .
71(4) . . .
81(5) . . .
78(5) . . .
91(5) . . .
83(5) . . .
84(5) . . .
79(5) . . .
76(5) . . .
80(5) . . .
80(5) . . .
98(5) . . .
89(5) . . .
86(5) . . .
87(5) . . .
79(5) . . .
72(4) . . .
79(5) . . .
86(5) . . .
78(5) . . .
84(5) . . .
74(5) . . .
73(5) . . .
76(5) . . .
87(5) . . .
87(5) . . .
89(5) . . .
92(5) . . .
82(5) . . .
76(5) . . .
72(4) . . .
76(4) . . .
77(5) . . .
92(5) . . .
88(5) . . .
82(5) . . .
79(5) . . .
73(5) . . .
87(5) . . .
83(5) . . .
91(5) . . .
82(5) . . .
74(5) . . .
86(5) . . .
73(5) . . .
84(5) . . .
79(5) . . .
96(6) . . .
76(5) . . .
85(5) . . .
79(5) . . .
72(5) . . .
70(5) . . .
85(5) . . .
80(5) . . .
77(5) . . .
76(5) . . .
77(5) . . .
82(5) . . .
82(5) . . .
86(5) . . .
79(5) . . .
71(5) . . .
71(5) . . .
82(5) . . .
77(5) . . .
79(5) . . .
94(5) . . .
81(5) . . .
87(5) . . .
84(5) . . .
72(5) . . .
85(5) . . .
81(5) . . .
89(5) . . .
86(5) . . .
81(5) . . .
84(5) . . .
86(5) . . .
87(5) . . .
76(5) . . .
104(6) . . .
89(5) . . .
81(5) . . .
82(5) . . .
87(5) . . .
86(5) . . .
82(5) . . .
78(5) . . .
83(5) . . .
85(5) . . .
81(5) . . .
86(5) . . .
80(5) . . .
85(5) . . .
96(5) . . .
74(5) . . .
89(5) . . .
87(5) . . .
85(5) . . .
69(4) . . .
69(4) . . .
76(5) . . .
75(5) . . .
81(5) . . .
80(5) . . .
80(5) . . .
86(5) . . .
77(4) . . .
71(4) . . .
90(5) . . .
72(4) . . .
85(5) . . .
83(5) . . .
83(5) . . .
86(5) . . .
86(5) . . .
82(5) . . .
88(5) . . .
95(5) . . .
76(5) . . .
66(4) . . .
80(5) . . .
88(5) . . .
85(5) . . .
83(5) . . .
89(5) . . .
78(5) . . .
77(5) . . .
74(4) . . .
74(4) . . .
69(4) . . .
80(5) . . .
78(5) . . .
75(4) . . .
68(4) . . .
85(5) . . .
84(5) . . .
79(5) . . .
76(5) . . .
96(5) . . .
74(5) . . .
67(4) . . .
84(5) . . .
97(5) . . .
84(5) . . .
84(5) . . .
85(5) . . .
82(5) . . .
85(5) . . .
95(5) . . .
89(5) . . .
78(5) . . .
78(5) . . .
84(5) . . .
84(5) . . .
77(5) . . .
83(5) . . .
86(5) . . .
77(5) . . .
78(5) . . .
78(5) . . .
77(5) . . .
83(5) . . .
76(5) . . .
80(5) . . .
101(6) . . .
78(5) . . .
67(4) . . .
86(5) . . .
84(5) . . .
73(5) . . .
74(4) . . .
70(4) . . .
77(5) . . .
77(5) . . .
82(5) . . .
89(5) . . .
77(5) . . .
79(5) . . .
88(5) . . .
73(4) . . .
76(5) . . .
98(5) . . .
84(5) . . .
88(5) . . .
100(5) . . .
83(5) . . .
85(5) . . .
84(5) . . .
84(5) . . .
79(5) . . .
86(5) . . .
92(5) . . .
89(5) . . .
75(5) . . .
69(4) . . .
77(5) . . .
75(5) . . .
77(5) . . .
65(5) . . .
81(5) . . .
83(5) . . .
80(5) . . .
83(5) . . .
89(5) . . .
82(5) . . .
96(5) . . .
94(5) . . .
84(5) . . .
81(5) . . .
68(4) . . .
68(4) . . .
82(5) . . .
78(5) . . .
78(5) . . .
79(5) . . .
95(5) . . .
67(4) . . .
75(5) . . .
77(5) . . .
70(4) . . .
70(4) . . .
69(4) . . .
75(5) . . .
94(5) . . .
77(5) . . .
77(5) . . .
87(5) . . .
79(5) . . .
84(5) . . .
77(5) . . .
77(5) . . .
83(5) . . .
87(5) . . .
68(4) . . .
81(5) . . .
70(4) . . .
78(5) . . .
82(5) . . .
85(5) . . .
81(5) . . .
93(5) . . .
80(5) . . .
80(5) . . .
84(5) . . .
68(4) . . .
81(5) . . .
85(5) . . .
74(5) . . .
83(5) . . .
75(4) . . .
88(5) . . .
86(5) . . .
79(5) . . .
87(5) . . .
75(5) . . .
78(5) . . .
87(5) . . .
90(5) . . .
87(5) . . .
80(5) . . .
84(5) . . .
83(5) . . .
76(5) . . .
79(5) . . .
85(5) . . .
79(5) . . .
81(5) . . .
76(5) . . .
78(5) . . .
77(5) . . .
97(5) . . .
75(5) . . .
73(5) . . .
80(5) . . .
88(5) . . .
88(5) . . .
81(5) . . .
79(5) . . .
79(5) . . .
77(5) . . .
82(5) . . .
88(5) . . .
91(5) . . .
82(5) . . .
86(5) . . .
88(5) . . .
72(5) . . .
77(5) . . .
76(5) . . .
74(4) . . .
74(5) . . .
85(5) . . .
92(5) . . .
78(5) . . .
76(5) . . .
82(5) . . .
77(5) . . .
83(5) . . .
77(5) . . .
89(5) . . .
81(5) . . .
71(5) . . .
71(4) . . .
70(4) . . .
69(5) . . .
77(5) . . .
77(5) . . .
70(4) . . .
70(4) . . .
76(5) . . .
78(5) . . .
72(5) . . .
82(5) . . .
80(5) . . .
72(5) . . .
74(5) . . .
78(5) . . .
89(5) . . .
74(4) . . .
90(5) . . .
75(5) . . .
68(4) . . .
76(5) . . .
76(5) . . .
76(5) . . .
82(5) . . .
86(5) . . .
72(4) . . .
72(4) . . .
72(5) . . .
82(5) . . .
90(5) . . .
77(5) . . .
86(5) . . .
83(5) . . .
76(5) . . .
74(5) . . .
81(5) . . .
83(5) . . .
64(4) . . .
76(5) . . .
101(5) . . .
87(5) . . .
77(5) . . .
66(4) . . .
77(5) . . .
71(4) . . .
69(4) . . .
77(5) . . .
84(5) . . .
68(4) . . .
82(5) . . .
85(5) . . .
76(5) . . .
81(5) . . .
95(5) . . .
73(4) . . .
63(4) . . .
66(4) . . .
74(5) . . .
71(5) . . .
84(5) . . .
72(4) . . .
90(5) . . .
71(5) . . .
79(5) . . .
74(4) . . .
74(4) . . .
79(5) . . .
84(5) . . .
86(5) . . .
79(5) . . .
77(5) . . .
86(5) . . .
74(5) . . .
71(4) . . .
72(4) . . .
88(5) . . .
83(5) . . .
84(5) . . .
79(5) . . .
77(5) . . .
91(5) . . .
73(5) . . .
88(5) . . .
75(5) . . .
76(5) . . .
72(4) . . .
85(5) . . .
86(5) . . .
82(5) . . .
77(4) . . .
78(5) . . .
79(5) . . .
79(5) . . .
85(5) . . .
70(4) . . .
79(5) . . .
89(5) . . .
81(5) . . .
75(5) . . .
89(5) . . .
80(5) . . .
82(5) . . .
88(5) . . .
87(5) . . .
85(5) . . .
83(5) . . .
66(5) . . .
73(5) . . .
73(4) . . .
91(5) . . .
92(5) . . .
76(5) . . .
71(5) . . .
78(5) . . .
71(4) . . .
68(4) . . .
79(5) . . .
92(5) . . .
73(5) . . .
84(5) . . .
79(5) . . .
87(5) . . .
70(4) . . .
75(4) . . .
82(5) . . .
81(5) . . .
69(5) . . .
69(4) . . .
69(4) . . .
73(4) . . .
92(5) . . .
84(5) . . .
85(5) . . .
93(5) . . .
86(5) . . .
90(5) . . .
77(5) . . .
73(5) . . .
77(5) . . .
77(5) . . .
76(5) . . .
93(5) . . .
85(5) . . .
83(5) . . .
81(5) . . .
70(4) . . .
93(5) . . .
85(5) . . .
85(5) . . .
89(5) . . .
77(5) . . .
76(5) . . .
74(5) . . .
74(5) . . .
77(5) . . .
77(5) . . .
89(5) . . .
82(5) . . .
83(5) . . .
75(5) . . .
74(5) . . .
73(5) . . .
85(5) . . .
82(5) . . .
79(5) . . .
78(5) . . .
80(5) . . .
72(4) . . .
82(5) . . .
83(5) . . .
71(5) . . .
71(4) . . .
86(5) . . .
72(4) . . .
78(5) . . .
84(5) . . .
74(5) . . .
87(5) . . .
81(5) . . .
80(5) . . .
88(5) . . .
90(5) . . .
91(5) . . .
76(5) . . .
85(5) . . .
77(5) . . .
81(5) . . .
90(5) . . .
91(5) . . .
93(5) . . .
81(5) . . .
73(5) . . .
79(5) . . .
75(5) . . .
86(5) . . .
84(5) . . .
89(5) . . .
86(5) . . .
92(5) . . .
63(4) . . .
78(5) . . .
67(4) . . .
77(5) . . .
75(5) . . .
71(5) . . .
85(5) . . .
83(5) . . .
62(4) . . .
79(5) . . .
80(5) . . .
68(4) . . .
82(5) . . .
81(5) . . .
72(5) . . .
77(5) . . .
90(5) . . .
84(5) . . .
85(5) . . .
84(5) . . .
80(5) . . .
70(4) . . .
71(4) . . .
74(4) . . .
72(5) . . .
72(5) . . .
89(5) . . .
85(5) . . .
83(5) . . .
82(5) . . .
96(5) . . .
81(5) . . .
84(5) . . .
86(5) . . .
77(5) . . .
90(5) . . .
74(4) . . .
70(4) . . .
78(5) . . .
78(5) . . .
84(5) . . .
84(5) . . .
77(5) . . .
71(4) . . .
83(5) . . .
80(5) . . .
81(5) . . .
86(5) . . .
72(4) . . .
84(5) . . .
74(4) . . .
82(5) . . .
78(5) . . .
81(5) . . .
77(5) . . .
66(4) . . .
72(5) . . .
78(5) . . .
89(5) . . .
78(5) . . .
76(5) . . .
72(4) . . .
80(5) . . .
87(5) . . .
79(5) . . .
84(5) . . .
81(5) . . .
64(4) . . .
80(5) . . .
81(5) . . .
77(5) . . .
74(4) . . .
74(5) . . .
75(5) . . .
76(5) . . .
85(5) . . .
84(5) . . .
79(5) . . .
75(5) . . .
95(5) . . .
82(5) . . .
76(5) . . .
76(5) . . .
74(5) . . .
85(5) . . .
82(5) . . .
84(5) . . .
69(4) . . .
72(4) . . .
98(5) . . .
87(5) . . .
67(4) . . .
84(5) . . .
77(5) . . .
79(5) . . .
84(5) . . .
73(4) . . .
75(5) . . .
82(5) . . .
77(5) . . .
75(5) . . .
83(5) . . .
77(5) . . .
73(5) . . .
75(4) . . .
83(5) . . .
73(4) . . .
76(5) . . .
80(5) . . .
88(5) . . .
78(5) . . .
91(5) . . .
83(5) . . .
71(5) . . .
80(5) . . .
79(5) . . .
73(4) . . .
89(5) . . .
77(5) . . .
70(4) . . .
86(5) . . .
83(5) . . .
70(5) . . .
75(5) . . .
80(5) . . .
79(5) . . .
73(4) . . .
78(5) . . .
80(5) . . .
87(5) . . .
94(5) . . .
74(5) . . .
79(5) . . .
74(5) . . .
77(5) . . .
72(4) . . .
85(5) . . .
80(5) . . .
84(5) . . .
87(5) . . .
84(5) . . .
74(4) . . .
84(5) . . .
69(4) . . .
73(5) . . .
89(5) . . .
70(4) . . .
89(5) . . .
74(5) . . .
70(5) . . .
72(4) . . .
69(4) . . .
89(5) . . .
77(5) . . .
65(4) . . .
78(5) . . .
83(5) . . .
81(5) . . .
84(5) . . .
80(5) . . .
91(5) . . .
82(5) . . .
84(5) . . .
83(5) . . .
81(5) . . .
87(5) . . .
84(5) . . .
86(5) . . .
76(5) . . .
72(4) . . .
68(4) . . .
78(5) . . .
78(5) . . .
81(5) . . .
76(5) . . .
72(4) . . .
74(5) . . .
91(5) . . .
80(5) . . .
89(5) . . .
81(5) . . .
80(5) . . .
75(5) . . .
73(5) . . .
83(5) . . .
77(5) . . .
81(5) . . .
84(5) . . .
78(5) . . .
76(5) . . .
72(5) . . .
81(5) . . .
94(5) . . .
89(5) . . .
69(4) . . .
80(5) . . .
76(5) . . .
79(5) . . .
72(4) . . .
72(4) . . .
73(5) . . .
70(5) . . .
85(5) . . .
71(5) . . .
81(5) . . .
69(5) . . .
75(5) . . .
78(5) . . .
78(5) . . .
84(5) . . .
69(4) . . .
68(4) . . .
76(5) . . .
73(4) . . .
69(4) . . .
87(5) . . .
70(5) . . .
77(5) . . .
76(5) . . .
86(5) . . .
78(5) . . .
68(5) . . .
72(5) . . .
75(4) . . .
88(5) . . .
77(5) . . .
61(4) . . .
77(5) . . .
82(5) . . .
71(4) . . .
81(5) . . .
77(5) . . .
78(5) . . .
76(4) . . .
76(5) . . .
65(4) . . .
81(5) . . .
81(5) . . .
76(5) . . .
80(5) . . .
87(5) . . .
78(5) . . .
68(4) . . .
79(5) . . .
74(4) . . .
73(5) . . .
78(5) . . .
88(5) . . .
73(4) . . .
73(5) . . .
70(5) . . .
74(5) . . .
87(5) . . .
80(5) . . .
72(5) . . .
73(5) . . .
84(5) . . .
77(5) . . .
76(5) . . .
76(5) . . .
73(5) . . .
81(5) . . .
78(5) . . .
73(4) . . .
65(4) . . .
84(5) . . .
84(5) . . .
69(4) . . .
77(5) . . .
79(5) . . .
87(5) . . .
77(5) . . .
82(5) . . .
66(4) . . .
77(5) . . .
83(5) . . .
72(5) . . .
77(5) . . .
63(4) . . .
73(5) . . .
74(5) . . .
79(5) . . .
78(5) . . .
77(5) . . .
73(5) . . .
75(5) . . .
72(5) . . .
85(5) . . .
75(5) . . .
89(5) . . .
82(5) . . .
93(5) . . .
80(5) . . .
79(5) . . .
78(5) . . .
76(5) . . .
73(5) . . .
69(4) . . .
74(4) . . .
83(5) . . .
70(4) . . .
66(4) . . .
82(5) . . .
79(5) . . .
72(5) . . .
73(4) . . .
81(5) . . .
69(4) . . .
70(5) . . .
72(5) . . .
76(5) . . .
82(5) . . .
77(5) . . .
74(5) . . .
70(5) . . .
78(5) . . .
70(4) . . .
81(5) . . .
82(5) . . .
74(5) . . .
78(5) . . .
80(5) . . .
73(5) . . .
85(5) . . .
78(5) . . .
67(4) . . .
74(4) . . .
74(4) . . .
71(4) . . .
68(4) . . .
76(5) . . .
75(5) . . .
66(4) . . .
67(4) . . .
76(5) . . .
81(5) . . .
78(5) . . .
84(5) . . .
81(5) . . .
80(5) . . .
78(5) . . .
76(5) . . .
83(5) . . .
69(5) . . .
79(5) . . .
78(5) . . .
77(5) . . .
62(4) . . .
77(5) . . .
80(5) . . .
83(5) . . .
85(5) . . .
72(5) . . .
66(4) . . .
85(5) . . .
71(4) . . .
88(5) . . .
81(5) . . .
74(5) . . .
80(5) . . .
85(5) . . .
77(5) . . .
86(5) . . .
84(5) . . .
78(5) . . .
72(5) . . .
78(5) . . .
81(5) . . .
89(5) . . .
75(5) . . .
72(4) . . .
71(4) . . .
69(4) . . .
75(5) . . .
88(5) . . .
77(5) . . .
81(5) . . .
64(4) . . .
81(5) . . .
81(5) . . .
79(5) . . .
70(4) . . .
80(5) . . .
68(5) . . .
74(5) . . .
71(4) . . .
72(4) . . .
59(4) . . .
84(5) . . .
76(5) . . .
83(5) . . .
77(5) . . .
79(5) . . .
85(5) . . .
76(5) . . .
62(4) . . .
68(4) . . .
74(5) . . .
89(5) . . .
89(5) . . .
85(5) . . .
89(5) . . .
76(5) . . .
76(5) . . .
79(5) . . .
81(5) . . .
75(5) . . .
72(5) . . .
79(5) . . .
75(5) . . .
75(4) . . .
77(5) . . .
90(5) . . .
78(5) . . .
78(5) . . .
79(5) . . .
67(4) . . .
77(5) . . .
72(5) . . .
75(5) . . .
87(5) . . .
76(4) . . .
68(5) . . .
75(5) . . .
70(4) . . .
74(4) . . .
74(4) . . .
78(5) . . .
69(4) . . .
86(5) . . .
62(4) . . .
65(4) . . .
74(5) . . .
71(5) . . .
86(5) . . .
85(5) . . .
71(4) . . .
65(4) . . .
83(5) . . .
87(5) . . .
67(4) . . .
68(4) . . .
75(5) . . .
91(5) . . .
93(5) . . .
84(5) . . .
83(5) . . .
87(5) . . .
82(5) . . .
81(5) . . .
78(5) . . .
72(5) . . .
67(5) . . .
74(5) . . .
75(5) . . .
76(5) . . .
82(5) . . .
86(5) . . .
79(5) . . .
69(4) . . .
74(5) . . .
80(5) . . .
82(5) . . .
66(4) . . .
82(5) . . .
74(4) . . .
82(5) . . .
76(5) . . .
71(4) . . .
72(4) . . .
72(4) . . .
94(5) . . .
88(5) . . .
75(4) . . .
71(4) . . .
62(4) . . .
76(5) . . .
82(5) . . .
73(4) . . .
65(4) . . .
78(5) . . .
74(5) . . .
83(5) . . .
79(5) . . .
69(4) . . .
79(5) . . .
77(5) . . .
67(4) . . .
72(4) . . .
80(5) . . .
74(5) . . .
80(5) . . .
88(5) . . .
73(4) . . .
87(5) . . .
84(5) . . .
63(4) . . .
76(5) . . .
76(4) . . .
70(4) . . .
79(5) . . .
81(5) . . .
68(4) . . .
76(5) . . .
89(5) . . .
79(5) . . .
76(5) . . .
81(5) . . .
79(5) . . .
73(5) . . .
76(5) . . .
86(5) . . .
72(4) . . .
76(5) . . .
68(4) . . .
82(5) . . .
66(4) . . .
75(4) . . .
80(5) . . .
89(5) . . .
76(5) . . .
74(5) . . .
71(4) . . .
74(4) . . .
74(5) . . .
78(5) . . .
75(5) . . .
87(5) . . .
78(5) . . .
73(4) . . .
85(5) . . .
76(5) . . .
80(5) . . .
71(4) . . .
80(5) . . .
79(5) . . .
71(4) . . .
82(5) . . .
77(5) . . .
69(5) . . .
74(5) . . .
70(4) . . .
67(4) . . .
80(5) . . .
89(5) . . .
77(5) . . .
78(5) . . .
76(5) . . .
83(5) . . .
74(5) . . .
66(4) . . .
82(5) . . .
68(4) . . .
71(5) . . .
82(5) . . .
75(5) . . .
70(4) . . .
79(5) . . .
78(5) . . .
75(5) . . .
65(4) . . .
76(5) . . .
77(5) . . .
77(5) . . .
67(5) . . .
71(4) . . .
80(5) . . .
72(4) . . .
75(5) . . .
72(5) . . .
84(5) . . .
79(5) . . .
69(4) . . .
68(4) . . .
70(5) . . .
64(4) . . .
74(4) . . .
79(5) . . .
67(4) . . .
70(5) . . .
81(5) . . .
87(5) . . .
74(5) . . .
77(5) . . .
84(5) . . .
69(5) . . .
71(4) . . .
69(4) . . .
86(5) . . .
73(5) . . .
62(4) . . .
73(5) . . .
77(5) . . .
77(5) . . .
66(4) . . .
70(4) . . .
81(5) . . .
85(5) . . .
71(4) . . .
69(5) . . .
58(4) . . .
75(4) . . .
72(5) . . .
82(5) . . .
78(5) . . .
72(4) . . .
83(5) . . .
80(5) . . .
66(4) . . .
80(5) . . .
79(5) . . .
71(4) . . .
89(5) . . .
68(4) . . .
76(5) . . .
82(5) . . .
79(5) . . .
82(5) . . .
80(5) . . .
76(5) . . .
73(5) . . .
65(4) . . .
80(5) . . .
80(5) . . .
71(5) . . .
63(4) . . .
76(5) . . .
80(5) . . .
75(5) . . .
80(5) . . .
68(4) . . .
73(4) . . .
71(5) . . .
69(5) . . .
83(5) . . .
72(4) . . .
80(5) . . .
83(5) . . .
80(5) . . .
72(4) . . .
72(4) . . .
80(5) . . .
70(5) . . .
73(5) . . .
88(5) . . .
84(5) . . .
78(5) . . .
83(5) . . .
74(4) . . .
75(4) . . .
83(5) . . .
72(5) . . .
78(5) . . .
72(5) . . .
74(5) . . .
62(4) . . .
73(4) . . .
69(4) . . .
59(4) . . .
71(4) . . .
64(4) . . .
79(5) . . .
69(5) . . .
70(5) . . .
65(4) . . .
79(5) . . .
84(5) . . .
77(5) . . .
78(5) . . .
72(4) . . .
77(5) . . .
70(4) . . .
71(5) . . .
81(5) . . .
82(5) . . .
67(4) . . .
75(5) . . .
70(5) . . .
70(4) . . .
85(5) . . .
71(4) . . .
76(5) . . .
73(5) . . .
80(5) . . .
77(5) . . .
79(5) . . .
66(5) . . .
65(4) . . .
72(5) . . .
64(4) . . .
67(4) . . .
71(5) . . .
75(5) . . .
79(5) . . .
73(4) . . .
63(4) . . .
80(5) . . .
77(5) . . .
59(4) . . .
73(4) . . .
76(5) . . .
70(5) . . .
81(5) . . .
76(5) . . .
70(4) . . .
74(5) . . .
75(5) . . .
89(5) . . .
74(4) . . .
67(4) . . .
75(5) . . .
83(5) . . .
85(5) . . .
81(5) . . .
79(5) . . .
73(5) . . .
73(5) . . .
77(5) . . .
81(5) . . .
74(4) . . .
78(5) . . .
78(5) . . .
76(5) . . .
75(4) . . .
68(4) . . .
78(5) . . .
71(5) . . .
75(5) . . .
74(5) . . .
81(5) . . .
79(5) . . .
72(5) . . .
81(5) . . .
85(5) . . .
78(5) . . .
68(4) . . .
72(5) . . .
79(5) . . .
76(5) . . .
87(5) . . .
70(4) . . .
81(5) . . .
69(4) . . .
85(5) . . .
73(4) . . .
72(5) . . .
71(5) . . .
72(5) . . .
63(4) . . .
73(5) . . .
71(4) . . .
66(4) . . .
88(5) . . .
83(5) . . .
77(5) . . .
77(5) . . .
86(5) . . .
86(5) . . .
77(4) . . .
82(5) . . .
69(4) . . .
73(5) . . .
63(4) . . .
76(5) . . .
72(4) . . .
75(5) . . .
82(5) . . .
82(5) . . .
76(5) . . .
75(5) . . .
69(5) . . .
80(5) . . .
78(5) . . .
80(5) . . .
66(4) . . .
62(4) . . .
88(5) . . .
86(5) . . .
77(5) . . .
73(5) . . .
74(5) . . .
82(5) . . .
73(5) . . .
76(4) . . .
70(4) . . .
73(5) . . .
74(5) . . .
69(4) . . .
69(4) . . .
71(4) . . .
80(5) . . .
78(5) . . .
77(5) . . .
77(5) . . .
78(5) . . .
77(5) . . .
85(5) . . .
85(5) . . .
72(5) . . .
65(4) . . .
75(5) . . .
69(4) . . .
84(5) . . .
71(4) . . .
90(5) . . .
69(4) . . .
77(5) . . .
78(5) . . .
81(5) . . .
74(5) . . .
77(5) . . .
75(5) . . .
77(5) . . .
83(5) . . .
82(5) . . .
81(5) . . .
75(5) . . .
69(4) . . .
59(4) . . .
68(5) . . .
67(4) . . .
80(5) . . .
93(5) . . .
74(5) . . .
78(5) . . .
67(4) . . .
65(4) . . .
73(4) . . .
77(5) . . .
75(5) . . .
74(5) . . .
84(5) . . .
76(5) . . .
63(4) . . .
80(5) . . .
83(5) . . .
83(5) . . .
83(5) . . .
63(4) . . .
66(4) . . .
85(5) . . .
83(5) . . .
76(5) . . .
69(5) . . .
75(5) . . .
66(4) . . .
76(5) . . .
75(5) . . .
76(5) . . .
85(5) . . .
76(5) . . .
69(4) . . .
73(4) . . .
75(5) . . .
87(5) . . .
74(5) . . .
70(4) . . .
67(4) . . .
63(4) . . .
70(5) . . .
68(4) . . .
66(4) . . .
64(4) . . .
69(5) . . .
80(5) . . .
69(4) . . .
61(4) . . .
68(5) . . .
82(5) . . .
74(5) . . .
78(5) . . .
68(4) . . .
86(5) . . .
72(5) . . .
77(5) . . .
75(5) . . .
71(4) . . .
67(4) . . .
70(5) . . .
61(4) . . .
80(5) . . .
77(5) . . .
70(4) . . .
72(5) . . .
69(4) . . .
68(4) . . .
73(4) . . .
74(5) . . .
64(4) . . .
76(5) . . .
63(4) . . .
72(4) . . .
81(5) . . .
66(4) . . .
66(4) . . .
69(4) . . .
83(5) . . .
66(4) . . .
70(5) . . .
74(5) . . .
72(4) . . .
67(4) . . .
92(5) . . .
81(5) . . .
69(4) . . .
74(4) . . .
67(4) . . .
79(5) . . .
88(5) . . .
79(5) . . .
85(5) . . .
64(5) . . .
73(5) . . .
73(5) . . .
75(5) . . .
74(4) . . .
77(5) . . .
68(4) . . .
72(5) . . .
72(4) . . .
77(5) . . .
74(5) . . .
75(5) . . .
79(5) . . .
78(5) . . .
84(5) . . .
85(5) . . .
81(5) . . .
80(5) . . .
66(4) . . .
83(5) . . .
69(5) . . .
73(5) . . .
74(5) . . .
65(4) . . .
74(5) . . .
70(5) . . .
69(5) . . .
78(5) . . .
70(4) . . .
64(4) . . .
81(5) . . .
66(4) . . .
61(4) . . .
77(5) . . .
79(5) . . .
78(5) . . .
87(5) . . .
83(5) . . .
82(5) . . .
69(4) . . .
80(5) . . .
76(5) . . .
69(4) . . .
80(5) . . .
70(4) . . .
75(5) . . .
74(5) . . .
62(4) . . .
70(4) . . .
82(5) . . .
68(4) . . .
71(5) . . .
79(5) . . .
76(5) . . .
87(5) . . .
70(5) . . .
85(5) . . .
75(4) . . .
64(4) . . .
62(4) . . .
75(5) . . .
58(4) . . .
71(4) . . .
76(4) . . .
88(5) . . .
74(5) . . .
78(5) . . .
76(4) . . .
76(5) . . .
73(4) . . .
73(5) . . .
81(5) . . .
84(5) . . .
69(4) . . .
73(5) . . .
68(5) . . .
74(4) . . .
80(5) . . .
74(5) . . .
91(5) . . .
73(4) . . .
60(4) . . .
69(4) . . .
81(5) . . .
75(5) . . .
71(5) . . .
76(5) . . .
78(5) . . .
77(5) . . .
68(5) . . .
66(4) . . .
65(4) . . .
72(4) . . .
77(5) . . .
70(5) . . .
71(5) . . .
74(4) . . .
77(5) . . .
84(5) . . .
72(5) . . .
72(5) . . .
65(4) . . .
75(5) . . .
83(5) . . .
71(4) . . .
72(5) . . .
77(5) . . .
78(5) . . .
75(5) . . .
74(5) . . .
73(5) . . .
78(5) . . .
77(5) . . .
75(5) . . .
77(5) . . .
79(5) . . .
87(5) . . .
66(4) . . .
78(5) . . .
72(5) . . .
79(5) . . .
70(4) . . .
77(5) . . .
68(4) . . .
74(5) . . .
78(5) . . .
85(5) . . .
69(4) . . .
61(4) . . .
73(5) . . .
74(5) . . .
78(5) . . .
67(4) . . .
72(5) . . .
69(5) . . .
79(5) . . .
75(5) . . .
86(5) . . .
77(5) . . .
75(5) . . .
81(5) . . .
87(5) . . .
67(4) . . .
70(5) . . .
79(5) . . .
87(5) . . .
78(5) . . .
80(5) . . .
79(5) . . .
82(5) . . .
75(5) . . .
80(5) . . .
68(4) . . .
65(4) . . .
70(4) . . .
72(4) . . .
85(5) . . .
72(4) . . .
80(5) . . .
88(5) . . .
81(5) . . .
71(4) . . .
69(5) . . .
74(5) . . .
75(5) . . .
63(4) . . .
68(4) . . .
70(4) . . .
81(5) . . .
68(4) . . .
70(4) . . .
79(5) . . .
76(5) . . .
66(4) . . .
66(4) . . .
79(5) . . .
64(4) . . .
63(4) . . .
70(5) . . .
72(5) . . .
75(4) . . .
82(5) . . .
73(5) . . .
78(5) . . .
77(5) . . .
71(4) . . .
77(5) . . .
78(5) . . .
79(5) . . .
63(4) . . .
78(5) . . .
79(5) . . .
74(5) . . .
67(4) . . .
81(5) . . .
79(5) . . .
69(4) . . .
67(4) . . .
58(4) . . .
78(5) . . .
75(5) . . .
81(5) . . .
78(5) . . .
61(4) . . .
71(4) . . .
71(4) . . .
70(5) . . .
69(5) . . .
81(5) . . .
75(5) . . .
70(4) . . .
76(5) . . .
79(5) . . .
73(4) . . .
71(4) . . .
83(5) . . .
69(5) . . .
66(4) . . .
72(4) . . .
75(5) . . .
61(4) . . .
84(5) . . .
79(5) . . .
81(5) . . .
69(4) . . .
63(4) . . .
77(5) . . .
69(4) . . .
74(4) . . .
81(5) . . .
80(5) . . .
65(4) . . .
62(4) . . .
65(4) . . .
71(4) . . .
81(5) . . .
77(5) . . .
84(5) . . .
70(4) . . .
60(4) . . .
69(5) . . .
66(4) . . .
72(5) . . .
66(4) . . .
64(4) . . .
79(5) . . .
70(4) . . .
69(4) . . .
64(4) . . .
74(5) . . .
71(5) . . .
72(5) . . .
65(4) . . .
78(5) . . .
69(4) . . .
91(5) . . .
76(5) . . .
76(5) . . .
66(4) . . .
85(5) . . .
73(5) . . .
77(5) . . .
68(4) . . .
63(4) . . .
68(4) . . .
68(4) . . .
76(5) . . .
69(4) . . .
72(4) . . .
69(4) . . .
67(4) . . .
71(5) . . .
69(4) . . .
74(4) . . .
75(4) . . .
81(5) . . .
77(5) . . .
82(5) . . .
78(5) . . .
79(5) . . .
76(5) . . .
64(4) . . .
72(4) . . .
60(4) . . .
63(4) . . .
68(4) . . .
74(5) . . .
70(4) . . .
70(4) . . .
95(5) . . .
72(5) . . .
68(4) . . .
60(4) . . .
76(5) . . .
74(4) . . .
75(5) . . .
77(5) . . .
77(5) . . .
70(4) . . .
77(5) . . .
68(5) . . .
66(4) . . .
72(4) . . .
68(4) . . .
68(4) . . .
78(5) . . .
73(5) . . .
71(4) . . .
78(5) . . .
72(5) . . .
73(5) . . .
74(5) . . .
72(4) . . .
70(4) . . .
76(5) . . .
66(4) . . .
64(4) . . .
73(5) . . .
77(5) . . .
62(4) . . .
69(5) . . .
71(5) . . .
73(4) . . .
67(4) . . .
65(4) . . .
81(5) . . .
70(4) . . .
69(4) . . .
83(5) . . .
82(5) . . .
79(5) . . .
74(5) . . .
71(4) . . .
62(4) . . .
62(4) . . .
70(5) . . .
80(5) . . .
69(4) . . .
76(5) . . .
71(5) . . .
65(4) . . .
69(4) . . .
69(4) . . .
66(4) . . .
56(4) . . .
75(5) . . .
75(4) . . .
76(5) . . .
78(5) . . .
75(5) . . .
78(5) . . .
76(5) . . .
80(5) . . .
74(5) . . .
74(5) . . .
72(4) . . .
76(4) . . .
75(5) . . .
75(5) . . .
88(5) . . .
83(5) . . .
79(5) . . .
74(4) . . .
77(5) . . .
70(5) . . .
62(4) . . .
66(4) . . .
65(4) . . .
67(4) . . .
67(4) . . .
72(4) . . .
75(5) . . .
69(4) . . .
62(4) . . .
76(5) . . .
81(5) . . .
76(5) . . .
68(4) . . .
79(5) . . .
73(5) . . .
71(5) . . .
75(4) . . .
73(5) . . .
76(5) . . .
68(5) . . .
73(5) . . .
66(4) . . .
76(5) . . .
70(5) . . .
70(5) . . .
76(5) . . .
71(4) . . .
63(4) . . .
61(4) . . .
71(4) . . .
82(5) . . .
75(4) . . .
80(5) . . .
78(5) . . .
70(5) . . .
64(4) . . .
72(4) . . .
71(5) . . .
66(5) . . .
84(5) . . .
68(4) . . .
68(4) . . .
73(5) . . .
90(5) . . .
82(5) . . .
71(4) . . .
71(4) . . .
71(5) . . .
82(5) . . .
78(5) . . .
69(4) . . .
75(4) . . .
84(5) . . .
77(5) . . .
76(5) . . .
81(5) . . .
70(4) . . .
67(4) . . .
72(5) . . .
70(5) . . .
76(5) . . .
77(5) . . .
75(5) . . .
71(5) . . .
71(4) . . .
69(4) . . .
81(5) . . .
62(4) . . .
75(5) . . .
65(4) . . .
67(4) . . .
77(5) . . .
65(4) . . .
68(4) . . .
70(4) . . .
79(5) . . .
72(5) . . .
74(5) . . .
67(4) . . .
66(4) . . .
57(4) . . .
60(4) . . .
63(4) . . .
61(4) . . .
71(5) . . .
83(5) . . .
69(4) . . .
72(5) . . .
75(5) . . .
72(5) . . .
66(4) . . .
73(4) . . .
74(5) . . .
72(4) . . .
90(5) . . .
76(4) . . .
70(4) . . .
69(5) . . .
67(4) . . .
81(5) . . .
69(4) . . .
74(5) . . .
71(5) . . .
73(5) . . .
71(4) . . .
71(4) . . .
71(4) . . .
73(5) . . .
76(5) . . .
67(4) . . .
78(5) . . .
84(5) . . .
66(4) . . .
75(5) . . .
70(4) . . .
74(5) . . .
78(5) . . .
73(5) . . .
78(5) . . .
63(4) . . .
76(5) . . .
76(5) . . .
72(5) . . .
78(5) . . .
70(4) . . .
81(5) . . .
71(4) . . .
65(4) . . .
81(5) . . .
69(4) . . .
75(5) . . .
58(4) . . .
72(4) . . .
80(5) . . .
72(4) . . .
69(4) . . .
81(5) . . .
68(5) . . .
65(4) . . .
80(5) . . .
71(5) . . .
76(5) . . .
90(5) . . .
71(4) . . .
72(4) . . .
68(4) . . .
79(5) . . .
71(5) . . .
63(4) . . .
70(4) . . .
74(5) . . .
89(5) . . .
74(5) . . .
73(4) . . .
77(5) . . .
77(5) . . .
80(5) . . .
70(4) . . .
76(5) . . .
64(4) . . .
76(5) . . .
66(4) . . .
61(4) . . .
78(5) . . .
74(4) . . .
78(5) . . .
81(5) . . .
79(5) . . .
75(5) . . .
69(4) . . .
76(5) . . .
65(4) . . .
61(4) . . .
69(4) . . .
64(4) . . .
66(4) . . .
74(5) . . .
80(5) . . .
60(4) . . .
70(5) . . .
68(5) . . .
62(4) . . .
67(4) . . .
71(4) . . .
59(4) . . .
66(5) . . .
76(5) . . .
70(4) . . .
75(4) . . .
70(4) . . .
59(4) . . .
63(4) . . .
78(5) . . .
73(4) . . .
68(4) . . .
71(5) . . .
74(5) . . .
64(4) . . .
69(4) . . .
74(5) . . .
80(5) . . .
77(5) . . .
76(4) . . .
69(4) . . .
69(4) . . .
76(5) . . .
67(4) . . .
75(4) . . .
81(5) . . .
74(5) . . .
71(5) . . .
67(4) . . .
72(4) . . .
68(5) . . .
65(4) . . .
74(5) . . .
68(5) . . .
61(4) . . .
82(5) . . .
74(5) . . .
70(4) . . .
75(5) . . .
69(4) . . .
66(4) . . .
75(5) . . .
65(4) . . .
88(5) . . .
76(5) . . .
77(5) . . .
71(4) . . .
76(5) . . .
77(5) . . .
75(5) . . .
71(4) . . .
78(5) . . .
80(5) . . .
81(5) . . .
70(4) . . .
70(4) . . .
62(4) . . .
90(5) . . .
71(4) . . .
66(4) . . .
78(5) . . .
67(4) . . .
68(4) . . .
83(5) . . .
68(4) . . .
82(5) . . .
64(4) . . .
83(5) . . .
65(4) . . .
75(5) . . .
76(5) . . .
80(5) . . .
72(5) . . .
75(5) . . .
80(5) . . .
66(4) . . .
73(5) . . .
75(5) . . .
67(4) . . .
76(5) . . .
73(5) . . .
71(4) . . .
71(4) . . .
67(4) . . .
77(5) . . .
78(5) . . .
74(5) . . .
81(5) . . .
77(5) . . .
66(4) . . .
57(4) . . .
66(5) . . .
64(4) . . .
75(5) . . .
73(4) . . .
86(5) . . .
60(4) . . .
65(4) . . .
70(4) . . .
61(4) . . .
72(5) . . .
72(5) . . .
69(4) . . .
67(4) . . .
71(4) . . .
67(4) . . .
72(5) . . .
80(5) . . .
84(5) . . .
70(5) . . .
70(5) . . .
71(4) . . .
71(4) . . .
63(4) . . .
70(5) . . .
65(4) . . .
71(5) . . .
81(5) . . .
78(5) . . .
71(5) . . .
80(5) . . .
69(4) . . .
70(4) . . .
79(5) . . .
73(5) . . .
74(5) . . .
70(4) . . .
70(4) . . .
69(4) . . .
79(5) . . .
63(4) . . .
65(4) . . .
70(4) . . .
67(4) . . .
85(5) . . .
76(5) . . .
66(4) . . .
75(5) . . .
79(5) . . .
81(5) . . .
80(5) . . .
76(5) . . .
79(5) . . .
76(5) . . .
84(5) . . .
83(5) . . .
67(4) . . .
84(5) . . .
88(5) . . .
84(5) . . .
79(5) . . .
82(5) . . .
65(4) . . .
67(4) . . .
81(5) . . .
84(5) . . .
77(5) . . .
78(5) . . .
78(5) . . .
80(5) . . .
69(4) . . .
78(5) . . .
82(5) . . .
70(4) . . .
82(5) . . .
68(5) . . .
66(4) . . .
69(4) . . .
81(5) . . .
78(5) . . .
73(4) . . .
77(5) . . .
70(4) . . .
72(4) . . .
86(5) . . .
80(5) . . .
65(4) . . .
75(4) . . .
60(4) . . .
65(5) . . .
82(5) . . .
78(5) . . .
82(5) . . .
81(5) . . .
75(5) . . .
81(5) . . .
62(4) . . .
63(4) . . .
69(5) . . .
71(5) . . .
66(4) . . .
74(4) . . .
80(5) . . .
84(5) . . .
76(5) . . .
73(5) . . .
76(5) . . .
73(4) . . .
82(5) . . .
77(5) . . .
65(4) . . .
74(4) . . .
76(5) . . .
82(5) . . .
73(5) . . .
80(5) . . .
77(5) . . .
74(5) . . .
73(5) . . .
75(5) . . .
68(4) . . .
63(4) . . .
69(5) . . .
76(5) . . .
73(5) . . .
75(4) . . .
82(5) . . .
76(5) . . .
69(5) . . .
70(5) . . .
76(5) . . .
80(5) . . .
65(4) . . .
71(5) . . .
62(4) . . .
77(5) . . .
78(5) . . .
73(5) . . .
81(5) . . .
78(5) . . .
67(4) . . .
79(5) . . .
80(5) . . .
72(5) . . .
68(4) . . .
81(5) . . .
86(5) . . .
73(5) . . .
72(5) . . .
61(4) . . .
75(5) . . .
74(4) . . .
65(4) . . .
60(4) . . .
73(5) . . .
74(4) . . .
80(5) . . .
59(4) . . .
78(5) . . .
75(5) . . .
79(5) . . .
64(4) . . .
70(5) . . .
70(5) . . .
73(4) . . .
71(4) . . .
73(5) . . .
72(5) . . .
80(5) . . .
73(5) . . .
65(4) . . .
59(4) . . .
66(5) . . .
70(4) . . .
74(5) . . .
71(4) . . .
64(4) . . .
64(4) . . .
69(4) . . .
64(4) . . .
73(4) . . .
71(4) . . .
90(5) . . .
78(5) . . .
78(5) . . .
67(4) . . .
64(4) . . .
67(5) . . .
73(5) . . .
72(4) . . .
67(4) . . .
71(5) . . .
73(5) . . .
62(4) . . .
57(4) . . .
65(4) . . .
75(5) . . .
71(5) . . .
66(5) . . .
59(4) . . .
57(4) . . .
59(4) . . .
68(5) . . .
64(4) . . .
64(4) . . .
74(5) . . .
67(4) . . .
67(4) . . .
75(5) . . .
79(5) . . .
66(4) . . .
70(5) . . .
72(5) . . .
61(4) . . .
78(5) . . .
58(4) . . .
67(4) . . .
72(5) . . .
65(4) . . .
69(4) . . .
83(5) . . .
71(5) . . .
67(4) . . .
72(5) . . .
66(4) . . .
72(5) . . .
68(5) . . .
81(5) . . .
63(4) . . .
78(5) . . .
69(4) . . .
68(5) . . .
74(5) . . .
73(4) . . .
77(5) . . .
61(4) . . .
74(5) . . .
71(5) . . .
77(5) . . .
67(4) . . .
73(5) . . .
67(5) . . .
70(4) . . .
74(5) . . .
61(4) . . .
79(5) . . .
73(5) . . .
62(4) . . .
66(4) . . .
67(4) . . .
69(4) . . .
61(4) . . .
67(4) . . .
81(5) . . .
70(4) . . .
78(5) . . .
67(4) . . .
73(5) . . .
66(4) . . .
64(4) . . .
80(5) . . .
74(5) . . .
69(5) . . .
68(4) . . .
79(5) . . .
76(5) . . .
66(4) . . .
87(5) . . .
71(4) . . .
69(5) . . .
72(5) . . .
77(5) . . .
65(4) . . .
72(4) . . .
79(5) . . .
70(5) . . .
76(5) . . .
74(4) . . .
75(5) . . .
69(5) . . .
79(5) . . .
76(5) . . .
90(5) . . .
73(5) . . .
70(5) . . .
62(4) . . .
69(4) . . .
69(4) . . .
75(5) . . .
70(4) . . .
80(5) . . .
67(5) . . .
58(4) . . .
63(4) . . .
75(5) . . .
73(5) . . .
78(5) . . .
72(4) . . .
69(4) . . .
68(4) . . .
71(5) . . .
59(4) . . .
74(4) . . .
75(5) . . .
79(5) . . .
68(5) . . .
70(4) . . .
72(4) . . .
76(5) . . .
72(4) . . .
72(5) . . .
62(4) . . .
68(4) . . .
76(5) . . .
63(4) . . .
69(4) . . .
66(4) . . .
69(4) . . .
69(4) . . .
70(5) . . .
65(4) . . .
79(5) . . .
74(4) . . .
84(5) . . .
81(5) . . .
79(5) . . .
76(5) . . .
71(4) . . .
64(4) . . .
77(5) . . .
72(5) . . .
81(5) . . .
72(4) . . .
63(4) . . .
84(5) . . .
71(5) . . .
68(4) . . .
75(5) . . .
66(4) . . .
70(4) . . .
67(4) . . .
73(5) . . .
62(4) . . .
68(5) . . .
72(5) . . .
71(5) . . .
76(5) . . .
81(5) . . .
63(4) . . .
66(4) . . .
66(4) . . .
65(4) . . .
64(4) . . .
72(4) . . .
77(5) . . .
78(5) . . .
70(4) . . .
69(4) . . .
76(5) . . .
60(4) . . .
63(4) . . .
65(4) . . .
77(5) . . .
81(5) . . .
76(5) . . .
80(5) . . .
66(4) . . .
78(5) . . .
76(5) . . .
61(4) . . .
61(4) . . .
61(4) . . .
79(5) . . .
62(4) . . .
70(4) . . .
64(4) . . .
70(4) . . .
69(5) . . .
66(5) . . .
75(5) . . .
80(5) . . .
67(4) . . .
73(5) . . .
85(5) . . .
84(5) . . .
86(5) . . .
77(5) . . .
71(4) . . .
71(5) . . .
68(4) . . .
69(4) . . .
77(5) . . .
88(5) . . .
79(5) . . .
77(5) . . .
74(5) . . .
72(4) . . .
74(5) . . .
69(5) . . .
72(5) . . .
67(4) . . .
51(4) . . .
61(4) . . .
67(4) . . .
80(5) . . .
64(4) . . .
75(5) . . .
66(4) . . .
69(5) . . .
69(4) . . .
71(4) . . .
58(4) . . .
64(4) . . .
74(5) . . .
65(4) . . .
68(4) . . .
69(4) . . .
67(4) . . .
72(5) . . .
77(5) . . .
75(5) . . .
73(5) . . .
82(5) . . .
75(5) . . .
68(4) . . .
64(4) . . .
77(5) . . .
69(5) . . .
65(4) . . .
69(4) . . .
67(4) . . .
65(5) . . .
57(4) . . .
64(4) . . .
65(4) . . .
77(5) . . .
74(5) . . .
68(5) . . .
74(5) . . .
65(4) . . .
78(5) . . .
71(5) . . .
61(4) . . .
77(5) . . .
62(4) . . .
73(5) . . .
67(4) . . .
58(4) . . .
65(4) . . .
72(4) . . .
67(4) . . .
61(4) . . .
74(5) . . .
67(4) . . .
63(4) . . .
65(4) . . .
71(5) . . .
66(4) . . .
82(5) . . .
66(4) . . .
68(5) . . .
70(5) . . .
68(5) . . .
64(4) . . .
74(4) . . .
61(4) . . .
63(4) . . .
66(4) . . .
71(4) . . .
60(4) . . .
69(4) . . .
69(5) . . .
65(4) . . .
57(4) . . .
68(4) . . .
70(5) . . .
64(4) . . .
67(5) . . .
62(4) . . .
59(4) . . .
66(4) . . .
80(5) . . .
69(5) . . .
71(5) . . .
59(4) . . .
64(4) . . .
70(5) . . .
62(4) . . .
67(4) . . .
73(4) . . .
74(5) . . .
77(5) . . .
73(4) . . .
63(4) . . .
70(4) . . .
81(5) . . .
66(4) . . .
58(4) . . .
58(4) . . .
76(5) . . .
70(5) . . .
69(4) . . .
73(4) . . .
67(4) . . .
79(5) . . .
63(4) . . .
59(4) . . .
65(4) . . .
74(4) . . .
63(4) . . .
71(5) . . .
71(4) . . .
64(4) . . .
70(4) . . .
63(4) . . .
62(4) . . .
70(5) . . .
74(5) . . .
74(4) . . .
70(5) . . .
66(4) . . .
68(4) . . .
67(4) . . .
65(4) . . .
74(5) . . .
65(4) . . .
71(5) . . .
78(5) . . .
73(4) . . .
68(4) . . .
68(5) . . .
65(4) . . .
65(4) . . .
59(4) . . .
69(4) . . .
65(4) . . .
76(5) . . .
67(4) . . .
68(4) . . .
66(4) . . .
64(4) . . .
59(4) . . .
70(4) . . .
89(5) . . .
82(5) . . .
68(4) . . .
59(4) . . .
64(4) . . .
57(4) . . .
68(4) . . .
74(5) . . .
62(4) . . .
52(4) . . .
59(4) . . .
68(4) . . .
62(4) . . .
57(4) . . .
65(4) . . .
69(5) . . .
72(5) . . .
80(5) . . .
69(4) . . .
66(4) . . .
62(4) . . .
73(5) . . .
65(4) . . .
68(5) . . .
68(4) . . .
66(4) . . .
72(5) . . .
85(5) . . .
76(5) . . .
62(4) . . .
75(5) . . .
69(5) . . .
70(5) . . .
67(4) . . .
72(4) . . .
71(5) . . .
80(5) . . .
71(5) . . .
62(4) . . .
78(5) . . .
81(5) . . .
70(5) . . .
76(5) . . .
68(4) . . .
68(4) . . .
73(5) . . .
71(5) . . .
62(4) . . .
68(4) . . .
77(5) . . .
65(5) . . .
59(4) . . .
61(4) . . .
63(4) . . .
77(5) . . .
70(5) . . .
68(5) . . .
57(4) . . .
70(4) . . .
57(4) . . .
67(4) . . .
62(4) . . .
64(4) . . .
76(5) . . .
67(4) . . .
68(5) . . .
67(4) . . .
74(5) . . .
57(4) . . .
62(4) . . .
75(5) . . .
79(5) . . .
66(4) . . .
65(5) . . .
70(4) . . .
64(4) . . .
81(5) . . .
63(4) . . .
61(4) . . .
73(5) . . .
74(5) . . .
66(4) . . .
76(5) . . .
72(5) . . .
77(5) . . .
68(4) . . .
81(5) . . .
80(5) . . .
78(5) . . .
64(4) . . .
68(4) . . .
69(4) . . .
69(5) . . .
65(4) . . .
68(4) . . .
72(4) . . .
64(4) . . .
70(5) . . .
74(5) . . .
83(5) . . .
74(4) . . .
70(4) . . .
77(5) . . .
71(5) . . .
63(4) . . .
62(4) . . .
58(4) . . .
69(4) . . .
70(5) . . .
63(4) . . .
66(4) . . .
59(4) . . .
69(5) . . .
59(4) . . .
72(5) . . .
68(4) . . .
73(5) . . .
70(4) . . .
67(4) . . .
72(4) . . .
71(4) . . .
66(5) . . .
62(4) . . .
66(4) . . .
60(4) . . .
72(4) . . .
57(4) . . .
71(5) . . .
67(5) . . .
68(4) . . .
68(4) . . .
69(4) . . .
77(5) . . .
65(4) . . .
72(4) . . .
73(4) . . .
69(5) . . .
65(4) . . .
64(4) . . .
77(5) . . .
73(5) . . .
74(5) . . .
71(5) . . .
62(4) . . .
69(4) . . .
70(4) . . .
73(4) . . .
68(4) . . .
66(4) . . .
60(4) . . .
63(4) . . .
69(4) . . .
74(5) . . .
87(5) . . .
67(4) . . .
62(4) . . .
81(5) . . .
78(5) . . .
66(4) . . .
80(5) . . .
78(5) . . .
66(4) . . .
67(5) . . .
63(4) . . .
60(4) . . .
73(5) . . .
73(5) . . .
58(4) . . .
74(5) . . .
71(4) . . .
73(5) . . .
75(5) . . .
76(5) . . .
80(5) . . .
67(4) . . .
68(4) . . .
72(5) . . .
69(4) . . .
74(5) . . .
74(4) . . .
74(5) . . .
73(5) . . .
82(5) . . .
73(5) . . .
67(4) . . .
70(4) . . .
68(5) . . .
53(4) . . .
72(4) . . .
87(5) . . .
67(4) . . .
71(5) . . .
71(5) . . .
74(4) . . .
73(5) . . .
83(5) . . .
67(4) . . .
66(4) . . .
64(4) . . .
80(5) . . .
62(4) . . .
66(5) . . .
65(4) . . .
67(4) . . .
77(5) . . .
66(4) . . .
66(4) . . .
74(5) . . .
70(4) . . .
76(5) . . .
75(5) . . .
69(5) . . .
68(4) . . .
63(4) . . .
69(4) . . .
69(4) . . .
74(5) . . .
67(4) . . .
79(5) . . .
73(4) . . .
81(5) . . .
71(5) . . .
60(4) . . .
69(4) . . .
66(4) . . .
59(4) . . .
63(4) . . .
62(4) . . .
64(4) . . .
73(5) . . .
70(4) . . .
71(5) . . .
75(5) . . .
81(5) . . .
63(4) . . .
68(5) . . .
69(4) . . .
61(4) . . .
60(4) . . .
73(5) . . .
70(5) . . .
63(4) . . .
66(4) . . .
69(4) . . .
71(4) . . .
72(5) . . .
66(4) . . .
61(4) . . .
72(4) . . .
73(5) . . .
74(5) . . .
61(4) . . .
67(4) . . .
67(4) . . .
63(4) . . .
64(5) . . .
56(4) . . .
66(4) . . .
73(4) . . .
72(5) . . .
58(4) . . .
75(5) . . .
68(4) . . .
74(5) . . .
69(4) . . .
70(5) . . .
61(4) . . .
71(4) . . .
66(4) . . .
67(4) . . .
72(5) . . .
65(4) . . .
68(4) . . .
68(4) . . .
76(5) . . .
75(5) . . .
66(4) . . .
63(4) . . .
73(5) . . .
70(5) . . .
63(4) . . .
74(5) . . .
77(5) . . .
64(4) . . .
73(5) . . .
77(5) . . .
68(4) . . .
72(4) . . .
63(4) . . .
69(5) . . .
68(5) . . .
77(5) . . .
81(5) . . .
71(5) . . .
68(5) . . .
67(4) . . .
58(4) . . .
65(4) . . .
76(5) . . .
71(5) . . .
71(4) . . .
67(4) . . .
75(4) . . .
72(4) . . .
58(4) . . .
70(5) . . .
70(4) . . .
65(4) . . .
70(5) . . .
69(5) . . .
56(4) . . .
68(4) . . .
62(4) . . .
71(5) . . .
63(4) . . .
63(4) . . .
70(4) . . .
67(4) . . .
74(5) . . .
59(4) . . .
68(4) . . .
73(4) . . .
68(4) . . .
60(4) . . .
64(4) . . .
69(4) . . .
66(4) . . .
69(4) . . .
71(5) . . .
68(4) . . .
73(4) . . .
65(4) . . .
61(4) . . .
73(5) . . .
77(5) . . .
66(4) . . .
67(4) . . .
61(4) . . .
60(4) . . .
63(4) . . .
64(4) . . .
61(4) . . .
67(5) . . .
73(5) . . .
68(4) . . .
69(4) . . .
85(5) . . .
70(4) . . .
70(5) . . .
70(4) . . .
76(5) . . .
76(5) . . .
73(4) . . .
75(5) . . .
67(4) . . .
70(4) . . .
75(4) . . .
73(4) . . .
65(4) . . .
70(5) . . .
82(5) . . .
72(4) . . .
64(4) . . .
70(5) . . .
62(4) . . .
62(4) . . .
74(4) . . .
74(5) . . .
60(4) . . .
70(5) . . .
67(4) . . .
64(4) . . .
73(5) . . .
69(4) . . .
75(5) . . .
75(5) . . .
70(5) . . .
56(4) . . .
74(5) . . .
75(5) . . .
77(5) . . .
59(4) . . .
72(5) . . .
70(5) . . .
75(5) . . .
65(4) . . .
64(4) . . .
66(4) . . .
62(4) . . .
56(4) . . .
69(4) . . .
65(4) . . .
61(4) . . .
69(4) . . .
68(4) . . .
69(4) . . .
74(5) . . .
75(5) . . .
66(4) . . .
71(4) . . .
86(5) . . .
63(4) . . .
73(5) . . .
74(5) . . .
68(4) . . .
65(4) . . .
67(4) . . .
65(4) . . .
86(5) . . .
73(4) . . .
61(4) . . .
69(5) . . .
69(5) . . .
65(4) . . .
71(4) . . .
80(5) . . .
73(5) . . .
69(5) . . .
67(4) . . .
64(4) . . .
67(4) . . .
70(4) . . .
62(4) . . .
67(4) . . .
69(4) . . .
66(4) . . .
78(5) . . .
60(4) . . .
66(4) . . .
67(4) . . .
72(5) . . .
64(4) . . .
70(5) . . .
76(5) . . .
65(4) . . .
61(4) . . .
69(5) . . .
61(4) . . .
64(4) . . .
66(4) . . .
71(5) . . .
61(4) . . .
63(4) . . .
60(4) . . .
63(4) . . .
72(5) . . .
64(4) . . .
69(4) . . .
64(4) . . .
65(4) . . .
63(4) . . .
64(4) . . .
63(4) . . .
66(4) . . .
75(5) . . .
70(5) . . .
66(4) . . .
65(4) . . .
74(5) . . .
70(4) . . .
64(4) . . .
66(4) . . .
68(5) . . .
68(4) . . .
71(5) . . .
75(5) . . .
65(4) . . .
72(5) . . .
61(4) . . .
70(4) . . .
63(4) . . .
71(5) . . .
58(4) . . .
66(4) . . .
58(4) . . .
68(5) . . .
55(4) . . .
55(4) . . .
69(4) . . .
70(5) . . .
63(5) . . .
66(5) . . .
73(5) . . .
74(4) . . .
74(5) . . .
71(5) . . .
71(5) . . .
66(4) . . .
71(4) . . .
63(4) . . .
62(4) . . .
64(4) . . .
59(4) . . .
70(4) . . .
63(4) . . .
71(5) . . .
79(5) . . .
70(4) . . .
68(4) . . .
57(4) . . .
69(5) . . .
66(4) . . .
75(4) . . .
65(4) . . .
63(4) . . .
68(5) . . .
65(4) . . .
73(4) . . .
71(4) . . .
66(4) . . .
70(4) . . .
61(4) . . .
66(4) . . .
72(4) . . .
62(4) . . .
71(5) . . .
63(4) . . .
62(4) . . .
66(4) . . .
66(4) . . .
59(4) . . .
65(4) . . .
64(4) . . .
68(4) . . .
57(4) . . .
78(5) . . .
81(5) . . .
82(5) . . .
72(5) . . .
59(4) . . .
70(4) . . .
66(4) . . .
67(4) . . .
68(4) . . .
60(4) . . .
85(5) . . .
75(4) . . .
75(4) . . .
73(5) . . .
66(4) . . .
58(4) . . .
63(4) . . .
77(5) . . .
80(5) . . .
70(5) . . .
72(5) . . .
77(5) . . .
64(4) . . .
69(4) . . .
64(5) . . .
78(5) . . .
69(4) . . .
66(4) . . .
81(5) . . .
74(5) . . .
72(4) . . .
68(4) . . .
72(4) . . .
66(4) . . .
72(5) . . .
63(4) . . .
67(4) . . .
69(4) . . .
69(4) . . .
55(4) . . .
74(5) . . .
67(4) . . .
72(4) . . .
68(4) . . .
73(5) . . .
68(4) . . .
66(4) . . .
62(4) . . .
72(5) . . .
73(5) . . .
63(4) . . .
61(4) . . .
63(4) . . .
67(5) . . .
68(5) . . .
69(5) . . .
71(4) . . .
72(5) . . .
64(4) . . .
63(4) . . .
66(4) . . .
58(4) . . .
64(4) . . .
65(4) . . .
63(4) . . .
74(5) . . .
66(4) . . .
74(5) . . .
76(5) . . .
64(4) . . .
64(4) . . .
76(5) . . .
66(4) . . .
72(5) . . .
74(5) . . .
72(4) . . .
67(4) . . .
64(4) . . .
63(4) . . .
66(4) . . .
67(4) . . .
71(4) . . .
65(4) . . .
64(4) . . .
66(4) . . .
64(4) . . .
73(4) . . .
75(5) . . .
69(5) . . .
79(5) . . .
78(5) . . .
74(5) . . .
63(4) . . .
63(4) . . .
62(4) . . .
70(4) . . .
64(4) . . .
58(4) . . .
57(4) . . .
62(4) . . .
83(5) . . .
74(5) . . .
64(4) . . .
64(4) . . .
68(4) . . .
76(5) . . .
71(4) . . .
75(5) . . .
79(5) . . .
76(5) . . .
77(5) . . .
79(5) . . .
66(4) . . .
66(4) . . .
64(4) . . .
64(4) . . .
54(4) . . .
54(4) . . .
66(4) . . .
60(4) . . .
66(4) . . .
72(5) . . .
67(5) . . .
66(4) . . .
73(4) . . .
66(4) . . .
69(5) . . .
59(4) . . .
75(5) . . .
73(4) . . .
55(4) . . .
65(4) . . .
68(4) . . .
63(4) . . .
72(4) . . .
64(4) . . .
69(4) . . .
62(4) . . .
63(4) . . .
66(4) . . .
71(4) . . .
73(5) . . .
73(5) . . .
60(4) . . .
70(4) . . .
71(4) . . .
64(4) . . .
63(4) . . .
72(5) . . .
65(4) . . .
71(4) . . .
75(5) . . .
67(4) . . .
71(5) . . .
60(4) . . .
53(4) . . .
58(4) . . .
69(5) . . .
57(4) . . .
60(4) . . .
65(4) . . .
70(5) . . .
72(5) . . .
70(4) . . .
61(4) . . .
61(4) . . .
66(4) . . .
63(4) . . .
60(4) . . .
66(4) . . .
66(4) . . .
65(5) . . .
64(4) . . .
74(5) . . .
63(4) . . .
62(4) . . .
63(5) . . .
69(4) . . .
72(4) . . .
68(4) . . .
70(5) . . .
63(4) . . .
72(5) . . .
75(5) . . .
65(4) . . .
71(4) . . .
71(5) . . .
67(4) . . .
69(4) . . .
63(4) . . .
70(5) . . .
61(4) . . .
72(5) . . .
64(4) . . .
64(4) . . .
77(5) . . .
66(4) . . .
68(4) . . .
71(4) . . .
71(5) . . .
68(4) . . .
72(5) . . .
66(4) . . .
80(5) . . .
78(5) . . .
74(5) . . .
68(4) . . .
54(4) . . .
73(4) . . .
60(4) . . .
64(5) . . .
56(4) . . .
62(4) . . .
68(4) . . .
75(5) . . .
60(4) . . .
74(5) . . .
74(4) . . .
52(4) . . .
53(4) . . .
72(5) . . .
56(4) . . .
62(4) . . .
79(5) . . .
53(4) . . .
63(4) . . .
72(5) . . .
70(4) . . .
66(4) . . .
62(4) . . .
79(5) . . .
64(4) . . .
63(4) . . .
68(4) . . .
72(5) . . .
72(5) . . .
73(5) . . .
65(4) . . .
73(5) . . .
80(5) . . .
67(4) . . .
58(4) . . .
62(4) . . .
66(4) . . .
69(5) . . .
70(5) . . .
68(4) . . .
55(4) . . .
61(4) . . .
64(4) . . .
65(4) . . .
63(4) . . .
56(4) . . .
57(4) . . .
71(5) . . .
72(5) . . .
67(4) . . .
70(4) . . .
66(4) . . .
64(4) . . .
61(4) . . .
60(4) . . .
74(4) . . .
69(4) . . .
75(5) . . .
63(4) . . .
55(4) . . .
62(4) . . .
67(4) . . .
64(4) . . .
64(4) . . .
62(4) . . .
70(4) . . .
68(4) . . .
70(5) . . .
70(5) . . .
70(4) . . .
70(4) . . .
63(4) . . .
70(5) . . .
69(5) . . .
58(4) . . .
63(4) . . .
59(4) . . .
69(5) . . .
64(4) . . .
62(4) . . .
73(5) . . .
70(5) . . .
57(4) . . .
58(4) . . .
59(4) . . .
63(4) . . .
66(4) . . .
62(4) . . .
64(4) . . .
66(4) . . .
71(5) . . .
67(5) . . .
64(4) . . .
64(4) . . .
63(4) . . .
60(4) . . .
70(4) . . .
63(4) . . .
63(4) . . .
65(4) . . .
69(4) . . .
73(5) . . .
77(5) . . .
74(5) . . .
68(4) . . .
66(4) . . .
64(4) . . .
59(4) . . .
65(4) . . .
53(4) . . .
62(4) . . .
68(5) . . .
75(5) . . .
70(4) . . .
62(4) . . .
63(4) . . .
64(5) . . .
66(4) . . .
66(4) . . .
63(4) . . .
53(4) . . .
66(5) . . .
69(4) . . .
63(4) . . .
72(4) . . .
83(5) . . .
74(5) . . .
59(4) . . .
74(5) . . .
66(4) . . .
62(4) . . .
54(4) . . .
66(4) . . .
62(4) . . .
71(5) . . .
68(5) . . .
65(5) . . .
71(5) . . .
59(4) . . .
63(4) . . .
64(5) . . .
75(5) . . .
56(4) . . .
53(4) . . .
62(4) . . .
70(5) . . .
65(4) . . .
72(5) . . .
55(4) . . .
63(4) . . .
55(4) . . .
64(4) . . .
59(4) . . .
82(5) . . .
72(5) . . .
68(5) . . .
76(5) . . .
62(4) . . .
62(4) . . .
64(4) . . .
65(5) . . .
67(5) . . .
67(5) . . .
56(4) . . .
68(4) . . .
73(5) . . .
67(5) . . .
64(4) . . .
64(4) . . .
62(4) . . .
60(4) . . .
65(4) . . .
63(4) . . .
59(4) . . .
75(5) . . .
69(5) . . .
69(4) . . .
57(4) . . .
76(5) . . .
73(5) . . .
55(4) . . .
77(5) . . .
59(4) . . .
66(4) . . .
85(5) . . .
68(5) . . .
55(4) . . .
61(4) . . .
77(5) . . .
70(4) . . .
69(4) . . .
57(4) . . .
67(4) . . .
51(4) . . .
60(4) . . .
69(4) . . .
65(5) . . .
57(4) . . .
67(4) . . .
73(5) . . .
59(4) . . .
57(4) . . .
61(4) . . .
55(4) . . .
68(5) . . .
67(4) . . .
68(4) . . .
60(4) . . .
67(4) . . .
64(4) . . .
62(4) . . .
64(4) . . .
61(4) . . .
62(4) . . .
68(5) . . .
66(4) . . .
59(4) . . .
66(4) . . .
63(4) . . .
60(4) . . .
67(5) . . .
73(4) . . .
70(4) . . .
67(4) . . .
70(5) . . .
69(4) . . .
67(4) . . .
65(4) . . .
70(4) . . .
72(5) . . .
72(5) . . .
65(4) . . .
61(4) . . .
63(4) . . .
65(4) . . .
61(4) . . .
54(4) . . .
64(4) . . .
60(4) . . .
66(5) . . .
80(5) . . .
66(4) . . .
65(4) . . .
63(4) . . .
70(5) . . .
59(4) . . .
71(4) . . .
65(4) . . .
64(4) . . .
65(4) . . .
75(5) . . .
66(4) . . .
67(4) . . .
69(4) . . .
72(5) . . .
66(4) . . .
57(4) . . .
68(4) . . .
69(5) . . .
58(4) . . .
64(4) . . .
65(4) . . .
60(4) . . .
62(4) . . .
63(4) . . .
63(4) . . .
59(4) . . .
62(4) . . .
68(5) . . .
68(4) . . .
59(4) . . .
60(4) . . .
61(4) . . .
63(4) . . .
78(5) . . .
63(4) . . .
60(4) . . .
61(4) . . .
65(5) . . .
62(4) . . .
72(4) . . .
58(4) . . .
54(4) . . .
57(4) . . .
68(4) . . .
61(4) . . .
71(4) . . .
74(5) . . .
67(4) . . .
67(4) . . .
62(4) . . .
67(4) . . .
69(4) . . .
67(4) . . .
62(4) . . .
62(4) . . .
66(4) . . .
73(5) . . .
69(5) . . .
63(4) . . .
80(5) . . .
72(5) . . .
64(4) . . .
68(4) . . .
72(4) . . .
61(4) . . .
65(4) . . .
71(5) . . .
65(4) . . .
60(4) . . .
71(4) . . .
69(5) . . .
78(5) . . .
65(4) . . .
62(4) . . .
69(4) . . .
64(4) . . .
64(4) . . .
68(4) . . .
62(4) . . .
56(4) . . .
64(4) . . .
70(5) . . .
59(4) . . .
71(4) . . .
63(4) . . .
65(4) . . .
62(4) . . .
58(4) . . .
58(4) . . .
53(4) . . .
55(4) . . .
64(4) . . .
67(4) . . .
53(4) . . .
63(4) . . .
60(4) . . .
61(4) . . .
76(5) . . .
60(4) . . .
70(4) . . .
67(4) . . .
60(4) . . .
59(4) . . .
70(4) . . .
66(4) . . .
65(4) . . .
60(4) . . .
67(4) . . .
58(4) . . .
64(4) . . .
62(4) . . .
65(4) . . .
63(4) . . .
66(4) . . .
66(4) . . .
62(4) . . .
68(4) . . .
71(5) . . .
66(4) . . .
69(4) . . .
68(5) . . .
65(4) . . .
66(4) . . .
65(4) . . .
60(4) . . .
68(5) . . .
64(4) . . .
54(4) . . .
69(4) . . .
67(4) . . .
69(4) . . .
62(4) . . .
80(5) . . .
68(4) . . .
73(4) . . .
62(4) . . .
67(4) . . .
61(4) . . .
61(4) . . .
65(4) . . .
72(5) . . .
65(4) . . .
57(4) . . .
65(4) . . .
59(4) . . .
61(4) . . .
60(4) . . .
56(4) . . .
61(4) . . .
67(4) . . .
67(4) . . .
74(5) . . .
75(4) . . .
66(4) . . .
57(4) . . .
77(5) . . .
72(4) . . .
63(4) . . .
59(4) . . .
71(5) . . .
65(4) . . .
64(4) . . .
67(4) . . .
63(4) . . .
58(4) . . .
62(4) . . .
65(4) . . .
61(4) . . .
66(4) . . .
66(4) . . .
63(4) . . .
69(4) . . .
62(4) . . .
56(4) . . .
59(4) . . .
75(5) . . .
70(4) . . .
63(4) . . .
58(4) . . .
65(5) . . .
63(4) . . .
66(4) . . .
66(4) . . .
56(4) . . .
58(4) . . .
67(4) . . .
58(4) . . .
63(4) . . .
64(4) . . .
65(4) . . .
67(4) . . .
69(4) . . .
72(5) . . .
66(4) . . .
54(4) . . .
63(4) . . .
72(4) . . .
67(4) . . .
66(4) . . .
65(4) . . .
64(4) . . .
73(4) . . .
75(5) . . .
69(5) . . .
70(5) . . .
64(4) . . .
60(4) . . .
67(4) . . .
65(4) . . .
66(4) . . .
68(4) . . .
63(4) . . .
73(5) . . .
60(4) . . .
50(4) . . .
57(4) . . .
79(5) . . .
74(5) . . .
69(5) . . .
65(5) . . .
59(4) . . .
59(4) . . .
58(4) . . .
60(4) . . .
64(4) . . .
70(4) . . .
68(4) . . .
72(5) . . .
61(4) . . .
69(5) . . .
60(4) . . .
60(4) . . .
58(4) . . .
70(5) . . .
64(4) . . .
69(4) . . .
58(4) . . .
60(4) . . .
55(4) . . .
54(4) . . .
66(4) . . .
64(4) . . .
60(4) . . .
61(4) . . .
63(4) . . .
76(5) . . .
64(4) . . .
64(4) . . .
70(5) . . .
68(4) . . .
62(4) . . .
68(4) . . .
57(4) . . .
68(4) . . .
68(4) . . .
65(4) . . .
54(4) . . .
62(4) . . .
55(4) . . .
59(4) . . .
59(4) . . .
56(4) . . .
59(4) . . .
64(4) . . .
67(4) . . .
69(4) . . .
68(4) . . .
68(5) . . .
55(4) . . .
54(4) . . .
60(4) . . .
67(4) . . .
54(4) . . .
55(4) . . .
68(4) . . .
67(4) . . .
63(4) . . .
67(4) . . .
61(4) . . .
68(4) . . .
58(4) . . .
68(5) . . .
70(5) . . .
83(5) . . .
65(4) . . .
60(4) . . .
63(4) . . .
61(4) . . .
62(4) . . .
52(4) . . .
56(4) . . .
62(4) . . .
68(5) . . .
73(5) . . .
61(4) . . .
60(4) . . .
59(4) . . .
54(4) . . .
57(4) . . .
60(4) . . .
68(4) . . .
60(4) . . .
63(4) . . .
69(4) . . .
67(4) . . .
66(4) . . .
62(4) . . .
55(4) . . .
54(4) . . .
66(4) . . .
71(4) . . .
65(4) . . .
64(4) . . .
65(4) . . .
73(4) . . .
59(4) . . .
67(5) . . .
58(4) . . .
62(4) . . .
65(4) . . .
57(4) . . .
62(5) . . .
69(4) . . .
67(4) . . .
62(4) . . .
68(4) . . .
65(4) . . .
64(4) . . .
61(4) . . .
64(4) . . .
54(4) . . .
62(4) . . .
60(4) . . .
57(4) . . .
68(4) . . .
63(4) . . .
65(5) . . .
67(4) . . .
72(4) . . .
72(4) . . .
55(4) . . .
53(4) . . .
55(4) . . .
62(4) . . .
71(5) . . .
68(4) . . .
73(5) . . .
64(4) . . .
52(4) . . .
57(4) . . .
53(4) . . .
62(4) . . .
65(4) . . .
54(4) . . .
47(4) . . .
57(4) . . .
59(4) . . .
67(5) . . .
64(4) . . .
67(5) . . .
66(5) . . .
68(4) . . .
61(4) . . .
57(4) . . .
66(5) . . .
60(4) . . .
74(5) . . .
65(4) . . .
69(4) . . .
61(4) . . .
56(4) . . .
62(4) . . .
48(4) . . .
53(4) . . .
61(4) . . .
66(4) . . .
57(4) . . .
59(4) . . .
60(4) . . .
56(4) . . .
70(5) . . .
57(4) . . .
65(4) . . .
62(4) . . .
68(4) . . .
56(4) . . .
60(4) . . .
72(4) . . .
63(4) . . .
62(4) . . .
71(5) . . .
70(4) . . .
65(4) . . .
55(4) . . .
56(4) . . .
56(4) . . .
61(4) . . .
63(4) . . .
67(4) . . .
66(4) . . .
63(4) . . .
64(4) . . .
59(4) . . .
53(4) . . .
65(4) . . .
65(4) . . .
64(4) . . .
60(4) . . .
71(5) . . .
68(4) . . .
62(4) . . .
66(4) . . .
66(4) . . .
63(4) . . .
48(4) . . .
55(4) . . .
60(4) . . .
62(4) . . .
67(4) . . .
62(4) . . .
67(4) . . .
61(4) . . .
55(4) . . .
64(4) . . .
58(4) . . .
62(4) . . .
67(4) . . .
59(4) . . .
68(4) . . .
61(4) . . .
61(4) . . .
61(4) . . .
61(4) . . .
67(4) . . .
66(5) . . .
69(4) . . .
59(4) . . .
51(4) . . .
58(4) . . .
68(5) . . .
62(4) . . .
63(4) . . .
64(4) . . .
63(4) . . .
60(4) . . .
53(4) . . .
52(4) . . .
62(4) . . .
66(4) . . .
75(5) . . .
59(4) . . .
66(4) . . .
70(5) . . .
66(5) . . .
60(4) . . .
63(4) . . .
54(4) . . .
64(4) . . .
79(5) . . .
63(4) . . .
52(4) . . .
63(4) . . .
59(4) . . .
63(4) . . .
57(4) . . .
59(4) . . .
55(4) . . .
71(5) . . .
58(4) . . .
49(4) . . .
63(4) . . .
63(4) . . .
65(4) . . .
58(4) . . .
53(4) . . .
54(4) . . .
64(4) . . .
58(4) . . .
66(5) . . .
64(4) . . .
66(4) . . .
63(4) . . .
65(4) . . .
58(4) . . .
62(4) . . .
63(4) . . .
70(4) . . .
64(4) . . .
46(4) . . .
57(4) . . .
64(4) . . .
69(4) . . .
65(4) . . .
56(4) . . .
56(4) . . .
60(4) . . .
61(4) . . .
59(4) . . .
72(5) . . .
74(5) . . .
66(4) . . .
70(4) . . .
62(4) . . .
67(4) . . .
64(4) . . .
61(4) . . .
64(4) . . .
56(4) . . .
63(4) . . .
66(4) . . .
57(4) . . .
57(4) . . .
61(4) . . .
67(4) . . .
62(4) . . .
56(4) . . .
60(4) . . .
63(5) . . .
58(4) . . .
53(4) . . .
53(4) . . .
68(4) . . .
69(5) . . .
67(4) . . .
56(4) . . .
64(4) . . .
69(5) . . .
59(4) . . .
60(4) . . .
60(4) . . .
51(4) . . .
61(4) . . .
51(4) . . .
55(4) . . .
51(4) . . .
53(4) . . .
61(4) . . .
65(4) . . .
66(4) . . .
62(4) . . .
61(4) . . .
52(4) . . .
67(5) . . .
56(4) . . .
63(4) . . .
62(4) . . .
49(4) . . .
52(4) . . .
59(4) . . .
74(4) . . .
51(4) . . .
66(5) . . .
60(4) . . .
62(4) . . .
61(4) . . .
57(4) . . .
51(4) . . .
68(5) . . .
59(4) . . .
65(4) . . .
62(4) . . .
64(4) . . .
59(4) . . .
66(4) . . .
56(4) . . .
61(4) . . .
59(4) . . .
61(4) . . .
63(4) . . .
57(4) . . .
62(4) . . .
62(4) . . .
66(4) . . .
71(4) . . .
61(4) . . .
57(4) . . .
59(4) . . .
64(4) . . .
55(4) . . .
57(4) . . .
72(5) . . .
76(5) . . .
72(5) . . .
55(4) . . .
69(4) . . .
74(5) . . .
56(4) . . .
58(4) . . .
68(4) . . .
64(4) . . .
70(5) . . .
54(4) . . .
58(4) . . .
72(4) . . .
61(4) . . .
58(4) . . .
50(4) . . .
71(5) . . .
72(4) . . .
62(4) . . .
69(4) . . .
71(5) . . .
59(4) . . .
65(4) . . .
53(4) . . .
57(4) . . .
63(4) . . .
66(4) . . .
57(4) . . .
64(4) . . .
67(5) . . .
64(4) . . .
78(5) . . .
74(4) . . .
68(4) . . .
60(4) . . .
61(4) . . .
58(4) . . .
64(4) . . .
73(5) . . .
67(4) . . .
62(4) . . .
58(4) . . .
64(4) . . .
59(4) . . .
52(4) . . .
56(4) . . .
54(4) . . .
63(4) . . .
60(4) . . .
58(4) . . .
68(5) . . .
62(4) . . .
63(4) . . .
67(4) . . .
65(4) . . .
57(4) . . .
69(4) . . .
63(4) . . .
55(4) . . .
61(4) . . .
67(5) . . .
72(4) . . .
60(4) . . .
50(4) . . .
60(4) . . .
59(4) . . .
63(4) . . .
69(4) . . .
65(4) . . .
68(5) . . .
65(4) . . .
66(4) . . .
64(4) . . .
61(4) . . .
63(4) . . .
65(4) . . .
64(4) . . .
62(4) . . .
62(4) . . .
61(4) . . .
68(4) . . .
68(4) . . .
58(4) . . .
66(5) . . .
65(4) . . .
60(4) . . .
63(4) . . .
55(4) . . .
65(4) . . .
70(4) . . .
66(4) . . .
65(4) . . .
51(4) . . .
55(4) . . .
55(4) . . .
69(4) . . .
64(4) . . .
54(4) . . .
57(4) . . .
66(4) . . .
53(4) . . .
75(5) . . .
55(4) . . .
73(5) . . .
64(4) . . .
59(4) . . .
64(4) . . .
58(4) . . .
59(4) . . .
56(4) . . .
57(4) . . .
59(4) . . .
70(5) . . .
59(4) . . .
79(5) . . .
60(4) . . .
60(4) . . .
72(5) . . .
72(5) . . .
74(5) . . .
65(4) . . .
68(4) . . .
59(4) . . .
64(4) . . .
61(4) . . .
66(4) . . .
63(4) . . .
55(4) . . .
65(4) . . .
62(4) . . .
53(4) . . .
69(5) . . .
56(4) . . .
64(4) . . .
65(4) . . .
65(4) . . .
63(4) . . .
69(5) . . .
50(4) . . .
58(4) . . .
46.2(35) . . .
58(4) . . .
60(4) . . .
59(4) . . .
65(4) . . .
64(4) . . .
58(4) . . .
74(5) . . .
66(4) . . .
57(4) . . .
63(4) . . .
61(4) . . .
47(4) . . .
56(4) . . .
71(4) . . .
60(4) . . .
63(4) . . .
68(5) . . .
61(4) . . .
60(4) . . .
53(4) . . .
66(4) . . .
66(5) . . .
50(4) . . .
61(4) . . .
68(4) . . .
50(4) . . .
46(4) . . .
59(4) . . .
66(4) . . .
63(4) . . .
59(4) . . .
66(4) . . .
56(4) . . .
62(4) . . .
59(4) . . .
63(4) . . .
65(4) . . .
60(4) . . .
67(4) . . .
73(5) . . .
67(5) . . .
62(4) . . .
63(4) . . .
64(4) . . .
68(4) . . .
60(4) . . .
67(5) . . .
68(4) . . .
67(4) . . .
57(4) . . .
67(5) . . .
73(5) . . .
61(4) . . .
56(4) . . .
56(4) . . .
62(4) . . .
60(4) . . .
51(4) . . .
59(4) . . .
61(4) . . .
60(4) . . .
70(5) . . .
53(4) . . .
63(4) . . .
61(4) . . .
57(4) . . .
64(4) . . .
56(4) . . .
70(5) . . .
60(4) . . .
50(4) . . .
62(4) . . .
59(4) . . .
55(4) . . .
63(4) . . .
56(4) . . .
71(5) . . .
72(4) . . .
64(4) . . .
63(4) . . .
66(4) . . .
57(4) . . .
60(4) . . .
56(4) . . .
55(4) . . .
60(4) . . .
64(4) . . .
49(4) . . .
64(4) . . .
55(4) . . .
64(4) . . .
65(4) . . .
58(4) . . .
67(4) . . .
57(4) . . .
59(4) . . .
65(4) . . .
58(4) . . .
62(4) . . .
65(4) . . .
65(4) . . .
77(5) . . .
58(4) . . .
53(4) . . .
56(4) . . .
69(4) . . .
63(4) . . .
62(4) . . .
63(4) . . .
68(5) . . .
57(4) . . .
64(4) . . .
59(4) . . .
68(5) . . .
72(5) . . .
65(4) . . .
69(4) . . .
61(4) . . .
55(4) . . .
60(4) . . .
60(4) . . .
76(5) . . .
65(4) . . .
65(4) . . .
66(5) . . .
66(5) . . .
58(4) . . .
63(4) . . .
64(4) . . .
58(4) . . .
70(5) . . .
69(4) . . .
67(4) . . .
66(4) . . .
54(4) . . .
58(4) . . .
59(4) . . .
53(4) . . .
61(4) . . .
52(4) . . .
53(4) . . .
57(4) . . .
53(4) . . .
60(4) . . .
64(4) . . .
64(4) . . .
57(4) . . .
54(4) . . .
54(4) . . .
59(4) . . .
57(4) . . .
73(5) . . .
61(4) . . .
65(5) . . .
72(5) . . .
60(4) . . .
53(4) . . .
56(4) . . .
64(4) . . .
66(4) . . .
59(4) . . .
53(4) . . .
61(4) . . .
73(5) . . .
60(4) . . .
69(4) . . .
58(4) . . .
62(4) . . .
70(5) . . .
61(4) . . .
59(4) . . .
60(4) . . .
62(4) . . .
56(4) . . .
68(4) . . .
69(4) . . .
59(4) . . .
66(4) . . .
64(4) . . .
61(4) . . .
59(4) . . .
58(4) . . .
70(5) . . .
63(4) . . .
65(4) . . .
60(4) . . .
53(4) . . .
67(5) . . .
72(5) . . .
52(4) . . .
66(4) . . .
70(4) . . .
55(4) . . .
62(4) . . .
54(4) . . .
57(4) . . .
53(4) . . .
61(4) . . .
62(4) . . .
67(4) . . .
55(4) . . .
60(4) . . .
66(5) . . .
52(4) . . .
65(4) . . .
53(4) . . .
60(4) . . .
52(4) . . .
60(4) . . .
70(4) . . .
61(4) . . .
61(4) . . .
52(4) . . .
59(4) . . .
58(4) . . .
55(4) . . .
59(4) . . .
53(4) . . .
54(4) . . .
53(4) . . .
68(4) . . .
62(4) . . .
63(4) . . .
58(4) . . .
58(4) . . .
55(4) . . .
66(4) . . .
61(4) . . .
67(4) . . .
61(4) . . .
74(5) . . .
56(4) . . .
53(4) . . .
55(4) . . .
60(4) . . .
54(4) . . .
58(4) . . .
54(4) . . .
57(4) . . .
57(4) . . .
64(4) . . .
66(4) . . .
65(4) . . .
59(4) . . .
61(4) . . .
58(4) . . .
51(4) . . .
56(4) . . .
62(4) . . .
74(4) . . .
68(4) . . .
57(4) . . .
55(4) . . .
56(4) . . .
59(4) . . .
55(4) . . .
53(4) . . .
65(4) . . .
51(4) . . .
60(4) . . .
54(4) . . .
61(4) . . .
60(4) . . .
48(4) . . .
57(4) . . .
51(4) . . .
59(4) . . .
67(4) . . .
57(4) . . .
58(4) . . .
63(4) . . .
58(4) . . .
60(4) . . .
62(4) . . .
59(4) . . .
55(4) . . .
53(4) . . .
68(5) . . .
59(4) . . .
53(4) . . .
54(4) . . .
51(4) . . .
53(4) . . .
62(4) . . .
59(4) . . .
56(4) . . .
62(4) . . .
57(4) . . .
54(4) . . .
55(4) . . .
58(4) . . .
61(4) . . .
58(4) . . .
61(4) . . .
60(4) . . .
58(4) . . .
59(4) . . .
61(4) . . .
59(4) . . .
60(4) . . .
71(4) . . .
63(4) . . .
75(5) . . .
62(4) . . .
64(4) . . .
58(4) . . .
59(4) . . .
61(4) . . .
52(4) . . .
58(4) . . .
67(5) . . .
69(4) . . .
58(4) . . .
61(4) . . .
62(4) . . .
59(4) . . .
55(4) . . .
72(4) . . .
59(4) . . .
59(4) . . .
63(4) . . .
56(4) . . .
55(4) . . .
50(4) . . .
68(5) . . .
59(4) . . .
61(4) . . .
67(4) . . .
56(4) . . .
50(4) . . .
55(4) . . .
67(5) . . .
59(4) . . .
63(4) . . .
54(4) . . .
57(4) . . .
59(4) . . .
51(4) . . .
61(4) . . .
57(4) . . .
56(4) . . .
58(4) . . .
69(4) . . .
52(4) . . .
60(4) . . .
62(4) . . .
58(4) . . .
58(4) . . .
59(4) . . .
67(5) . . .
57(4) . . .
62(4) . . .
60(4) . . .
52(4) . . .
71(5) . . .
65(4) . . .
70(4) . . .
66(4) . . .
62(4) . . .
54(4) . . .
53(4) . . .
55(4) . . .
45.6(35) . . .
65(5) . . .
59(4) . . .
58(4) . . .
54(4) . . .
51(4) . . .
69(5) . . .
58(4) . . .
60(4) . . .
63(4) . . .
59(4) . . .
65(4) . . .
58(4) . . .
58(4) . . .
52(4) . . .
60(4) . . .
66(4) . . .
63(4) . . .
53(4) . . .
58(4) . . .
61(4) . . .
59(4) . . .
58(4) . . .
67(4) . . .
56(4) . . .
54(4) . . .
57(4) . . .
62(4) . . .
54(4) . . .
53(4) . . .
74(5) . . .
64(4) . . .
61(4) . . .
61(4) . . .
56(4) . . .
61(4) . . .
63(4) . . .
64(4) . . .
53(4) . . .
62(4) . . .
62(4) . . .
72(5) . . .
62(4) . . .
57(4) . . .
57(4) . . .
66(4) . . .
58(4) . . .
60(4) . . .
64(4) . . .
46.9(35) . . .
60(4) . . .
62(4) . . .
57(4) . . .
60(4) . . .
47(4) . . .
58(4) . . .
55(4) . . .
64(4) . . .
52(4) . . .
66(4) . . .
62(4) . . .
68(5) . . .
48(4) . . .
60(4) . . .
53(4) . . .
54(4) . . .
76(5) . . .
66(4) . . .
53(4) . . .
66(4) . . .
54(4) . . .
58(4) . . .
62(4) . . .
62(4) . . .
64(4) . . .
66(4) . . .
62(4) . . .
64(4) . . .
62(4) . . .
67(4) . . .
53(4) . . .
54(4) . . .
57(4) . . .
61(4) . . .
58(4) . . .
57(4) . . .
57(4) . . .
54(4) . . .
63(4) . . .
65(4) . . .
58(4) . . .
64(4) . . .
63(4) . . .
53(4) . . .
51(4) . . .
67(5) . . .
60(4) . . .
54(4) . . .
45(4) . . .
59(4) . . .
64(5) . . .
62(4) . . .
63(4) . . .
71(4) . . .
65(4) . . .
69(5) . . .
62(4) . . .
70(4) . . .
63(4) . . .
63(4) . . .
61(4) . . .
52(4) . . .
71(4) . . .
62(4) . . .
59(4) . . .
58(4) . . .
59(4) . . .
51(4) . . .
64(4) . . .
64(4) . . .
55(4) . . .
55(4) . . .
64(4) . . .
62(4) . . .
54(4) . . .
60(4) . . .
49(4) . . .
58(4) . . .
53(4) . . .
57(4) . . .
69(5) . . .
55(4) . . .
57(4) . . .
54(4) . . .
57(4) . . .
55(4) . . .
54(4) . . .
63(4) . . .
64(4) . . .
62(4) . . .
64(4) . . .
58(4) . . .
52(4) . . .
57(4) . . .
60(4) . . .
51(4) . . .
46.8(35) . . .
61(4) . . .
65(5) . . .
58(4) . . .
63(4) . . .
59(4) . . .
57(4) . . .
56(4) . . .
58(4) . . .
53(4) . . .
68(4) . . .
57(4) . . .
54(4) . . .
53(4) . . .
56(4) . . .
56(4) . . .
71(5) . . .
55(4) . . .
70(5) . . .
64(4) . . .
66(4) . . .
59(4) . . .
65(4) . . .
66(4) . . .
56(4) . . .
65(4) . . .
53(4) . . .
62(4) . . .
62(4) . . .
65(4) . . .
71(4) . . .
54(4) . . .
68(5) . . .
69(5) . . .
65(4) . . .
59(4) . . .
64(4) . . .
61(4) . . .
57(4) . . .
63(4) . . .
69(4) . . .
70(5) . . .
73(5) . . .
59(4) . . .
51(4) . . .
46(4) . . .
59(4) . . .
52(4) . . .
62(4) . . .
56(4) . . .
62(4) . . .
73(4) . . .
62(4) . . .
61(4) . . .
73(4) . . .
64(4) . . .
50(4) . . .
55(4) . . .
59(4) . . .
65(4) . . .
68(4) . . .
55(4) . . .
61(4) . . .
60(4) . . .
63(4) . . .
62(4) . . .
63(4) . . .
72(5) . . .
58(4) . . .
56(4) . . .
59(4) . . .
66(4) . . .
59(4) . . .
55(4) . . .
59(4) . . .
62(4) . . .
60(4) . . .
56(4) . . .
58(4) . . .
61(4) . . .
58(4) . . .
53(4) . . .
65(4) . . .
57(4) . . .
69(4) . . .
57(4) . . .
57(4) . . .
71(5) . . .
64(4) . . .
68(4) . . .
71(5) . . .
57(4) . . .
70(5) . . .
62(4) . . .
53(4) . . .
60(4) . . .
63(4) . . .
65(5) . . .
61(4) . . .
53(4) . . .
53(4) . . .
58(4) . . .
60(4) . . .
65(4) . . .
65(4) . . .
57(4) . . .
62(4) . . .
52(4) . . .
69(4) . . .
65(4) . . .
56(4) . . .
50(4) . . .
58(4) . . .
53(4) . . .
53(4) . . .
59(4) . . .
71(5) . . .
69(4) . . .
71(4) . . .
66(4) . . .
64(4) . . .
57(4) . . .
63(4) . . .
64(4) . . .
60(4) . . .
52(4) . . .
62(4) . . .
62(4) . . .
60(4) . . .
59(4) . . .
69(5) . . .
72(5) . . .
53(4) . . .
57(4) . . .
65(4) . . .
66(4) . . .
62(4) . . .
60(4) . . .
62(4) . . .
64(4) . . .
65(4) . . .
73(5) . . .
67(4) . . .
70(4) . . .
55(4) . . .
52(4) . . .
57(4) . . .
60(4) . . .
59(4) . . .
61(4) . . .
68(5) . . .
65(4) . . .
54(4) . . .
67(4) . . .
63(4) . . .
68(5) . . .
63(4) . . .
59(4) . . .
63(4) . . .
61(4) . . .
61(4) . . .
58(4) . . .
74(4) . . .
57(4) . . .
68(4) . . .
64(4) . . .
68(4) . . .
65(4) . . .
60(4) . . .
57(4) . . .
56(4) . . .
73(5) . . .
67(4) . . .
54(4) . . .
61(4) . . .
64(4) . . .
63(4) . . .
64(4) . . .
60(4) . . .
60(4) . . .
66(4) . . .
65(4) . . .
67(4) . . .
62(4) . . .
65(4) . . .
59(4) . . .
67(4) . . .
60(4) . . .
52(4) . . .
61(4) . . .
55(4) . . .
48(4) . . .
54(4) . . .
62(4) . . .
62(4) . . .
66(4) . . .
66(4) . . .
61(4) . . .
59(4) . . .
63(5) . . .
69(4) . . .
59(4) . . .
62(4) . . .
62(4) . . .
56(4) . . .
55(4) . . .
57(4) . . .
64(4) . . .
61(4) . . .
54(4) . . .
64(5) . . .
54(4) . . .
52(4) . . .
63(4) . . .
60(4) . . .
59(4) . . .
63(4) . . .
58(4) . . .
57(4) . . .
56(4) . . .
60(4) . . .
60(4) . . .
51(4) . . .
52(4) . . .
55(4) . . .
65(4) . . .
60(4) . . .
58(4) . . .
56(4) . . .
52(4) . . .
75(5) . . .
56(4) . . .
57(4) . . .
56(4) . . .
56(4) . . .
58(4) . . .
62(4) . . .
50(4) . . .
61(4) . . .
58(4) . . .
64(4) . . .
55(4) . . .
58(4) . . .
60(4) . . .
59(4) . . .
59(4) . . .
59(4) . . .
57(4) . . .
71(5) . . .
60(4) . . .
56(4) . . .
66(4) . . .
61(4) . . .
60(4) . . .
64(4) . . .
57(4) . . .
48(4) . . .
54(4) . . .
62(5) . . .
45.8(35) . . .
65(4) . . .
65(4) . . .
60(4) . . .
61(4) . . .
58(4) . . .
59(4) . . .
56(4) . . .
66(4) . . .
62(4) . . .
52(4) . . .
62(4) . . .
70(4) . . .
55(4) . . .
61(4) . . .
62(4) . . .
56(4) . . .
51(4) . . .
64(4) . . .
58(4) . . .
58(4) . . .
54(4) . . .
55(4) . . .
54(4) . . .
64(4) . . .
61(4) . . .
63(4) . . .
57(4) . . .
62(4) . . .
67(5) . . .
56(4) . . .
64(4) . . .
66(4) . . .
55(4) . . .
52(4) . . .
60(4) . . .
65(4) . . .
60(4) . . .
51(4) . . .
49(4) . . .
62(4) . . .
63(4) . . .
64(4) . . .
64(4) . . .
58(4) . . .
51(4) . . .
58(4) . . .
59(4) . . .
59(4) . . .
52(4) . . .
57(4) . . .
54(4) . . .
59(4) . . .
56(4) . . .
57(4) . . .
53(4) . . .
55(4) . . .
48(4) . . .
61(4) . . .
66(4) . . .
66(4) . . .
73(4) . . .
56(4) . . .
58(4) . . .
58(4) . . .
53(4) . . .
54(4) . . .
51(4) . . .
54(4) . . .
53(4) . . .
57(4) . . .
62(4) . . .
61(4) . . .
53(4) . . .
57(4) . . .
60(4) . . .
57(4) . . .
73(5) . . .
64(4) . . .
61(4) . . .
56(4) . . .
60(4) . . .
60(4) . . .
52(4) . . .
58(4) . . .
60(4) . . .
56(4) . . .
58(4) . . .
60(4) . . .
60(4) . . .
67(4) . . .
69(4) . . .
62(4) . . .
64(5) . . .
66(4) . . .
66(4) . . .
58(4) . . .
64(5) . . .
69(4) . . .
66(4) . . .
61(4) . . .
65(4) . . .
60(4) . . .
55(4) . . .
59(4) . . .
49(4) . . .
62(4) . . .
62(4) . . .
54(4) . . .
47(4) . . .
51(4) . . .
57(4) . . .
59(4) . . .
56(4) . . .
57(4) . . .
60(4) . . .
59(4) . . .
65(4) . . .
65(4) . . .
46(4) . . .
64(4) . . .
63(4) . . .
56(4) . . .
62(4) . . .
60(4) . . .
58(4) . . .
48(4) . . .
65(4) . . .
66(5) . . .
66(4) . . .
48(4) . . .
56(4) . . .
55(4) . . .
56(4) . . .
72(5) . . .
56(4) . . .
58(4) . . .
64(4) . . .
57(4) . . .
61(4) . . .
57(4) . . .
55(4) . . .
52(4) . . .
47(4) . . .
54(4) . . .
55(4) . . .
65(5) . . .
58(4) . . .
49(4) . . .
52(4) . . .
64(4) . . .
59(4) . . .
56(4) . . .
52(4) . . .
63(4) . . .
62(4) . . .
63(4) . . .
52(4) . . .
50(4) . . .
52(4) . . .
59(4) . . .
53(4) . . .
54(4) . . .
57(4) . . .
53(4) . . .
57(4) . . .
62(4) . . .
64(4) . . .
70(4) . . .
68(4) . . .
54(4) . . .
56(4) . . .
67(4) . . .
53(4) . . .
58(4) . . .
50(4) . . .
54(4) . . .
50(4) . . .
67(4) . . .
61(4) . . .
58(4) . . .
51(4) . . .
59(4) . . .
54(4) . . .
53(4) . . .
57(4) . . .
54(4) . . .
64(4) . . .
60(4) . . .
59(4) . . .
60(4) . . .
52(4) . . .
64(4) . . .
55(4) . . .
61(4) . . .
50(4) . . .
49(4) . . .
56(4) . . .
50(4) . . .
49(4) . . .
53(4) . . .
51(4) . . .
63(4) . . .
59(4) . . .
58(4) . . .
59(4) . . .
58(4) . . .
56(4) . . .
47(4) . . .
57(4) . . .
59(4) . . .
61(4) . . .
63(4) . . .
55(4) . . .
62(4) . . .
63(4) . . .
62(4) . . .
78(5) . . .
61(4) . . .
59(4) . . .
51(4) . . .
62(4) . . .
54(4) . . .
48(4) . . .
47(4) . . .
48(4) . . .
52(4) . . .
57(4) . . .
58(4) . . .
55(4) . . .
62(4) . . .
58(4) . . .
68(4) . . .
66(5) . . .
60(4) . . .
50(4) . . .
59(4) . . .
57(4) . . .
55(4) . . .
59(4) . . .
53(4) . . .
62(4) . . .
54(4) . . .
49(4) . . .
56(4) . . .
49(4) . . .
54(4) . . .
50(4) . . .
61(4) . . .
60(4) . . .
60(4) . . .
62(4) . . .
63(4) . . .
64(4) . . .
62(4) . . .
57(4) . . .
62(4) . . .
56(4) . . .
69(5) . . .
54(4) . . .
53(4) . . .
76(5) . . .
65(4) . . .
58(4) . . .
60(4) . . .
54(4) . . .
56(4) . . .
57(4) . . .
56(4) . . .
58(4) . . .
70(5) . . .
47(4) . . .
50(4) . . .
51(4) . . .
45(4) . . .
49(4) . . .
63(4) . . .
49(4) . . .
62(4) . . .
61(4) . . .
54(4) . . .
57(4) . . .
57(4) . . .
51(4) . . .
53(4) . . .
66(4) . . .
56(4) . . .
55(4) . . .
54(4) . . .
73(5) . . .
53(4) . . .
59(4) . . .
61(4) . . .
60(4) . . .
51(4) . . .
54(4) . . .
62(4) . . .
61(4) . . .
61(4) . . .
59(4) . . .
64(4) . . .
58(4) . . .
60(4) . . .
54(4) . . .
55(4) . . .
60(4) . . .
59(4) . . .
60(4) . . .
49(4) . . .
43.4(35) . . .
63(4) . . .
58(4) . . .
59(4) . . .
57(4) . . .
61(4) . . .
57(4) . . .
61(4) . . .
66(4) . . .
43.8(35) . . .
53(4) . . .
57(4) . . .
57(4) . . .
62(4) . . .
55(4) . . .
60(4) . . .
63(4) . . .
65(4) . . .
55(4) . . .
62(4) . . .
58(4) . . .
61(4) . . .
65(4) . . .
50(4) . . .
46(4) . . .
56(4) . . .
55(4) . . .
48(4) . . .
67(5) . . .
64(4) . . .
58(4) . . .
58(4) . . .
53(4) . . .
61(4) . . .
54(4) . . .
56(4) . . .
55(4) . . .
55(4) . . .
53(4) . . .
52(4) . . .
52(4) . . .
59(4) . . .
56(4) . . .
43(4) . . .
54(4) . . .
54(4) . . .
48(4) . . .
52(4) . . .
59(4) . . .
56(4) . . .
55(4) . . .
58(4) . . .
56(4) . . .
59(4) . . .
49(4) . . .
62(4) . . .
59(4) . . .
57(4) . . .
68(5) . . .
61(4) . . .
56(4) . . .
66(4) . . .
48(4) . . .
56(4) . . .
56(4) . . .
63(4) . . .
51(4) . . .
63(4) . . .
60(4) . . .
54(4) . . .
61(4) . . .
61(4) . . .
54(4) . . .
57(4) . . .
63(4) . . .
55(4) . . .
61(4) . . .
57(4) . . .
56(4) . . .
48(4) . . .
60(4) . . .
66(4) . . .
71(5) . . .
56(4) . . .
54(4) . . .
67(4) . . .
53(4) . . .
57(4) . . .
63(4) . . .
60(4) . . .
48(4) . . .
55(4) . . .
59(4) . . .
65(5) . . .
59(4) . . .
48(4) . . .
56(4) . . .
63(4) . . .
59(4) . . .
53(4) . . .
56(4) . . .
56(4) . . .
65(4) . . .
68(4) . . .
59(4) . . .
58(4) . . .
53(4) . . .
58(4) . . .
57(4) . . .
56(4) . . .
75(5) . . .
61(4) . . .
62(4) . . .
67(4) . . .
63(4) . . .
48(4) . . .
58(4) . . .
61(4) . . .
50(4) . . .
51(4) . . .
65(4) . . .
51(4) . . .
60(4) . . .
64(4) . . .
64(4) . . .
53(4) . . .
40.3(33) . . .
52(4) . . .
60(4) . . .
65(4) . . .
63(4) . . .
63(5) . . .
56(4) . . .
59(4) . . .
70(4) . . .
58(4) . . .
55(4) . . .
45.5(35) . . .
62(4) . . .
58(4) . . .
64(4) . . .
45(4) . . .
58(4) . . .
56(4) . . .
61(4) . . .
50(4) . . .
51(4) . . .
62(4) . . .
49(4) . . .
55(4) . . .
49(4) . . .
55(4) . . .
69(4) . . .
48(4) . . .
54(4) . . .
57(4) . . .
54(4) . . .
52(4) . . .
56(4) . . .
58(4) . . .
62(4) . . .
70(5) . . .
70(4) . . .
59(4) . . .
56(4) . . .
69(4) . . .
54(4) . . .
56(4) . . .
51(4) . . .
59(4) . . .
57(4) . . .
58(4) . . .
56(4) . . .
50(4) . . .
56(4) . . .
56(4) . . .
56(4) . . .
61(4) . . .
59(4) . . .
52(4) . . .
65(4) . . .
60(4) . . .
65(4) . . .
61(4) . . .
52(4) . . .
57(4) . . .
58(4) . . .
68(4) . . .
66(4) . . .
51(4) . . .
72(5) . . .
58(4) . . .
61(4) . . .
62(4) . . .
64(4) . . .
57(4) . . .
60(4) . . .
49(4) . . .
54(4) . . .
64(4) . . .
53(4) . . .
61(4) . . .
51(4) . . .
55(4) . . .
50(4) . . .
58(4) . . .
63(4) . . .
58(4) . . .
58(4) . . .
56(4) . . .
54(4) . . .
55(4) . . .
55(4) . . .
52(4) . . .
57(4) . . .
65(5) . . .
64(4) . . .
60(4) . . .
55(4) . . .
55(4) . . .
55(4) . . .
60(4) . . .
66(4) . . .
61(4) . . .
54(4) . . .
59(4) . . .
57(4) . . .
57(4) . . .
63(4) . . .
58(4) . . .
55(4) . . .
51(4) . . .
64(4) . . .
57(4) . . .
64(4) . . .
57(4) . . .
58(4) . . .
57(4) . . .
47(4) . . .
52(4) . . .
60(4) . . .
60(4) . . .
60(4) . . .
57(4) . . .
52(4) . . .
61(4) . . .
62(4) . . .
65(4) . . .
47(4) . . .
59(4) . . .
54(4) . . .
55(4) . . .
60(4) . . .
67(5) . . .
59(4) . . .
62(4) . . .
56(4) . . .
61(4) . . .
63(5) . . .
64(4) . . .
61(4) . . .
54(4) . . .
52(4) . . .
54(4) . . .
60(4) . . .
49(4) . . .
56(4) . . .
57(4) . . .
62(4) . . .
58(4) . . .
49(4) . . .
59(4) . . .
59(4) . . .
53(4) . . .
56(4) . . .
48(4) . . .
57(4) . . .
59(4) . . .
66(4) . . .
63(4) . . .
53(4) . . .
65(4) . . .
60(4) . . .
56(4) . . .
65(4) . . .
58(4) . . .
64(4) . . .
54(4) . . .
53(4) . . .
58(4) . . .
53(4) . . .
54(4) . . .
64(4) . . .
57(4) . . .
49(4) . . .
59(4) . . .
63(4) . . .
59(4) . . .
50(4) . . .
56(4) . . .
53(4) . . .
60(4) . . .
64(4) . . .
64(5) . . .
60(4) . . .
61(4) . . .
58(4) . . .
54(4) . . .
58(4) . . .
59(4) . . .
54(4) . . .
52(4) . . .
62(4) . . .
57(4) . . .
58(4) . . .
50(4) . . .
53(4) . . .
58(4) . . .
54(4) . . .
61(4) . . .
61(4) . . .
64(4) . . .
57(4) . . .
47(4) . . .
52(4) . . .
64(4) . . .
60(4) . . .
51(4) . . .
54(4) . . .
45(4) . . .
50(4) . . .
60(4) . . .
60(4) . . .
63(4) . . .
53(4) . . .
46.8(35) . . .
48(4) . . .
57(4) . . .
46(4) . . .
58(4) . . .
59(4) . . .
51(4) . . .
53(4) . . .
59(4) . . .
59(4) . . .
53(4) . . .
56(4) . . .
55(4) . . .
61(4) . . .
51(4) . . .
47(4) . . .
51(4) . . .
58(4) . . .
54(4) . . .
54(4) . . .
52(4) . . .
51(4) . . .
60(4) . . .
55(4) . . .
71(4) . . .
58(4) . . .
70(4) . . .
57(4) . . .
59(4) . . .
72(4) . . .
59(4) . . .
60(4) . . .
56(4) . . .
60(4) . . .
63(4) . . .
56(4) . . .
60(4) . . .
59(4) . . .
55(4) . . .
58(4) . . .
48(4) . . .
61(4) . . .
53(4) . . .
62(4) . . .
55(4) . . .
52(4) . . .
65(5) . . .
62(4) . . .
55(4) . . .
54(4) . . .
64(4) . . .
61(4) . . .
67(4) . . .
48(4) . . .
57(4) . . .
61(4) . . .
58(4) . . .
66(5) . . .
63(4) . . .
70(4) . . .
48(4) . . .
64(5) . . .
57(4) . . .
65(4) . . .
56(4) . . .
58(4) . . .
53(4) . . .
50(4) . . .
53(4) . . .
63(4) . . .
57(4) . . .
64(4) . . .
64(4) . . .
63(4) . . .
48(4) . . .
52(4) . . .
59(4) . . .
66(5) . . .
50(4) . . .
52(4) . . .
51(4) . . .
61(4) . . .
55(4) . . .
59(4) . . .
55(4) . . .
52(4) . . .
61(4) . . .
61(4) . . .
69(4) . . .
60(4) . . .
52(4) . . .
55(4) . . .
59(4) . . .
53(4) . . .
68(4) . . .
55(4) . . .
58(4) . . .
62(4) . . .
65(4) . . .
62(4) . . .
56(4) . . .
55(4) . . .
58(4) . . .
67(4) . . .
43(4) . . .
61(5) . . .
56(4) . . .
55(4) . . .
60(4) . . .
54(4) . . .
54(4) . . .
56(4) . . .
65(4) . . .
62(4) . . .
56(5) . . .
63(5) . . .
60(4) . . .
52(4) . . .
55(4) . . .
58(4) . . .
51(4) . . .
56(4) . . .
60(4) . . .
51(4) . . .
54(4) . . .
55(4) . . .
62(4) . . .
56(4) . . .
50(4) . . .
61(4) . . .
62(4) . . .
65(4) . . .
47(4) . . .
52(4) . . .
48(4) . . .
60(4) . . .
53(4) . . .
63(4) . . .
58(4) . . .
47(4) . . .
53(4) . . .
65(4) . . .
55(4) . . .
60(4) . . .
51(4) . . .
51(4) . . .
67(4) . . .
56(4) . . .
62(5) . . .
57(4) . . .
59(4) . . .
55(4) . . .
40.4(34) . . .
55(4) . . .
54(4) . . .
51(4) . . .
60(4) . . .
56(4) . . .
50(4) . . .
60(5) . . .
50(4) . . .
63(4) . . .
53(4) . . .
55(4) . . .
50(4) . . .
50(4) . . .
53(4) . . .
62(4) . . .
59(4) . . .
52(4) . . .
54(4) . . .
66(4) . . .
48(4) . . .
52(4) . . .
57(4) . . .
52(4) . . .
51(4) . . .
55(4) . . .
54(4) . . .
56(4) . . .
51(4) . . .
57(4) . . .
62(4) . . .
53(4) . . .
55(4) . . .
62(4) . . .
56(4) . . .
52(4) . . .
50(4) . . .
59(4) . . .
59(4) . . .
54(4) . . .
59(4) . . .
57(4) . . .
54(4) . . .
57(4) . . .
61(4) . . .
67(4) . . .
58(4) . . .
53(4) . . .
51(4) . . .
52(4) . . .
47(4) . . .
62(4) . . .
64(4) . . .
52(4) . . .
65(4) . . .
60(4) . . .
60(4) . . .
61(4) . . .
60(4) . . .
54(4) . . .
62(4) . . .
64(4) . . .
64(4) . . .
56(4) . . .
60(4) . . .
56(4) . . .
56(4) . . .
55(4) . . .
44.0(35) . . .
42.5(35) . . .
51(4) . . .
61(4) . . .
60(4) . . .
56(4) . . .
47(4) . . .
55(4) . . .
61(4) . . .
64(4) . . .
59(4) . . .
58(4) . . .
60(4) . . .
63(4) . . .
59(4) . . .
55(4) . . .
55(4) . . .
64(4) . . .
57(4) . . .
57(4) . . .
56(4) . . .
56(4) . . .
61(4) . . .
60(4) . . .
56(4) . . .
57(4) . . .
58(4) . . .
60(4) . . .
46(4) . . .
64(4) . . .
53(4) . . .
52(4) . . .
60(4) . . .
49(4) . . .
55(4) . . .
56(4) . . .
54(4) . . .
53(4) . . .
48(4) . . .
53(4) . . .
63(4) . . .
63(4) . . .
54(4) . . .
58(4) . . .
51(4) . . .
62(4) . . .
52(4) . . .
51(4) . . .
54(4) . . .
59(4) . . .
62(4) . . .
53(4) . . .
56(4) . . .
63(4) . . .
63(4) . . .
54(4) . . .
71(5) . . .
58(4) . . .
60(4) . . .
60(4) . . .
65(4) . . .
56(4) . . .
56(4) . . .
46(4) . . .
55(4) . . .
49(4) . . .
55(4) . . .
45(4) . . .
61(4) . . .
64(4) . . .
61(4) . . .
62(4) . . .
57(4) . . .
60(4) . . .
53(4) . . .
61(4) . . .
55(4) . . .
61(4) . . .
62(4) . . .
60(4) . . .
66(4) . . .
59(4) . . .
51(4) . . .
63(4) . . .
56(4) . . .
54(4) . . .
55(4) . . .
54(4) . . .
55(4) . . .
52(4) . . .
54(4) . . .
56(4) . . .
57(4) . . .
58(4) . . .
61(4) . . .
66(4) . . .
53(4) . . .
66(4) . . .
60(4) . . .
60(4) . . .
63(4) . . .
51(4) . . .
58(4) . . .
63(4) . . .
62(4) . . .
54(4) . . .
48(4) . . .
56(4) . . .
55(4) . . .
54(4) . . .
52(4) . . .
47(4) . . .
53(4) . . .
57(4) . . .
60(4) . . .
59(4) . . .
59(4) . . .
52(4) . . .
53(4) . . .
51(4) . . .
62(4) . . .
64(4) . . .
67(4) . . .
65(4) . . .
58(4) . . .
71(5) . . .
60(4) . . .
53(4) . . .
57(4) . . .
58(4) . . .
58(4) . . .
57(4) . . .
52(4) . . .
56(4) . . .
72(5) . . .
59(4) . . .
61(4) . . .
65(4) . . .
64(4) . . .
61(4) . . .
57(4) . . .
64(4) . . .
64(4) . . .
57(4) . . .
51(4) . . .
44(4) . . .
53(4) . . .
51(4) . . .
61(4) . . .
53(4) . . .
52(4) . . .
60(4) . . .
59(4) . . .
57(4) . . .
40.9(34) . . .
45(4) . . .
54(4) . . .
49(4) . . .
52(4) . . .
59(4) . . .
53(4) . . .
60(4) . . .
42.0(34) . . .
47(4) . . .
58(4) . . .
64(5) . . .
57(4) . . .
55(4) . . .
59(4) . . .
47(4) . . .
62(4) . . .
65(4) . . .
61(4) . . .
56(4) . . .
68(5) . . .
62(4) . . .
66(4) . . .
48(4) . . .
58(4) . . .
60(4) . . .
57(4) . . .
52(4) . . .
49(4) . . .
61(4) . . .
58(5) . . .
53(4) . . .
61(4) . . .
51(4) . . .
60(4) . . .
65(5) . . .
50(4) . . .
52(4) . . .
45.4(35) . . .
54(4) . . .
57(4) . . .
58(4) . . .
55(4) . . .
48(4) . . .
62(4) . . .
51(4) . . .
63(4) . . .
54(4) . . .
58(4) . . .
51(4) . . .
58(4) . . .
59(4) . . .
65(4) . . .
59(4) . . .
56(4) . . .
62(4) . . .
49(4) . . .
62(4) . . .
59(4) . . .
54(4) . . .
57(4) . . .
57(4) . . .
52(4) . . .
58(4) . . .
50(4) . . .
58(4) . . .
57(4) . . .
52(4) . . .
61(4) . . .
55(4) . . .
58(4) . . .
52(4) . . .
60(4) . . .
60(4) . . .
55(4) . . .
58(4) . . .
56(4) . . .
56(4) . . .
59(4) . . .
58(4) . . .
62(4) . . .
51(4) . . .
46(4) . . .
64(4) . . .
65(4) . . .
59(4) . . .
51(4) . . .
53(4) . . .
61(4) . . .
58(4) . . .
49(4) . . .
54(4) . . .
62(4) . . .
48(4) . . .
60(4) . . .
59(4) . . .
57(4) . . .
63(4) . . .
59(4) . . .
50(4) . . .
58(4) . . .
56(4) . . .
52(4) . . .
49(4) . . .
52(4) . . .
49(4) . . .
63(4) . . .
68(4) . . .
65(4) . . .
59(4) . . .
60(4) . . .
41.0(34) . . .
50(4) . . .
48(4) . . .
56(4) . . .
57(4) . . .
63(4) . . .
59(4) . . .
66(4) . . .
57(4) . . .
54(4) . . .
67(4) . . .
54(4) . . .
48(4) . . .
51(4) . . .
49(4) . . .
56(4) . . .
62(4) . . .
52(4) . . .
46(4) . . .
57(4) . . .
46(4) . . .
62(4) . . .
60(4) . . .
53(4) . . .
53(4) . . .
54(4) . . .
57(4) . . .
54(4) . . .
52(4) . . .
50(4) . . .
49(4) . . .
52(4) . . .
59(4) . . .
68(4) . . .
63(4) . . .
64(4) . . .
52(4) . . .
53(4) . . .
51(4) . . .
64(4) . . .
50(4) . . .
57(4) . . .
53(4) . . .
69(4) . . .
73(4) . . .
56(4) . . .
59(4) . . .
58(4) . . .
67(4) . . .
61(4) . . .
65(4) . . .
56(4) . . .
63(4) . . .
61(4) . . .
48(4) . . .
48(4) . . .
52(4) . . .
59(4) . . .
58(4) . . .
65(4) . . .
52(4) . . .
44(4) . . .
63(4) . . .
53(4) . . .
46(4) . . .
55(4) . . .
52(4) . . .
46(4) . . .
59(4) . . .
57(4) . . .
69(4) . . .
60(4) . . .
50(4) . . .
58(4) . . .
46(4) . . .
55(4) . . .
51(4) . . .
51(4) . . .
67(4) . . .
56(4) . . .
60(4) . . .
61(4) . . .
52(4) . . .
57(4) . . .
48(4) . . .
58(4) . . .
62(4) . . .
55(4) . . .
56(4) . . .
58(4) . . .
56(4) . . .
56(4) . . .
74(5) . . .
57(4) . . .
58(4) . . .
51(4) . . .
62(4) . . .
60(4) . . .
58(4) . . .
61(4) . . .
65(4) . . .
58(4) . . .
57(4) . . .
65(4) . . .
58(4) . . .
57(4) . . .
56(4) . . .
59(4) . . .
54(4) . . .
60(4) . . .
55(4) . . .
56(4) . . .
46(4) . . .
47(4) . . .
62(4) . . .
48(4) . . .
50(4) . . .
52(4) . . .
53(4) . . .
52(4) . . .
54(4) . . .
49(4) . . .
55(4) . . .
53(4) . . .
64(4) . . .
65(5) . . .
64(4) . . .
62(4) . . .
60(4) . . .
52(4) . . .
46(4) . . .
50(4) . . .
51(4) . . .
53(4) . . .
48(4) . . .
53(4) . . .
53(4) . . .
52(4) . . .
58(4) . . .
56(4) . . .
58(4) . . .
79(5) . . .
50(4) . . .
52(4) . . .
56(4) . . .
49(4) . . .
52(4) . . .
58(4) . . .
63(4) . . .
58(4) . . .
65(5) . . .
56(4) . . .
64(4) . . .
59(4) . . .
65(5) . . .
57(4) . . .
48(4) . . .
60(4) . . .
55(4) . . .
50(4) . . .
56(4) . . .
55(4) . . .
48(4) . . .
62(4) . . .
60(4) . . .
52(4) . . .
61(4) . . .
54(4) . . .
54(4) . . .
60(4) . . .
59(4) . . .
54(4) . . .
54(4) . . .
57(4) . . .
45(4) . . .
48(4) . . .
62(4) . . .
55(4) . . .
56(4) . . .
61(5) . . .
58(4) . . .
64(4) . . .
64(4) . . .
56(4) . . .
63(4) . . .
59(4) . . .
57(4) . . .
59(4) . . .
54(4) . . .
59(4) . . .
53(4) . . .
52(4) . . .
51(4) . . .
56(4) . . .
50(4) . . .
54(4) . . .
63(4) . . .
49(4) . . .
54(4) . . .
66(4) . . .
66(4) . . .
58(4) . . .
59(4) . . .
64(4) . . .
59(4) . . .
55(4) . . .
51(4) . . .
59(4) . . .
63(5) . . .
59(4) . . .
49(4) . . .
64(4) . . .
63(4) . . .
51(4) . . .
51(4) . . .
65(4) . . .
63(4) . . .
63(4) . . .
62(5) . . .
53(4) . . .
67(4) . . .
61(4) . . .
66(5) . . .
56(4) . . .
67(5) . . .
54(4) . . .
56(4) . . .
60(4) . . .
66(5) . . .
61(4) . . .
58(4) . . .
61(4) . . .
58(4) . . .
55(4) . . .
50(4) . . .
52(4) . . .
51(4) . . .
59(4) . . .
49(4) . . .
50(4) . . .
60(4) . . .
57(4) . . .
49(4) . . .
51(4) . . .
52(4) . . .
65(4) . . .
59(4) . . .
58(4) . . .
58(4) . . .
51(4) . . .
53(4) . . .
52(4) . . .
53(4) . . .
61(4) . . .
54(4) . . .
58(4) . . .
56(4) . . .
46(4) . . .
53(4) . . .
63(4) . . .
60(4) . . .
64(5) . . .
58(4) . . .
54(4) . . .
63(4) . . .
60(4) . . .
56(4) . . .
49(4) . . .
44.5(35) . . .
61(4) . . .
60(4) . . .
58(4) . . .
59(4) . . .
52(4) . . .
62(4) . . .
57(4) . . .
52(4) . . .
53(4) . . .
60(4) . . .
60(4) . . .
62(4) . . .
58(4) . . .
47(4) . . .
54(4) . . .
53(4) . . .
48(4) . . .
54(4) . . .
51(4) . . .
64(5) . . .
58(4) . . .
57(4) . . .
53(4) . . .
54(4) . . .
54(4) . . .
58(4) . . .
60(4) . . .
53(4) . . .
56(4) . . .
59(4) . . .
57(4) . . .
62(4) . . .
52(4) . . .
67(5) . . .
66(4) . . .
58(4) . . .
63(4) . . .
58(4) . . .
59(4) . . .
56(4) . . .
63(4) . . .
55(4) . . .
64(4) . . .
63(4) . . .
57(4) . . .
65(4) . . .
55(4) . . .
52(4) . . .
49(4) . . .
60(4) . . .
61(4) . . .
59(4) . . .
53(4) . . .
56(4) . . .
58(4) . . .
59(4) . . .
52(4) . . .
62(4) . . .
55(4) . . .
69(4) . . .
53(4) . . .
56(4) . . .
59(4) . . .
47(4) . . .
71(4) . . .
60(4) . . .
58(4) . . .
56(4) . . .
55(4) . . .
45.3(35) . . .
50(4) . . .
51(4) . . .
57(4) . . .
58(4) . . .
55(4) . . .
46(4) . . .
50(4) . . .
48(4) . . .
61(4) . . .
58(4) . . .
59(4) . . .
57(4) . . .
48(4) . . .
57(4) . . .
56(4) . . .
68(5) . . .
60(4) . . .
57(4) . . .
70(4) . . .
65(4) . . .
50(4) . . .
58(4) . . .
53(4) . . .
44.8(35) . . .
49(4) . . .
62(4) . . .
56(4) . . .
55(4) . . .
61(4) . . .
51(4) . . .
49(4) . . .
59(4) . . .
47(4) . . .
55(4) . . .
59(4) . . .
62(4) . . .
58(4) . . .
54(4) . . .
59(4) . . .
55(4) . . .
61(4) . . .
54(4) . . .
57(4) . . .
55(4) . . .
54(4) . . .
60(4) . . .
52(4) . . .
53(4) . . .
56(4) . . .
59(4) . . .
64(4) . . .
55(4) . . .
56(4) . . .
49(4) . . .
57(4) . . .
51(4) . . .
51(4) . . .
54(4) . . .
60(4) . . .
64(4) . . .
51(4) . . .
47(4) . . .
50(4) . . .
58(4) . . .
66(4) . . .
51(4) . . .
56(4) . . .
53(4) . . .
54(4) . . .
55(4) . . .
50(4) . . .
54(4) . . .
43.7(34) . . .
42.3(34) . . .
52(4) . . .
53(4) . . .
52(4) . . .
53(4) . . .
67(4) . . .
47(4) . . .
56(4) . . .
59(4) . . .
52(4) . . .
48(4) . . .
47(4) . . .
61(4) . . .
56(4) . . .
64(4) . . .
66(4) . . .
53(4) . . .
62(5) . . .
44.3(35) . . .
49(4) . . .
55(4) . . .
56(4) . . .
58(4) . . .
54(4) . . .
53(4) . . .
53(4) . . .
78(5) . . .
65(4) . . .
56(4) . . .
54(4) . . .
64(4) . . .
63(4) . . .
65(5) . . .
53(4) . . .
57(4) . . .
52(4) . . .
63(4) . . .
62(4) . . .
48(4) . . .
53(4) . . .
59(4) . . .
56(4) . . .
64(4) . . .
58(4) . . .
53(4) . . .
58(4) . . .
53(4) . . .
51(4) . . .
56(4) . . .
58(4) . . .
45(4) . . .
54(4) . . .
51(4) . . .
53(4) . . .
48(4) . . .
53(4) . . .
47(4) . . .
66(4) . . .
72(4) . . .
56(4) . . .
62(4) . . .
57(4) . . .
62(4) . . .
69(4) . . .
45(4) . . .
54(4) . . .
68(5) . . .
59(4) . . .
47(4) . . .
52(4) . . .
66(5) . . .
53(4) . . .
55(4) . . .
47(4) . . .
54(4) . . .
47(4) . . .
55(4) . . .
49(4) . . .
63(4) . . .
52(4) . . .
53(4) . . .
52(4) . . .
54(4) . . .
55(4) . . .
53(4) . . .
58(4) . . .
67(5) . . .
48(4) . . .
54(4) . . .
49(4) . . .
60(4) . . .
57(4) . . .
48(4) . . .
43.7(34) . . .
60(4) . . .
57(4) . . .
53(4) . . .
56(4) . . .
54(4) . . .
66(4) . . .
54(4) . . .
55(4) . . .
56(4) . . .
56(4) . . .
54(4) . . .
61(4) . . .
51(4) . . .
58(4) . . .
58(4) . . .
55(4) . . .
56(4) . . .
62(4) . . .
54(4) . . .
55(4) . . .
57(4) . . .
66(5) . . .
55(4) . . .
65(4) . . .
64(4) . . .
54(4) . . .
45(4) . . .
65(4) . . .
55(4) . . .
55(4) . . .
62(4) . . .
61(4) . . .
59(4) . . .
45.5(35) . . .
60(4) . . .
50(4) . . .
55(4) . . .
49(4) . . .
46(4) . . .
56(4) . . .
56(4) . . .
63(4) . . .
61(4) . . .
54(4) . . .
51(4) . . .
54(4) . . .
65(5) . . .
53(4) . . .
49(4) . . .
59(4) . . .
47(4) . . .
57(4) . . .
52(4) . . .
47(4) . . .
42.6(34) . . .
54(4) . . .
69(5) . . .
59(4) . . .
51(4) . . .
63(4) . . .
57(4) . . .
55(4) . . .
53(4) . . .
58(4) . . .
58(4) . . .
68(4) . . .
56(4) . . .
51(4) . . .
55(4) . . .
53(4) . . .
52(4) . . .
45(4) . . .
51(4) . . .
55(4) . . .
57(4) . . .
54(4) . . .
58(4) . . .
54(4) . . .
49(4) . . .
62(4) . . .
60(4) . . .
58(4) . . .
45.9(35) . . .
51(4) . . .
58(4) . . .
66(5) . . .
60(4) . . .
54(4) . . .
52(4) . . .
51(4) . . .
69(5) . . .
59(4) . . .
53(4) . . .
58(4) . . .
61(5) . . .
44(4) . . .
48(4) . . .
58(4) . . .
58(4) . . .
69(4) . . .
61(4) . . .
48(4) . . .
68(4) . . .
60(4) . . .
44(4) . . .
55(4) . . .
57(4) . . .
58(4) . . .
53(4) . . .
56(4) . . .
52(4) . . .
60(4) . . .
55(4) . . .
62(4) . . .
64(4) . . .
61(4) . . .
61(4) . . .
63(4) . . .
48(4) . . .
59(4) . . .
48(4) . . .
55(4) . . .
52(4) . . .
56(4) . . .
56(4) . . .
57(4) . . .
55(4) . . .
46.6(35) . . .
58(4) . . .
62(4) . . .
62(4) . . .
57(4) . . .
55(4) . . .
59(4) . . .
63(4) . . .
56(4) . . .
57(4) . . .
56(4) . . .
51(4) . . .
54(4) . . .
52(4) . . .
67(4) . . .
58(4) . . .
57(4) . . .
48(4) . . .
58(4) . . .
57(4) . . .
49(4) . . .
69(5) . . .
56(4) . . .
55(4) . . .
50(4) . . .
58(4) . . .
65(4) . . .
63(4) . . .
55(4) . . .
50(4) . . .
57(4) . . .
59(4) . . .
64(4) . . .
58(4) . . .
55(4) . . .
48(4) . . .
62(4) . . .
54(4) . . .
62(4) . . .
64(4) . . .
55(4) . . .
66(5) . . .
63(4) . . .
50(4) . . .
61(4) . . .
60(4) . . .
67(5) . . .
50(4) . . .
61(4) . . .
58(4) . . .
53(4) . . .
51(4) . . .
49(4) . . .
44.7(34) . . .
47(4) . . .
49(4) . . .
59(4) . . .
59(4) . . .
63(4) . . .
52(4) . . .
71(4) . . .
61(4) . . .
54(4) . . .
57(4) . . .
47(4) . . .
61(4) . . .
60(4) . . .
53(4) . . .
63(4) . . .
55(4) . . .
56(4) . . .
61(4) . . .
50(4) . . .
56(4) . . .
53(4) . . .
57(4) . . .
55(4) . . .
58(4) . . .
60(4) . . .
55(4) . . .
59(4) . . .
58(4) . . .
56(4) . . .
55(4) . . .
55(4) . . .
58(4) . . .
45.6(35) . . .
58(4) . . .
55(4) . . .
56(4) . . .
54(4) . . .
60(4) . . .
56(4) . . .
55(4) . . .
58(4) . . .
60(4) . . .
48(4) . . .
55(4) . . .
57(4) . . .
58(4) . . .
52(4) . . .
54(4) . . .
40.9(34) . . .
52(4) . . .
60(4) . . .
54(4) . . .
59(4) . . .
66(4) . . .
43.2(35) . . .
57(4) . . .
51(4) . . .
57(4) . . .
61(4) . . .
47(4) . . .
58(4) . . .
61(4) . . .
50(4) . . .
57(4) . . .
55(4) . . .
56(4) . . .
51(4) . . .
53(4) . . .
52(4) . . .
61(4) . . .
56(4) . . .
48(4) . . .
52(4) . . .
63(4) . . .
64(4) . . .
56(4) . . .
62(4) . . .
59(4) . . .
55(4) . . .
59(4) . . .
61(4) . . .
60(4) . . .
47(4) . . .
54(4) . . .
56(4) . . .
62(4) . . .
64(4) . . .
45.0(35) . . .
52(4) . . .
50(4) . . .
56(4) . . .
57(4) . . .
52(4) . . .
53(4) . . .
46(4) . . .
58(4) . . .
46(4) . . .
50(4) . . .
56(4) . . .
56(4) . . .
57(4) . . .
64(4) . . .
61(4) . . .
59(4) . . .
60(4) . . .
65(4) . . .
61(4) . . .
53(4) . . .
58(4) . . .
55(4) . . .
61(5) . . .
43.4(35) . . .
63(4) . . .
48(4) . . .
50(4) . . .
53(4) . . .
55(4) . . .
54(4) . . .
62(4) . . .
50(4) . . .
50(4) . . .
47(4) . . .
61(4) . . .
54(4) . . .
59(4) . . .
67(5) . . .
52(4) . . .
61(4) . . .
59(4) . . .
60(4) . . .
58(4) . . .
54(4) . . .
65(4) . . .
68(5) . . .
49(4) . . .
48(4) . . .
47(4) . . .
53(4) . . .
55(4) . . .
57(4) . . .
51(4) . . .
55(4) . . .
54(4) . . .
59(4) . . .
49(4) . . .
57(4) . . .
54(4) . . .
57(4) . . .
62(5) . . .
65(5) . . .
59(4) . . .
56(4) . . .
53(4) . . .
60(4) . . .
53(4) . . .
69(5) . . .
59(4) . . .
52(4) . . .
53(4) . . .
56(4) . . .
62(4) . . .
54(4) . . .
48(4) . . .
55(4) . . .
50(4) . . .
60(4) . . .
55(4) . . .
47(4) . . .
51(4) . . .
51(4) . . .
62(4) . . .
57(4) . . .
54(4) . . .
64(4) . . .
63(4) . . .
50(4) . . .
53(4) . . .
62(4) . . .
55(4) . . .
52(4) . . .
51(4) . . .
53(4) . . .
64(5) . . .
46(4) . . .
62(4) . . .
57(4) . . .
56(4) . . .
52(4) . . .
43.2(35) . . .
48(4) . . .
52(4) . . .
56(4) . . .
58(4) . . .
51(4) . . .
56(4) . . .
60(4) . . .
57(4) . . .
52(4) . . .
54(4) . . .
66(4) . . .
48(4) . . .
55(4) . . .
55(4) . . .
65(4) . . .
58(4) . . .
55(4) . . .
68(4) . . .
56(4) . . .
70(5) . . .
60(4) . . .
71(4) . . .
63(4) . . .
55(4) . . .
70(5) . . .
50(4) . . .
48(4) . . .
58(4) . . .
59(4) . . .
50(4) . . .
52(4) . . .
49(4) . . .
68(4) . . .
65(4) . . .
57(4) . . .
62(4) . . .
65(4) . . .
58(4) . . .
51(4) . . .
55(4) . . .
59(4) . . .
49(4) . . .
58(4) . . .
58(4) . . .
57(4) . . .
64(4) . . .
58(4) . . .
53(4) . . .
48(4) . . .
48(4) . . .
52(4) . . .
61(4) . . .
50(4) . . .
53(4) . . .
64(4) . . .
51(4) . . .
57(4) . . .
67(4) . . .
44(4) . . .
49(4) . . .
62(4) . . .
61(4) . . .
54(4) . . .
62(5) . . .
53(4) . . .
65(4) . . .
65(4) . . .
55(4) . . .
62(4) . . .
57(4) . . .
65(4) . . .
57(4) . . .
56(4) . . .
66(4) . . .
59(4) . . .
55(4) . . .
51(4) . . .
55(4) . . .
52(4) . . .
51(4) . . .
48(4) . . .
68(4) . . .
63(4) . . .
56(4) . . .
58(4) . . .
60(4) . . .
58(4) . . .
55(4) . . .
61(4) . . .
59(4) . . .
55(4) . . .
57(4) . . .
59(4) . . .
63(5) . . .
52(4) . . .
51(4) . . .
51(4) . . .
50(4) . . .
49(4) . . .
51(4) . . .
53(4) . . .
58(4) . . .
58(4) . . .
56(4) . . .
55(4) . . .
64(4) . . .
60(4) . . .
52(4) . . .
47(4) . . .
47(4) . . .
59(4) . . .
56(4) . . .
67(5) . . .
64(4) . . .
47(4) . . .
58(4) . . .
62(4) . . .
69(5) . . .
50(4) . . .
65(4) . . .
63(4) . . .
57(4) . . .
52(4) . . .
46(4) . . .
55(4) . . .
43.6(35) . . .
53(4) . . .
50(4) . . .
63(4) . . .
48(4) . . .
54(4) . . .
59(4) . . .
55(4) . . .
57(4) . . .
61(4) . . .
60(4) . . .
52(4) . . .
57(4) . . .
50(4) . . .
45(4) . . .
65(4) . . .
60(4) . . .
53(4) . . .
55(4) . . .
61(4) . . .
59(4) . . .
55(4) . . .
62(4) . . .
51(4) . . .
65(4) . . .
63(4) . . .
61(4) . . .
51(4) . . .
58(4) . . .
58(4) . . .
58(4) . . .
68(5) . . .
54(4) . . .
55(4) . . .
62(4) . . .
62(4) . . .
57(4) . . .
58(4) . . .
54(4) . . .
65(4) . . .
57(4) . . .
58(4) . . .
60(4) . . .
55(4) . . .
65(4) . . .
56(4) . . .
55(4) . . .
61(4) . . .
57(4) . . .
61(4) . . .
61(4) . . .
63(4) . . .
61(4) . . .
66(4) . . .
67(4) . . .
57(4) . . .
54(4) . . .
54(4) . . .
60(4) . . .
66(4) . . .
69(5) . . .
64(4) . . .
50(4) . . .
53(4) . . .
51(4) . . .
43.7(35) . . .
60(4) . . .
46(4) . . .
57(4) . . .
50(4) . . .
55(4) . . .
59(4) . . .
58(4) . . .
52(4) . . .
61(4) . . .
58(4) . . .
55(4) . . .
50(4) . . .
56(4) . . .
66(4) . . .
54(4) . . .
69(4) . . .
63(4) . . .
53(4) . . .
54(4) . . .
49(4) . . .
47(4) . . .
52(4) . . .
57(4) . . .
55(4) . . .
61(4) . . .
54(4) . . .
61(4) . . .
58(4) . . .
62(4) . . .
61(4) . . .
55(4) . . .
62(4) . . .
53(4) . . .
51(4) . . .
56(4) . . .
60(4) . . .
52(4) . . .
54(4) . . .
64(4) . . .
59(4) . . .
53(4) . . .
52(4) . . .
57(4) . . .
61(4) . . .
59(4) . . .
55(4) . . .
57(4) . . .
63(4) . . .
47(4) . . .
44(4) . . .
39.7(33) . . .
63(4) . . .
51(4) . . .
62(4) . . .
60(4) . . .
63(4) . . .
47(4) . . .
53(4) . . .
65(4) . . .
51(4) . . .
55(4) . . .
55(4) . . .
51(4) . . .
52(4) . . .
64(4) . . .
56(4) . . .
44.6(35) . . .
54(4) . . .
63(4) . . .
61(4) . . .
66(4) . . .
55(4) . . .
39.2(33) . . .
55(4) . . .
62(4) . . .
54(4) . . .
58(4) . . .
57(4) . . .
52(4) . . .
53(4) . . .
59(4) . . .
61(4) . . .
66(4) . . .
63(4) . . .
57(4) . . .
61(4) . . .
51(4) . . .
55(4) . . .
49(4) . . .
46(4) . . .
57(4) . . .
52(4) . . .
63(4) . . .
62(4) . . .
54(4) . . .
57(4) . . .
44(4) . . .
56(4) . . .
60(4) . . .
54(4) . . .
54(4) . . .
60(4) . . .
48(4) . . .
54(4) . . .
64(4) . . .
51(4) . . .
58(4) . . .
58(4) . . .
59(4) . . .
51(4) . . .
63(4) . . .
57(4) . . .
48(4) . . .
48(4) . . .
49(4) . . .
62(4) . . .
60(4) . . .
58(4) . . .
52(4) . . .
52(4) . . .
54(4) . . .
53(4) . . .
55(4) . . .
52(4) . . .
51(4) . . .
60(4) . . .
57(4) . . .
59(4) . . .
47(4) . . .
51(4) . . .
54(4) . . .
55(4) . . .
56(4) . . .
38.5(33) . . .
54(4) . . .
55(4) . . .
54(4) . . .
52(4) . . .
61(4) . . .
51(4) . . .
56(4) . . .
52(4) . . .
52(4) . . .
57(4) . . .
54(4) . . .
56(4) . . .
52(4) . . .
49(4) . . .
58(4) . . .
57(4) . . .
52(4) . . .
56(4) . . .
52(4) . . .
56(4) . . .
55(4) . . .
63(4) . . .
55(4) . . .
60(4) . . .
64(4) . . .
56(4) . . .
60(4) . . .
60(4) . . .
58(4) . . .
64(4) . . .
67(4) . . .
59(4) . . .
60(4) . . .
54(4) . . .
43.3(35) . . .
41.4(34) . . .
49(4) . . .
57(4) . . .
61(4) . . .
64(4) . . .
55(4) . . .
59(4) . . .
48(4) . . .
62(4) . . .
48(4) . . .
47(4) . . .
53(4) . . .
56(4) . . .
48(4) . . .
55(4) . . .
50(4) . . .
56(4) . . .
61(4) . . .
61(4) . . .
48(4) . . .
50(4) . . .
56(4) . . .
58(4) . . .
55(4) . . .
61(4) . . .
59(4) . . .
54(4) . . .
54(4) . . .
51(4) . . .
49(4) . . .
60(4) . . .
57(4) . . .
57(4) . . .
59(4) . . .
58(4) . . .
62(4) . . .
57(4) . . .
55(4) . . .
58(4) . . .
60(4) . . .
55(4) . . .
62(4) . . .
56(4) . . .
63(4) . . .
62(4) . . .
56(4) . . .
60(4) . . .
54(4) . . .
51(4) . . .
52(4) . . .
62(4) . . .
57(4) . . .
53(4) . . .
68(4) . . .
49(4) . . .
58(4) . . .
56(4) . . .
57(4) . . .
50(4) . . .
53(4) . . .
66(4) . . .
50(4) . . .
54(4) . . .
71(4) . . .
43.1(35) . . .
53(4) . . .
62(4) . . .
64(4) . . .
59(4) . . .
54(4) . . .
52(4) . . .
43.7(35) . . .
62(4) . . .
49(4) . . .
50(4) . . .
61(4) . . .
53(4) . . .
54(4) . . .
62(4) . . .
54(4) . . .
54(4) . . .
48(4) . . .
60(4) . . .
67(4) . . .
63(4) . . .
53(4) . . .
57(4) . . .
54(4) . . .
51(4) . . .
48(4) . . .
62(4) . . .
61(4) . . .
59(4) . . .
59(4) . . .
67(4) . . .
56(4) . . .
59(4) . . .
48(4) . . .
57(4) . . .
52(4) . . .
50(4) . . .
50(4) . . .
50(4) . . .
51(4) . . .
62(4) . . .
54(4) . . .
57(4) . . .
55(4) . . .
57(4) . . .
55(4) . . .
51(4) . . .
62(4) . . .
54(4) . . .
55(4) . . .
55(4) . . .
54(4) . . .
62(4) . . .
65(4) . . .
55(4) . . .
54(4) . . .
63(4) . . .
50(4) . . .
57(4) . . .
60(4) . . .
60(4) . . .
54(4) . . .
54(4) . . .
59(4) . . .
49(4) . . .
48(4) . . .
53(4) . . .
49(4) . . .
57(4) . . .
51(4) . . .
58(4) . . .
48(4) . . .
54(4) . . .
48(4) . . .
53(4) . . .
48(4) . . .
48(4) . . .
49(4) . . .
55(4) . . .
54(4) . . .
47(4) . . .
54(4) . . .
68(4) . . .
54(4) . . .
67(4) . . .
64(5) . . .
52(4) . . .
55(4) . . .
56(4) . . .
53(4) . . .
56(4) . . .
56(4) . . .
47(4) . . .
57(4) . . .
64(4) . . .
53(4) . . .
61(4) . . .
64(4) . . .
64(4) . . .
52(4) . . .
59(4) . . .
62(4) . . .
54(4) . . .
58(4) . . .
60(4) . . .
58(4) . . .
47(4) . . .
50(4) . . .
64(4) . . .
59(4) . . .
52(4) . . .
47(4) . . .
55(4) . . .
76(5) . . .
52(4) . . .
56(4) . . .
54(4) . . .
60(4) . . .
58(4) . . .
53(4) . . .
59(4) . . .
57(4) . . .
51(4) . . .
55(4) . . .
45(4) . . .
48(4) . . .
57(4) . . .
62(4) . . .
58(4) . . .
55(4) . . .
51(4) . . .
55(4) . . .
61(4) . . .
55(4) . . .
55(4) . . .
62(4) . . .
59(4) . . .
49(4) . . .
53(4) . . .
63(5) . . .
58(4) . . .
53(4) . . .
54(4) . . .
49(4) . . .
58(4) . . .
55(4) . . .
56(4) . . .
63(4) . . .
59(4) . . .
58(4) . . .
57(4) . . .
60(4) . . .
51(4) . . .
63(5) . . .
62(4) . . .
53(4) . . .
64(4) . . .
56(4) . . .
56(4) . . .
54(4) . . .
66(4) . . .
61(4) . . .
55(4) . . .
53(4) . . .
54(4) . . .
49(4) . . .
57(4) . . .
55(4) . . .
54(4) . . .
57(4) . . .
55(4) . . .
59(4) . . .
57(4) . . .
58(4) . . .
54(4) . . .
52(4) . . .
61(4) . . .
55(4) . . .
61(4) . . .
58(4) . . .
61(4) . . .
56(4) . . .
52(4) . . .
59(4) . . .
55(4) . . .
58(4) . . .
45(4) . . .
50(4) . . .
63(4) . . .
60(4) . . .
59(4) . . .
61(4) . . .
55(4) . . .
59(4) . . .
53(4) . . .
64(4) . . .
61(4) . . .
59(4) . . .
54(4) . . .
53(4) . . .
56(4) . . .
49(4) . . .
63(4) . . .
59(4) . . .
58(4) . . .
53(4) . . .
52(4) . . .
54(4) . . .
55(4) . . .
53(4) . . .
53(4) . . .
66(4) . . .
52(4) . . .
52(4) . . .
52(4) . . .
53(4) . . .
56(4) . . .
57(4) . . .
54(4) . . .
55(4) . . .
61(4) . . .
55(4) . . .
66(4) . . .
53(4) . . .
57(4) . . .
57(4) . . .
57(4) . . .
64(4) . . .
67(4) . . .
60(4) . . .
58(4) . . .
61(4) . . .
61(4) . . .
55(4) . . .
58(4) . . .
52(4) . . .
49(4) . . .
54(4) . . .
48(4) . . .
52(4) . . .
61(4) . . .
42.5(35) . . .
53(4) . . .
59(4) . . .
50(4) . . .
52(4) . . .
49(4) . . .
55(4) . . .
59(4) . . .
61(4) . . .
61(4) . . .
58(4) . . .
67(5) . . .
59(4) . . .
58(4) . . .
56(4) . . .
53(4) . . .
50(4) . . .
52(4) . . .
51(4) . . .
61(4) . . .
50(4) . . .
52(4) . . .
52(4) . . .
64(4) . . .
64(4) . . .
56(4) . . .
58(4) . . .
49(4) . . .
48(4) . . .
49(4) . . .
55(4) . . .
53(4) . . .
64(4) . . .
54(4) . . .
50(4) . . .
53(4) . . .
64(4) . . .
53(4) . . .
60(4) . . .
57(4) . . .
62(4) . . .
54(4) . . .
49(4) . . .
50(4) . . .
60(4) . . .
51(4) . . .
62(4) . . .
67(4) . . .
63(4) . . .
67(4) . . .
54(4) . . .
56(4) . . .
57(4) . . .
57(4) . . .
47(4) . . .
54(4) . . .
63(4) . . .
61(4) . . .
53(4) . . .
57(4) . . .
49(4) . . .
56(4) . . .
60(4) . . .
52(4) . . .
54(4) . . .
62(4) . . .
57(4) . . .
57(4) . . .
54(4) . . .
52(4) . . .
60(4) . . .
60(4) . . .
64(4) . . .
47(4) . . .
55(4) . . .
55(4) . . .
55(4) . . .
49(4) . . .
59(4) . . .
59(4) . . .
56(4) . . .
53(4) . . .
55(4) . . .
62(4) . . .
56(4) . . .
46(4) . . .
53(4) . . .
56(4) . . .
53(4) . . .
59(4) . . .
61(4) . . .
54(4) . . .
50(4) . . .
48(4) . . .
55(4) . . .
59(4) . . .
62(4) . . .
55(4) . . .
46(4) . . .
57(4) . . .
59(4) . . .
61(4) . . .
57(4) . . .
47(4) . . .
59(4) . . .
64(4) . . .
59(4) . . .
50(4) . . .
51(4) . . .
59(4) . . .
58(4) . . .
53(4) . . .
59(4) . . .
47(4) . . .
53(4) . . .
61(4) . . .
51(4) . . .
49(4) . . .
51(4) . . .
58(4) . . .
70(4) . . .
52(4) . . .
59(4) . . .
57(4) . . .
60(4) . . .
66(4) . . .
57(4) . . .
54(4) . . .
52(4) . . .
52(4) . . .
56(4) . . .
62(4) . . .
61(4) . . .
71(5) . . .
53(4) . . .
66(4) . . .
48(4) . . .
58(4) . . .
45(4) . . .
59(4) . . .
48(4) . . .
57(4) . . .
58(4) . . .
51(4) . . .
53(4) . . .
47(4) . . .
52(4) . . .
54(4) . . .
51(4) . . .
64(4) . . .
63(4) . . .
59(4) . . .
58(4) . . .
52(4) . . .
62(4) . . .
57(4) . . .
56(4) . . .
60(4) . . .
57(4) . . .
61(4) . . .
61(4) . . .
68(4) . . .
66(4) . . .
54(4) . . .
56(4) . . .
50(4) . . .
58(4) . . .
53(4) . . .
49(4) . . .
54(4) . . .
44.0(35) . . .
51(4) . . .
60(4) . . .
66(4) . . .
57(4) . . .
60(4) . . .
59(4) . . .
55(4) . . .
56(4) . . .
53(4) . . .
57(4) . . .
54(4) . . .
53(4) . . .
56(4) . . .
59(4) . . .
42.0(34) . . .
57(4) . . .
66(5) . . .
58(4) . . .
57(4) . . .
58(4) . . .
53(4) . . .
50(4) . . .
59(4) . . .
61(4) . . .
53(4) . . .
58(4) . . .
55(4) . . .
61(4) . . .
58(4) . . .
56(4) . . .
60(4) . . .
49(4) . . .
54(4) . . .
43.2(35) . . .
54(4) . . .
63(4) . . .
51(4) . . .
60(4) . . .
56(4) . . .
55(4) . . .
50(4) . . .
54(4) . . .
58(4) . . .
48(4) . . .
55(4) . . .
48(4) . . .
59(4) . . .
52(4) . . .
44.8(34) . . .
67(4) . . .
63(4) . . .
48(4) . . .
57(4) . . .
56(4) . . .
62(4) . . .
60(4) . . .
69(5) . . .
56(4) . . .
53(4) . . .
55(4) . . .
53(4) . . .
50(4) . . .
60(4) . . .
53(4) . . .
46(4) . . .
47(4) . . .
60(4) . . .
53(4) . . .
58(4) . . .
59(4) . . .
61(4) . . .
52(4) . . .
72(5) . . .
63(4) . . .
49(4) . . .
54(4) . . .
50(4) . . .
55(4) . . .
49(4) . . .
55(4) . . .
52(4) . . .
53(4) . . .
51(4) . . .
53(4) . . .
50(4) . . .
53(4) . . .
53(4) . . .
56(4) . . .
55(4) . . .
49(4) . . .
54(4) . . .
53(4) . . .
60(4) . . .
63(4) . . .
54(4) . . .
54(4) . . .
59(4) . . .
62(4) . . .
63(4) . . .
51(4) . . .
52(4) . . .
57(4) . . .
69(4) . . .
53(4) . . .
49(4) . . .
51(4) . . .
45.5(35) . . .
48(4) . . .
60(4) . . .
53(4) . . .
56(4) . . .
59(4) . . .
53(4) . . .
66(4) . . .
56(4) . . .
56(4) . . .
57(4) . . .
41.7(34) . . .
47(4) . . .
55(4) . . .
63(4) . . .
51(4) . . .
58(4) . . .
57(4) . . .
51(4) . . .
57(4) . . .
57(4) . . .
52(4) . . .
65(4) . . .
49(4) . . .
50(4) . . .
61(4) . . .
61(4) . . .
54(4) . . .
53(4) . . .
57(4) . . .
61(4) . . .
49(4) . . .
56(4) . . .
55(4) . . .
55(4) . . .
61(4) . . .
66(4) . . .
56(4) . . .
64(5) . . .
57(4) . . .
47(4) . . .
61(4) . . .
50(4) . . .
47(4) . . .
51(4) . . .
58(4) . . .
59(4) . . .
63(4) . . .
57(4) . . .
47(4) . . .
50(4) . . .
67(4) . . .
59(4) . . .
60(4) . . .
60(4) . . .
57(4) . . .
46(4) . . .
52(4) . . .
49(4) . . .
55(4) . . .
62(4) . . .
54(4) . . .
65(5) . . .
60(4) . . .
55(4) . . .
61(4) . . .
64(4) . . .
59(4) . . .
46(4) . . .
49(4) . . .
58(4) . . .
62(4) . . .
56(4) . . .
53(4) . . .
54(4) . . .
49(4) . . .
65(4) . . .
52(4) . . .
55(4) . . .
61(4) . . .
62(4) . . .
64(4) . . .
50(4) . . .
62(4) . . .
49(4) . . .
57(4) . . .
51(4) . . .
47(4) . . .
56(4) . . .
56(4) . . .
63(4) . . .
60(4) . . .
52(4) . . .
51(4) . . .
50(4) . . .
46(4) . . .
55(4) . . .
50(4) . . .
56(4) . . .
53(4) . . .
49(4) . . .
52(4) . . .
59(4) . . .
48(4) . . .
67(4) . . .
60(4) . . .
55(4) . . .
55(4) . . .
51(4) . . .
55(4) . . .
50(4) . . .
43(4) . . .
60(4) . . .
59(4) . . .
57(4) . . .
55(4) . . .
59(4) . . .
57(4) . . .
54(4) . . .
64(4) . . .
58(4) . . .
62(4) . . .
59(4) . . .
55(4) . . .
57(4) . . .
61(4) . . .
49(4) . . .
55(4) . . .
57(4) . . .
51(4) . . .
47(4) . . .
61(4) . . .
61(4) . . .
45.2(35) . . .
47(4) . . .
52(4) . . .
47(4) . . .
60(5) . . .
59(4) . . .
51(4) . . .
56(4) . . .
56(4) . . .
54(4) . . .
63(4) . . .
51(4) . . .
55(4) . . .
45.7(35) . . .
53(4) . . .
55(4) . . .
56(4) . . .
59(4) . . .
54(4) . . .
64(4) . . .
67(4) . . .
62(4) . . .
53(4) . . .
50(4) . . .
55(4) . . .
60(4) . . .
49(4) . . .
50(4) . . .
48(4) . . .
41.7(34) . . .
56(4) . . .
62(4) . . .
64(4) . . .
62(4) . . .
51(4) . . .
51(4) . . .
53(4) . . .
48(4) . . .
57(4) . . .
51(4) . . .
52(4) . . .
58(4) . . .
55(4) . . .
54(4) . . .
59(4) . . .
50(4) . . .
45.2(35) . . .
64(4) . . .
58(4) . . .
60(4) . . .
52(4) . . .
59(4) . . .
49(4) . . .
65(4) . . .
55(4) . . .
55(4) . . .
50(4) . . .
49(4) . . .
56(4) . . .
59(4) . . .
50(4) . . .
55(4) . . .
57(4) . . .
47(4) . . .
55(4) . . .
57(4) . . .
55(4) . . .
49(4) . . .
61(4) . . .
63(4) . . .
69(4) . . .
64(4) . . .
66(5) . . .
60(4) . . .
50(4) . . .
44(4) . . .
49(4) . . .
62(4) . . .
59(4) . . .
54(4) . . .
51(4) . . .
64(4) . . .
63(4) . . .
66(4) . . .
50(4) . . .
57(4) . . .
56(4) . . .
56(4) . . .
53(4) . . .
55(4) . . .
44(4) . . .
60(5) . . .
58(4) . . .
56(4) . . .
69(4) . . .
62(4) . . .
51(4) . . .
49(4) . . .
48(4) . . .
48(4) . . .
63(4) . . .
47(4) . . .
51(4) . . .
51(4) . . .
54(4) . . .
56(4) . . .
55(4) . . .
55(4) . . .
60(4) . . .
60(4) . . .
60(4) . . .
52(4) . . .
51(4) . . .
50(4) . . .
52(4) . . .
60(4) . . .
67(4) . . .
62(4) . . .
54(4) . . .
51(4) . . .
59(4) . . .
64(4) . . .
52(4) . . .
61(4) . . .
54(4) . . .
48(4) . . .
55(4) . . .
55(4) . . .
54(4) . . .
62(4) . . .
46(4) . . .
51(4) . . .
60(4) . . .
63(4) . . .
53(4) . . .
56(4) . . .
52(4) . . .
51(4) . . .
56(4) . . .
60(4) . . .
53(4) . . .
58(4) . . .
58(4) . . .
46.5(35) . . .
52(4) . . .
52(4) . . .
57(4) . . .
59(4) . . .
50(4) . . .
51(4) . . .
61(5) . . .
60(4) . . .
64(4) . . .
58(4) . . .
57(4) . . .
61(4) . . .
51(4) . . .
55(4) . . .
58(4) . . .
49(4) . . .
40.9(34) . . .
52(4) . . .
53(4) . . .
54(4) . . .
63(4) . . .
68(4) . . .
60(4) . . .
45.4(35) . . .
44(4) . . .
44(4) . . .
54(4) . . .
49(4) . . .
56(4) . . .
57(4) . . .
53(4) . . .
59(4) . . .
37.8(33) . . .
64(4) . . .
57(4) . . .
51(4) . . .
47(4) . . .
54(4) . . .
53(4) . . .
48(4) . . .
41(4) . . .
61(4) . . .
57(4) . . .
59(4) . . .
56(4) . . .
60(5) . . .
55(4) . . .
53(4) . . .
56(4) . . .
55(4) . . .
54(4) . . .
52(4) . . .
54(4) . . .
56(4) . . .
47(4) . . .
49(4) . . .
51(4) . . .
51(4) . . .
49(4) . . .
57(4) . . .
48(4) . . .
61(4) . . .
54(4) . . .
55(4) . . .
59(4) . . .
62(4) . . .
49(4) . . .
53(4) . . .
56(4) . . .
52(4) . . .
62(4) . . .
75(5) . . .
58(4) . . .
51(4) . . .
48(4) . . .
54(4) . . .
45(4) . . .
54(4) . . .
60(4) . . .
64(4) . . .
63(4) . . .
52(4) . . .
49(4) . . .
51(4) . . .
54(4) . . .
49(4) . . .
50(4) . . .
66(4) . . .
50(4) . . .
51(4) . . .
60(4) . . .
60(4) . . .
60(4) . . .
41.6(34) . . .
51(4) . . .
47.7(35) . . .
50(4) . . .
64(4) . . .
52(4) . . .
50(4) . . .
63(4) . . .
66(4) . . .
57(4) . . .
53(4) . . .
64(4) . . .
57(4) . . .
60(4) . . .
60(4) . . .
51(4) . . .
45(4) . . .
52(4) . . .
57(4) . . .
60(4) . . .
56(4) . . .
56(4) . . .
59(4) . . .
51(4) . . .
48(4) . . .
50(4) . . .
54(4) . . .
47(4) . . .
58(4) . . .
63(4) . . .
65(4) . . .
68(4) . . .
52(4) . . .
62(4) . . .
50(4) . . .
60(4) . . .
51(4) . . .
52(4) . . .
45(4) . . .
59(4) . . .
53(4) . . .
44(4) . . .
45(4) . . .
64(4) . . .
50(4) . . .
47(4) . . .
50(4) . . .
60(4) . . .
56(4) . . .
43.9(34) . . .
53(4) . . .
44.0(35) . . .
55(4) . . .
58(4) . . .
39.7(33) . . .
58(4) . . .
49(4) . . .
43.6(35) . . .
60(4) . . .
55(4) . . .
62(4) . . .
60(4) . . .
57(4) . . .
55(4) . . .
56(4) . . .
49(4) . . .
53(4) . . .
52(4) . . .
54(4) . . .
63(4) . . .
62(4) . . .
58(4) . . .
54(4) . . .
61(4) . . .
57(4) . . .
64(4) . . .
60(4) . . .
66(4) . . .
57(4) . . .
53(4) . . .
52(4) . . .
58(4) . . .
61(4) . . .
52(4) . . .
52(4) . . .
56(4) . . .
53(4) . . .
50(4) . . .
65(4) . . .
58(4) . . .
58(4) . . .
44.7(34) . . .
51(4) . . .
61(4) . . .
60(4) . . .
57(4) . . .
62(4) . . .
59(4) . . .
52(4) . . .
55(4) . . .
55(4) . . .
53(4) . . .
49(4) . . .
60(4) . . .
51(4) . . .
63(4) . . .
58(4) . . .
64(4) . . .
62(4) . . .
59(4) . . .
62(4) . . .
58(4) . . .
50(4) . . .
63(4) . . .
51(4) . . .
51(4) . . .
51(4) . . .
59(4) . . .
57(4) . . .
51(4) . . .
48(4) . . .
66(4) . . .
53(4) . . .
56(4) . . .
61(4) . . .
59(4) . . .
45.3(35) . . .
49(4) . . .
69(5) . . .
61(4) . . .
59(4) . . .
62(4) . . .
69(4) . . .
59(4) . . .
64(4) . . .
56(4) . . .
53(4) . . .
42.0(34) . . .
62(4) . . .
55(4) . . .
50(4) . . .
46(4) . . .
52(4) . . .
49(4) . . .
60(4) . . .
65(4) . . .
61(4) . . .
56(4) . . .
68(5) . . .
74(5) . . .
44.1(35) . . .
57(4) . . .
64(4) . . .
54(4) . . .
50(4) . . .
57(4) . . .
50(4) . . .
61(4) . . .
47(4) . . .
54(4) . . .
56(4) . . .
53(4) . . .
51(4) . . .
61(4) . . .
57(4) . . .
54(4) . . .
51(4) . . .
55(4) . . .
59(4) . . .
49(4) . . .
56(4) . . .
53(4) . . .
59(4) . . .
57(4) . . .
56(4) . . .
53(4) . . .
63(4) . . .
52(4) . . .
49(4) . . .
57(4) . . .
69(4) . . .
63(4) . . .
52(4) . . .
55(4) . . .
56(4) . . .
58(4) . . .
57(4) . . .
59(4) . . .
58(4) . . .
55(4) . . .
57(4) . . .
52(4) . . .
54(4) . . .
50(4) . . .
49(4) . . .
57(4) . . .
50(4) . . .
57(4) . . .
56(4) . . .
57(4) . . .
51(4) . . .
54(4) . . .
58(4) . . .
52(4) . . .
57(4) . . .
60(4) . . .
50(4) . . .
41.9(35) . . .
58(4) . . .
52(4) . . .
45(4) . . .
52(4) . . .
52(4) . . .
53(4) . . .
60(4) . . .
56(4) . . .
56(4) . . .
56(4) . . .
52(4) . . .
51(4) . . .
51(4) . . .
42.3(34) . . .
48(4) . . .
49(4) . . .
54(4) . . .
61(4) . . .
63(4) . . .
52(4) . . .
48(4) . . .
47(4) . . .
54(4) . . .
55(4) . . .
53(4) . . .
52(4) . . .
51(4) . . .
56(4) . . .
51(4) . . .
43(4) . . .
56(4) . . .
63(4) . . .
52(4) . . .
60(4) . . .
61(4) . . .
48(4) . . .
52(4) . . .
51(4) . . .
52(4) . . .
49(4) . . .
60(4) . . .
59(4) . . .
56(4) . . .
56(4) . . .
54(4) . . .
47(4) . . .
58(4) . . .
68(5) . . .
56(4) . . .
53(4) . . .
48(4) . . .
49(4) . . .
46(4) . . .
64(4) . . .
73(5) . . .
55(4) . . .
54(4) . . .
57(4) . . .
51(4) . . .
48(4) . . .
58(4) . . .
48(4) . . .
51(4) . . .
51(4) . . .
53(4) . . .
59(4) . . .
54(4) . . .
50(4) . . .
51(4) . . .
56(4) . . .
45(4) . . .
54(4) . . .
49(4) . . .
53(4) . . .
56(4) . . .
63(4) . . .
66(4) . . .
56(4) . . .
59(4) . . .
48(4) . . .
60(4) . . .
71(4) . . .
59(4) . . .
46(4) . . .
43.9(34) . . .
63(4) . . .
48(4) . . .
54(4) . . .
46.1(35) . . .
55(4) . . .
49(4) . . .
55(4) . . .
50(4) . . .
51(4) . . .
53(4) . . .
56(4) . . .
57(4) . . .
49(4) . . .
50(4) . . .
52(4) . . .
45.2(34) . . .
54(4) . . .
49(4) . . .
61(4) . . .
56(4) . . .
48(4) . . .
61(4) . . .
49(4) . . .
41(4) . . .
41.6(33) . . .
63(4) . . .
53(4) . . .
67(5) . . .
60(4) . . .
52(4) . . .
52(4) . . .
45(4) . . .
51(4) . . .
53(4) . . .
55(4) . . .
57(4) . . .
58(4) . . .
51(4) . . .
50(4) . . .
52(4) . . .
63(4) . . .
61(4) . . .
55(4) . . .
53(4) . . .
45(4) . . .
56(4) . . .
54(4) . . .
57(4) . . .
47(4) . . .
55(4) . . .
56(4) . . .
46(4) . . .
53(4) . . .
54(4) . . .
60(4) . . .
68(5) . . .
60(4) . . .
52(4) . . .
56(4) . . .
47(4) . . .
51(4) . . .
49(4) . . .
63(4) . . .
57(4) . . .
54(4) . . .
61(4) . . .
52(4) . . .
58(4) . . .
62(4) . . .
68(4) . . .
44(4) . . .
67(5) . . .
63(4) . . .
53(4) . . .
68(4) . . .
55(4) . . .
58(4) . . .
54(4) . . .
48(4) . . .
55(4) . . .
62(4) . . .
54(4) . . .
48(4) . . .
48(4) . . .
56(4) . . .
54(4) . . .
53(4) . . .
45(4) . . .
60(4) . . .
58(4) . . .
55(4) . . .
52(4) . . .
53(4) . . .
55(4) . . .
52(4) . . .
56(4) . . .
59(4) . . .
45(4) . . .
57(4) . . .
67(4) . . .
59(4) . . .
56(4) . . .
57(4) . . .
61(4) . . .
47(4) . . .
63(4) . . .
56(4) . . .
57(4) . . .
53(4) . . .
52(4) . . .
51(4) . . .
58(4) . . .
53(4) . . .
48(4) . . .
63(4) . . .
48(4) . . .
60(4) . . .
50(4) . . .
49(4) . . .
59(4) . . .
54(4) . . .
57(4) . . .
61(4) . . .
56(4) . . .
58(4) . . .
64(5) . . .
49(4) . . .
52(4) . . .
57(4) . . .
53(4) . . .
57(4) . . .
52(4) . . .
61(4) . . .
63(4) . . .
54(4) . . .
53(4) . . .
52(4) . . .
47(4) . . .
65(4) . . .
59(4) . . .
49(4) . . .
58(4) . . .
62(4) . . .
52(4) . . .
61(4) . . .
58(4) . . .
49(4) . . .
47(4) . . .
53(4) . . .
53(4) . . .
66(4) . . .
59(4) . . .
47(4) . . .
51(4) . . .
46(4) . . .
45(4) . . .
50(4) . . .
55(4) . . .
55(4) . . .
47(4) . . .
47(4) . . .
51(4) . . .
42.1(34) . . .
45(4) . . .
51(4) . . .
55(4) . . .
48(4) . . .
53(4) . . .
44.2(35) . . .
59(4) . . .
60(4) . . .
55(4) . . .
65(4) . . .
54(4) . . .
54(4) . . .
57(4) . . .
60(4) . . .
61(4) . . .
63(4) . . .
60(4) . . .
66(5) . . .
57(4) . . .
44(4) . . .
54(4) . . .
55(4) . . .
54(4) . . .
56(4) . . .
64(4) . . .
55(4) . . .
51(4) . . .
59(4) . . .
54(4) . . .
64(4) . . .
63(4) . . .
58(4) . . .
60(4) . . .
52(4) . . .
49(4) . . .
53(4) . . .
63(5) . . .
56(4) . . .
57(4) . . .
40.9(34) . . .
54(4) . . .
46(4) . . .
44(4) . . .
55(4) . . .
58(4) . . .
55(4) . . .
46(4) . . .
48(4) . . .
56(4) . . .
48(4) . . .
51(4) . . .
50(4) . . .
51(4) . . .
61(4) . . .
55(4) . . .
49(4) . . .
48(4) . . .
50(4) . . .
48(4) . . .
58(4) . . .
56(4) . . .
61(4) . . .
50(4) . . .
58(4) . . .
45(4) . . .
48(4) . . .
56(4) . . .
48(4) . . .
67(4) . . .
65(4) . . .
56(4) . . .
59(4) . . .
55(4) . . .
62(4) . . .
56(4) . . .
54(4) . . .
41.6(33) . . .
58(4) . . .
52(4) . . .
53(4) . . .
54(4) . . .
47(4) . . .
56(4) . . .
61(4) . . .
55(4) . . .
59(4) . . .
61(4) . . .
53(4) . . .
55(4) . . .
62(4) . . .
69(4) . . .
60(4) . . .
60(4) . . .
48(4) . . .
61(4) . . .
58(4) . . .
54(4) . . .
49(4) . . .
49(4) . . .
54(4) . . .
51(4) . . .
45.3(35) . . .
55(4) . . .
49(4) . . .
63(4) . . .
54(4) . . .
48(4) . . .
47(4) . . .
61(4) . . .
61(4) . . .
58(4) . . .
58(4) . . .
54(4) . . .
53(4) . . .
50(4) . . .
57(4) . . .
49(4) . . .
61(4) . . .
55(4) . . .
61(4) . . .
59(4) . . .
49(4) . . .
56(4) . . .
58(4) . . .
56(4) . . .
58(4) . . .
47(4) . . .
56(4) . . .
62(4) . . .
63(4) . . .
61(4) . . .
64(4) . . .
56(4) . . .
63(4) . . .
46(4) . . .
47(4) . . .
53(4) . . .
62(4) . . .
59(4) . . .
52(4) . . .
52(4) . . .
65(4) . . .
61(4) . . .
64(4) . . .
60(4) . . .
61(4) . . .
61(4) . . .
63(4) . . .
49(4) . . .
50(4) . . .
42.8(34) . . .
50(4) . . .
53(4) . . .
51(4) . . .
46(4) . . .
53(4) . . .
55(4) . . .
52(4) . . .
53(4) . . .
63(4) . . .
57(4) . . .
64(4) . . .
62(4) . . .
56(4) . . .
62(4) . . .
59(4) . . .
59(4) . . .
61(4) . . .
61(4) . . .
58(4) . . .
66(4) . . .
71(5) . . .
59(4) . . .
48(4) . . .
48(4) . . .
56(4) . . .
48(4) . . .
45(4) . . .
60(4) . . .
54(4) . . .
54(4) . . .
62(4) . . .
51(4) . . .
52(4) . . .
42.5(34) . . .
59(4) . . .
68(4) . . .
57(4) . . .
53(4) . . .
51(4) . . .
57(4) . . .
49(4) . . .
55(4) . . .
62(4) . . .
53(4) . . .
58(4) . . .
62(4) . . .
52(4) . . .
54(4) . . .
48(4) . . .
44.1(35) . . .
54(4) . . .
56(4) . . .
55(4) . . .
44.2(34) . . .
55(4) . . .
57(4) . . .
65(5) . . .
55(4) . . .
43.0(34) . . .
47(4) . . .
53(4) . . .
48(4) . . .
49(4) . . .
51(4) . . .
49(4) . . .
56(4) . . .
50(4) . . .
57(4) . . .
61(4) . . .
45.2(35) . . .
57(4) . . .
53(4) . . .
59(4) . . .
50(4) . . .
54(4) . . .
65(4) . . .
57(4) . . .
57(4) . . .
54(4) . . .
51(4) . . .
61(4) . . .
58(4) . . .
54(4) . . .
43.5(35) . . .
57(4) . . .
51(4) . . .
51(4) . . .
45.8(35) . . .
49(4) . . .
46(4) . . .
48(4) . . .
51(4) . . .
53(4) . . .
61(4) . . .
49(4) . . .
49(4) . . .
65(5) . . .
48(4) . . .
62(4) . . .
50(4) . . .
65(5) . . .
58(4) . . .
59(4) . . .
59(4) . . .
53(4) . . .
51(4) . . .
55(4) . . .
49(4) . . .
58(4) . . .
63(4) . . .
62(4) . . .
52(4) . . .
60(4) . . .
44.1(35) . . .
49(4) . . .
51(4) . . .
59(4) . . .
58(4) . . .
53(4) . . .
54(4) . . .
46(4) . . .
54(4) . . .
52(4) . . .
53(4) . . .
54(4) . . .
55(4) . . .
60(4) . . .
58(4) . . .
56(4) . . .
56(4) . . .
48(4) . . .
44(4) . . .
51(4) . . .
56(4) . . .
54(4) . . .
47(4) . . .
54(4) . . .
48(4) . . .
46(4) . . .
56(4) . . .
62(4) . . .
63(4) . . .
61(4) . . .
53(4) . . .
53(4) . . .
65(4) . . .
60(4) . . .
57(4) . . .
55(4) . . .
53(4) . . .
47(4) . . .
49(4) . . .
52(4) . . .
48(4) . . .
47(4) . . .
56(4) . . .
54(4) . . .
56(4) . . .
57(4) . . .
56(4) . . .
62(4) . . .
54(4) . . .
48(4) . . .
39.2(34) . . .
53(4) . . .
56(4) . . .
57(4) . . .
57(4) . . .
54(4) . . .
59(4) . . .
60(4) . . .
60(4) . . .
56(4) . . .
54(4) . . .
56(4) . . .
53(4) . . .
47(4) . . .
48(4) . . .
53(4) . . .
54(4) . . .
50(4) . . .
56(4) . . .
51(4) . . .
57(4) . . .
53(4) . . .
50(4) . . .
54(4) . . .
49(4) . . .
57(4) . . .
48(4) . . .
49(4) . . .
53(4) . . .
49(4) . . .
52(4) . . .
56(4) . . .
62(4) . . .
48(4) . . .
48(4) . . .
52(4) . . .
50(4) . . .
61(4) . . .
60(4) . . .
70(5) . . .
60(4) . . .
60(4) . . .
49(4) . . .
54(4) . . .
58(4) . . .
46(4) . . .
53(4) . . .
54(4) . . .
58(4) . . .
52(4) . . .
42(4) . . .
45(4) . . .
58(4) . . .
57(4) . . .
65(4) . . .
60(4) . . .
60(4) . . .
54(4) . . .
54(4) . . .
48(4) . . .
54(4) . . .
62(4) . . .
59(4) . . .
48(4) . . .
54(4) . . .
74(5) . . .
58(4) . . .
59(4) . . .
60(4) . . .
50(4) . . .
56(4) . . .
53(4) . . .
59(4) . . .
71(5) . . .
49(4) . . .
56(4) . . .
43(4) . . .
50(4) . . .
63(4) . . .
51(4) . . .
48(4) . . .
44.7(35) . . .
56(4) . . .
54(4) . . .
51(4) . . .
51(4) . . .
58(4) . . .
61(4) . . .
55(4) . . .
48(4) . . .
42.6(34) . . .
40.8(33) . . .
53(4) . . .
52(4) . . .
58(4) . . .
48(4) . . .
53(4) . . .
60(4) . . .
55(4) . . .
59(4) . . .
47(4) . . .
58(4) . . .
52(4) . . .
48(4) . . .
60(4) . . .
45(4) . . .
53(4) . . .
42.3(34) . . .
52(4) . . .
46(4) . . .
46.0(35) . . .
49(4) . . .
49(4) . . .
51(4) . . .
58(4) . . .
52(4) . . .
63(4) . . .
64(4) . . .
50(4) . . .
57(4) . . .
52(4) . . .
51(4) . . .
52(4) . . .
53(4) . . .
51(4) . . .
45(4) . . .
54(4) . . .
46(4) . . .
54(4) . . .
63(4) . . .
54(4) . . .
75(5) . . .
55(4) . . .
47(4) . . .
48(4) . . .
64(4) . . .
53(4) . . .
49(4) . . .
55(4) . . .
59(4) . . .
53(4) . . .
53(4) . . .
54(4) . . .
61(4) . . .
52(4) . . .
59(4) . . .
50(4) . . .
52(4) . . .
47(4) . . .
52(4) . . .
56(4) . . .
63(4) . . .
55(4) . . .
67(5) . . .
55(4) . . .
52(4) . . .
57(4) . . .
55(4) . . .
59(4) . . .
51(4) . . .
52(4) . . .
57(4) . . .
45(4) . . .
46(4) . . .
43(4) . . .
54(4) . . .
56(4) . . .
56(4) . . .
53(4) . . .
55(4) . . .
56(4) . . .
47(4) . . .
53(4) . . .
56(4) . . .
53(4) . . .
51(4) . . .
53(4) . . .
47(4) . . .
55(4) . . .
52(4) . . .
49(4) . . .
51(4) . . .
51(4) . . .
59(4) . . .
57(4) . . .
46(4) . . .
50(4) . . .
51(4) . . .
54(4) . . .
61(4) . . .
57(4) . . .
55(4) . . .
51(4) . . .
55(4) . . .
54(4) . . .
49(4) . . .
50(4) . . .
62(4) . . .
60(4) . . .
59(4) . . .
49(4) . . .
48(4) . . .
48(4) . . .
57(4) . . .
52(4) . . .
47(4) . . .
63(5) . . .
56(4) . . .
54(4) . . .
57(4) . . .
60(4) . . .
60(4) . . .
50(4) . . .
56(4) . . .
69(4) . . .
59(4) . . .
50(4) . . .
56(4) . . .
68(4) . . .
65(4) . . .
53(4) . . .
52(4) . . .
58(4) . . .
54(4) . . .
41.0(33) . . .
52(4) . . .
57(4) . . .
48(4) . . .
50(4) . . .
62(4) . . .
60(4) . . .
47(4) . . .
58(4) . . .
56(4) . . .
71(4) . . .
65(4) . . .
60(4) . . .
65(4) . . .
55(4) . . .
56(4) . . .
56(4) . . .
52(4) . . .
53(4) . . .
48(4) . . .
50(4) . . .
60(4) . . .
60(4) . . .
59(4) . . .
55(4) . . .
50(4) . . .
63(5) . . .
52(4) . . .
56(4) . . .
49(4) . . .
61(4) . . .
57(4) . . .
50(4) . . .
49(4) . . .
65(4) . . .
56(4) . . .
61(4) . . .
61(4) . . .
53(4) . . .
61(4) . . .
55(4) . . .
53(4) . . .
65(4) . . .
60(4) . . .
46.1(35) . . .
61(4) . . .
63(4) . . .
49(4) . . .
51(4) . . .
58(4) . . .
55(4) . . .
52(4) . . .
57(4) . . .
53(4) . . .
45.5(35) . . .
47(4) . . .
58(4) . . .
54(4) . . .
56(4) . . .
55(4) . . .
55(4) . . .
47(4) . . .
59(4) . . .
56(4) . . .
67(4) . . .
57(4) . . .
58(4) . . .
59(4) . . .
51(4) . . .
58(4) . . .
56(4) . . .
54(4) . . .
57(4) . . .
48(4) . . .
47(4) . . .
62(4) . . .
56(4) . . .
60(4) . . .
68(4) . . .
56(4) . . .
50(4) . . .
49(4) . . .
55(4) . . .
52(4) . . .
54(4) . . .
58(4) . . .
57(4) . . .
50(4) . . .
61(4) . . .
54(4) . . .
52(4) . . .
69(4) . . .
67(4) . . .
52(4) . . .
51(4) . . .
45(4) . . .
48(4) . . .
51(4) . . .
48(4) . . .
47(4) . . .
57(4) . . .
56(4) . . .
56(4) . . .
53(4) . . .
56(4) . . .
57(4) . . .
61(4) . . .
45.4(35) . . .
52(4) . . .
57(4) . . .
50(4) . . .
52(4) . . .
50(4) . . .
62(4) . . .
53(4) . . .
64(5) . . .
63(4) . . .
75(5) . . .
44.3(34) . . .
57(4) . . .
47(4) . . .
51(4) . . .
59(4) . . .
50(4) . . .
61(4) . . .
51(4) . . .
54(4) . . .
55(4) . . .
42(4) . . .
54(4) . . .
67(5) . . .
46(4) . . .
57(4) . . .
64(4) . . .
57(4) . . .
68(5) . . .
60(4) . . .
54(4) . . .
51(4) . . .
54(4) . . .
62(4) . . .
61(4) . . .
63(4) . . .
52(4) . . .
47(4) . . .
63(4) . . .
54(4) . . .
58(4) . . .
58(4) . . .
48(4) . . .
57(4) . . .
52(4) . . .
57(4) . . .
57(4) . . .
59(4) . . .
62(4) . . .
60(4) . . .
52(4) . . .
52(4) . . .
65(5) . . .
66(5) . . .
54(4) . . .
61(4) . . .
45.0(35) . . .
57(4) . . .
45(4) . . .
59(4) . . .
53(4) . . .
53(4) . . .
42.9(35) . . .
43.5(34) . . .
47(4) . . .
44.1(34) . . .
62(4) . . .
61(4) . . .
51(4) . . .
54(4) . . .
59(4) . . .
56(4) . . .
66(4) . . .
59(4) . . .
57(4) . . .
49(4) . . .
55(4) . . .
56(4) . . .
60(4) . . .
53(4) . . .
48(4) . . .
43(4) . . .
54(4) . . .
52(4) . . .
52(4) . . .
52(4) . . .
54(4) . . .
53(4) . . .
59(4) . . .
59(4) . . .
53(4) . . .
49(4) . . .
59(4) . . .
40.1(33) . . .
50(4) . . .
62(4) . . .
55(4) . . .
60(4) . . .
52(4) . . .
56(4) . . .
47(4) . . .
42(4) . . .
58(4) . . .
58(4) . . .
63(4) . . .
62(4) . . .
53(4) . . .
49(4) . . .
53(4) . . .
51(4) . . .
50(4) . . .
61(4) . . .
54(4) . . .
46(4) . . .
53(4) . . .
58(4) . . .
50(4) . . .
51(4) . . .
52(4) . . .
61(4) . . .
57(4) . . .
60(4) . . .
53(4) . . .
54(4) . . .
55(4) . . .
50(4) . . .
58(4) . . .
65(5) . . .
51(4) . . .
51(4) . . .
58(4) . . .
55(4) . . .
50(4) . . .
58(4) . . .
38.4(32) . . .
56(4) . . .
54(4) . . .
61(4) . . .
58(4) . . .
50(4) . . .
49(4) . . .
52(4) . . .
55(4) . . .
54(4) . . .
48(4) . . .
54(4) . . .
52(4) . . .
57(4) . . .
49(4) . . .
58(4) . . .
61(4) . . .
55(4) . . .
49(4) . . .
57(4) . . .
60(4) . . .
66(5) . . .
49(4) . . .
50(4) . . .
47(4) . . .
52(4) . . .
53(4) . . .
50(4) . . .
53(4) . . .
57(4) . . .
57(4) . . .
46(4) . . .
57(4) . . .
58(4) . . .
59(4) . . .
54(4) . . .
53(4) . . .
57(4) . . .
57(4) . . .
58(4) . . .
52(4) . . .
54(4) . . .
51(4) . . .
55(4) . . .
49(4) . . .
51(4) . . .
53(4) . . .
73(5) . . .
49(4) . . .
64(4) . . .
50(4) . . .
52(4) . . .
51(4) . . .
58(4) . . .
54(4) . . .
59(4) . . .
56(4) . . .
51(4) . . .
51(4) . . .
59(4) . . .
47(4) . . .
51(4) . . .
63(4) . . .
58(4) . . .
66(4) . . .
60(4) . . .
57(4) . . .
51(4) . . .
49(4) . . .
54(4) . . .
47(4) . . .
59(4) . . .
55(4) . . .
59(4) . . .
53(4) . . .
54(4) . . .
50(4) . . .
54(4) . . .
59(4) . . .
60(4) . . .
52(4) . . .
49(4) . . .
58(4) . . .
51(4) . . .
58(4) . . .
54(4) . . .
49(4) . . .
49(4) . . .
48(4) . . .
53(4) . . .
54(4) . . .
50(4) . . .
56(4) . . .
56(4) . . .
55(4) . . .
57(4) . . .
47(4) . . .
56(4) . . .
59(4) . . .
50(4) . . .
53(4) . . .
46(4) . . .
57(4) . . .
44.9(35) . . .
51(4) . . .
61(4) . . .
55(4) . . .
41.5(33) . . .
58(4) . . .
59(4) . . .
51(4) . . .
59(4) . . .
52(4) . . .
44(4) . . .
46(4) . . .
64(4) . . .
57(4) . . .
60(4) . . .
50(4) . . .
54(4) . . .
46(4) . . .
49(4) . . .
62(4) . . .
52(4) . . .
50(4) . . .
54(4) . . .
67(4) . . .
66(4) . . .
58(4) . . .
53(4) . . .
49(4) . . .
52(4) . . .
47(4) . . .
53(4) . . .
56(4) . . .
62(4) . . .
63(4) . . .
58(4) . . .
55(4) . . .
50(4) . . .
48(4) . . .
56(4) . . .
59(4) . . .
60(4) . . .
55(4) . . .
51(4) . . .
49(4) . . .
48(4) . . .
50(4) . . .
51(4) . . .
56(4) . . .
51(4) . . .
50(4) . . .
49(4) . . .
52(4) . . .
51(4) . . .
52(4) . . .
57(4) . . .
54(4) . . .
62(4) . . .
51(4) . . .
46(4) . . .
51(4) . . .
48(4) . . .
40.6(34) . . .
44(4) . . .
46(4) . . .
55(4) . . .
52(4) . . .
56(4) . . .
52(4) . . .
67(4) . . .
50(4) . . .
50(4) . . .
55(4) . . .
49(4) . . .
48(4) . . .
52(4) . . .
63(5) . . .
57(4) . . .
52(4) . . .
46(4) . . .
54(4) . . .
49(4) . . .
54(4) . . .
51(4) . . .
55(4) . . .
53(4) . . .
52(4) . . .
66(5) . . .
59(4) . . .
56(4) . . .
47(4) . . .
55(4) . . .
61(4) . . .
47(4) . . .
59(4) . . .
52(4) . . .
52(4) . . .
52(4) . . .
54(4) . . .
54(4) . . .
53(4) . . .
55(4) . . .
48(4) . . .
53(4) . . .
59(4) . . .
53(4) . . .
63(4) . . .
56(4) . . .
53(4) . . .
56(4) . . .
49(4) . . .
53(4) . . .
55(4) . . .
46.1(35) . . .
47(4) . . .
56(4) . . .
53(4) . . .
53(4) . . .
58(4) . . .
57(4) . . .
54(4) . . .
57(4) . . .
47(4) . . .
61(4) . . .
52(4) . . .
56(4) . . .
54(4) . . .
50(4) . . .
59(4) . . .
57(4) . . .
50(4) . . .
57(4) . . .
50(4) . . .
59(4) . . .
49(4) . . .
63(5) . . .
49(4) . . .
55(4) . . .
62(4) . . .
52(4) . . .
60(4) . . .
54(4) . . .
52(4) . . .
49(4) . . .
45(4) . . .
46(4) . . .
46(4) . . .
54(4) . . .
49(4) . . .
54(4) . . .
58(4) . . .
59(4) . . .
60(4) . . .
55(4) . . .
48(4) . . .
45.1(34) . . .
59(4) . . .
61(4) . . .
55(4) . . .
54(4) . . .
54(4) . . .
57(4) . . .
49(4) . . .
51(4) . . .
52(4) . . .
45(4) . . .
51(4) . . .
51(4) . . .
58(4) . . .
49(4) . . .
52(4) . . .
48(4) . . .
55(4) . . .
45(4) . . .
53(4) . . .
50(4) . . .
47(4) . . .
52(4) . . .
66(4) . . .
54(4) . . .
40.8(33) . . .
53(4) . . .
57(4) . . .
45(4) . . .
51(4) . . .
46(4) . . .
52(4) . . .
47.0(35) . . .
45(4) . . .
52(4) . . .
57(4) . . .
58(4) . . .
56(4) . . .
63(4) . . .
62(4) . . .
47(4) . . .
52(4) . . .
54(4) . . .
52(4) . . .
63(4) . . .
47(4) . . .
61(4) . . .
54(4) . . .
56(4) . . .
58(4) . . .
57(4) . . .
54(4) . . .
52(4) . . .
52(4) . . .
57(4) . . .
63(4) . . .
57(4) . . .
48(4) . . .
52(4) . . .
49(4) . . .
49(4) . . .
51(4) . . .
50(4) . . .
52(4) . . .
46(4) . . .
48(4) . . .
40.9(33) . . .
57(4) . . .
58(4) . . .
60(4) . . .
57(4) . . .
57(4) . . .
55(4) . . .
59(4) . . .
53(4) . . .
52(4) . . .
51(4) . . .
48(4) . . .
56(4) . . .
38.8(33) . . .
52(4) . . .
59(4) . . .
57(4) . . .
53(4) . . .
55(4) . . .
64(4) . . .
59(4) . . .
50(4) . . .
59(4) . . .
56(4) . . .
53(4) . . .
51(4) . . .
47(4) . . .
51(4) . . .
43(4) . . .
57(4) . . .
49(4) . . .
41.0(35) . . .
46(4) . . .
55(4) . . .
53(4) . . .
42(4) . . .
56(4) . . .
52(4) . . .
59(4) . . .
50(4) . . .
57(4) . . .
55(4) . . .
49(4) . . .
62(4) . . .
51(4) . . .
53(4) . . .
49(4) . . .
51(4) . . .
46.4(35) . . .
56(4) . . .
55(4) . . .
64(5) . . .
43.4(35) . . .
50(4) . . .
58(4) . . .
57(4) . . .
47(4) . . .
55(4) . . .
44.6(35) . . .
58(4) . . .
53(4) . . .
50(4) . . .
42.8(34) . . .
50(4) . . .
47(4) . . .
45(4) . . .
67(5) . . .
52(4) . . .
61(4) . . .
70(4) . . .
61(4) . . .
56(4) . . .
58(4) . . .
51(4) . . .
44(4) . . .
54(4) . . .
54(4) . . .
46(4) . . .
58(4) . . .
54(4) . . .
56(4) . . .
55(4) . . .
53(4) . . .
48(4) . . .
53(4) . . .
60(4) . . .
46(4) . . .
53(4) . . .
56(4) . . .
49(4) . . .
50(4) . . .
52(4) . . .
59(4) . . .
64(4) . . .
52(4) . . .
53(4) . . .
42.1(33) . . .
49(4) . . .
58(4) . . .
53(4) . . .
60(4) . . .
60(4) . . .
53(4) . . .
59(4) . . .
55(4) . . .
55(5) . . .
58(4) . . .
47(4) . . .
53(4) . . .
54(4) . . .
52(4) . . .
51(4) . . .
57(4) . . .
46(4) . . .
57(4) . . .
56(4) . . .
57(4) . . .
58(4) . . .
57(4) . . .
48(4) . . .
54(4) . . .
52(4) . . .
54(4) . . .
50(4) . . .
50(4) . . .
51(4) . . .
60(4) . . .
51(4) . . .
56(4) . . .
50(4) . . .
51(4) . . .
54(4) . . .
54(4) . . .
48(4) . . .
58(4) . . .
41.5(33) . . .
58(4) . . .
58(4) . . .
67(4) . . .
56(4) . . .
59(4) . . .
53(4) . . .
53(4) . . .
53(4) . . .
50(4) . . .
55(4) . . .
51(4) . . .
45(4) . . .
56(4) . . .
55(4) . . .
54(4) . . .
48(4) . . .
57(4) . . .
49(4) . . .
50(4) . . .
52(4) . . .
51(4) . . .
49(4) . . .
60(4) . . .
58(4) . . .
50(4) . . .
59(4) . . .
42.4(34) . . .
49(4) . . .
59(4) . . .
50(4) . . .
52(4) . . .
56(4) . . .
43.8(34) . . .
45(4) . . .
53(4) . . .
57(4) . . .
64(4) . . .
60(4) . . .
51(4) . . .
65(4) . . .
55(4) . . .
50(4) . . .
49(4) . . .
56(4) . . .
52(4) . . .
55(4) . . .
55(4) . . .
57(4) . . .
56(4) . . .
64(4) . . .
56(4) . . .
64(4) . . .
46(4) . . .
51(4) . . .
51(4) . . .
44.3(35) . . .
51(4) . . .
48(4) . . .
47(4) . . .
49(4) . . .
46(4) . . .
52(4) . . .
54(4) . . .
48(4) . . .
54(4) . . .
58(4) . . .
51(4) . . .
50(4) . . .
48(4) . . .
51(4) . . .
49(4) . . .
52(4) . . .
58(4) . . .
51(4) . . .
51(4) . . .
52(4) . . .
59(4) . . .
50(4) . . .
53(4) . . .
58(4) . . .
49(4) . . .
48(4) . . .
51(4) . . .
52(4) . . .
52(4) . . .
52(4) . . .
54(4) . . .
56(4) . . .
57(4) . . .
55(4) . . .
53(4) . . .
57(4) . . .
55(4) . . .
43(4) . . .
47(4) . . .
42.2(34) . . .
58(4) . . .
58(4) . . .
53(4) . . .
57(4) . . .
48(4) . . .
49(4) . . .
49(4) . . .
53(4) . . .
57(4) . . .
50(4) . . .
53(4) . . .
50(4) . . .
47(4) . . .
53(4) . . .
59(4) . . .
58(4) . . .
61(4) . . .
56(4) . . .
55(4) . . .
54(4) . . .
50(4) . . .
58(4) . . .
54(4) . . .
54(4) . . .
56(4) . . .
58(4) . . .
50(4) . . .
54(4) . . .
54(4) . . .
59(4) . . .
57(4) . . .
57(4) . . .
55(4) . . .
50(4) . . .
51(4) . . .
49(4) . . .
46(4) . . .
55(4) . . .
53(4) . . .
50(4) . . .
52(4) . . .
55(4) . . .
54(4) . . .
55(4) . . .
44(4) . . .
45(4) . . .
62(4) . . .
62(4) . . .
63(4) . . .
55(4) . . .
55(4) . . .
55(4) . . .
53(4) . . .
53(4) . . .
46(4) . . .
48(4) . . .
52(4) . . .
59(4) . . .
47(4) . . .
47(4) . . .
53(4) . . .
50(4) . . .
55(4) . . .
63(4) . . .
54(4) . . .
48(4) . . .
63(4) . . .
46(4) . . .
51(4) . . .
47(4) . . .
40.9(34) . . .
51(4) . . .
60(4) . . .
52(4) . . .
52(4) . . .
57(4) . . .
51(4) . . .
50(4) . . .
50(4) . . .
56(4) . . .
50(4) . . .
67(4) . . .
62(4) . . .
58(4) . . .
53(4) . . .
57(4) . . .
57(4) . . .
49(4) . . .
52(4) . . .
55(4) . . .
49(4) . . .
58(4) . . .
59(4) . . .
60(4) . . .
54(4) . . .
47(4) . . .
46(4) . . .
53(4) . . .
49(4) . . .
41.9(33) . . .
48(4) . . .
54(4) . . .
53(4) . . .
54(4) . . .
45(4) . . .
49(4) . . .
60(4) . . .
55(4) . . .
55(4) . . .
43(4) . . .
43.7(34) . . .
54(4) . . .
61(4) . . .
55(4) . . .
52(4) . . .
43.1(34) . . .
43.6(35) . . .
55(4) . . .
47(4) . . .
44(4) . . .
55(4) . . .
53(4) . . .
50(4) . . .
54(4) . . .
48(4) . . .
48(4) . . .
51(4) . . .
43.9(35) . . .
54(4) . . .
49(4) . . .
62(4) . . .
55(4) . . .
51(4) . . .
49(4) . . .
51(4) . . .
55(4) . . .
59(4) . . .
48(4) . . .
56(4) . . .
51(4) . . .
43.3(34) . . .
48(4) . . .
52(4) . . .
43(4) . . .
46(4) . . .
58(4) . . .
55(4) . . .
57(4) . . .
59(4) . . .
57(4) . . .
50(4) . . .
48(4) . . .
63(4) . . .
63(4) . . .
46(4) . . .
38.6(33) . . .
57(4) . . .
41.5(34) . . .
55(4) . . .
50(4) . . .
65(4) . . .
57(4) . . .
63(4) . . .
58(4) . . .
44.7(35) . . .
45(4) . . .
59(4) . . .
58(4) . . .
57(4) . . .
56(4) . . .
53(4) . . .
57(4) . . .
59(4) . . .
48(4) . . .
55(4) . . .
50(4) . . .
41.2(33) . . .
47(4) . . .
53(4) . . .
54(4) . . .
58(4) . . .
56(4) . . .
54(4) . . .
44(4) . . .
48(4) . . .
51(4) . . .
53(4) . . .
48(4) . . .
52(4) . . .
55(4) . . .
56(4) . . .
54(4) . . .
47(4) . . .
55(4) . . .
51(4) . . .
57(4) . . .
54(4) . . .
46(4) . . .
49(4) . . .
46(4) . . .
50(4) . . .
66(4) . . .
57(4) . . .
49(4) . . .
55(4) . . .
59(4) . . .
53(4) . . .
46(4) . . .
48(4) . . .
49(4) . . .
50(4) . . .
49(4) . . .
59(4) . . .
48(4) . . .
61(4) . . .
57(4) . . .
54(4) . . .
47(4) . . .
49(4) . . .
50(4) . . .
51(4) . . .
51(4) . . .
51(4) . . .
51(4) . . .
52(4) . . .
51(4) . . .
49(4) . . .
44.5(35) . . .
51(4) . . .
62(4) . . .
51(4) . . .
62(5) . . .
54(4) . . .
51(4) . . .
51(4) . . .
52(4) . . .
47(4) . . .
56(4) . . .
57(4) . . .
62(4) . . .
54(4) . . .
65(4) . . .
55(4) . . .
44.4(35) . . .
53(4) . . .
50(4) . . .
58(4) . . .
54(4) . . .
57(4) . . .
52(4) . . .
56(4) . . .
51(4) . . .
55(4) . . .
48(4) . . .
50(4) . . .
58(4) . . .
44.2(34) . . .
52(4) . . .
50(4) . . .
49(4) . . .
44(4) . . .
55(4) . . .
48(4) . . .
41.3(34) . . .
52(4) . . .
57(4) . . .
54(4) . . .
53(4) . . .
45.4(35) . . .
54(4) . . .
66(5) . . .
48(4) . . .
60(4) . . .
62(4) . . .
52(4) . . .
50(4) . . .
47(4) . . .
43.7(35) . . .
50(4) . . .
46(4) . . .
60(4) . . .
60(4) . . .
59(4) . . .
54(4) . . .
47(4) . . .
64(5) . . .
48(4) . . .
54(4) . . .
55(4) . . .
45(4) . . .
42(4) . . .
41(4) . . .
47(4) . . .
54(4) . . .
56(4) . . .
49(4) . . .
45(4) . . .
50(4) . . .
45.5(35) . . .
56(4) . . .
51(4) . . .
54(4) . . .
57(4) . . .
55(4) . . .
58(4) . . .
50(4) . . .
47(4) . . .
61(4) . . .
61(4) . . .
59(4) . . .
55(4) . . .
64(4) . . .
52(4) . . .
53(4) . . .
48(4) . . .
51(4) . . .
51(4) . . .
48(4) . . .
67(4) . . .
55(4) . . .
50(4) . . .
55(4) . . .
53(4) . . .
43.3(34) . . .
45(4) . . .
46(4) . . .
54(4) . . .
57(4) . . .
51(4) . . .
56(4) . . .
61(4) . . .
49(4) . . .
43.9(34) . . .
56(4) . . .
55(4) . . .
44(4) . . .
52(4) . . .
54(4) . . .
50(4) . . .
50(4) . . .
54(4) . . .
49(4) . . .
49(4) . . .
47(4) . . .
47(4) . . .
55(4) . . .
60(4) . . .
60(4) . . .
55(4) . . .
55(4) . . .
48(4) . . .
52(4) . . .
47(4) . . .
49(4) . . .
49(4) . . .
47(4) . . .
55(4) . . .
59(4) . . .
50(4) . . .
45(4) . . .
46(4) . . .
57(4) . . .
49(4) . . .
63(5) . . .
62(4) . . .
58(4) . . .
56(4) . . .
48(4) . . .
43(4) . . .
54(4) . . .
49(4) . . .
41.8(33) . . .
50(4) . . .
48(4) . . .
48(4) . . .
50(4) . . .
50(4) . . .
53(4) . . .
63(5) . . .
60(4) . . .
46.5(35) . . .
46(4) . . .
47(4) . . .
46(4) . . .
58(4) . . .
51(4) . . .
61(4) . . .
62(4) . . .
45.9(34) . . .
59(4) . . .
51(4) . . .
53(4) . . .
52(4) . . .
57(4) . . .
54(4) . . .
56(4) . . .
50(4) . . .
49(4) . . .
50(4) . . .
56(4) . . .
39.8(33) . . .
55(4) . . .
55(4) . . .
53(4) . . .
58(4) . . .
54(4) . . .
54(4) . . .
52(4) . . .
56(4) . . .
59(4) . . .
47(4) . . .
45(4) . . .
50(4) . . .
56(4) . . .
48(4) . . .
50(4) . . .
51(4) . . .
49(4) . . .
50(4) . . .
42.3(34) . . .
55(4) . . .
58(4) . . .
41.1(35) . . .
53(4) . . .
60(4) . . .
56(4) . . .
57(4) . . .
63(4) . . .
50(4) . . .
44.9(34) . . .
51(4) . . .
50(4) . . .
47(4) . . .
61(4) . . .
52(4) . . .
48(4) . . .
48(4) . . .
50(4) . . .
49(4) . . .
49(4) . . .
50(4) . . .
42.4(34) . . .
47(4) . . .
58(4) . . .
47(4) . . .
49(4) . . .
46(4) . . .
59(4) . . .
58(4) . . .
45(4) . . .
46(4) . . .
42.2(33) . . .
47(4) . . .
55(4) . . .
57(4) . . .
52(4) . . .
52(4) . . .
53(4) . . .
57(4) . . .
61(4) . . .
62(4) . . .
53(4) . . .
55(4) . . .
50(4) . . .
49(4) . . .
63(4) . . .
55(4) . . .
51(4) . . .
64(4) . . .
58(4) . . .
46.9(35) . . .
53(4) . . .
48(4) . . .
54(4) . . .
51(4) . . .
55(4) . . .
50(4) . . .
54(4) . . .
49(4) . . .
56(4) . . .
48(4) . . .
56(4) . . .
45(4) . . .
43.5(34) . . .
48(4) . . .
48(4) . . .
51(4) . . .
42.4(34) . . .
46(4) . . .
45(4) . . .
52(4) . . .
55(4) . . .
56(4) . . .
49(4) . . .
46(4) . . .
45(4) . . .
52(4) . . .
58(4) . . .
47(4) . . .
49(4) . . .
53(4) . . .
46(4) . . .
46(4) . . .
43.7(34) . . .
58(4) . . .
51(4) . . .
48(4) . . .
47(4) . . .
43.5(35) . . .
52(4) . . .
47(4) . . .
50(4) . . .
56(4) . . .
47(4) . . .
41.1(34) . . .
50(4) . . .
54(4) . . .
54(4) . . .
56(4) . . .
56(4) . . .
59(4) . . .
55(4) . . .
44(4) . . .
47(4) . . .
48(4) . . .
53(4) . . .
51(4) . . .
57(4) . . .
59(4) . . .
49(4) . . .
46(4) . . .
52(4) . . .
43.0(34) . . .
52(4) . . .
52(4) . . .
41(4) . . .
49(4) . . .
58(4) . . .
52(4) . . .
53(4) . . .
44(4) . . .
48(4) . . .
50(4) . . .
43.9(35) . . .
57(4) . . .
49(4) . . .
56(4) . . .
52(4) . . .
49(4) . . .
51(4) . . .
57(4) . . .
45(4) . . .
50(4) . . .
49(4) . . .
50(4) . . .
62(4) . . .
58(4) . . .
50(4) . . .
47(4) . . .
50(4) . . .
46(4) . . .
51(4) . . .
54(4) . . .
53(4) . . .
50(4) . . .
57(4) . . .
53(4) . . .
45(4) . . .
44.2(35) . . .
50(4) . . .
55(4) . . .
50(4) . . .
51(4) . . .
45(4) . . .
45(4) . . .
47(4) . . .
58(4) . . .
61(4) . . .
56(4) . . .
57(4) . . .
51(4) . . .
42.2(34) . . .
54(4) . . .
50(4) . . .
56(4) . . .
47(4) . . .
49(4) . . .
52(4) . . .
56(4) . . .
56(4) . . .
49(4) . . .
60(4) . . .
54(4) . . .
46(4) . . .
45(4) . . .
47(4) . . .
52(4) . . .
42.8(34) . . .
58(4) . . .
47(4) . . .
44(4) . . .
53(4) . . .
59(4) . . .
48(4) . . .
51(4) . . .
42(4) . . .
44.3(35) . . .
52(4) . . .
58(4) . . .
40.4(35) . . .
50(4) . . .
48(4) . . .
49(4) . . .
45(4) . . .
39.4(34) . . .
39.8(33) . . .
55(4) . . .
56(4) . . .
63(4) . . .
52(4) . . .
39.0(33) . . .
53(4) . . .
50(4) . . .
55(4) . . .
43.4(35) . . .
41.3(33) . . .
53(4) . . .
52(4) . . .
53(4) . . .
48(4) . . .
47(4) . . .
54(4) . . .
51(4) . . .
51(4) . . .
44(4) . . .
44.5(34) . . .
48(4) . . .
55(4) . . .
51(4) . . .
51(4) . . .
42.4(34) . . .
50(4) . . .
52(4) . . .
40.3(33) . . .
41.9(34) . . .
55(4) . . .
48(4) . . .
44(4) . . .
46(4) . . .
45(4) . . .
55(4) . . .
57(4) . . .
63(4) . . .
44.6(34) . . .
46(4) . . .
43.3(34) . . .
48(4) . . .
50(4) . . .
50(4) . . .
53(4) . . .
52(4) . . .
57(4) . . .
53(4) . . .
54(4) . . .
41(4) . . .
52(4) . . .
42.7(35) . . .
48(4) . . .
59(4) . . .
48(4) . . .
52(4) . . .
57(4) . . .
49(4) . . .
48(4) . . .
46(4) . . .
53(4) . . .
58(4) . . .
47(4) . . .
51(4) . . .
46(4) . . .
48(4) . . .
53(4) . . .
57(4) . . .
54(4) . . .
52(4) . . .
50(4) . . .
54(4) . . .
50(4) . . .
44.1(35) . . .
47(4) . . .
54(4) . . .
61(4) . . .
49(4) . . .
56(4) . . .
45(4) . . .
49(4) . . .
58(4) . . .
42.8(34) . . .
52(4) . . .
44.5(35) . . .
42.4(34) . . .
41.6(34) . . .
55(4) . . .
66(4) . . .
58(4) . . .
54(4) . . .
64(4) . . .
52(4) . . .
44.2(34) . . .
47(4) . . .
54(4) . . .
54(4) . . .
58(4) . . .
52(4) . . .
49(4) . . .
50(4) . . .
44(4) . . .
47(4) . . .
46(4) . . .
51(4) . . .
58(4) . . .
53(4) . . .
52(4) . . .
55(4) . . .
49(4) . . .
50(4) . . .
56(4) . . .
50(4) . . .
49(4) . . .
44.5(34) . . .
62(4) . . .
44(4) . . .
50(4) . . .
54(4) . . .
38.9(32) . . .
50(4) . . .
58(4) . . .
62(4) . . .
60(4) . . .
48(4) . . .
54(4) . . .
55(4) . . .
56(4) . . .
59(4) . . .
53(4) . . .
55(4) . . .
48(4) . . .
53(4) . . .
54(4) . . .
47(4) . . .
41(4) . . .
49(4) . . .
50(4) . . .
48(4) . . .
47(4) . . .
59(4) . . .
54(4) . . .
59(4) . . .
50(4) . . .
47(4) . . .
47(4) . . .
48(4) . . .
43.2(34) . . .
50(4) . . .
41.2(34) . . .
47(4) . . .
51(4) . . .
40.3(33) . . .
46(4) . . .
46(4) . . .
44(4) . . .
45(4) . . .
59(4) . . .
48(4) . . .
53(4) . . .
58(4) . . .
58(4) . . .
53(4) . . .
51(4) . . .
54(4) . . .
59(4) . . .
50(4) . . .
58(4) . . .
65(4) . . .
51(4) . . .
47(4) . . .
44.5(35) . . .
48(4) . . .
48(4) . . .
47(4) . . .
54(4) . . .
56(4) . . .
51(4) . . .
45(4) . . .
42.2(34) . . .
45(4) . . .
43(4) . . .
46.1(35) . . .
58(4) . . .
38.6(33) . . .
50(4) . . .
45(4) . . .
44(4) . . .
49(4) . . .
55(4) . . .
48(4) . . .
51(4) . . .
50(4) . . .
55(4) . . .
53(4) . . .
58(4) . . .
52(4) . . .
50(4) . . .
45(4) . . .
49(4) . . .
45(4) . . .
44(4) . . .
47(4) . . .
52(4) . . .
55(4) . . .
51(4) . . .
46(4) . . .
39.1(33) . . .
49(4) . . .
53(4) . . .
41.1(35) . . .
51(4) . . .
49(4) . . .
56(4) . . .
50(4) . . .
49(4) . . .
60(4) . . .
49(4) . . .
53(4) . . .
53(4) . . .
43.5(35) . . .
62(4) . . .
52(4) . . .
58(4) . . .
53(4) . . .
62(4) . . .
46(4) . . .
43.1(35) . . .
39.6(32) . . .
56(4) . . .
51(4) . . .
44.8(35) . . .
44.4(35) . . .
51(4) . . .
50(4) . . .
50(4) . . .
41.6(34) . . .
47(4) . . .
51(4) . . .
56(4) . . .
51(4) . . .
51(4) . . .
50(4) . . .
47(4) . . .
47(4) . . .
56(4) . . .
49(4) . . .
46(4) . . .
53(4) . . .
51(4) . . .
40.0(35) . . .
46.0(35) . . .
42.6(34) . . .
47(4) . . .
50(4) . . .
58(4) . . .
53(4) . . .
56(4) . . .
52(4) . . .
54(4) . . .
55(4) . . .
47(4) . . .
50(4) . . .
45(4) . . .
51(4) . . .
62(4) . . .
50(4) . . .
52(4) . . .
51(4) . . .
37.8(35) . . .
52(4) . . .
55(4) . . .
48(4) . . .
50(4) . . .
52(4) . . .
51(4) . . .
47(4) . . .
46(4) . . .
49(4) . . .
41.4(34) . . .
54(4) . . .
53(4) . . .
41.3(34) . . .
47(4) . . .
48(4) . . .
42.8(34) . . .
36.9(31) . . .
54(4) . . .
52(4) . . .
47(4) . . .
56(4) . . .
47(4) . . .
54(4) . . .
49(4) . . .
50(4) . . .
37.2(32) . . .
50(4) . . .
53(4) . . .
50(4) . . .
42.7(34) . . .
40.3(33) . . .
51(4) . . .
47(4) . . .
45(4) . . .
54(4) . . .
53(4) . . .
55(4) . . .
43(4) . . .
39.0(34) . . .
51(4) . . .
55(4) . . .
45(4) . . .
47(4) . . .
51(4) . . .
57(4) . . .
50(4) . . .
56(4) . . .
48(4) . . .
55(4) . . .
52(4) . . .
54(4) . . .
44(4) . . .
47(4) . . .
47(4) . . .
44.2(35) . . .
45.4(35) . . .
49(4) . . .
52(4) . . .
49(4) . . .
44.9(35) . . .
35.3(31) . . .
46(4) . . .
51(4) . . .
58(4) . . .
53(4) . . .
44.7(35) . . .
56(4) . . .
38.9(33) . . .
51(4) . . .
49(4) . . .
43(4) . . .
40.3(32) . . .
60(4) . . .
55(4) . . .
56(4) . . .
45(4) . . .
42.1(35) . . .
42.7(34) . . .
48(4) . . .
50(4) . . .
46(4) . . .
54(4) . . .
60(4) . . .
48(4) . . .
49(4) . . .
55(4) . . .
52(4) . . .
48(4) . . .
46(4) . . .
57(4) . . .
47(4) . . .
43(4) . . .
44(4) . . .
53(4) . . .
40.7(33) . . .
53(4) . . .
53(4) . . .
52(4) . . .
61(4) . . .
51(4) . . .
48(4) . . .
49(4) . . .
50(4) . . .
44.3(34) . . .
48(4) . . .
49(4) . . .
58(4) . . .
59(4) . . .
51(4) . . .
54(4) . . .
53(4) . . .
46(4) . . .
46(4) . . .
54(4) . . .
42.5(34) . . .
43(4) . . .
41.5(35) . . .
54(4) . . .
52(4) . . .
60(4) . . .
45(4) . . .
52(4) . . .
45.1(35) . . .
51(4) . . .
55(4) . . .
58(4) . . .
48(4) . . .
51(4) . . .
53(4) . . .
46(4) . . .
49(4) . . .
54(4) . . .
53(4) . . .
48(4) . . .
66(4) . . .
41(4) . . .
47(4) . . .
49(4) . . .
53(4) . . .
51(4) . . .
49(4) . . .
53(4) . . .
49(4) . . .
45.5(35) . . .
53(4) . . .
47(4) . . .
57(4) . . .
54(4) . . .
50(4) . . .
56(4) . . .
49(4) . . .
53(4) . . .
53(4) . . .
45.5(35) . . .
48(4) . . .
62(4) . . .
54(4) . . .
59(4) . . .
52(4) . . .
48(4) . . .
48(4) . . .
58(4) . . .
51(4) . . .
52(4) . . .
59(4) . . .
49(4) . . .
54(4) . . .
57(4) . . .
47(4) . . .
61(4) . . .
54(4) . . .
50(4) . . .
53(4) . . .
48(4) . . .
51(4) . . .
44(4) . . .
50(4) . . .
50(4) . . .
56(4) . . .
45(4) . . .
47(4) . . .
53(4) . . .
49(4) . . .
36.7(32) . . .
42(4) . . .
50(4) . . .
48(4) . . .
57(4) . . .
50(4) . . .
50(4) . . .
46(4) . . .
43.1(34) . . .
49(4) . . .
55(4) . . .
52(4) . . .
51(4) . . .
48(4) . . .
56(4) . . .
46(4) . . .
54(4) . . .
54(4) . . .
52(4) . . .
48(4) . . .
47(4) . . .
61(4) . . .
53(4) . . .
54(4) . . .
49(4) . . .
42.6(35) . . .
36.4(32) . . .
50(4) . . .
53(4) . . .
61(4) . . .
53(4) . . .
55(4) . . .
52(4) . . .
47(4) . . .
52(4) . . .
47(4) . . .
46(4) . . .
46(4) . . .
42.3(34) . . .
50(4) . . .
53(4) . . .
50(4) . . .
51(4) . . .
51(4) . . .
53(4) . . .
54(4) . . .
50(4) . . .
42(4) . . .
47(4) . . .
51(4) . . .
44(4) . . .
43(4) . . .
51(4) . . .
48(4) . . .
51(4) . . .
40.8(34) . . .
54(4) . . .
55(4) . . .
46(4) . . .
59(4) . . .
43(4) . . .
46(4) . . .
47(4) . . .
53(4) . . .
46(4) . . .
43(4) . . .
45(4) . . .
49(4) . . .
49(4) . . .
40.4(34) . . .
40.2(34) . . .
49(4) . . .
43.3(34) . . .
43.5(34) . . .
45(4) . . .
52(4) . . .
50(4) . . .
43.1(34) . . .
49(4) . . .
46.7(35) . . .
53(4) . . .
41(4) . . .
42.7(34) . . .
41(4) . . .
41.3(34) . . .
57(4) . . .
52(4) . . .
54(4) . . .
58(4) . . .
55(4) . . .
59(4) . . .
50(4) . . .
50(4) . . .
55(4) . . .
47(4) . . .
46(4) . . .
59(4) . . .
48(4) . . .
54(4) . . .
49(4) . . .
48(4) . . .
43.3(35) . . .
61(4) . . .
57(4) . . .
48(4) . . .
56(4) . . .
47(4) . . .
53(4) . . .
42.3(33) . . .
48(4) . . .
42(4) . . .
56(4) . . .
53(4) . . .
51(4) . . .
48(4) . . .
48(4) . . .
55(4) . . .
48(4) . . .
50(4) . . .
48(4) . . .
39.0(33) . . .
57(4) . . .
41.6(34) . . .
47(4) . . .
45(4) . . .
56(4) . . .
54(4) . . .
47(4) . . .
53(4) . . .
42(4) . . .
47(4) . . .
52(4) . . .
55(4) . . .
52(4) . . .
42(4) . . .
55(4) . . .
47(4) . . .
61(4) . . .
53(4) . . .
54(4) . . .
40.2(33) . . .
57(4) . . .
50(4) . . .
49(4) . . .
40.1(34) . . .
50(4) . . .
41.4(33) . . .
40(4) . . .
54(4) . . .
47(4) . . .
49(4) . . .
44.2(34) . . .
48(4) . . .
45(4) . . .
45(4) . . .
43.7(35) . . .
46(4) . . .
48(4) . . .
50(4) . . .
40.9(34) . . .
49(4) . . .
50(4) . . .
38.0(34) . . .
47(4) . . .
50(4) . . .
43.0(35) . . .
40.5(33) . . .
42.1(35) . . .
47(4) . . .
43(4) . . .
50(4) . . .
56(4) . . .
46(4) . . .
38.3(35) . . .
40.5(34) . . .
51(4) . . .
52(4) . . .
43(4) . . .
39.8(35) . . .
44(4) . . .
42.0(34) . . .
42.7(34) . . .
55(4) . . .
49(4) . . .
62(4) . . .
44(4) . . .
46(4) . . .
43.3(34) . . .
59(4) . . .
52(4) . . .
56(4) . . .
35.5(31) . . .
54(4) . . .
49(4) . . .
50(4) . . .
46(4) . . .
46(4) . . .
49(4) . . .
54(4) . . .
49(4) . . .
62(4) . . .
42.6(34) . . .
49(4) . . .
44(4) . . .
42.2(33) . . .
43.1(34) . . .
54(4) . . .
57(4) . . .
58(4) . . .
45.5(35) . . .
56(4) . . .
43.5(35) . . .
53(4) . . .
43.0(34) . . .
57(4) . . .
48(4) . . .
53(4) . . .
46(4) . . .
59(4) . . .
53(4) . . .
43.6(34) . . .
52(4) . . .
48(4) . . .
61(4) . . .
55(4) . . .
52(4) . . .
51(4) . . .
55(4) . . .
49(4) . . .
48(4) . . .
53(4) . . .
45(4) . . .
48(4) . . .
53(4) . . .
53(4) . . .
55(4) . . .
43.1(33) . . .
47(4) . . .
53(4) . . .
53(4) . . .
41.3(35) . . .
60(4) . . .
60(4) . . .
57(4) . . .
51(4) . . .
54(4) . . .
45(4) . . .
45(4) . . .
49(4) . . .
45(4) . . .
44(4) . . .
55(4) . . .
49(4) . . .
47(4) . . .
49(4) . . .
53(4) . . .
43(4) . . .
41.9(34) . . .
42.6(33) . . .
60(4) . . .
49(4) . . .
56(4) . . .
48(4) . . .
46(4) . . .
38.9(32) . . .
51(4) . . .
45(4) . . .
45.2(35) . . .
37.2(31) . . .
49(4) . . .
51(4) . . .
60(4) . . .
44(4) . . .
51(4) . . .
40.1(33) . . .
40.0(33) . . .
53(4) . . .
55(4) . . .
52(4) . . .
43.7(35) . . .
43(4) . . .
45(4) . . .
48(4) . . .
46(4) . . .
50(4) . . .
41.3(34) . . .
52(4) . . .
52(4) . . .
51(4) . . .
40.8(33) . . .
47(4) . . .
52(4) . . .
42.3(35) . . .
50(4) . . .
48(4) . . .
52(4) . . .
42.2(34) . . .
50(4) . . .
47(4) . . .
39.4(35) . . .
42(4) . . .
59(4) . . .
51(4) . . .
43(4) . . .
50(4) . . .
42(4) . . .
51(4) . . .
56(4) . . .
57(4) . . .
49(4) . . .
46(4) . . .
58(4) . . .
36.9(32) . . .
42.3(33) . . .
41.9(35) . . .
44(4) . . .
46(4) . . .
49(4) . . .
55(4) . . .
49(4) . . .
46(4) . . .
47(4) . . .
43.9(35) . . .
37.1(33) . . .
39.3(35) . . .
47(4) . . .
45(4) . . .
53(4) . . .
51(4) . . .
52(4) . . .
51(4) . . .
48(4) . . .
48(4) . . .
48(4) . . .
42.4(35) . . .
59(5) . . .
40.4(35) . . .
47(4) . . .
47(4) . . .
61(4) . . .
53(4) . . .
45(4) . . .
47(4) . . .
50(4) . . .
57(4) . . .
44(4) . . .
56(4) . . .
49(4) . . .
45.3(35) . . .
49(4) . . .
53(4) . . .
56(4) . . .
47(4) . . .
37.4(33) . . .
40.7(34) . . .
42.4(34) . . .
48(4) . . .
45.1(35) . . .
40.8(34) . . .
51(4) . . .
36.0(34) . . .
37.2(32) . . .
47(4) . . .
40.0(33) . . .
50(4) . . .
46(4) . . .
47(4) . . .
47(4) . . .
45(4) . . .
51(4) . . .
51(4) . . .
57(4) . . .
53(4) . . .
50(4) . . .
52(4) . . .
43(4) . . .
51(4) . . .
45(4) . . .
47(4) . . .
49(4) . . .
50(4) . . .
49(4) . . .
51(4) . . .
43.4(35) . . .
49(4) . . .
58(4) . . .
45.9(35) . . .
63(4) . . .
51(4) . . .
60(4) . . .
41.5(33) . . .
54(4) . . .
46(4) . . .
39.1(34) . . .
55(4) . . .
52(4) . . .
39.9(33) . . .
38.5(33) . . .
43(4) . . .
46(4) . . .
50(4) . . .
50(4) . . .
48(4) . . .
49(4) . . .
53(4) . . .
40.2(33) . . .
47(4) . . .
47(4) . . .
47(4) . . .
40.3(34) . . .
51(4) . . .
49(4) . . .
50(4) . . .
50(4) . . .
47(4) . . .
46(4) . . .
42.7(34) . . .
39.5(34) . . .
44(4) . . .
43.9(35) . . .
51(4) . . .
52(4) . . .
57(4) . . .
51(4) . . .
44(4) . . .
47(4) . . .
40.4(33) . . .
49(4) . . .
34.8(31) . . .
55(4) . . .
46(4) . . .
44.1(34) . . .
45(4) . . .
48(4) . . .
52(4) . . .
42.2(34) . . .
53(4) . . .
51(4) . . .
47(4) . . .
53(4) . . .
46(4) . . .
49(4) . . .
52(4) . . .
52(4) . . .
46(4) . . .
41.8(34) . . .
41.5(34) . . .
47(4) . . .
51(4) . . .
49(4) . . .
49(4) . . .
39.8(35) . . .
47(4) . . .
55(4) . . .
48(4) . . .
55(4) . . .
44.1(35) . . .
46(4) . . .
44(4) . . .
39.5(32) . . .
40.8(34) . . .
41(4) . . .
46(4) . . .
54(4) . . .
44.9(35) . . .
47(4) . . .
38.2(32) . . .
56(4) . . .
50(4) . . .
50(4) . . .
50(4) . . .
40.6(34) . . .
44(4) . . .
44.8(35) . . .
50(4) . . .
55(4) . . .
57(4) . . .
55(4) . . .
49(4) . . .
39.6(33) . . .
39.0(32) . . .
44(4) . . .
48(4) . . .
46(4) . . .
41.2(33) . . .
39.4(34) . . .
49(4) . . .
45(4) . . .
47(4) . . .
48(4) . . .
49(4) . . .
46(4) . . .
42.2(34) . . .
52(4) . . .
48(4) . . .
51(4) . . .
52(4) . . .
51(4) . . .
46(4) . . .
48(4) . . .
51(4) . . .
39.7(35) . . .
39.2(34) . . .
45(4) . . .
45.7(35) . . .
51(4) . . .
52(4) . . .
43.7(35) . . .
50(4) . . .
42.3(34) . . .
43(4) . . .
43(4) . . .
49(4) . . .
45.6(35) . . .
51(4) . . .
39.6(34) . . .
49(4) . . .
51(4) . . .
49(4) . . .
55(4) . . .
50(4) . . .
54(4) . . .
44(4) . . .
46(4) . . .
46(4) . . .
57(4) . . .
56(4) . . .
48(4) . . .
49(4) . . .
45(4) . . .
44(4) . . .
52(4) . . .
41.0(35) . . .
52(4) . . .
39.9(33) . . .
48(4) . . .
49(4) . . .
48(4) . . .
43.3(34) . . .
44(4) . . .
46(4) . . .
47(4) . . .
49(4) . . .
44.0(34) . . .
47(4) . . .
37.8(33) . . .
40(4) . . .
42(4) . . .
47(4) . . .
40.5(34) . . .
46(4) . . .
52(4) . . .
54(4) . . .
43.5(34) . . .
49(4) . . .
56(4) . . .
54(4) . . .
37.3(31) . . .
42.6(34) . . .
39.5(34) . . .
48(4) . . .
46(4) . . .
46(4) . . .
49(4) . . .
50(4) . . .
55(4) . . .
45.5(35) . . .
46(4) . . .
53(4) . . .
52(4) . . .
45(4) . . .
49(4) . . .
43.7(34) . . .
40.4(33) . . .
51(4) . . .
48(4) . . .
52(4) . . .
46(4) . . .
54(4) . . .
47(4) . . .
44(4) . . .
40.5(34) . . .
48(4) . . .
53(4) . . .
49(4) . . .
36.9(33) . . .
40.5(34) . . .
44.5(35) . . .
43.1(34) . . .
38.4(34) . . .
49(4) . . .
41.2(34) . . .
45.6(35) . . .
49(4) . . .
57(4) . . .
46(4) . . .
39.5(33) . . .
44.3(35) . . .
45(4) . . .
39.1(32) . . .
49(4) . . .
49(4) . . .
39.1(33) . . .
50(4) . . .
46(4) . . .
47(4) . . .
43(4) . . .
43.2(34) . . .
44(4) . . .
48(4) . . .
52(4) . . .
44(4) . . .
51(4) . . .
43(4) . . .
43(4) . . .
39.9(34) . . .
48(4) . . .
45(4) . . .
49(4) . . .
41.7(35) . . .
43(4) . . .
46(4) . . .
41.7(34) . . .
52(4) . . .
51(4) . . .
47(4) . . .
53(4) . . .
50(4) . . .
56(4) . . .
49(4) . . .
50(4) . . .
54(4) . . .
49(4) . . .
55(4) . . .
51(4) . . .
50(4) . . .
43.3(35) . . .
50(4) . . .
62(5) . . .
55(4) . . .
48(4) . . .
40.0(33) . . .
39.2(34) . . .
44(4) . . .
42.9(35) . . .
44.6(34) . . .
48(4) . . .
39.2(33) . . .
52(4) . . .
54(4) . . .
54(4) . . .
49(4) . . .
53(4) . . .
50(4) . . .
44(4) . . .
52(4) . . .
44.5(34) . . .
43.7(34) . . .
49(4) . . .
54(4) . . .
51(4) . . .
53(4) . . .
48(4) . . .
39.5(33) . . .
51(4) . . .
51(4) . . .
40.2(33) . . .
45(4) . . .
45(4) . . .
38.2(32) . . .
43.5(34) . . .
40.3(33) . . .
47(4) . . .
55(4) . . .
42(4) . . .
48(4) . . .
60(4) . . .
43.4(34) . . .
52(4) . . .
46(4) . . .
43.3(35) . . .
44(4) . . .
46(4) . . .
45(4) . . .
40(4) . . .
49(4) . . .
58(4) . . .
45(4) . . .
39.5(33) . . .
52(4) . . .
43(4) . . .
42.0(35) . . .
40(4) . . .
44(4) . . .
53(4) . . .
53(4) . . .
42.2(34) . . .
48(4) . . .
40.2(34) . . .
47(4) . . .
45(4) . . .
43.6(34) . . .
60(4) . . .
46(4) . . .
40.7(33) . . .
49(4) . . .
46(4) . . .
44(4) . . .
42.7(35) . . .
48(4) . . .
40.1(33) . . .
43.7(35) . . .
50(4) . . .
52(4) . . .
39.6(33) . . .
39.7(33) . . .
46.4(35) . . .
47(4) . . .
50(4) . . .
55(4) . . .
50(4) . . .
46(4) . . .
45(4) . . .
46(4) . . .
42.3(34) . . .
44.5(35) . . .
42.0(35) . . .
47(4) . . .
52(4) . . .
52(4) . . .
50(4) . . .
53(4) . . .
52(4) . . .
49(4) . . .
51(4) . . .
50(4) . . .
51(4) . . .
45(4) . . .
45(4) . . .
58(4) . . .
48(4) . . .
45(4) . . .
40.6(34) . . .
54(4) . . .
50(4) . . .
49(4) . . .
53(4) . . .
51(4) . . .
47(4) . . .
52(4) . . .
52(4) . . .
47(4) . . .
49(4) . . .
50(4) . . .
47(4) . . .
42(4) . . .
47(4) . . .
47(4) . . .
43.3(35) . . .
53(4) . . .
53(4) . . .
41.9(33) . . .
52(4) . . .
46(4) . . .
53(4) . . .
58(4) . . .
52(4) . . .
45(4) . . .
52(4) . . .
48(4) . . .
39.6(34) . . .
44(4) . . .
41.4(34) . . .
45.2(35) . . .
49(4) . . .
47(4) . . .
45(4) . . .
51(4) . . .
58(4) . . .
52(4) . . .
51(4) . . .
40.6(34) . . .
47(4) . . .
41.9(34) . . .
47(4) . . .
40(4) . . .
43(4) . . .
47(4) . . .
39.5(33) . . .
41.4(34) . . .
49(4) . . .
59(4) . . .
47(4) . . .
43.1(35) . . .
52(4) . . .
56(4) . . .
54(4) . . .
44.0(34) . . .
43.9(35) . . .
40.0(34) . . .
44(4) . . .
49(4) . . .
48(4) . . .
55(4) . . .
53(4) . . .
45(4) . . .
39.0(34) . . .
37.4(32) . . .
43.8(35) . . .
47(4) . . .
49(4) . . .
49(4) . . .
44(4) . . .
48(4) . . .
56(4) . . .
59(4) . . .
45.2(34) . . .
52(4) . . .
40.3(33) . . .
48(4) . . .
56(4) . . .
60(4) . . .
48(4) . . .
49(4) . . .
50(4) . . .
47(4) . . .
42.5(35) . . .
48(4) . . .
52(4) . . .
52(4) . . .
47(4) . . .
45(4) . . .
54(4) . . .
47(4) . . .
53(4) . . .
45(4) . . .
49(4) . . .
37.3(33) . . .
48(4) . . .
41(4) . . .
46(4) . . .
50(4) . . .
45(4) . . .
42.4(34) . . .
44(4) . . .
41(4) . . .
43(4) . . .
37.1(31) . . .
42(4) . . .
50(4) . . .
44(4) . . .
55(4) . . .
51(4) . . .
49(4) . . .
55(4) . . .
49(4) . . .
47(4) . . .
56(4) . . .
47(4) . . .
45(4) . . .
41.4(34) . . .
55(4) . . .
50(4) . . .
47(4) . . .
48(4) . . .
59(4) . . .
50(4) . . .
44.6(34) . . .
46(4) . . .
43(4) . . .
41.7(35) . . .
44(4) . . .
45.3(35) . . .
46(4) . . .
54(4) . . .
46(4) . . .
47(4) . . .
48(4) . . .
47(4) . . .
46(4) . . .
46(4) . . .
52(4) . . .
40.5(34) . . .
37.9(33) . . .
45(4) . . .
37.3(32) . . .
51(4) . . .
51(4) . . .
44(4) . . .
41.1(34) . . .
47(4) . . .
51(4) . . .
47(4) . . .
49(4) . . .
46(4) . . .
49(4) . . .
59(4) . . .
47(4) . . .
46(4) . . .
51(4) . . .
55(4) . . .
41.3(34) . . .
41.8(34) . . .
49(4) . . .
51(4) . . .
44(4) . . .
34.6(31) . . .
47(4) . . .
45.8(35) . . .
47(4) . . .
49(4) . . .
46(4) . . .
47(4) . . .
57(4) . . .
49(4) . . .
41.7(34) . . .
45.4(35) . . .
47(4) . . .
44(4) . . .
43(4) . . .
49(4) . . .
42.7(35) . . .
40.4(35) . . .
45(4) . . .
47(4) . . .
41.8(33) . . .
54(4) . . .
41.7(35) . . .
51(4) . . .
48(4) . . .
47.1(35) . . .
50(4) . . .
41.3(35) . . .
52(4) . . .
60(4) . . .
50(4) . . .
40.8(33) . . .
49(4) . . .
55(4) . . .
50(4) . . .
41.3(33) . . .
41.2(35) . . .
42(4) . . .
48(4) . . .
44.0(34) . . .
47(4) . . .
43.6(34) . . .
42(4) . . .
43(4) . . .
46(4) . . .
50(4) . . .
48(4) . . .
44.7(35) . . .
47(4) . . .
36.5(32) . . .
48(4) . . .
49(4) . . .
40.8(35) . . .
46(4) . . .
46(4) . . .
44.3(35) . . .
44(4) . . .
55(4) . . .
53(4) . . .
45.2(34) . . .
51(4) . . .
48(4) . . .
39(4) . . .
39(4) . . .
48(4) . . .
41.8(34) . . .
52(4) . . .
50(4) . . .
48(4) . . .
41.8(33) . . .
46(4) . . .
44(4) . . .
48(4) . . .
47(4) . . .
45(4) . . .
49(4) . . .
44(4) . . .
38.5(34) . . .
45(4) . . .
53(4) . . .
54(4) . . .
42(4) . . .
44(4) . . .
50(4) . . .
41.5(33) . . .
44.4(35) . . .
52(4) . . .
49(4) . . .
44(4) . . .
39.3(33) . . .
42.3(34) . . .
51(4) . . .
49(4) . . .
54(4) . . .
52(4) . . .
53(4) . . .
35.1(32) . . .
40(4) . . .
51(4) . . .
52(4) . . .
49(4) . . .
51(4) . . .
38.5(34) . . .
51(4) . . .
48(4) . . .
39.6(34) . . .
39.0(34) . . .
42(4) . . .
42.4(34) . . .
44(4) . . .
49(4) . . .
50(4) . . .
50(4) . . .
52(4) . . .
44.0(34) . . .
44(4) . . .
54(4) . . .
48(4) . . .
43(4) . . .
54(4) . . .
38.4(33) . . .
47(4) . . .
48(4) . . .
46.2(35) . . .
39.4(33) . . .
41.1(33) . . .
44(4) . . .
40.9(35) . . .
53(4) . . .
47(4) . . .
44(4) . . .
41(4) . . .
45(4) . . .
49(4) . . .
42.5(35) . . .
50(4) . . .
40.7(34) . . .
47(4) . . .
47(4) . . .
38.7(35) . . .
41.4(34) . . .
43(4) . . .
35.8(32) . . .
51(4) . . .
58(4) . . .
44.1(35) . . .
34.8(31) . . .
51(4) . . .
42.2(34) . . .
43(4) . . .
42(4) . . .
48(4) . . .
53(4) . . .
36.5(32) . . .
54(4) . . .
50(4) . . .
39.2(32) . . .
39.3(32) . . .
44(4) . . .
44(4) . . .
48(4) . . .
51(4) . . .
54(4) . . .
50(4) . . .
51(4) . . .
45(4) . . .
49(4) . . .
50(4) . . .
42.2(33) . . .
52(4) . . .
52(4) . . .
50(4) . . .
36.2(32) . . .
39.6(32) . . .
56(4) . . .
47(4) . . .
49(4) . . .
45.0(35) . . .
57(4) . . .
43.6(35) . . .
38.3(34) . . .
45(4) . . .
42.2(34) . . .
38.8(32) . . .
52(4) . . .
44.0(35) . . .
46(4) . . .
52(4) . . .
44(4) . . .
47(4) . . .
56(4) . . .
45(4) . . .
42.7(34) . . .
48(4) . . .
48(4) . . .
51(4) . . .
53(4) . . .
50(4) . . .
47(4) . . .
37.6(31) . . .
44(4) . . .
54(4) . . .
53(4) . . .
47(4) . . .
51(4) . . .
46(4) . . .
48(4) . . .
47(4) . . .
39.5(33) . . .
44(4) . . .
45(4) . . .
50(4) . . .
52(4) . . .
47(4) . . .
47(4) . . .
42(4) . . .
51(4) . . .
54(4) . . .
42(4) . . .
51(4) . . .
56(4) . . .
42.7(34) . . .
50(4) . . .
42.4(35) . . .
46(4) . . .
50(4) . . .
50(4) . . .
46(4) . . .
53(4) . . .
59(4) . . .
44.3(35) . . .
52(4) . . .
49(4) . . .
37.0(32) . . .
45(4) . . .
54(4) . . .
35.6(32) . . .
50(4) . . .
45(4) . . .
48(4) . . .
63(4) . . .
50(4) . . .
50(4) . . .
42(4) . . .
41.1(35) . . .
49(4) . . .
50(4) . . .
42.7(34) . . .
38.3(33) . . .
45(4) . . .
53(4) . . .
50(4) . . .
49(4) . . .
42.1(35) . . .
49(4) . . .
45.8(35) . . .
47(4) . . .
51(4) . . .
38.8(34) . . .
43(4) . . .
50(4) . . .
47(4) . . .
60(4) . . .
53(4) . . .
49(4) . . .
43.5(34) . . .
49(4) . . .
48(4) . . .
38.3(35) . . .
42.3(35) . . .
50(4) . . .
50(4) . . .
39.2(33) . . .
40.7(35) . . .
47(4) . . .
44.7(34) . . .
47(4) . . .
48(4) . . .
46(4) . . .
45(4) . . .
43.1(34) . . .
40.9(34) . . .
45(4) . . .
41.0(34) . . .
49(4) . . .
40.4(33) . . .
54(4) . . .
52(4) . . .
42(4) . . .
46(4) . . .
54(4) . . .
44(4) . . .
38.0(35) . . .
44(4) . . .
44.8(35) . . .
42.5(34) . . .
42(4) . . .
47(4) . . .
50(4) . . .
48(4) . . .
38.8(32) . . .
50(4) . . .
49(4) . . .
37.7(33) . . .
50(4) . . .
40.0(34) . . .
36.8(33) . . .
48(4) . . .
54(4) . . .
58(4) . . .
49(4) . . .
54(4) . . .
52(4) . . .
46(4) . . .
48(4) . . .
45.5(34) . . .
46(4) . . .
48(4) . . .
45(4) . . .
50(4) . . .
45(4) . . .
50(4) . . .
39.9(35) . . .
36.8(33) . . .
41.0(34) . . .
42.2(34) . . .
50(4) . . .
58(4) . . .
43(4) . . .
41.4(34) . . .
40.5(33) . . .
51(4) . . .
45(4) . . .
44(4) . . .
44.9(35) . . .
41.3(33) . . .
42.5(35) . . .
51(4) . . .
53(4) . . .
44.0(35) . . .
45.0(34) . . .
48(4) . . .
47(4) . . .
42.0(34) . . .
54(4) . . .
54(4) . . .
50(4) . . .
45(4) . . .
48(4) . . .
48(4) . . .
47(4) . . .
38.2(33) . . .
38.3(34) . . .
36.3(32) . . .
44.9(35) . . .
57(4) . . .
47(4) . . .
45(4) . . .
41.9(35) . . .
39.8(33) . . .
43(4) . . .
46(4) . . .
54(4) . . .
42.0(34) . . .
44.4(35) . . .
39.0(33) . . .
41(4) . . .
40.8(34) . . .
44.4(34) . . .
43.3(34) . . .
38.3(32) . . .
53(4) . . .
44(4) . . .
42.3(34) . . .
42.2(34) . . .
40.8(34) . . .
37.7(33) . . .
38.6(33) . . .
43.9(35) . . .
52(4) . . .
53(4) . . .
42(4) . . .
46(4) . . .
47(4) . . .
42.6(34) . . .
43(4) . . .
43(4) . . .
48(4) . . .
40.2(33) . . .
48(4) . . .
50(4) . . .
48(4) . . .
47(4) . . .
41.9(34) . . .
50(4) . . .
41(4) . . .
50(4) . . .
48(4) . . .
53(4) . . .
52(4) . . .
51(4) . . .
42.1(34) . . .
49(4) . . .
45(4) . . .
44(4) . . .
46(4) . . .
42(4) . . .
53(4) . . .
51(4) . . .
46(4) . . .
40.6(35) . . .
35.1(31) . . .
54(4) . . .
36.8(32) . . .
45(4) . . .
45(4) . . .
58(4) . . .
54(4) . . .
47(4) . . .
53(4) . . .
53(4) . . .
54(4) . . .
53(4) . . .
45.0(35) . . .
40.0(34) . . .
51(4) . . .
42.5(35) . . .
48(4) . . .
48(4) . . .
45.1(35) . . .
45(4) . . .
36.2(31) . . .
45(4) . . .
45(4) . . .
44(4) . . .
38.8(34) . . .
50(4) . . .
51(4) . . .
48(4) . . .
45(4) . . .
44(4) . . .
47(4) . . .
48(4) . . .
53(4) . . .
47(4) . . .
51(4) . . .
44.2(35) . . .
46(4) . . .
45(4) . . .
53(4) . . .
46(4) . . .
39.1(34) . . .
48(4) . . .
44(4) . . .
46(4) . . .
45(4) . . .
42.0(34) . . .
49(4) . . .
50(4) . . .
48(4) . . .
53(4) . . .
52(4) . . .
48(4) . . .
44(4) . . .
47(4) . . .
53(4) . . .
45.1(35) . . .
37.9(32) . . .
50(4) . . .
38.7(32) . . .
56(4) . . .
40.5(33) . . .
39.8(33) . . .
43.3(35) . . .
47(4) . . .
39.5(33) . . .
48(4) . . .
53(4) . . .
46(4) . . .
60(4) . . .
46(4) . . .
49(4) . . .
45(4) . . .
57(4) . . .
54(4) . . .
43(4) . . .
47(4) . . .
42.0(34) . . .
42(4) . . .
48(4) . . .
47(4) . . .
39.2(33) . . .
38.6(33) . . .
50(4) . . .
43(4) . . .
46(4) . . .
49(4) . . .
54(4) . . .
44(4) . . .
49(4) . . .
51(4) . . .
49(4) . . .
39.5(35) . . .
39(4) . . .
40.2(35) . . .
41.3(35) . . .
48(4) . . .
50(4) . . .
43(4) . . .
40(4) . . .
40.0(34) . . .
51(4) . . .
47(4) . . .
42(4) . . .
55(4) . . .
48(4) . . .
58(4) . . .
40.6(33) . . .
47(4) . . .
49(4) . . .
34.9(31) . . .
49(4) . . .
51(4) . . .
50(4) . . .
52(4) . . .
41.5(33) . . .
39.3(34) . . .
39.3(32) . . .
47(4) . . .
48(4) . . .
43.5(35) . . .
50(4) . . .
45(4) . . .
42(4) . . .
42.2(35) . . .
46(4) . . .
48(4) . . .
47(4) . . .
42.1(35) . . .
45(4) . . .
46(4) . . .
51(4) . . .
50(4) . . .
41.8(33) . . .
49(4) . . .
40.0(34) . . .
51(4) . . .
48(4) . . .
47(4) . . .
44.5(34) . . .
44.1(35) . . .
49(4) . . .
46(4) . . .
43.5(34) . . .
59(4) . . .
46(4) . . .
44(4) . . .
51(4) . . .
52(4) . . .
50(4) . . .
49(4) . . .
56(4) . . .
40.7(34) . . .
48(4) . . .
44.7(35) . . .
46(4) . . .
43(4) . . .
50(4) . . .
45(4) . . .
46(4) . . .
45.0(35) . . .
50(4) . . .
48(4) . . .
41.1(34) . . .
39.8(33) . . .
42.9(34) . . .
43.2(35) . . .
52(4) . . .
39.5(32) . . .
38.3(32) . . .
47(4) . . .
36.5(32) . . .
47(4) . . .
46(4) . . .
47(4) . . .
53(4) . . .
38.6(33) . . .
43(4) . . .
46(4) . . .
49(4) . . .
46(4) . . .
43(4) . . .
41.8(35) . . .
41.8(34) . . .
41.1(33) . . .
41.7(34) . . .
32.4(30) . . .
46(4) . . .
38.6(32) . . .
49(4) . . .
43(4) . . .
52(4) . . .
44(4) . . .
43.0(35) . . .
51(4) . . .
40.2(34) . . .
47(4) . . .
50(4) . . .
44.5(34) . . .
31.4(29) . . .
49(4) . . .
34.8(30) . . .
45(4) . . .
43.1(35) . . .
52(4) . . .
49(4) . . .
52(4) . . .
44(4) . . .
31.8(30) . . .
50(4) . . .
50(4) . . .
53(4) . . .
45(4) . . .
47(4) . . .
52(4) . . .
47(4) . . .
47(4) . . .
42.0(34) . . .
49(4) . . .
37.2(32) . . .
44(4) . . .
51(4) . . .
54(4) . . .
35.9(31) . . .
44(4) . . .
39.7(33) . . .
40.2(34) . . .
38.7(35) . . .
47(4) . . .
45.4(34) . . .
45(4) . . .
47(4) . . .
52(4) . . .
48(4) . . .
50(4) . . .
53(4) . . .
55(4) . . .
42.0(33) . . .
39.6(33) . . .
38.7(34) . . .
38(4) . . .
38.4(35) . . .
38.3(32) . . .
50(4) . . .
41(4) . . .
42(4) . . .
36.0(34) . . .
41.7(33) . . .
39.6(33) . . .
43(4) . . .
49(4) . . .
42.9(35) . . .
47(4) . . .
43.9(34) . . .
30.7(29) . . .
40(4) . . .
41.4(34) . . .
47(4) . . .
37.2(32) . . .
39.6(35) . . .
50(4) . . .
40.0(33) . . .
42.8(34) . . .
41.6(33) . . .
48(4) . . .
46(4) . . .
44(4) . . .
45.9(35) . . .
40.8(34) . . .
40(4) . . .
33.8(32) . . .
45(4) . . .
43.0(34) . . .
47(4) . . .
30.3(28) . . .
50(4) . . .
39.0(34) . . .
46(4) . . .
40.7(33) . . .
49(4) . . .
51(4) . . .
43.1(34) . . .
47(4) . . .
34.5(31) . . .
47(4) . . .
42(4) . . .
43.3(35) . . .
41.6(34) . . .
42.0(34) . . .
49(4) . . .
37.4(33) . . .
48(4) . . .
50(4) . . .
48(4) . . .
39(4) . . .
44(4) . . .
40.8(33) . . .
44.8(35) . . .
42.0(34) . . .
37(4) . . .
37.8(34) . . .
47(4) . . .
42.7(34) . . .
42(4) . . .
42(4) . . .
39.8(33) . . .
45.3(35) . . .
37.7(32) . . .
46(4) . . .
42(4) . . .
48(4) . . .
40.5(33) . . .
33.4(30) . . .
49(4) . . .
42.1(35) . . .
47(4) . . .
43.7(35) . . .
47(4) . . .
47(4) . . .
38.1(33) . . .
40.7(35) . . .
36.9(32) . . .
47(4) . . .
50(4) . . .
51(4) . . .
44.1(35) . . .
55(4) . . .
36.1(31) . . .
38.7(33) . . .
42.3(35) . . .
42.4(34) . . .
50(4) . . .
43.2(35) . . .
37.4(33) . . .
39.0(34) . . .
43.0(34) . . .
39.3(32) . . .
47(4) . . .
42(4) . . .
39.2(35) . . .
32.0(31) . . .
47(4) . . .
48(4) . . .
45(4) . . .
41.7(35) . . .
37.8(33) . . .
45.4(35) . . .
49(4) . . .
46(4) . . .
37.0(33) . . .
46(4) . . .
34.3(30) . . .
41.7(34) . . .
48(4) . . .
40.5(34) . . .
41.3(34) . . .
50(4) . . .
40.8(33) . . .
52(4) . . .
46(4) . . .
43.9(34) . . .
37.0(32) . . .
32.9(30) . . .
44(4) . . .
42.2(34) . . .
39.8(33) . . .
41.1(33) . . .
45(4) . . .
51(4) . . .
46(4) . . .
43.5(34) . . .
41.0(35) . . .
41(4) . . .
48(4) . . .
48(4) . . .
43.6(34) . . .
40.5(33) . . .
41.0(33) . . .
46(4) . . .
42.2(35) . . .
52(4) . . .
50(4) . . .
41(4) . . .
35.0(32) . . .
46(4) . . .
41.2(34) . . .
33.8(30) . . .
39.7(34) . . .
37.0(33) . . .
49(4) . . .
46(4) . . .
43(4) . . .
46(4) . . .
50(4) . . .
40.6(34) . . .
44.0(35) . . .
42.1(34) . . .
45(4) . . .
40.3(33) . . .
39.0(34) . . .
49(4) . . .
37.0(33) . . .
35.1(33) . . .
46(4) . . .
43.0(34) . . .
37.7(33) . . .
39.2(33) . . .
48(4) . . .
52(4) . . .
46(4) . . .
42.7(34) . . .
51(4) . . .
37.2(33) . . .
41.5(34) . . .
43.4(34) . . .
51(4) . . .
44(4) . . .
45(4) . . .
48(4) . . .
48(4) . . .
38.2(33) . . .
53(4) . . .
47(4) . . .
37.5(32) . . .
45(4) . . .
44.5(35) . . .
45(4) . . .
43(4) . . .
44(4) . . .
48(4) . . .
47(4) . . .
46(4) . . .
56(4) . . .
50(4) . . .
40.4(33) . . .
46(4) . . .
45(4) . . .
50(4) . . .
44(4) . . .
46(4) . . .
49(4) . . .
51(4) . . .
40.5(34) . . .
42.9(34) . . .
42.8(34) . . .
44(4) . . .
41(4) . . .
47(4) . . .
33.2(30) . . .
36.9(32) . . .
31.0(29) . . .
41(4) . . .
39.2(34) . . .
36.9(31) . . .
44.8(35) . . .
46(4) . . .
44(4) . . .
42(4) . . .
43.4(35) . . .
49(4) . . .
46(4) . . .
47(4) . . .
44.8(35) . . .
42.8(34) . . .
42.9(34) . . .
42.5(35) . . .
51(4) . . .
43.7(35) . . .
31.0(29) . . .
45.2(35) . . .
41(4) . . .
47(4) . . .
49(4) . . .
44.1(35) . . .
45(4) . . .
46(4) . . .
47(4) . . .
46(4) . . .
49(4) . . .
44(4) . . .
49(4) . . .
54(4) . . .
47(4) . . .
50(4) . . .
46(4) . . .
36.6(31) . . .
46(4) . . .
45(4) . . .
43.1(34) . . .
35.9(32) . . .
43(4) . . .
45(4) . . .
38.2(32) . . .
39.2(33) . . .
39.4(34) . . .
41.8(35) . . .
41.4(35) . . .
38.9(33) . . .
48(4) . . .
43(4) . . .
46(4) . . .
42.0(34) . . .
45(4) . . .
49(4) . . .
52(4) . . .
55(4) . . .
43.3(34) . . .
41.6(33) . . .
48(4) . . .
52(4) . . .
51(4) . . .
47(4) . . .
41.1(33) . . .
44.7(34) . . .
45(4) . . .
46(4) . . .
37.8(32) . . .
34.8(31) . . .
38.0(32) . . .
36.7(34) . . .
46(4) . . .
45(4) . . .
48(4) . . .
48(4) . . .
43(4) . . .
40.6(35) . . .
39.9(33) . . .
34.5(31) . . .
41.3(34) . . .
48(4) . . .
44(4) . . .
44(4) . . .
46(4) . . .
43.8(35) . . .
44(4) . . .
45(4) . . .
44.4(35) . . .
47(4) . . .
42(4) . . .
41(4) . . .
39.0(33) . . .
42.0(34) . . .
47(4) . . .
44.3(35) . . .
41.6(34) . . .
35.7(32) . . .
37.7(33) . . .
42.8(34) . . .
44.4(35) . . .
43.2(35) . . .
38.3(31) . . .
42.4(34) . . .
46(4) . . .
47(4) . . .
48(4) . . .
44.0(34) . . .
40.9(33) . . .
44.5(34) . . .
46(4) . . .
39.8(33) . . .
36.8(32) . . .
39.2(33) . . .
45(4) . . .
33.2(29) . . .
55(4) . . .
43.5(35) . . .
51(4) . . .
51(4) . . .
42.4(34) . . .
38(4) . . .
32.0(30) . . .
45.0(35) . . .
40.5(33) . . .
39(4) . . .
38.4(33) . . .
53(4) . . .
45.0(35) . . .
37.9(32) . . .
44.0(34) . . .
48(4) . . .
45(4) . . .
50(4) . . .
43.5(35) . . .
34.2(31) . . .
51(4) . . .
49(4) . . .
41.1(34) . . .
47(4) . . .
42(4) . . .
33.0(32) . . .
44(4) . . .
44.4(35) . . .
42(4) . . .
45(4) . . .
47(4) . . .
45(4) . . .
48(4) . . .
42.6(34) . . .
43(4) . . .
46(4) . . .
46(4) . . .
48(4) . . .
37(4) . . .
41(4) . . .
48(4) . . .
55(4) . . .
42.4(34) . . .
49(4) . . .
41(4) . . .
48(4) . . .
40.9(33) . . .
35.7(32) . . .
48(4) . . .
44(4) . . .
40.1(34) . . .
39.7(33) . . .
43.6(34) . . .
41.5(33) . . .
44(4) . . .
32.2(32) . . .
43.6(34) . . .
41.5(34) . . .
43.7(35) . . .
49(4) . . .
44(4) . . .
43.1(34) . . .
50(4) . . .
50(4) . . .
44(4) . . .
54(4) . . .
56(4) . . .
49(4) . . .
47(4) . . .
47(4) . . .
39.3(33) . . .
43.3(34) . . .
43(4) . . .
32.2(29) . . .
40.1(34) . . .
42.0(35) . . .
33.4(30) . . .
39.9(32) . . .
36.8(31) . . .
46(4) . . .
46(4) . . .
48(4) . . .
40(4) . . .
46(4) . . .
46(4) . . .
46(4) . . .
50(4) . . .
41.3(35) . . .
43(4) . . .
49(4) . . .
45.5(35) . . .
36.9(31) . . .
47(4) . . .
46(4) . . .
38.8(32) . . .
48(4) . . .
42.9(34) . . .
37.0(31) . . .
49(4) . . .
47(4) . . .
42.6(35) . . .
42.9(34) . . .
51(4) . . .
48(4) . . .
52(4) . . .
49(4) . . .
51(4) . . .
44(4) . . .
41(4) . . .
44.4(35) . . .
52(4) . . .
35.7(31) . . .
37.7(33) . . .
43(4) . . .
40.5(34) . . .
51(4) . . .
41.5(33) . . .
37(4) . . .
45(4) . . .
44(4) . . .
44.9(35) . . .
38.6(33) . . .
46(4) . . .
51(4) . . .
40.6(34) . . .
39.6(32) . . .
41.9(34) . . .
48(4) . . .
43.8(35) . . .
39.2(33) . . .
47(4) . . .
49(4) . . .
50(4) . . .
46(4) . . .
34.2(31) . . .
43.1(34) . . .
47(4) . . .
35.0(32) . . .
44(4) . . .
42.2(35) . . .
35.6(31) . . .
38.9(34) . . .
43(4) . . .
49(4) . . .
51(4) . . .
36.0(31) . . .
38.9(34) . . .
47(4) . . .
39.1(33) . . .
45(4) . . .
49(4) . . .
42(4) . . .
50(4) . . .
50(4) . . .
44.0(35) . . .
53(4) . . .
51(4) . . .
46(4) . . .
36.8(32) . . .
46(4) . . .
48(4) . . .
45(4) . . .
45(4) . . .
50(4) . . .
41.4(33) . . .
40.5(33) . . .
43(4) . . .
33.6(32) . . .
42(4) . . .
42.5(34) . . .
40.9(34) . . .
49(4) . . .
40.7(33) . . .
46(4) . . .
34.8(31) . . .
38.6(33) . . .
36.7(33) . . .
38.7(33) . . .
38.4(33) . . .
37.5(32) . . .
42.1(35) . . .
39(4) . . .
50(4) . . .
50(4) . . .
33.5(30) . . .
44(4) . . .
40.7(35) . . .
46(4) . . .
48(4) . . .
46.1(35) . . .
42.7(33) . . .
47(4) . . .
49(4) . . .
41.3(34) . . .
42.8(34) . . .
36.8(34) . . .
36.2(33) . . .
44(4) . . .
39.8(34) . . .
32.7(30) . . .
40.8(33) . . .
39.3(34) . . .
38.0(32) . . .
36.8(32) . . .
51(4) . . .
48(4) . . .
40.5(35) . . .
48(4) . . .
49(4) . . .
48(4) . . .
41.5(35) . . .
44(4) . . .
45(4) . . .
41.1(34) . . .
45(4) . . .
41.7(34) . . .
40.0(34) . . .
41(4) . . .
36.6(31) . . .
43.1(34) . . .
39.9(33) . . .
44(4) . . .
41.5(33) . . .
42.9(34) . . .
42.3(34) . . .
37.2(32) . . .
48(4) . . .
44.5(35) . . .
46(4) . . .
41.4(33) . . .
48(4) . . .
32.5(29) . . .
42.0(35) . . .
41.6(33) . . .
47(4) . . .
39.9(34) . . .
40.4(34) . . .
35.7(32) . . .
40.0(33) . . .
43(4) . . .
45(4) . . .
50(4) . . .
49(4) . . .
36.8(32) . . .
45(4) . . .
48(4) . . .
49(4) . . .
38.7(33) . . .
38.7(32) . . .
56(4) . . .
35.5(31) . . .
42(4) . . .
44.5(35) . . .
40.3(33) . . .
50(4) . . .
46(4) . . .
39(4) . . .
45.4(35) . . .
41.2(34) . . .
39.5(34) . . .
42(4) . . .
41.8(35) . . .
50(4) . . .
36.6(31) . . .
51(4) . . .
40.4(33) . . .
47(4) . . .
38.4(32) . . .
40.5(33) . . .
39.1(34) . . .
42(4) . . .
40(4) . . .
49(4) . . .
40(4) . . .
47(4) . . .
44(4) . . .
52(4) . . .
44.9(35) . . .
40.5(33) . . .
41(4) . . .
45(4) . . .
44.0(35) . . .
51(4) . . .
43(4) . . .
46(4) . . .
51(4) . . .
41.9(33) . . .
46(4) . . .
52(4) . . .
41.3(35) . . .
41(4) . . .
44(4) . . .
48(4) . . .
44(4) . . .
51(4) . . .
48(4) . . .
47(4) . . .
44(4) . . .
39.6(33) . . .
41(4) . . .
40.4(34) . . .
41.8(34) . . .
53(4) . . .
48(4) . . .
42(4) . . .
37.1(34) . . .
46(4) . . .
47(4) . . .
49(4) . . .
50(4) . . .
47(4) . . .
40.2(33) . . .
41.9(34) . . .
45(4) . . .
49(4) . . .
51(4) . . .
51(4) . . .
49(4) . . .
46(4) . . .
47(4) . . .
39.9(33) . . .
37.6(32) . . .
38.0(34) . . .
42.5(35) . . .
36.8(32) . . .
39.9(34) . . .
45.1(35) . . .
50(4) . . .
39.7(33) . . .
41(4) . . .
28.2(27) . . .
42.1(34) . . .
44(4) . . .
41(4) . . .
38.9(34) . . .
49(4) . . .
37.9(32) . . .
44(4) . . .
39.0(35) . . .
36.4(31) . . .
38.5(32) . . .
37.2(33) . . .
36.5(34) . . .
39(4) . . .
43.1(35) . . .
47(4) . . .
49(4) . . .
42.2(35) . . .
44(4) . . .
40.7(35) . . .
42.4(33) . . .
43.8(34) . . .
39.7(33) . . .
48(4) . . .
44(4) . . .
46(4) . . .
44(4) . . .
44(4) . . .
34.3(31) . . .
34.9(30) . . .
37.3(31) . . .
44.3(34) . . .
36.7(32) . . .
38(4) . . .
40(4) . . .
33.7(30) . . .
36.9(33) . . .
42(4) . . .
44(4) . . .
45(4) . . .
48(4) . . .
52(4) . . .
41(4) . . .
42(4) . . .
39.2(34) . . .
36.1(31) . . .
39.2(35) . . .
29.5(30) . . .
32.6(31) . . .
50(4) . . .
48(4) . . .
41.3(35) . . .
41.2(35) . . .
42.1(34) . . .
47(4) . . .
44(4) . . .
49(4) . . .
35.4(31) . . .
47(4) . . .
42.6(34) . . .
37.0(31) . . .
37.0(33) . . .
39.4(35) . . .
39.4(34) . . .
45(4) . . .
35.3(31) . . .
51(4) . . .
45(4) . . .
38.9(35) . . .
48(4) . . .
32.2(30) . . .
40.4(34) . . .
48(4) . . .
36.3(31) . . .
47(4) . . .
52(4) . . .
47(4) . . .
34.9(32) . . .
40.6(35) . . .
36.5(32) . . .
50(4) . . .
47(4) . . .
42(4) . . .
47(4) . . .
36.1(31) . . .
39.5(34) . . .
34.4(30) . . .
44(4) . . .
38.0(33) . . .
43.0(34) . . .
44(4) . . .
47(4) . . .
45(4) . . .
43.8(35) . . .
40.2(33) . . .
44.6(34) . . .
44(4) . . .
35.5(32) . . .
41.8(35) . . .
43.4(34) . . .
41(4) . . .
39.4(34) . . .
42.5(34) . . .
39.7(33) . . .
35.2(31) . . .
36.0(33) . . .
41(4) . . .
36.0(31) . . .
38.9(32) . . .
46(4) . . .
46(4) . . .
38.5(33) . . .
41.3(34) . . .
36.5(31) . . .
38.7(32) . . .
48(4) . . .
37.4(34) . . .
32.0(29) . . .
45.8(35) . . .
58(4) . . .
49(4) . . .
45(4) . . .
40.2(34) . . .
45.0(35) . . .
42.9(34) . . .
45(4) . . .
40(4) . . .
44(4) . . .
43.7(34) . . .
41.8(34) . . .
40.6(34) . . .
44(4) . . .
46(4) . . .
40.9(33) . . .
37.3(32) . . .
39.4(34) . . .
41.3(33) . . .
43.2(34) . . .
48(4) . . .
38.6(32) . . .
37.7(33) . . .
44(4) . . .
47(4) . . .
33.4(30) . . .
35.8(32) . . .
41.0(33) . . .
58(4) . . .
42.2(35) . . .
39.2(33) . . .
41.3(34) . . .
44(4) . . .
46(4) . . .
40.6(34) . . .
40.0(34) . . .
40(4) . . .
32.5(31) . . .
41(4) . . .
45(4) . . .
44.5(34) . . .
37.0(33) . . .
35.0(33) . . .
40.2(33) . . .
44.0(34) . . .
45(4) . . .
40.2(34) . . .
44(4) . . .
46(4) . . .
45(4) . . .
45(4) . . .
39.1(33) . . .
47(4) . . .
38.7(33) . . .
40.7(33) . . .
43.7(35) . . .
32.8(30) . . .
41(4) . . .
45(4) . . .
33.8(30) . . .
55(4) . . .
40.2(32) . . .
45(4) . . .
45(4) . . .
50(4) . . .
41.5(34) . . .
39.8(34) . . .
41(4) . . .
53(4) . . .
42.8(34) . . .
36.2(33) . . .
46(4) . . .
44(4) . . .
37.9(32) . . .
39.3(32) . . .
37.7(32) . . .
36.4(33) . . .
37.8(33) . . .
39.5(34) . . .
49(4) . . .
52(4) . . .
51(4) . . .
38.9(34) . . .
43.2(34) . . .
38.5(33) . . .
45(4) . . .
40.4(35) . . .
40.4(34) . . .
36.8(31) . . .
43(4) . . .
41(4) . . .
31.8(29) . . .
43(4) . . .
44.7(35) . . .
32.2(30) . . .
35.7(32) . . .
34.7(32) . . .
49(4) . . .
34.7(30) . . .
46(4) . . .
48(4) . . .
46(4) . . .
45.1(34) . . .
42.1(34) . . .
42.5(34) . . .
41(4) . . .
40(4) . . .
31.4(29) . . .
36.2(31) . . .
43.9(34) . . .
49(4) . . .
47(4) . . .
43.9(35) . . .
47(4) . . .
50(4) . . .
39(4) . . .
34.3(32) . . .
42.9(34) . . .
38.5(33) . . .
45(4) . . .
38.7(35) . . .
44(4) . . .
44.3(35) . . .
47(4) . . .
44(4) . . .
46(4) . . .
38.4(33) . . .
42(4) . . .
45.1(35) . . .
34.6(32) . . .
46(4) . . .
46(4) . . .
39.5(34) . . .
44.2(34) . . .
40.1(33) . . .
44(4) . . .
45(4) . . .
45.2(35) . . .
44(4) . . .
40.9(34) . . .
36.0(32) . . .
51(4) . . .
40.4(33) . . .
40.8(34) . . .
39(4) . . .
40(4) . . .
43.9(35) . . .
45(4) . . .
48(4) . . .
42.8(34) . . .
41(4) . . .
40(4) . . .
44.2(34) . . .
41.4(34) . . .
50(4) . . .
37.6(35) . . .
38.2(34) . . .
40.5(34) . . .
44.9(34) . . .
38.3(33) . . .
49(4) . . .
45(4) . . .
39.3(33) . . .
48(4) . . .
40.1(34) . . .
39(4) . . .
35.0(33) . . .
43.6(34) . . .
35.8(32) . . .
48(4) . . .
47(4) . . .
33.7(32) . . .
38.4(33) . . .
40.7(33) . . .
49(4) . . .
49(4) . . .
46(4) . . .
40.0(33) . . .
45.3(35) . . .
49(4) . . .
35.8(31) . . .
41.5(34) . . .
41.3(34) . . .
49(4) . . .
48(4) . . .
46(4) . . .
41.5(34) . . .
48(4) . . .
31.0(29) . . .
32.8(32) . . .
44(4) . . .
39.0(33) . . .
49(4) . . .
46(4) . . .
41.9(35) . . .
49(4) . . .
48(4) . . .
48(4) . . .
46(4) . . .
58(4) . . .
40.4(34) . . .
37.0(32) . . .
43.0(35) . . .
44(4) . . .
36.1(33) . . .
42(4) . . .
41.0(33) . . .
37.0(31) . . .
37.1(32) . . .
38.3(33) . . .
38.7(34) . . .
44.5(34) . . .
51(4) . . .
38(4) . . .
32.2(30) . . .
49(4) . . .
51(4) . . .
43(4) . . .
38.8(34) . . .
40.5(34) . . .
40.4(34) . . .
46.5(35) . . .
38.4(32) . . .
32.9(32) . . .
38(4) . . .
42.6(35) . . .
41.1(34) . . .
47(4) . . .
37.3(33) . . .
37.9(33) . . .
48(4) . . .
48(4) . . .
54(4) . . .
41.6(35) . . .
53(4) . . .
50(4) . . .
48(4) . . .
43.3(34) . . .
33.2(31) . . .
39.0(34) . . .
48(4) . . .
46(4) . . .
37.2(32) . . .
38.0(35) . . .
39.3(32) . . .
36.6(31) . . .
51(4) . . .
47(4) . . .
42.8(34) . . .
39.7(33) . . .
42.9(34) . . .
49(4) . . .
40.1(35) . . .
41(4) . . .
36.0(33) . . .
35.2(31) . . .
40.4(33) . . .
42(4) . . .
35.8(35) . . .
36.1(33) . . .
45(4) . . .
43.0(34) . . .
37.8(34) . . .
48(4) . . .
39.4(34) . . .
36.9(32) . . .
35.6(33) . . .
44(4) . . .
35.8(33) . . .
38.5(34) . . .
44.1(34) . . .
39.4(33) . . .
43(4) . . .
46(4) . . .
39.4(34) . . .
38.5(32) . . .
40.3(34) . . .
50(4) . . .
52(4) . . .
42(4) . . .
47(4) . . .
31.0(29) . . .
34.3(30) . . .
38.0(32) . . .
40.9(34) . . .
36.5(32) . . .
41.4(34) . . .
35.1(33) . . .
45(4) . . .
40.6(34) . . .
46(4) . . .
43.0(35) . . .
41(4) . . .
42.0(35) . . .
39.4(32) . . .
37.0(32) . . .
40.3(34) . . .
33.9(31) . . .
30.0(28) . . .
41.6(33) . . .
48(4) . . .
38.4(32) . . .
47(4) . . .
40(4) . . .
37.3(32) . . .
47(4) . . .
38.7(33) . . .
34.0(32) . . .
32.7(31) . . .
39.5(34) . . .
41.5(33) . . .
52(4) . . .
41(4) . . .
40.7(35) . . .
37.9(32) . . .
32.9(31) . . .
41.3(34) . . .
45(4) . . .
47(4) . . .
36.6(32) . . .
33.7(31) . . .
34.0(32) . . .
44(4) . . .
45(4) . . .
43.3(34) . . .
42.5(34) . . .
41.9(35) . . .
46(4) . . .
42(4) . . .
33.1(30) . . .
35.4(31) . . .
37.0(34) . . .
39.7(33) . . .
50(4) . . .
36.8(32) . . .
30.2(29) . . .
41(4) . . .
34.3(32) . . .
39.8(33) . . .
47(4) . . .
49(4) . . .
46(4) . . .
36.7(34) . . .
46(4) . . .
53(4) . . .
44(4) . . .
37.6(34) . . .
38.3(33) . . .
35.7(31) . . .
39.8(34) . . .
43.5(35) . . .
36.7(32) . . .
38.0(33) . . .
32.0(30) . . .
41.5(34) . . .
42(4) . . .
47(4) . . .
39.6(34) . . .
39.0(33) . . .
45(4) . . .
35.4(32) . . .
34.6(32) . . .
42(4) . . .
43.2(34) . . .
40.7(34) . . .
51(4) . . .
53(4) . . .
44(4) . . .
37.6(32) . . .
48(4) . . .
49(4) . . .
46(4) . . .
46(4) . . .
43.0(34) . . .
41.6(34) . . .
34.8(32) . . .
40.4(35) . . .
40.3(35) . . .
45.3(35) . . .
41(4) . . .
44.9(34) . . .
36.6(31) . . .
43(4) . . .
36.8(32) . . .
44(4) . . .
48(4) . . .
40.3(34) . . .
40.9(35) . . .
33.9(30) . . .
41.1(35) . . .
40.0(35) . . .
44(4) . . .
47(4) . . .
44.5(35) . . .
45.3(34) . . .
50(4) . . .
40.9(34) . . .
42.1(34) . . .
39.4(32) . . .
35.1(30) . . .
47(4) . . .
49(4) . . .
48(4) . . .
43.9(34) . . .
45(4) . . .
47(4) . . .
43.0(34) . . .
47(4) . . .
46(4) . . .
42(4) . . .
40(4) . . .
36.6(34) . . .
48(4) . . .
35.5(31) . . .
40.4(34) . . .
49(4) . . .
34.0(31) . . .
49(4) . . .
38.9(33) . . .
40.4(35) . . .
42(4) . . .
43(4) . . .
46(4) . . .
41.9(34) . . .
44(4) . . .
48(4) . . .
38.2(33) . . .
40.3(33) . . .
39(4) . . .
41.1(34) . . .
45(4) . . .
43(4) . . .
43.5(34) . . .
45(4) . . .
37.5(33) . . .
43.1(35) . . .
42.9(35) . . .
41.8(34) . . .
39.0(32) . . .
40.7(33) . . .
41.3(35) . . .
39.0(33) . . .
38.0(33) . . .
34.7(32) . . .
31.5(29) . . .
43(4) . . .
38.5(34) . . .
40.2(33) . . .
38.7(33) . . .
42(4) . . .
40.8(34) . . .
42.9(34) . . .
28.3(28) . . .
41.5(34) . . .
37.5(32) . . .
50(4) . . .
44(4) . . .
35.0(31) . . .
35.1(33) . . .
47(4) . . .
43.7(35) . . .
45.0(34) . . .
37.9(33) . . .
25.5(28) . . .
44(4) . . .
40.4(33) . . .
37.1(31) . . .
33.7(31) . . .
40.4(34) . . .
45(4) . . .
38.8(34) . . .
35.0(31) . . .
36.0(32) . . .
48(4) . . .
40.1(34) . . .
44(4) . . .
54(4) . . .
38.5(32) . . .
44(4) . . .
46(4) . . .
47(4) . . .
39.3(33) . . .
49(4) . . .
43(4) . . .
42.0(34) . . .
40.7(35) . . .
40.5(33) . . .
50(4) . . .
37.8(33) . . .
35.1(31) . . .
48(4) . . .
35.0(31) . . .
48(4) . . .
49(4) . . .
49(4) . . .
41.5(34) . . .
38.2(32) . . .
47(4) . . .
51(4) . . .
38.8(34) . . .
34.8(31) . . .
34.2(30) . . .
45(4) . . .
44(4) . . .
41(4) . . .
38.5(33) . . .
45(4) . . .
46(4) . . .
37.4(34) . . .
34.8(31) . . .
32.4(30) . . .
36.0(31) . . .
34.6(31) . . .
48(4) . . .
56(4) . . .
49(4) . . .
45.8(35) . . .
50(4) . . .
44(4) . . .
38.4(33) . . .
42.4(34) . . .
41.2(34) . . .
50(4) . . .
39.1(34) . . .
35.4(32) . . .
52(4) . . .
40.2(33) . . .
39.7(33) . . .
42.2(35) . . .
36.8(34) . . .
53(4) . . .
42.8(35) . . .
43(4) . . .
43.3(34) . . .
48(4) . . .
51(4) . . .
52(4) . . .
38.0(33) . . .
32.7(31) . . .
49(4) . . .
34.5(30) . . .
38.8(35) . . .
47(4) . . .
46(4) . . .
38.7(33) . . .
35.0(31) . . .
43(4) . . .
35.3(34) . . .
27.0(28) . . .
28.9(28) . . .
38.8(33) . . .
36.9(31) . . .
44(4) . . .
42.2(35) . . .
35.0(30) . . .
43(4) . . .
38.2(34) . . .
44(4) . . .
40.2(34) . . .
39.9(33) . . .
36.5(31) . . .
35.0(32) . . .
33.7(31) . . .
40(4) . . .
30.5(29) . . .
34.2(32) . . .
29.9(29) . . .
44(4) . . .
39.4(32) . . .
29.4(28) . . .
40.9(35) . . .
35.6(34) . . .
35.1(32) . . .
32.2(32) . . .
41.0(33) . . .
43.8(34) . . .
32.9(29) . . .
47(4) . . .
36.4(32) . . .
38.0(32) . . .
44(4) . . .
36.8(32) . . .
37.3(31) . . .
44.6(35) . . .
42.0(34) . . .
38.8(33) . . .
49(4) . . .
50(4) . . .
39.5(32) . . .
47(4) . . .
28.8(28) . . .
44(4) . . .
45(4) . . .
34.1(31) . . .
41.2(33) . . .
41.4(35) . . .
37.8(33) . . .
31.4(28) . . .
39.9(33) . . .
43.9(34) . . .
42.0(34) . . .
38.7(33) . . .
28.5(27) . . .
43.6(34) . . .
37.1(32) . . .
37.3(32) . . .
45(4) . . .
35.0(31) . . .
48(4) . . .
39.7(33) . . .
43.6(35) . . .
47(4) . . .
37.7(33) . . .
37.3(32) . . .
38.1(32) . . .
36.0(31) . . .
48(4) . . .
45(4) . . .
40.6(33) . . .
45(4) . . .
32.2(29) . . .
35.9(35) . . .
38(4) . . .
36.7(32) . . .
37.7(32) . . .
47(4) . . .
42(4) . . .
45(4) . . .
43.8(34) . . .
42.1(35) . . .
43(4) . . .
41(4) . . .
44(4) . . .
47(4) . . .
47(4) . . .
45.8(34) . . .
46(4) . . .
40.0(33) . . .
34.7(31) . . .
32.2(30) . . .
39.5(34) . . .
40.0(33) . . .
39.6(32) . . .
46.5(35) . . .
42(4) . . .
40.1(35) . . .
35.6(32) . . .
34.1(31) . . .
43.0(35) . . .
38.2(32) . . .
41(4) . . .
41(4) . . .
39.0(33) . . .
39.5(33) . . .
38.3(33) . . .
40(4) . . .
36.5(32) . . .
38.3(33) . . .
39.7(33) . . .
40.8(33) . . .
40.3(35) . . .
39.1(33) . . .
41.3(34) . . .
41.2(33) . . .
36.9(33) . . .
37.5(34) . . .
43.7(35) . . .
33.1(30) . . .
40.5(33) . . .
38.5(34) . . .
38.4(34) . . .
33.9(31) . . .
40.2(33) . . .
41.2(34) . . .
42.0(34) . . .
46(4) . . .
39.0(33) . . .
37.9(32) . . .
37.7(32) . . .
41(4) . . .
43(4) . . .
32.7(30) . . .
30.8(29) . . .
44(4) . . .
36.0(31) . . .
34.0(32) . . .
39.6(33) . . .
45(4) . . .
44(4) . . .
43(4) . . .
49(4) . . .
39.5(32) . . .
38.1(32) . . .
34.3(31) . . .
44(4) . . .
44(4) . . .
38.7(34) . . .
40.5(33) . . .
29.9(28) . . .
41.2(34) . . .
35.0(31) . . .
34.0(32) . . .
36.7(31) . . .
44.3(35) . . .
38.7(34) . . .
28.4(27) . . .
41.8(33) . . .
38.1(32) . . .
35.7(32) . . .
39.0(33) . . .
47(4) . . .
47(4) . . .
53(4) . . .
38.7(34) . . .
40(4) . . .
38.7(34) . . .
43.6(35) . . .
43.3(34) . . .
46(4) . . .
46(4) . . .
34.4(32) . . .
40.8(34) . . .
31.6(30) . . .
35.0(31) . . .
46(4) . . .
42(4) . . .
36.8(32) . . .
47(4) . . .
38.7(32) . . .
45(4) . . .
43.1(34) . . .
46(4) . . .
44.1(35) . . .
39.1(33) . . .
40.0(33) . . .
40.3(33) . . .
32.5(30) . . .
44(4) . . .
38.3(33) . . .
45(4) . . .
47(4) . . .
39.2(33) . . .
41.4(35) . . .
33.9(33) . . .
36.7(33) . . .
26.2(26) . . .
38.2(32) . . .
39.8(35) . . .
44.3(35) . . .
50(4) . . .
43.6(34) . . .
40.5(33) . . .
47(4) . . .
40(4) . . .
39.2(33) . . .
47(4) . . .
38.8(32) . . .
38.7(33) . . .
34.5(33) . . .
37.5(33) . . .
44.7(35) . . .
36.7(32) . . .
44.2(35) . . .
42(4) . . .
48(4) . . .
40.6(33) . . .
39.7(33) . . .
42.4(34) . . .
37.3(32) . . .
33.3(31) . . .
32.8(30) . . .
47(4) . . .
47(4) . . .
42(4) . . .
44(4) . . .
44(4) . . .
40.7(34) . . .
38(4) . . .
29.8(31) . . .
42(4) . . .
39.2(33) . . .
39.0(34) . . .
39.8(34) . . .
39.6(34) . . .
34.6(32) . . .
28.7(29) . . .
31.2(30) . . .
38.9(35) . . .
36.0(31) . . .
36.8(31) . . .
37.9(32) . . .
39.6(35) . . .
37.4(33) . . .
39.4(34) . . .
39.0(34) . . .
40.4(34) . . .
51(4) . . .
50(4) . . .
37.3(32) . . .
44.1(34) . . .
39.8(32) . . .
39.5(33) . . .
39.5(34) . . .
46(4) . . .
37.4(32) . . .
49(4) . . .
37.2(33) . . .
41(4) . . .
40(4) . . .
34.0(30) . . .
45(4) . . .
47(4) . . .
40(4) . . .
46(4) . . .
37.6(32) . . .
37.5(33) . . .
42.2(35) . . .
40.5(35) . . .
39.7(34) . . .
37.6(32) . . .
37.0(31) . . .
38.9(32) . . .
39.3(34) . . .
49(4) . . .
34.7(31) . . .
47(4) . . .
40.3(34) . . .
35.8(32) . . .
41.3(35) . . .
45(4) . . .
47(4) . . .
40.4(33) . . .
36.6(32) . . .
40.6(35) . . .
39.9(33) . . .
28.7(29) . . .
41.4(35) . . .
40.1(33) . . .
43.8(35) . . .
45.8(35) . . .
48(4) . . .
40.5(35) . . .
50(4) . . .
33.0(31) . . .
42.3(34) . . .
31.6(30) . . .
33.7(33) . . .
38.5(35) . . .
35.8(31) . . .
41.7(34) . . .
46(4) . . .
40(4) . . .
42.3(35) . . .
37.8(34) . . .
35.9(32) . . .
38.3(34) . . .
39(4) . . .
35.7(34) . . .
29.6(28) . . .
41.9(34) . . .
42(4) . . .
45(4) . . .
40(4) . . .
46(4) . . .
44(4) . . .
38.1(33) . . .
44(4) . . .
39.7(32) . . .
41.5(33) . . .
40.8(34) . . .
55(4) . . .
46(4) . . .
38.5(34) . . .
30.7(29) . . .
46(4) . . .
38.6(34) . . .
38.0(35) . . .
36.7(33) . . .
41.0(33) . . .
38.6(32) . . .
46(4) . . .
50(4) . . .
48(4) . . .
34.7(31) . . .
43(4) . . .
45(4) . . .
33.3(31) . . .
37.7(33) . . .
42.1(34) . . .
46(4) . . .
38.8(34) . . .
37.2(32) . . .
35.2(32) . . .
34.7(31) . . .
44.0(35) . . .
41.2(34) . . .
39.1(34) . . .
38.3(33) . . .
35.6(31) . . .
38.6(34) . . .
36.9(34) . . .
35.3(31) . . .
43.3(34) . . .
50(4) . . .
47(4) . . .
42(4) . . .
46(4) . . .
38.5(35) . . .
35.3(31) . . .
42(4) . . .
37(4) . . .
36.7(32) . . .
38.6(32) . . .
37.5(32) . . .
37.7(34) . . .
46(4) . . .
40.7(34) . . .
37.2(33) . . .
38.8(33) . . .
34.2(30) . . .
42.9(34) . . .
48(4) . . .
41.0(34) . . .
40.6(34) . . .
41(4) . . .
36.4(34) . . .
30.0(29) . . .
36.0(31) . . .
42.0(35) . . .
35.7(33) . . .
40.1(34) . . .
46(4) . . .
34.7(31) . . .
41.5(33) . . .
39.5(32) . . .
42.4(35) . . .
36.2(32) . . .
42.3(34) . . .
38.4(32) . . .
43.0(35) . . .
33.8(30) . . .
40.8(34) . . .
33.3(30) . . .
33.3(30) . . .
39.8(35) . . .
38.6(32) . . .
48(4) . . .
40.6(33) . . .
41(4) . . .
39(4) . . .
42(4) . . .
39.2(32) . . .
37.2(32) . . .
39.3(33) . . .
43(4) . . .
48(4) . . .
37.0(32) . . .
34.8(31) . . .
33.7(30) . . .
45(4) . . .
34.9(33) . . .
34.9(30) . . .
41.8(35) . . .
44(4) . . .
42(4) . . .
47(4) . . .
41.5(33) . . .
47(4) . . .
40.1(34) . . .
41(4) . . .
38.7(33) . . .
45(4) . . .
41.4(34) . . .
38.1(33) . . .
37.3(33) . . .
34.3(31) . . .
49(4) . . .
43.5(35) . . .
30.7(28) . . .
39.7(35) . . .
41.3(35) . . .
42.0(34) . . .
40.0(33) . . .
35.2(31) . . .
42.2(35) . . .
38.5(33) . . .
35.4(32) . . .
42.0(35) . . .
37.5(31) . . .
51(4) . . .
44.5(35) . . .
38.2(32) . . .
35.4(32) . . .
36.7(34) . . .
40.3(35) . . .
40.3(33) . . .
34.4(31) . . .
37.8(34) . . .
45(4) . . .
34.1(30) . . .
41.8(34) . . .
46(4) . . .
41.3(33) . . .
41.3(34) . . .
52(4) . . .
40.9(33) . . .
30.4(29) . . .
35.8(32) . . .
41(4) . . .
44(4) . . .
43.5(34) . . .
44.7(35) . . .
40.6(35) . . .
43(4) . . .
39.6(35) . . .
36.9(31) . . .
43.3(34) . . .
38.0(34) . . .
41(4) . . .
37.1(33) . . .
38.7(34) . . .
36.9(31) . . .
42(4) . . .
38.0(33) . . .
38.7(34) . . .
47(4) . . .
41.7(35) . . .
45(4) . . .
45(4) . . .
37.9(32) . . .
35.1(31) . . .
38.1(32) . . .
47(4) . . .
38.9(32) . . .
42.5(35) . . .
38.5(33) . . .
38.2(32) . . .
37.8(33) . . .
39.7(35) . . .
36.0(31) . . .
35.0(31) . . .
42(4) . . .
42.4(35) . . .
42.1(34) . . .
33.8(30) . . .
38.1(32) . . .
37.9(33) . . .
36.4(33) . . .
44(4) . . .
46.4(35) . . .
41.3(33) . . .
38.3(31) . . .
37.8(33) . . .
39.1(34) . . .
33.9(31) . . .
39.8(33) . . .
37.6(32) . . .
41(4) . . .
36.9(34) . . .
42.9(34) . . .
37.1(33) . . .
42.5(35) . . .
49(4) . . .
42(4) . . .
36.6(31) . . .
42.0(34) . . .
51(4) . . .
46(4) . . .
35.5(31) . . .
45.2(35) . . .
41.5(34) . . .
31.0(30) . . .
41(4) . . .
41.8(34) . . .
42.8(34) . . .
42(4) . . .
40.3(34) . . .
42(4) . . .
35.4(32) . . .
45(4) . . .
38.3(32) . . .
46(4) . . .
42(4) . . .
30.6(29) . . .
40.0(33) . . .
31.3(31) . . .
38(4) . . .
34.8(33) . . .
37.2(34) . . .
42.1(34) . . .
31.1(29) . . .
33.8(30) . . .
36.9(34) . . .
45(4) . . .
36.5(32) . . .
47(4) . . .
46(4) . . .
43(4) . . .
46(4) . . .
41.7(34) . . .
48(4) . . .
38(4) . . .
35.8(33) . . .
33.8(32) . . .
37.1(32) . . .
52(4) . . .
42.2(35) . . .
41.8(34) . . .
52(4) . . .
41.9(34) . . .
37.8(32) . . .
42(4) . . .
38.6(34) . . .
43.7(34) . . .
37.7(32) . . .
34.1(31) . . .
49(4) . . .
42(4) . . .
44.1(35) . . .
37.7(32) . . .
48(4) . . .
46(4) . . .
32.6(31) . . .
40.4(33) . . .
51(4) . . .
44(4) . . .
40.2(35) . . .
35.0(31) . . .
39.2(33) . . .
34.6(31) . . .
36.2(32) . . .
37.0(33) . . .
34.4(31) . . .
47(4) . . .
39.8(34) . . .
38.6(33) . . .
35.2(30) . . .
37.7(33) . . .
34.3(32) . . .
49(4) . . .
36.3(33) . . .
41.5(34) . . .
46(4) . . .
43.1(35) . . .
39.1(34) . . .
38.3(34) . . .
45(4) . . .
38.5(35) . . .
37.2(32) . . .
40(4) . . .
38.8(34) . . .
37.3(33) . . .
39.1(32) . . .
47(4) . . .
51(4) . . .
35.4(32) . . .
39.4(34) . . .
45(4) . . .
41.5(33) . . .
32.9(31) . . .
37.8(34) . . .
39.0(33) . . .
41.0(34) . . .
44.4(34) . . .
41.7(35) . . .
34.0(31) . . .
40(4) . . .
35.3(31) . . .
38.7(32) . . .
47(4) . . .
47(4) . . .
44(4) . . .
54(4) . . .
48(4) . . .
41.3(33) . . .
42.9(35) . . .
42.4(34) . . .
38.7(32) . . .
51(4) . . .
44(4) . . .
39.3(34) . . .
38.2(33) . . .
44.0(34) . . .
44(4) . . .
42(4) . . .
44(4) . . .
38.4(32) . . .
39.8(33) . . .
30.6(29) . . .
36.1(32) . . .
35.8(33) . . .
40.4(35) . . .
46(4) . . .
46(4) . . .
52(4) . . .
35.9(31) . . .
32.5(31) . . .
34.9(30) . . .
36.9(34) . . .
37(4) . . .
32.5(30) . . .
33.5(30) . . .
46(4) . . .
44(4) . . .
42(4) . . .
39.4(34) . . .
39.9(33) . . .
35.0(31) . . .
41.6(34) . . .
40.7(33) . . .
42(4) . . .
39.4(33) . . .
43.7(34) . . .
49(4) . . .
36(4) . . .
30.1(31) . . .
35.6(32) . . .
37.0(32) . . .
44(4) . . .
38.0(34) . . .
36.7(32) . . .
37.9(32) . . .
33.9(30) . . .
32.8(31) . . .
40(4) . . .
35.3(32) . . .
43.8(34) . . .
42.8(34) . . .
38.0(31) . . .
48(4) . . .
41.5(35) . . .
44.8(35) . . .
42.3(35) . . .
34.0(33) . . .
37.5(33) . . .
37.5(32) . . .
39.4(32) . . .
41.4(34) . . .
39.5(35) . . .
34.1(31) . . .
36.0(32) . . .
39.9(33) . . .
43(4) . . .
34.9(30) . . .
49(4) . . .
32.9(30) . . .
37.0(32) . . .
41.8(34) . . .
45(4) . . .
40.1(33) . . .
37.8(32) . . .
46(4) . . .
34.7(31) . . .
35.2(33) . . .
37.3(33) . . .
33.3(30) . . .
45(4) . . .
39.2(35) . . .
46(4) . . .
45(4) . . .
29.1(28) . . .
32.5(30) . . .
40.6(34) . . .
34.9(34) . . .
36.3(32) . . .
36.3(32) . . .
40.4(35) . . .
32.5(31) . . .
37.5(34) . . .
45(4) . . .
41.0(33) . . .
44(4) . . .
37.3(33) . . .
48(4) . . .
47(4) . . .
42.0(33) . . .
42.1(35) . . .
43.5(35) . . .
38(4) . . .
33.4(31) . . .
43.7(35) . . .
39.3(34) . . .
40.2(35) . . .
40(4) . . .
43(4) . . .
33.6(30) . . .
29.4(29) . . .
29.5(31) . . .
43(4) . . .
47(4) . . .
37.0(32) . . .
34.0(30) . . .
39.6(34) . . .
36.0(32) . . .
42.3(34) . . .
36.0(33) . . .
39.4(33) . . .
42(4) . . .
37.3(33) . . .
26.0(26) . . .
38.0(33) . . .
34.8(31) . . .
40.2(35) . . .
35.2(31) . . .
41.0(35) . . .
41.0(33) . . .
37.6(32) . . .
39.8(34) . . .
44(4) . . .
36.7(33) . . .
44.9(35) . . .
40.1(34) . . .
40.7(35) . . .
46(4) . . .
40.5(33) . . .
31.4(29) . . .
34.8(32) . . .
34.7(33) . . .
34.0(31) . . .
48(4) . . .
40.0(32) . . .
38.4(32) . . .
46(4) . . .
45(4) . . .
42.2(35) . . .
41.3(34) . . .
44(4) . . .
42(4) . . .
32.5(32) . . .
36.4(31) . . .
33.2(31) . . .
36.3(30) . . .
40.9(34) . . .
38.3(35) . . .
39.0(32) . . .
33.2(31) . . .
37.0(34) . . .
34.8(33) . . .
36.0(33) . . .
39.2(33) . . .
40(4) . . .
34.4(31) . . .
45(4) . . .
49(4) . . .
49(4) . . .
43(4) . . .
45(4) . . .
42(4) . . .
35.0(31) . . .
37.9(32) . . .
43(4) . . .
36.0(34) . . .
40.3(34) . . .
43.2(34) . . .
37.4(32) . . .
36.8(33) . . .
38.0(34) . . .
43.2(34) . . .
43.4(35) . . .
45.7(34) . . .
41.9(35) . . .
38.6(33) . . .
37.2(33) . . .
43.0(34) . . .
40.4(34) . . .
35.3(32) . . .
45(4) . . .
37.1(31) . . .
42.3(34) . . .
46(4) . . .
39.4(32) . . .
42(4) . . .
36.2(32) . . .
36.9(32) . . .
39.0(35) . . .
40(4) . . .
42(4) . . .
45(4) . . .
37.2(33) . . .
37.7(32) . . .
35.1(32) . . .
46(4) . . .
38.0(32) . . .
47(4) . . .
41.9(35) . . .
32.5(30) . . .
46(4) . . .
37.9(33) . . .
35.0(31) . . .
37.5(34) . . .
45(4) . . .
39.2(35) . . .
36.8(32) . . .
40.9(33) . . .
37.7(34) . . .
43(4) . . .
40.9(35) . . .
47(4) . . .
40.5(34) . . .
35.1(31) . . .
39.8(34) . . .
34.8(32) . . .
35.3(31) . . .
38.1(33) . . .
46(4) . . .
36.7(35) . . .
36.3(33) . . .
48(4) . . .
42.2(33) . . .
40.1(34) . . .
36.8(34) . . .
39.0(33) . . .
45.1(35) . . .
37.4(32) . . .
38(4) . . .
36(4) . . .
41.0(35) . . .
39.1(33) . . .
42.0(34) . . .
52(4) . . .
44(4) . . .
38.1(35) . . .
44.4(35) . . .
45.1(35) . . .
40.7(34) . . .
37.9(35) . . .
31.1(30) . . .
36.5(31) . . .
46(4) . . .
43(4) . . .
48(4) . . .
39(4) . . .
37.3(32) . . .
32.7(29) . . .
43(4) . . .
34.1(31) . . .
46(4) . . .
37.1(31) . . .
37.5(33) . . .
38.1(34) . . .
46(4) . . .
30.6(30) . . .
35.9(32) . . .
43(4) . . .
41.5(34) . . .
42.7(34) . . .
40.1(34) . . .
38.7(33) . . .
41.3(34) . . .
43(4) . . .
40.6(34) . . .
42.7(34) . . .
37.4(32) . . .
39.3(35) . . .
39.8(35) . . .
47(4) . . .
41.5(34) . . .
40.4(34) . . .
30.1(28) . . .
38(4) . . .
33.4(32) . . .
42.5(35) . . .
39.9(32) . . .
41(4) . . .
55(4) . . .
38.0(32) . . .
34.0(30) . . .
43.3(34) . . .
43.1(35) . . .
46(4) . . .
38.3(34) . . .
49(4) . . .
37.7(32) . . .
41.9(35) . . .
48(4) . . .
30.5(29) . . .
38.3(32) . . .
52(4) . . .
37.8(34) . . .
34.3(31) . . .
33.9(30) . . .
41.0(33) . . .
37(4) . . .
31.2(30) . . .
43(4) . . .
37.4(33) . . .
38.4(32) . . .
45(4) . . .
34.1(32) . . .
30.0(28) . . .
44.0(34) . . .
46(4) . . .
40.1(34) . . .
44(4) . . .
32.6(29) . . .
36.1(31) . . .
42.2(34) . . .
36.7(33) . . .
37(4) . . .
37.8(33) . . .
37.3(33) . . .
39.5(33) . . .
43(4) . . .
45(4) . . .
50(4) . . .
38.7(33) . . .
34.3(31) . . .
42(4) . . .
38.5(33) . . .
44(4) . . .
33.2(29) . . .
35.0(30) . . .
40.7(35) . . .
36.0(32) . . .
47(4) . . .
30.7(29) . . .
39.0(32) . . .
43(4) . . .
39.4(35) . . .
43(4) . . .
37.6(32) . . .
41.8(34) . . .
38.8(33) . . .
31.2(30) . . .
39.2(34) . . .
41.7(34) . . .
40.9(33) . . .
39.4(34) . . .
43(4) . . .
38.8(33) . . .
44(4) . . .
46(4) . . .
39.6(35) . . .
34.6(32) . . .
36.9(32) . . .
44.8(35) . . .
27.3(29) . . .
36.7(34) . . .
45(4) . . .
44(4) . . .
43.4(35) . . .
37.7(31) . . .
44(4) . . .
33.7(32) . . .
43.5(35) . . .
43.0(34) . . .
40.7(35) . . .
39.5(32) . . .
47(4) . . .
36.0(31) . . .
38.5(32) . . .
40.6(34) . . .
42(4) . . .
36.8(32) . . .
38.8(32) . . .
30.2(29) . . .
40.3(34) . . .
44(4) . . .
32.3(30) . . .
36.5(32) . . .
41.6(33) . . .
39.2(34) . . .
46(4) . . .
38.2(33) . . .
34.4(31) . . .
38.6(32) . . .
35.2(32) . . .
40(4) . . .
28.3(28) . . .
32.5(30) . . .
46(4) . . .
38.4(33) . . .
36.9(32) . . .
41.9(35) . . .
34.0(30) . . .
28.3(27) . . .
34.7(33) . . .
36.9(33) . . .
33.4(32) . . .
38.5(33) . . .
31.5(30) . . .
35.5(32) . . .
44(4) . . .
42.9(35) . . .
35.9(31) . . .
50(4) . . .
41.4(34) . . .
34.7(30) . . .
36.5(31) . . .
36.7(31) . . .
35.3(32) . . .
47(4) . . .
43.3(34) . . .
42.4(34) . . .
46(4) . . .
45(4) . . .
37.8(33) . . .
44(4) . . .
30.6(29) . . .
43.2(34) . . .
32.7(30) . . .
41(4) . . .
44(4) . . .
35.9(31) . . .
35.1(31) . . .
40.2(34) . . .
38(4) . . .
25.6(28) . . .
37.2(31) . . .
34.4(31) . . .
41.8(35) . . .
46(4) . . .
37.1(32) . . .
39.7(33) . . .
38.6(32) . . .
39(4) . . .
35(4) . . .
30.9(29) . . .
37.1(32) . . .
31.9(29) . . .
43(4) . . .
41.2(34) . . .
44.1(35) . . .
38.1(32) . . .
40.6(33) . . .
29.9(28) . . .
38(4) . . .
30.7(30) . . .
41.7(34) . . .
27.1(27) . . .
34.6(31) . . .
35.9(35) . . .
32.8(31) . . .
37.9(32) . . .
39.4(32) . . .
35.3(31) . . .
37.2(32) . . .
47(4) . . .
37.8(33) . . .
43.1(34) . . .
43(4) . . .
42.2(35) . . .
41.3(33) . . .
53(4) . . .
32.4(31) . . .
35.6(33) . . .
38.2(34) . . .
48(4) . . .
35.4(31) . . .
37.9(35) . . .
33.6(34) . . .
31.1(30) . . .
45(4) . . .
30.7(29) . . .
48(4) . . .
50(4) . . .
40.0(35) . . .
30.1(29) . . .
35.3(32) . . .
35.6(33) . . .
38.8(34) . . .
44(4) . . .
38.8(33) . . .
45.5(35) . . .
32.9(31) . . .
29.7(32) . . .
33.7(31) . . .
38.6(32) . . .
46(4) . . .
46(4) . . .
37.0(33) . . .
38.2(34) . . .
46(4) . . .
45.9(35) . . .
37.1(32) . . .
42(4) . . .
46(4) . . .
41.0(34) . . .
39.3(33) . . .
38.4(34) . . .
40.1(35) . . .
37.4(34) . . .
34.6(31) . . .
38.3(33) . . .
35.3(31) . . .
29.6(28) . . .
37.9(33) . . .
38.5(32) . . .
40.1(33) . . .
34.2(30) . . .
46(4) . . .
43.5(35) . . .
41.1(33) . . .
33.2(30) . . .
32.6(30) . . .
42(4) . . .
42(4) . . .
43.6(34) . . .
41.6(35) . . .
39.2(35) . . .
46(4) . . .
43.5(35) . . .
34.6(31) . . .
38.0(33) . . .
45(4) . . .
45(4) . . .
48(4) . . .
36.5(32) . . .
31.1(31) . . .
45(4) . . .
38.5(33) . . .
47(4) . . .
41.9(33) . . .
43.0(35) . . .
37.9(34) . . .
34.3(30) . . .
37.0(32) . . .
45.8(35) . . .
44(4) . . .
49(4) . . .
43.0(34) . . .
30.1(28) . . .
36.3(32) . . .
37.3(32) . . .
47(4) . . .
44.0(35) . . .
43.5(34) . . .
40.7(33) . . .
42(4) . . .
45(4) . . .
41.2(35) . . .
31.8(30) . . .
36.5(31) . . .
36.4(35) . . .
38.3(35) . . .
38.3(34) . . .
38.6(32) . . .
36.4(33) . . .
34.5(32) . . .
36.6(33) . . .
38.1(32) . . .
38.7(33) . . .
44(4) . . .
32.7(31) . . .
44(4) . . .
45(4) . . .
47(4) . . .
42(4) . . .
26.1(29) . . .
38.0(35) . . .
37.4(32) . . .
38.4(33) . . .
44(4) . . .
30.0(28) . . .
40.8(34) . . .
39.1(34) . . .
35.3(31) . . .
33.3(33) . . .
37.5(33) . . .
39.5(34) . . .
43.2(35) . . .
44.8(35) . . .
46(4) . . .
38.0(34) . . .
36.7(34) . . .
42.6(34) . . .
43.0(34) . . .
32.7(29) . . .
42(4) . . .
43(4) . . .
42.5(34) . . .
34.3(30) . . .
38.9(34) . . .
35.1(33) . . .
49(4) . . .
31.5(29) . . .
33.7(30) . . .
37.6(33) . . .
45(4) . . .
50(4) . . .
41.3(34) . . .
40.6(35) . . .
40.1(34) . . .
48(4) . . .
37.4(32) . . .
41.3(33) . . .
39.5(35) . . .
40.9(34) . . .
46(4) . . .
42.4(35) . . .
38.5(32) . . .
35.5(31) . . .
35.8(35) . . .
35.3(33) . . .
39.1(34) . . .
34.4(30) . . .
43(4) . . .
39.3(34) . . .
36.4(32) . . .
39.3(33) . . .
40.7(33) . . .
33.5(31) . . .
43(4) . . .
32.9(30) . . .
48(4) . . .
44.3(35) . . .
35.0(31) . . .
38.6(32) . . .
38.6(32) . . .
46(4) . . .
37.9(32) . . .
38.2(32) . . .
32.0(28) . . .
43.7(35) . . .
40.7(34) . . .
41.2(34) . . .
44(4) . . .
41(4) . . .
38.3(32) . . .
38.1(32) . . .
39.1(32) . . .
38.8(32) . . .
33.5(32) . . .
38.7(33) . . .
33.1(30) . . .
37.1(32) . . .
43(4) . . .
42(4) . . .
35.3(34) . . .
38.2(32) . . .
38.8(33) . . .
37.0(33) . . .
39.5(35) . . .
34.3(30) . . .
31.6(30) . . .
40.6(35) . . .
38.5(34) . . .
37.2(35) . . .
34.0(30) . . .
34.2(31) . . .
46(4) . . .
40.1(35) . . .
33.1(31) . . .
36.3(31) . . .
37.1(32) . . .
42(4) . . .
33.5(33) . . .
37.5(33) . . .
34.9(31) . . .
37.4(31) . . .
41(4) . . .
34.8(34) . . .
31.1(30) . . .
34.6(34) . . .
46(4) . . .
37.3(33) . . .
34.2(33) . . .
39.4(34) . . .
35.1(32) . . .
32.2(29) . . .
39(4) . . .
31.3(33) . . .
38(4) . . .
34.4(32) . . .
38.7(32) . . .
38.6(33) . . .
40.7(35) . . .
46(4) . . .
45.4(35) . . .
37.1(32) . . .
46(4) . . .
34.8(30) . . .
40.4(34) . . .
35.4(30) . . .
40(4) . . .
49(4) . . .
46(4) . . .
40.3(34) . . .
34.5(30) . . .
34.0(32) . . .
37.0(32) . . .
34.0(30) . . .
34.7(31) . . .
34.5(31) . . .
37.5(33) . . .
43(4) . . .
42(4) . . .
48(4) . . .
38.1(33) . . .
36.4(31) . . .
47(4) . . .
48(4) . . .
38.4(33) . . .
49(4) . . .
38.8(35) . . .
35.5(34) . . .
36.4(32) . . .
52(4) . . .
39.8(32) . . .
34.5(31) . . .
45(4) . . .
35.8(33) . . .
30.5(28) . . .
40.3(33) . . .
42(4) . . .
33.8(32) . . .
34.5(31) . . .
49(4) . . .
36.5(32) . . .
30.2(29) . . .
45(4) . . .
41(4) . . .
36.4(31) . . .
36.1(32) . . .
47(4) . . .
45(4) . . .
31.9(31) . . .
43(4) . . .
42.7(34) . . .
45.4(35) . . .
38.1(33) . . .
38.7(34) . . .
46(4) . . .
40.0(32) . . .
48(4) . . .
40.7(34) . . .
44(4) . . .
33.1(30) . . .
38.5(32) . . .
38.2(35) . . .
40(4) . . .
39.6(34) . . .
48(4) . . .
43.3(34) . . .
35.4(30) . . .
32.0(30) . . .
33.5(33) . . .
32.0(29) . . .
36.0(33) . . .
33.7(31) . . .
31.8(31) . . .
44(4) . . .
41.8(33) . . .
39(4) . . .
32.2(31) . . .
30.9(30) . . .
30.4(30) . . .
36.8(32) . . .
33.0(31) . . .
45(4) . . .
41.0(34) . . .
44(4) . . .
34.3(30) . . .
32.8(30) . . .
47(4) . . .
45(4) . . .
39.7(33) . . .
37.5(32) . . .
37.4(32) . . .
40(4) . . .
40(4) . . .
40.6(34) . . .
42.5(34) . . .
39.2(33) . . .
35.8(35) . . .
37.9(33) . . .
38.8(33) . . .
52(4) . . .
38.1(33) . . .
39(4) . . .
36.3(31) . . .
41.8(34) . . .
36.4(31) . . .
39.8(35) . . .
35.2(33) . . .
42(4) . . .
49(4) . . .
32.4(30) . . .
36.1(32) . . .
45(4) . . .
34.7(31) . . .
34.5(31) . . .
46(4) . . .
44(4) . . .
31.0(29) . . .
35.6(34) . . .
43.1(34) . . .
38.3(33) . . .
34.1(32) . . .
27.2(29) . . .
39.7(34) . . .
47(4) . . .
44(4) . . .
44(4) . . .
33.1(30) . . .
39.3(33) . . .
42.2(34) . . .
45(4) . . .
40(4) . . .
39.5(33) . . .
40.8(33) . . .
38.2(32) . . .
42.3(35) . . .
41(4) . . .
40(4) . . .
40.0(32) . . .
43.1(35) . . .
34.1(31) . . .
44(4) . . .
32.5(30) . . .
41.7(35) . . .
36.8(31) . . .
42.2(35) . . .
42(4) . . .
37.2(32) . . .
37.8(32) . . .
50(4) . . .
47(4) . . .
33.7(30) . . .
33.2(31) . . .
34.4(30) . . .
41.7(34) . . .
36.3(32) . . .
32.3(32) . . .
38.5(34) . . .
44.3(35) . . .
37.4(32) . . .
39.7(33) . . .
34.2(31) . . .
42(4) . . .
38.9(32) . . .
32.8(30) . . .
45(4) . . .
44.5(35) . . .
43.3(34) . . .
42.0(34) . . .
43(4) . . .
41(4) . . .
44(4) . . .
40.6(35) . . .
42.1(34) . . .
33.3(31) . . .
29.9(30) . . .
29.1(28) . . .
38.3(32) . . .
36.4(31) . . .
35.0(32) . . .
40.5(35) . . .
34.9(32) . . .
41.5(34) . . .
47(4) . . .
33.9(31) . . .
41(4) . . .
32.0(30) . . .
39.0(33) . . .
35.0(31) . . .
42(4) . . .
49(4) . . .
49(4) . . .
39.6(33) . . .
39.1(32) . . .
43(4) . . .
40(4) . . .
47(4) . . .
36.7(32) . . .
37.9(32) . . .
32.7(32) . . .
38(4) . . .
37.8(33) . . .
46(4) . . .
42.5(34) . . .
37.3(34) . . .
38.2(34) . . .
37.9(34) . . .
38.5(32) . . .
44.9(35) . . .
38.4(33) . . .
36.3(33) . . .
34.3(31) . . .
36.5(32) . . .
34.4(31) . . .
31.7(32) . . .
41(4) . . .
51(4) . . .
37.7(32) . . .
43.8(35) . . .
38.3(34) . . .
39(4) . . .
41.2(34) . . .
37.2(32) . . .
39.9(34) . . .
38.8(34) . . .
38.7(34) . . .
34.2(31) . . .
36.6(32) . . .
40.5(34) . . .
40.0(34) . . .
44(4) . . .
37.2(33) . . .
33.3(30) . . .
37.2(32) . . .
41(4) . . .
42(4) . . .
40(4) . . .
40.3(33) . . .
35.4(32) . . .
35.0(33) . . .
36.6(32) . . .
50(4) . . .
41.7(33) . . .
35.5(33) . . .
38.6(34) . . .
40.4(34) . . .
39.7(33) . . .
39.9(34) . . .
36.6(32) . . .
37.2(34) . . .
37.5(33) . . .
38.6(32) . . .
34.3(32) . . .
43(4) . . .
48(4) . . .
40.0(34) . . .
38.4(32) . . .
34.0(30) . . .
39.8(34) . . .
38.8(34) . . .
38.6(33) . . .
48(4) . . .
42.8(35) . . .
44.0(35) . . .
51(4) . . .
43(4) . . .
31.4(29) . . .
41.5(34) . . .
35.2(34) . . .
39(4) . . .
40.7(34) . . .
33.5(30) . . .
41.5(34) . . .
36.5(33) . . .
37.4(32) . . .
47(4) . . .
48(4) . . .
36.3(33) . . .
43(4) . . .
37.9(34) . . .
33.9(30) . . .
41.9(34) . . .
38.0(34) . . .
34.5(32) . . .
39.3(33) . . .
38.0(32) . . .
46(4) . . .
43(4) . . .
33.6(31) . . .
37.3(33) . . .
41.1(33) . . .
43.9(34) . . .
31.1(30) . . .
45(4) . . .
39.8(33) . . .
40.0(34) . . .
41.9(34) . . .
29.6(28) . . .
41(4) . . .
42(4) . . .
40.8(33) . . .
46(4) . . .
35.2(33) . . .
39(4) . . .
38.7(33) . . .
33.8(30) . . .
36.1(31) . . .
38.8(33) . . .
36.2(33) . . .
39.3(33) . . .
41.6(33) . . .
35.2(31) . . .
34.4(32) . . .
35.4(32) . . .
36.5(34) . . .
31.8(30) . . .
45(4) . . .
36.3(33) . . .
39.8(35) . . .
28.9(29) . . .
34.3(31) . . .
42.0(34) . . .
37.1(32) . . .
34.0(32) . . .
37.7(34) . . .
35.5(30) . . .
45(4) . . .
46(4) . . .
44(4) . . .
40.7(34) . . .
34.9(31) . . .
39.8(35) . . .
36.9(32) . . .
39.2(33) . . .
36.8(32) . . .
33.2(30) . . .
38.0(33) . . .
38.7(34) . . .
40.8(34) . . .
35.5(31) . . .
44.5(35) . . .
39.1(34) . . .
43(4) . . .
40.4(33) . . .
38.9(33) . . .
31.5(29) . . .
38.9(33) . . .
39.3(34) . . .
35.1(33) . . .
28.4(28) . . .
30.1(28) . . .
31.9(29) . . .
41.0(34) . . .
45(4) . . .
35.8(31) . . .
39.7(34) . . .
44(4) . . .
40(4) . . .
39.6(33) . . .
41.6(34) . . .
35.6(32) . . .
37.8(33) . . .
37.7(33) . . .
38.8(34) . . .
42.5(34) . . .
40.7(34) . . .
40(4) . . .
40(4) . . .
38.9(34) . . .
36.0(32) . . .
40.1(34) . . .
41.0(34) . . .
42.5(35) . . .
37.0(32) . . .
34.0(30) . . .
34.5(31) . . .
36.0(34) . . .
39(4) . . .
41.0(35) . . .
38.7(32) . . .
50(4) . . .
38.5(33) . . .
42(4) . . .
34.0(31) . . .
31.1(29) . . .
39.8(34) . . .
31.3(30) . . .
43(4) . . .
41.6(34) . . .
38.8(33) . . .
38.6(35) . . .
33.9(31) . . .
36.2(32) . . .
29.7(29) . . .
43.3(35) . . .
43(4) . . .
35.9(33) . . .
34.6(32) . . .
35.1(31) . . .
31.5(30) . . .
29.2(28) . . .
34.4(34) . . .
38.9(34) . . .
39.8(33) . . .
41.7(34) . . .
32.1(30) . . .
34.0(33) . . .
34.2(32) . . .
36.8(32) . . .
38.5(32) . . .
38.9(35) . . .
45(4) . . .
37.2(32) . . .
36.2(31) . . .
35.5(31) . . .
39.4(35) . . .
36.8(33) . . .
31.7(29) . . .
39.8(33) . . .
45.0(35) . . .
33.8(31) . . .
41(4) . . .
41(4) . . .
32.7(30) . . .
40.0(33) . . .
40(4) . . .
39(4) . . .
37.5(33) . . .
36.1(32) . . .
36.9(32) . . .
35.8(32) . . .
46(4) . . .
40.0(33) . . .
39.0(33) . . .
47(4) . . .
45(4) . . .
37.0(31) . . .
40.5(33) . . .
47(4) . . .
40.0(34) . . .
38.5(33) . . .
43(4) . . .
44.4(35) . . .
41.9(34) . . .
48(4) . . .
44(4) . . .
37.8(32) . . .
36.4(31) . . .
38.3(32) . . .
39.9(35) . . .
30.7(32) . . .
32.5(30) . . .
39.2(33) . . .
33.5(30) . . .
32.6(30) . . .
31.1(29) . . .
36.3(31) . . .
48(4) . . .
33.3(30) . . .
37.2(32) . . .
31.5(30) . . .
32.5(29) . . .
33.5(30) . . .
34.3(30) . . .
42.0(35) . . .
44(4) . . .
37.9(33) . . .
43.1(34) . . .
43.4(35) . . .
45.3(35) . . .
36.3(32) . . .
42(4) . . .
40.0(33) . . .
49(4) . . .
35.7(32) . . .
33.5(32) . . .
35.3(31) . . .
34.4(30) . . .
37.9(34) . . .
23.6(27) . . .
28.1(28) . . .
38.1(34) . . .
37.4(32) . . .
32.0(30) . . .
33.1(30) . . .
45(4) . . .
45(4) . . .
46(4) . . .
33.1(30) . . .
33.4(31) . . .
39.6(34) . . .
33.9(30) . . .
33.2(31) . . .
47(4) . . .
34.0(32) . . .
39.5(34) . . .
44.2(35) . . .
34.8(30) . . .
38.9(33) . . .
35.6(34) . . .
34.8(32) . . .
45.5(35) . . .
41.3(34) . . .
43(4) . . .
32.8(31) . . .
41.6(34) . . .
42.5(34) . . .
33.5(30) . . .
44.4(34) . . .
42(4) . . .
30.0(29) . . .
47(4) . . .
44(4) . . .
39.2(33) . . .
35.7(33) . . .
30.5(29) . . .
30.3(29) . . .
40.8(34) . . .
33.4(29) . . .
35.5(32) . . .
36.3(35) . . .
43.1(34) . . .
47(4) . . .
53(4) . . .
38.3(31) . . .
44(4) . . .
38.4(32) . . .
36.9(32) . . .
38.5(33) . . .
47(4) . . .
40.2(33) . . .
39.5(33) . . .
33.7(33) . . .
28.4(30) . . .
47(4) . . .
46(4) . . .
36.7(32) . . .
42.0(34) . . .
32.9(31) . . .
35.3(32) . . .
37.8(32) . . .
39.2(32) . . .
36.8(31) . . .
38(4) . . .
41(4) . . .
24.7(26) . . .
31.8(29) . . .
36.7(35) . . .
35.0(33) . . .
34.6(32) . . .
31.1(31) . . .
38.5(32) . . .
26.1(27) . . .
33.8(33) . . .
35.3(31) . . .
28.2(28) . . .
34.1(32) . . .
36.9(33) . . .
46(4) . . .
35.4(31) . . .
37.2(32) . . .
46(4) . . .
39.5(33) . . .
38.6(34) . . .
48(4) . . .
43.4(35) . . .
29.7(28) . . .
32.0(30) . . .
43(4) . . .
38.1(32) . . .
40.8(34) . . .
44(4) . . .
41.0(34) . . .
42(4) . . .
42(4) . . .
43.1(34) . . .
40.5(33) . . .
40.8(34) . . .
26.9(27) . . .
45(4) . . .
41.2(34) . . .
35.1(31) . . .
45(4) . . .
39.0(34) . . .
31.6(29) . . .
39.1(33) . . .
36.5(32) . . .
43.0(34) . . .
37.7(31) . . .
36.8(33) . . .
39.3(33) . . .
30.8(29) . . .
31.4(32) . . .
39(4) . . .
42.7(35) . . .
39.6(33) . . .
35.5(32) . . .
42(4) . . .
36.5(32) . . .
37.5(32) . . .
27.8(28) . . .
35.1(30) . . .
37.7(33) . . .
38.7(34) . . .
35.6(31) . . .
43.3(35) . . .
39.4(34) . . .
49(4) . . .
46(4) . . .
32.3(30) . . .
49(4) . . .
35.4(32) . . .
34.1(32) . . .
41.7(35) . . .
29.8(29) . . .
31.8(30) . . .
39.9(35) . . .
44(4) . . .
38.5(34) . . .
32.4(31) . . .
33.9(31) . . .
37.3(34) . . .
30.4(30) . . .
38(4) . . .
37.1(32) . . .
43.1(34) . . .
46(4) . . .
36.3(31) . . .
38.6(32) . . .
41.0(33) . . .
34.3(30) . . .
38.5(33) . . .
40.4(35) . . .
43(4) . . .
44.2(35) . . .
35.5(32) . . .
43(4) . . .
38.7(33) . . .
32.7(29) . . .
38.8(32) . . .
37.3(34) . . .
37.4(32) . . .
43(4) . . .
41.3(34) . . .
37.4(32) . . .
37.8(34) . . .
53(4) . . .
39.6(34) . . .
33.1(31) . . .
33.8(30) . . .
47(4) . . .
37.1(33) . . .
45(4) . . .
46(4) . . .
36.5(31) . . .
33.0(30) . . .
44(4) . . .
40.1(33) . . .
44.2(34) . . .
35.7(32) . . .
37.5(32) . . .
38(4) . . .
34.4(34) . . .
44.8(35) . . .
34.7(30) . . .
38.0(33) . . .
39.0(34) . . .
38.8(35) . . .
32.8(30) . . .
36.2(31) . . .
37.6(31) . . .
39.0(35) . . .
35.5(32) . . .
42.7(34) . . .
38.1(32) . . .
48(4) . . .
42(4) . . .
37.8(32) . . .
34.1(31) . . .
33.5(31) . . .
34.2(30) . . .
40.5(35) . . .
42.9(35) . . .
34.4(31) . . .
36.7(34) . . .
37.1(32) . . .
33.2(30) . . .
43(4) . . .
39.2(32) . . .
28.4(29) . . .
34.7(32) . . .
42(4) . . .
38.8(33) . . .
38.1(33) . . .
32.0(30) . . .
33.5(31) . . .
41.5(35) . . .
39.1(33) . . .
39.5(33) . . .
38.5(32) . . .
39.6(34) . . .
40.5(35) . . .
38.1(33) . . .
31.3(29) . . .
37.3(33) . . .
31.2(30) . . .
42(4) . . .
48(4) . . .
43.5(34) . . .
38.1(33) . . .
36.3(34) . . .
35.2(33) . . .
36.7(32) . . .
33.3(30) . . .
27.8(28) . . .
38(4) . . .
39.3(33) . . .
38.0(32) . . .
35.1(32) . . .
40.1(34) . . .
40(4) . . .
30.4(29) . . .
46(4) . . .
44(4) . . .
34.3(30) . . .
32.9(31) . . .
43(4) . . .
59(4) . . .
47(4) . . .
42(4) . . .
37.1(33) . . .
43(4) . . .
38.0(32) . . .
41(4) . . .
30.5(29) . . .
36.1(33) . . .
43.3(34) . . .
52(4) . . .
37.8(33) . . .
34.2(32) . . .
30.1(29) . . .
44.5(35) . . .
45(4) . . .
39.6(33) . . .
38.0(32) . . .
39.5(34) . . .
32.9(31) . . .
41.6(34) . . .
46(4) . . .
47(4) . . .
37.7(33) . . .
38.7(32) . . .
35.2(31) . . .
45(4) . . .
28.4(28) . . .
38(4) . . .
33.1(30) . . .
30.5(29) . . .
36.3(34) . . .
38(4) . . .
43(4) . . .
45.0(35) . . .
34.6(31) . . .
38.7(33) . . .
41(4) . . .
41.0(35) . . .
46(4) . . .
37.0(32) . . .
35.0(33) . . .
32.7(31) . . .
32.8(31) . . .
35.3(31) . . .
42(4) . . .
35.8(32) . . .
35.9(32) . . .
33.6(30) . . .
37.0(32) . . .
39.3(34) . . .
40.0(35) . . .
35.5(33) . . .
31.9(30) . . .
42.9(34) . . .
35.2(32) . . .
39.5(34) . . .
39.3(33) . . .
39.7(33) . . .
33.5(31) . . .
45(4) . . .
45(4) . . .
46(4) . . .
29.3(28) . . .
34.9(31) . . .
33.9(32) . . .
35.2(32) . . .
34.5(31) . . .
40.7(35) . . .
33.2(30) . . .
42(4) . . .
37.8(35) . . .
43(4) . . .
39.3(32) . . .
39.7(34) . . .
39.8(34) . . .
42(4) . . .
35.7(33) . . .
43.5(35) . . .
42.7(34) . . .
39.1(34) . . .
43(4) . . .
35.0(31) . . .
37.7(32) . . .
31.7(30) . . .
46(4) . . .
44(4) . . .
40.4(34) . . .
37.2(32) . . .
31.3(30) . . .
34.5(31) . . .
33.1(30) . . .
37.1(33) . . .
35.8(32) . . .
40.3(33) . . .
37.5(35) . . .
38(4) . . .
36.9(33) . . .
29.6(29) . . .
38.2(33) . . .
36.8(34) . . .
28.4(29) . . .
37.3(33) . . .
34.4(30) . . .
44(4) . . .
31.3(33) . . .
32.9(31) . . .
39.2(34) . . .
35.8(32) . . .
37.9(33) . . .
40.0(35) . . .
45(4) . . .
48(4) . . .
32.8(30) . . .
49(4) . . .
46(4) . . .
34.2(31) . . .
31.6(29) . . .
32.7(29) . . .
38.0(34) . . .
47(4) . . .
44(4) . . .
43.0(35) . . .
30.9(29) . . .
32.3(31) . . .
30.6(33) . . .
43(4) . . .
47(4) . . .
39.3(34) . . .
36.3(31) . . .
36.1(33) . . .
37.9(33) . . .
33.3(30) . . .
36.0(31) . . .
40.3(34) . . .
42(4) . . .
41.2(34) . . .
37.4(32) . . .
37.9(32) . . .
35.4(32) . . .
33.1(31) . . .
39(4) . . .
39.0(32) . . .
32.2(31) . . .
36.7(33) . . .
33.9(30) . . .
38.0(33) . . .
36.9(31) . . .
31.5(30) . . .
39.1(33) . . .
30.8(28) . . .
36.2(33) . . .
40.2(34) . . .
47(4) . . .
38.2(33) . . .
34.0(31) . . .
39.5(34) . . .
46(4) . . .
47(4) . . .
33.8(33) . . .
43(4) . . .
39.3(32) . . .
37.3(32) . . .
45(4) . . .
37.8(33) . . .
38.1(35) . . .
42.4(34) . . .
39.3(33) . . .
45(4) . . .
47(4) . . .
33.1(30) . . .
31.8(30) . . .
26.3(26) . . .
34.0(34) . . .
35.1(33) . . .
41(4) . . .
37.3(33) . . .
37.3(32) . . .
45(4) . . .
38.4(35) . . .
43(4) . . .
34.5(30) . . .
36.0(32) . . .
35.5(31) . . .
44(4) . . .
42.3(35) . . .
32.3(30) . . .
33.6(30) . . .
39.0(34) . . .
36.5(34) . . .
34.6(32) . . .
33.6(30) . . .
38.4(34) . . .
29.6(28) . . .
43(4) . . .
35.1(31) . . .
44.7(35) . . .
35.7(33) . . .
36.9(34) . . .
38.0(35) . . .
46(4) . . .
42.6(34) . . .
37.2(33) . . .
38(4) . . .
34.6(32) . . .
30.3(29) . . .
28.9(29) . . .
37.3(32) . . .
36.8(32) . . .
38.5(33) . . .
33.4(31) . . .
27.3(27) . . .
32.6(32) . . .
38.8(34) . . .
46(4) . . .
35.1(32) . . .
48(4) . . .
48(4) . . .
33.8(32) . . .
42(4) . . .
38.6(32) . . .
40.1(34) . . .
42(4) . . .
45(4) . . .
40(4) . . .
39.5(34) . . .
41.0(34) . . .
37.7(33) . . .
40.9(35) . . .
37.1(33) . . .
37.4(31) . . .
38.4(33) . . .
31.7(29) . . .
32.0(32) . . .
36.8(33) . . .
35.8(32) . . .
39.8(34) . . .
36.2(34) . . .
31.9(32) . . .
37.4(32) . . .
40.7(33) . . .
35.6(31) . . .
39.5(35) . . .
40.7(34) . . .
44.3(35) . . .
37.2(32) . . .
33.7(31) . . .
35.9(34) . . .
33.7(31) . . .
31.4(29) . . .
34.0(30) . . .
37.9(34) . . .
39.8(35) . . .
34.7(32) . . .
30.0(29) . . .
33.9(31) . . .
40.9(33) . . .
41.3(34) . . .
42(4) . . .
41.7(33) . . .
37.6(32) . . .
39(4) . . .
33.8(35) . . .
34.6(33) . . .
37.1(31) . . .
33.6(30) . . .
35.2(32) . . .
43(4) . . .
30.9(31) . . .
33.1(30) . . .
28.3(28) . . .
33.0(29) . . .
30.2(28) . . .
44(4) . . .
46(4) . . .
39.8(33) . . .
39.2(35) . . .
42(4) . . .
37.4(35) . . .
31.7(30) . . .
35.5(31) . . .
47(4) . . .
47(4) . . .
51(4) . . .
43.9(35) . . .
34.2(30) . . .
36.1(31) . . .
39.0(34) . . .
29.6(28) . . .
30.5(29) . . .
34.2(32) . . .
43(4) . . .
40.1(34) . . .
43(4) . . .
42.2(34) . . .
38.8(32) . . .
40.2(34) . . .
41(4) . . .
38.0(33) . . .
38.8(33) . . .
45.1(34) . . .
42.3(35) . . .
43(4) . . .
31.3(31) . . .
36.5(32) . . .
44(4) . . .
35.7(33) . . .
39.6(35) . . .
44.5(35) . . .
39.0(33) . . .
46(4) . . .
51(4) . . .
35.3(31) . . .
31.4(29) . . .
36.5(32) . . .
33.2(29) . . .
37.4(33) . . .
32.8(30) . . .
35.7(31) . . .
40.8(33) . . .
27.5(28) . . .
42(4) . . .
27.5(28) . . .
35.2(31) . . .
37.8(32) . . .
37.6(33) . . .
36.0(33) . . .
30.4(28) . . .
39.0(32) . . .
43.9(34) . . .
40.0(33) . . .
33.3(32) . . .
32.3(31) . . .
29.7(29) . . .
35.7(33) . . .
30.9(30) . . .
42(4) . . .
41(4) . . .
42.1(34) . . .
33.0(30) . . .
26.8(29) . . .
35.5(35) . . .
36.5(34) . . .
35.2(30) . . .
25.9(26) . . .
40.1(34) . . .
37.7(33) . . .
43.3(35) . . .
47(4) . . .
41.1(33) . . .
34.9(33) . . .
40.2(34) . . .
43(4) . . .
40.9(34) . . .
46(4) . . .
47(4) . . .
36.8(33) . . .
36.1(32) . . .
29.5(29) . . .
34.1(32) . . .
34.6(34) . . .
32.0(30) . . .
37.3(34) . . .
36.5(31) . . .
35.5(31) . . .
34.7(32) . . .
40.4(35) . . .
43.3(35) . . .
44.6(35) . . .
36.2(32) . . .
31.2(28) . . .
34.3(32) . . .
37.3(33) . . .
32.5(30) . . .
38.2(34) . . .
38(4) . . .
38(4) . . .
33.5(30) . . .
40.3(33) . . .
43(4) . . .
33.5(32) . . .
36.0(34) . . .
36.4(31) . . .
32.7(29) . . .
28.3(27) . . .
38.6(33) . . .
32.7(31) . . .
43.8(35) . . .
39.8(34) . . .
34.5(32) . . .
31.2(31) . . .
30.5(30) . . .
36.5(32) . . .
43.5(34) . . .
32.9(29) . . .
39(4) . . .
36(4) . . .
38.2(33) . . .
33.2(32) . . .
33.2(31) . . .
29.9(29) . . .
41(4) . . .
40.9(34) . . .
42.4(34) . . .
36.9(32) . . .
32.6(33) . . .
34.2(32) . . .
33.9(30) . . .
36.6(34) . . .
33.8(32) . . .
41.1(34) . . .
40.5(33) . . .
46(4) . . .
45(4) . . .
45(4) . . .
42.3(33) . . .
43.4(34) . . .
38.3(31) . . .
43(4) . . .
41(4) . . .
38.2(34) . . .
37.3(32) . . .
31.4(29) . . .
29.9(29) . . .
38.7(34) . . .
39.7(34) . . .
40.0(34) . . .
40.5(33) . . .
44(4) . . .
35.1(32) . . .
44(4) . . .
40.1(33) . . .
30.9(29) . . .
33.3(33) . . .
39(4) . . .
38.0(33) . . .
54(4) . . .
39.7(33) . . .
37.8(31) . . .
41(4) . . .
34.7(31) . . .
37.4(32) . . .
35.4(31) . . .
32.7(31) . . .
29.6(30) . . .
35.1(31) . . .
39.5(33) . . .
46(4) . . .
40.7(34) . . .
34.9(31) . . .
42.8(35) . . .
36.3(32) . . .
36.6(32) . . .
39.0(34) . . .
37.6(32) . . .
36.2(32) . . .
33.4(30) . . .
44(4) . . .
39.7(35) . . .
43(4) . . .
30.4(29) . . .
40.7(34) . . .
38.2(33) . . .
38.2(34) . . .
36.9(33) . . .
42(4) . . .
43(4) . . .
47(4) . . .
37.6(34) . . .
30.5(28) . . .
40.0(32) . . .
39.9(33) . . .
42(4) . . .
34.3(33) . . .
37.5(33) . . .
35.6(31) . . .
35.1(31) . . .
42(4) . . .
39.0(33) . . .
47(4) . . .
50(4) . . .
40.1(34) . . .
30.0(29) . . .
37.0(34) . . .
41.9(34) . . .
40.8(34) . . .
32.4(29) . . .
38.3(32) . . .
49(4) . . .
33.8(31) . . .
31.3(29) . . .
29.5(28) . . .
41.0(35) . . .
39.7(32) . . .
39.1(34) . . .
34.8(31) . . .
32.8(29) . . .
32.2(30) . . .
41(4) . . .
33.7(30) . . .
40.7(33) . . .
36.2(31) . . .
47(4) . . .
42(4) . . .
30.1(29) . . .
28.7(28) . . .
35.3(31) . . .
30.0(27) . . .
36.5(31) . . .
44(4) . . .
43.8(35) . . .
36.8(33) . . .
34.8(34) . . .
32.7(32) . . .
33.2(32) . . .
54(4) . . .
48(4) . . .
41(4) . . .
38.6(33) . . .
32.2(30) . . .
43.7(35) . . .
41.1(35) . . .
39(4) . . .
42(4) . . .
40.9(34) . . .
45.2(35) . . .
39.3(33) . . .
36.6(35) . . .
32.5(31) . . .
40.0(33) . . .
39.1(32) . . .
32.6(29) . . .
40.6(35) . . .
39.3(33) . . .
34.2(31) . . .
52(4) . . .
39.0(34) . . .
42(4) . . .
36.1(33) . . .
37.7(32) . . .
37.6(32) . . .
42.1(35) . . .
40(4) . . .
36.4(33) . . .
38.9(32) . . .
36.6(31) . . .
42(4) . . .
34.5(33) . . .
40.8(34) . . .
30.4(29) . . .
40.4(34) . . .
40(4) . . .
43(4) . . .
38.4(33) . . .
35.2(31) . . .
49(4) . . .
43(4) . . .
37.5(33) . . .
41.0(34) . . .
39.8(33) . . .
47(4) . . .
33.0(30) . . .
41(4) . . .
39.5(35) . . .
40.7(33) . . .
29.8(30) . . .
33.4(31) . . .
38.5(35) . . .
35.0(30) . . .
47(4) . . .
39.7(33) . . .
41(4) . . .
33.1(33) . . .
36.5(32) . . .
43.5(34) . . .
36.8(32) . . .
40(4) . . .
42(4) . . .
47(4) . . .
34.8(31) . . .
40.1(33) . . .
31.7(31) . . .
31.4(31) . . .
31.7(29) . . .
39.1(33) . . .
39.1(33) . . .
43(4) . . .
32.1(31) . . .
35.7(31) . . .
36.4(32) . . .
31.5(29) . . .
39(4) . . .
32.8(30) . . .
39.5(33) . . .
41.0(33) . . .
39.0(34) . . .
37.1(34) . . .
34.7(31) . . .
26.5(27) . . .
39.9(33) . . .
37.3(34) . . .
37.8(32) . . .
41.2(34) . . .
32.1(29) . . .
32.9(31) . . .
34.5(31) . . .
33.4(30) . . .
44(4) . . .
39.4(33) . . .
34.6(30) . . .
39.0(33) . . .
41(4) . . .
47(4) . . .
39.6(34) . . .
36.2(32) . . .
33.3(30) . . .
41.0(35) . . .
33.9(30) . . .
38.1(32) . . .
34.7(30) . . .
36.0(31) . . .
36.8(34) . . .
35.4(31) . . .
38.2(32) . . .
34.4(31) . . .
38.2(34) . . .
40(4) . . .
26.7(27) . . .
37.1(31) . . .
39(4) . . .
37.8(35) . . .
35.3(32) . . .
38.5(32) . . .
38.7(32) . . .
31.5(31) . . .
41(4) . . .
35.4(31) . . .
37.5(32) . . .
37.2(32) . . .
38.3(32) . . .
27.2(27) . . .
32.3(30) . . .
40.8(33) . . .
35.5(32) . . .
29.0(29) . . .
36.1(34) . . .
43(4) . . .
34.5(31) . . .
45(4) . . .
46(4) . . .
47(4) . . .
42.0(35) . . .
40.4(33) . . .
46(4) . . .
38.3(34) . . .
31.8(30) . . .
37.7(33) . . .
36.3(31) . . .
43(4) . . .
37.8(35) . . .
37.5(33) . . .
44.1(35) . . .
45(4) . . .
47(4) . . .
39.2(34) . . .
39.2(35) . . .
39.5(34) . . .
43.5(34) . . .
35.3(33) . . .
30.8(30) . . .
37.5(33) . . .
35.0(31) . . .
31.7(30) . . .
29.3(29) . . .
38.0(35) . . .
35.9(31) . . .
47(4) . . .
36.1(31) . . .
37(4) . . .
34.7(32) . . .
41(4) . . .
34.9(31) . . .
39.4(33) . . .
33.4(31) . . .
31.2(32) . . .
34.7(33) . . .
36.9(31) . . .
41.5(34) . . .
40(4) . . .
38.1(34) . . .
32.4(29) . . .
43.0(34) . . .
48(4) . . .
40.0(34) . . .
42(4) . . .
40.9(35) . . .
34.8(31) . . .
48(4) . . .
32.6(30) . . .
40.3(34) . . .
41.1(34) . . .
49(4) . . .
40.0(34) . . .
35.1(30) . . .
41.8(34) . . .
33.4(30) . . .
37.7(32) . . .
36.9(32) . . .
41.9(34) . . .
42(4) . . .
46(4) . . .
49(4) . . .
40.7(34) . . .
32.5(31) . . .
30.0(29) . . .
37.6(32) . . .
43.3(35) . . .
40.0(35) . . .
36(4) . . .
36.0(34) . . .
41.1(34) . . .
35.3(31) . . .
38.7(33) . . .
37.4(32) . . .
43.3(35) . . .
33.2(30) . . .
29.4(28) . . .
39.0(32) . . .
38.1(32) . . .
40.5(34) . . .
39.4(33) . . .
35.2(30) . . .
31.9(30) . . .
43(4) . . .
36.3(32) . . .
42.6(34) . . .
42.3(34) . . .
42(4) . . .
38.2(34) . . .
40.5(34) . . .
37.5(33) . . .
36.8(31) . . .
38.0(33) . . .
36.5(32) . . .
34.6(31) . . .
43(4) . . .
36.2(32) . . .
35.8(32) . . .
44(4) . . .
42(4) . . .
49(4) . . .
38.9(32) . . .
37.8(32) . . .
37.7(35) . . .
33.5(31) . . .
35.3(31) . . .
28.1(28) . . .
37.1(35) . . .
43(4) . . .
44(4) . . .
33.6(30) . . .
43(4) . . .
48(4) . . .
37.2(32) . . .
39.5(34) . . .
41.5(33) . . .
43.6(35) . . .
38.4(33) . . .
39.0(34) . . .
34.3(31) . . .
31.1(30) . . .
31.8(31) . . .
46(4) . . .
38.8(35) . . .
32.8(30) . . .
41.2(34) . . .
37.3(33) . . .
37.1(34) . . .
37.6(34) . . .
33.7(31) . . .
37.0(31) . . .
36.3(32) . . .
34.3(31) . . .
30.5(28) . . .
41.3(34) . . .
48(4) . . .
30.0(29) . . .
36.9(33) . . .
33.9(31) . . .
39.6(33) . . .
37.3(32) . . .
38.5(33) . . .
32.8(31) . . .
30.8(29) . . .
39.4(33) . . .
43.2(34) . . .
37.7(33) . . .
36.2(33) . . .
35.7(32) . . .
34.8(31) . . .
29.8(30) . . .
41(4) . . .
46(4) . . .
50(4) . . .
48(4) . . .
46(4) . . .
36.8(32) . . .
35.1(31) . . .
37.8(32) . . .
37.2(32) . . .
32.7(32) . . .
38.4(34) . . .
32.8(30) . . .
37.5(32) . . .
36.6(32) . . .
32.6(30) . . .
39(4) . . .
34.2(34) . . .
36.1(32) . . .
36.6(31) . . .
32.3(30) . . .
42(4) . . .
38.5(34) . . .
32.8(30) . . .
35.2(31) . . .
31.3(31) . . .
34.3(34) . . .
31.0(29) . . .
40.3(33) . . .
34.0(31) . . .
35.5(30) . . .
42(4) . . .
38.0(32) . . .
43.9(34) . . .
46(4) . . .
33.3(31) . . .
41(4) . . .
36.8(32) . . .
31.5(29) . . .
38.3(33) . . .
44(4) . . .
38(4) . . .
32.8(31) . . .
42.7(34) . . .
41.1(34) . . .
33.5(32) . . .
32.5(30) . . .
30.3(30) . . .
38.7(33) . . .
42.5(34) . . .
43(4) . . .
34.4(31) . . .
36.7(32) . . .
47(4) . . .
39.1(34) . . .
45(4) . . .
41(4) . . .
39(4) . . .
35.9(31) . . .
31.6(31) . . .
35.7(33) . . .
35.7(32) . . .
38.4(33) . . .
33.1(30) . . .
46(4) . . .
35.6(32) . . .
37.2(33) . . .
35.5(32) . . .
25.5(26) . . .
28.2(28) . . .
39(4) . . .
39.1(33) . . .
33.5(31) . . .
41.5(35) . . .
46(4) . . .
42.0(35) . . .
37.1(32) . . .
34.8(30) . . .
32.8(31) . . .
42.6(35) . . .
38.4(34) . . .
44(4) . . .
40.4(34) . . .
31.8(29) . . .
37.1(33) . . .
40(4) . . .
33.4(31) . . .
37.1(32) . . .
32.1(29) . . .
47(4) . . .
31.9(32) . . .
40.9(34) . . .
35.9(31) . . .
35.6(31) . . .
36.0(31) . . .
38.3(34) . . .
40.6(33) . . .
42.5(34) . . .
32.5(29) . . .
35.6(31) . . .
35.5(32) . . .
33.7(30) . . .
33.4(31) . . .
37.9(32) . . .
33.8(32) . . .
34.7(34) . . .
39.0(33) . . .
40.0(33) . . .
39.1(32) . . .
34.8(31) . . .
38.5(35) . . .
32.3(30) . . .
36.7(32) . . .
38.2(33) . . .
46(4) . . .
46(4) . . .
41.2(33) . . .
35.7(31) . . .
32.2(31) . . .
37.1(32) . . .
42.1(35) . . .
41.2(34) . . .
41.3(35) . . .
35.0(33) . . .
36.5(34) . . .
35.5(31) . . .
33.0(31) . . .
43.5(35) . . .
37.7(33) . . .
41(4) . . .
31.7(31) . . .
32.0(29) . . .
26.1(26) . . .
35.8(33) . . .
36.9(33) . . .
42.3(34) . . .
31.7(29) . . .
31.0(29) . . .
43(4) . . .
36.5(33) . . .
36.6(32) . . .
38.8(32) . . .
37.3(32) . . .
27.3(26) . . .
38.1(34) . . .
40.0(33) . . .
41.2(34) . . .
31.6(30) . . .
45(4) . . .
35.9(32) . . .
30.0(29) . . .
34.1(30) . . .
32.1(30) . . .
37.6(33) . . .
36.5(34) . . .
45(4) . . .
40.9(33) . . .
37.4(34) . . .
34.4(32) . . .
26.1(28) . . .
29.2(29) . . .
38.3(33) . . .
44(4) . . .
43(4) . . .
41(4) . . .
40.0(34) . . .
36.8(32) . . .
40.2(34) . . .
41.7(35) . . .
40.6(33) . . .
33.7(30) . . .
46(4) . . .
37.6(35) . . .
38.0(35) . . .
39.0(34) . . .
42.5(34) . . .
33.6(30) . . .
31.8(29) . . .
43(4) . . .
35.0(32) . . .
34.0(31) . . .
31.0(29) . . .
30.9(29) . . .
36(4) . . .
39(4) . . .
29.0(28) . . .
41.6(33) . . .
31.7(29) . . .
38.5(35) . . .
33.0(30) . . .
43.5(34) . . .
36.7(32) . . .
37.4(33) . . .
37.3(34) . . .
32.6(29) . . .
36.7(31) . . .
35.1(30) . . .
31.1(30) . . .
36.4(33) . . .
37.2(32) . . .
27.6(27) . . .
35.9(33) . . .
39.3(34) . . .
31.8(30) . . .
35.7(31) . . .
36.4(32) . . .
47(4) . . .
29.9(29) . . .
30.2(31) . . .
38.6(34) . . .
41.5(34) . . .
39.2(32) . . .
40.7(34) . . .
35.5(31) . . .
37.9(34) . . .
32.7(30) . . .
37.3(34) . . .
39.1(34) . . .
38.2(34) . . .
37.1(32) . . .
41.5(33) . . .
35.3(31) . . .
33.6(31) . . .
41(4) . . .
35.9(32) . . .
34.3(31) . . .
33.6(31) . . .
28.9(30) . . .
38(4) . . .
32.7(30) . . .
40.7(34) . . .
36.6(33) . . .
44(4) . . .
34.0(32) . . .
35.6(31) . . .
42.2(34) . . .
33.6(30) . . .
33.8(30) . . .
34.5(32) . . .
31.9(29) . . .
36.3(31) . . .
34.2(31) . . .
33.9(32) . . .
41(4) . . .
34.0(30) . . .
28.2(28) . . .
36.6(34) . . .
36.4(33) . . .
39.5(34) . . .
37.7(32) . . .
38.0(33) . . .
39.2(34) . . .
34.6(32) . . .
37.8(33) . . .
43.6(35) . . .
35.9(33) . . .
35.6(32) . . .
39.8(34) . . .
33.6(33) . . .
27.5(27) . . .
35.6(32) . . .
45(4) . . .
42.0(35) . . .
41.4(34) . . .
43.5(35) . . .
40.4(34) . . .
36.5(34) . . .
27.3(28) . . .
32.0(31) . . .
29.5(28) . . .
31.2(30) . . .
40(4) . . .
38(4) . . .
33.0(31) . . .
35.7(31) . . .
31.6(29) . . .
36.1(32) . . .
42.1(34) . . .
37.3(32) . . .
37.7(32) . . .
47(4) . . .
37.5(33) . . .
38.2(34) . . .
33.8(31) . . .
34.6(31) . . .
39.2(34) . . .
36.4(33) . . .
36(4) . . .
31.1(30) . . .
25.7(27) . . .
34.4(31) . . .
32.5(32) . . .
33.1(34) . . .
37.8(32) . . .
36.9(33) . . .
36.6(32) . . .
38.2(34) . . .
47(4) . . .
49(4) . . .
46(4) . . .
25.4(27) . . .
28.0(28) . . .
45(4) . . .
31.6(30) . . .
41(4) . . .
29.6(29) . . .
26.1(28) . . .
35.7(34) . . .
36.6(31) . . .
35.6(32) . . .
32.3(30) . . .
46(4) . . .
43.4(34) . . .
39.2(33) . . .
47(4) . . .
35.5(32) . . .
36.7(32) . . .
26.0(28) . . .
41.1(34) . . .
33.4(31) . . .
34.3(32) . . .
42(4) . . .
32.7(30) . . .
41.0(33) . . .
36.4(33) . . .
42(4) . . .
47(4) . . .
44.1(35) . . .
30.5(29) . . .
40.3(35) . . .
41(4) . . .
40.7(33) . . .
35.2(30) . . .
31.8(29) . . .
34.0(31) . . .
34.1(32) . . .
33.5(32) . . .
32.1(29) . . .
34.3(31) . . .
39.1(35) . . .
32.9(32) . . .
44(4) . . .
46(4) . . .
37.4(31) . . .
36.2(31) . . .
38.2(34) . . .
37(4) . . .
32.7(30) . . .
33.8(32) . . .
34.7(31) . . .
30.0(29) . . .
36.7(32) . . .
44.4(34) . . .
37.1(32) . . .
31.4(31) . . .
41(4) . . .
39.5(33) . . .
37.1(32) . . .
45(4) . . .
31.6(31) . . .
29.9(29) . . .
42(4) . . .
39.3(33) . . .
36.5(34) . . .
43(4) . . .
35.2(34) . . .
37.1(32) . . .
42.4(34) . . .
40.4(34) . . .
39.4(35) . . .
32.8(32) . . .
34.2(34) . . .
24.7(26) . . .
38.2(32) . . .
41.7(35) . . .
39.1(34) . . .
35.3(31) . . .
35.7(31) . . .
35.8(32) . . .
38.7(34) . . .
42.5(34) . . .
38.8(33) . . .
37.1(32) . . .
37.0(33) . . .
41(4) . . .
38.2(34) . . .
35.5(32) . . .
32.3(31) . . .
32.8(31) . . .
42(4) . . .
21.8(24) . . .
35.7(31) . . .
27.3(27) . . .
40(4) . . .
40(4) . . .
37.0(32) . . .
32.6(30) . . .
24.4(26) . . .
30.9(32) . . .
33.2(31) . . .
29.7(31) . . .
38.4(33) . . .
38.0(32) . . .
36.1(33) . . .
39(4) . . .
35.8(32) . . .
41.4(33) . . .
47(4) . . .
47(4) . . .
36.2(32) . . .
35.6(31) . . .
43.8(34) . . .
34.3(31) . . .
34.6(31) . . .
40.8(35) . . .
40.5(35) . . .
44(4) . . .
38.1(33) . . .
34.3(32) . . .
43(4) . . .
37.2(32) . . .
35.3(31) . . .
44(4) . . .
36.5(33) . . .
32.6(30) . . .
38.5(32) . . .
31.3(29) . . .
41(4) . . .
39.3(35) . . .
33.7(30) . . .
33.9(31) . . .
34.7(30) . . .
28.8(28) . . .
39(4) . . .
41.1(34) . . .
34.0(30) . . .
38.8(32) . . .
37.1(32) . . .
33.5(31) . . .
40.8(35) . . .
29.0(30) . . .
38.4(32) . . .
35.6(31) . . .
33.9(32) . . .
40(4) . . .
42.7(34) . . .
33.9(33) . . .
45(4) . . .
52(4) . . .
33.0(30) . . .
36.7(32) . . .
33.0(29) . . .
39.9(35) . . .
37.4(34) . . .
36.9(33) . . .
40.9(33) . . .
38.0(34) . . .
32.4(31) . . .
26.2(27) . . .
32.9(31) . . .
34.1(31) . . .
36.2(32) . . .
39.3(35) . . .
46(4) . . .
40.9(33) . . .
38.9(33) . . .
37.1(32) . . .
38.1(34) . . .
29.4(28) . . .
36.0(31) . . .
35.0(31) . . .
38.5(34) . . .
33.2(32) . . .
37.6(33) . . .
29.0(28) . . .
34.8(31) . . .
26.5(26) . . .
36.4(33) . . .
37.4(32) . . .
32.0(30) . . .
42.8(34) . . .
31.6(31) . . .
35.7(33) . . .
33.8(30) . . .
40.9(33) . . .
36.8(33) . . .
36.2(32) . . .
40.1(35) . . .
45(4) . . .
40.2(33) . . .
35.3(31) . . .
25.4(26) . . .
30.6(33) . . .
38(4) . . .
39.2(33) . . .
33.7(30) . . .
36.2(32) . . .
34.7(33) . . .
39.6(35) . . .
36.5(32) . . .
35.4(31) . . .
36.9(32) . . .
37.3(33) . . .
38.5(34) . . .
34.7(31) . . .
31.9(30) . . .
35.4(32) . . .
25.0(27) . . .
32.3(30) . . .
28.4(28) . . .
42(4) . . .
33.8(34) . . .
28.8(30) . . .
34.6(32) . . .
33.1(31) . . .
47(4) . . .
35.8(33) . . .
33.2(32) . . .
36.0(31) . . .
42.8(34) . . .
35.4(32) . . .
29.5(28) . . .
38.2(34) . . .
33.0(30) . . .
36.9(31) . . .
40.8(34) . . .
40.0(34) . . .
34.8(32) . . .
30.7(29) . . .
40.4(34) . . .
34.1(33) . . .
29.8(29) . . .
38.1(33) . . .
31.6(29) . . .
37.5(33) . . .
30.0(31) . . .
32.2(32) . . .
40.0(34) . . .
43.8(35) . . .
39.5(32) . . .
26.7(27) . . .
35.1(32) . . .
38(4) . . .
34.6(30) . . .
25.8(27) . . .
46(4) . . .
29.4(28) . . .
36.3(32) . . .
36.2(32) . . .
32.7(30) . . .
38(4) . . .
33.5(31) . . .
33.4(30) . . .
34.6(31) . . .
30.0(30) . . .
27.8(30) . . .
29.0(29) . . .
33.2(30) . . .
38.6(32) . . .
31.6(30) . . .
29.7(28) . . .
35.5(31) . . .
26.2(26) . . .
34.4(31) . . .
39.3(33) . . .
49(4) . . .
40.4(35) . . .
34.8(30) . . .
28.0(28) . . .
32.6(32) . . .
37.2(34) . . .
31.3(32) . . .
33.0(31) . . .
42.1(34) . . .
31.5(31) . . .
38.2(35) . . .
35.2(32) . . .
36.5(32) . . .
33.6(31) . . .
32.6(31) . . .
38.8(33) . . .
41.8(34) . . .
35.9(32) . . .
35.3(31) . . .
32.9(32) . . .
31.3(31) . . .
41.3(34) . . .
38.9(32) . . .
38.2(32) . . .
43(4) . . .
36.9(34) . . .
38.8(35) . . .
31.4(29) . . .
40.5(33) . . .
41.5(33) . . .
45(4) . . .
32.4(31) . . .
39.6(34) . . .
37.0(32) . . .
35.4(31) . . .
40(4) . . .
34.7(32) . . .
39.0(33) . . .
39.9(33) . . .
36.4(31) . . .
40.5(34) . . .
37.0(33) . . .
35.2(31) . . .
33.2(31) . . .
37(4) . . .
38.6(34) . . .
36.6(32) . . .
29.7(28) . . .
30.1(30) . . .
38.5(34) . . .
39.9(34) . . .
40.2(33) . . .
30.2(29) . . .
38.4(32) . . .
40.0(32) . . .
33.4(30) . . .
28.8(28) . . .
35.3(31) . . .
38.5(34) . . .
34.3(33) . . .
43(4) . . .
42.2(34) . . .
29.3(28) . . .
39.6(35) . . .
39(4) . . .
29.5(29) . . .
40.9(35) . . .
39.8(33) . . .
35.0(32) . . .
30.0(32) . . .
33.4(31) . . .
35.6(31) . . .
36.7(32) . . .
38.0(33) . . .
47(4) . . .
35.5(31) . . .
36.5(31) . . .
41.3(33) . . .
41.5(34) . . .
46(4) . . .
40.2(35) . . .
36.3(32) . . .
44.5(34) . . .
34.2(31) . . .
35.7(33) . . .
35.3(33) . . .
32.2(30) . . .
47(4) . . .
42(4) . . .
30.7(29) . . .
40.4(35) . . .
40.0(33) . . .
38.5(33) . . .
36.9(34) . . .
33.4(32) . . .
45(4) . . .
40.8(33) . . .
32.3(32) . . .
37.3(33) . . .
38.8(33) . . .
35.8(32) . . .
43.8(34) . . .
38.1(33) . . .
43(4) . . .
33.8(31) . . .
36.1(33) . . .
32.2(29) . . .
33.7(33) . . .
45(4) . . .
41(4) . . .
31.8(30) . . .
40.0(33) . . .
34.7(31) . . .
24.4(26) . . .
34.0(34) . . .
36.9(33) . . .
36.9(31) . . .
37.3(32) . . .
34.2(32) . . .
39.1(35) . . .
32.9(30) . . .
37.2(33) . . .
47(4) . . .
39.3(33) . . .
32.3(30) . . .
31.8(29) . . .
29.1(30) . . .
32.5(32) . . .
31.2(32) . . .
34.4(31) . . .
37.8(32) . . .
33.8(31) . . .
31.3(30) . . .
35.0(31) . . .
36.8(33) . . .
37.5(31) . . .
37.6(32) . . .
29.1(29) . . .
37(4) . . .
35.1(32) . . .
36.8(32) . . .
36.3(33) . . .
33.4(31) . . .
33.7(33) . . .
25.0(26) . . .
35.4(31) . . .
36.7(33) . . .
36.2(31) . . .
43(4) . . .
38.7(33) . . .
30.2(29) . . .
34.1(32) . . .
34.0(32) . . .
34.8(32) . . .
31.7(29) . . .
36.4(32) . . .
31.6(31) . . .
34.5(33) . . .
31.5(29) . . .
39.6(33) . . .
39.8(33) . . .
38.9(34) . . .
33.3(32) . . .
32.3(31) . . .
38.8(33) . . .
36.5(31) . . .
39.8(35) . . .
34.5(30) . . .
33.0(30) . . .
34.2(30) . . .
38.1(33) . . .
35.2(31) . . .
40(4) . . .
42(4) . . .
30.9(30) . . .
40.8(34) . . .
38.1(33) . . .
32.0(30) . . .
34.2(32) . . .
32.4(29) . . .
35.4(31) . . .
37.8(34) . . .
34.6(32) . . .
32.8(30) . . .
31.9(30) . . .
36.5(32) . . .
28.1(28) . . .
33.5(31) . . .
33.8(31) . . .
32.5(30) . . .
39.2(33) . . .
42(4) . . .
45(4) . . .
35.8(32) . . .
35.7(31) . . .
27.5(27) . . .
27.0(27) . . .
37.9(35) . . .
35.5(32) . . .
39.4(33) . . .
28.3(27) . . .
38.2(34) . . .
30.6(28) . . .
37.5(34) . . .
39.3(33) . . .
38(4) . . .
31.6(33) . . .
36.8(35) . . .
33.8(30) . . .
41.3(34) . . .
28.1(28) . . .
37(4) . . .
32.5(32) . . .
37.5(33) . . .
48(4) . . .
35.9(34) . . .
35.0(32) . . .
36.2(33) . . .
39.2(33) . . .
38.5(33) . . .
35.2(31) . . .
42(4) . . .
33.9(31) . . .
44.0(35) . . .
38.4(32) . . .
41.8(33) . . .
39.6(34) . . .
38.8(33) . . .
36.1(31) . . .
38.1(32) . . .
31.9(31) . . .
35.3(35) . . .
29.8(28) . . .
28.5(28) . . .
33.5(30) . . .
34.4(33) . . .
41(4) . . .
35.3(32) . . .
34.5(31) . . .
36.3(31) . . .
35.6(33) . . .
44(4) . . .
41.5(35) . . .
30.6(29) . . .
34.4(30) . . .
36.7(31) . . .
39.9(35) . . .
34.2(32) . . .
36.4(31) . . .
36.8(32) . . .
36.6(32) . . .
33.9(32) . . .
32.5(30) . . .
36.5(31) . . .
37.3(32) . . .
39(4) . . .
30.1(29) . . .
41.2(35) . . .
41.0(33) . . .
39.0(34) . . .
30.3(29) . . .
35.0(32) . . .
41.5(34) . . .
32.7(30) . . .
41(4) . . .
38(4) . . .
31.1(32) . . .
35.4(31) . . .
37.2(32) . . .
36.4(34) . . .
39(4) . . .
39.5(35) . . .
44.7(35) . . .
37.8(33) . . .
32.7(29) . . .
44(4) . . .
45(4) . . .
40.2(32) . . .
47(4) . . .
44(4) . . .
38.7(34) . . .
37.8(32) . . .
34.2(31) . . .
33.4(30) . . .
33.7(30) . . .
40.3(35) . . .
30.9(29) . . .
48(4) . . .
44.7(35) . . .
37.8(34) . . .
42(4) . . .
29.3(30) . . .
24.3(26) . . .
37.0(32) . . .
33.9(31) . . .
36.3(32) . . .
37.3(33) . . .
43.6(35) . . .
39.5(33) . . .
34.7(31) . . .
35.0(32) . . .
38.3(33) . . .
41.3(33) . . .
40(4) . . .
31.1(30) . . .
34.3(34) . . .
33.8(32) . . .
34.8(30) . . .
31.2(31) . . .
33.8(33) . . .
38(4) . . .
31.2(29) . . .
27.3(28) . . .
27.9(29) . . .
35.6(33) . . .
43(4) . . .
39.0(33) . . .
31.8(29) . . .
43(4) . . .
23.4(27) . . .
25.2(27) . . .
41.2(34) . . .
39.6(33) . . .
38.8(33) . . .
33.7(34) . . .
34.8(33) . . .
34.9(31) . . .
41.1(33) . . .
36.3(34) . . .
34.4(31) . . .
40.3(34) . . .
32.6(29) . . .
32.2(31) . . .
39.9(35) . . .
39(4) . . .
27.9(27) . . .
36.7(32) . . .
32.5(29) . . .
39.9(34) . . .
41.1(34) . . .
35.1(34) . . .
29.5(28) . . .
40(4) . . .
29.5(29) . . .
30.5(30) . . .
38.6(34) . . .
34.5(31) . . .
31.2(29) . . .
33.2(31) . . .
38.8(34) . . .
28.4(30) . . .
36.2(31) . . .
36.9(33) . . .
35.7(35) . . .
31.1(32) . . .
39.3(33) . . .
44.1(35) . . .
37.6(32) . . .
32.7(30) . . .
33.6(30) . . .
35.0(31) . . .
29.9(29) . . .
38.3(34) . . .
54(4) . . .
39.4(35) . . .
26.5(27) . . .
39.0(33) . . .
36.1(33) . . .
30.3(29) . . .
30.7(31) . . .
35.6(31) . . .
38.3(32) . . .
34.1(30) . . .
41(4) . . .
24.1(27) . . .
39.9(34) . . .
37.6(31) . . .
39.6(33) . . .
37(4) . . .
41.3(35) . . .
39.0(33) . . .
43.0(34) . . .
34.6(31) . . .
43(4) . . .
32.1(30) . . .
36.8(31) . . .
39.4(33) . . .
33.3(31) . . .
31.2(29) . . .
29.5(31) . . .
39.4(33) . . .
34.7(31) . . .
35.6(32) . . .
41.8(35) . . .
43.0(35) . . .
33.2(31) . . .
44(4) . . .
35.2(32) . . .
34.8(31) . . .
37.3(34) . . .
34.0(31) . . .
33.7(30) . . .
41(4) . . .
41(4) . . .
43.5(35) . . .
33.3(30) . . .
31.5(31) . . .
40(4) . . .
31.6(30) . . .
33.2(33) . . .
39.3(32) . . .
38.0(34) . . .
39.9(34) . . .
42.9(34) . . .
43.2(35) . . .
32.9(31) . . .
33.2(31) . . .
33.7(34) . . .
36.4(33) . . .
33.8(31) . . .
37.1(32) . . .
39.3(32) . . .
41(4) . . .
29.7(29) . . .
28.1(27) . . .
25.5(28) . . .
38.5(35) . . .
39.5(33) . . .
51(4) . . .
39.0(32) . . .
41.1(34) . . .
36.8(35) . . .
37(4) . . .
38.5(34) . . .
38.4(32) . . .
42.4(34) . . .
34.0(31) . . .
33.2(32) . . .
36.1(32) . . .
37.6(33) . . .
36.3(33) . . .
38.6(34) . . .
35.9(31) . . .
37.2(32) . . .
39.1(32) . . .
48(4) . . .
38.2(33) . . .
48(4) . . .
34.9(32) . . .
37.2(32) . . .
39.7(33) . . .
37.2(32) . . .
43(4) . . .
36.0(32) . . .
44.0(35) . . .
45(4) . . .
37(4) . . .
27.3(28) . . .
36.0(32) . . .
36.3(32) . . .
36.8(34) . . .
34.6(33) . . .
27.6(29) . . .
28.1(28) . . .
36.8(31) . . .
33.8(30) . . .
45(4) . . .
36.1(30) . . .
39.0(34) . . .
28.9(28) . . .
32.1(31) . . .
39(4) . . .
34.9(33) . . .
35.4(32) . . .
50(4) . . .
45.6(34) . . .
48(4) . . .
33.4(30) . . .
29.8(28) . . .
39.3(33) . . .
36.8(30) . . .
41.4(33) . . .
43.8(35) . . .
35.6(31) . . .
41.3(34) . . .
42(4) . . .
40.2(33) . . .
33.9(31) . . .
34.8(31) . . .
33.6(31) . . .
33.3(31) . . .
36.5(34) . . .
36.8(32) . . .
31.6(29) . . .
38.1(32) . . .
35.8(33) . . .
34.9(33) . . .
37.1(32) . . .
32.3(30) . . .
41.3(34) . . .
31.3(31) . . .
36.8(35) . . .
33.8(31) . . .
36.4(31) . . .
41.6(34) . . .
40.8(35) . . .
36.2(32) . . .
35.2(31) . . .
38.9(33) . . .
42(4) . . .
39.0(34) . . .
38.7(33) . . .
32.1(31) . . .
37.0(32) . . .
45.0(35) . . .
32.2(31) . . .
39.7(33) . . .
49(4) . . .
38.3(32) . . .
34.2(30) . . .
35.2(33) . . .
35.2(32) . . .
38.3(32) . . .
35.8(31) . . .
31.8(31) . . .
28.3(30) . . .
36.5(32) . . .
37.3(31) . . .
46(4) . . .
34.2(31) . . .
40(4) . . .
48(4) . . .
34.8(31) . . .
35.3(32) . . .
36.6(33) . . .
38.2(34) . . .
38(4) . . .
34.1(30) . . .
34.2(30) . . .
32.0(30) . . .
39.6(35) . . .
47(4) . . .
41.4(33) . . .
44(4) . . .
40(4) . . .
42(4) . . .
33.5(31) . . .
39.0(32) . . .
36.7(32) . . .
38.6(33) . . .
32.4(30) . . .
27.1(27) . . .
38.0(32) . . .
44(4) . . .
38.4(34) . . .
41(4) . . .
32.2(29) . . .
33.4(30) . . .
36.2(32) . . .
39.7(34) . . .
38.2(32) . . .
39.7(33) . . .
38.7(33) . . .
39.0(34) . . .
34.5(32) . . .
36.3(30) . . .
34.0(30) . . .
33.3(30) . . .
41(4) . . .
32.9(31) . . .
34.8(32) . . .
38.5(32) . . .
35.3(31) . . .
30.7(29) . . .
36.5(33) . . .
38.4(34) . . .
32.5(30) . . .
32.0(30) . . .
33.9(31) . . .
34.1(32) . . .
33.1(31) . . .
35.0(31) . . .
28.2(27) . . .
35.0(31) . . .
35.5(32) . . .
32.4(30) . . .
30.0(29) . . .
35.0(32) . . .
38(4) . . .
29.2(29) . . .
39.8(35) . . .
38.8(33) . . .
29.5(28) . . .
38.7(33) . . .
47(4) . . .
31.7(30) . . .
30.8(29) . . .
31.1(29) . . .
37.5(34) . . .
30.8(30) . . .
28.9(28) . . .
34.3(31) . . .
35.5(32) . . .
47(4) . . .
37.9(34) . . .
41(4) . . .
46(4) . . .
45(4) . . .
33.2(30) . . .
29.7(28) . . .
38.9(34) . . .
37.3(32) . . .
39.8(34) . . .
34.1(31) . . .
39.5(34) . . .
35.7(32) . . .
29.6(29) . . .
33.2(31) . . .
32.0(31) . . .
34.9(31) . . .
35.9(32) . . .
29.6(30) . . .
31.5(31) . . .
38(4) . . .
42.4(35) . . .
39.2(33) . . .
38.9(32) . . .
39.3(32) . . .
37.2(33) . . .
41(4) . . .
36.6(31) . . .
31.4(29) . . .
28.7(28) . . .
27.6(28) . . .
35.7(31) . . .
40.3(33) . . .
30.6(30) . . .
24.3(28) . . .
30.0(29) . . .
46(4) . . .
35.4(31) . . .
36.9(32) . . .
34.0(31) . . .
39.3(33) . . .
37.4(33) . . .
39.4(33) . . .
29.4(29) . . .
35.3(32) . . .
35.2(33) . . .
30.7(29) . . .
36.6(31) . . .
35.7(33) . . .
34.1(32) . . .
38.4(33) . . .
37.8(32) . . .
34.3(31) . . .
29.2(28) . . .
31.5(30) . . .
26.4(27) . . .
26.8(28) . . .
39.7(33) . . .
34.7(33) . . .
27.7(30) . . .
37.4(33) . . .
48(4) . . .
38.4(32) . . .
29.2(31) . . .
42(4) . . .
31.4(30) . . .
38.8(32) . . .
49(4) . . .
35.5(31) . . .
33.8(30) . . .
41(4) . . .
38.7(33) . . .
42.5(34) . . .
36.6(33) . . .
33.6(31) . . .
35.5(32) . . .
35.0(32) . . .
36.6(31) . . .
37.9(34) . . .
45(4) . . .
32.8(32) . . .
38.9(32) . . .
31.0(29) . . .
32.5(32) . . .
36.0(31) . . .
41.0(34) . . .
42.5(34) . . .
37.7(31) . . .
36.2(34) . . .
27.4(28) . . .
33.4(30) . . .
38.0(31) . . .
31.8(30) . . .
38.8(35) . . .
32.3(31) . . .
37.9(33) . . .
39.5(33) . . .
38.9(34) . . .
32.4(31) . . .
37.2(34) . . .
26.0(26) . . .
34.4(31) . . .
33.4(32) . . .
44(4) . . .
41.3(34) . . .
35.9(31) . . .
34.3(30) . . .
29.7(28) . . .
30.8(30) . . .
42(4) . . .
33.3(30) . . .
33.3(31) . . .
41.3(35) . . .
41(4) . . .
41.7(34) . . .
29.5(28) . . .
37.9(32) . . .
33.2(31) . . .
28.6(31) . . .
38(4) . . .
35.6(31) . . .
37.5(33) . . .
32.1(31) . . .
37.1(34) . . .
30.8(30) . . .
33.8(30) . . .
39.1(33) . . .
40.0(33) . . .
35.9(34) . . .
34.7(32) . . .
33.9(30) . . .
45.0(35) . . .
33.0(32) . . .
28.2(29) . . .
24.4(26) . . .
40.8(33) . . .
33.2(30) . . .
40.3(34) . . .
38.5(33) . . .
36.5(32) . . .
30.5(29) . . .
37.5(33) . . .
35.1(31) . . .
39.7(34) . . .
39.3(35) . . .
43.4(34) . . .
34.7(32) . . .
37(4) . . .
36.8(34) . . .
35.1(31) . . .
37.4(32) . . .
34.6(30) . . .
30.4(29) . . .
31.2(31) . . .
37.6(33) . . .
40.4(33) . . .
39.7(34) . . .
34.7(34) . . .
39.7(34) . . .
29.1(28) . . .
28.5(29) . . .
40(4) . . .
36.2(32) . . .
35.2(30) . . .
46(4) . . .
44.4(35) . . .
41.6(34) . . .
38.1(34) . . .
36.3(31) . . .
30.4(29) . . .
34.1(30) . . .
30.9(30) . . .
39(4) . . .
38.4(33) . . .
28.9(28) . . .
43.5(34) . . .
31.4(30) . . .
31.0(32) . . .
28.6(29) . . .
28.7(28) . . .
32.8(30) . . .
37.0(32) . . .
30.7(30) . . .
39.8(34) . . .
35.7(31) . . .
38.6(32) . . .
41.3(35) . . .
41(4) . . .
30.5(29) . . .
33.0(30) . . .
31.5(29) . . .
36.8(33) . . .
40.8(35) . . .
40(4) . . .
32.4(29) . . .
33.7(33) . . .
33.0(33) . . .
34.5(32) . . .
34.8(32) . . .
30.1(29) . . .
47(4) . . .
39.1(35) . . .
35.6(33) . . .
36.4(33) . . .
40.5(33) . . .
37.4(32) . . .
34.3(30) . . .
41.5(33) . . .
40.5(33) . . .
35.5(31) . . .
40.7(35) . . .
35.3(32) . . .
35.4(33) . . .
36.9(32) . . .
34.2(31) . . .
31.0(30) . . .
35.2(33) . . .
37.5(33) . . .
35.9(32) . . .
33.9(30) . . .
33.9(32) . . .
38(4) . . .
33.7(30) . . .
42.8(34) . . .
29.6(28) . . .
32.4(31) . . .
37.8(34) . . .
32.2(32) . . .
38.1(32) . . .
32.3(30) . . .
28.4(28) . . .
30.4(30) . . .
36.1(32) . . .
40.3(33) . . .
40.5(34) . . .
42(4) . . .
30.7(30) . . .
31.6(30) . . .
47(4) . . .
38.0(33) . . .
27.1(28) . . .
39.5(34) . . .
36.2(32) . . .
47(4) . . .
38.9(32) . . .
33.8(31) . . .
32.0(30) . . .
32.8(31) . . .
28.7(28) . . .
31.9(32) . . .
35.5(33) . . .
35.4(32) . . .
42.1(34) . . .
40.2(33) . . .
34.2(32) . . .
34.3(34) . . .
35.0(33) . . .
30.9(29) . . .
35.7(31) . . .
32.5(29) . . .
33.4(30) . . .
36.8(33) . . .
29.9(30) . . .
36.2(32) . . .
27.3(27) . . .
28.8(30) . . .
32.0(29) . . .
33.2(30) . . .
38.3(33) . . .
43(4) . . .
37(4) . . .
40.5(34) . . .
37.7(32) . . .
40.8(33) . . .
34.6(33) . . .
37.8(34) . . .
42(4) . . .
40.0(33) . . .
38.4(33) . . .
36.4(32) . . .
38.2(34) . . .
45(4) . . .
37.3(32) . . .
31.4(29) . . .
35.9(33) . . .
33.9(31) . . .
38.8(33) . . .
33.3(30) . . .
39.1(33) . . .
29.2(28) . . .
36.3(32) . . .
30.7(28) . . .
46(4) . . .
31.6(29) . . .
29.6(29) . . .
34.8(33) . . .
46(4) . . .
39.3(32) . . .
38.7(32) . . .
36.7(33) . . .
39.8(35) . . .
38.8(33) . . .
36.9(32) . . .
45(4) . . .
28.7(28) . . .
33.9(31) . . .
37.2(32) . . .
31.6(30) . . .
31.0(29) . . .
45(4) . . .
35.9(31) . . .
44(4) . . .
36.0(31) . . .
37.3(33) . . .
44(4) . . .
27.5(27) . . .
31.4(29) . . .
34.8(31) . . .
23.7(25) . . .
37.3(34) . . .
44(4) . . .
45.4(35) . . .
37.3(33) . . .
37.7(34) . . .
40(4) . . .
33.9(30) . . .
38.3(32) . . .
41.3(34) . . .
36.9(33) . . .
33.0(31) . . .
35.2(31) . . .
43.1(34) . . .
32.8(30) . . .
33.5(32) . . .
31.5(32) . . .
32.3(30) . . .
33.5(32) . . .
28.1(28) . . .
31.1(29) . . .
32.3(31) . . .
36.7(33) . . .
25.3(26) . . .
37.1(32) . . .
35.9(31) . . .
41(4) . . .
34.4(32) . . .
35.0(31) . . .
36.1(34) . . .
31.7(32) . . .
43(4) . . .
30.9(29) . . .
36.2(32) . . .
32.5(32) . . .
28.8(30) . . .
31.5(29) . . .
38.8(32) . . .
38.6(32) . . .
26.3(26) . . .
32.3(31) . . .
34.8(32) . . .
37.9(34) . . .
38.7(33) . . .
35.1(32) . . .
26.8(29) . . .
30.9(30) . . .
38.8(32) . . .
40.9(33) . . .
39.4(33) . . .
45(4) . . .
39.3(34) . . .
29.8(28) . . .
30.0(28) . . .
43(4) . . .
38(4) . . .
36.2(32) . . .
39.4(33) . . .
32.3(29) . . .
32.6(30) . . .
36.7(35) . . .
31.2(29) . . .
29.9(28) . . .
38.0(33) . . .
36.1(32) . . .
27.9(31) . . .
44(4) . . .
38.7(32) . . .
41.6(35) . . .
35.0(32) . . .
31.9(30) . . .
30.7(31) . . .
30.5(29) . . .
36.7(32) . . .
44(4) . . .
33.1(29) . . .
35.3(32) . . .
43.0(34) . . .
37.9(32) . . .
33.0(29) . . .
34.3(32) . . .
30.7(30) . . .
40.8(33) . . .
32.9(32) . . .
34.7(33) . . .
29.9(30) . . .
36.1(33) . . .
36.0(32) . . .
28.9(28) . . .
29.4(30) . . .
38.7(35) . . .
46(4) . . .
39.0(33) . . .
43.2(35) . . .
31.0(30) . . .
32.7(32) . . .
40.8(33) . . .
32.0(29) . . .
40.0(34) . . .
30.2(29) . . .
35.7(31) . . .
34.7(31) . . .
31.9(30) . . .
33.7(32) . . .
37.4(33) . . .
38.7(33) . . .
26.4(27) . . .
42.2(34) . . .
40(4) . . .
36.5(34) . . .
34.6(32) . . .
28.9(28) . . .
31.8(30) . . .
33.8(32) . . .
34.6(32) . . .
34.3(32) . . .
37.4(32) . . .
37.4(32) . . .
35.3(29) . . .
38.9(33) . . .
36.8(33) . . .
32.5(29) . . .
30.2(30) . . .
33.5(31) . . .
34.7(32) . . .
36.5(32) . . .
37.8(33) . . .
34.3(30) . . .
35.9(33) . . .
26.0(29) . . .
33.5(31) . . .
38.8(32) . . .
41.0(35) . . .
30.8(29) . . .
31.3(31) . . .
41.3(34) . . .
36.8(32) . . .
34.4(33) . . .
43(4) . . .
40.5(33) . . .
36.6(34) . . .
33.1(30) . . .
29.1(31) . . .
29.7(29) . . .
39.3(32) . . .
34.2(30) . . .
35.8(31) . . .
31.8(32) . . .
34.2(31) . . .
45(4) . . .
40.0(32) . . .
30.3(28) . . .
40(4) . . .
38.9(34) . . .
24.4(25) . . .
40.7(33) . . .
39.4(33) . . .
34.2(32) . . .
37.3(35) . . .
34.9(31) . . .
33.4(30) . . .
38.9(33) . . .
39.4(35) . . .
29.0(30) . . .
29.9(29) . . .
40.9(33) . . .
32.0(30) . . .
30.1(29) . . .
34.0(32) . . .
37.8(32) . . .
36.6(31) . . .
34.3(31) . . .
40(4) . . .
38.6(35) . . .
26.2(27) . . .
33.1(30) . . .
39.2(33) . . .
38.9(34) . . .
37.6(34) . . .
30.6(30) . . .
37.8(32) . . .
33.0(31) . . .
41(4) . . .
38.1(34) . . .
33.6(31) . . .
36.7(31) . . .
32.3(29) . . .
37.5(33) . . .
29.9(27) . . .
34.7(31) . . .
33.5(30) . . .
33.2(31) . . .
35.4(33) . . .
38.4(35) . . .
40.5(33) . . .
37.7(31) . . .
38.6(33) . . .
33.1(32) . . .
34.0(32) . . .
41.2(33) . . .
28.7(28) . . .
34.3(32) . . .
33.7(32) . . .
31.8(31) . . .
34.8(32) . . .
37.6(32) . . .
31.0(31) . . .
30.7(33) . . .
33.2(32) . . .
38.4(32) . . .
38.2(32) . . .
35.2(33) . . .
27.8(30) . . .
36.7(33) . . .
33.6(30) . . .
37.1(32) . . .
32.0(30) . . .
31.0(30) . . .
34.1(32) . . .
36.9(32) . . .
35.5(31) . . .
38.2(34) . . .
28.7(30) . . .
35(4) . . .
30.8(29) . . .
34.3(33) . . .
34.2(34) . . .
37.2(34) . . .
33.0(30) . . .
29.3(28) . . .
38.5(34) . . .
31.4(29) . . .
34.4(31) . . .
31.5(30) . . .
42.0(34) . . .
31.6(32) . . .
35.5(33) . . .
36.0(33) . . .
38.0(33) . . .
42.3(34) . . .
39.7(33) . . .
42(4) . . .
33.7(31) . . .
28.6(29) . . .
34.1(31) . . .
42(4) . . .
32.1(30) . . .
33.7(30) . . .
40.3(33) . . .
36.0(32) . . .
33.1(32) . . .
35.4(33) . . .
27.3(28) . . .
27.2(28) . . .
30.8(29) . . .
33.4(30) . . .
36.3(33) . . .
36.6(33) . . .
36.8(31) . . .
29.4(28) . . .
37.9(33) . . .
34.8(32) . . .
37.5(34) . . .
34.4(31) . . .
33.7(30) . . .
34.2(32) . . .
33.2(33) . . .
31.9(30) . . .
29.8(29) . . .
33.2(30) . . .
36.4(32) . . .
35.3(30) . . .
35.4(33) . . .
30.3(29) . . .
26.6(27) . . .
35.4(31) . . .
35.7(32) . . .
40(4) . . .
40.8(33) . . .
35.8(32) . . .
33.8(30) . . .
35.7(33) . . .
24.9(26) . . .
34.2(31) . . .
37.6(32) . . .
33.7(31) . . .
40(4) . . .
43(4) . . .
43.9(35) . . .
37.8(32) . . .
33.0(31) . . .
34.5(30) . . .
40.8(35) . . .
44.5(35) . . .
43.2(34) . . .
35.5(31) . . .
37.6(32) . . .
30.8(30) . . .
34.2(30) . . .
42(4) . . .
35.0(32) . . .
32.9(31) . . .
36.6(33) . . .
34.1(30) . . .
31.4(30) . . .
39(4) . . .
32.9(31) . . .
40.8(33) . . .
42.7(34) . . .
41.8(34) . . .
29.5(30) . . .
33.2(31) . . .
32.6(30) . . .
34.8(31) . . .
34.8(32) . . .
30.4(29) . . .
34.3(31) . . .
40.0(33) . . .
42.9(35) . . .
37.6(32) . . .
40.9(35) . . .
31.6(31) . . .
35.6(31) . . .
38.9(33) . . .
36.1(33) . . .
31.9(31) . . .
28.3(29) . . .
36.6(32) . . .
29.8(30) . . .
31.9(30) . . .
31.4(30) . . .
28.1(28) . . .
34.0(30) . . .
35.6(31) . . .
36.6(31) . . .
42(4) . . .
49(4) . . .
39.3(33) . . .
36.7(35) . . .
31.6(32) . . .
38.4(34) . . .
41.8(34) . . .
32.7(30) . . .
41.1(35) . . .
31.9(32) . . .
32.0(30) . . .
39.5(33) . . .
34.4(31) . . .
35.3(31) . . .
41.0(34) . . .
35.9(33) . . .
31.2(29) . . .
41.0(33) . . .
40(4) . . .
37(4) . . .
50(4) . . .
42.6(35) . . .
40.8(34) . . .
32.9(29) . . .
41(4) . . .
41.1(35) . . .
43.4(34) . . .
35.5(31) . . .
37.3(33) . . .
42(4) . . .
35.1(31) . . .
30.7(29) . . .
33.1(30) . . .
45(4) . . .
37.5(34) . . .
29.8(28) . . .
44.0(35) . . .
36.5(31) . . .
32.2(29) . . .
34.9(33) . . .
36.4(32) . . .
42.3(34) . . .
43.0(35) . . .
37.0(32) . . .
35.9(33) . . .
39.0(33) . . .
41.7(34) . . .
34.2(31) . . .
38.2(32) . . .
45.0(35) . . .
45.1(35) . . .
39.7(33) . . .
31.4(30) . . .
34.1(31) . . .
31.7(31) . . .
31.8(29) . . .
35.7(31) . . .
30.6(31) . . .
34.0(33) . . .
33.1(32) . . .
37.6(32) . . .
39.1(33) . . .
41.2(35) . . .
33.6(31) . . .
34.5(32) . . .
32.0(29) . . .
34.1(31) . . .
33.4(31) . . .
39.8(34) . . .
39.0(33) . . .
30.1(30) . . .
38.5(33) . . .
30.1(30) . . .
32.3(32) . . .
33.7(31) . . .
37.8(33) . . .
33.4(31) . . .
38.0(34) . . .
34.3(31) . . .
36.4(34) . . .
31.7(29) . . .
32.7(29) . . .
35.6(32) . . .
34.0(32) . . .
40.5(34) . . .
35.7(31) . . .
32.8(30) . . .
32.3(32) . . .
27.3(30) . . .
29.2(29) . . .
34.7(30) . . .
33.9(33) . . .
29.2(30) . . .
32.2(32) . . .
34.0(32) . . .
37.0(32) . . .
31.4(29) . . .
39.1(35) . . .
37(4) . . .
32.6(30) . . .
38.5(33) . . .
37.1(33) . . .
32.7(31) . . .
39(4) . . .
41(4) . . .
36.7(32) . . .
35.0(31) . . .
40(4) . . .
44(4) . . .
31.2(30) . . .
35.7(31) . . .
38.6(33) . . .
48(4) . . .
44(4) . . .
34.6(31) . . .
38.9(32) . . .
42(4) . . .
34.4(32) . . .
32.7(30) . . .
27.2(27) . . .
33.7(31) . . .
30.0(31) . . .
37.3(34) . . .
37.8(34) . . .
42.2(34) . . .
30.1(29) . . .
41.7(35) . . .
41(4) . . .
28.8(30) . . .
37.0(31) . . .
33.9(30) . . .
38.9(34) . . .
40(4) . . .
41(4) . . .
42.0(34) . . .
39.9(34) . . .
29.1(29) . . .
37.0(35) . . .
34.1(32) . . .
29.1(28) . . .
35.9(31) . . .
40(4) . . .
41(4) . . .
36.4(32) . . .
40.6(33) . . .
34.2(32) . . .
31.5(29) . . .
41.0(35) . . .
42.3(34) . . .
34.2(31) . . .
27.1(27) . . .
35.9(34) . . .
37.9(33) . . .
38.2(34) . . .
43.3(35) . . .
25.0(25) . . .
33.0(31) . . .
33.0(31) . . .
35.8(32) . . .
32.8(30) . . .
35(4) . . .
35.6(34) . . .
32.9(31) . . .
37.1(33) . . .
35.3(31) . . .
34.7(32) . . .
29.3(29) . . .
32.9(31) . . .
39.6(33) . . .
30.2(30) . . .
32.1(30) . . .
33.5(33) . . .
32.6(30) . . .
35.8(32) . . .
35.1(31) . . .
37.6(33) . . .
31.7(32) . . .
33.7(32) . . .
40.9(35) . . .
35.1(31) . . .
39.6(34) . . .
39(4) . . .
38.9(35) . . .
32.7(30) . . .
37.8(32) . . .
34.2(33) . . .
28.4(29) . . .
34.7(32) . . .
37.0(32) . . .
35.3(31) . . .
37.6(33) . . .
34.9(34) . . .
36(4) . . .
35.6(31) . . .
37.3(33) . . .
32.7(30) . . .
43(4) . . .
35.4(31) . . .
30.6(29) . . .
28.3(28) . . .
37(4) . . .
32.4(32) . . .
33.5(30) . . .
39.1(33) . . .
41.6(34) . . .
38.2(34) . . .
35.3(30) . . .
29.3(28) . . .
37.2(31) . . .
30.9(30) . . .
37(4) . . .
34.1(34) . . .
33.0(30) . . .
39.9(33) . . .
44(4) . . .
40.4(34) . . .
37.0(32) . . .
32.4(29) . . .
37.4(33) . . .
31.5(29) . . .
33.9(33) . . .
31.9(31) . . .
32.2(29) . . .
37.7(33) . . .
42(4) . . .
34.2(31) . . .
34.6(31) . . .
28.5(28) . . .
31.0(29) . . .
38.7(34) . . .
31.3(32) . . .
42(4) . . .
40.0(33) . . .
40.0(33) . . .
35.9(31) . . .
40(4) . . .
27.6(28) . . .
27.4(28) . . .
33.0(31) . . .
33.1(31) . . .
35.2(32) . . .
40.1(33) . . .
34.5(31) . . .
41.2(34) . . .
39.4(34) . . .
42(4) . . .
37(4) . . .
37.6(32) . . .
31.9(29) . . .
35.0(32) . . .
30.6(29) . . .
36.3(32) . . .
37.9(32) . . .
38.3(34) . . .
32.6(32) . . .
33.7(31) . . .
28.9(28) . . .
39.0(32) . . .
41(4) . . .
33.1(30) . . .
32.1(31) . . .
37.7(32) . . .
40.0(33) . . .
38.2(33) . . .
33.3(32) . . .
43(4) . . .
31.4(29) . . .
43.2(34) . . .
34.6(31) . . .
26.3(28) . . .
31.9(30) . . .
27.9(27) . . .
40.3(35) . . .
37.4(32) . . .
36.4(33) . . .
41(4) . . .
44.4(34) . . .
30.7(29) . . .
37(4) . . .
31.5(34) . . .
37.4(34) . . .
29.3(28) . . .
28.6(29) . . .
33.3(32) . . .
31.2(32) . . .
29.4(28) . . .
30.4(29) . . .
37.8(32) . . .
32.4(31) . . .
33.2(33) . . .
32.9(35) . . .
32.2(29) . . .
37.8(33) . . .
33.5(35) . . .
31.3(31) . . .
33.4(30) . . .
35.6(31) . . .
42.0(34) . . .
42(4) . . .
34.3(32) . . .
39.1(32) . . .
35.2(31) . . .
33.4(32) . . .
32.4(30) . . .
36.0(33) . . .
37.1(32) . . .
37.7(32) . . .
40.0(33) . . .
36.7(33) . . .
39(4) . . .
36.3(32) . . .
31.6(29) . . .
34.0(31) . . .
45(4) . . .
39.3(34) . . .
35.4(31) . . .
32.8(30) . . .
34.6(31) . . .
47(4) . . .
35.4(31) . . .
36.7(32) . . .
38.7(32) . . .
38.2(33) . . .
37.1(34) . . .
35.8(33) . . .
37.9(32) . . .
26.6(27) . . .
41.3(35) . . .
38.1(34) . . .
31.1(29) . . .
41.0(33) . . .
29.9(30) . . .
35.0(33) . . .
36(4) . . .
32.4(30) . . .
39.2(32) . . .
31.3(30) . . .
34.9(32) . . .
37.5(33) . . .
37.1(32) . . .
36.2(31) . . .
35.2(31) . . .
40(4) . . .
41(4) . . .
38.5(34) . . .
37.2(32) . . .
35.1(32) . . .
47(4) . . .
31.3(29) . . .
36.6(34) . . .
38.0(32) . . .
39.5(34) . . .
38.9(34) . . .
33.4(33) . . .
37.3(32) . . .
31.0(29) . . .
40(4) . . .
39.1(34) . . .
46(4) . . .
26.9(27) . . .
33.6(30) . . .
30.8(30) . . .
37(4) . . .
35.0(31) . . .
37.2(33) . . .
36.0(31) . . .
31.8(30) . . .
33.7(31) . . .
34.5(31) . . .
28.5(28) . . .
33.7(30) . . .
37.8(32) . . .
31.8(31) . . .
27.3(28) . . .
36.8(31) . . .
29.6(29) . . .
28.8(31) . . .
37(4) . . .
36.1(33) . . .
34.0(31) . . .
32.0(30) . . .
39.4(34) . . .
35.3(33) . . .
38.0(32) . . .
38.3(32) . . .
40.1(33) . . .
37.6(33) . . .
31.2(30) . . .
30.0(30) . . .
35.9(31) . . .
45(4) . . .
40.6(34) . . .
26.8(27) . . .
38.5(35) . . .
34.8(31) . . .
39.0(33) . . .
40.4(34) . . .
35.6(31) . . .
35.2(32) . . .
39.0(33) . . .
41(4) . . .
34.8(31) . . .
38.3(35) . . .
32.5(30) . . .
33.2(31) . . .
29.4(30) . . .
38.5(34) . . .
43.2(34) . . .
45(4) . . .
35.6(31) . . .
37.0(32) . . .
34.9(32) . . .
28.0(30) . . .
34.6(31) . . .
38.6(33) . . .
35.0(32) . . .
36.0(33) . . .
34.0(31) . . .
34.6(30) . . .
28.4(28) . . .
30.1(28) . . .
44(4) . . .
40.4(32) . . .
33.4(30) . . .
37.8(32) . . .
37.5(32) . . .
38(4) . . .
29.4(28) . . .
30.6(29) . . .
35.8(32) . . .
31.9(30) . . .
39.3(35) . . .
43(4) . . .
35.2(31) . . .
34.8(31) . . .
42(4) . . .
33.0(31) . . .
33.5(31) . . .
33.3(30) . . .
39.6(32) . . .
39.4(32) . . .
38.8(34) . . .
32.0(31) . . .
28.7(27) . . .
34.7(31) . . .
29.6(29) . . .
28.1(29) . . .
41.5(35) . . .
34.4(31) . . .
29.4(28) . . .
25.1(28) . . .
38(4) . . .
34.2(32) . . .
41.1(34) . . .
33.5(31) . . .
42(4) . . .
44(4) . . .
37.3(32) . . .
26.6(27) . . .
35.5(33) . . .
36.1(31) . . .
35.3(32) . . .
33.0(30) . . .
32.8(30) . . .
36.7(32) . . .
36.3(32) . . .
23.5(26) . . .
33.1(31) . . .
29.4(28) . . .
29.2(28) . . .
34.8(33) . . .
29.4(29) . . .
28.1(29) . . .
31.8(29) . . .
32.7(33) . . .
35(4) . . .
39.2(34) . . .
38.0(32) . . .
33.3(30) . . .
31.8(30) . . .
35(4) . . .
30.5(30) . . .
36.1(31) . . .
37.5(32) . . .
32.1(30) . . .
41(4) . . .
28.0(29) . . .
37.6(33) . . .
43.9(35) . . .
32.5(30) . . .
31.4(32) . . .
26.4(28) . . .
38.8(32) . . .
35.0(31) . . .
29.3(30) . . .
32.8(32) . . .
37.0(35) . . .
40.1(32) . . .
44.0(35) . . .
39.9(35) . . .
34.4(31) . . .
37.5(35) . . .
34.4(31) . . .
34.9(31) . . .
33.1(31) . . .
34.9(32) . . .
35.3(33) . . .
34.5(31) . . .
32.6(31) . . .
36.5(33) . . .
32.8(30) . . .
41.6(34) . . .
33.1(30) . . .
35.5(34) . . .
32.5(32) . . .
26.6(28) . . .
39.6(33) . . .
36.1(31) . . .
34.2(31) . . .
35.1(35) . . .
28.8(28) . . .
34.1(30) . . .
34.5(31) . . .
39.2(34) . . .
31.3(32) . . .
37.7(34) . . .
27.3(27) . . .
36.8(32) . . .
35.3(31) . . .
33.3(31) . . .
32.5(31) . . .
35.7(31) . . .
35.3(30) . . .
31.9(30) . . .
37(4) . . .
38(4) . . .
41.2(33) . . .
34.9(31) . . .
35(4) . . .
31.6(32) . . .
34.6(32) . . .
40.2(33) . . .
36.3(33) . . .
40.9(34) . . .
37.9(32) . . .
37.2(33) . . .
34.8(31) . . .
34.8(32) . . .
37.6(33) . . .
42(4) . . .
27.5(28) . . .
38.8(32) . . .
42(4) . . .
33.3(31) . . .
38(4) . . .
34.3(30) . . .
36.3(32) . . .
40.7(34) . . .
30.2(29) . . .
31.0(31) . . .
30.6(29) . . .
37.6(32) . . .
28.7(28) . . .
35.5(34) . . .
32.0(31) . . .
36.5(33) . . .
37.2(31) . . .
43(4) . . .
32.3(29) . . .
37(4) . . .
34.3(31) . . .
39.9(32) . . .
41.2(35) . . .
29.8(31) . . .
29.1(28) . . .
31.4(29) . . .
30.8(29) . . .
35.8(32) . . .
37.2(35) . . .
33.3(31) . . .
32.1(31) . . .
39.6(33) . . .
37.9(33) . . .
32.8(32) . . .
33.6(32) . . .
30.8(29) . . .
35.8(32) . . .
28.0(27) . . .
35.1(34) . . .
30.5(29) . . .
40.1(33) . . .
35.3(32) . . .
38.3(33) . . .
33.4(32) . . .
34.1(31) . . .
36.4(31) . . .
28.6(28) . . .
33.2(31) . . .
42(4) . . .
35.9(32) . . .
37.7(32) . . .
31.0(32) . . .
35.7(33) . . .
28.9(28) . . .
37.2(32) . . .
35.7(31) . . .
35.8(34) . . .
32.6(31) . . .
39.7(35) . . .
35.6(31) . . .
35.2(32) . . .
34.0(32) . . .
34.0(31) . . .
34.6(31) . . .
40.9(34) . . .
32.4(30) . . .
34.4(33) . . .
28.2(30) . . .
29.8(29) . . .
39.5(32) . . .
38.8(32) . . .
30.3(29) . . .
38(4) . . .
36.2(31) . . .
39.5(33) . . .
35.8(32) . . .
36.0(33) . . .
34.5(33) . . .
35.1(30) . . .
33.7(30) . . .
37.3(33) . . .
39.7(33) . . .
32.0(31) . . .
33.1(32) . . .
32.0(31) . . .
36.9(32) . . .
31.8(28) . . .
34.4(32) . . .
42(4) . . .
36.1(32) . . .
25.7(27) . . .
33.5(31) . . .
27.9(29) . . .
38.5(34) . . .
39.4(32) . . .
32.2(30) . . .
32.2(30) . . .
35.8(32) . . .
30.1(29) . . .
32.4(30) . . .
28.7(30) . . .
25.4(27) . . .
30.9(32) . . .
36.2(32) . . .
38.2(33) . . .
35.6(33) . . .
38.6(34) . . .
41.8(35) . . .
38.2(33) . . .
45(4) . . .
38.5(32) . . .
38.3(33) . . .
34.6(33) . . .
31.0(29) . . .
33.1(30) . . .
38.9(33) . . .
41(4) . . .
36.2(34) . . .
35.5(31) . . .
37.3(32) . . .
37.3(33) . . .
38.3(34) . . .
34.7(31) . . .
39.4(32) . . .
36.3(31) . . .
41.5(35) . . .
41(4) . . .
34.1(31) . . .
35.7(31) . . .
31.9(30) . . .
36.3(34) . . .
43(4) . . .
37.3(33) . . .
33.8(30) . . .
35.1(31) . . .
30.0(29) . . .
35.8(33) . . .
37.2(34) . . .
43.0(35) . . .
37.8(32) . . .
40.1(33) . . .
30.7(30) . . .
29.2(29) . . .
36.4(32) . . .
33.2(30) . . .
29.5(28) . . .
37.4(33) . . .
35.8(31) . . .
34.1(30) . . .
36.3(31) . . .
43(4) . . .
33.3(30) . . .
43.1(35) . . .
32.0(30) . . .
27.5(28) . . .
40.6(34) . . .
38.1(33) . . .
34.9(31) . . .
33.2(30) . . .
40(4) . . .
35.1(31) . . .
31.5(29) . . .
35.5(32) . . .
32.2(29) . . .
42.0(34) . . .
41(4) . . .
28.8(27) . . .
42.4(34) . . .
34.5(31) . . .
27.9(28) . . .
27.2(28) . . .
29.6(28) . . .
34.6(31) . . .
29.3(28) . . .
34.0(31) . . .
39(4) . . .
32.1(30) . . .
36.4(32) . . .
35.6(32) . . .
35.7(32) . . .
36.8(34) . . .
32.1(31) . . .
26.9(27) . . .
30.8(30) . . .
31.2(29) . . .
23.3(26) . . .
32.2(31) . . .
43.5(34) . . .
33.7(30) . . .
34.6(31) . . .
30.0(29) . . .
35.6(31) . . .
39.8(33) . . .
35.0(32) . . .
33.9(32) . . .
33.7(35) . . .
35.5(35) . . .
38.9(32) . . .
36.2(31) . . .
33.9(32) . . .
30.9(30) . . .
37.2(33) . . .
30.3(29) . . .
40(4) . . .
32.4(31) . . .
38.0(33) . . .
32.6(31) . . .
33.5(31) . . .
37.4(32) . . .
43(4) . . .
36.3(31) . . .
35.9(31) . . .
36.5(32) . . .
24.6(26) . . .
29.3(29) . . .
28.0(28) . . .
34.5(31) . . .
40.4(33) . . .
39.2(33) . . .
37.2(34) . . .
31.4(31) . . .
33.4(30) . . .
41.8(34) . . .
36.6(34) . . .
35.4(34) . . .
40.8(34) . . .
40.8(34) . . .
35.5(31) . . .
36.7(31) . . .
32.6(29) . . .
39.6(33) . . .
45(4) . . .
35.8(31) . . .
32.2(29) . . .
38(4) . . .
33.4(34) . . .
39.0(33) . . .
35.5(31) . . .
41.5(33) . . .
35.3(32) . . .
42(4) . . .
34.8(32) . . .
32.7(30) . . .
34.0(32) . . .
28.3(29) . . .
41.6(35) . . .
37.0(32) . . .
38.4(33) . . .
34.0(31) . . .
34.6(31) . . .
35.0(31) . . .
33.8(31) . . .
43.2(34) . . .
37.9(33) . . .
38.5(34) . . .
35.7(31) . . .
28.2(28) . . .
39.5(33) . . .
35.9(32) . . .
32.8(31) . . .
38.1(32) . . .
35.1(31) . . .
29.1(29) . . .
28.1(29) . . .
41(4) . . .
31.8(31) . . .
26.8(27) . . .
32.5(31) . . .
31.0(31) . . .
40(4) . . .
35.7(31) . . .
32.3(29) . . .
38.0(33) . . .
34.1(32) . . .
40(4) . . .
31.8(29) . . .
35.7(31) . . .
38.9(34) . . .
26.8(29) . . .
30.2(31) . . .
34.4(30) . . .
21.3(25) . . .
35.6(34) . . .
40(4) . . .
34.1(31) . . .
32.8(30) . . .
32.4(30) . . .
40.1(34) . . .
35.7(33) . . .
35.5(33) . . .
38.8(32) . . .
31.1(29) . . .
32.4(29) . . .
39.1(34) . . .
33.5(31) . . .
32.5(30) . . .
29.3(29) . . .
32.0(30) . . .
37.5(35) . . .
44(4) . . .
35.5(31) . . .
33.9(31) . . .
40(4) . . .
35.5(31) . . .
33.0(30) . . .
33.5(30) . . .
36.3(33) . . .
33.9(30) . . .
28.6(29) . . .
28.1(29) . . .
27.4(27) . . .
37.6(33) . . .
34.6(30) . . .
35.3(31) . . .
31.2(29) . . .
34.6(30) . . .
39.9(35) . . .
37.8(33) . . .
24.9(27) . . .
35.7(33) . . .
38.2(32) . . .
34.2(31) . . .
37(4) . . .
49(4) . . .
41.6(34) . . .
46(4) . . .
41.2(34) . . .
32.4(31) . . .
36.0(32) . . .
35.7(31) . . .
34.3(30) . . .
33.9(32) . . .
46(4) . . .
40.4(35) . . .
43.3(34) . . .
37.7(32) . . .
35.2(33) . . .
26.3(28) . . .
32.0(30) . . .
28.9(29) . . .
29.6(29) . . .
36.2(34) . . .
42(4) . . .
26.3(27) . . .
27.8(27) . . .
32.1(31) . . .
38.1(34) . . .
32.0(30) . . .
38.2(33) . . .
39.3(33) . . .
34.5(31) . . .
35.1(32) . . .
34.2(33) . . .
31.0(30) . . .
28.1(28) . . .
37.7(34) . . .
31.8(30) . . .
30.5(30) . . .
33.9(31) . . .
33.5(30) . . .
35.0(33) . . .
42(4) . . .
31.3(30) . . .
28.6(28) . . .
38.8(33) . . .
37.3(33) . . .
33.4(33) . . .
30.4(30) . . .
32.2(30) . . .
35.2(31) . . .
45(4) . . .
42(4) . . .
32.7(30) . . .
31.0(28) . . .
34.3(31) . . .
34.7(31) . . .
28.0(30) . . .
27.0(29) . . .
41.5(33) . . .
41.5(33) . . .
35.7(32) . . .
38.2(33) . . .
36.8(33) . . .
35.4(32) . . .
34.2(30) . . .
34.2(32) . . .
32.9(32) . . .
38.9(33) . . .
33.3(30) . . .
35.3(32) . . .
28.7(29) . . .
29.8(31) . . .
34.1(32) . . .
38.8(33) . . .
33.9(31) . . .
35.8(32) . . .
33.8(33) . . .
30.3(29) . . .
45(4) . . .
36.3(31) . . .
34.5(32) . . .
38.2(33) . . .
38.8(32) . . .
41.2(34) . . .
31.7(29) . . .
38.0(34) . . .
31.9(31) . . .
33.7(30) . . .
36.3(32) . . .
29.0(28) . . .
40(4) . . .
35.8(34) . . .
37.6(35) . . .
36.1(32) . . .
31.7(30) . . .
34.5(31) . . .
39.1(34) . . .
36.1(33) . . .
32.6(29) . . .
40.1(34) . . .
32.7(30) . . .
40.2(34) . . .
32.8(30) . . .
35.5(31) . . .
41.6(34) . . .
46(4) . . .
34.9(31) . . .
36.8(31) . . .
29.9(28) . . .
30.7(29) . . .
30.4(30) . . .
35.0(33) . . .
42.7(34) . . .
39.0(34) . . .
38.6(32) . . .
30.2(30) . . .
33.8(34) . . .
33.7(32) . . .
36.8(31) . . .
37.4(32) . . .
25.9(27) . . .
32.7(32) . . .
31.1(29) . . .
35.1(32) . . .
42(4) . . .
31.4(30) . . .
47(4) . . .
34.6(31) . . .
36.8(33) . . .
36.1(32) . . .
34.2(30) . . .
38.0(34) . . .
40.0(32) . . .
31.6(29) . . .
36.7(34) . . .
38.7(34) . . .
45(4) . . .
30.3(29) . . .
33.7(31) . . .
30.5(28) . . .
37.1(32) . . .
37.2(32) . . .
40.0(33) . . .
36.2(32) . . .
38.8(35) . . .
29.9(29) . . .
34.3(32) . . .
33.7(30) . . .
30.4(30) . . .
29.8(30) . . .
34.3(32) . . .
40.0(32) . . .
30.8(29) . . .
36.4(33) . . .
34.3(31) . . .
33.2(29) . . .
30.8(29) . . .
30.7(29) . . .
42(4) . . .
32.4(32) . . .
25.8(27) . . .
35.0(32) . . .
39.6(32) . . .
41(4) . . .
28.4(29) . . .
36.9(33) . . .
40.1(33) . . .
35.1(31) . . .
44(4) . . .
40(4) . . .
38(4) . . .
33.4(30) . . .
28.0(28) . . .
42(4) . . .
32.9(30) . . .
30.8(29) . . .
30.5(29) . . .
33.3(30) . . .
39.6(34) . . .
35.6(33) . . .
38.8(35) . . .
42.8(35) . . .
31.6(29) . . .
29.8(30) . . .
34.8(33) . . .
40.5(34) . . .
30.1(29) . . .
35.0(31) . . .
29.1(28) . . .
35.8(33) . . .
27.3(27) . . .
36.9(32) . . .
25.0(26) . . .
48(4) . . .
30.8(29) . . .
32.3(29) . . .
36.2(32) . . .
34.2(31) . . .
28.4(30) . . .
24.6(27) . . .
43.1(35) . . .
37.0(32) . . .
26.5(27) . . .
33.1(32) . . .
36.5(34) . . .
36.6(32) . . .
50(4) . . .
39.8(32) . . .
39.3(34) . . .
41(4) . . .
32.3(30) . . .
31.8(29) . . .
31.9(30) . . .
34.8(32) . . .
32.0(32) . . .
39.0(32) . . .
33.9(31) . . .
37.0(32) . . .
29.6(29) . . .
34.1(31) . . .
31.8(29) . . .
46(4) . . .
39(4) . . .
27.8(29) . . .
32.3(31) . . .
40.3(34) . . .
29.0(29) . . .
39.2(35) . . .
40.5(34) . . .
43(4) . . .
43.8(34) . . .
31.7(29) . . .
35.8(33) . . .
30.7(29) . . .
39.2(34) . . .
32.7(30) . . .
36(4) . . .
35.6(33) . . .
34.2(29) . . .
33.4(30) . . .
34.0(30) . . .
38.3(35) . . .
32.5(30) . . .
29.0(28) . . .
34.3(30) . . .
35.5(31) . . .
34.1(32) . . .
41.6(35) . . .
36.5(32) . . .
32.3(29) . . .
30.6(30) . . .
39(4) . . .
32.5(31) . . .
30.6(29) . . .
29.1(28) . . .
37.3(32) . . .
46(4) . . .
41(4) . . .
39.9(33) . . .
44.4(34) . . .
39.6(34) . . .
25.0(26) . . .
30.7(30) . . .
35.1(33) . . .
31.5(30) . . .
38.8(33) . . .
33.3(30) . . .
28.7(29) . . .
31.1(30) . . .
32.8(30) . . .
29.6(29) . . .
36.9(33) . . .
33.8(33) . . .
33(4) . . .
40.9(34) . . .
31.7(29) . . .
28.9(30) . . .
31.6(31) . . .
30.3(33) . . .
34.2(30) . . .
30.5(29) . . .
36.1(34) . . .
33.0(34) . . .
34.6(32) . . .
32.6(30) . . .
36.3(32) . . .
38.6(34) . . .
35.3(32) . . .
39.0(33) . . .
35.2(31) . . .
36.8(32) . . .
33.4(32) . . .
32.7(33) . . .
31.9(31) . . .
34.0(30) . . .
32.5(33) . . .
30.9(30) . . .
40.4(33) . . .
39.8(34) . . .
31.7(30) . . .
25.7(28) . . .
39(4) . . .
40.7(34) . . .
38.2(32) . . .
35.5(31) . . .
40.6(34) . . .
33.2(33) . . .
31.0(30) . . .
29.2(29) . . .
33.0(30) . . .
31.3(29) . . .
42(4) . . .
37.9(32) . . .
42.5(34) . . .
24.8(26) . . .
31.7(30) . . .
33.0(32) . . .
29.9(30) . . .
33.3(30) . . .
37.8(32) . . .
35.3(32) . . .
35.4(32) . . .
28.7(29) . . .
39.1(32) . . .
35.2(33) . . .
31.4(29) . . .
30.0(31) . . .
34.2(34) . . .
31.1(30) . . .
34.0(31) . . .
32.7(31) . . .
32.8(32) . . .
35.5(35) . . .
32.0(30) . . .
41.3(34) . . .
33.2(32) . . .
26.0(27) . . .
39.4(34) . . .
37.5(32) . . .
33.3(31) . . .
36.7(32) . . .
35.4(31) . . .
27.2(28) . . .
38.7(33) . . .
36.8(33) . . .
37.9(34) . . .
41(4) . . .
28.6(28) . . .
36.7(32) . . .
36.6(33) . . .
34.2(34) . . .
31.3(30) . . .
31.8(29) . . .
35.9(32) . . .
31.4(30) . . .
34.3(32) . . .
38(4) . . .
40.8(34) . . .
32.8(31) . . .
40(4) . . .
34.7(32) . . .
34.2(31) . . .
30.8(30) . . .
38.7(32) . . .
29.8(29) . . .
32.1(31) . . .
28.7(28) . . .
40.4(33) . . .
35.2(31) . . .
34.2(32) . . .
36(4) . . .
32.7(31) . . .
27.5(28) . . .
35.7(31) . . .
29.7(29) . . .
35.0(32) . . .
35.8(33) . . .
33.3(30) . . .
34.5(31) . . .
35.4(33) . . .
35.4(32) . . .
38.2(33) . . .
36.2(32) . . .
31.5(29) . . .
36.1(33) . . .
36.2(34) . . .
34.0(31) . . .
29.0(28) . . .
32.1(32) . . .
31.8(30) . . .
33.4(33) . . .
33.0(30) . . .
37.5(32) . . .
38.8(33) . . .
27.7(28) . . .
35.6(32) . . .
42.6(34) . . .
25.1(26) . . .
29.4(29) . . .
33.3(33) . . .
25.0(26) . . .
38.5(32) . . .
33.8(31) . . .
35.8(33) . . .
41(4) . . .
38(4) . . .
34.7(31) . . .
29.7(28) . . .
34.2(31) . . .
28.3(29) . . .
33.5(32) . . .
40.4(34) . . .
31.6(29) . . .
31.0(29) . . .
39(4) . . .
31.6(29) . . .
35.2(31) . . .
31.3(29) . . .
36.4(32) . . .
42(4) . . .
36.5(34) . . .
26.9(27) . . .
35.1(32) . . .
44(4) . . .
32.3(31) . . .
37.0(33) . . .
37.1(32) . . .
33.8(31) . . .
31.4(30) . . .
39(4) . . .
36.8(34) . . .
33.3(30) . . .
32.9(31) . . .
35.9(32) . . .
36.8(33) . . .
36.7(34) . . .
29.7(28) . . .
28.4(28) . . .
38(4) . . .
34.5(32) . . .
32.7(30) . . .
39.4(33) . . .
37.0(34) . . .
34.3(33) . . .
37.8(33) . . .
32.9(30) . . .
41.5(34) . . .
40.2(34) . . .
35.8(35) . . .
35.4(33) . . .
29.4(28) . . .
33.0(30) . . .
34.7(32) . . .
35.0(34) . . .
37.8(34) . . .
37.3(31) . . .
42.0(33) . . .
35.5(31) . . .
35.0(33) . . .
46(4) . . .
35.7(31) . . .
36.5(32) . . .
36.6(33) . . .
41(4) . . .
36.7(33) . . .
36.4(31) . . .
37.4(32) . . .
35.4(33) . . .
31.7(31) . . .
36.6(32) . . .
38.0(32) . . .
32.7(30) . . .
32.6(30) . . .
29.7(31) . . .
34.0(32) . . .
33.3(30) . . .
40.2(34) . . .
32.7(31) . . .
27.0(27) . . .
34.3(31) . . .
37.7(32) . . .
40.0(33) . . .
41.3(33) . . .
34.0(30) . . .
38.7(33) . . .
43.8(35) . . .
36.8(32) . . .
36.9(33) . . .
31.6(30) . . .
39(4) . . .
34.4(30) . . .
33.9(32) . . .
29.8(30) . . .
34.5(33) . . .
29.6(28) . . .
40.2(33) . . .
39(4) . . .
36.3(33) . . .
31.2(30) . . .
34.6(31) . . .
26.2(27) . . .
38.0(33) . . .
31.9(31) . . .
31.7(31) . . .
32.6(30) . . .
35.2(31) . . .
33.8(32) . . .
47(4) . . .
44(4) . . .
33.0(30) . . .
28.6(28) . . .
38.3(35) . . .
34.3(32) . . .
38.5(34) . . .
34.9(31) . . .
34.8(31) . . .
31.8(30) . . .
40(4) . . .
34.5(30) . . .
39.4(33) . . .
31.6(30) . . .
28.6(29) . . .
36.2(34) . . .
31.5(31) . . .
28.4(28) . . .
33.2(30) . . .
38.7(34) . . .
31.1(31) . . .
37.6(33) . . .
28.3(28) . . .
34.6(31) . . .
39(4) . . .
35.9(32) . . .
35.9(32) . . .
28.1(28) . . .
37.6(34) . . .
29.0(30) . . .
29.5(29) . . .
29.2(28) . . .
33.5(32) . . .
36.6(32) . . .
31.0(32) . . .
27.6(27) . . .
36.0(32) . . .
43.7(34) . . .
32.4(31) . . .
34.5(33) . . .
30.8(30) . . .
32.4(30) . . .
30.1(29) . . .
39.4(34) . . .
34.4(34) . . .
34.8(32) . . .
36.0(32) . . .
36.9(31) . . .
33.9(32) . . .
30.1(31) . . .
35.6(33) . . .
42.9(34) . . .
32.5(29) . . .
33.0(29) . . .
36.3(35) . . .
32.1(31) . . .
32.7(30) . . .
35.3(31) . . .
34.5(32) . . .
31.8(33) . . .
33.3(30) . . .
43.2(34) . . .
31.7(30) . . .
38.0(33) . . .
38.5(34) . . .
45(4) . . .
42.3(34) . . .
39.1(33) . . .
31.3(30) . . .
34.2(33) . . .
38.5(34) . . .
41.5(33) . . .
35.5(31) . . .
31.6(30) . . .
35.6(33) . . .
25.4(26) . . .
36.2(31) . . .
29.8(30) . . .
32.5(30) . . .
34.0(31) . . .
31.6(30) . . .
31.6(29) . . .
35.1(32) . . .
28.7(28) . . .
37.0(33) . . .
32.6(30) . . .
34.9(31) . . .
32.8(30) . . .
33.2(32) . . .
28.0(28) . . .
30.2(29) . . .
36.6(31) . . .
34.3(32) . . .
31.8(30) . . .
34.4(30) . . .
37.8(32) . . .
35.4(31) . . .
43(4) . . .
32.4(33) . . .
34.9(33) . . .
40.0(33) . . .
45.6(34) . . .
27.7(27) . . .
36.3(34) . . .
32.0(31) . . .
31.7(29) . . .
36.1(31) . . .
33.3(31) . . .
40(4) . . .
33.2(32) . . .
33.2(30) . . .
39.2(33) . . .
33.4(30) . . .
29.5(30) . . .
31.5(30) . . .
37.2(32) . . .
35.4(33) . . .
25.5(26) . . .
31.9(31) . . .
44(4) . . .
35.3(32) . . .
33.1(30) . . .
39(4) . . .
26.1(26) . . .
38.7(35) . . .
27.0(28) . . .
36.8(31) . . .
45(4) . . .
39.2(34) . . .
30.9(29) . . .
36.7(32) . . .
38.0(33) . . .
28.3(29) . . .
29.0(29) . . .
31.6(30) . . .
29.4(28) . . .
30.5(30) . . .
32.0(31) . . .
34.5(31) . . .
43.1(35) . . .
32.9(30) . . .
39.8(34) . . .
39.4(35) . . .
34.5(31) . . .
24.6(26) . . .
41.6(34) . . .
37.4(32) . . .
30.4(29) . . .
37.1(33) . . .
32.7(31) . . .
33.9(30) . . .
30.3(29) . . .
39.1(35) . . .
28.7(27) . . .
30.7(29) . . .
31.9(29) . . .
39.2(34) . . .
30.1(30) . . .
35.2(34) . . .
28.5(29) . . .
33.5(30) . . .
35.2(31) . . .
32.7(31) . . .
29.1(28) . . .
36.6(32) . . .
30.6(29) . . .
32.5(31) . . .
40.0(35) . . .
29.5(28) . . .
35.4(31) . . .
30.0(29) . . .
40.0(33) . . .
37.8(34) . . .
32.9(31) . . .
24.7(26) . . .
32.4(30) . . .
29.8(30) . . .
34.3(33) . . .
35.1(32) . . .
44.2(35) . . .
40.1(34) . . .
32.0(31) . . .
32.8(31) . . .
35.2(31) . . .
31.9(29) . . .
33.8(31) . . .
38.3(35) . . .
35.8(33) . . .
33.4(31) . . .
33.7(30) . . .
37.0(34) . . .
37.5(34) . . .
31.8(31) . . .
36.7(33) . . .
32.2(29) . . .
31.9(32) . . .
34.5(34) . . .
30.4(30) . . .
31.1(29) . . .
32.6(30) . . .
36.8(32) . . .
31.1(32) . . .
26.7(28) . . .
37.0(31) . . .
48(4) . . .
36.7(32) . . .
32.2(30) . . .
36.8(34) . . .
36.1(32) . . .
36.7(32) . . .
39.5(33) . . .
35.4(34) . . .
41(4) . . .
33.4(30) . . .
26.2(27) . . .
35.7(33) . . .
34.8(33) . . .
34.0(32) . . .
40.1(34) . . .
37.9(32) . . .
30.7(30) . . .
40(4) . . .
33.6(32) . . .
28.5(29) . . .
28.5(28) . . .
32.0(31) . . .
30.2(31) . . .
27.7(28) . . .
35.8(31) . . .
34.0(30) . . .
33.2(31) . . .
29.9(27) . . .
32.8(30) . . .
41.4(33) . . .
35.9(33) . . .
32.7(30) . . .
35.1(32) . . .
35.7(32) . . .
31.8(30) . . .
34.1(34) . . .
38.8(34) . . .
27.6(28) . . .
34.8(32) . . .
38.3(33) . . .
39.3(33) . . .
45(4) . . .
38.4(33) . . .
36.8(31) . . .
33.2(30) . . .
23.5(25) . . .
40(4) . . .
29.8(30) . . .
33.9(30) . . .
32.6(29) . . .
40(4) . . .
32.3(32) . . .
27.0(27) . . .
32.8(29) . . .
31.6(29) . . .
36.2(34) . . .
30.4(31) . . .
27.8(29) . . .
30.9(30) . . .
35.2(31) . . .
29.3(28) . . .
36.6(35) . . .
38.1(34) . . .
41.9(33) . . .
30.7(29) . . .
44(4) . . .
39.1(34) . . .
32.3(30) . . .
35.4(31) . . .
33.8(31) . . .
41(4) . . .
40(4) . . .
34.1(31) . . .
37.7(32) . . .
32.7(31) . . .
33.1(31) . . .
32.2(31) . . .
32.3(30) . . .
34.3(31) . . .
41.9(34) . . .
29.7(29) . . .
29.6(29) . . .
26.8(27) . . .
34.2(31) . . .
30.3(28) . . .
39.1(35) . . .
24.3(25) . . .
27.5(28) . . .
42.8(34) . . .
36.3(33) . . .
29.3(31) . . .
31.4(31) . . .
35.4(31) . . .
35.4(31) . . .
34.0(31) . . .
36.9(33) . . .
38.4(34) . . .
34.4(31) . . .
29.2(30) . . .
33.7(32) . . .
37.6(35) . . .
35.8(32) . . .
37.8(33) . . .
37.0(32) . . .
31.8(29) . . .
31.9(32) . . .
35.1(32) . . .
35.3(31) . . .
31.9(30) . . .
37.9(34) . . .
37.5(32) . . .
33.8(31) . . .
37.9(31) . . .
39.4(34) . . .
33.0(29) . . .
28.8(29) . . .
32.5(31) . . .
32.9(31) . . .
34.0(30) . . .
31.3(32) . . .
27.9(30) . . .
23.8(26) . . .
36.5(31) . . .
45(4) . . .
33.4(31) . . .
36.5(35) . . .
35.0(33) . . .
32.0(30) . . .
38.7(34) . . .
33.5(31) . . .
31.8(30) . . .
36.0(32) . . .
34.9(31) . . .
37.2(33) . . .
34.3(33) . . .
39.7(35) . . .
36.5(32) . . .
42.1(33) . . .
32.5(31) . . .
30.2(31) . . .
36.7(33) . . .
31.6(29) . . .
33.8(31) . . .
37.8(33) . . .
31.5(29) . . .
34.1(31) . . .
37.4(32) . . .
37.2(32) . . .
32.5(30) . . .
36.7(35) . . .
24.2(29) . . .
33.8(32) . . .
36.0(32) . . .
29.2(28) . . .
36(4) . . .
40.8(35) . . .
38.2(32) . . .
30.2(29) . . .
32.1(30) . . .
39.1(34) . . .
38(4) . . .
35.6(31) . . .
31.2(30) . . .
35.8(32) . . .
28.6(30) . . .
26.4(30) . . .
35.9(32) . . .
23.9(26) . . .
39(4) . . .
37.1(32) . . .
31.6(30) . . .
32.8(29) . . .
37.7(33) . . .
34.7(31) . . .
33.0(30) . . .
31.8(29) . . .
38.2(32) . . .
35.9(32) . . .
36.1(34) . . .
29.3(29) . . .
28.6(28) . . .
36.7(32) . . .
33.8(30) . . .
33.5(31) . . .
28.6(30) . . .
31.3(30) . . .
34.8(31) . . .
34.5(32) . . .
37.0(35) . . .
39.1(34) . . .
36.7(32) . . .
37.4(32) . . .
34.6(32) . . .
32.8(30) . . .
39.4(33) . . .
32.4(30) . . .
35.3(31) . . .
37(4) . . .
30.3(30) . . .
29.5(30) . . .
30.6(29) . . .
41.4(34) . . .
37.1(34) . . .
36.2(34) . . .
37.2(33) . . .
24.2(26) . . .
34.8(31) . . .
35.2(32) . . .
36.3(34) . . .
41(4) . . .
37.4(32) . . .
28.5(28) . . .
39.4(33) . . .
38.7(35) . . .
32.0(31) . . .
21.4(24) . . .
32.9(30) . . .
38.6(33) . . .
37.6(35) . . .
37(4) . . .
36.6(31) . . .
37.8(32) . . .
36.4(32) . . .
28.8(29) . . .
32.8(32) . . .
35.3(32) . . .
40.1(34) . . .
30.3(29) . . .
38.2(33) . . .
37.3(32) . . .
39.2(33) . . .
35.4(31) . . .
28.8(30) . . .
34.0(33) . . .
35.1(32) . . .
36.6(31) . . .
34.7(31) . . .
36.0(33) . . .
30.6(30) . . .
29.9(28) . . .
31.8(30) . . .
39.8(33) . . .
39.1(34) . . .
37.3(33) . . .
35.8(33) . . .
29.9(29) . . .
28.2(27) . . .
42(4) . . .
28.5(28) . . .
32.0(29) . . .
29.2(29) . . .
30.9(30) . . .
35.7(32) . . .
32.7(29) . . .
40.5(33) . . .
35.9(31) . . .
31.6(31) . . .
38(4) . . .
30.0(29) . . .
37.9(32) . . .
30.3(28) . . .
29.5(29) . . .
33.3(32) . . .
32.8(31) . . .
43.6(34) . . .
33.6(30) . . .
27.8(28) . . .
34.2(33) . . .
36.8(32) . . .
39.8(33) . . .
26.5(27) . . .
28.7(30) . . .
37.1(32) . . .
40.5(35) . . .
32.5(29) . . .
34.5(31) . . .
34.0(32) . . .
27.9(28) . . .
43.4(35) . . .
40.1(33) . . .
32.3(30) . . .
33.9(32) . . .
36.9(33) . . .
31.1(30) . . .
34.0(31) . . .
34.1(33) . . .
33.6(32) . . .
45(4) . . .
39.3(33) . . .
28.2(28) . . .
38.3(33) . . .
42(4) . . .
41(4) . . .
37.3(33) . . .
35.7(31) . . .
40.3(34) . . .
26.2(26) . . .
40(4) . . .
33.1(30) . . .
39.7(34) . . .
28.3(29) . . .
34.1(33) . . .
39(4) . . .
25.8(26) . . .
37.3(32) . . .
36.8(31) . . .
43(4) . . .
38.0(33) . . .
35.1(31) . . .
31.8(30) . . .
35.1(31) . . .
32.1(30) . . .
29.1(28) . . .
34.7(31) . . .
32.4(30) . . .
31.3(30) . . .
36.9(34) . . .
35.5(32) . . .
32.8(30) . . .
38.8(33) . . .
30.6(29) . . .
36.7(35) . . .
31.0(30) . . .
33.2(30) . . .
31.7(29) . . .
31.0(31) . . .
32.4(31) . . .
31.0(29) . . .
29.0(28) . . .
30.3(29) . . .
31.5(31) . . .
32.7(31) . . .
32.6(31) . . .
37.9(33) . . .
31.8(31) . . .
34.0(33) . . .
34.9(32) . . .
28.8(30) . . .
30.3(29) . . .
29.6(30) . . .
28.9(29) . . .
36.7(33) . . .
37.3(32) . . .
40.3(33) . . .
39.4(34) . . .
39.6(35) . . .
39.6(34) . . .
32.3(29) . . .
35.0(31) . . .
35.4(32) . . .
35.2(33) . . .
31.6(32) . . .
38.7(33) . . .
28.8(28) . . .
31.9(31) . . .
32.4(32) . . .
27.2(29) . . .
33.9(30) . . .
37.3(32) . . .
33.2(31) . . .
30.9(31) . . .
34.3(33) . . .
30.5(29) . . .
36.2(32) . . .
36.9(34) . . .
31.8(32) . . .
31.3(30) . . .
33.9(31) . . .
37.4(31) . . .
37.1(33) . . .
31.9(32) . . .
28.6(29) . . .
30.9(29) . . .
33.9(32) . . .
35.0(34) . . .
37.7(33) . . .
38.0(34) . . .
41.0(33) . . .
25.2(26) . . .
36.7(33) . . .
32.7(31) . . .
35.4(31) . . .
38.2(33) . . .
31.3(30) . . .
37.5(35) . . .
33.2(31) . . .
28.7(27) . . .
27.0(27) . . .
36.9(34) . . .
28.0(28) . . .
37.1(34) . . .
34.5(32) . . .
33.5(30) . . .
33.1(29) . . .
30.2(29) . . .
32.8(32) . . .
33.7(30) . . .
38.5(32) . . .
33.6(33) . . .
30.4(30) . . .
37.6(34) . . .
45(4) . . .
21.0(25) . . .
29.8(28) . . .
38.4(33) . . .
46(4) . . .
38.7(32) . . .
42.2(34) . . .
40.6(33) . . .
39.1(34) . . .
37.8(34) . . .
37.4(33) . . .
36.0(31) . . .
32.5(30) . . .
40(4) . . .
38.2(33) . . .
32.9(30) . . .
36.4(33) . . .
33.9(30) . . .
32.0(29) . . .
35.2(32) . . .
28.7(28) . . .
32.6(30) . . .
28.0(27) . . .
34.8(33) . . .
37.0(34) . . .
35.8(32) . . .
34.8(31) . . .
29.2(29) . . .
26.0(28) . . .
27.2(28) . . .
31.5(29) . . .
37.6(32) . . .
40(4) . . .
32.4(34) . . .
24.9(27) . . .
32.3(29) . . .
29.2(28) . . .
28.9(29) . . .
36.1(32) . . .
37.0(32) . . .
39.3(34) . . .
44(4) . . .
39(4) . . .
34.9(31) . . .
28.2(27) . . .
35.5(32) . . .
34.8(32) . . .
31.0(30) . . .
33.4(31) . . .
29.8(28) . . .
31.4(30) . . .
34.2(31) . . .
30.0(28) . . .
35.5(35) . . .
28.8(28) . . .
33.7(30) . . .
30.6(28) . . .
31.7(31) . . .
40.6(34) . . .
34.7(31) . . .
47(4) . . .
38.3(32) . . .
36.4(34) . . .
32.7(31) . . .
36.9(32) . . .
32.8(30) . . .
34.5(32) . . .
34.3(33) . . .
37.4(32) . . .
36.6(31) . . .
26.3(27) . . .
36.0(34) . . .
30.8(30) . . .
32.0(32) . . .
32.4(30) . . .
41.7(35) . . .
39.0(33) . . .
41.4(34) . . .
38.6(33) . . .
33.0(30) . . .
32.8(31) . . .
30.1(31) . . .
31.7(31) . . .
31.5(30) . . .
29.9(28) . . .
29.8(30) . . .
29.6(30) . . .
32.4(32) . . .
32.7(33) . . .
33.7(30) . . .
41.8(35) . . .
46(4) . . .
34.8(32) . . .
30.9(29) . . .
32.2(29) . . .
27.8(28) . . .
28.9(30) . . .
33.4(31) . . .
31.2(29) . . .
33.5(30) . . .
42(4) . . .
43(4) . . .
34.4(31) . . .
33.9(30) . . .
37.5(33) . . .
29.8(30) . . .
32.5(33) . . .
29.4(30) . . .
25.0(27) . . .
34.8(30) . . .
39.4(33) . . .
43(4) . . .
39.4(33) . . .
40.5(33) . . .
40.5(34) . . .
33.8(30) . . .
37.4(33) . . .
40.0(33) . . .
32.6(29) . . .
30.7(29) . . .
30.6(28) . . .
29.0(30) . . .
34.3(32) . . .
30.8(29) . . .
32.0(30) . . .
33.8(31) . . .
25.5(26) . . .
42(4) . . .
41.2(34) . . .
36.1(32) . . .
36.3(33) . . .
40(4) . . .
30.4(28) . . .
37.1(32) . . .
30.8(29) . . .
40.5(34) . . .
45(4) . . .
32.9(29) . . .
40.0(33) . . .
33.0(30) . . .
43(4) . . .
28.5(29) . . .
29.6(28) . . .
31.6(29) . . .
35.2(32) . . .
34.1(33) . . .
32.1(30) . . .
31.7(29) . . .
28.2(28) . . .
29.9(30) . . .
30.6(31) . . .
44(4) . . .
36.6(31) . . .
40.5(34) . . .
34.5(31) . . .
38(4) . . .
36.2(33) . . .
34.0(31) . . .
42.8(35) . . .
39.9(34) . . .
36.3(34) . . .
30.0(29) . . .
36.8(32) . . .
39.3(32) . . .
36.8(33) . . .
35.7(34) . . .
30.6(29) . . .
35.6(31) . . .
43.6(34) . . .
31.4(29) . . .
40(4) . . .
37.2(33) . . .
25.6(27) . . .
31.8(29) . . .
36.1(33) . . .
30.8(29) . . .
36.0(34) . . .
34.2(31) . . .
40(4) . . .
37.5(34) . . .
36.7(33) . . .
28.5(29) . . .
34.8(31) . . .
34.6(33) . . .
38.1(35) . . .
33.8(31) . . .
35.3(31) . . .
35.0(32) . . .
30.8(30) . . .
37.1(34) . . .
22.9(24) . . .
35.0(31) . . .
29.7(28) . . .
33.9(33) . . .
36.9(34) . . .
32.1(30) . . .
27.9(28) . . .
30.9(29) . . .
32.5(31) . . .
32.4(33) . . .
33.2(31) . . .
43(4) . . .
35.4(31) . . .
31.7(31) . . .
34.9(34) . . .
28.4(28) . . .
33.7(30) . . .
27.9(27) . . .
39.5(33) . . .
41.6(35) . . .
31.0(30) . . .
33.2(31) . . .
25.3(26) . . .
38.3(33) . . .
32.8(30) . . .
35.8(31) . . .
35.1(32) . . .
32.6(31) . . .
35.9(32) . . .
34.3(31) . . .
38.6(33) . . .
32.3(30) . . .
34.3(32) . . .
38.0(34) . . .
34.0(30) . . .
36.1(31) . . .
35.5(31) . . .
33.8(30) . . .
45(4) . . .
37.6(34) . . .
36.2(32) . . .
39.3(33) . . .
38.0(34) . . .
33.4(31) . . .
36.4(33) . . .
40.5(34) . . .
26.2(27) . . .
37.7(34) . . .
34.2(31) . . .
36.6(34) . . .
40.6(35) . . .
31.0(29) . . .
37.9(32) . . .
45(4) . . .
37.3(32) . . .
30.7(29) . . .
37.5(32) . . .
29.3(31) . . .
27.9(31) . . .
39(4) . . .
43(4) . . .
31.8(30) . . .
32.6(34) . . .
33.3(32) . . .
34.1(31) . . .
35.7(31) . . .
37.1(32) . . .
35.5(31) . . .
40.0(35) . . .
34.9(31) . . .
37.9(32) . . .
29.2(28) . . .
37.5(33) . . .
37.5(34) . . .
29.7(28) . . .
34.0(30) . . .
41.2(34) . . .
35.7(32) . . .
38(4) . . .
30.5(31) . . .
38.5(33) . . .
40.3(34) . . .
41.6(35) . . .
42(4) . . .
32.8(30) . . .
35.0(31) . . .
45(4) . . .
31.7(30) . . .
30.7(32) . . .
33.6(33) . . .
44.0(35) . . .
36.8(33) . . .
31.4(29) . . .
35.6(32) . . .
34.9(31) . . .
33.7(31) . . .
30.0(30) . . .
34.5(33) . . .
28.4(27) . . .
37.3(33) . . .
35.5(31) . . .
38.7(33) . . .
39(4) . . .
35.3(32) . . .
29.2(28) . . .
35.0(31) . . .
35.8(34) . . .
27.3(28) . . .
35.7(32) . . .
30.4(29) . . .
39.9(33) . . .
28.1(27) . . .
37.3(34) . . .
30.4(29) . . .
27.6(27) . . .
32.0(30) . . .
32.6(31) . . .
43(4) . . .
34.5(31) . . .
35.4(31) . . .
31.1(30) . . .
38(4) . . .
32.1(32) . . .
32.5(30) . . .
35.0(31) . . .
36.9(32) . . .
33.0(32) . . .
36.0(32) . . .
34.6(31) . . .
34.5(31) . . .
33.9(30) . . .
35.6(33) . . .
32.3(29) . . .
36.2(31) . . .
42.2(34) . . .
28.1(28) . . .
33.9(31) . . .
29.1(27) . . .
33.8(34) . . .
26.7(28) . . .
34.7(32) . . .
31.0(30) . . .
34.6(31) . . .
26.7(27) . . .
27.5(27) . . .
33.8(31) . . .
45(4) . . .
42(4) . . .
39.8(33) . . .
41.0(33) . . .
37.1(33) . . .
35.4(32) . . .
39.3(34) . . .
32.9(31) . . .
32.2(30) . . .
30.6(29) . . .
32.5(31) . . .
35.8(34) . . .
30.8(30) . . .
32.7(29) . . .
33.4(32) . . .
39.1(34) . . .
25.4(26) . . .
27.5(28) . . .
31.5(29) . . .
33.1(32) . . .
31.9(32) . . .
36.5(32) . . .
33.4(30) . . .
36.1(31) . . .
37.3(33) . . .
30.7(28) . . .
41.8(34) . . .
35.9(32) . . .
32.1(29) . . .
38.0(35) . . .
35.4(33) . . .
35.7(32) . . .
45.6(35) . . .
31.4(29) . . .
32.9(32) . . .
42(4) . . .
36.3(32) . . .
41.3(33) . . .
34.7(31) . . .
38.9(34) . . .
36.6(33) . . .
34.6(32) . . .
37.9(32) . . .
30.7(29) . . .
33.9(31) . . .
36.4(33) . . .
33.3(30) . . .
29.9(28) . . .
33.8(34) . . .
26.6(27) . . .
45(4) . . .
40.5(33) . . .
43.1(34) . . .
39.5(33) . . .
35.1(31) . . .
33.7(30) . . .
38.7(33) . . .
26.1(27) . . .
31.2(31) . . .
39(4) . . .
31.1(29) . . .
34.7(32) . . .
35.3(31) . . .
42(4) . . .
30.2(32) . . .
35.0(33) . . .
42.4(34) . . .
41.4(33) . . .
45(4) . . .
31.7(32) . . .
38.9(34) . . .
36.3(32) . . .
26.5(26) . . .
31.3(29) . . .
33.0(32) . . .
31.5(31) . . .
25.5(26) . . .
38.5(33) . . .
30.4(29) . . .
32.0(32) . . .
32.2(32) . . .
34.7(30) . . .
33.1(32) . . .
35.0(32) . . .
44(4) . . .
26.2(27) . . .
37.7(32) . . .
39.2(33) . . .
36.2(32) . . .
33.1(31) . . .
41.2(35) . . .
35.8(31) . . .
32.9(30) . . .
40.0(35) . . .
32.0(31) . . .
34.3(32) . . .
31.6(30) . . .
35.7(33) . . .
32.5(30) . . .
41(4) . . .
29.5(29) . . .
32.8(30) . . .
39.8(34) . . .
30.1(28) . . .
35.5(32) . . .
28.6(29) . . .
33.7(31) . . .
23.5(25) . . .
36.4(35) . . .
33.5(33) . . .
33.1(30) . . .
39.0(33) . . .
35.6(33) . . .
25.4(27) . . .
37.5(34) . . .
33.7(31) . . .
28.9(27) . . .
30.9(31) . . .
33.8(33) . . .
38(4) . . .
30.9(30) . . .
43.4(35) . . .
37.5(33) . . .
27.1(29) . . .
32.7(30) . . .
37.4(32) . . .
32.6(31) . . .
33.0(31) . . .
32.9(31) . . .
36.2(33) . . .
34.4(31) . . .
36.1(32) . . .
37.1(34) . . .
35.6(32) . . .
39.6(34) . . .
41.1(33) . . .
32.6(30) . . .
42(4) . . .
40.8(34) . . .
44(4) . . .
44.3(34) . . .
42(4) . . .
30.9(32) . . .
39.1(35) . . .
37.4(32) . . .
32.8(30) . . .
33.0(31) . . .
26.0(27) . . .
25.5(27) . . .
34.3(32) . . .
37.4(32) . . .
38.8(35) . . .
41(4) . . .
34.7(32) . . .
34.7(31) . . .
45.7(35) . . .
29.3(30) . . .
44(4) . . .
42(4) . . .
35.7(31) . . .
30.1(29) . . .
27.9(28) . . .
36.7(33) . . .
37.3(32) . . .
41.6(33) . . .
31.9(30) . . .
32.2(30) . . .
38(4) . . .
41(4) . . .
37.8(32) . . .
42.4(33) . . .
27.1(28) . . .
28.3(29) . . .
33.8(31) . . .
40.2(34) . . .
42.7(34) . . .
39.8(33) . . .
26.9(27) . . .
33.2(31) . . .
38.2(33) . . .
35.5(31) . . .
22.1(25) . . .
35.0(34) . . .
33.4(33) . . .
34.7(31) . . .
35.5(31) . . .
38.8(34) . . .
36.1(33) . . .
31.0(31) . . .
35.0(31) . . .
31.2(31) . . .
36.8(34) . . .
27.3(29) . . .
31.1(29) . . .
32.3(30) . . .
39.7(33) . . .
35.1(32) . . .
36.7(33) . . .
34.5(31) . . .
41.5(34) . . .
37.0(32) . . .
33.6(31) . . .
34.3(34) . . .
30.5(30) . . .
39.6(32) . . .
35.0(34) . . .
35.7(34) . . .
38.1(33) . . .
40(4) . . .
36.9(31) . . .
30.1(29) . . .
31.4(31) . . .
30.0(29) . . .
34.0(30) . . .
34.5(30) . . .
41.4(35) . . .
39(4) . . .
40.2(34) . . .
34.3(30) . . .
34.4(31) . . .
34.1(31) . . .
41(4) . . .
30.7(30) . . .
36.4(31) . . .
38.4(32) . . .
42.5(34) . . .
35.6(35) . . .
37.5(32) . . .
43.0(34) . . .
31.7(30) . . .
31.2(30) . . .
33.6(32) . . .
39(4) . . .
33.6(30) . . .
34.6(31) . . .
36.8(32) . . .
23.4(27) . . .
33.8(33) . . .
42.3(34) . . .
36.9(34) . . .
29.0(28) . . .
35.2(35) . . .
32.6(30) . . .
34.3(31) . . .
34.3(31) . . .
40.5(33) . . .
43(4) . . .
34.3(32) . . .
29.1(28) . . .
40.9(34) . . .
34.2(30) . . .
36.2(31) . . .
28.5(28) . . .
36.7(32) . . .
26.4(28) . . .
34.1(32) . . .
39.3(34) . . .
33.4(32) . . .
36.4(31) . . .
32.6(31) . . .
28.1(30) . . .
37.5(33) . . .
34.8(31) . . .
37.2(32) . . .
36.8(32) . . .
35.5(35) . . .
30.1(31) . . .
36.0(31) . . .
37.7(32) . . .
33.0(31) . . .
39(4) . . .
32.2(31) . . .
40.3(33) . . .
35.5(31) . . .
37.3(32) . . .
29.6(28) . . .
28.8(28) . . .
30.8(29) . . .
31.6(31) . . .
26.4(28) . . .
35.2(33) . . .
32.7(30) . . .
30.9(29) . . .
35.0(30) . . .
42(4) . . .
24.1(26) . . .
33.8(32) . . .
32.4(30) . . .
38.0(33) . . .
28.5(28) . . .
34.2(32) . . .
37.4(32) . . .
37.3(32) . . .
33.2(31) . . .
28.5(28) . . .
42(4) . . .
33.8(32) . . .
33.9(30) . . .
34.1(31) . . .
37.3(33) . . .
37.2(32) . . .
44(4) . . .
37.4(32) . . .
33.1(32) . . .
38.6(34) . . .
35.9(32) . . .
36.0(32) . . .
31.8(29) . . .
36.6(33) . . .
35.5(32) . . .
35.6(31) . . .
32.3(31) . . .
44.0(34) . . .
37.0(32) . . .
35.9(33) . . .
37.8(33) . . .
36.7(32) . . .
28.9(29) . . .
43(4) . . .
41.2(35) . . .
48(4) . . .
35.7(31) . . .
34.6(31) . . .
31.4(29) . . .
26.4(26) . . .
33.4(33) . . .
31.5(29) . . .
33.9(30) . . .
30.8(29) . . .
34.9(34) . . .
38.3(35) . . .
37.7(32) . . .
35.8(31) . . .
34.5(31) . . .
26.0(26) . . .
32.3(33) . . .
28.2(28) . . .
35.9(33) . . .
36.8(35) . . .
45(4) . . .
34.6(32) . . .
31.3(30) . . .
29.2(28) . . .
43(4) . . .
38(4) . . .
41(4) . . .
27.1(27) . . .
32.4(32) . . .
25.8(26) . . .
35.7(33) . . .
36.6(32) . . .
38.3(32) . . .
35.2(32) . . .
31.7(29) . . .
37.9(32) . . .
39.5(33) . . .
33.3(30) . . .
31.6(31) . . .
33.4(32) . . .
34.6(32) . . .
27.9(28) . . .
29.0(28) . . .
35.9(32) . . .
42(4) . . .
30.3(29) . . .
37.4(32) . . .
31.0(29) . . .
33.9(32) . . .
33.7(32) . . .
39.2(33) . . .
33.8(31) . . .
32.3(29) . . .
31.3(31) . . .
23.9(29) . . .
32.8(34) . . .
30.1(29) . . .
41.0(33) . . .
42(4) . . .
34.8(34) . . .
32.0(30) . . .
32.8(30) . . .
33.2(31) . . .
27.9(28) . . .
32.3(32) . . .
34.8(31) . . .
35.6(31) . . .
31.1(30) . . .
34.0(31) . . .
37(4) . . .
35.0(31) . . .
27.4(27) . . .
37.2(33) . . .
38.1(34) . . .
31.0(30) . . .
30.7(29) . . .
36.0(31) . . .
34.7(31) . . .
33.6(31) . . .
32.1(31) . . .
35.4(32) . . .
34.4(31) . . .
27.8(28) . . .
31.8(31) . . .
30.2(32) . . .
31.3(31) . . .
32.5(30) . . .
39(4) . . .
39.0(34) . . .
39.8(34) . . .
38.7(33) . . .
37.0(31) . . .
32.0(31) . . .
31.2(32) . . .
35.3(32) . . .
36.8(32) . . .
25.0(26) . . .
25.1(26) . . .
34.4(32) . . .
44(4) . . .
33.1(30) . . .
41.0(33) . . .
30.5(29) . . .
31.7(31) . . .
37.7(32) . . .
35.2(31) . . .
36.2(31) . . .
36.0(32) . . .
40(4) . . .
30.6(30) . . .
36.2(31) . . .
36.8(32) . . .
36.8(32) . . .
39.1(35) . . .
36.9(32) . . .
35.3(30) . . .
30.8(30) . . .
29.6(30) . . .
29.5(31) . . .
41(4) . . .
32.4(30) . . .
30.8(29) . . .
31.9(30) . . .
31.0(30) . . .
37.3(33) . . .
39.6(32) . . .
32.5(30) . . .
32.1(30) . . .
43(4) . . .
32.4(31) . . .
35.7(32) . . .
34.1(30) . . .
39.7(34) . . .
35.7(30) . . .
40(4) . . .
39.7(33) . . .
39(4) . . .
35(4) . . .
32.8(32) . . .
37.5(32) . . .
38.6(33) . . .
33.7(31) . . .
38.3(32) . . .
37.0(31) . . .
40.4(33) . . .
37.3(33) . . .
36.5(34) . . .
42(4) . . .
41.9(34) . . .
34.5(32) . . .
32.8(30) . . .
34.9(32) . . .
34.2(34) . . .
33.6(33) . . .
28.4(28) . . .
41.7(33) . . .
37.7(34) . . .
40(4) . . .
30.9(29) . . .
30.7(28) . . .
36.6(33) . . .
34.3(31) . . .
33.0(33) . . .
34.0(32) . . .
39.7(33) . . .
37.8(32) . . .
39.2(35) . . .
32.4(30) . . .
44(4) . . .
29.6(29) . . .
33.0(31) . . .
42(4) . . .
33.7(30) . . .
41.1(33) . . .
30.6(29) . . .
34.2(31) . . .
34.3(32) . . .
37.9(33) . . .
30.6(29) . . .
36.1(31) . . .
30.4(31) . . .
31.3(30) . . .
41.2(34) . . .
36.8(33) . . .
32.8(29) . . .
36.3(32) . . .
34.0(32) . . .
36.6(33) . . .
34.7(31) . . .
22.7(24) . . .
33.4(32) . . .
29.2(31) . . .
38.1(35) . . .
34.8(31) . . .
40.8(33) . . .
30.2(29) . . .
25.0(26) . . .
30.9(29) . . .
42.5(34) . . .
27.7(27) . . .
30.5(31) . . .
29.3(32) . . .
31.7(31) . . .
29.6(28) . . .
37.1(33) . . .
32.2(30) . . .
43(4) . . .
32.9(31) . . .
42.1(33) . . .
31.0(30) . . .
38.5(33) . . .
32.8(33) . . .
30.4(30) . . .
35.2(31) . . .
31.9(30) . . .
30.2(30) . . .
30.5(31) . . .
38.5(33) . . .
25.0(26) . . .
23.9(26) . . .
34.9(31) . . .
37.0(32) . . .
32.7(32) . . .
34.2(30) . . .
31.9(31) . . .
44(4) . . .
30.6(30) . . .
34.8(33) . . .
33.3(31) . . .
28.8(28) . . .
30.6(30) . . .
33.1(30) . . .
30.2(32) . . .
33.7(31) . . .
43.6(35) . . .
39.2(35) . . .
34.3(32) . . .
26.8(27) . . .
27.8(28) . . .
39.0(35) . . .
35.1(31) . . .
41.9(35) . . .
32.5(30) . . .
42.1(33) . . .
36.5(32) . . .
30.0(31) . . .
35.9(34) . . .
32.9(30) . . .
30.7(28) . . .
36.1(31) . . .
34.5(31) . . .
35.0(32) . . .
32.2(30) . . .
38.2(33) . . .
40.6(34) . . .
41(4) . . .
36.8(33) . . .
30.9(29) . . .
38.6(33) . . .
40(4) . . .
30.7(29) . . .
40(4) . . .
30.9(29) . . .
31.9(30) . . .
37.0(33) . . .
31.8(31) . . .
47(4) . . .
36.7(32) . . .
38.8(32) . . .
40.1(32) . . .
31.1(29) . . .
35.4(32) . . .
38.3(32) . . .
31.1(29) . . .
30.4(29) . . .
41(4) . . .
33.7(31) . . .
30.4(29) . . .
28.9(29) . . .
35.9(33) . . .
35.1(33) . . .
31.8(31) . . .
32.9(30) . . .
29.8(30) . . .
40(4) . . .
36.0(33) . . .
29.0(28) . . .
35.4(31) . . .
32.0(32) . . .
29.7(30) . . .
38.0(32) . . .
34.9(30) . . .
35.6(31) . . .
33.5(32) . . .
40(4) . . .
33.1(31) . . .
33.9(30) . . .
45(4) . . .
41(4) . . .
39.6(33) . . .
37.2(32) . . .
37.8(33) . . .
33.7(30) . . .
39.5(34) . . .
37.7(34) . . .
26.4(27) . . .
34.5(30) . . .
38.2(34) . . .
32.9(31) . . .
47(4) . . .
26.0(26) . . .
35.8(31) . . .
35.1(31) . . .
30.5(29) . . .
28.5(28) . . .
31.6(29) . . .
33.1(30) . . .
32.8(32) . . .
39.4(33) . . .
35.5(33) . . .
32.5(31) . . .
42.3(35) . . .
32.1(31) . . .
27.1(27) . . .
41(4) . . .
35.0(31) . . .
40.3(33) . . .
35.6(31) . . .
38.7(33) . . .
41(4) . . .
33.8(32) . . .
27.3(27) . . .
36.0(34) . . .
32.5(33) . . .
27.1(28) . . .
23.3(26) . . .
36.2(31) . . .
35.9(32) . . .
35.3(34) . . .
28.5(29) . . .
28.9(27) . . .
36.1(32) . . .
42.3(35) . . .
24.4(26) . . .
36.0(34) . . .
31.7(30) . . .
31.1(29) . . .
35.1(33) . . .
36.7(34) . . .
34.0(32) . . .
37.2(32) . . .
37.5(32) . . .
33.6(31) . . .
35.4(33) . . .
45(4) . . .
37.1(32) . . .
28.2(27) . . .
27.6(29) . . .
35.4(33) . . .
35.5(33) . . .
43.4(34) . . .
34.8(31) . . .
32.7(30) . . .
33.5(33) . . .
30.3(29) . . .
24.4(26) . . .
33.8(31) . . .
36.2(32) . . .
33.9(32) . . .
32.8(31) . . .
33.6(30) . . .
37.2(33) . . .
30.3(30) . . .
39(4) . . .
30.3(30) . . .
36.4(31) . . .
38.1(33) . . .
43(4) . . .
32.7(31) . . .
45(4) . . .
38.5(33) . . .
36.0(32) . . .
41.1(34) . . .
30.7(30) . . .
25.2(27) . . .
29.7(29) . . .
35.3(31) . . .
34.3(32) . . .
27.6(28) . . .
32.9(32) . . .
33.8(31) . . .
32.6(32) . . .
30.9(31) . . .
38.4(35) . . .
33.4(31) . . .
25.9(27) . . .
30.3(31) . . .
30.1(30) . . .
33.1(31) . . .
32.4(29) . . .
38.5(33) . . .
36.9(32) . . .
31.4(32) . . .
42(4) . . .
31.5(29) . . .
32.8(30) . . .
37.8(34) . . .
37.0(34) . . .
43(4) . . .
31.8(30) . . .
36.0(31) . . .
36.8(33) . . .
28.4(29) . . .
31.3(30) . . .
36.4(32) . . .
37.6(32) . . .
36.0(33) . . .
37.3(35) . . .
35.2(32) . . .
31.1(29) . . .
37.9(33) . . .
29.4(29) . . .
30.1(30) . . .
37.9(34) . . .
39.0(33) . . .
32.8(30) . . .
28.4(28) . . .
27.3(28) . . .
35.0(31) . . .
37.0(31) . . .
37.5(35) . . .
36(4) . . .
24.9(27) . . .
35.4(33) . . .
42.3(34) . . .
34.8(31) . . .
24.7(26) . . .
32.0(31) . . .
35.0(32) . . .
27.8(27) . . .
32.1(30) . . .
33.9(34) . . .
25.9(27) . . .
33.9(30) . . .
33.2(31) . . .
35.4(32) . . .
34.3(32) . . .
32.3(31) . . .
30.2(29) . . .
36.1(31) . . .
34.1(30) . . .
41(4) . . .
35.8(33) . . .
24.5(26) . . .
33.3(31) . . .
39.2(32) . . .
33.5(31) . . .
40(4) . . .
29.4(28) . . .
26.0(27) . . .
35.2(33) . . .
29.2(29) . . .
35.1(33) . . .
41.6(34) . . .
36.3(32) . . .
36.8(34) . . .
37.8(35) . . .
31.1(29) . . .
39.4(32) . . .
32.7(30) . . .
31.3(30) . . .
37.7(35) . . .
29.8(29) . . .
34.2(31) . . .
31.0(29) . . .
37.2(34) . . .
34.6(33) . . .
29.5(28) . . .
44(4) . . .
32.7(31) . . .
30.1(30) . . .
31.7(32) . . .
38.1(34) . . .
27.5(28) . . .
38.9(33) . . .
31.9(30) . . .
36.2(34) . . .
32.0(31) . . .
34.3(31) . . .
35.9(33) . . .
28.9(29) . . .
46(4) . . .
32.7(29) . . .
31.9(30) . . .
26.4(28) . . .
30.5(31) . . .
37.3(33) . . .
35.8(32) . . .
30.4(29) . . .
40(4) . . .
32.8(32) . . .
27.1(26) . . .
39.5(35) . . .
41.5(33) . . .
34.4(30) . . .
27.5(27) . . .
37.1(34) . . .
31.7(29) . . .
25.6(28) . . .
37.8(33) . . .
40(4) . . .
36.8(34) . . .
29.1(28) . . .
32.3(29) . . .
27.2(28) . . .
30.7(31) . . .
35.0(31) . . .
36.7(32) . . .
35.5(31) . . .
27.0(27) . . .
38.3(34) . . .
38.1(33) . . .
35.8(31) . . .
24.9(26) . . .
26.2(28) . . .
32.0(31) . . .
37.6(32) . . .
32.7(30) . . .
38.0(33) . . .
33.9(32) . . .
32.0(30) . . .
35.5(32) . . .
39.6(33) . . .
40.0(33) . . .
34.9(32) . . .
33.1(30) . . .
37.1(32) . . .
41.5(34) . . .
30.8(31) . . .
31.0(30) . . .
41.0(34) . . .
46(4) . . .
39.7(33) . . .
32.3(30) . . .
40(4) . . .
35.2(32) . . .
36.4(31) . . .
38.8(33) . . .
34.1(31) . . .
31.6(32) . . .
36.0(34) . . .
37.2(32) . . .
36.0(31) . . .
35.3(33) . . .
29.1(29) . . .
27.5(29) . . .
33.2(30) . . .
40.3(33) . . .
39.8(33) . . .
38.3(32) . . .
39.8(34) . . .
25.2(26) . . .
26.5(26) . . .
38.8(34) . . .
42(4) . . .
38.4(33) . . .
35.0(31) . . .
37.0(31) . . .
33.9(32) . . .
22.6(25) . . .
39.5(35) . . .
37.7(32) . . .
30.5(29) . . .
31.1(30) . . .
28.6(29) . . .
39.5(34) . . .
40.4(33) . . .
24.6(26) . . .
28.4(30) . . .
31.8(30) . . .
37.0(31) . . .
35.9(31) . . .
27.2(30) . . .
30.9(31) . . .
47(4) . . .
43.2(34) . . .
36.1(32) . . .
37.3(32) . . .
33.3(30) . . .
40.7(34) . . .
38.2(33) . . .
30.1(28) . . .
31.5(30) . . .
37.5(35) . . .
44(4) . . .
27.4(27) . . .
28.8(30) . . .
31.5(31) . . .
35.6(33) . . .
27.3(27) . . .
28.2(28) . . .
31.5(29) . . .
43(4) . . .
43(4) . . .
38.4(33) . . .
36.5(33) . . .
30.5(30) . . .
34.2(31) . . .
34.1(30) . . .
24.0(26) . . .
34.3(32) . . .
29.0(28) . . .
30.9(29) . . .
42(4) . . .
38(4) . . .
30.8(29) . . .
44.4(35) . . .
33.9(30) . . .
40(4) . . .
34.5(31) . . .
40.8(33) . . .
35.5(32) . . .
30.6(30) . . .
35.4(34) . . .
36.8(33) . . .
36.8(32) . . .
32.9(31) . . .
32.4(31) . . .
31.2(29) . . .
36.7(32) . . .
42.0(34) . . .
40(4) . . .
32.0(31) . . .
28.9(29) . . .
34.9(32) . . .
32.8(30) . . .
35.4(32) . . .
39.0(33) . . .
42(4) . . .
31.8(30) . . .
37.4(32) . . .
32.8(32) . . .
32.8(33) . . .
38.6(34) . . .
39.4(34) . . .
32.5(30) . . .
31.3(30) . . .
33.9(34) . . .
36.6(32) . . .
28.0(28) . . .
29.5(28) . . .
36.3(33) . . .
47(4) . . .
29.8(28) . . .
33.9(31) . . .
39.5(32) . . .
41.8(34) . . .
30.1(31) . . .
32.1(31) . . .
34.9(30) . . .
32.2(30) . . .
31.0(29) . . .
30.9(32) . . .
30.3(29) . . .
30.3(29) . . .
31.2(29) . . .
35.5(33) . . .
42(4) . . .
28.2(28) . . .
34.1(31) . . .
32.5(30) . . .
30.4(30) . . .
31.8(31) . . .
36.7(33) . . .
37.4(32) . . .
38.7(34) . . .
33.6(33) . . .
38(4) . . .
34.9(33) . . .
39.2(32) . . .
35.1(31) . . .
35.4(34) . . .
37.1(34) . . .
38.8(32) . . .
32.4(30) . . .
29.2(31) . . .
32.1(31) . . .
32.2(32) . . .
37.5(33) . . .
32.8(29) . . .
40.6(34) . . .
30.1(31) . . .
31.3(31) . . .
24.7(26) . . .
37.4(32) . . .
34.3(32) . . .
34.6(32) . . .
38.7(33) . . .
33.0(30) . . .
27.9(28) . . .
32.9(30) . . .
32.1(32) . . .
35.6(32) . . .
38.0(32) . . .
41.0(34) . . .
29.3(29) . . .
38.0(34) . . .
39.9(34) . . .
42.3(34) . . .
36.9(31) . . .
31.0(29) . . .
42(4) . . .
39.6(34) . . .
28.5(28) . . .
38.3(33) . . .
35.0(30) . . .
30.7(30) . . .
34(4) . . .
28.2(28) . . .
24.8(27) . . .
33.5(31) . . .
33.9(30) . . .
37.9(32) . . .
32.4(30) . . .
37.3(33) . . .
26.1(27) . . .
32.8(29) . . .
33.2(31) . . .
34.4(31) . . .
38.5(33) . . .
27.5(27) . . .
40.6(35) . . .
34.8(32) . . .
27.5(27) . . .
35.7(31) . . .
29.0(28) . . .
35.5(32) . . .
35.7(33) . . .
37.1(32) . . .
30.5(31) . . .
31.7(31) . . .
39(4) . . .
33.2(31) . . .
41.5(33) . . .
36.9(33) . . .
30.4(29) . . .
39.9(34) . . .
34.3(31) . . .
32.3(30) . . .
39.6(34) . . .
41(4) . . .
38.3(34) . . .
27.6(27) . . .
32.2(29) . . .
40.1(34) . . .
37(4) . . .
29.1(30) . . .
29.9(28) . . .
42.5(34) . . .
40.3(33) . . .
45(4) . . .
36.9(34) . . .
35.4(31) . . .
37.9(32) . . .
36.8(32) . . .
35.0(34) . . .
32.2(33) . . .
30.5(29) . . .
35.2(31) . . .
32.9(29) . . .
37.8(34) . . .
35.7(32) . . .
36.1(31) . . .
27.4(28) . . .
33.5(33) . . .
36.1(33) . . .
36.6(33) . . .
33.1(30) . . .
33.4(31) . . .
34.1(33) . . .
32.7(34) . . .
28.8(29) . . .
28.4(28) . . .
36.4(31) . . .
33.8(32) . . .
31.9(31) . . .
33.9(30) . . .
39.2(32) . . .
29.0(30) . . .
28.4(29) . . .
38.8(34) . . .
42.2(34) . . .
36.0(31) . . .
35.2(33) . . .
35.9(34) . . .
24.8(27) . . .
30.5(31) . . .
43.4(35) . . .
36.3(33) . . .
32.3(32) . . .
35.5(33) . . .
29.7(28) . . .
30.2(29) . . .
38.7(33) . . .
40.0(35) . . .
46(4) . . .
27.5(28) . . .
29.4(29) . . .
25.3(30) . . .
28.8(30) . . .
39.7(32) . . .
34.2(31) . . .
36.6(32) . . .
37.4(33) . . .
25.2(26) . . .
31.4(30) . . .
24.4(27) . . .
33.1(30) . . .
32.5(31) . . .
30.7(31) . . .
33.2(31) . . .
32.0(29) . . .
33.3(30) . . .
45(4) . . .
33.8(31) . . .
35.9(33) . . .
39.5(33) . . .
31.8(30) . . .
42(4) . . .
35.9(33) . . .
28.7(28) . . .
31.5(30) . . .
31.6(31) . . .
31.9(31) . . .
31.8(30) . . .
35.9(32) . . .
32.6(30) . . .
42(4) . . .
37.0(33) . . .
37.8(33) . . .
35.7(31) . . .
36.0(31) . . .
28.4(29) . . .
30.3(31) . . .
33.4(32) . . .
32.2(31) . . .
35.8(31) . . .
30.3(29) . . .
25.7(28) . . .
27.0(30) . . .
28.4(27) . . .
39.6(33) . . .
37.8(32) . . .
32.1(32) . . .
35.7(32) . . .
34.0(31) . . .
33.7(31) . . .
45(4) . . .
34.1(32) . . .
32.9(30) . . .
37.5(32) . . .
34.1(30) . . .
36.2(33) . . .
29.9(29) . . .
34.2(30) . . .
30.7(29) . . .
25.7(28) . . .
24.2(28) . . .
29.8(29) . . .
37.5(33) . . .
34.1(31) . . .
31.5(30) . . .
35.1(32) . . .
33.5(32) . . .
41(4) . . .
36.6(32) . . .
31.5(31) . . .
30.0(30) . . .
31.8(30) . . .
32.5(30) . . .
43.6(34) . . .
35.4(31) . . .
30.0(29) . . .
32.8(31) . . .
38.4(32) . . .
39.7(33) . . .
33.3(31) . . .
28.7(31) . . .
27.4(27) . . .
41.4(35) . . .
41.6(33) . . .
31.9(32) . . .
41(4) . . .
30.0(28) . . .
42(4) . . .
29.2(28) . . .
34.1(34) . . .
24.9(26) . . .
34.1(33) . . .
28.9(29) . . .
34.3(30) . . .
38(4) . . .
37.1(34) . . .
31.3(29) . . .
43.5(34) . . .
36.9(31) . . .
38.1(34) . . .
41(4) . . .
34.0(32) . . .
30.6(29) . . .
36.0(31) . . .
36.8(32) . . .
34.8(34) . . .
37.3(33) . . .
33.6(30) . . .
34.7(31) . . .
36.7(33) . . .
33.0(32) . . .
39.9(34) . . .
33.1(30) . . .
34.9(33) . . .
31.9(32) . . .
34.0(33) . . .
36.2(33) . . .
34.7(31) . . .
30.7(30) . . .
32.7(31) . . .
36.3(32) . . .
36.4(33) . . .
38.2(32) . . .
42(4) . . .
32.5(32) . . .
24.1(26) . . .
33.7(32) . . .
32.7(29) . . .
30.8(29) . . .
30.5(29) . . .
34.0(34) . . .
28.1(30) . . .
34.3(31) . . .
27.1(30) . . .
34.0(32) . . .
37.2(32) . . .
28.1(28) . . .
36.0(31) . . .
33.5(30) . . .
22.9(25) . . .
31.9(31) . . .
26.2(26) . . .
38.8(33) . . .
35.0(32) . . .
35.5(32) . . .
40(4) . . .
35.3(31) . . .
36.3(31) . . .
31.5(29) . . .
32.6(33) . . .
37.3(32) . . .
31.3(29) . . .
28.8(29) . . .
33.0(31) . . .
36.4(34) . . .
37.7(34) . . .
32.3(31) . . .
35.0(31) . . .
28.1(29) . . .
27.5(30) . . .
38.1(33) . . .
34.9(31) . . .
31.0(31) . . .
30.9(29) . . .
34.8(33) . . .
33.2(32) . . .
28.3(28) . . .
38.2(33) . . .
27.9(27) . . .
33.7(33) . . .
38(4) . . .
36.2(31) . . .
33.5(30) . . .
35.0(32) . . .
30.6(31) . . .
29.5(30) . . .
36.2(31) . . .
35.2(32) . . .
43(4) . . .
31.6(31) . . .
27.0(27) . . .
34.0(31) . . .
42(4) . . .
39(4) . . .
34.5(32) . . .
34.3(31) . . .
36.0(32) . . .
27.2(28) . . .
22.5(24) . . .
37.2(33) . . .
31.8(30) . . .
38.7(33) . . .
30.4(29) . . .
41(4) . . .
40.0(35) . . .
34.5(30) . . .
36.6(31) . . .
30.7(30) . . .
35.7(32) . . .
39.6(33) . . .
34.6(30) . . .
33.8(31) . . .
22.8(28) . . .
33.5(32) . . .
30.9(29) . . .
32.1(29) . . .
33.6(30) . . .
36.5(31) . . .
29.3(28) . . .
31.2(30) . . .
34.1(31) . . .
35.8(31) . . .
39.3(34) . . .
31.1(28) . . .
41.3(34) . . .
45(4) . . .
35.5(31) . . .
40.2(34) . . .
27.5(29) . . .
33.9(34) . . .
31.7(30) . . .
33.1(31) . . .
30.6(29) . . .
36(4) . . .
35.9(33) . . .
28.7(27) . . .
32.4(31) . . .
30.2(29) . . .
36.7(34) . . .
33.4(31) . . .
31.5(29) . . .
35.1(31) . . .
39.3(32) . . .
36.5(31) . . .
36.0(31) . . .
34.9(31) . . .
32.5(32) . . .
33.0(32) . . .
30.5(29) . . .
39.0(34) . . .
30.0(28) . . .
36.8(32) . . .
42.6(35) . . .
34.3(31) . . .
36.0(32) . . .
34.3(31) . . .
37.0(33) . . .
33.0(32) . . .
28.7(29) . . .
29.1(28) . . .
34.7(30) . . .
26.0(30) . . .
40(4) . . .
48(4) . . .
38.3(32) . . .
28.5(28) . . .
34.0(31) . . .
35.0(33) . . .
39.0(35) . . .
40.9(34) . . .
43.9(35) . . .
37.7(32) . . .
30.4(31) . . .
29.1(29) . . .
32.8(30) . . .
31.7(29) . . .
38.2(34) . . .
38.3(33) . . .
41.1(34) . . .
38.1(32) . . .
30.1(29) . . .
31.6(31) . . .
35.6(33) . . .
33.8(31) . . .
29.6(29) . . .
36.9(33) . . .
35.0(31) . . .
33.4(30) . . .
32.3(29) . . .
41.4(33) . . .
31.1(30) . . .
30.5(29) . . .
34.2(33) . . .
28.8(28) . . .
39.8(33) . . .
27.4(29) . . .
34.5(34) . . .
29.3(29) . . .
36.4(33) . . .
32.5(30) . . .
33.8(31) . . .
28.1(29) . . .
34.3(32) . . .
29.8(28) . . .
37.2(32) . . .
35.1(31) . . .
42.1(35) . . .
30.5(28) . . .
34.7(31) . . .
33.7(30) . . .
39.4(34) . . .
38(4) . . .
45(4) . . .
37.0(32) . . .
30.2(28) . . .
37.1(34) . . .
41.3(34) . . .
36.3(31) . . .
30.8(29) . . .
41.6(34) . . .
33.0(29) . . .
35.1(33) . . .
26.7(29) . . .
29.5(28) . . .
35.6(31) . . .
25.8(27) . . .
29.3(29) . . .
30.9(31) . . .
32.8(31) . . .
45(4) . . .
30.1(28) . . .
35.9(32) . . .
32.2(31) . . .
33.9(30) . . .
27.6(27) . . .
34.2(33) . . .
34.6(30) . . .
36.2(31) . . .
33.5(31) . . .
35.2(31) . . .
40(4) . . .
39(4) . . .
32.9(31) . . .
43.3(34) . . .
31.5(30) . . .
32.1(30) . . .
37.9(33) . . .
34.8(31) . . .
36.8(31) . . .
33.4(30) . . .
41(4) . . .
46(4) . . .
34.8(31) . . .
24.1(26) . . .
31.3(29) . . .
41(4) . . .
37.6(33) . . .
29.0(28) . . .
28.3(27) . . .
27.5(28) . . .
29.2(31) . . .
24.1(25) . . .
31.4(30) . . .
40.2(33) . . .
39.2(34) . . .
35.3(34) . . .
38.3(33) . . .
30.9(29) . . .
30.0(28) . . .
29.5(28) . . .
41(4) . . .
36.6(33) . . .
32.1(31) . . .
26.6(27) . . .
30.2(31) . . .
33.8(32) . . .
54(4) . . .
31.6(30) . . .
38.9(33) . . .
38.2(32) . . .
33.5(31) . . .
40.0(33) . . .
37.9(33) . . .
29.2(29) . . .
28.5(28) . . .
39(4) . . .
38.2(34) . . .
32.5(30) . . .
32.2(30) . . .
28.7(28) . . .
33.9(31) . . .
34.3(33) . . .
25.0(26) . . .
28.1(28) . . .
35.2(31) . . .
36.3(33) . . .
41.5(34) . . .
35.8(31) . . .
28.3(28) . . .
37.1(34) . . .
31.5(29) . . .
38.5(34) . . .
32.0(29) . . .
37.1(34) . . .
36.7(35) . . .
31.1(29) . . .
36.7(33) . . .
33.9(30) . . .
32.4(31) . . .
35.3(32) . . .
36.0(33) . . .
34.7(33) . . .
34.9(31) . . .
36.0(32) . . .
34.5(32) . . .
31.4(30) . . .
33.7(30) . . .
38.8(32) . . .
31.1(30) . . .
29.7(31) . . .
36.8(33) . . .
39.8(33) . . .
33.0(30) . . .
32.7(31) . . .
36.8(34) . . .
34.2(32) . . .
30.1(29) . . .
36.7(33) . . .
30.2(30) . . .
37.4(34) . . .
33.9(31) . . .
38.9(32) . . .
34.8(31) . . .
34.2(30) . . .
42.1(35) . . .
32.6(30) . . .
41.3(34) . . .
36.7(32) . . .
28.3(29) . . .
36.2(35) . . .
34.3(32) . . .
29.4(28) . . .
36.3(35) . . .
30.1(29) . . .
28.9(30) . . .
31.2(30) . . .
38.0(32) . . .
41.0(34) . . .
32.5(32) . . .
32.4(32) . . .
28.6(28) . . .
25.0(27) . . .
loop_
_refln_index_h
_refln_index_k
_refln_index_l
_refln_observed_status
_refln_F_squared_meas
_refln_F_squared_calc
_refln_phase_calc
_refln_d_spacing
_gsas_i100_meas
0 2 0 o 1460.972 1424.049 180.00 8.38795 6.41
0 0 2 o 350.919 19.287 180.00 6.38516 0.89
1 0 1 o 13598.603 13990.624 0.00 5.88456 58.77
0 2 2 o 31023.730 30900.207 0.00 5.08061 100.00
0 3 1 o 1185.332 1295.546 180.00 5.12239 3.88
1 2 1 o 1761.166 1761.958 0.00 4.81731 10.21
1 1 2 o 4199.403 4130.819 0.00 4.43559 20.65
0 1 3 o 393.155 31.262 0.00 4.12602 0.84
0 4 0 o 3406.288 821.603 0.00 4.19397 3.74
1 0 3 o 624.213 191.566 180.00 3.58210 1.00
1 3 2 o 3700.224 3708.438 0.00 3.55215 11.69
0 0 4 o 331.260 161.723 180.00 3.19258 0.21
0 4 2 o 9.172 5.442 0.00 3.50543 0.01
0 3 3 o 11242.215 11376.676 0.00 3.38707 16.15
1 4 1 o 868.132 945.175 180.00 3.41532 2.54
1 2 3 o 830.566 1189.605 0.00 3.29428 2.26
0 5 1 o 11.638 93.458 180.00 3.24505 0.02
2 0 0 o 2174.216 2289.605 180.00 3.31523 1.50
0 2 4 o 2472.537 2074.586 0.00 2.98376 2.76
2 1 1 o 1044.767 1053.174 180.00 3.15172 2.60
2 2 0 o 160.097 200.444 0.00 3.08315 0.19
1 1 4 o 71.998 39.865 0.00 2.83512 0.15
2 0 2 o 582.880 440.377 0.00 2.94228 0.63
0 6 0 o 1082.847 1556.328 0.00 2.79598 0.53
2 3 1 o 808.417 913.881 0.00 2.78318 1.57
2 2 2 o 2309.787 2416.119 180.00 2.77642 4.47
0 1 5 o 2075.333 2002.226 180.00 2.52497 1.66
1 4 3 o 5000.806 5216.816 0.00 2.72381 9.31
1 5 2 o 3013.485 2933.700 180.00 2.71058 5.56
1 3 4 o 74.521 98.954 0.00 2.55792 0.12
2 1 3 o 1502.910 1443.151 0.00 2.58435 2.52
2 4 0 o 1827.903 1813.656 180.00 2.60080 1.55
0 5 3 o 541.841 597.414 180.00 2.63506 0.47
0 4 4 o 10472.837 11837.971 0.00 2.54031 8.49
0 6 2 o 94.512 137.359 0.00 2.56120 0.08
1 6 1 o 794.910 739.474 0.00 2.52541 1.27
1 0 5 o 518.529 324.181 180.00 2.38336 0.37
0 3 5 o 164.108 218.010 0.00 2.32321 0.11
0 7 1 o 267.905 305.754 0.00 2.35544 0.19
1 2 5 o 509.899 466.333 0.00 2.29260 0.67
2 0 4 o 2537.810 2428.855 180.00 2.29963 1.69
2 3 3 o 80.518 127.444 180.00 2.36921 0.11
2 4 2 o 109.645 82.573 180.00 2.40866 0.16
2 5 1 o 0.046 0.062 180.00 2.31901 0.00
0 0 6 o 4159.581 3934.164 0.00 2.12839 1.19
2 2 4 o 58.700 28.443 0.00 2.21779 0.07
0 2 6 o 98.808 134.468 180.00 2.06301 0.05
1 5 4 o 5624.697 5548.292 0.00 2.18380 6.76
0 8 0 o 17.416 12.859 180.00 2.09699 0.00
1 6 3 o 5085.324 4807.911 180.00 2.20406 6.23
2 6 0 o 1700.839 1531.818 180.00 2.13734 0.98
1 1 6 o 818.882 743.223 180.00 2.01191 0.84
1 7 2 o 2583.037 2554.991 0.00 2.12533 2.94
3 0 1 o 3163.985 2790.646 180.00 2.17778 1.89
1 4 5 o 5.913 6.760 180.00 2.07214 0.01
2 1 5 o 368.955 318.070 180.00 2.00871 0.38
0 6 4 o 9381.479 7620.083 180.00 2.10338 5.24
0 7 3 o 6642.292 5776.138 0.00 2.08834 3.66
0 5 5 o 19985.375 21194.453 0.00 2.03224 10.42
3 2 1 o 33.680 38.924 0.00 2.10789 0.04
3 1 2 o 2786.030 2956.636 180.00 2.07257 3.02
2 5 3 o 323.402 362.770 0.00 2.06282 0.35
2 4 4 o 1457.144 1481.796 180.00 2.01641 1.50
0 8 2 o 2969.961 2523.741 180.00 1.99230 1.49
2 6 2 o 552.368 527.806 180.00 2.02681 0.57
1 8 1 o 882.935 788.386 180.00 1.97531 0.87
1 3 6 o 770.730 602.304 0.00 1.90528 0.71
0 4 6 o 2135.491 1582.633 180.00 1.89797 0.97
3 0 3 o 2898.758 2641.771 0.00 1.96152 1.41
2 3 5 o 1376.123 1051.429 0.00 1.90256 1.26
0 1 7 o 461.686 580.627 0.00 1.81364 0.19
2 7 1 o 355.570 318.330 180.00 1.92014 0.33
3 3 2 o 1289.791 750.696 0.00 1.95656 1.25
3 2 3 o 5232.387 4438.246 180.00 1.90999 4.83
3 4 1 o 1057.733 546.024 180.00 1.93274 1.00
0 9 1 o 3264.730 3268.438 0.00 1.84444 1.41
1 0 7 o 1003.078 1053.133 0.00 1.75897 0.39
2 0 6 o 5.190 21.429 180.00 1.79105 0.00
0 3 7 o 1201.160 1430.328 0.00 1.73437 0.46
1 2 7 o 603.467 629.719 180.00 1.72152 0.45
3 1 4 o 3162.553 3229.147 0.00 1.80663 2.62
2 2 6 o 1558.704 1553.954 180.00 1.75156 1.21
1 6 5 o 306.404 392.800 0.00 1.81380 0.26
1 7 4 o 479.078 470.317 180.00 1.84125 0.41
1 8 3 o 110.598 120.614 0.00 1.80970 0.09
2 8 0 o 40.240 37.799 0.00 1.77222 0.02
1 5 6 o 1183.693 1436.854 0.00 1.73467 0.90
3 4 3 o 375.937 348.290 180.00 1.77679 0.30
2 6 4 o 1433.280 1351.391 0.00 1.77607 1.15
2 5 5 o 2227.970 2700.935 180.00 1.73262 1.70
2 7 3 o 1676.998 1565.344 180.00 1.76699 1.33
1 9 2 o 7.232 8.618 0.00 1.72751 0.01
3 5 2 o 471.716 430.262 0.00 1.77310 0.38
0 7 5 o 1635.430 1481.396 180.00 1.74765 0.63
3 3 4 o 180.526 221.305 180.00 1.72823 0.14
0 10 0 o 10509.540 11709.640 180.00 1.67759 1.88
0 6 6 o 4651.588 6614.029 0.00 1.69354 1.70
0 0 8 o 87.544 111.326 0.00 1.59629 0.01
0 8 4 o 1015.086 887.496 0.00 1.75271 0.40
2 8 2 o 2.868 3.375 0.00 1.70766 0.00
0 9 3 o 128.174 153.044 180.00 1.70746 0.05
3 6 1 o 1780.794 1624.571 180.00 1.71810 1.34
1 4 7 o 272.952 289.759 180.00 1.62208 0.18
3 0 5 o 2445.541 2881.499 180.00 1.67128 0.87
2 4 6 o 2079.705 1929.042 0.00 1.64714 1.44
2 1 7 o 288.352 319.191 0.00 1.59111 0.19
0 2 8 o 756.097 533.326 180.00 1.56815 0.24
0 5 7 o 3.799 4.964 0.00 1.60273 0.00
3 2 5 o 32.377 30.868 0.00 1.63906 0.02
1 1 8 o 782.999 745.060 0.00 1.54535 0.48
1 10 1 o 441.013 582.040 180.00 1.61331 0.29
0 10 2 o 495.278 500.650 0.00 1.62252 0.17
2 9 1 o 42.374 54.531 180.00 1.61179 0.03
4 0 0 o 1852.749 2268.338 0.00 1.65762 0.32
2 3 7 o 2337.050 2090.186 180.00 1.53677 1.41
4 1 1 o 1155.753 939.021 0.00 1.63599 0.79
1 3 8 o 243.710 177.733 0.00 1.49542 0.14
4 2 0 o 552.789 274.872 180.00 1.62617 0.19
3 5 4 o 183.832 502.500 180.00 1.59788 0.12
3 6 3 o 481.954 636.913 0.00 1.60577 0.32
3 1 6 o 11.421 8.789 180.00 1.52673 0.01
4 0 2 o 238.174 151.907 180.00 1.60443 0.08
0 4 8 o 2.391 1.740 0.00 1.49188 0.00
3 7 2 o 1920.706 1979.513 180.00 1.57455 1.21
3 4 5 o 53.953 45.787 180.00 1.55255 0.03
1 7 6 o 276.412 273.080 0.00 1.54745 0.17
0 11 1 o 6083.509 5584.959 180.00 1.51432 1.78
4 2 2 o 1426.875 1605.068 0.00 1.57586 0.90
1 8 5 o 430.438 455.452 180.00 1.57436 0.27
1 9 4 o 199.067 195.446 0.00 1.56427 0.12
4 3 1 o 802.433 778.046 180.00 1.57710 0.51
1 6 7 o 1276.605 891.845 0.00 1.48885 0.72
2 7 5 o 2046.869 2033.741 0.00 1.54599 1.25
2 0 8 o 1224.558 1156.781 180.00 1.43825 0.32
2 6 6 o 2886.551 3138.560 180.00 1.50815 1.68
1 10 3 o 10.857 9.883 180.00 1.51924 0.01
4 1 3 o 550.374 480.590 180.00 1.53813 0.33
2 8 4 o 2176.666 2314.220 180.00 1.54949 1.33
0 1 9 o 1801.094 2314.959 0.00 1.41388 0.46
2 10 0 o 392.868 270.655 0.00 1.49686 0.11
2 9 3 o 237.483 217.020 0.00 1.51796 0.14
4 4 0 o 1170.339 1501.905 0.00 1.54158 0.35
3 3 6 o 5.526 3.413 180.00 1.47853 0.00
3 8 1 o 89.819 93.967 0.00 1.51055 0.05
2 2 8 o 469.619 630.327 0.00 1.41756 0.24
0 8 6 o 1576.565 1255.187 180.00 1.49377 0.45
1 0 9 o 303.252 431.225 180.00 1.38751 0.07
2 5 7 o 2380.592 2157.868 0.00 1.44295 1.27
0 7 7 o 4671.625 4592.609 0.00 1.45160 1.26
1 5 8 o 108.745 130.179 180.00 1.40856 0.06
1 11 2 o 299.484 265.099 180.00 1.44757 0.16
0 3 9 o 27.207 32.750 0.00 1.37534 0.01
2 10 2 o 275.139 255.949 180.00 1.45735 0.15
0 10 4 o 251.280 139.045 180.00 1.48505 0.07
4 4 2 o 1993.685 1338.536 180.00 1.49852 1.14
4 3 3 o 2615.559 2028.008 0.00 1.48888 1.48
0 9 5 o 568.678 715.586 0.00 1.50565 0.16
4 0 4 o 1137.541 977.053 0.00 1.47114 0.32
1 2 9 o 48.423 47.765 180.00 1.36891 0.02
3 0 7 o 1243.913 1443.016 180.00 1.40694 0.32
4 5 1 o 2644.935 2365.164 0.00 1.47618 1.47
0 11 3 o 350.283 358.988 0.00 1.43572 0.09
4 2 4 o 804.539 698.306 180.00 1.44902 0.43
3 2 7 o 15.300 21.437 0.00 1.38756 0.01
0 6 8 o 0.119 0.173 180.00 1.38627 0.00
0 12 0 o 2128.778 2982.563 0.00 1.39799 0.27
3 6 5 o 27.332 30.643 180.00 1.43454 0.01
2 4 8 o 2336.169 2003.683 180.00 1.36047 1.11
3 7 4 o 63.040 56.160 0.00 1.44800 0.03
3 8 3 o 631.818 632.734 180.00 1.43250 0.33
4 6 0 o 4172.933 3766.901 180.00 1.42587 1.09
3 5 6 o 178.701 324.118 180.00 1.39442 0.09
1 4 9 o 62.709 62.465 0.00 1.31729 0.03
2 11 1 o 357.193 460.715 0.00 1.37743 0.17
1 12 1 o 10.536 8.789 180.00 1.36014 0.01
3 9 2 o 13.361 20.051 180.00 1.39069 0.01
4 1 5 o 761.677 1178.701 0.00 1.38569 0.38
0 12 2 o 4520.899 4358.883 180.00 1.36564 1.08
2 1 9 o 1184.974 1324.957 180.00 1.30054 0.52
0 5 9 o 29.990 32.774 0.00 1.30686 0.01
4 5 3 o 434.329 439.178 180.00 1.40309 0.22
0 0 10 o 4805.396 5338.865 180.00 1.27703 0.51
4 4 4 o 628.167 751.237 0.00 1.38821 0.31
4 6 2 o 725.936 1106.061 0.00 1.39159 0.36
3 4 7 o 45.670 73.223 0.00 1.33389 0.02
1 8 7 o 76.828 74.838 0.00 1.34764 0.04
1 9 6 o 276.705 239.440 180.00 1.37191 0.13
0 2 10 o 361.088 404.836 0.00 1.26248 0.07
2 8 6 o 3019.949 2652.435 0.00 1.36191 1.44
4 3 5 o 155.440 122.078 180.00 1.34936 0.07
2 7 7 o 2663.149 3221.834 180.00 1.32972 1.21
2 3 9 o 562.373 664.102 0.00 1.27036 0.23
1 10 5 o 164.980 133.649 0.00 1.37183 0.08
3 1 8 o 1150.787 1476.945 180.00 1.29023 0.49
1 1 10 o 35.293 73.415 0.00 1.25050 0.01
4 7 1 o 2898.826 2379.585 180.00 1.35559 1.37
2 10 4 o 1161.036 957.518 0.00 1.35529 0.55
1 11 4 o 21.667 22.034 180.00 1.34742 0.01
2 9 5 o 3417.596 3305.661 180.00 1.37089 1.65
3 10 1 o 151.267 184.833 0.00 1.32900 0.07
1 7 8 o 769.326 831.157 0.00 1.30266 0.34
4 0 6 o 1207.663 1258.433 180.00 1.30779 0.27
2 6 8 o 1856.676 1993.629 0.00 1.27896 0.78
2 11 3 o 1267.296 983.556 180.00 1.31748 0.57
2 12 0 o 451.680 542.031 180.00 1.28815 0.10
0 13 1 o 2693.084 2785.156 0.00 1.28392 0.57
1 12 3 o 118.501 126.038 180.00 1.30233 0.05
3 3 8 o 16.776 18.211 180.00 1.26074 0.01
1 3 10 o 1.627 2.176 180.00 1.22360 0.00
4 2 6 o 286.634 397.888 0.00 1.29217 0.12
0 4 10 o 1.242 1.406 180.00 1.22165 0.00
0 9 7 o 10.393 11.597 180.00 1.30379 0.00
1 6 9 o 0.000 147.089 180.00 1.24288 0.00
0 8 8 o 742.262 900.908 0.00 1.27015 0.15
4 8 0 o 1626.433 1653.836 0.00 1.30040 0.35
0 10 6 o 55.519 37.217 180.00 1.31753 0.01
3 7 6 o 32.683 47.065 0.00 1.29145 0.01
5 0 1 o 2494.228 2203.701 0.00 1.31900 0.56
0 11 5 o 321.274 382.526 0.00 1.30941 0.07
3 8 5 o 31.401 32.657 180.00 1.30697 0.01
4 6 4 o 196.290 186.411 180.00 1.30192 0.09
3 9 4 o 102.632 101.508 180.00 1.30118 0.04
0 12 4 o 212.340 211.832 180.00 1.28060 0.04
2 12 2 o 1271.138 1267.565 0.00 1.26271 0.52
4 7 3 o 475.111 614.301 0.00 1.29833 0.21
4 5 5 o 363.281 369.958 0.00 1.28451 0.15
5 2 1 o 425.893 496.274 0.00 1.30299 0.19
2 5 9 o 1548.034 1565.886 180.00 1.21581 0.59
3 6 7 o 504.749 667.291 180.00 1.25679 0.21
5 1 2 o 434.397 503.736 0.00 1.29452 0.19
1 13 2 o 0.000 29.534 180.00 1.24247 0.00
3 10 3 o 194.147 231.842 180.00 1.27491 0.08
0 7 9 o 508.299 512.237 0.00 1.22097 0.10
4 8 2 o 1451.209 1700.178 180.00 1.27424 0.61
4 4 6 o 15.222 32.259 180.00 1.24850 0.01
0 13 3 o 731.493 796.342 180.00 1.23495 0.14
4 1 7 o 390.461 479.439 180.00 1.22356 0.15
5 0 3 o 6.785 6.953 0.00 1.26608 0.00
3 5 8 o 213.231 267.857 0.00 1.20737 0.08
5 3 2 o 514.644 527.416 0.00 1.26474 0.21
3 11 2 o 375.381 588.612 0.00 1.23167 0.15
5 4 1 o 13.845 16.875 180.00 1.25824 0.01
5 2 3 o 343.080 430.635 0.00 1.25190 0.14
4 9 1 o 1110.315 1328.176 0.00 1.23289 0.44
5 1 4 o 7.429 7.838 0.00 1.22140 0.00
2 9 7 o 69.329 76.228 0.00 1.21333 0.03
1 10 7 o 110.625 117.876 180.00 1.21398 0.04
2 10 6 o 243.556 217.669 180.00 1.22438 0.09
2 11 5 o 60.280 46.563 180.00 1.21786 0.02
5 4 3 o 1213.075 1195.887 0.00 1.21205 0.46
1 11 6 o 93.714 75.311 0.00 1.21857 0.04
5 5 2 o 440.943 371.317 180.00 1.21088 0.17
