#------------------------------------------------------------------------------
#$Date: 2016-03-21 01:21:50 +0200 (Mon, 21 Mar 2016) $
#$Revision: 178377 $
#$URL: svn://www.crystallography.net/cod/cif/4/00/21/4002103.cif $
#------------------------------------------------------------------------------
#
# This file is available in the Crystallography Open Database (COD),
# http://www.crystallography.net/
#
# All data on this site have been placed in the public domain by the
# contributors.
#
data_4002103
loop_
_publ_author_name
'Nanthamathee, Chompoonoot'
'Ling, Sanliang'
'Slater, Ben'
'Attfield, Martin P.'
_publ_section_title
;
 Contradistinct Thermoresponsive Behavior of Isostructural MIL-53 Type
 Metal--Organic Frameworks by Modifying the Framework Inorganic Anion
;
_journal_name_full               'Chemistry of Materials'
_journal_page_first              141223143002002
_journal_paper_doi               10.1021/cm503311x
_journal_year                    2014
_chemical_formula_sum            'C8 Al F O4'
_chemical_formula_weight         206.06
_chemical_name_systematic        ' ?'
_space_group_IT_number           74
_symmetry_cell_setting           orthorhombic
_symmetry_space_group_name_Hall  '-I 2b 2'
_symmetry_space_group_name_H-M   'I m m a'
_audit_creation_date             2014-08-28T13:18
_audit_creation_method           'from EXP file using GSAS2CIF'
_audit_update_record
' 2014-08-28T13:18  Initial CIF as created by GSAS2CIF'
_cell_angle_alpha                90.0
_cell_angle_beta                 90.0
_cell_angle_gamma                90.0
_cell_formula_units_Z            4
_cell_length_a                   6.56806(17)
_cell_length_b                   16.3927(5)
_cell_length_c                   13.1667(7)
_cell_volume                     1417.64(9)
_computing_structure_refinement  GSAS
_diffrn_radiation_polarisn_ratio 0.95
_diffrn_radiation_probe          x-ray
_diffrn_radiation_wavelength     0.825993
_exptl_absorpt_correction_T_max  1.00000
_exptl_absorpt_correction_T_min  1.00000
_exptl_absorpt_process_details
;   GSAS Absorption/surface roughness correction: function number 0
 No correction is applied.
;
_pd_block_id                     2014-08-28T13:18|450K|450K|
_pd_calc_method                  'Rietveld Refinement'
_pd_instr_location               ' ?'
_pd_meas_2theta_range_inc        0.003
_pd_meas_2theta_range_max        149.9955
_pd_meas_2theta_range_min        0.0015
_pd_meas_number_of_points        49999
_pd_phase_name                   300K
_pd_proc_2theta_range_inc        0.003
_pd_proc_2theta_range_max        150.00475
_pd_proc_2theta_range_min        0.010746
_pd_proc_info_datetime           2014-08-28T13:18:25
_pd_proc_info_excluded_regions   ' ?'
_pd_proc_ls_background_function
;   GSAS Background function number 1 with  2 terms.
 Shifted Chebyshev function of 1st kind
      1:    0.00000     2:    0.00000    
;
_pd_proc_ls_peak_cutoff          0.00010
_pd_proc_ls_profile_function
;
 CW Profile function number 4 with  18 terms
 Pseudovoigt profile coefficients as parameterized in
 P. Thompson, D.E. Cox & J.B. Hastings (1987). J. Appl. Cryst.,20,79-83.
 Asymmetry correction of L.W. Finger, D.E. Cox & A. P. Jephcoat (1994).
 J. Appl. Cryst.,27,892-900.
 Microstrain broadening by P.W. Stephens,  (1999). J. Appl. Cryst.,32,281-289.
 Peak tails are ignored  where the intensity is below 0.0001 times the peak
   Aniso. broadening axis   1.0   0.0   1.0
;
_pd_proc_ls_prof_R_factor        0.0334
_pd_proc_ls_prof_wR_expected     0.0258
_pd_proc_ls_prof_wR_factor       0.0428
_pd_proc_number_of_points        49999
_pd_spec_mounting                ' ?'
_refine_ls_goodness_of_fit_all   1.66
_refine_ls_matrix_type           full
_refine_ls_number_parameters     30
_refine_ls_number_restraints     0
_refine_ls_R_Fsqd_factor         0.25896
_refine_ls_shift/su_max          0.04
_refine_ls_shift/su_mean         0.01
_reflns_d_resolution_high        1.209
_reflns_d_resolution_low         8.196
_reflns_limit_h_max              5
_reflns_limit_h_min              0
_reflns_limit_k_max              13
_reflns_limit_k_min              0
_reflns_limit_l_max              11
_reflns_limit_l_min              0
_reflns_number_total             252
_cod_data_source_file            alf450K.cif
_cod_data_source_block           450K_publ
_cod_depositor_comments
;
The following automatic conversions were performed:

'_geom_bond_publ_flag' value 'N' changed to 'n' according to
/home/saulius/struct/COD-crude-data--automatic-downloads/rss-feeds/ACS/lib/dictionaries/cif_core.dic
dictionary named 'cif_core.dic' version 2.4.2 from 2011-04-26 (1123
times).

'_geom_angle_publ_flag' value 'N' changed to 'n' according
to
/home/saulius/struct/COD-crude-data--automatic-downloads/rss-feeds/ACS/lib/dictionaries/cif_core.dic
dictionary named 'cif_core.dic' version 2.4.2 from 2011-04-26 (1800
times).

Automatic conversion script
Id: cif_fix_values 2935 2014-11-11 08:27:57Z andrius 
;
_cod_database_code               4002103
#BEGIN Tags that were not found in dictionaries:
_gsas_exptl_extinct_corr_t_min   1.00000
_gsas_exptl_extinct_corr_t_max   1.00000
#END Tags that were not found in dictionaries
loop_
_symmetry_equiv_pos_site_id
_symmetry_equiv_pos_as_xyz
1 +x,+y,+z
2 -x,+y,+z
3 +x,-y+1/2,+z
4 -x,-y+1/2,+z
-1 -x,-y,-z
-2 +x,-y,-z
-3 -x,+y+1/2,-z
-4 +x,+y+1/2,-z
101 +x+1/2,+y+1/2,+z+1/2
102 -x+1/2,+y+1/2,+z+1/2
103 +x+1/2,-y,+z+1/2
104 -x+1/2,-y,+z+1/2
-101 -x+1/2,-y+1/2,-z+1/2
-102 +x+1/2,-y+1/2,-z+1/2
-103 -x+1/2,+y,-z+1/2
-104 +x+1/2,+y,-z+1/2
loop_
_atom_site_type_symbol
_atom_site_label
_atom_site_fract_x
_atom_site_fract_y
_atom_site_fract_z
_atom_site_occupancy
_atom_site_thermal_displace_type
_atom_site_U_iso_or_equiv
_atom_site_symmetry_multiplicity
Al Al1 0.25 0.25 0.75 1.0 Uiso 0.0132(16) 4
F F1 0.0 0.25 0.6913(6) 1.0 Uiso 0.0157(14) 4
O O1 0.1658(6) 0.16882(26) 0.8394(4) 1.0 Uiso 0.0157(14) 16
C C1 -0.1949(7) 0.0266(6) 0.9538(7) 1.0 Uiso 0.0342(26) 16
C C2 0.0 0.0631(6) 0.9508(10) 1.0 Uiso 0.0342(26) 8
C C3 0.0 0.1363(7) 0.8717(10) 1.0 Uiso 0.0342(26) 8
loop_
_atom_type_symbol
_atom_type_number_in_cell
_atom_type_scat_dispersion_real
_atom_type_scat_dispersion_imag
_atom_type_scat_Cromer_Mann_a1
_atom_type_scat_Cromer_Mann_a2
_atom_type_scat_Cromer_Mann_a3
_atom_type_scat_Cromer_Mann_a4
_atom_type_scat_Cromer_Mann_b1
_atom_type_scat_Cromer_Mann_b2
_atom_type_scat_Cromer_Mann_b3
_atom_type_scat_Cromer_Mann_b4
_atom_type_scat_Cromer_Mann_c
_atom_type_scat_source
Al 4.0 0.000 0.000 6.42020 3.03870 1.90020 0.74260 1.59360 31.5472 1.96460
85.0886 1.11510 International_Tables_Vol_C
F 4.0 0.000 0.000 3.53920 10.2825 2.64120 4.29440 1.51700 0.26150 1.02430
26.1476 0.27760 International_Tables_Vol_C
O 16.0 0.000 0.000 3.04850 13.2771 2.28680 5.70110 1.54630 0.32390 0.86700
32.9089 0.25080 International_Tables_Vol_C
C 32.0 0.000 0.000 2.31000 20.8439 1.02000 10.2075 1.58860 0.56870 0.86500
51.6512 0.21560 International_Tables_Vol_C
loop_
_geom_angle_atom_site_label_1
_geom_angle_atom_site_label_2
_geom_angle_atom_site_label_3
_geom_angle
_geom_angle_site_symmetry_1
_geom_angle_site_symmetry_3
_geom_angle_publ_flag
Al1 Al1 Al1 180.0 1_455 1_655 n
Al1 Al1 Al1 0.0 1_455 2_455 n
Al1 Al1 Al1 0.0 1_455 2_555 n
Al1 Al1 Al1 180.0 1_455 2_655 n
Al1 Al1 Al1 90.0 1_455 -2_556 n
Al1 Al1 Al1 90.0 1_455 -2_557 n
Al1 Al1 Al1 90.0 1_455 -2_566 n
Al1 Al1 Al1 90.0 1_455 -2_567 n
Al1 Al1 F1 5.38(6) 1_455 1_455 n
Al1 Al1 F1 25.21(23) 1_455 1_555 n
Al1 Al1 F1 171.08(9) 1_455 1_655 n
Al1 Al1 F1 80.718(4) 1_455 -1_556 n
Al1 Al1 F1 80.718(4) 1_455 -1_566 n
Al1 Al1 F1 99.282(4) 1_455 101_545 n
Al1 Al1 F1 99.282(4) 1_455 101_555 n
Al1 Al1 F1 8.92(9) 1_455 -101_446 n
Al1 Al1 F1 154.79(23) 1_455 -101_546 n
Al1 Al1 F1 174.62(6) 1_455 -101_646 n
Al1 Al1 O1 14.011(30) 1_455 1_455 n
Al1 Al1 O1 72.71(13) 1_455 1_555 n
Al1 Al1 O1 163.541(30) 1_455 1_655 n
Al1 Al1 O1 10.819(21) 1_455 2_455 n
Al1 Al1 O1 33.05(6) 1_455 2_555 n
Al1 Al1 O1 155.15(5) 1_455 2_655 n
Al1 Al1 Al1 180.0 1_655 2_455 n
Al1 Al1 Al1 180.0 1_655 2_555 n
Al1 Al1 Al1 0.0 1_655 2_655 n
Al1 Al1 Al1 90.0 1_655 -2_556 n
Al1 Al1 Al1 90.0 1_655 -2_557 n
Al1 Al1 Al1 90.0 1_655 -2_566 n
Al1 Al1 Al1 90.0 1_655 -2_567 n
Al1 Al1 F1 174.62(6) 1_655 1_455 n
Al1 Al1 F1 154.79(23) 1_655 1_555 n
Al1 Al1 F1 8.92(9) 1_655 1_655 n
Al1 Al1 F1 99.282(4) 1_655 -1_556 n
Al1 Al1 F1 99.282(4) 1_655 -1_566 n
Al1 Al1 F1 80.718(4) 1_655 101_545 n
Al1 Al1 F1 80.718(4) 1_655 101_555 n
Al1 Al1 F1 171.08(9) 1_655 -101_446 n
Al1 Al1 F1 25.21(23) 1_655 -101_546 n
Al1 Al1 F1 5.38(6) 1_655 -101_646 n
Al1 Al1 O1 165.989(30) 1_655 1_455 n
Al1 Al1 O1 107.29(13) 1_655 1_555 n
Al1 Al1 O1 16.459(30) 1_655 1_655 n
Al1 Al1 O1 169.181(21) 1_655 2_455 n
Al1 Al1 O1 146.95(6) 1_655 2_555 n
Al1 Al1 O1 24.85(5) 1_655 2_655 n
Al1 Al1 Al1 0.0 2_455 2_555 n
Al1 Al1 Al1 180.0 2_455 2_655 n
Al1 Al1 Al1 90.0 2_455 -2_556 n
Al1 Al1 Al1 90.0 2_455 -2_557 n
Al1 Al1 Al1 90.0 2_455 -2_566 n
Al1 Al1 Al1 90.0 2_455 -2_567 n
Al1 Al1 F1 5.38(6) 2_455 1_455 n
Al1 Al1 F1 25.21(23) 2_455 1_555 n
Al1 Al1 F1 171.08(9) 2_455 1_655 n
Al1 Al1 F1 80.718(4) 2_455 -1_556 n
Al1 Al1 F1 80.718(4) 2_455 -1_566 n
Al1 Al1 F1 99.282(4) 2_455 101_545 n
Al1 Al1 F1 99.282(4) 2_455 101_555 n
Al1 Al1 F1 8.92(9) 2_455 -101_446 n
Al1 Al1 F1 154.79(23) 2_455 -101_546 n
Al1 Al1 F1 174.62(6) 2_455 -101_646 n
Al1 Al1 O1 14.011(30) 2_455 1_455 n
Al1 Al1 O1 72.71(13) 2_455 1_555 n
Al1 Al1 O1 163.541(30) 2_455 1_655 n
Al1 Al1 O1 10.819(21) 2_455 2_455 n
Al1 Al1 O1 33.05(6) 2_455 2_555 n
Al1 Al1 O1 155.15(5) 2_455 2_655 n
Al1 Al1 Al1 180.0 2_555 2_655 n
Al1 Al1 Al1 90.0 2_555 -2_556 n
Al1 Al1 Al1 90.0 2_555 -2_557 n
Al1 Al1 Al1 90.0 2_555 -2_566 n
Al1 Al1 Al1 90.0 2_555 -2_567 n
Al1 Al1 F1 5.38(6) 2_555 1_455 n
Al1 Al1 F1 25.21(23) 2_555 1_555 n
Al1 Al1 F1 171.08(9) 2_555 1_655 n
Al1 Al1 F1 80.718(4) 2_555 -1_556 n
Al1 Al1 F1 80.718(4) 2_555 -1_566 n
Al1 Al1 F1 99.282(4) 2_555 101_545 n
Al1 Al1 F1 99.282(4) 2_555 101_555 n
Al1 Al1 F1 8.92(9) 2_555 -101_446 n
Al1 Al1 F1 154.79(23) 2_555 -101_546 n
Al1 Al1 F1 174.62(6) 2_555 -101_646 n
Al1 Al1 O1 14.011(30) 2_555 1_455 n
Al1 Al1 O1 72.71(13) 2_555 1_555 n
Al1 Al1 O1 163.541(30) 2_555 1_655 n
Al1 Al1 O1 10.819(21) 2_555 2_455 n
Al1 Al1 O1 33.05(6) 2_555 2_555 n
Al1 Al1 O1 155.15(5) 2_555 2_655 n
Al1 Al1 Al1 90.0 2_655 -2_556 n
Al1 Al1 Al1 90.0 2_655 -2_557 n
Al1 Al1 Al1 90.0 2_655 -2_566 n
Al1 Al1 Al1 90.0 2_655 -2_567 n
Al1 Al1 F1 174.62(6) 2_655 1_455 n
Al1 Al1 F1 154.79(23) 2_655 1_555 n
Al1 Al1 F1 8.92(9) 2_655 1_655 n
Al1 Al1 F1 99.282(4) 2_655 -1_556 n
Al1 Al1 F1 99.282(4) 2_655 -1_566 n
Al1 Al1 F1 80.718(4) 2_655 101_545 n
Al1 Al1 F1 80.718(4) 2_655 101_555 n
Al1 Al1 F1 171.08(9) 2_655 -101_446 n
Al1 Al1 F1 25.21(23) 2_655 -101_546 n
Al1 Al1 F1 5.38(6) 2_655 -101_646 n
Al1 Al1 O1 165.989(30) 2_655 1_455 n
Al1 Al1 O1 107.29(13) 2_655 1_555 n
Al1 Al1 O1 16.459(30) 2_655 1_655 n
Al1 Al1 O1 169.181(21) 2_655 2_455 n
Al1 Al1 O1 146.95(6) 2_655 2_555 n
Al1 Al1 O1 24.85(5) 2_655 2_655 n
Al1 Al1 Al1 77.5432(35) -2_556 -2_557 n
Al1 Al1 Al1 102.4568(35) -2_556 -2_566 n
Al1 Al1 Al1 180.0 -2_556 -2_567 n
Al1 Al1 F1 86.635(35) -2_556 1_455 n
Al1 Al1 F1 74.53(14) -2_556 1_555 n
Al1 Al1 F1 84.43(6) -2_556 1_655 n
Al1 Al1 F1 9.893(17) -2_556 -1_556 n
Al1 Al1 F1 105.68(4) -2_556 -1_566 n
Al1 Al1 F1 74.32(4) -2_556 101_545 n
Al1 Al1 F1 170.107(17) -2_556 101_555 n
Al1 Al1 F1 95.57(6) -2_556 -101_446 n
Al1 Al1 F1 105.47(14) -2_556 -101_546 n
Al1 Al1 F1 93.365(35) -2_556 -101_646 n
Al1 Al1 O1 87.66(4) -2_556 1_455 n
Al1 Al1 O1 80.72(16) -2_556 1_555 n
Al1 Al1 O1 87.26(5) -2_556 1_655 n
Al1 Al1 O1 88.184(30) -2_556 2_455 n
Al1 Al1 O1 84.72(9) -2_556 2_555 n
Al1 Al1 O1 85.93(7) -2_556 2_655 n
Al1 Al1 Al1 180.0 -2_557 -2_566 n
Al1 Al1 Al1 102.4568(35) -2_557 -2_567 n
Al1 Al1 F1 93.365(35) -2_557 1_455 n
Al1 Al1 F1 105.47(14) -2_557 1_555 n
Al1 Al1 F1 95.57(6) -2_557 1_655 n
Al1 Al1 F1 74.32(4) -2_557 -1_556 n
Al1 Al1 F1 170.107(17) -2_557 -1_566 n
Al1 Al1 F1 9.893(17) -2_557 101_545 n
Al1 Al1 F1 105.68(4) -2_557 101_555 n
Al1 Al1 F1 84.43(6) -2_557 -101_446 n
Al1 Al1 F1 74.53(14) -2_557 -101_546 n
Al1 Al1 F1 86.635(35) -2_557 -101_646 n
Al1 Al1 O1 76.005(30) -2_557 1_455 n
Al1 Al1 O1 17.50(13) -2_557 1_555 n
Al1 Al1 O1 73.560(30) -2_557 1_655 n
Al1 Al1 O1 79.194(21) -2_557 2_455 n
Al1 Al1 O1 56.99(5) -2_557 2_555 n
Al1 Al1 O1 65.18(5) -2_557 2_655 n
Al1 Al1 Al1 77.5432(35) -2_566 -2_567 n
Al1 Al1 F1 86.635(35) -2_566 1_455 n
Al1 Al1 F1 74.53(14) -2_566 1_555 n
Al1 Al1 F1 84.43(6) -2_566 1_655 n
Al1 Al1 F1 105.68(4) -2_566 -1_556 n
Al1 Al1 F1 9.893(17) -2_566 -1_566 n
Al1 Al1 F1 170.107(17) -2_566 101_545 n
Al1 Al1 F1 74.32(4) -2_566 101_555 n
Al1 Al1 F1 95.57(6) -2_566 -101_446 n
Al1 Al1 F1 105.47(14) -2_566 -101_546 n
Al1 Al1 F1 93.365(35) -2_566 -101_646 n
Al1 Al1 O1 103.995(30) -2_566 1_455 n
Al1 Al1 O1 162.50(13) -2_566 1_555 n
Al1 Al1 O1 106.440(30) -2_566 1_655 n
Al1 Al1 O1 100.806(21) -2_566 2_455 n
Al1 Al1 O1 123.01(5) -2_566 2_555 n
Al1 Al1 O1 114.82(5) -2_566 2_655 n
Al1 Al1 F1 93.365(35) -2_567 1_455 n
Al1 Al1 F1 105.47(14) -2_567 1_555 n
Al1 Al1 F1 95.57(6) -2_567 1_655 n
Al1 Al1 F1 170.107(17) -2_567 -1_556 n
Al1 Al1 F1 74.32(4) -2_567 -1_566 n
Al1 Al1 F1 105.68(4) -2_567 101_545 n
Al1 Al1 F1 9.893(17) -2_567 101_555 n
Al1 Al1 F1 84.43(6) -2_567 -101_446 n
Al1 Al1 F1 74.53(14) -2_567 -101_546 n
Al1 Al1 F1 86.635(35) -2_567 -101_646 n
Al1 Al1 O1 92.34(4) -2_567 1_455 n
Al1 Al1 O1 99.28(16) -2_567 1_555 n
Al1 Al1 O1 92.74(5) -2_567 1_655 n
Al1 Al1 O1 91.816(30) -2_567 2_455 n
Al1 Al1 O1 95.28(9) -2_567 2_555 n
Al1 Al1 O1 94.07(7) -2_567 2_655 n
F1 Al1 F1 19.83(18) 1_455 1_555 n
F1 Al1 F1 165.70(15) 1_455 1_655 n
F1 Al1 F1 77.638(33) 1_455 -1_556 n
F1 Al1 F1 77.638(33) 1_455 -1_566 n
F1 Al1 F1 102.362(33) 1_455 101_545 n
F1 Al1 F1 102.362(33) 1_455 101_555 n
F1 Al1 F1 14.30(15) 1_455 -101_446 n
F1 Al1 F1 160.17(18) 1_455 -101_546 n
F1 Al1 F1 180.0 1_455 -101_646 n
F1 Al1 O1 18.02(6) 1_455 1_455 n
F1 Al1 O1 76.31(12) 1_455 1_555 n
F1 Al1 O1 166.51(4) 1_455 1_655 n
F1 Al1 O1 14.93(6) 1_455 2_455 n
F1 Al1 O1 36.81(8) 1_455 2_555 n
F1 Al1 O1 158.36(7) 1_455 2_655 n
F1 Al1 F1 145.87(32) 1_555 1_655 n
F1 Al1 F1 67.11(10) 1_555 -1_556 n
F1 Al1 F1 67.11(10) 1_555 -1_566 n
F1 Al1 F1 112.89(10) 1_555 101_545 n
F1 Al1 F1 112.89(10) 1_555 101_555 n
F1 Al1 F1 34.13(32) 1_555 -101_446 n
F1 Al1 F1 180.0 1_555 -101_546 n
F1 Al1 F1 160.17(18) 1_555 -101_646 n
F1 Al1 O1 35.95(23) 1_555 1_455 n
F1 Al1 O1 90.03(19) 1_555 1_555 n
F1 Al1 O1 161.38(16) 1_555 1_655 n
F1 Al1 O1 33.31(23) 1_555 2_455 n
F1 Al1 O1 52.82(23) 1_555 2_555 n
F1 Al1 O1 159.99(9) 1_555 2_655 n
F1 Al1 F1 94.06(5) 1_655 -1_556 n
F1 Al1 F1 94.06(5) 1_655 -1_566 n
F1 Al1 F1 85.94(5) 1_655 101_545 n
F1 Al1 F1 85.94(5) 1_655 101_555 n
F1 Al1 F1 180.0 1_655 -101_446 n
F1 Al1 F1 34.13(32) 1_655 -101_546 n
F1 Al1 F1 14.30(15) 1_655 -101_646 n
F1 Al1 O1 169.54(4) 1_655 1_455 n
F1 Al1 O1 113.06(16) 1_655 1_555 n
F1 Al1 O1 23.32(9) 1_655 1_655 n
F1 Al1 O1 171.744(28) 1_655 2_455 n
F1 Al1 O1 152.14(7) 1_655 2_555 n
F1 Al1 O1 31.43(9) 1_655 2_655 n
F1 Al1 F1 107.25(7) -1_556 -1_566 n
F1 Al1 F1 72.75(7) -1_556 101_545 n
F1 Al1 F1 180.0 -1_556 101_555 n
F1 Al1 F1 85.94(5) -1_556 -101_446 n
F1 Al1 F1 112.89(10) -1_556 -101_546 n
F1 Al1 F1 102.362(33) -1_556 -101_646 n
F1 Al1 O1 77.83(4) -1_556 1_455 n
F1 Al1 O1 74.79(15) -1_556 1_555 n
F1 Al1 O1 95.22(4) -1_556 1_655 n
F1 Al1 O1 78.428(29) -1_556 2_455 n
F1 Al1 O1 75.07(8) -1_556 2_555 n
F1 Al1 O1 92.98(7) -1_556 2_655 n
F1 Al1 F1 180.0 -1_566 101_545 n
F1 Al1 F1 72.75(7) -1_566 101_555 n
F1 Al1 F1 85.94(5) -1_566 -101_446 n
F1 Al1 F1 112.89(10) -1_566 -101_546 n
F1 Al1 F1 102.362(33) -1_566 -101_646 n
F1 Al1 O1 94.650(31) -1_566 1_455 n
F1 Al1 O1 152.73(14) -1_566 1_555 n
F1 Al1 O1 115.638(30) -1_566 1_655 n
F1 Al1 O1 91.475(21) -1_566 2_455 n
F1 Al1 O1 113.58(5) -1_566 2_555 n
F1 Al1 O1 123.96(5) -1_566 2_655 n
F1 Al1 F1 107.25(7) 101_545 101_555 n
F1 Al1 F1 94.06(5) 101_545 -101_446 n
F1 Al1 F1 67.11(10) 101_545 -101_546 n
F1 Al1 F1 77.638(33) 101_545 -101_646 n
F1 Al1 O1 85.350(31) 101_545 1_455 n
F1 Al1 O1 27.27(14) 101_545 1_555 n
F1 Al1 O1 64.362(30) 101_545 1_655 n
F1 Al1 O1 88.525(21) 101_545 2_455 n
F1 Al1 O1 66.42(5) 101_545 2_555 n
F1 Al1 O1 56.04(5) 101_545 2_655 n
F1 Al1 F1 94.06(5) 101_555 -101_446 n
F1 Al1 F1 67.11(10) 101_555 -101_546 n
F1 Al1 F1 77.638(33) 101_555 -101_646 n
F1 Al1 O1 102.17(4) 101_555 1_455 n
F1 Al1 O1 105.21(15) 101_555 1_555 n
F1 Al1 O1 84.78(4) 101_555 1_655 n
F1 Al1 O1 101.572(29) 101_555 2_455 n
F1 Al1 O1 104.93(8) 101_555 2_555 n
F1 Al1 O1 87.02(7) 101_555 2_655 n
F1 Al1 F1 145.87(32) -101_446 -101_546 n
F1 Al1 F1 165.70(15) -101_446 -101_646 n
F1 Al1 O1 10.46(4) -101_466 1_455 n
F1 Al1 O1 66.94(16) -101_466 1_555 n
F1 Al1 O1 156.68(9) -101_466 1_655 n
F1 Al1 O1 8.256(28) -101_466 2_455 n
F1 Al1 O1 27.86(7) -101_466 2_555 n
F1 Al1 O1 148.57(9) -101_466 2_655 n
F1 Al1 F1 19.83(18) -101_546 -101_646 n
F1 Al1 O1 144.05(23) -101_566 1_455 n
F1 Al1 O1 89.97(19) -101_566 1_555 n
F1 Al1 O1 18.62(16) -101_566 1_655 n
F1 Al1 O1 146.69(23) -101_566 2_455 n
F1 Al1 O1 127.18(23) -101_566 2_555 n
F1 Al1 O1 20.01(9) -101_566 2_655 n
F1 Al1 O1 161.98(6) -101_666 1_455 n
F1 Al1 O1 103.69(12) -101_666 1_555 n
F1 Al1 O1 13.49(4) -101_666 1_655 n
F1 Al1 O1 165.07(6) -101_666 2_455 n
F1 Al1 O1 143.19(8) -101_666 2_555 n
F1 Al1 O1 21.64(7) -101_666 2_655 n
O1 Al1 O1 58.70(11) 1_455 1_555 n
O1 Al1 O1 149.53(6) 1_455 1_655 n
O1 Al1 O1 3.193(14) 1_455 2_455 n
O1 Al1 O1 19.04(4) 1_455 2_555 n
O1 Al1 O1 141.14(8) 1_455 2_655 n
O1 Al1 O1 90.83(14) 1_555 1_655 n
O1 Al1 O1 61.89(12) 1_555 2_455 n
O1 Al1 O1 39.65(15) 1_555 2_555 n
O1 Al1 O1 82.44(17) 1_555 2_655 n
O1 Al1 O1 152.72(5) 1_655 2_455 n
O1 Al1 O1 130.49(8) 1_655 2_555 n
O1 Al1 O1 8.39(4) 1_655 2_655 n
O1 Al1 O1 22.23(4) 2_455 2_555 n
O1 Al1 O1 144.33(7) 2_455 2_655 n
O1 Al1 O1 122.10(9) 2_555 2_655 n
Al1 F1 Al1 145.87(32) 1_455 1_555 n
Al1 F1 Al1 165.70(15) 1_455 1_655 n
Al1 F1 Al1 3.54(4) 1_455 2_455 n
Al1 F1 Al1 16.29(14) 1_455 2_555 n
Al1 F1 Al1 162.16(18) 1_455 2_655 n
Al1 F1 Al1 85.94(5) 1_455 -1_556 n
Al1 F1 Al1 85.94(5) 1_455 -1_566 n
Al1 F1 Al1 104.35(5) 1_455 -2_556 n
Al1 F1 Al1 104.35(5) 1_455 -2_566 n
Al1 F1 F1 8.92(9) 1_455 1_455 n
Al1 F1 F1 171.08(9) 1_455 1_655 n
Al1 F1 F1 94.66(4) 1_455 -1_556 n
Al1 F1 F1 94.66(4) 1_455 -1_566 n
Al1 F1 F1 16.29(14) 1_455 -101_446 n
Al1 F1 F1 145.87(32) 1_455 -101_546 n
Al1 F1 F1 162.16(18) 1_455 -101_646 n
Al1 F1 O1 16.68(4) 1_455 1_455 n
Al1 F1 O1 107.30(19) 1_455 1_555 n
Al1 F1 O1 155.00(15) 1_455 1_655 n
Al1 F1 O1 10.955(31) 1_455 2_455 n
Al1 F1 O1 58.00(7) 1_455 2_555 n
Al1 F1 O1 148.93(16) 1_455 2_655 n
Al1 F1 O1 16.68(4) 1_455 3_455 n
Al1 F1 O1 107.30(19) 1_455 3_555 n
Al1 F1 Al1 19.83(18) 1_555 1_655 n
Al1 F1 Al1 149.41(29) 1_555 2_455 n
Al1 F1 Al1 129.6(5) 1_555 2_555 n
Al1 F1 Al1 16.29(14) 1_555 2_655 n
Al1 F1 Al1 112.89(10) 1_555 -1_556 n
Al1 F1 Al1 112.89(10) 1_555 -1_566 n
Al1 F1 Al1 95.58(12) 1_555 -2_556 n
Al1 F1 Al1 95.58(12) 1_555 -2_566 n
Al1 F1 F1 154.79(23) 1_555 1_455 n
Al1 F1 F1 25.21(23) 1_555 1_655 n
Al1 F1 F1 102.89(8) 1_555 -1_556 n
Al1 F1 F1 102.89(8) 1_555 -1_566 n
Al1 F1 F1 129.6(5) 1_555 -101_446 n
Al1 F1 F1 0.0 1_555 -101_546 n
Al1 F1 F1 16.29(14) 1_555 -101_646 n
Al1 F1 O1 133.76(30) 1_555 1_455 n
Al1 F1 O1 45.70(14) 1_555 1_555 n
Al1 F1 O1 14.47(12) 1_555 1_655 n
Al1 F1 O1 139.54(29) 1_555 2_455 n
Al1 F1 O1 93.40(33) 1_555 2_555 n
Al1 F1 O1 14.04(6) 1_555 2_655 n
Al1 F1 O1 133.76(30) 1_555 3_455 n
Al1 F1 O1 45.70(14) 1_555 3_555 n
Al1 F1 Al1 169.24(11) 1_655 2_455 n
Al1 F1 Al1 149.41(29) 1_655 2_555 n
Al1 F1 Al1 3.54(4) 1_655 2_655 n
Al1 F1 Al1 102.362(33) 1_655 -1_556 n
Al1 F1 Al1 102.362(33) 1_655 -1_566 n
Al1 F1 Al1 83.853(26) 1_655 -2_556 n
Al1 F1 Al1 83.853(26) 1_655 -2_566 n
Al1 F1 F1 174.62(6) 1_655 1_455 n
Al1 F1 F1 5.38(6) 1_655 1_655 n
Al1 F1 F1 92.813(23) 1_655 -1_556 n
Al1 F1 F1 92.813(23) 1_655 -1_566 n
Al1 F1 F1 149.41(29) 1_655 -101_446 n
Al1 F1 F1 19.83(18) 1_655 -101_546 n
Al1 F1 F1 3.54(4) 1_655 -101_646 n
Al1 F1 O1 152.09(12) 1_655 1_455 n
Al1 F1 O1 60.84(8) 1_655 1_555 n
Al1 F1 O1 13.043(24) 1_655 1_655 n
Al1 F1 O1 158.21(11) 1_655 2_455 n
Al1 F1 O1 110.28(16) 1_655 2_555 n
Al1 F1 O1 19.10(4) 1_655 2_655 n
Al1 F1 O1 152.09(12) 1_655 3_455 n
Al1 F1 O1 60.84(8) 1_655 3_555 n
Al1 F1 Al1 19.83(18) 2_455 2_555 n
Al1 F1 Al1 165.70(15) 2_455 2_655 n
Al1 F1 Al1 83.853(26) 2_455 -1_556 n
Al1 F1 Al1 83.853(26) 2_455 -1_566 n
Al1 F1 Al1 102.362(33) 2_455 -2_556 n
Al1 F1 Al1 102.362(33) 2_455 -2_566 n
Al1 F1 F1 5.38(6) 2_455 1_455 n
Al1 F1 F1 174.62(6) 2_455 1_655 n
Al1 F1 F1 92.813(23) 2_455 -1_556 n
Al1 F1 F1 92.813(23) 2_455 -1_566 n
Al1 F1 F1 19.83(18) 2_455 -101_446 n
Al1 F1 F1 149.41(29) 2_455 -101_546 n
Al1 F1 F1 165.70(15) 2_455 -101_646 n
Al1 F1 O1 19.10(4) 2_455 1_455 n
Al1 F1 O1 110.28(16) 2_455 1_555 n
Al1 F1 O1 158.21(11) 2_455 1_655 n
Al1 F1 O1 13.043(24) 2_455 2_455 n
Al1 F1 O1 60.84(8) 2_455 2_555 n
Al1 F1 O1 152.09(12) 2_455 2_655 n
Al1 F1 O1 19.10(4) 2_455 3_455 n
Al1 F1 O1 110.28(16) 2_455 3_555 n
Al1 F1 Al1 145.87(32) 2_555 2_655 n
Al1 F1 Al1 95.58(12) 2_555 -1_556 n
Al1 F1 Al1 95.58(12) 2_555 -1_566 n
Al1 F1 Al1 112.89(10) 2_555 -2_556 n
Al1 F1 Al1 112.89(10) 2_555 -2_566 n
Al1 F1 F1 25.21(23) 2_555 1_455 n
Al1 F1 F1 154.79(23) 2_555 1_655 n
Al1 F1 F1 102.89(8) 2_555 -1_556 n
Al1 F1 F1 102.89(8) 2_555 -1_566 n
Al1 F1 F1 0.0 2_555 -101_446 n
Al1 F1 F1 129.6(5) 2_555 -101_546 n
Al1 F1 F1 145.87(32) 2_555 -101_646 n
Al1 F1 O1 14.04(6) 2_555 1_455 n
Al1 F1 O1 93.40(33) 2_555 1_555 n
Al1 F1 O1 139.54(29) 2_555 1_655 n
Al1 F1 O1 14.47(12) 2_555 2_455 n
Al1 F1 O1 45.70(14) 2_555 2_555 n
Al1 F1 O1 133.76(30) 2_555 2_655 n
Al1 F1 O1 14.04(6) 2_555 3_455 n
Al1 F1 O1 93.40(33) 2_555 3_555 n
Al1 F1 Al1 104.35(5) 2_655 -1_556 n
Al1 F1 Al1 104.35(5) 2_655 -1_566 n
Al1 F1 Al1 85.94(5) 2_655 -2_556 n
Al1 F1 Al1 85.94(5) 2_655 -2_566 n
Al1 F1 F1 171.08(9) 2_655 1_455 n
Al1 F1 F1 8.92(9) 2_655 1_655 n
Al1 F1 F1 94.66(4) 2_655 -1_556 n
Al1 F1 F1 94.66(4) 2_655 -1_566 n
Al1 F1 F1 145.87(32) 2_655 -101_446 n
Al1 F1 F1 16.29(14) 2_655 -101_546 n
Al1 F1 F1 0.0 2_655 -101_646 n
Al1 F1 O1 148.93(16) 2_655 1_455 n
Al1 F1 O1 58.00(7) 2_655 1_555 n
Al1 F1 O1 10.955(31) 2_655 1_655 n
Al1 F1 O1 155.00(15) 2_655 2_455 n
Al1 F1 O1 107.30(19) 2_655 2_555 n
Al1 F1 O1 16.68(4) 2_655 2_655 n
Al1 F1 O1 148.93(16) 2_655 3_455 n
Al1 F1 O1 58.00(7) 2_655 3_555 n
Al1 F1 Al1 107.25(7) -1_556 -1_566 n
Al1 F1 Al1 18.564(9) -1_556 -2_556 n
Al1 F1 Al1 110.39(7) -1_556 -2_566 n
Al1 F1 F1 80.718(4) -1_556 1_455 n
Al1 F1 F1 99.282(4) -1_556 1_655 n
Al1 F1 F1 10.008(21) -1_556 -1_556 n
Al1 F1 F1 112.77(12) -1_556 -1_566 n
Al1 F1 F1 95.58(12) -1_556 -101_446 n
Al1 F1 F1 112.89(10) -1_556 -101_546 n
Al1 F1 F1 104.35(5) -1_556 -101_646 n
Al1 F1 O1 81.89(6) -1_556 1_455 n
Al1 F1 O1 94.80(13) -1_556 1_555 n
Al1 F1 O1 99.17(5) -1_556 1_655 n
Al1 F1 O1 81.44(5) -1_556 2_455 n
Al1 F1 O1 87.05(15) -1_556 2_555 n
Al1 F1 O1 98.93(6) -1_556 2_655 n
Al1 F1 O1 102.59(5) -1_556 3_455 n
Al1 F1 O1 155.19(12) -1_556 3_555 n
Al1 F1 Al1 110.39(7) -1_566 -2_556 n
Al1 F1 Al1 18.564(9) -1_566 -2_566 n
Al1 F1 F1 80.718(4) -1_566 1_455 n
Al1 F1 F1 99.282(4) -1_566 1_655 n
Al1 F1 F1 112.77(12) -1_566 -1_556 n
Al1 F1 F1 10.008(21) -1_566 -1_566 n
Al1 F1 F1 95.58(12) -1_566 -101_446 n
Al1 F1 F1 112.89(10) -1_566 -101_546 n
Al1 F1 F1 104.35(5) -1_566 -101_646 n
Al1 F1 O1 102.59(5) -1_566 1_455 n
Al1 F1 O1 155.19(12) -1_566 1_555 n
Al1 F1 O1 115.26(4) -1_566 1_655 n
Al1 F1 O1 96.807(34) -1_566 2_455 n
Al1 F1 O1 140.59(8) -1_566 2_555 n
Al1 F1 O1 120.95(5) -1_566 2_655 n
Al1 F1 O1 81.89(6) -1_566 3_455 n
Al1 F1 O1 94.80(13) -1_566 3_555 n
Al1 F1 Al1 107.25(7) -2_556 -2_566 n
Al1 F1 F1 99.282(4) -2_556 1_455 n
Al1 F1 F1 80.718(4) -2_556 1_655 n
Al1 F1 F1 10.008(21) -2_556 -1_556 n
Al1 F1 F1 112.77(12) -2_556 -1_566 n
Al1 F1 F1 112.89(10) -2_556 -101_446 n
Al1 F1 F1 95.58(12) -2_556 -101_546 n
Al1 F1 F1 85.94(5) -2_556 -101_646 n
Al1 F1 O1 98.93(6) -2_556 1_455 n
Al1 F1 O1 87.05(15) -2_556 1_555 n
Al1 F1 O1 81.44(5) -2_556 1_655 n
Al1 F1 O1 99.17(5) -2_556 2_455 n
Al1 F1 O1 94.80(13) -2_556 2_555 n
Al1 F1 O1 81.89(6) -2_556 2_655 n
Al1 F1 O1 120.95(5) -2_556 3_455 n
Al1 F1 O1 140.59(8) -2_556 3_555 n
Al1 F1 F1 99.282(4) -2_566 1_455 n
Al1 F1 F1 80.718(4) -2_566 1_655 n
Al1 F1 F1 112.77(12) -2_566 -1_556 n
Al1 F1 F1 10.008(21) -2_566 -1_566 n
Al1 F1 F1 112.89(10) -2_566 -101_446 n
Al1 F1 F1 95.58(12) -2_566 -101_546 n
Al1 F1 F1 85.94(5) -2_566 -101_646 n
Al1 F1 O1 120.95(5) -2_566 1_455 n
Al1 F1 O1 140.59(8) -2_566 1_555 n
Al1 F1 O1 96.807(34) -2_566 1_655 n
Al1 F1 O1 115.26(4) -2_566 2_455 n
Al1 F1 O1 155.19(12) -2_566 2_555 n
Al1 F1 O1 102.59(5) -2_566 2_655 n
Al1 F1 O1 98.93(6) -2_566 3_455 n
Al1 F1 O1 87.05(15) -2_566 3_555 n
F1 F1 F1 180.0 1_455 1_655 n
F1 F1 F1 90.0 1_455 -1_556 n
F1 F1 F1 90.0 1_455 -1_566 n
F1 F1 F1 25.21(23) 1_455 -101_446 n
F1 F1 F1 154.79(23) 1_455 -101_546 n
F1 F1 F1 171.08(9) 1_455 -101_646 n
F1 F1 O1 23.31(7) 1_455 1_455 n
F1 F1 O1 114.75(12) 1_455 1_555 n
F1 F1 O1 162.86(6) 1_455 1_655 n
F1 F1 O1 17.14(6) 1_455 2_455 n
F1 F1 O1 65.25(12) 1_455 2_555 n
F1 F1 O1 156.69(7) 1_455 2_655 n
F1 F1 O1 23.31(7) 1_455 3_455 n
F1 F1 O1 114.75(12) 1_455 3_555 n
F1 F1 F1 90.0 1_655 -1_556 n
F1 F1 F1 90.0 1_655 -1_566 n
F1 F1 F1 154.79(23) 1_655 -101_446 n
F1 F1 F1 25.21(23) 1_655 -101_546 n
F1 F1 F1 8.92(9) 1_655 -101_646 n
F1 F1 O1 156.69(7) 1_655 1_455 n
F1 F1 O1 65.25(12) 1_655 1_555 n
F1 F1 O1 17.14(6) 1_655 1_655 n
F1 F1 O1 162.86(6) 1_655 2_455 n
F1 F1 O1 114.75(12) 1_655 2_555 n
F1 F1 O1 23.31(7) 1_655 2_655 n
F1 F1 O1 156.69(7) 1_655 3_455 n
F1 F1 O1 65.25(12) 1_655 3_555 n
F1 F1 F1 116.85(16) -1_556 -1_566 n
F1 F1 F1 102.89(8) -1_556 -101_446 n
F1 F1 F1 102.89(8) -1_556 -101_546 n
F1 F1 F1 94.66(4) -1_556 -101_646 n
F1 F1 O1 88.92(5) -1_556 1_455 n
F1 F1 O1 87.52(12) -1_556 1_555 n
F1 F1 O1 89.20(4) -1_556 1_655 n
F1 F1 O1 89.20(4) -1_556 2_455 n
F1 F1 O1 87.52(12) -1_556 2_555 n
F1 F1 O1 88.92(5) -1_556 2_655 n
F1 F1 O1 111.17(4) -1_556 3_455 n
F1 F1 O1 145.98(12) -1_556 3_555 n
F1 F1 F1 102.89(8) -1_566 -101_446 n
F1 F1 F1 102.89(8) -1_566 -101_546 n
F1 F1 F1 94.66(4) -1_566 -101_646 n
F1 F1 O1 111.17(4) -1_566 1_455 n
F1 F1 O1 145.98(12) -1_566 1_555 n
F1 F1 O1 105.603(29) -1_566 1_655 n
F1 F1 O1 105.603(29) -1_566 2_455 n
F1 F1 O1 145.98(12) -1_566 2_555 n
F1 F1 O1 111.17(4) -1_566 2_655 n
F1 F1 O1 88.92(5) -1_566 3_455 n
F1 F1 O1 87.52(12) -1_566 3_555 n
F1 F1 F1 129.6(5) -101_446 -101_546 n
F1 F1 F1 145.87(32) -101_446 -101_646 n
F1 F1 O1 14.04(6) -101_466 1_455 n
F1 F1 O1 93.40(33) -101_466 1_555 n
F1 F1 O1 139.54(29) -101_466 1_655 n
F1 F1 O1 14.47(12) -101_466 2_455 n
F1 F1 O1 45.70(14) -101_466 2_555 n
F1 F1 O1 133.76(30) -101_466 2_655 n
F1 F1 O1 14.04(6) -101_466 3_455 n
F1 F1 O1 93.40(33) -101_466 3_555 n
F1 F1 F1 16.29(14) -101_546 -101_646 n
F1 F1 O1 133.76(30) -101_566 1_455 n
F1 F1 O1 45.70(14) -101_566 1_555 n
F1 F1 O1 14.47(12) -101_566 1_655 n
F1 F1 O1 139.54(29) -101_566 2_455 n
F1 F1 O1 93.40(33) -101_566 2_555 n
F1 F1 O1 14.04(6) -101_566 2_655 n
F1 F1 O1 133.76(30) -101_566 3_455 n
F1 F1 O1 45.70(14) -101_566 3_555 n
F1 F1 O1 148.93(16) -101_666 1_455 n
F1 F1 O1 58.00(7) -101_666 1_555 n
F1 F1 O1 10.955(31) -101_666 1_655 n
F1 F1 O1 155.00(15) -101_666 2_455 n
F1 F1 O1 107.30(19) -101_666 2_555 n
F1 F1 O1 16.68(4) -101_666 2_655 n
F1 F1 O1 148.93(16) -101_666 3_455 n
F1 F1 O1 58.00(7) -101_666 3_555 n
O1 F1 O1 91.44(17) 1_455 1_555 n
O1 F1 O1 139.55(12) 1_455 1_655 n
O1 F1 O1 6.175(25) 1_455 2_455 n
O1 F1 O1 41.93(9) 1_455 2_555 n
O1 F1 O1 133.37(14) 1_455 2_655 n
O1 F1 O1 25.77(9) 1_455 3_455 n
O1 F1 O1 104.68(24) 1_455 3_555 n
O1 F1 O1 48.11(7) 1_555 1_655 n
O1 F1 O1 97.61(17) 1_555 2_455 n
O1 F1 O1 49.51(23) 1_555 2_555 n
O1 F1 O1 41.93(9) 1_555 2_655 n
O1 F1 O1 104.68(24) 1_555 3_455 n
O1 F1 O1 61.56(29) 1_555 3_555 n
O1 F1 O1 145.72(11) 1_655 2_455 n
O1 F1 O1 97.61(17) 1_655 2_555 n
O1 F1 O1 6.175(25) 1_655 2_655 n
O1 F1 O1 146.62(16) 1_655 3_455 n
O1 F1 O1 60.15(8) 1_655 3_555 n
O1 F1 O1 48.11(7) 2_455 2_555 n
O1 F1 O1 139.55(12) 2_455 2_655 n
O1 F1 O1 23.06(7) 2_455 3_455 n
O1 F1 O1 107.61(22) 2_455 3_555 n
O1 F1 O1 91.44(17) 2_555 2_655 n
O1 F1 O1 58.96(11) 2_555 3_455 n
O1 F1 O1 82.8(4) 2_555 3_555 n
O1 F1 O1 141.83(18) 2_655 3_455 n
O1 F1 O1 58.96(11) 2_655 3_555 n
O1 F1 O1 91.44(17) 3_455 3_555 n
Al1 O1 Al1 90.83(14) 1_455 1_555 n
Al1 O1 Al1 149.53(6) 1_455 1_655 n
Al1 O1 Al1 5.640(10) 1_455 2_455 n
Al1 O1 Al1 16.594(30) 1_455 2_555 n
Al1 O1 Al1 138.69(8) 1_455 2_655 n
Al1 O1 Al1 75.85(4) 1_455 -1_556 n
Al1 O1 Al1 89.079(35) 1_455 -1_557 n
Al1 O1 Al1 130.13(4) 1_455 -1_657 n
Al1 O1 Al1 71.895(29) 1_455 -2_457 n
Al1 O1 Al1 92.93(5) 1_455 -2_556 n
Al1 O1 Al1 110.05(4) 1_455 -2_557 n
Al1 O1 Al1 87.51(5) 1_455 -2_567 n
Al1 O1 F1 4.15(4) 1_455 1_455 n
Al1 O1 F1 49.38(11) 1_455 1_555 n
Al1 O1 F1 140.53(9) 1_455 1_655 n
Al1 O1 F1 84.76(5) 1_455 -1_556 n
Al1 O1 F1 99.74(4) 1_455 -1_557 n
Al1 O1 F1 137.14(4) 1_455 -1_657 n
Al1 O1 F1 78.502(31) 1_455 101_445 n
Al1 O1 F1 121.15(4) 1_455 101_545 n
Al1 O1 F1 95.06(5) 1_455 101_555 n
Al1 O1 F1 7.25(8) 1_455 -101_446 n
Al1 O1 F1 132.24(15) 1_455 -101_546 n
Al1 O1 F1 155.06(6) 1_455 -101_646 n
Al1 O1 Al1 58.70(11) 1_555 1_655 n
Al1 O1 Al1 96.47(13) 1_555 2_455 n
Al1 O1 Al1 74.24(13) 1_555 2_555 n
Al1 O1 Al1 47.86(9) 1_555 2_655 n
Al1 O1 Al1 94.33(16) 1_555 -1_556 n
Al1 O1 Al1 176.85(19) 1_555 -1_557 n
Al1 O1 Al1 138.87(15) 1_555 -1_657 n
Al1 O1 Al1 162.50(14) 1_555 -2_457 n
Al1 O1 Al1 89.08(16) 1_555 -2_556 n
Al1 O1 Al1 158.83(16) 1_555 -2_557 n
Al1 O1 Al1 71.08(15) 1_555 -2_567 n
Al1 O1 F1 90.64(13) 1_555 1_455 n
Al1 O1 F1 44.26(9) 1_555 1_555 n
Al1 O1 F1 50.26(12) 1_555 1_655 n
Al1 O1 F1 94.72(16) 1_555 -1_556 n
Al1 O1 F1 169.42(15) 1_555 -1_557 n
Al1 O1 F1 132.03(13) 1_555 -1_657 n
Al1 O1 F1 167.40(15) 1_555 101_445 n
Al1 O1 F1 147.02(16) 1_555 101_545 n
Al1 O1 F1 65.23(14) 1_555 101_555 n
Al1 O1 F1 91.15(17) 1_555 -101_446 n
Al1 O1 F1 44.30(14) 1_555 -101_546 n
Al1 O1 F1 64.55(11) 1_555 -101_646 n
Al1 O1 Al1 155.17(5) 1_655 2_455 n
Al1 O1 Al1 132.94(8) 1_655 2_555 n
Al1 O1 Al1 10.838(25) 1_655 2_655 n
Al1 O1 Al1 104.31(5) 1_655 -1_556 n
Al1 O1 Al1 121.34(5) 1_655 -1_557 n
Al1 O1 Al1 80.28(4) 1_655 -1_657 n
Al1 O1 Al1 138.52(5) 1_655 -2_457 n
Al1 O1 Al1 87.03(5) 1_655 -2_556 n
Al1 O1 Al1 100.37(5) 1_655 -2_557 n
Al1 O1 Al1 82.68(4) 1_655 -2_567 n
Al1 O1 F1 149.09(7) 1_655 1_455 n
Al1 O1 F1 101.13(11) 1_655 1_555 n
Al1 O1 F1 10.29(7) 1_655 1_655 n
Al1 O1 F1 96.87(5) 1_655 -1_556 n
Al1 O1 F1 110.73(5) 1_655 -1_557 n
Al1 O1 F1 73.334(34) 1_655 -1_657 n
Al1 O1 F1 131.70(5) 1_655 101_445 n
Al1 O1 F1 89.05(5) 1_655 101_545 n
Al1 O1 F1 73.272(32) 1_655 101_555 n
Al1 O1 F1 149.08(9) 1_655 -101_446 n
Al1 O1 F1 20.38(7) 1_655 -101_546 n
Al1 O1 F1 6.90(5) 1_655 -101_646 n
Al1 O1 Al1 22.23(4) 2_455 2_555 n
Al1 O1 Al1 144.33(7) 2_455 2_655 n
Al1 O1 Al1 75.502(29) 2_455 -1_556 n
Al1 O1 Al1 83.447(27) 2_455 -1_557 n
Al1 O1 Al1 124.507(33) 2_455 -1_657 n
Al1 O1 Al1 66.262(21) 2_455 -2_457 n
Al1 O1 Al1 93.00(4) 2_455 -2_556 n
Al1 O1 Al1 104.423(32) 2_455 -2_557 n
Al1 O1 Al1 89.36(4) 2_455 -2_567 n
Al1 O1 F1 7.15(6) 2_455 1_455 n
Al1 O1 F1 54.79(12) 2_455 1_555 n
Al1 O1 F1 146.10(8) 2_455 1_655 n
Al1 O1 F1 84.331(33) 2_455 -1_556 n
Al1 O1 F1 94.095(31) 2_455 -1_557 n
Al1 O1 F1 131.496(33) 2_455 -1_657 n
Al1 O1 F1 72.901(24) 2_455 101_445 n
Al1 O1 F1 115.57(4) 2_455 101_545 n
Al1 O1 F1 97.40(4) 2_455 101_555 n
Al1 O1 F1 8.977(32) 2_455 -101_446 n
Al1 O1 F1 137.59(14) 2_455 -101_546 n
Al1 O1 F1 160.62(5) 2_455 -101_646 n
Al1 O1 Al1 122.10(9) 2_555 2_655 n
Al1 O1 Al1 77.66(8) 2_555 -1_556 n
Al1 O1 Al1 105.65(6) 2_555 -1_557 n
Al1 O1 Al1 146.67(7) 2_555 -1_657 n
Al1 O1 Al1 88.47(6) 2_555 -2_457 n
Al1 O1 Al1 92.55(9) 2_555 -2_556 n
Al1 O1 Al1 126.61(7) 2_555 -2_557 n
Al1 O1 Al1 82.28(9) 2_555 -2_567 n
Al1 O1 F1 16.91(4) 2_555 1_455 n
Al1 O1 F1 33.78(11) 2_555 1_555 n
Al1 O1 F1 124.09(10) 2_555 1_655 n
Al1 O1 F1 86.31(8) 2_555 -1_556 n
Al1 O1 F1 116.33(7) 2_555 -1_557 n
Al1 O1 F1 153.73(7) 2_555 -1_657 n
Al1 O1 F1 94.98(6) 2_555 101_445 n
Al1 O1 F1 137.51(7) 2_555 101_545 n
Al1 O1 F1 88.01(8) 2_555 101_555 n
Al1 O1 F1 18.37(10) 2_555 -101_446 n
Al1 O1 F1 116.27(16) 2_555 -101_546 n
Al1 O1 F1 138.60(8) 2_555 -101_646 n
Al1 O1 Al1 103.36(8) 2_655 -1_556 n
Al1 O1 Al1 132.15(8) 2_655 -1_557 n
Al1 O1 Al1 91.10(6) 2_655 -1_657 n
Al1 O1 Al1 149.33(8) 2_655 -2_457 n
Al1 O1 Al1 87.22(7) 2_655 -2_556 n
Al1 O1 Al1 111.18(7) 2_655 -2_557 n
Al1 O1 Al1 79.52(6) 2_655 -2_567 n
Al1 O1 F1 138.34(8) 2_655 1_455 n
Al1 O1 F1 90.57(11) 2_655 1_555 n
Al1 O1 F1 5.975(34) 2_655 1_655 n
Al1 O1 F1 97.01(8) 2_655 -1_556 n
Al1 O1 F1 121.57(7) 2_655 -1_557 n
Al1 O1 F1 84.17(6) 2_655 -1_657 n
Al1 O1 F1 142.38(8) 2_655 101_445 n
Al1 O1 F1 99.80(7) 2_655 101_545 n
Al1 O1 F1 70.00(6) 2_655 101_555 n
Al1 O1 F1 138.50(11) 2_655 -101_446 n
Al1 O1 F1 13.83(9) 2_655 -101_546 n
Al1 O1 F1 17.04(5) 2_655 -101_646 n
Al1 O1 Al1 82.597(31) -1_556 -1_557 n
Al1 O1 Al1 92.97(4) -1_556 -1_657 n
Al1 O1 Al1 79.042(25) -1_556 -2_457 n
Al1 O1 Al1 17.820(8) -1_556 -2_556 n
Al1 O1 Al1 87.76(4) -1_556 -2_557 n
Al1 O1 Al1 157.87(4) -1_556 -2_567 n
Al1 O1 F1 71.73(5) -1_556 1_455 n
Al1 O1 F1 71.21(15) -1_556 1_555 n
Al1 O1 F1 98.06(10) -1_556 1_655 n
Al1 O1 F1 8.922(8) -1_556 -1_556 n
Al1 O1 F1 88.76(4) -1_556 -1_557 n
Al1 O1 F1 97.88(4) -1_556 -1_657 n
Al1 O1 F1 76.68(5) -1_556 101_445 n
Al1 O1 F1 86.76(6) -1_556 101_545 n
Al1 O1 F1 157.83(6) -1_556 101_555 n
Al1 O1 F1 83.05(9) -1_556 -101_446 n
Al1 O1 F1 115.50(16) -1_556 -101_546 n
Al1 O1 F1 108.35(5) -1_556 -101_646 n
Al1 O1 Al1 41.062(16) -1_557 -1_657 n
Al1 O1 Al1 17.186(6) -1_557 -2_457 n
Al1 O1 Al1 87.78(4) -1_557 -2_556 n
Al1 O1 Al1 20.977(8) -1_557 -2_557 n
Al1 O1 Al1 112.05(5) -1_557 -2_567 n
Al1 O1 F1 89.04(5) -1_557 1_455 n
Al1 O1 F1 134.57(9) -1_557 1_555 n
Al1 O1 F1 129.36(6) -1_557 1_655 n
Al1 O1 F1 82.14(5) -1_557 -1_556 n
Al1 O1 F1 11.251(16) -1_557 -1_557 n
Al1 O1 F1 48.169(23) -1_557 -1_657 n
Al1 O1 F1 11.171(28) -1_557 101_445 n
Al1 O1 F1 32.465(19) -1_557 101_545 n
Al1 O1 F1 117.91(7) -1_557 101_555 n
Al1 O1 F1 89.16(6) -1_557 -101_446 n
Al1 O1 F1 136.71(17) -1_557 -101_546 n
Al1 O1 F1 115.72(6) -1_557 -101_646 n
Al1 O1 Al1 58.249(19) -1_657 -2_457 n
Al1 O1 Al1 85.77(4) -1_657 -2_556 n
Al1 O1 Al1 20.085(9) -1_657 -2_557 n
Al1 O1 Al1 108.99(4) -1_657 -2_567 n
Al1 O1 F1 129.91(5) -1_657 1_455 n
Al1 O1 F1 164.03(20) -1_657 1_555 n
Al1 O1 F1 88.65(6) -1_657 1_655 n
Al1 O1 F1 86.84(5) -1_657 -1_556 n
Al1 O1 F1 30.653(12) -1_657 -1_557 n
Al1 O1 F1 7.733(4) -1_657 -1_657 n
Al1 O1 F1 51.700(25) -1_657 101_445 n
Al1 O1 F1 9.709(11) -1_657 101_545 n
Al1 O1 F1 108.02(6) -1_657 101_555 n
Al1 O1 F1 129.92(8) -1_657 -101_446 n
Al1 O1 F1 96.72(15) -1_657 -101_546 n
Al1 O1 F1 74.73(5) -1_657 -101_646 n
Al1 O1 Al1 89.034(30) -2_457 -2_556 n
Al1 O1 Al1 38.163(13) -2_457 -2_557 n
Al1 O1 Al1 109.85(4) -2_457 -2_567 n
Al1 O1 F1 71.92(5) -2_457 1_455 n
Al1 O1 F1 118.43(10) -2_457 1_555 n
Al1 O1 F1 146.27(6) -2_457 1_655 n
Al1 O1 F1 81.25(4) -2_457 -1_556 n
Al1 O1 F1 28.034(13) -2_457 -1_557 n
Al1 O1 F1 65.315(24) -2_457 -1_657 n
Al1 O1 F1 7.610(10) -2_457 101_445 n
Al1 O1 F1 49.547(21) -2_457 101_545 n
Al1 O1 F1 117.83(7) -2_457 101_555 n
Al1 O1 F1 72.08(6) -2_457 -101_446 n
Al1 O1 F1 152.84(18) -2_457 -101_546 n
Al1 O1 F1 132.87(6) -2_457 -101_646 n
Al1 O1 Al1 86.54(4) -2_556 -2_557 n
Al1 O1 Al1 160.16(4) -2_556 -2_567 n
Al1 O1 F1 88.78(6) -2_556 1_455 n
Al1 O1 F1 78.45(18) -2_556 1_555 n
Al1 O1 F1 81.61(9) -2_556 1_655 n
Al1 O1 F1 9.863(13) -2_556 -1_556 n
Al1 O1 F1 90.84(4) -2_556 -1_557 n
Al1 O1 F1 88.86(4) -2_556 -1_657 n
Al1 O1 F1 84.83(6) -2_556 101_445 n
Al1 O1 F1 81.98(7) -2_556 101_545 n
Al1 O1 F1 153.14(6) -2_556 101_555 n
Al1 O1 F1 100.18(9) -2_556 -101_446 n
Al1 O1 F1 100.21(15) -2_556 -101_546 n
Al1 O1 F1 90.71(4) -2_556 -101_646 n
Al1 O1 Al1 111.94(5) -2_557 -2_567 n
Al1 O1 F1 109.93(5) -2_557 1_455 n
Al1 O1 F1 152.98(10) -2_557 1_555 n
Al1 O1 F1 108.59(6) -2_557 1_655 n
Al1 O1 F1 84.17(5) -2_557 -1_556 n
Al1 O1 F1 11.009(11) -2_557 -1_557 n
Al1 O1 F1 27.288(17) -2_557 -1_657 n
Al1 O1 F1 31.715(22) -2_557 101_445 n
Al1 O1 F1 11.963(23) -2_557 101_545 n
Al1 O1 F1 114.41(7) -2_557 101_555 n
Al1 O1 F1 110.00(7) -2_557 -101_446 n
Al1 O1 F1 116.38(16) -2_557 -101_546 n
Al1 O1 F1 94.78(6) -2_557 -101_646 n
Al1 O1 F1 91.37(6) -2_567 1_455 n
Al1 O1 F1 86.92(16) -2_567 1_555 n
Al1 O1 F1 85.47(6) -2_567 1_655 n
Al1 O1 F1 163.75(5) -2_567 -1_556 n
Al1 O1 F1 108.65(5) -2_567 -1_557 n
Al1 O1 F1 104.24(4) -2_567 -1_657 n
Al1 O1 F1 114.62(7) -2_567 101_445 n
Al1 O1 F1 114.62(7) -2_567 101_545 n
Al1 O1 F1 9.525(20) -2_567 101_555 n
Al1 O1 F1 80.77(7) -2_567 -101_446 n
Al1 O1 F1 65.75(12) -2_567 -101_546 n
Al1 O1 F1 80.93(4) -2_567 -101_646 n
F1 O1 F1 48.11(7) 1_455 1_555 n
F1 O1 F1 139.55(12) 1_455 1_655 n
F1 O1 F1 80.65(5) 1_455 -1_556 n
F1 O1 F1 99.93(6) 1_455 -1_557 n
F1 O1 F1 137.20(5) 1_455 -1_657 n
F1 O1 F1 78.229(34) 1_455 101_445 n
F1 O1 F1 120.63(5) 1_455 101_545 n
F1 O1 F1 98.74(5) 1_455 101_555 n
F1 O1 F1 11.40(12) 1_455 -101_446 n
F1 O1 F1 133.18(13) 1_455 -101_546 n
F1 O1 F1 155.20(5) 1_455 -101_646 n
F1 O1 F1 91.44(17) 1_555 1_655 n
F1 O1 F1 77.19(14) 1_555 -1_556 n
F1 O1 F1 145.81(10) 1_555 -1_557 n
F1 O1 F1 166.51(19) 1_555 -1_657 n
F1 O1 F1 123.42(9) 1_555 101_445 n
F1 O1 F1 157.36(18) 1_555 101_545 n
F1 O1 F1 87.45(12) 1_555 101_555 n
F1 O1 F1 52.15(21) 1_555 -101_446 n
F1 O1 F1 88.56(14) 1_555 -101_546 n
F1 O1 F1 107.61(8) 1_555 -101_646 n
F1 O1 F1 91.43(8) 1_655 -1_556 n
F1 O1 F1 119.30(6) 1_655 -1_557 n
F1 O1 F1 82.08(7) 1_655 -1_657 n
F1 O1 F1 138.94(6) 1_655 101_445 n
F1 O1 F1 96.90(5) 1_655 101_545 n
F1 O1 F1 75.95(5) 1_655 101_555 n
F1 O1 F1 141.41(8) 1_655 -101_446 n
F1 O1 F1 19.80(12) 1_655 -101_546 n
F1 O1 F1 17.19(12) 1_655 -101_646 n
F1 O1 F1 86.782(33) -1_556 -1_557 n
F1 O1 F1 91.09(4) -1_556 -1_657 n
F1 O1 F1 77.79(8) -1_556 101_445 n
F1 O1 F1 81.58(9) -1_556 101_545 n
F1 O1 F1 159.95(4) -1_556 101_555 n
F1 O1 F1 91.96(9) -1_556 -101_446 n
F1 O1 F1 109.85(17) -1_556 -101_546 n
F1 O1 F1 100.44(5) -1_556 -101_646 n
F1 O1 F1 37.400(25) -1_557 -1_657 n
F1 O1 F1 22.42(4) -1_557 101_445 n
F1 O1 F1 22.972(34) -1_557 101_545 n
F1 O1 F1 112.91(5) -1_557 101_555 n
F1 O1 F1 99.27(7) -1_557 -101_446 n
F1 O1 F1 125.48(18) -1_557 -101_546 n
F1 O1 F1 104.87(6) -1_557 -101_646 n
F1 O1 F1 59.003(23) -1_657 101_445 n
F1 O1 F1 17.442(14) -1_657 101_545 n
F1 O1 F1 102.30(4) -1_657 101_555 n
F1 O1 F1 136.25(10) -1_657 -101_446 n
F1 O1 F1 89.20(15) -1_657 -101_546 n
F1 O1 F1 67.56(4) -1_657 -101_646 n
F1 O1 F1 42.677(26) 101_445 101_545 n
F1 O1 F1 121.90(10) 101_445 101_555 n
F1 O1 F1 79.12(7) 101_445 -101_446 n
F1 O1 F1 147.86(16) 101_445 -101_546 n
F1 O1 F1 126.41(5) 101_445 -101_646 n
F1 O1 F1 114.97(9) 101_545 101_555 n
F1 O1 F1 121.61(6) 101_545 -101_446 n
F1 O1 F1 106.15(15) 101_545 -101_546 n
F1 O1 F1 83.79(6) 101_545 -101_646 n
F1 O1 F1 88.61(7) 101_555 -101_446 n
F1 O1 F1 56.25(14) 101_555 -101_546 n
F1 O1 F1 71.76(4) 101_555 -101_646 n
F1 O1 F1 130.00(16) -101_446 -101_546 n
F1 O1 F1 153.34(8) -101_446 -101_646 n
F1 O1 F1 23.34(9) -101_546 -101_646 n
Al1 C1 Al1 71.53(8) 1_455 1_555 n
Al1 C1 Al1 103.20(7) 1_455 1_655 n
Al1 C1 Al1 18.003(18) 1_455 2_455 n
Al1 C1 Al1 34.21(5) 1_455 2_555 n
Al1 C1 Al1 92.58(7) 1_455 2_655 n
Al1 C1 Al1 91.94(5) 1_455 -1_457 n
Al1 C1 Al1 80.83(10) 1_455 -1_556 n
Al1 C1 Al1 137.56(8) 1_455 -1_557 n
Al1 C1 Al1 172.00(11) 1_455 -1_657 n
Al1 C1 Al1 70.23(9) 1_455 -2_456 n
Al1 C1 Al1 109.74(7) 1_455 -2_457 n
Al1 C1 Al1 92.20(11) 1_455 -2_556 n
Al1 C1 Al1 166.72(9) 1_455 -2_557 n
Al1 C1 F1 9.249(18) 1_455 1_455 n
Al1 C1 F1 53.45(6) 1_455 1_555 n
Al1 C1 F1 106.51(14) 1_455 1_556 n
Al1 C1 F1 96.27(7) 1_455 1_655 n
Al1 C1 F1 66.54(9) 1_455 -1_456 n
Al1 C1 F1 101.65(7) 1_455 -1_457 n
Al1 C1 F1 88.47(11) 1_455 -1_556 n
Al1 C1 F1 151.04(9) 1_455 -1_557 n
Al1 C1 F1 166.58(11) 1_455 -1_657 n
Al1 C1 F1 121.22(7) 1_455 101_445 n
Al1 C1 F1 178.47(17) 1_455 101_545 n
Al1 C1 Al1 31.668(33) 1_555 1_655 n
Al1 C1 Al1 89.54(9) 1_555 2_455 n
Al1 C1 Al1 37.33(4) 1_555 2_555 n
Al1 C1 Al1 21.047(21) 1_555 2_655 n
Al1 C1 Al1 163.22(11) 1_555 -1_457 n
Al1 C1 Al1 82.58(11) 1_555 -1_556 n
Al1 C1 Al1 150.40(11) 1_555 -1_557 n
Al1 C1 Al1 101.07(7) 1_555 -1_657 n
Al1 C1 Al1 92.33(12) 1_555 -2_456 n
Al1 C1 Al1 175.95(21) 1_555 -2_457 n
Al1 C1 Al1 73.14(10) 1_555 -2_556 n
Al1 C1 Al1 121.04(9) 1_555 -2_557 n
Al1 C1 F1 79.43(7) 1_555 1_455 n
Al1 C1 F1 19.61(4) 1_555 1_555 n
Al1 C1 F1 99.07(14) 1_555 1_556 n
Al1 C1 F1 25.03(4) 1_555 1_655 n
Al1 C1 F1 99.00(12) 1_555 -1_456 n
Al1 C1 F1 169.96(17) 1_555 -1_457 n
Al1 C1 F1 79.10(11) 1_555 -1_556 n
Al1 C1 F1 135.16(10) 1_555 -1_557 n
Al1 C1 F1 96.48(6) 1_555 -1_657 n
Al1 C1 F1 167.15(12) 1_555 101_445 n
Al1 C1 F1 107.57(8) 1_555 101_545 n
Al1 C1 Al1 121.21(7) 1_655 2_455 n
Al1 C1 Al1 68.99(5) 1_655 2_555 n
Al1 C1 Al1 10.621(14) 1_655 2_655 n
Al1 C1 Al1 164.58(8) 1_655 -1_457 n
Al1 C1 Al1 87.46(6) 1_655 -1_556 n
Al1 C1 Al1 118.94(8) 1_655 -1_557 n
Al1 C1 Al1 69.452(33) 1_655 -1_657 n
Al1 C1 Al1 103.23(7) 1_655 -2_456 n
Al1 C1 Al1 146.82(8) 1_655 -2_457 n
Al1 C1 Al1 71.40(4) 1_655 -2_556 n
Al1 C1 Al1 89.46(5) 1_655 -2_557 n
Al1 C1 F1 110.98(6) 1_655 1_455 n
Al1 C1 F1 50.41(4) 1_655 1_555 n
Al1 C1 F1 90.26(7) 1_655 1_556 n
Al1 C1 F1 7.91(4) 1_655 1_655 n
Al1 C1 F1 112.38(8) 1_655 -1_456 n
Al1 C1 F1 154.02(10) 1_655 -1_457 n
Al1 C1 F1 79.67(5) 1_655 -1_556 n
Al1 C1 F1 104.09(6) 1_655 -1_557 n
Al1 C1 F1 65.002(30) 1_655 -1_657 n
Al1 C1 F1 135.55(8) 1_655 101_445 n
Al1 C1 F1 75.91(5) 1_655 101_545 n
Al1 C1 Al1 52.21(6) 2_455 2_555 n
Al1 C1 Al1 110.58(8) 2_455 2_655 n
Al1 C1 Al1 73.96(4) 2_455 -1_457 n
Al1 C1 Al1 82.77(8) 2_455 -1_556 n
Al1 C1 Al1 119.65(6) 2_455 -1_557 n
Al1 C1 Al1 168.93(7) 2_455 -1_657 n
Al1 C1 Al1 68.30(6) 2_455 -2_456 n
Al1 C1 Al1 91.78(5) 2_455 -2_457 n
Al1 C1 Al1 97.76(9) 2_455 -2_556 n
Al1 C1 Al1 149.10(7) 2_455 -2_557 n
Al1 C1 F1 11.26(5) 2_455 1_455 n
Al1 C1 F1 71.28(7) 2_455 1_555 n
Al1 C1 F1 104.37(10) 2_455 1_556 n
Al1 C1 F1 114.23(7) 2_455 1_655 n
Al1 C1 F1 61.93(6) 2_455 -1_456 n
Al1 C1 F1 83.80(5) 2_455 -1_457 n
Al1 C1 F1 91.92(9) 2_455 -1_556 n
Al1 C1 F1 133.74(6) 2_455 -1_557 n
Al1 C1 F1 171.38(11) 2_455 -1_657 n
Al1 C1 F1 103.22(6) 2_455 101_445 n
Al1 C1 F1 162.84(8) 2_455 101_545 n
Al1 C1 Al1 58.37(5) 2_555 2_655 n
Al1 C1 Al1 126.09(9) 2_555 -1_457 n
Al1 C1 Al1 79.73(13) 2_555 -1_556 n
Al1 C1 Al1 170.81(15) 2_555 -1_557 n
Al1 C1 Al1 138.32(8) 2_555 -1_657 n
Al1 C1 Al1 78.92(13) 2_555 -2_456 n
Al1 C1 Al1 143.82(10) 2_555 -2_457 n
Al1 C1 Al1 81.53(13) 2_555 -2_556 n
Al1 C1 Al1 158.10(11) 2_555 -2_557 n
Al1 C1 F1 42.29(5) 2_555 1_455 n
Al1 C1 F1 20.101(27) 2_555 1_555 n
Al1 C1 F1 105.97(17) 2_555 1_556 n
Al1 C1 F1 62.14(5) 2_555 1_655 n
Al1 C1 F1 80.69(13) 2_555 -1_456 n
Al1 C1 F1 135.46(10) 2_555 -1_457 n
Al1 C1 F1 82.58(13) 2_555 -1_556 n
Al1 C1 F1 168.41(22) 2_555 -1_557 n
Al1 C1 F1 133.53(8) 2_555 -1_657 n
Al1 C1 F1 155.39(10) 2_555 101_445 n
Al1 C1 F1 144.88(9) 2_555 101_545 n
Al1 C1 Al1 174.62(11) 2_655 -1_457 n
Al1 C1 Al1 85.66(8) 2_655 -1_556 n
Al1 C1 Al1 129.52(9) 2_655 -1_557 n
Al1 C1 Al1 80.06(5) 2_655 -1_657 n
Al1 C1 Al1 99.84(9) 2_655 -2_456 n
Al1 C1 Al1 157.32(10) 2_655 -2_457 n
Al1 C1 Al1 71.33(6) 2_655 -2_556 n
Al1 C1 Al1 100.05(6) 2_655 -2_557 n
Al1 C1 F1 100.40(7) 2_655 1_455 n
Al1 C1 F1 39.95(4) 2_655 1_555 n
Al1 C1 F1 93.35(9) 2_655 1_556 n
Al1 C1 F1 5.329(14) 2_655 1_655 n
Al1 C1 F1 108.38(10) 2_655 -1_456 n
Al1 C1 F1 163.87(12) 2_655 -1_457 n
Al1 C1 F1 79.10(7) 2_655 -1_556 n
Al1 C1 F1 114.55(8) 2_655 -1_557 n
Al1 C1 F1 75.55(4) 2_655 -1_657 n
Al1 C1 F1 146.16(10) 2_655 101_445 n
Al1 C1 F1 86.53(7) 2_655 101_545 n
Al1 C1 Al1 97.96(9) -1_457 -1_556 n
Al1 C1 Al1 45.741(30) -1_457 -1_557 n
Al1 C1 Al1 95.26(6) -1_457 -1_657 n
Al1 C1 Al1 84.45(7) -1_457 -2_456 n
Al1 C1 Al1 17.837(13) -1_457 -2_457 n
Al1 C1 Al1 111.42(10) -1_457 -2_556 n
Al1 C1 Al1 75.24(5) -1_457 -2_557 n
Al1 C1 F1 84.37(6) -1_457 1_455 n
Al1 C1 F1 144.99(9) -1_457 1_555 n
Al1 C1 F1 82.56(6) -1_457 1_556 n
Al1 C1 F1 171.74(8) -1_457 1_655 n
Al1 C1 F1 76.15(6) -1_457 -1_456 n
Al1 C1 F1 10.77(4) -1_457 -1_457 n
Al1 C1 F1 103.96(10) -1_457 -1_556 n
Al1 C1 F1 60.50(4) -1_457 -1_557 n
Al1 C1 F1 99.62(7) -1_457 -1_657 n
Al1 C1 F1 29.618(22) -1_457 101_445 n
Al1 C1 F1 89.01(6) -1_457 101_545 n
Al1 C1 Al1 104.47(13) -1_556 -1_557 n
Al1 C1 Al1 101.56(9) -1_556 -1_657 n
Al1 C1 Al1 17.456(18) -1_556 -2_456 n
Al1 C1 Al1 101.38(11) -1_556 -2_457 n
Al1 C1 Al1 17.825(18) -1_556 -2_556 n
Al1 C1 Al1 104.02(12) -1_556 -2_557 n
Al1 C1 F1 76.71(9) -1_556 1_455 n
Al1 C1 F1 73.81(13) -1_556 1_555 n
Al1 C1 F1 172.63(7) -1_556 1_556 n
Al1 C1 F1 82.49(8) -1_556 1_655 n
Al1 C1 F1 26.838(34) -1_556 -1_456 n
Al1 C1 F1 103.92(10) -1_556 -1_457 n
Al1 C1 F1 9.793(15) -1_556 -1_556 n
Al1 C1 F1 109.81(13) -1_556 -1_557 n
Al1 C1 F1 104.07(8) -1_556 -1_657 n
Al1 C1 F1 97.31(15) -1_556 101_445 n
Al1 C1 F1 97.84(13) -1_556 101_545 n
Al1 C1 Al1 49.52(5) -1_557 -1_657 n
Al1 C1 Al1 102.57(12) -1_557 -2_456 n
Al1 C1 Al1 27.903(22) -1_557 -2_457 n
Al1 C1 Al1 105.02(13) -1_557 -2_556 n
Al1 C1 Al1 29.502(31) -1_557 -2_557 n
Al1 C1 F1 130.08(8) -1_557 1_455 n
Al1 C1 F1 168.90(11) -1_557 1_555 n
Al1 C1 F1 70.60(9) -1_557 1_556 n
Al1 C1 F1 126.11(7) -1_557 1_655 n
Al1 C1 F1 99.32(12) -1_557 -1_456 n
Al1 C1 F1 35.925(31) -1_557 -1_457 n
Al1 C1 F1 102.94(14) -1_557 -1_556 n
Al1 C1 F1 15.464(17) -1_557 -1_557 n
Al1 C1 F1 53.97(6) -1_557 -1_657 n
Al1 C1 F1 17.57(4) -1_557 101_445 n
Al1 C1 F1 43.47(4) -1_557 101_545 n
Al1 C1 Al1 113.91(11) -1_657 -2_456 n
Al1 C1 Al1 77.43(6) -1_657 -2_457 n
Al1 C1 Al1 88.42(8) -1_657 -2_556 n
Al1 C1 Al1 20.021(18) -1_657 -2_557 n
Al1 C1 F1 178.15(17) -1_657 1_455 n
Al1 C1 F1 119.63(7) -1_657 1_555 n
Al1 C1 F1 71.09(6) -1_657 1_556 n
Al1 C1 F1 76.60(4) -1_657 1_655 n
Al1 C1 F1 118.65(11) -1_657 -1_456 n
Al1 C1 F1 85.27(7) -1_657 -1_457 n
Al1 C1 F1 93.17(9) -1_657 -1_556 n
Al1 C1 F1 35.213(29) -1_657 -1_557 n
Al1 C1 F1 5.474(9) -1_657 -1_657 n
Al1 C1 F1 66.28(6) -1_657 101_445 n
Al1 C1 F1 7.816(14) -1_657 101_545 n
Al1 C1 Al1 91.71(9) -2_456 -2_457 n
Al1 C1 Al1 35.28(4) -2_456 -2_556 n
Al1 C1 Al1 111.12(13) -2_456 -2_557 n
Al1 C1 F1 64.26(8) -2_456 1_455 n
Al1 C1 F1 79.10(13) -2_456 1_555 n
Al1 C1 F1 166.50(5) -2_456 1_556 n
Al1 C1 F1 97.43(9) -2_456 1_655 n
Al1 C1 F1 9.493(24) -2_456 -1_456 n
Al1 C1 F1 92.17(9) -2_456 -1_457 n
Al1 C1 F1 27.112(30) -2_456 -1_556 n
Al1 C1 F1 112.19(12) -2_456 -1_557 n
Al1 C1 F1 117.41(9) -2_456 -1_657 n
Al1 C1 F1 91.00(14) -2_456 101_445 n
Al1 C1 F1 108.68(14) -2_456 101_545 n
Al1 C1 Al1 110.45(12) -2_457 -2_556 n
Al1 C1 Al1 57.41(5) -2_457 -2_557 n
Al1 C1 F1 102.19(7) -2_457 1_455 n
Al1 C1 F1 162.72(10) -2_457 1_555 n
Al1 C1 F1 76.90(8) -2_457 1_556 n
Al1 C1 F1 153.99(8) -2_457 1_655 n
Al1 C1 F1 85.00(9) -2_457 -1_456 n
Al1 C1 F1 8.787(9) -2_457 -1_457 n
Al1 C1 F1 104.68(12) -2_457 -1_556 n
Al1 C1 F1 42.78(4) -2_457 -1_557 n
Al1 C1 F1 81.81(7) -2_457 -1_657 n
Al1 C1 F1 12.628(19) -2_457 101_445 n
Al1 C1 F1 71.24(6) -2_457 101_545 n
Al1 C1 Al1 95.67(11) -2_556 -2_557 n
Al1 C1 F1 90.03(10) -2_556 1_455 n
Al1 C1 F1 69.89(12) -2_556 1_555 n
Al1 C1 F1 156.54(6) -2_556 1_556 n
Al1 C1 F1 67.44(7) -2_556 1_655 n
Al1 C1 F1 44.64(5) -2_556 -1_456 n
Al1 C1 F1 115.14(11) -2_556 -1_457 n
Al1 C1 F1 8.476(8) -2_556 -1_556 n
Al1 C1 F1 105.50(11) -2_556 -1_557 n
Al1 C1 F1 89.91(7) -2_556 -1_657 n
Al1 C1 F1 103.14(16) -2_556 101_445 n
Al1 C1 F1 86.33(12) -2_556 101_545 n
Al1 C1 F1 159.53(8) -2_557 1_455 n
Al1 C1 F1 139.62(8) -2_557 1_555 n
Al1 C1 F1 68.94(8) -2_557 1_556 n
Al1 C1 F1 96.62(5) -2_557 1_655 n
Al1 C1 F1 112.54(13) -2_557 -1_456 n
Al1 C1 F1 65.30(6) -2_557 -1_457 n
Al1 C1 F1 97.85(12) -2_557 -1_556 n
Al1 C1 F1 15.694(23) -2_557 -1_557 n
Al1 C1 F1 24.602(33) -2_557 -1_657 n
Al1 C1 F1 46.41(5) -2_557 101_445 n
Al1 C1 F1 14.53(4) -2_557 101_545 n
F1 C1 F1 60.66(6) 1_455 1_555 n
F1 C1 F1 110.64(13) 1_455 1_556 n
F1 C1 F1 103.72(8) 1_455 1_655 n
F1 C1 F1 59.50(7) 1_455 -1_456 n
F1 C1 F1 94.49(9) 1_455 -1_457 n
F1 C1 F1 85.17(9) 1_455 -1_556 n
F1 C1 F1 144.65(7) 1_455 -1_557 n
F1 C1 F1 175.74(9) 1_455 -1_657 n
F1 C1 F1 113.13(7) 1_455 101_445 n
F1 C1 F1 170.71(15) 1_455 101_545 n
F1 C1 F1 109.91(16) 1_555 1_556 n
F1 C1 F1 43.05(4) 1_555 1_655 n
F1 C1 F1 83.99(12) 1_555 -1_456 n
F1 C1 F1 155.08(10) 1_555 -1_457 n
F1 C1 F1 73.44(12) 1_555 -1_556 n
F1 C1 F1 154.49(9) 1_555 -1_557 n
F1 C1 F1 115.38(6) 1_555 -1_657 n
F1 C1 F1 169.88(23) 1_555 101_445 n
F1 C1 F1 125.48(9) 1_555 101_545 n
F1 C1 F1 95.95(8) 1_556 1_655 n
F1 C1 F1 157.15(5) 1_556 -1_456 n
F1 C1 F1 75.47(7) 1_556 -1_457 n
F1 C1 F1 163.62(7) 1_556 -1_556 n
F1 C1 F1 64.00(9) 1_556 -1_557 n
F1 C1 F1 68.65(7) 1_556 -1_657 n
F1 C1 F1 79.47(12) 1_556 101_445 n
F1 C1 F1 74.80(9) 1_556 101_545 n
F1 C1 F1 106.31(8) 1_655 -1_456 n
F1 C1 F1 161.69(8) 1_655 -1_457 n
F1 C1 F1 75.43(7) 1_655 -1_556 n
F1 C1 F1 111.53(6) 1_655 -1_557 n
F1 C1 F1 72.35(5) 1_655 -1_657 n
F1 C1 F1 142.13(9) 1_655 101_445 n
F1 C1 F1 82.76(5) 1_655 101_545 n
F1 C1 F1 84.50(7) -1_456 -1_457 n
F1 C1 F1 36.35(5) -1_456 -1_556 n
F1 C1 F1 110.82(11) -1_456 -1_557 n
F1 C1 F1 122.78(10) -1_456 -1_657 n
F1 C1 F1 85.91(14) -1_456 101_445 n
F1 C1 F1 112.56(14) -1_456 101_545 n
F1 C1 F1 108.54(10) -1_457 -1_556 n
F1 C1 F1 50.20(5) -1_457 -1_557 n
F1 C1 F1 89.40(9) -1_457 -1_657 n
F1 C1 F1 21.416(25) -1_457 101_445 n
F1 C1 F1 79.40(6) -1_457 101_545 n
F1 C1 F1 105.75(12) -1_556 -1_557 n
F1 C1 F1 95.27(7) -1_556 -1_657 n
F1 C1 F1 98.66(17) -1_556 101_445 n
F1 C1 F1 90.14(14) -1_556 101_545 n
F1 C1 F1 39.20(4) -1_557 -1_657 n
F1 C1 F1 33.03(5) -1_557 101_445 n
F1 C1 F1 30.23(6) -1_557 101_545 n
F1 C1 F1 71.01(6) -1_657 101_445 n
F1 C1 F1 13.290(22) -1_657 101_545 n
F1 C1 F1 59.64(6) 101_445 101_545 n
Al1 C2 Al1 72.68(12) 1_455 1_555 n
Al1 C2 Al1 114.36(13) 1_455 1_655 n
Al1 C2 Al1 13.164(13) 1_455 2_455 n
Al1 C2 Al1 28.512(20) 1_455 2_555 n
Al1 C2 Al1 101.19(14) 1_455 2_655 n
Al1 C2 Al1 77.606(26) 1_455 -1_457 n
Al1 C2 Al1 75.75(11) 1_455 -1_556 n
Al1 C2 Al1 115.10(5) 1_455 -1_557 n
Al1 C2 Al1 166.48(11) 1_455 -1_657 n
Al1 C2 Al1 92.072(26) 1_455 -2_457 n
Al1 C2 Al1 89.50(13) 1_455 -2_556 n
Al1 C2 Al1 143.54(9) 1_455 -2_557 n
Al1 C2 Al1 177.63(18) 1_455 -2_657 n
Al1 C2 F1 6.277(17) 1_455 1_455 n
Al1 C2 F1 50.98(7) 1_455 1_555 n
Al1 C2 F1 104.58(13) 1_455 1_556 n
Al1 C2 F1 105.83(14) 1_455 1_655 n
Al1 C2 F1 86.08(4) 1_455 -1_457 n
Al1 C2 F1 83.96(12) 1_455 -1_556 n
Al1 C2 F1 129.38(7) 1_455 -1_557 n
Al1 C2 F1 172.61(12) 1_455 -1_657 n
Al1 C2 F1 100.421(34) 1_455 101_445 n
Al1 C2 F1 156.91(11) 1_455 101_545 n
Al1 C2 F1 10.373(30) 1_455 -101_446 n
Al1 C2 Al1 41.676(7) 1_555 1_655 n
Al1 C2 Al1 85.85(11) 1_555 2_455 n
Al1 C2 Al1 44.17(10) 1_555 2_555 n
Al1 C2 Al1 28.512(20) 1_555 2_655 n
Al1 C2 Al1 150.22(10) 1_555 -1_457 n
Al1 C2 Al1 82.64(18) 1_555 -1_556 n
Al1 C2 Al1 171.55(11) 1_555 -1_557 n
Al1 C2 Al1 120.550(12) 1_555 -1_657 n
Al1 C2 Al1 164.54(11) 1_555 -2_457 n
Al1 C2 Al1 75.89(17) 1_555 -2_556 n
Al1 C2 Al1 143.531(33) 1_555 -2_557 n
Al1 C2 Al1 106.099(9) 1_555 -2_657 n
Al1 C2 F1 77.40(12) 1_555 1_455 n
Al1 C2 F1 23.21(5) 1_555 1_555 n
Al1 C2 F1 111.56(19) 1_555 1_556 n
Al1 C2 F1 33.425(33) 1_555 1_655 n
Al1 C2 F1 158.73(9) 1_555 -1_457 n
Al1 C2 F1 81.17(18) 1_555 -1_556 n
Al1 C2 F1 157.85(6) 1_555 -1_557 n
Al1 C2 F1 114.587(26) 1_555 -1_657 n
Al1 C2 F1 169.51(24) 1_555 101_445 n
Al1 C2 F1 128.58(5) 1_555 101_545 n
Al1 C2 F1 65.12(12) 1_555 -101_446 n
Al1 C2 Al1 127.52(11) 1_655 2_455 n
Al1 C2 Al1 85.85(11) 1_655 2_555 n
Al1 C2 Al1 13.164(13) 1_655 2_655 n
Al1 C2 Al1 167.87(10) 1_655 -1_457 n
Al1 C2 Al1 92.81(10) 1_655 -1_556 n
Al1 C2 Al1 130.42(8) 1_655 -1_557 n
Al1 C2 Al1 78.921(13) 1_655 -1_657 n
Al1 C2 Al1 153.45(10) 1_655 -2_457 n
Al1 C2 Al1 76.91(8) 1_655 -2_556 n
Al1 C2 Al1 101.957(34) 1_655 -2_557 n
Al1 C2 Al1 64.451(13) 1_655 -2_657 n
Al1 C2 F1 118.95(13) 1_655 1_455 n
Al1 C2 F1 63.99(6) 1_655 1_555 n
Al1 C2 F1 100.10(9) 1_655 1_556 n
Al1 C2 F1 9.45(5) 1_655 1_655 n
Al1 C2 F1 159.52(10) 1_655 -1_457 n
Al1 C2 F1 85.80(9) 1_655 -1_556 n
Al1 C2 F1 116.23(6) 1_655 -1_557 n
Al1 C2 F1 72.922(30) 1_655 -1_657 n
Al1 C2 F1 144.32(10) 1_655 101_445 n
Al1 C2 F1 87.386(23) 1_655 101_545 n
Al1 C2 F1 106.48(13) 1_655 -101_446 n
Al1 C2 Al1 41.676(7) 2_455 2_555 n
Al1 C2 Al1 114.36(13) 2_455 2_655 n
Al1 C2 Al1 64.451(13) 2_455 -1_457 n
Al1 C2 Al1 76.91(8) 2_455 -1_556 n
Al1 C2 Al1 101.957(34) 2_455 -1_557 n
Al1 C2 Al1 153.45(10) 2_455 -1_657 n
Al1 C2 Al1 78.921(13) 2_455 -2_457 n
Al1 C2 Al1 92.81(10) 2_455 -2_556 n
Al1 C2 Al1 130.42(8) 2_455 -2_557 n
Al1 C2 Al1 167.87(10) 2_455 -2_657 n
Al1 C2 F1 9.45(5) 2_455 1_455 n
Al1 C2 F1 63.99(6) 2_455 1_555 n
Al1 C2 F1 100.10(9) 2_455 1_556 n
Al1 C2 F1 118.95(13) 2_455 1_655 n
Al1 C2 F1 72.922(30) 2_455 -1_457 n
Al1 C2 F1 85.80(9) 2_455 -1_556 n
Al1 C2 F1 116.23(6) 2_455 -1_557 n
Al1 C2 F1 159.52(10) 2_455 -1_657 n
Al1 C2 F1 87.386(23) 2_455 101_445 n
Al1 C2 F1 144.32(10) 2_455 101_545 n
Al1 C2 F1 21.985(27) 2_455 -101_446 n
Al1 C2 Al1 72.68(12) 2_555 2_655 n
Al1 C2 Al1 106.099(9) 2_555 -1_457 n
Al1 C2 Al1 75.89(17) 2_555 -1_556 n
Al1 C2 Al1 143.531(33) 2_555 -1_557 n
Al1 C2 Al1 164.54(11) 2_555 -1_657 n
Al1 C2 Al1 120.550(12) 2_555 -2_457 n
Al1 C2 Al1 82.64(18) 2_555 -2_556 n
Al1 C2 Al1 171.55(11) 2_555 -2_557 n
Al1 C2 Al1 150.22(10) 2_555 -2_657 n
Al1 C2 F1 33.425(33) 2_555 1_455 n
Al1 C2 F1 23.21(5) 2_555 1_555 n
Al1 C2 F1 111.56(19) 2_555 1_556 n
Al1 C2 F1 77.40(12) 2_555 1_655 n
Al1 C2 F1 114.587(26) 2_555 -1_457 n
Al1 C2 F1 81.17(18) 2_555 -1_556 n
Al1 C2 F1 157.85(6) 2_555 -1_557 n
Al1 C2 F1 158.73(9) 2_555 -1_657 n
Al1 C2 F1 128.58(5) 2_555 101_445 n
Al1 C2 F1 169.51(24) 2_555 101_545 n
Al1 C2 F1 21.82(6) 2_555 -101_446 n
Al1 C2 Al1 177.63(18) 2_655 -1_457 n
Al1 C2 Al1 89.50(13) 2_655 -1_556 n
Al1 C2 Al1 143.54(9) 2_655 -1_557 n
Al1 C2 Al1 92.072(26) 2_655 -1_657 n
Al1 C2 Al1 166.48(11) 2_655 -2_457 n
Al1 C2 Al1 75.75(11) 2_655 -2_556 n
Al1 C2 Al1 115.10(5) 2_655 -2_557 n
Al1 C2 Al1 77.606(26) 2_655 -2_657 n
Al1 C2 F1 105.83(14) 2_655 1_455 n
Al1 C2 F1 50.98(7) 2_655 1_555 n
Al1 C2 F1 104.58(13) 2_655 1_556 n
Al1 C2 F1 6.277(17) 2_655 1_655 n
Al1 C2 F1 172.61(12) 2_655 -1_457 n
Al1 C2 F1 83.96(12) 2_655 -1_556 n
Al1 C2 F1 129.38(7) 2_655 -1_557 n
Al1 C2 F1 86.08(4) 2_655 -1_657 n
Al1 C2 F1 156.91(11) 2_655 101_445 n
Al1 C2 F1 100.421(34) 2_655 101_545 n
Al1 C2 F1 93.41(14) 2_655 -101_446 n
Al1 C2 Al1 88.21(7) -1_457 -1_556 n
Al1 C2 Al1 37.519(22) -1_457 -1_557 n
Al1 C2 Al1 89.04(8) -1_457 -1_657 n
Al1 C2 Al1 14.4754(4) -1_457 -2_457 n
Al1 C2 Al1 102.13(9) -1_457 -2_556 n
Al1 C2 Al1 66.00(6) -1_457 -2_557 n
Al1 C2 Al1 103.52(9) -1_457 -2_657 n
Al1 C2 F1 72.82(4) -1_457 1_455 n
Al1 C2 F1 127.47(6) -1_457 1_555 n
Al1 C2 F1 77.74(8) -1_457 1_556 n
Al1 C2 F1 172.87(14) -1_457 1_655 n
Al1 C2 F1 9.107(34) -1_457 -1_457 n
Al1 C2 F1 93.86(8) -1_457 -1_556 n
Al1 C2 F1 51.93(4) -1_457 -1_557 n
Al1 C2 F1 95.17(8) -1_457 -1_657 n
Al1 C2 F1 23.596(10) -1_457 101_445 n
Al1 C2 F1 80.49(9) -1_457 101_545 n
Al1 C2 F1 85.64(5) -1_457 -101_446 n
Al1 C2 Al1 95.88(12) -1_556 -1_557 n
Al1 C2 Al1 102.01(11) -1_556 -1_657 n
Al1 C2 Al1 91.26(9) -1_556 -2_457 n
Al1 C2 Al1 17.678(22) -1_556 -2_556 n
Al1 C2 Al1 100.25(13) -1_556 -2_557 n
Al1 C2 Al1 102.13(9) -1_556 -2_657 n
Al1 C2 F1 71.90(10) -1_556 1_455 n
Al1 C2 F1 71.19(17) -1_556 1_555 n
Al1 C2 F1 165.42(9) -1_556 1_556 n
Al1 C2 F1 86.64(12) -1_556 1_655 n
Al1 C2 F1 93.56(9) -1_556 -1_457 n
Al1 C2 F1 9.101(13) -1_556 -1_556 n
Al1 C2 F1 103.30(14) -1_556 -1_557 n
Al1 C2 F1 105.83(11) -1_556 -1_657 n
Al1 C2 F1 88.03(12) -1_556 101_445 n
Al1 C2 F1 96.46(13) -1_556 101_545 n
Al1 C2 F1 82.33(17) -1_556 -101_446 n
Al1 C2 Al1 51.52(6) -1_557 -1_657 n
Al1 C2 Al1 23.043(21) -1_557 -2_457 n
Al1 C2 Al1 100.25(13) -1_557 -2_556 n
Al1 C2 Al1 28.48(4) -1_557 -2_557 n
Al1 C2 Al1 66.00(6) -1_557 -2_657 n
Al1 C2 F1 110.12(5) -1_557 1_455 n
Al1 C2 F1 162.30(17) -1_557 1_555 n
Al1 C2 F1 70.58(11) -1_557 1_556 n
Al1 C2 F1 138.35(9) -1_557 1_655 n
Al1 C2 F1 29.389(24) -1_557 -1_457 n
Al1 C2 F1 96.05(12) -1_557 -1_556 n
Al1 C2 F1 15.091(31) -1_557 -1_557 n
Al1 C2 F1 57.73(6) -1_557 -1_657 n
Al1 C2 F1 15.32(5) -1_557 101_445 n
Al1 C2 F1 43.18(7) -1_557 101_545 n
Al1 C2 F1 123.03(7) -1_557 -101_446 n
Al1 C2 Al1 74.57(8) -1_657 -2_457 n
Al1 C2 Al1 91.26(9) -1_657 -2_556 n
Al1 C2 Al1 23.043(21) -1_657 -2_557 n
Al1 C2 Al1 14.4754(4) -1_657 -2_657 n
Al1 C2 F1 160.81(11) -1_657 1_455 n
Al1 C2 F1 141.44(8) -1_657 1_555 n
Al1 C2 F1 74.16(9) -1_657 1_556 n
Al1 C2 F1 87.21(4) -1_657 1_655 n
Al1 C2 F1 80.72(8) -1_657 -1_457 n
Al1 C2 F1 94.96(10) -1_657 -1_556 n
Al1 C2 F1 37.57(4) -1_657 -1_557 n
Al1 C2 F1 7.147(8) -1_657 -1_657 n
Al1 C2 F1 66.08(9) -1_657 101_445 n
Al1 C2 F1 9.991(17) -1_657 101_545 n
Al1 C2 F1 173.04(20) -1_657 -101_446 n
Al1 C2 Al1 102.01(11) -2_457 -2_556 n
Al1 C2 Al1 51.52(6) -2_457 -2_557 n
Al1 C2 Al1 89.04(8) -2_457 -2_657 n
Al1 C2 F1 87.21(4) -2_457 1_455 n
Al1 C2 F1 141.44(8) -2_457 1_555 n
Al1 C2 F1 74.16(9) -2_457 1_556 n
Al1 C2 F1 160.81(11) -2_457 1_655 n
Al1 C2 F1 7.147(8) -2_457 -1_457 n
Al1 C2 F1 94.96(10) -2_457 -1_556 n
Al1 C2 F1 37.57(4) -2_457 -1_557 n
Al1 C2 F1 80.72(8) -2_457 -1_657 n
Al1 C2 F1 9.991(17) -2_457 101_445 n
Al1 C2 F1 66.08(9) -2_457 101_545 n
Al1 C2 F1 100.07(5) -2_457 -101_446 n
Al1 C2 Al1 95.88(12) -2_556 -2_557 n
Al1 C2 Al1 88.21(7) -2_556 -2_657 n
Al1 C2 F1 86.64(12) -2_556 1_455 n
Al1 C2 F1 71.19(17) -2_556 1_555 n
Al1 C2 F1 165.42(9) -2_556 1_556 n
Al1 C2 F1 71.90(10) -2_556 1_655 n
Al1 C2 F1 105.83(11) -2_556 -1_457 n
Al1 C2 F1 9.101(13) -2_556 -1_556 n
Al1 C2 F1 103.30(14) -2_556 -1_557 n
Al1 C2 F1 93.56(9) -2_556 -1_657 n
Al1 C2 F1 96.46(13) -2_556 101_445 n
Al1 C2 F1 88.03(12) -2_556 101_545 n
Al1 C2 F1 94.24(18) -2_556 -101_446 n
Al1 C2 Al1 37.519(22) -2_557 -2_657 n
Al1 C2 F1 138.35(9) -2_557 1_455 n
Al1 C2 F1 162.30(17) -2_557 1_555 n
Al1 C2 F1 70.58(11) -2_557 1_556 n
Al1 C2 F1 110.12(5) -2_557 1_655 n
Al1 C2 F1 57.73(6) -2_557 -1_457 n
Al1 C2 F1 96.05(12) -2_557 -1_556 n
Al1 C2 F1 15.091(31) -2_557 -1_557 n
Al1 C2 F1 29.389(24) -2_557 -1_657 n
Al1 C2 F1 43.18(7) -2_557 101_445 n
Al1 C2 F1 15.32(5) -2_557 101_545 n
Al1 C2 F1 151.30(11) -2_557 -101_446 n
Al1 C2 F1 172.87(14) -2_657 1_455 n
Al1 C2 F1 127.47(6) -2_657 1_555 n
Al1 C2 F1 77.74(8) -2_657 1_556 n
Al1 C2 F1 72.82(4) -2_657 1_655 n
Al1 C2 F1 95.17(8) -2_657 -1_457 n
Al1 C2 F1 93.86(8) -2_657 -1_556 n
Al1 C2 F1 51.93(4) -2_657 -1_557 n
Al1 C2 F1 9.107(34) -2_657 -1_657 n
Al1 C2 F1 80.49(9) -2_657 101_445 n
Al1 C2 F1 23.596(10) -2_657 101_545 n
Al1 C2 F1 169.83(13) -2_657 -101_446 n
F1 C2 F1 55.06(8) 1_455 1_555 n
F1 C2 F1 107.00(11) 1_455 1_556 n
F1 C2 F1 110.11(16) 1_455 1_655 n
F1 C2 F1 81.52(6) 1_455 -1_457 n
F1 C2 F1 80.44(11) 1_455 -1_556 n
F1 C2 F1 124.75(7) 1_455 -1_557 n
F1 C2 F1 167.71(10) 1_455 -1_657 n
F1 C2 F1 95.186(26) 1_455 101_445 n
F1 C2 F1 150.97(11) 1_455 101_545 n
F1 C2 F1 16.65(5) 1_455 -101_446 n
F1 C2 F1 120.69(19) 1_555 1_556 n
F1 C2 F1 55.06(8) 1_555 1_655 n
F1 C2 F1 136.41(5) 1_555 -1_457 n
F1 C2 F1 73.14(17) 1_555 -1_556 n
F1 C2 F1 174.42(26) 1_555 -1_557 n
F1 C2 F1 136.41(5) 1_555 -1_657 n
F1 C2 F1 147.38(16) 1_555 101_445 n
F1 C2 F1 147.38(16) 1_555 101_545 n
F1 C2 F1 45.04(10) 1_555 -101_446 n
F1 C2 F1 107.00(11) 1_556 1_655 n
F1 C2 F1 72.01(8) 1_556 -1_457 n
F1 C2 F1 166.18(11) 1_556 -1_556 n
F1 C2 F1 64.89(10) 1_556 -1_557 n
F1 C2 F1 72.01(8) 1_556 -1_657 n
F1 C2 F1 77.54(14) 1_556 101_445 n
F1 C2 F1 77.54(14) 1_556 101_545 n
F1 C2 F1 100.27(19) 1_556 -101_446 n
F1 C2 F1 167.71(10) 1_655 -1_457 n
F1 C2 F1 80.44(11) 1_655 -1_556 n
F1 C2 F1 124.75(7) 1_655 -1_557 n
F1 C2 F1 81.52(6) 1_655 -1_657 n
F1 C2 F1 150.97(11) 1_655 101_445 n
F1 C2 F1 95.186(26) 1_655 101_545 n
F1 C2 F1 98.54(14) 1_655 -101_446 n
F1 C2 F1 98.19(9) -1_457 -1_556 n
F1 C2 F1 43.31(4) -1_457 -1_557 n
F1 C2 F1 86.62(8) -1_457 -1_657 n
F1 C2 F1 17.138(22) -1_457 101_445 n
F1 C2 F1 72.57(8) -1_457 101_545 n
F1 C2 F1 93.66(5) -1_457 -101_446 n
F1 C2 F1 101.29(13) -1_556 -1_557 n
F1 C2 F1 98.19(9) -1_556 -1_657 n
F1 C2 F1 90.35(13) -1_556 101_445 n
F1 C2 F1 90.35(13) -1_556 101_545 n
F1 C2 F1 89.88(19) -1_556 -101_446 n
F1 C2 F1 43.31(4) -1_557 -1_657 n
F1 C2 F1 30.41(8) -1_557 101_445 n
F1 C2 F1 30.41(8) -1_557 101_545 n
F1 C2 F1 136.38(11) -1_557 -101_446 n
F1 C2 F1 72.57(8) -1_657 101_445 n
F1 C2 F1 17.138(22) -1_657 101_545 n
F1 C2 F1 171.81(25) -1_657 -101_446 n
F1 C2 F1 57.14(9) 101_445 101_545 n
F1 C2 F1 108.98(5) 101_445 -101_446 n
F1 C2 F1 166.11(11) 101_545 -101_446 n
Al1 C3 Al1 97.22(19) 1_455 1_555 n
Al1 C3 Al1 136.81(15) 1_455 1_655 n
Al1 C3 Al1 9.852(28) 1_455 2_455 n
Al1 C3 Al1 29.738(14) 1_455 2_555 n
Al1 C3 Al1 126.96(18) 1_455 2_655 n
Al1 C3 Al1 80.62(14) 1_455 -1_556 n
Al1 C3 Al1 104.98(8) 1_455 -1_557 n
Al1 C3 Al1 147.92(12) 1_455 -1_657 n
Al1 C3 Al1 85.06(6) 1_455 -2_457 n
Al1 C3 Al1 96.75(17) 1_455 -2_556 n
Al1 C3 Al1 128.01(10) 1_455 -2_557 n
Al1 C3 F1 5.16(4) 1_455 1_455 n
Al1 C3 F1 64.02(9) 1_455 1_555 n
Al1 C3 F1 103.24(15) 1_455 1_556 n
Al1 C3 F1 129.05(17) 1_455 1_655 n
Al1 C3 F1 79.00(6) 1_455 -1_457 n
Al1 C3 F1 89.93(16) 1_455 -1_556 n
Al1 C3 F1 116.51(9) 1_455 -1_557 n
Al1 C3 F1 154.01(12) 1_455 -1_657 n
Al1 C3 F1 92.98(6) 1_455 101_445 n
Al1 C3 F1 139.61(12) 1_455 101_545 n
Al1 C3 F1 9.69(8) 1_455 -101_446 n
Al1 C3 F1 122.30(21) 1_455 -101_546 n
Al1 C3 F1 142.13(14) 1_455 -101_646 n
Al1 C3 Al1 39.59(4) 1_555 1_655 n
Al1 C3 Al1 107.07(17) 1_555 2_455 n
Al1 C3 Al1 67.49(21) 1_555 2_555 n
Al1 C3 Al1 29.738(14) 1_555 2_655 n
Al1 C3 Al1 92.57(29) 1_555 -1_556 n
Al1 C3 Al1 157.66(12) 1_555 -1_557 n
Al1 C3 Al1 114.77(7) 1_555 -1_657 n
Al1 C3 Al1 176.89(27) 1_555 -2_457 n
Al1 C3 Al1 82.57(28) 1_555 -2_556 n
Al1 C3 Al1 134.68(9) 1_555 -2_557 n
Al1 C3 F1 99.44(19) 1_555 1_455 n
Al1 C3 F1 35.34(11) 1_555 1_555 n
Al1 C3 F1 115.26(30) 1_555 1_556 n
Al1 C3 F1 32.28(5) 1_555 1_655 n
Al1 C3 F1 176.02(17) 1_555 -1_457 n
Al1 C3 F1 89.86(29) 1_555 -1_556 n
Al1 C3 F1 146.22(11) 1_555 -1_557 n
Al1 C3 F1 108.73(8) 1_555 -1_657 n
Al1 C3 F1 167.91(23) 1_555 101_445 n
Al1 C3 F1 122.50(9) 1_555 101_545 n
Al1 C3 F1 92.95(22) 1_555 -101_446 n
Al1 C3 F1 26.86(10) 1_555 -101_546 n
Al1 C3 F1 45.13(7) 1_555 -101_646 n
Al1 C3 Al1 146.66(12) 1_655 2_455 n
Al1 C3 Al1 107.07(17) 1_655 2_555 n
Al1 C3 Al1 9.852(28) 1_655 2_655 n
Al1 C3 Al1 97.79(11) 1_655 -1_556 n
Al1 C3 Al1 118.17(7) 1_655 -1_557 n
Al1 C3 Al1 75.211(31) 1_655 -1_657 n
Al1 C3 Al1 138.09(9) 1_655 -2_457 n
Al1 C3 Al1 80.52(9) 1_655 -2_556 n
Al1 C3 Al1 95.13(5) 1_655 -2_557 n
Al1 C3 F1 138.84(15) 1_655 1_455 n
Al1 C3 F1 73.66(6) 1_655 1_555 n
Al1 C3 F1 98.46(10) 1_655 1_556 n
Al1 C3 F1 8.91(6) 1_655 1_655 n
Al1 C3 F1 144.17(9) 1_655 -1_457 n
Al1 C3 F1 89.95(10) 1_655 -1_556 n
Al1 C3 F1 106.66(6) 1_655 -1_557 n
Al1 C3 F1 69.15(4) 1_655 -1_657 n
Al1 C3 F1 129.88(9) 1_655 101_445 n
Al1 C3 F1 83.19(4) 1_655 101_545 n
Al1 C3 F1 131.97(18) 1_655 -101_446 n
Al1 C3 F1 16.52(7) 1_655 -101_546 n
Al1 C3 F1 6.39(5) 1_655 -101_646 n
Al1 C3 Al1 39.59(4) 2_455 2_555 n
Al1 C3 Al1 136.81(15) 2_455 2_655 n
Al1 C3 Al1 80.52(9) 2_455 -1_556 n
Al1 C3 Al1 95.13(5) 2_455 -1_557 n
Al1 C3 Al1 138.09(9) 2_455 -1_657 n
Al1 C3 Al1 75.211(31) 2_455 -2_457 n
Al1 C3 Al1 97.79(11) 2_455 -2_556 n
Al1 C3 Al1 118.17(7) 2_455 -2_557 n
Al1 C3 F1 8.91(6) 2_455 1_455 n
Al1 C3 F1 73.66(6) 2_455 1_555 n
Al1 C3 F1 98.46(10) 2_455 1_556 n
Al1 C3 F1 138.84(15) 2_455 1_655 n
Al1 C3 F1 69.15(4) 2_455 -1_457 n
Al1 C3 F1 89.95(10) 2_455 -1_556 n
Al1 C3 F1 106.66(6) 2_455 -1_557 n
Al1 C3 F1 144.17(9) 2_455 -1_657 n
Al1 C3 F1 83.19(4) 2_455 101_445 n
Al1 C3 F1 129.88(9) 2_455 101_545 n
Al1 C3 F1 16.52(7) 2_455 -101_446 n
Al1 C3 F1 131.97(18) 2_455 -101_546 n
Al1 C3 F1 151.93(11) 2_455 -101_646 n
Al1 C3 Al1 97.22(19) 2_555 2_655 n
Al1 C3 Al1 82.57(28) 2_555 -1_556 n
Al1 C3 Al1 134.68(9) 2_555 -1_557 n
Al1 C3 Al1 176.89(27) 2_555 -1_657 n
Al1 C3 Al1 114.77(7) 2_555 -2_457 n
Al1 C3 Al1 92.57(29) 2_555 -2_556 n
Al1 C3 Al1 157.66(12) 2_555 -2_557 n
Al1 C3 F1 32.28(5) 2_555 1_455 n
Al1 C3 F1 35.34(11) 2_555 1_555 n
Al1 C3 F1 115.26(30) 2_555 1_556 n
Al1 C3 F1 99.44(19) 2_555 1_655 n
Al1 C3 F1 108.73(8) 2_555 -1_457 n
Al1 C3 F1 89.86(29) 2_555 -1_556 n
Al1 C3 F1 146.22(11) 2_555 -1_557 n
Al1 C3 F1 176.02(17) 2_555 -1_657 n
Al1 C3 F1 122.50(9) 2_555 101_445 n
Al1 C3 F1 167.91(23) 2_555 101_545 n
Al1 C3 F1 26.86(10) 2_555 -101_446 n
Al1 C3 F1 92.95(22) 2_555 -101_546 n
Al1 C3 F1 112.48(15) 2_555 -101_646 n
Al1 C3 Al1 96.75(17) 2_655 -1_556 n
Al1 C3 Al1 128.01(10) 2_655 -1_557 n
Al1 C3 Al1 85.06(6) 2_655 -1_657 n
Al1 C3 Al1 147.92(12) 2_655 -2_457 n
Al1 C3 Al1 80.62(14) 2_655 -2_556 n
Al1 C3 Al1 104.98(8) 2_655 -2_557 n
Al1 C3 F1 129.05(17) 2_655 1_455 n
Al1 C3 F1 64.02(9) 2_655 1_555 n
Al1 C3 F1 103.24(15) 2_655 1_556 n
Al1 C3 F1 5.16(4) 2_655 1_655 n
Al1 C3 F1 154.01(12) 2_655 -1_457 n
Al1 C3 F1 89.93(16) 2_655 -1_556 n
Al1 C3 F1 116.51(9) 2_655 -1_557 n
Al1 C3 F1 79.00(6) 2_655 -1_657 n
Al1 C3 F1 139.61(12) 2_655 101_445 n
Al1 C3 F1 92.98(6) 2_655 101_545 n
Al1 C3 F1 122.30(21) 2_655 -101_446 n
Al1 C3 F1 9.69(8) 2_655 -101_546 n
Al1 C3 F1 15.65(6) 2_655 -101_646 n
Al1 C3 Al1 88.66(11) -1_556 -1_557 n
Al1 C3 Al1 95.08(11) -1_556 -1_657 n
Al1 C3 Al1 85.71(9) -1_556 -2_457 n
Al1 C3 Al1 18.032(25) -1_556 -2_556 n
Al1 C3 Al1 92.25(12) -1_556 -2_557 n
Al1 C3 F1 75.92(12) -1_556 1_455 n
Al1 C3 F1 76.03(29) -1_556 1_555 n
Al1 C3 F1 150.77(10) -1_556 1_556 n
Al1 C3 F1 92.38(14) -1_556 1_655 n
Al1 C3 F1 88.08(9) -1_556 -1_457 n
Al1 C3 F1 9.432(15) -1_556 -1_556 n
Al1 C3 F1 94.48(12) -1_556 -1_557 n
Al1 C3 F1 99.06(10) -1_556 -1_657 n
Al1 C3 F1 82.69(11) -1_556 101_445 n
Al1 C3 F1 89.83(12) -1_556 101_545 n
Al1 C3 F1 89.47(22) -1_556 -101_446 n
Al1 C3 F1 104.89(24) -1_556 -101_546 n
Al1 C3 F1 101.60(10) -1_556 -101_646 n
Al1 C3 Al1 42.96(4) -1_557 -1_657 n
Al1 C3 Al1 19.923(17) -1_557 -2_457 n
Al1 C3 Al1 92.25(12) -1_557 -2_556 n
Al1 C3 Al1 23.039(27) -1_557 -2_557 n
Al1 C3 F1 102.49(7) -1_557 1_455 n
Al1 C3 F1 162.19(30) -1_557 1_555 n
Al1 C3 F1 62.23(8) -1_557 1_556 n
Al1 C3 F1 125.39(10) -1_557 1_655 n
Al1 C3 F1 26.247(20) -1_557 -1_457 n
Al1 C3 F1 87.73(12) -1_557 -1_556 n
Al1 C3 F1 12.209(21) -1_557 -1_557 n
Al1 C3 F1 49.18(4) -1_557 -1_657 n
Al1 C3 F1 12.620(34) -1_557 101_445 n
Al1 C3 F1 35.17(5) -1_557 101_545 n
Al1 C3 F1 109.37(12) -1_557 -101_446 n
Al1 C3 F1 132.14(15) -1_557 -101_546 n
Al1 C3 F1 112.84(7) -1_557 -101_646 n
Al1 C3 Al1 62.89(6) -1_657 -2_457 n
Al1 C3 Al1 85.71(9) -1_657 -2_556 n
Al1 C3 Al1 19.923(17) -1_657 -2_557 n
Al1 C3 F1 145.11(11) -1_657 1_455 n
Al1 C3 F1 145.99(14) -1_657 1_555 n
Al1 C3 F1 66.07(7) -1_657 1_556 n
Al1 C3 F1 82.66(6) -1_657 1_655 n
Al1 C3 F1 69.06(6) -1_657 -1_457 n
Al1 C3 F1 88.03(10) -1_657 -1_556 n
Al1 C3 F1 31.679(32) -1_657 -1_557 n
Al1 C3 F1 6.933(6) -1_657 -1_657 n
Al1 C3 F1 54.98(6) -1_657 101_445 n
Al1 C3 F1 9.045(13) -1_657 101_545 n
Al1 C3 F1 151.59(17) -1_657 -101_446 n
Al1 C3 F1 89.62(10) -1_657 -101_546 n
Al1 C3 F1 69.935(32) -1_657 -101_646 n
Al1 C3 Al1 95.08(11) -2_457 -2_556 n
Al1 C3 Al1 42.96(4) -2_457 -2_557 n
Al1 C3 F1 82.66(6) -2_457 1_455 n
Al1 C3 F1 145.99(14) -2_457 1_555 n
Al1 C3 F1 66.07(7) -2_457 1_556 n
Al1 C3 F1 145.11(11) -2_457 1_655 n
Al1 C3 F1 6.933(6) -2_457 -1_457 n
Al1 C3 F1 88.03(10) -2_457 -1_556 n
Al1 C3 F1 31.679(32) -2_457 -1_557 n
Al1 C3 F1 69.06(6) -2_457 -1_657 n
Al1 C3 F1 9.045(13) -2_457 101_445 n
Al1 C3 F1 54.98(6) -2_457 101_545 n
Al1 C3 F1 89.62(10) -2_457 -101_446 n
Al1 C3 F1 151.59(17) -2_457 -101_546 n
Al1 C3 F1 132.73(8) -2_457 -101_646 n
Al1 C3 Al1 88.66(11) -2_556 -2_557 n
Al1 C3 F1 92.38(14) -2_556 1_455 n
Al1 C3 F1 76.03(29) -2_556 1_555 n
Al1 C3 F1 150.77(10) -2_556 1_556 n
Al1 C3 F1 75.92(12) -2_556 1_655 n
Al1 C3 F1 99.06(10) -2_556 -1_457 n
Al1 C3 F1 9.432(15) -2_556 -1_556 n
Al1 C3 F1 94.48(12) -2_556 -1_557 n
Al1 C3 F1 88.08(9) -2_556 -1_657 n
Al1 C3 F1 89.83(12) -2_556 101_445 n
Al1 C3 F1 82.69(11) -2_556 101_545 n
Al1 C3 F1 104.89(24) -2_556 -101_446 n
Al1 C3 F1 89.47(22) -2_556 -101_546 n
Al1 C3 F1 83.92(8) -2_556 -101_646 n
Al1 C3 F1 125.39(10) -2_557 1_455 n
Al1 C3 F1 162.19(30) -2_557 1_555 n
Al1 C3 F1 62.23(8) -2_557 1_556 n
Al1 C3 F1 102.49(7) -2_557 1_655 n
Al1 C3 F1 49.18(4) -2_557 -1_457 n
Al1 C3 F1 87.73(12) -2_557 -1_556 n
Al1 C3 F1 12.209(21) -2_557 -1_557 n
Al1 C3 F1 26.247(20) -2_557 -1_657 n
Al1 C3 F1 35.17(5) -2_557 101_445 n
Al1 C3 F1 12.620(34) -2_557 101_545 n
Al1 C3 F1 132.14(15) -2_557 -101_446 n
Al1 C3 F1 109.37(12) -2_557 -101_546 n
Al1 C3 F1 89.83(4) -2_557 -101_646 n
F1 C3 F1 65.31(9) 1_455 1_555 n
F1 C3 F1 106.25(13) 1_455 1_556 n
F1 C3 F1 130.62(19) 1_455 1_655 n
F1 C3 F1 76.90(8) 1_455 -1_457 n
F1 C3 F1 85.28(13) 1_455 -1_556 n
F1 C3 F1 114.32(9) 1_455 -1_557 n
F1 C3 F1 151.63(11) 1_455 -1_657 n
F1 C3 F1 90.22(5) 1_455 101_445 n
F1 C3 F1 136.42(11) 1_455 101_545 n
F1 C3 F1 14.85(12) 1_455 -101_446 n
F1 C3 F1 125.24(19) 1_455 -101_546 n
F1 C3 F1 144.57(13) 1_455 -101_646 n
F1 C3 F1 132.07(33) 1_555 1_556 n
F1 C3 F1 65.31(9) 1_555 1_655 n
F1 C3 F1 141.45(8) 1_555 -1_457 n
F1 C3 F1 78.64(29) 1_555 -1_556 n
F1 C3 F1 170.4(4) 1_555 -1_557 n
F1 C3 F1 141.45(8) 1_555 -1_657 n
F1 C3 F1 150.67(25) 1_555 101_445 n
F1 C3 F1 150.67(25) 1_555 101_545 n
F1 C3 F1 62.20(16) 1_555 -101_446 n
F1 C3 F1 62.20(16) 1_555 -101_546 n
F1 C3 F1 79.67(7) 1_555 -101_646 n
F1 C3 F1 106.25(13) 1_556 1_655 n
F1 C3 F1 64.80(6) 1_556 -1_457 n
F1 C3 F1 149.30(10) 1_556 -1_556 n
F1 C3 F1 57.54(8) 1_556 -1_557 n
F1 C3 F1 64.80(6) 1_556 -1_657 n
F1 C3 F1 68.25(11) 1_556 101_445 n
F1 C3 F1 68.25(11) 1_556 101_545 n
F1 C3 F1 97.42(24) 1_556 -101_446 n
F1 C3 F1 97.42(24) 1_556 -101_546 n
F1 C3 F1 92.85(9) 1_556 -101_646 n
F1 C3 F1 151.63(11) 1_655 -1_457 n
F1 C3 F1 85.28(13) 1_655 -1_556 n
F1 C3 F1 114.32(9) 1_655 -1_557 n
F1 C3 F1 76.90(8) 1_655 -1_657 n
F1 C3 F1 136.42(11) 1_655 101_445 n
F1 C3 F1 90.22(5) 1_655 101_545 n
F1 C3 F1 125.24(19) 1_655 -101_446 n
F1 C3 F1 14.85(12) 1_655 -101_546 n
F1 C3 F1 15.30(11) 1_655 -101_646 n
F1 C3 F1 91.39(9) -1_457 -1_556 n
F1 C3 F1 37.512(32) -1_457 -1_557 n
F1 C3 F1 75.02(7) -1_457 -1_657 n
F1 C3 F1 15.978(18) -1_457 101_445 n
F1 C3 F1 61.42(6) -1_457 101_545 n
F1 C3 F1 83.12(10) -1_457 -101_446 n
F1 C3 F1 156.16(21) -1_457 -101_546 n
F1 C3 F1 138.50(9) -1_457 -101_646 n
F1 C3 F1 91.76(11) -1_556 -1_557 n
F1 C3 F1 91.39(9) -1_556 -1_657 n
F1 C3 F1 83.67(13) -1_556 101_445 n
F1 C3 F1 83.67(13) -1_556 101_545 n
F1 C3 F1 98.64(24) -1_556 -101_446 n
F1 C3 F1 98.64(24) -1_556 -101_546 n
F1 C3 F1 93.31(9) -1_556 -101_646 n
F1 C3 F1 37.512(32) -1_557 -1_657 n
F1 C3 F1 24.83(5) -1_557 101_445 n
F1 C3 F1 24.83(5) -1_557 101_545 n
F1 C3 F1 120.07(14) -1_557 -101_446 n
F1 C3 F1 120.07(14) -1_557 -101_546 n
F1 C3 F1 101.10(6) -1_557 -101_646 n
F1 C3 F1 61.42(6) -1_657 101_445 n
F1 C3 F1 15.978(18) -1_657 101_545 n
F1 C3 F1 156.16(21) -1_657 -101_446 n
F1 C3 F1 83.12(10) -1_657 -101_546 n
F1 C3 F1 63.671(24) -1_657 -101_646 n
F1 C3 F1 46.72(6) 101_445 101_545 n
F1 C3 F1 98.10(10) 101_445 -101_446 n
F1 C3 F1 144.53(15) 101_445 -101_546 n
F1 C3 F1 124.88(8) 101_445 -101_646 n
F1 C3 F1 144.53(15) 101_545 -101_446 n
F1 C3 F1 98.10(10) 101_545 -101_546 n
F1 C3 F1 78.19(4) 101_545 -101_646 n
F1 C3 F1 116.29(25) -101_446 -101_546 n
F1 C3 F1 136.45(18) -101_446 -101_646 n
F1 C3 F1 20.15(7) -101_546 -101_646 n
loop_
_geom_bond_atom_site_label_1
_geom_bond_atom_site_label_2
_geom_bond_distance
_geom_bond_site_symmetry_2
_geom_bond_publ_flag
Al1 Al1 6.56806(17) 1_455 n
Al1 Al1 6.56806(17) 1_655 n
Al1 Al1 9.85209(26) 2_455 n
Al1 Al1 3.28403(9) 2_555 n
Al1 Al1 3.28403(9) 2_655 n
Al1 Al1 10.51290(31) -2_556 n
Al1 Al1 10.51290(31) -2_557 n
Al1 Al1 10.51290(31) -2_566 n
Al1 Al1 10.51290(31) -2_567 n
Al1 F1 8.2464(8) 1_455 n
Al1 F1 1.8149(34) 1_555 n
Al1 F1 4.9863(13) 1_655 n
Al1 F1 10.180(5) -1_556 n
Al1 F1 10.180(5) -1_566 n
Al1 F1 10.180(5) 101_545 n
Al1 F1 10.180(5) 101_555 n
Al1 F1 4.9863(13) -101_345 n
Al1 F1 1.8149(34) -101_445 n
Al1 F1 8.2464(8) -101_545 n
Al1 O1 7.340(4) 1_455 n
Al1 O1 1.8612(33) 1_555 n
Al1 O1 6.272(4) 1_655 n
Al1 O1 9.467(4) 2_455 n
Al1 O1 3.258(4) 2_555 n
Al1 O1 4.2288(34) 2_655 n
Al1 O1 7.340(4) 3_455 n
Al1 O1 1.8612(33) 3_555 n
Al1 O1 6.272(4) 3_655 n
Al1 O1 9.467(4) 4_455 n
Al1 O1 3.258(4) 4_555 n
Al1 O1 4.2288(34) 4_655 n
Al1 O1 10.716(5) -1_556 n
Al1 O1 9.1551(33) -1_557 n
Al1 O1 9.544(4) -1_657 n
Al1 O1 10.377(5) -2_556 n
Al1 O1 8.756(4) -2_557 n
Al1 O1 10.968(5) -2_567 n
Al1 O1 10.6083(31) -2_657 n
Al1 O1 10.716(5) -3_556 n
Al1 O1 9.1551(33) -3_557 n
Al1 O1 9.544(4) -3_657 n
Al1 O1 10.968(5) -4_547 n
Al1 O1 10.377(5) -4_556 n
Al1 O1 8.756(4) -4_557 n
Al1 O1 10.6083(31) -4_657 n
Al1 O1 9.544(4) 101_454 n
Al1 O1 9.1551(33) 101_554 n
Al1 O1 10.716(5) 101_555 n
Al1 O1 10.6083(31) 102_454 n
Al1 O1 10.968(5) 102_544 n
Al1 O1 8.756(4) 102_554 n
Al1 O1 10.377(5) 102_555 n
Al1 O1 9.544(4) 103_454 n
Al1 O1 9.1551(33) 103_554 n
Al1 O1 10.716(5) 103_555 n
Al1 O1 10.6083(31) 104_454 n
Al1 O1 8.756(4) 104_554 n
Al1 O1 10.377(5) 104_555 n
Al1 O1 10.968(5) 104_564 n
Al1 O1 6.272(4) -101_345 n
Al1 O1 1.8612(33) -101_445 n
Al1 O1 7.340(4) -101_545 n
Al1 O1 4.2288(34) -102_345 n
Al1 O1 3.258(4) -102_445 n
Al1 O1 9.467(4) -102_545 n
Al1 O1 6.272(4) -103_345 n
Al1 O1 1.8612(33) -103_445 n
Al1 O1 7.340(4) -103_545 n
Al1 O1 4.2288(34) -104_345 n
Al1 O1 3.258(4) -104_445 n
Al1 O1 9.467(4) -104_545 n
Al1 C1 10.520(4) 1_455 n
Al1 C1 5.399(5) 1_555 n
Al1 C1 5.823(7) 1_655 n
Al1 C1 8.285(6) 2_455 n
Al1 C1 4.554(7) 2_555 n
Al1 C1 7.689(4) 2_655 n
Al1 C1 10.520(4) 3_455 n
Al1 C1 5.399(5) 3_555 n
Al1 C1 5.823(7) 3_655 n
Al1 C1 8.285(6) 4_455 n
Al1 C1 4.554(7) 4_555 n
Al1 C1 7.689(4) 4_655 n
Al1 C1 9.154(4) -1_457 n
Al1 C1 10.322(11) -1_556 n
Al1 C1 5.992(6) -1_557 n
Al1 C1 8.619(6) -1_657 n
Al1 C1 10.722(11) -2_556 n
Al1 C1 6.656(7) -2_557 n
Al1 C1 10.941(11) -2_656 n
Al1 C1 7.005(5) -2_657 n
Al1 C1 9.154(4) -3_457 n
Al1 C1 10.322(11) -3_556 n
Al1 C1 5.992(6) -3_557 n
Al1 C1 8.619(6) -3_657 n
Al1 C1 10.722(11) -4_556 n
Al1 C1 6.656(7) -4_557 n
Al1 C1 10.941(11) -4_656 n
Al1 C1 7.005(5) -4_657 n
Al1 C1 8.619(6) 101_454 n
Al1 C1 5.992(6) 101_554 n
Al1 C1 10.322(11) 101_555 n
Al1 C1 9.154(4) 101_654 n
Al1 C1 7.005(5) 102_454 n
Al1 C1 10.941(11) 102_455 n
Al1 C1 6.656(7) 102_554 n
Al1 C1 10.722(11) 102_555 n
Al1 C1 8.619(6) 103_454 n
Al1 C1 5.992(6) 103_554 n
Al1 C1 10.322(11) 103_555 n
Al1 C1 9.154(4) 103_654 n
Al1 C1 7.005(5) 104_454 n
Al1 C1 10.941(11) 104_455 n
Al1 C1 6.656(7) 104_554 n
Al1 C1 10.722(11) 104_555 n
Al1 C1 5.823(7) -101_345 n
Al1 C1 5.399(5) -101_445 n
Al1 C1 10.520(4) -101_545 n
Al1 C1 7.689(4) -102_345 n
Al1 C1 4.554(7) -102_445 n
Al1 C1 8.285(6) -102_545 n
Al1 C1 5.823(7) -103_345 n
Al1 C1 5.399(5) -103_445 n
Al1 C1 10.520(4) -103_545 n
Al1 C1 7.689(4) -104_345 n
Al1 C1 4.554(7) -104_445 n
Al1 C1 8.285(6) -104_545 n
Al1 C2 9.153(4) 1_455 n
Al1 C2 4.367(9) 1_555 n
Al1 C2 6.375(6) 1_655 n
Al1 C2 9.153(4) 3_455 n
Al1 C2 4.367(9) 3_555 n
Al1 C2 6.375(6) 3_655 n
Al1 C2 10.453(6) -1_457 n
Al1 C2 10.686(13) -1_556 n
Al1 C2 6.675(10) -1_557 n
Al1 C2 8.132(8) -1_657 n
Al1 C2 10.453(6) -3_457 n
Al1 C2 10.686(13) -3_556 n
Al1 C2 6.675(10) -3_557 n
Al1 C2 8.132(8) -3_657 n
Al1 C2 8.132(8) 101_454 n
Al1 C2 6.675(10) 101_554 n
Al1 C2 10.686(13) 101_555 n
Al1 C2 10.453(6) 101_654 n
Al1 C2 8.132(8) 103_454 n
Al1 C2 6.675(10) 103_554 n
Al1 C2 10.686(13) 103_555 n
Al1 C2 10.453(6) 103_654 n
Al1 C2 6.375(6) -101_345 n
Al1 C2 4.367(9) -101_445 n
Al1 C2 9.153(4) -101_545 n
Al1 C2 6.375(6) -103_345 n
Al1 C2 4.367(9) -103_445 n
Al1 C2 9.153(4) -103_545 n
Al1 C3 8.5702(28) 1_455 n
Al1 C3 2.956(8) 1_555 n
Al1 C3 5.505(4) 1_655 n
Al1 C3 8.5702(28) 3_455 n
Al1 C3 2.956(8) 3_555 n
Al1 C3 5.505(4) 3_655 n
Al1 C3 10.478(14) -1_556 n
Al1 C3 8.222(9) -1_557 n
Al1 C3 9.443(8) -1_657 n
Al1 C3 10.478(14) -3_556 n
Al1 C3 8.222(9) -3_557 n
Al1 C3 9.443(8) -3_657 n
Al1 C3 9.443(8) 101_454 n
Al1 C3 8.222(9) 101_554 n
Al1 C3 10.478(14) 101_555 n
Al1 C3 9.443(8) 103_454 n
Al1 C3 8.222(9) 103_554 n
Al1 C3 10.478(14) 103_555 n
Al1 C3 5.505(4) -101_345 n
Al1 C3 2.956(8) -101_445 n
Al1 C3 8.5702(28) -101_545 n
Al1 C3 5.505(4) -103_345 n
Al1 C3 2.956(8) -103_445 n
Al1 C3 8.5702(28) -103_545 n
F1 Al1 4.9863(13) 1_455 n
F1 Al1 1.8149(34) 1_555 n
F1 Al1 8.2464(8) 1_655 n
F1 Al1 8.2464(8) 2_455 n
F1 Al1 1.8149(34) 2_555 n
F1 Al1 4.9863(13) 2_655 n
F1 Al1 10.180(5) -1_556 n
F1 Al1 10.180(5) -1_566 n
F1 Al1 10.180(5) -2_556 n
F1 Al1 10.180(5) -2_566 n
F1 F1 6.56806(17) 1_455 n
F1 F1 6.56806(17) 1_655 n
F1 F1 9.621(8) -1_556 n
F1 F1 9.621(8) -1_566 n
F1 F1 3.630(7) -101_345 n
F1 F1 3.630(7) -101_445 n
F1 F1 9.9727(25) -101_545 n
F1 O1 5.966(5) 1_455 n
F1 O1 2.600(7) 1_555 n
F1 O1 8.013(4) 1_655 n
F1 O1 8.013(4) 2_455 n
F1 O1 2.600(7) 2_555 n
F1 O1 5.966(5) 2_655 n
F1 O1 5.966(5) 3_455 n
F1 O1 2.600(7) 3_555 n
F1 O1 8.013(4) 3_655 n
F1 O1 8.013(4) 4_455 n
F1 O1 2.600(7) 4_555 n
F1 O1 5.966(5) 4_655 n
F1 O1 9.857(6) -1_556 n
F1 O1 9.300(6) -1_557 n
F1 O1 10.739(7) -1_657 n
F1 O1 10.739(7) -2_457 n
F1 O1 9.857(6) -2_556 n
F1 O1 9.300(6) -2_557 n
F1 O1 9.857(6) -3_556 n
F1 O1 9.300(6) -3_557 n
F1 O1 10.739(7) -3_657 n
F1 O1 10.739(7) -4_457 n
F1 O1 9.857(6) -4_556 n
F1 O1 9.300(6) -4_557 n
F1 O1 10.819(6) 101_444 n
F1 O1 8.568(5) 101_454 n
F1 O1 9.366(5) 101_554 n
F1 O1 9.366(5) 102_454 n
F1 O1 10.819(6) 102_544 n
F1 O1 8.568(5) 102_554 n
F1 O1 8.568(5) 103_454 n
F1 O1 10.819(6) 103_464 n
F1 O1 9.366(5) 103_554 n
F1 O1 9.366(5) 104_454 n
F1 O1 8.568(5) 104_554 n
F1 O1 10.819(6) 104_564 n
F1 O1 4.589(4) -101_345 n
F1 O1 2.5988(32) -101_445 n
F1 O1 8.873(4) -101_545 n
F1 O1 2.5988(32) -102_345 n
F1 O1 4.589(4) -102_445 n
F1 O1 4.589(4) -103_345 n
F1 O1 2.5988(32) -103_445 n
F1 O1 8.873(4) -103_545 n
F1 O1 2.5988(32) -104_345 n
F1 O1 4.589(4) -104_445 n
F1 C1 9.325(5) 1_455 n
F1 C1 10.457(13) 1_554 n
F1 C1 5.196(7) 1_555 n
F1 C1 7.302(6) 1_655 n
F1 C1 7.302(6) 2_455 n
F1 C1 10.457(13) 2_554 n
F1 C1 5.196(7) 2_555 n
F1 C1 9.325(5) 2_655 n
F1 C1 9.325(5) 3_455 n
F1 C1 10.457(13) 3_554 n
F1 C1 5.196(7) 3_555 n
F1 C1 7.302(6) 3_655 n
F1 C1 7.302(6) 4_455 n
F1 C1 10.457(13) 4_554 n
F1 C1 5.196(7) 4_555 n
F1 C1 9.325(5) 4_655 n
F1 C1 10.984(12) -1_456 n
F1 C1 8.388(7) -1_457 n
F1 C1 9.712(13) -1_556 n
F1 C1 6.636(10) -1_557 n
F1 C1 10.198(8) -1_657 n
F1 C1 10.198(8) -2_457 n
F1 C1 9.712(13) -2_556 n
F1 C1 6.636(10) -2_557 n
F1 C1 10.984(12) -2_656 n
F1 C1 8.388(7) -2_657 n
F1 C1 10.984(12) -3_456 n
F1 C1 8.388(7) -3_457 n
F1 C1 9.712(13) -3_556 n
F1 C1 6.636(10) -3_557 n
F1 C1 10.198(8) -3_657 n
F1 C1 10.198(8) -4_457 n
F1 C1 9.712(13) -4_556 n
F1 C1 6.636(10) -4_557 n
F1 C1 10.984(12) -4_656 n
F1 C1 8.388(7) -4_657 n
F1 C1 7.153(6) 101_454 n
F1 C1 5.861(6) 101_554 n
F1 C1 10.189(5) 101_654 n
F1 C1 5.861(6) 102_454 n
F1 C1 7.153(6) 102_554 n
F1 C1 7.153(6) 103_454 n
F1 C1 5.861(6) 103_554 n
F1 C1 10.189(5) 103_654 n
F1 C1 5.861(6) 104_454 n
F1 C1 7.153(6) 104_554 n
F1 C1 4.591(9) -101_345 n
F1 C1 6.156(6) -101_445 n
F1 C1 6.156(6) -102_345 n
F1 C1 4.591(9) -102_445 n
F1 C1 9.515(7) -102_545 n
F1 C1 4.591(9) -103_345 n
F1 C1 6.156(6) -103_445 n
F1 C1 6.156(6) -104_345 n
F1 C1 4.591(9) -104_445 n
F1 C1 9.515(7) -104_545 n
F1 C2 8.013(8) 1_455 n
F1 C2 10.219(16) 1_554 n
F1 C2 4.589(13) 1_555 n
F1 C2 8.013(8) 1_655 n
F1 C2 8.013(8) 3_455 n
F1 C2 10.219(16) 3_554 n
F1 C2 4.589(13) 3_555 n
F1 C2 8.013(8) 3_655 n
F1 C2 9.576(7) -1_457 n
F1 C2 9.891(15) -1_556 n
F1 C2 6.968(10) -1_557 n
F1 C2 9.576(7) -1_657 n
F1 C2 9.576(7) -3_457 n
F1 C2 9.891(15) -3_556 n
F1 C2 6.968(10) -3_557 n
F1 C2 9.576(7) -3_657 n
F1 C2 6.867(10) 101_454 n
F1 C2 6.867(10) 101_554 n
F1 C2 6.867(10) 103_454 n
F1 C2 6.867(10) 103_554 n
F1 C2 4.865(7) -101_345 n
F1 C2 4.865(7) -101_445 n
F1 C2 10.4856(33) -101_545 n
F1 C2 4.865(7) -103_345 n
F1 C2 4.865(7) -103_445 n
F1 C2 10.4856(33) -103_545 n
F1 C3 7.229(5) 1_455 n
F1 C3 10.952(17) 1_554 n
F1 C3 3.019(13) 1_555 n
F1 C3 7.229(5) 1_655 n
F1 C3 7.229(5) 3_455 n
F1 C3 10.952(17) 3_554 n
F1 C3 3.019(13) 3_555 n
F1 C3 7.229(5) 3_655 n
F1 C3 10.786(8) -1_457 n
F1 C3 9.749(15) -1_556 n
F1 C3 8.556(10) -1_557 n
F1 C3 10.786(8) -1_657 n
F1 C3 10.786(8) -3_457 n
F1 C3 9.749(15) -3_556 n
F1 C3 8.556(10) -3_557 n
F1 C3 10.786(8) -3_657 n
F1 C3 8.282(10) 101_454 n
F1 C3 8.282(10) 101_554 n
F1 C3 8.282(10) 103_454 n
F1 C3 8.282(10) 103_554 n
F1 C3 3.866(5) -101_345 n
F1 C3 3.866(5) -101_445 n
F1 C3 10.0612(20) -101_545 n
F1 C3 3.866(5) -103_345 n
F1 C3 3.866(5) -103_445 n
F1 C3 10.0612(20) -103_545 n
O1 Al1 6.272(4) 1_455 n
O1 Al1 1.8612(33) 1_555 n
O1 Al1 7.340(4) 1_655 n
O1 Al1 9.467(4) 2_455 n
O1 Al1 3.258(4) 2_555 n
O1 Al1 4.2288(34) 2_655 n
O1 Al1 10.716(5) -1_556 n
O1 Al1 9.1551(33) -1_557 n
O1 Al1 9.544(4) -1_657 n
O1 Al1 10.6083(31) -2_457 n
O1 Al1 10.377(5) -2_556 n
O1 Al1 8.756(4) -2_557 n
O1 Al1 10.968(5) -2_567 n
O1 F1 8.013(4) 1_455 n
O1 F1 2.600(7) 1_555 n
O1 F1 5.966(5) 1_655 n
O1 F1 9.857(6) -1_556 n
O1 F1 9.300(6) -1_557 n
O1 F1 10.739(7) -1_657 n
O1 F1 9.366(5) 101_445 n
O1 F1 8.568(5) 101_545 n
O1 F1 10.819(6) 101_555 n
O1 F1 4.589(4) -101_345 n
O1 F1 2.5988(32) -101_445 n
O1 F1 8.873(4) -101_545 n
O1 O1 6.56806(17) 1_455 n
O1 O1 6.56806(17) 1_655 n
O1 O1 8.746(8) 2_455 n
O1 O1 2.178(8) 2_555 n
O1 O1 4.390(8) 2_655 n
O1 O1 7.0868(32) 3_455 n
O1 O1 2.661(8) 3_555 n
O1 O1 7.0868(32) 3_655 n
O1 O1 9.142(8) 4_455 n
O1 O1 3.439(9) 4_555 n
O1 O1 5.134(7) 4_655 n
O1 O1 10.737(10) -1_556 n
O1 O1 7.297(7) -1_557 n
O1 O1 8.233(8) -1_657 n
O1 O1 9.573(5) -2_457 n
O1 O1 10.514(10) -2_556 n
O1 O1 6.965(7) -2_557 n
O1 O1 9.573(5) -2_657 n
O1 O1 9.476(5) -3_547 n
O1 O1 9.476(5) -3_557 n
O1 O1 10.214(5) -3_647 n
O1 O1 10.214(5) -3_657 n
O1 O1 9.223(4) -4_547 n
O1 O1 9.223(4) -4_557 n
O1 O1 10.5710(9) 102_544 n
O1 O1 10.5710(9) 102_545 n
O1 O1 10.5710(9) 102_554 n
O1 O1 10.5710(9) 102_555 n
O1 O1 9.207(5) 103_454 n
O1 O1 9.207(5) 103_455 n
O1 O1 9.207(5) 103_554 n
O1 O1 9.207(5) 103_555 n
O1 O1 10.189(5) 104_454 n
O1 O1 10.189(5) 104_455 n
O1 O1 8.672(6) 104_554 n
O1 O1 8.672(6) 104_555 n
O1 O1 6.516(8) -101_345 n
O1 O1 3.722(7) -101_445 n
O1 O1 8.458(7) -101_545 n
O1 O1 4.839(5) -102_345 n
O1 O1 4.839(5) -102_445 n
O1 O1 10.4735(25) -102_545 n
O1 O1 5.948(8) -103_345 n
O1 O1 2.602(9) -103_445 n
O1 O1 10.868(9) -103_446 n
O1 O1 8.028(8) -103_545 n
O1 O1 4.041(5) -104_345 n
O1 O1 4.041(5) -104_445 n
O1 O1 10.1298(22) -104_545 n
O1 C1 9.358(5) 1_455 n
O1 C1 3.649(6) 1_555 n
O1 C1 5.034(6) 1_655 n
O1 C1 6.955(8) 2_455 n
O1 C1 2.782(7) 2_555 n
O1 C1 7.307(6) 2_655 n
O1 C1 10.347(6) 3_455 n
O1 C1 5.728(9) 3_555 n
O1 C1 6.696(8) 3_655 n
O1 C1 8.238(10) 4_455 n
O1 C1 5.219(10) 4_555 n
O1 C1 8.537(6) 4_655 n
O1 C1 7.638(6) -1_457 n
O1 C1 10.926(12) -1_556 n
O1 C1 4.208(8) -1_557 n
O1 C1 7.960(8) -1_657 n
O1 C1 9.876(5) -2_457 n
O1 C1 4.825(7) -2_557 n
O1 C1 5.942(7) -2_657 n
O1 C1 9.081(7) -3_457 n
O1 C1 10.876(11) -3_547 n
O1 C1 6.469(8) -3_557 n
O1 C1 9.354(8) -3_657 n
O1 C1 6.886(7) -4_557 n
O1 C1 7.710(7) -4_657 n
O1 C1 9.599(7) 101_454 n
O1 C1 7.812(7) 101_554 n
O1 C1 10.033(12) 101_555 n
O1 C1 10.779(5) 101_654 n
O1 C1 8.352(6) 102_454 n
O1 C1 10.459(12) 102_455 n
O1 C1 8.501(8) 102_554 n
O1 C1 10.578(11) 102_555 n
O1 C1 8.246(8) 103_454 n
O1 C1 10.375(9) 103_455 n
O1 C1 6.074(9) 103_554 n
O1 C1 8.748(11) 103_555 n
O1 C1 9.594(6) 103_654 n
O1 C1 6.754(7) 104_454 n
O1 C1 9.233(11) 104_455 n
O1 C1 6.937(10) 104_554 n
O1 C1 9.368(10) 104_555 n
O1 C1 7.029(9) -101_345 n
O1 C1 7.205(6) -101_445 n
O1 C1 8.473(7) -102_345 n
O1 C1 6.378(8) -102_445 n
O1 C1 10.601(12) -102_446 n
O1 C1 9.790(6) -102_545 n
O1 C1 5.469(8) -103_345 n
O1 C1 10.080(11) -103_346 n
O1 C1 5.694(7) -103_445 n
O1 C1 10.204(11) -103_446 n
O1 C1 7.231(6) -104_345 n
O1 C1 4.602(8) -104_445 n
O1 C1 9.637(12) -104_446 n
O1 C1 8.737(6) -104_545 n
O1 C2 7.986(4) 1_455 n
O1 C2 2.517(9) 1_555 n
O1 C2 5.931(7) 1_655 n
O1 C2 8.949(5) 3_455 n
O1 C2 4.758(9) 3_555 n
O1 C2 7.175(8) 3_655 n
O1 C2 8.984(7) -1_457 n
O1 C2 4.824(10) -1_557 n
O1 C2 7.218(6) -1_657 n
O1 C2 10.394(9) -3_457 n
O1 C2 10.363(12) -3_547 n
O1 C2 7.113(12) -3_557 n
O1 C2 8.912(8) -3_657 n
O1 C2 9.332(11) 101_454 n
O1 C2 8.531(10) 101_554 n
O1 C2 10.555(13) 101_555 n
O1 C2 7.731(10) 103_454 n
O1 C2 9.919(12) 103_455 n
O1 C2 6.742(10) 103_554 n
O1 C2 9.170(13) 103_555 n
O1 C2 10.837(6) 103_654 n
O1 C2 7.283(8) -101_345 n
O1 C2 6.224(10) -101_445 n
O1 C2 10.557(14) -101_446 n
O1 C2 10.522(7) -101_545 n
O1 C2 6.061(9) -103_345 n
O1 C2 10.462(13) -103_346 n
O1 C2 4.736(13) -103_445 n
O1 C2 9.754(14) -103_446 n
O1 C2 9.716(8) -103_545 n
O1 C3 7.687(4) 1_455 n
O1 C3 1.285(5) 1_555 n
O1 C3 5.522(5) 1_655 n
O1 C3 8.308(4) 3_455 n
O1 C3 3.402(9) 3_555 n
O1 C3 6.357(7) 3_655 n
O1 C3 9.905(7) -1_457 n
O1 C3 10.671(13) -1_556 n
O1 C3 6.377(9) -1_557 n
O1 C3 8.337(7) -1_657 n
O1 C3 9.585(15) -3_547 n
O1 C3 8.624(13) -3_557 n
O1 C3 10.986(14) -3_647 n
O1 C3 10.159(10) -3_657 n
O1 C3 10.760(11) 101_454 n
O1 C3 10.907(17) 101_544 n
O1 C3 10.073(10) 101_554 n
O1 C3 10.613(17) 101_555 n
O1 C3 9.059(10) 103_454 n
O1 C3 9.656(14) 103_455 n
O1 C3 8.232(10) 103_554 n
O1 C3 8.885(15) 103_555 n
O1 C3 6.087(6) -101_345 n
O1 C3 4.770(9) -101_445 n
O1 C3 9.733(6) -101_545 n
O1 C3 5.209(7) -103_345 n
O1 C3 3.582(10) -103_445 n
O1 C3 10.630(12) -103_446 n
O1 C3 9.209(6) -103_545 n
C1 Al1 5.823(7) 1_455 n
C1 Al1 5.399(5) 1_555 n
C1 Al1 10.520(4) 1_655 n
C1 Al1 8.285(6) 2_455 n
C1 Al1 4.554(7) 2_555 n
C1 Al1 7.689(4) 2_655 n
C1 Al1 9.154(4) -1_457 n
C1 Al1 10.322(11) -1_556 n
C1 Al1 5.992(6) -1_557 n
C1 Al1 8.619(6) -1_657 n
C1 Al1 10.941(11) -2_456 n
C1 Al1 7.005(5) -2_457 n
C1 Al1 10.722(11) -2_556 n
C1 Al1 6.656(7) -2_557 n
C1 F1 7.302(6) 1_455 n
C1 F1 5.196(7) 1_555 n
C1 F1 10.457(13) 1_556 n
C1 F1 9.325(5) 1_655 n
C1 F1 10.984(12) -1_456 n
C1 F1 8.388(7) -1_457 n
C1 F1 9.712(13) -1_556 n
C1 F1 6.636(10) -1_557 n
C1 F1 10.198(8) -1_657 n
C1 F1 5.861(6) 101_445 n
C1 F1 7.153(6) 101_545 n
C1 F1 4.591(9) -101_345 n
C1 F1 6.156(6) -101_445 n
C1 O1 5.034(6) 1_455 n
C1 O1 3.649(6) 1_555 n
C1 O1 9.358(5) 1_655 n
C1 O1 6.955(8) 2_455 n
C1 O1 2.782(7) 2_555 n
C1 O1 7.307(6) 2_655 n
C1 O1 6.696(8) 3_455 n
C1 O1 5.728(9) 3_555 n
C1 O1 10.347(6) 3_655 n
C1 O1 8.238(10) 4_455 n
C1 O1 5.219(10) 4_555 n
C1 O1 8.537(6) 4_655 n
C1 O1 7.638(6) -1_457 n
C1 O1 10.926(12) -1_556 n
C1 O1 4.208(8) -1_557 n
C1 O1 7.960(8) -1_657 n
C1 O1 5.942(7) -2_457 n
C1 O1 4.825(7) -2_557 n
C1 O1 9.876(5) -2_657 n
C1 O1 9.081(7) -3_447 n
C1 O1 6.469(8) -3_547 n
C1 O1 10.876(11) -3_557 n
C1 O1 9.354(8) -3_647 n
C1 O1 7.710(7) -4_447 n
C1 O1 6.886(7) -4_547 n
C1 O1 10.033(12) 101_444 n
C1 O1 7.812(7) 101_445 n
C1 O1 9.599(7) 101_545 n
C1 O1 10.459(12) 102_444 n
C1 O1 8.352(6) 102_445 n
C1 O1 10.578(11) 102_544 n
C1 O1 8.501(8) 102_545 n
C1 O1 8.748(11) 103_454 n
C1 O1 6.074(9) 103_455 n
C1 O1 10.375(9) 103_554 n
C1 O1 8.246(8) 103_555 n
C1 O1 9.233(11) 104_454 n
C1 O1 6.754(7) 104_455 n
C1 O1 9.368(10) 104_554 n
C1 O1 6.937(10) 104_555 n
C1 O1 7.029(9) -101_345 n
C1 O1 7.205(6) -101_445 n
C1 O1 6.378(8) -102_345 n
C1 O1 10.601(12) -102_346 n
C1 O1 8.473(7) -102_445 n
C1 O1 5.469(8) -103_345 n
C1 O1 10.080(11) -103_346 n
C1 O1 5.694(7) -103_445 n
C1 O1 10.204(11) -103_446 n
C1 O1 4.602(8) -104_345 n
C1 O1 9.637(12) -104_346 n
C1 O1 7.231(6) -104_445 n
C1 C1 6.56806(17) 1_455 n
C1 C1 6.56806(17) 1_655 n
C1 C1 4.008(9) 2_455 n
C1 C1 2.560(9) 2_555 n
C1 C1 9.128(9) 2_655 n
C1 C1 9.838(14) 3_455 n
C1 C1 9.068(19) 3_545 n
C1 C1 7.325(19) 3_555 n
C1 C1 9.838(14) 3_655 n
C1 C1 9.914(17) 4_445 n
C1 C1 8.350(17) 4_455 n
C1 C1 9.422(18) 4_545 n
C1 C1 7.759(17) 4_555 n
C1 C1 4.279(8) -1_457 n
C1 C1 2.966(12) -1_557 n
C1 C1 9.250(10) -1_657 n
C1 C1 6.7366(29) -2_457 n
C1 C1 1.497(13) -2_557 n
C1 C1 6.7366(29) -2_657 n
C1 C1 9.205(4) -3_447 n
C1 C1 9.205(4) -3_457 n
C1 C1 8.673(4) -3_547 n
C1 C1 8.673(4) -3_557 n
C1 C1 10.5737(22) -4_447 n
C1 C1 10.5737(22) -4_457 n
C1 C1 8.2864(27) -4_547 n
C1 C1 8.2864(27) -4_557 n
C1 C1 10.5737(22) -4_647 n
C1 C1 10.5737(22) -4_657 n
C1 C1 10.5378(7) 102_444 n
C1 C1 10.5378(7) 102_445 n
C1 C1 10.5378(7) 102_454 n
C1 C1 10.5378(7) 102_455 n
C1 C1 7.4084(22) 103_454 n
C1 C1 7.4084(22) 103_455 n
C1 C1 7.4084(22) 103_554 n
C1 C1 7.4084(22) 103_555 n
C1 C1 6.6801(25) 104_454 n
C1 C1 6.6801(25) 104_455 n
C1 C1 8.846(7) 104_554 n
C1 C1 8.846(7) 104_555 n
C1 C1 10.561(22) -101_335 n
C1 C1 9.109(13) -101_345 n
C1 C1 10.726(23) -101_346 n
C1 C1 10.798(10) -101_445 n
C1 C1 9.656(12) -102_345 n
C1 C1 9.656(12) -102_445 n
C1 C1 5.414(19) -103_345 n
C1 C1 7.835(18) -103_346 n
C1 C1 7.933(13) -103_445 n
C1 C1 9.747(17) -103_446 n
C1 C1 6.291(16) -104_345 n
C1 C1 8.464(17) -104_346 n
C1 C1 6.291(16) -104_445 n
C1 C1 8.464(17) -104_446 n
C1 C2 5.322(5) 1_455 n
C1 C2 1.414(7) 1_555 n
C1 C2 7.871(4) 1_655 n
C1 C2 8.556(9) 3_455 n
C1 C2 9.751(11) 3_545 n
C1 C2 6.846(11) 3_555 n
C1 C2 10.336(9) 3_655 n
C1 C2 5.631(6) -1_457 n
C1 C2 2.319(7) -1_557 n
C1 C2 8.083(4) -1_657 n
C1 C2 9.341(12) -3_447 n
C1 C2 10.340(15) -3_457 n
C1 C2 7.806(15) -3_547 n
C1 C2 8.977(16) -3_557 n
C1 C2 10.995(12) -3_647 n
C1 C2 10.275(18) 101_444 n
C1 C2 10.226(14) 101_445 n
C1 C2 7.073(17) 103_454 n
C1 C2 7.001(16) 103_455 n
C1 C2 8.176(14) 103_554 n
C1 C2 8.114(15) 103_555 n
C1 C2 8.811(8) -101_345 n
C1 C2 10.522(16) -101_346 n
C1 C2 9.718(8) -101_445 n
C1 C2 5.723(13) -103_345 n
C1 C2 8.114(14) -103_346 n
C1 C2 7.040(11) -103_445 n
C1 C2 9.091(12) -103_446 n
C1 C3 5.689(8) 1_455 n
C1 C3 2.458(10) 1_555 n
C1 C3 8.124(4) 1_655 n
C1 C3 7.725(11) 3_455 n
C1 C3 10.994(14) 3_545 n
C1 C3 5.775(14) 3_555 n
C1 C3 9.659(10) 3_655 n
C1 C3 6.354(8) -1_457 n
C1 C3 3.748(9) -1_557 n
C1 C3 8.602(5) -1_657 n
C1 C3 8.613(12) -3_447 n
C1 C3 6.918(16) -3_547 n
C1 C3 10.335(15) -3_557 n
C1 C3 10.383(12) -3_647 n
C1 C3 10.183(17) 101_444 n
C1 C3 8.674(12) 101_445 n
C1 C3 10.977(16) 101_544 n
C1 C3 9.594(12) 101_545 n
C1 C3 8.359(15) 103_454 n
C1 C3 6.436(14) 103_455 n
C1 C3 9.311(12) 103_554 n
C1 C3 7.631(13) 103_555 n
C1 C3 7.275(10) -101_345 n
C1 C3 10.651(19) -101_346 n
C1 C3 8.351(9) -101_445 n
C1 C3 5.061(16) -103_345 n
C1 C3 9.281(16) -103_346 n
C1 C3 6.513(12) -103_445 n
C1 C3 10.147(15) -103_446 n
C2 Al1 6.375(6) 1_455 n
C2 Al1 4.367(9) 1_555 n
C2 Al1 9.153(4) 1_655 n
C2 Al1 9.153(4) 2_455 n
C2 Al1 4.367(9) 2_555 n
C2 Al1 6.375(6) 2_655 n
C2 Al1 10.453(6) -1_457 n
C2 Al1 10.686(13) -1_556 n
C2 Al1 6.675(10) -1_557 n
C2 Al1 8.132(8) -1_657 n
C2 Al1 8.132(8) -2_457 n
C2 Al1 10.686(13) -2_556 n
C2 Al1 6.675(10) -2_557 n
C2 Al1 10.453(6) -2_657 n
C2 F1 8.013(8) 1_455 n
C2 F1 4.589(13) 1_555 n
C2 F1 10.219(16) 1_556 n
C2 F1 8.013(8) 1_655 n
C2 F1 9.576(7) -1_457 n
C2 F1 9.891(15) -1_556 n
C2 F1 6.968(10) -1_557 n
C2 F1 9.576(7) -1_657 n
C2 F1 6.867(10) 101_445 n
C2 F1 6.867(10) 101_545 n
C2 F1 4.865(7) -101_345 n
C2 F1 4.865(7) -101_445 n
C2 F1 10.4856(33) -101_545 n
C2 O1 5.931(7) 1_455 n
C2 O1 2.517(9) 1_555 n
C2 O1 7.986(4) 1_655 n
C2 O1 7.986(4) 2_455 n
C2 O1 2.517(9) 2_555 n
C2 O1 5.931(7) 2_655 n
C2 O1 7.175(8) 3_455 n
C2 O1 4.758(9) 3_555 n
C2 O1 8.949(5) 3_655 n
C2 O1 8.949(5) 4_455 n
C2 O1 4.758(9) 4_555 n
C2 O1 7.175(8) 4_655 n
C2 O1 8.984(7) -1_457 n
C2 O1 4.824(10) -1_557 n
C2 O1 7.218(6) -1_657 n
C2 O1 7.218(6) -2_457 n
C2 O1 4.824(10) -2_557 n
C2 O1 8.984(7) -2_657 n
C2 O1 10.394(9) -3_447 n
C2 O1 7.113(12) -3_547 n
C2 O1 10.363(12) -3_557 n
C2 O1 8.912(8) -3_647 n
C2 O1 8.912(8) -4_447 n
C2 O1 7.113(12) -4_547 n
C2 O1 10.363(12) -4_557 n
C2 O1 10.394(9) -4_647 n
C2 O1 10.555(13) 101_444 n
C2 O1 8.531(10) 101_445 n
C2 O1 9.332(11) 101_545 n
C2 O1 9.332(11) 102_445 n
C2 O1 10.555(13) 102_544 n
C2 O1 8.531(10) 102_545 n
C2 O1 9.170(13) 103_454 n
C2 O1 6.742(10) 103_455 n
C2 O1 9.919(12) 103_554 n
C2 O1 7.731(10) 103_555 n
C2 O1 9.919(12) 104_454 n
C2 O1 7.731(10) 104_455 n
C2 O1 9.170(13) 104_554 n
C2 O1 6.742(10) 104_555 n
C2 O1 10.837(6) 104_655 n
C2 O1 7.283(8) -101_345 n
C2 O1 6.224(10) -101_445 n
C2 O1 10.557(14) -101_446 n
C2 O1 10.522(7) -101_545 n
C2 O1 6.224(10) -102_345 n
C2 O1 10.557(14) -102_346 n
C2 O1 7.283(8) -102_445 n
C2 O1 6.061(9) -103_345 n
C2 O1 10.462(13) -103_346 n
C2 O1 4.736(13) -103_445 n
C2 O1 9.754(14) -103_446 n
C2 O1 9.716(8) -103_545 n
C2 O1 4.736(13) -104_345 n
C2 O1 9.754(14) -104_346 n
C2 O1 6.061(9) -104_445 n
C2 O1 10.462(13) -104_446 n
C2 C1 7.871(4) 1_455 n
C2 C1 1.414(7) 1_555 n
C2 C1 5.322(5) 1_655 n
C2 C1 5.322(5) 2_455 n
C2 C1 1.414(7) 2_555 n
C2 C1 7.871(4) 2_655 n
C2 C1 10.336(9) 3_455 n
C2 C1 9.751(11) 3_545 n
C2 C1 6.846(11) 3_555 n
C2 C1 8.556(9) 3_655 n
C2 C1 8.556(9) 4_455 n
C2 C1 9.751(11) 4_545 n
C2 C1 6.846(11) 4_555 n
C2 C1 10.336(9) 4_655 n
C2 C1 5.631(6) -1_457 n
C2 C1 2.319(7) -1_557 n
C2 C1 8.083(4) -1_657 n
C2 C1 8.083(4) -2_457 n
C2 C1 2.319(7) -2_557 n
C2 C1 5.631(6) -2_657 n
C2 C1 10.340(15) -3_447 n
C2 C1 9.341(12) -3_457 n
C2 C1 8.977(16) -3_547 n
C2 C1 7.806(15) -3_557 n
C2 C1 10.995(12) -3_657 n
C2 C1 10.995(12) -4_457 n
C2 C1 8.977(16) -4_547 n
C2 C1 7.806(15) -4_557 n
C2 C1 10.340(15) -4_647 n
C2 C1 9.341(12) -4_657 n
C2 C1 10.226(14) 101_554 n
C2 C1 10.275(18) 101_555 n
C2 C1 10.226(14) 102_454 n
C2 C1 10.275(18) 102_455 n
C2 C1 8.114(15) 103_454 n
C2 C1 8.176(14) 103_455 n
C2 C1 7.001(16) 103_554 n
C2 C1 7.073(17) 103_555 n
C2 C1 10.885(10) 103_654 n
C2 C1 10.931(12) 103_655 n
C2 C1 7.001(16) 104_454 n
C2 C1 7.073(17) 104_455 n
C2 C1 8.114(15) 104_554 n
C2 C1 8.176(14) 104_555 n
C2 C1 8.811(8) -101_345 n
C2 C1 10.522(16) -101_346 n
C2 C1 9.718(8) -101_445 n
C2 C1 9.718(8) -102_345 n
C2 C1 8.811(8) -102_445 n
C2 C1 10.522(16) -102_446 n
C2 C1 5.723(13) -103_345 n
C2 C1 8.114(14) -103_346 n
C2 C1 7.040(11) -103_445 n
C2 C1 9.091(12) -103_446 n
C2 C1 7.040(11) -104_345 n
C2 C1 9.091(12) -104_346 n
C2 C1 5.723(13) -104_445 n
C2 C1 8.114(14) -104_446 n
C2 C1 10.110(8) -104_545 n
C2 C2 6.56806(17) 1_455 n
C2 C2 6.56806(17) 1_655 n
C2 C2 8.982(14) 3_455 n
C2 C2 10.266(20) 3_545 n
C2 C2 6.126(20) 3_555 n
C2 C2 8.982(14) 3_655 n
C2 C2 7.007(7) -1_457 n
C2 C2 2.442(19) -1_557 n
C2 C2 7.007(7) -1_657 n
C2 C2 10.5828(31) -3_447 n
C2 C2 10.5828(31) -3_457 n
C2 C2 8.298(4) -3_547 n
C2 C2 8.298(4) -3_557 n
C2 C2 10.5828(31) -3_647 n
C2 C2 10.5828(31) -3_657 n
C2 C2 7.643(5) 103_454 n
C2 C2 7.643(5) 103_455 n
C2 C2 7.643(5) 103_554 n
C2 C2 7.643(5) 103_555 n
C2 C2 8.734(19) -101_345 n
C2 C2 10.506(25) -101_346 n
C2 C2 8.734(19) -101_445 n
C2 C2 10.506(25) -101_446 n
C2 C2 6.225(22) -103_345 n
C2 C2 8.535(24) -103_346 n
C2 C2 6.225(22) -103_445 n
C2 C2 8.535(24) -103_446 n
C2 C3 6.7574(25) 1_455 n
C2 C3 1.589(10) 1_555 n
C2 C3 6.7574(25) 1_655 n
C2 C3 8.277(9) 3_455 n
C2 C3 5.037(15) 3_555 n
C2 C3 8.277(9) 3_655 n
C2 C3 7.700(9) -1_457 n
C2 C3 4.018(16) -1_557 n
C2 C3 7.700(9) -1_657 n
C2 C3 9.878(12) -3_447 n
C2 C3 7.377(17) -3_547 n
C2 C3 9.681(16) -3_557 n
C2 C3 9.878(12) -3_647 n
C2 C3 10.858(22) 101_444 n
C2 C3 9.511(10) 101_445 n
C2 C3 10.858(22) 101_544 n
C2 C3 9.511(10) 101_545 n
C2 C3 8.923(17) 103_454 n
C2 C3 7.223(17) 103_455 n
C2 C3 8.923(17) 103_554 n
C2 C3 7.223(17) 103_555 n
C2 C3 7.287(15) -101_345 n
C2 C3 10.707(15) -101_346 n
C2 C3 7.287(15) -101_445 n
C2 C3 10.707(15) -101_446 n
C2 C3 5.500(14) -103_345 n
C2 C3 9.581(16) -103_346 n
C2 C3 5.500(14) -103_445 n
C2 C3 9.581(16) -103_446 n
C2 C3 10.795(7) -103_545 n
C3 Al1 5.505(4) 1_455 n
C3 Al1 2.956(8) 1_555 n
C3 Al1 8.5702(28) 1_655 n
C3 Al1 8.5702(28) 2_455 n
C3 Al1 2.956(8) 2_555 n
C3 Al1 5.505(4) 2_655 n
C3 Al1 10.478(14) -1_556 n
C3 Al1 8.222(9) -1_557 n
C3 Al1 9.443(8) -1_657 n
C3 Al1 9.443(8) -2_457 n
C3 Al1 10.478(14) -2_556 n
C3 Al1 8.222(9) -2_557 n
C3 F1 7.229(5) 1_455 n
C3 F1 3.019(13) 1_555 n
C3 F1 10.952(17) 1_556 n
C3 F1 7.229(5) 1_655 n
C3 F1 10.786(8) -1_457 n
C3 F1 9.749(15) -1_556 n
C3 F1 8.556(10) -1_557 n
C3 F1 10.786(8) -1_657 n
C3 F1 8.282(10) 101_445 n
C3 F1 8.282(10) 101_545 n
C3 F1 3.866(5) -101_345 n
C3 F1 3.866(5) -101_445 n
C3 F1 10.0612(20) -101_545 n
C3 O1 5.522(5) 1_455 n
C3 O1 1.285(5) 1_555 n
C3 O1 7.687(4) 1_655 n
C3 O1 7.687(4) 2_455 n
C3 O1 1.285(5) 2_555 n
C3 O1 5.522(5) 2_655 n
C3 O1 6.357(7) 3_455 n
C3 O1 3.402(9) 3_555 n
C3 O1 8.308(4) 3_655 n
C3 O1 8.308(4) 4_455 n
C3 O1 3.402(9) 4_555 n
C3 O1 6.357(7) 4_655 n
C3 O1 9.905(7) -1_457 n
C3 O1 10.671(13) -1_556 n
C3 O1 6.377(9) -1_557 n
C3 O1 8.337(7) -1_657 n
C3 O1 8.337(7) -2_457 n
C3 O1 10.671(13) -2_556 n
C3 O1 6.377(9) -2_557 n
C3 O1 9.905(7) -2_657 n
C3 O1 8.624(13) -3_547 n
C3 O1 9.585(15) -3_557 n
C3 O1 10.159(10) -3_647 n
C3 O1 10.986(14) -3_657 n
C3 O1 10.159(10) -4_447 n
C3 O1 10.986(14) -4_457 n
C3 O1 8.624(13) -4_547 n
C3 O1 9.585(15) -4_557 n
C3 O1 10.613(17) 101_444 n
C3 O1 10.073(10) 101_445 n
C3 O1 10.907(17) 101_455 n
C3 O1 10.760(11) 101_545 n
C3 O1 10.760(11) 102_445 n
C3 O1 10.613(17) 102_544 n
C3 O1 10.073(10) 102_545 n
C3 O1 10.907(17) 102_555 n
C3 O1 8.885(15) 103_454 n
C3 O1 8.232(10) 103_455 n
C3 O1 9.656(14) 103_554 n
C3 O1 9.059(10) 103_555 n
C3 O1 9.656(14) 104_454 n
C3 O1 9.059(10) 104_455 n
C3 O1 8.885(15) 104_554 n
C3 O1 8.232(10) 104_555 n
C3 O1 6.087(6) -101_345 n
C3 O1 4.770(9) -101_445 n
C3 O1 9.733(6) -101_545 n
C3 O1 4.770(9) -102_345 n
C3 O1 6.087(6) -102_445 n
C3 O1 5.209(7) -103_345 n
C3 O1 3.582(10) -103_445 n
C3 O1 10.630(12) -103_446 n
C3 O1 9.209(6) -103_545 n
C3 O1 3.582(10) -104_345 n
C3 O1 10.630(12) -104_346 n
C3 O1 5.209(7) -104_445 n
C3 C1 8.124(4) 1_455 n
C3 C1 2.458(10) 1_555 n
C3 C1 5.689(8) 1_655 n
C3 C1 5.689(8) 2_455 n
C3 C1 2.458(10) 2_555 n
C3 C1 8.124(4) 2_655 n
C3 C1 9.659(10) 3_455 n
C3 C1 10.994(14) 3_545 n
C3 C1 5.775(14) 3_555 n
C3 C1 7.725(11) 3_655 n
C3 C1 7.725(11) 4_455 n
C3 C1 10.994(14) 4_545 n
C3 C1 5.775(14) 4_555 n
C3 C1 9.659(10) 4_655 n
C3 C1 6.354(8) -1_457 n
C3 C1 3.748(9) -1_557 n
C3 C1 8.602(5) -1_657 n
C3 C1 8.602(5) -2_457 n
C3 C1 3.748(9) -2_557 n
C3 C1 6.354(8) -2_657 n
C3 C1 8.613(12) -3_457 n
C3 C1 10.335(15) -3_547 n
C3 C1 6.918(16) -3_557 n
C3 C1 10.383(12) -3_657 n
C3 C1 10.383(12) -4_457 n
C3 C1 10.335(15) -4_547 n
C3 C1 6.918(16) -4_557 n
C3 C1 8.613(12) -4_657 n
C3 C1 9.594(12) 101_454 n
C3 C1 10.977(16) 101_455 n
C3 C1 8.674(12) 101_554 n
C3 C1 10.183(17) 101_555 n
C3 C1 8.674(12) 102_454 n
C3 C1 10.183(17) 102_455 n
C3 C1 9.594(12) 102_554 n
C3 C1 10.977(16) 102_555 n
C3 C1 7.631(13) 103_454 n
C3 C1 9.311(12) 103_455 n
C3 C1 6.436(14) 103_554 n
C3 C1 8.359(15) 103_555 n
C3 C1 10.530(9) 103_654 n
C3 C1 6.436(14) 104_454 n
C3 C1 8.359(15) 104_455 n
C3 C1 7.631(13) 104_554 n
C3 C1 9.311(12) 104_555 n
C3 C1 7.275(10) -101_345 n
C3 C1 10.651(19) -101_346 n
C3 C1 8.351(9) -101_445 n
C3 C1 8.351(9) -102_345 n
C3 C1 7.275(10) -102_445 n
C3 C1 10.651(19) -102_446 n
C3 C1 5.061(16) -103_345 n
C3 C1 9.281(16) -103_346 n
C3 C1 6.513(12) -103_445 n
C3 C1 10.147(15) -103_446 n
C3 C1 6.513(12) -104_345 n
C3 C1 10.147(15) -104_346 n
C3 C1 5.061(16) -104_445 n
C3 C1 9.281(16) -104_446 n
C3 C1 9.751(9) -104_545 n
C3 C2 6.7574(25) 1_455 n
C3 C2 1.589(10) 1_555 n
C3 C2 6.7574(25) 1_655 n
C3 C2 8.277(9) 3_455 n
C3 C2 5.037(15) 3_555 n
C3 C2 8.277(9) 3_655 n
C3 C2 7.700(9) -1_457 n
C3 C2 4.018(16) -1_557 n
C3 C2 7.700(9) -1_657 n
C3 C2 9.878(12) -3_457 n
C3 C2 9.681(16) -3_547 n
C3 C2 7.377(17) -3_557 n
C3 C2 9.878(12) -3_657 n
C3 C2 9.511(10) 101_454 n
C3 C2 10.858(22) 101_455 n
C3 C2 9.511(10) 101_554 n
C3 C2 10.858(22) 101_555 n
C3 C2 7.223(17) 103_454 n
C3 C2 8.923(17) 103_455 n
C3 C2 7.223(17) 103_554 n
C3 C2 8.923(17) 103_555 n
C3 C2 7.287(15) -101_345 n
C3 C2 10.707(15) -101_346 n
C3 C2 7.287(15) -101_445 n
C3 C2 10.707(15) -101_446 n
C3 C2 5.500(14) -103_345 n
C3 C2 9.581(16) -103_346 n
C3 C2 5.500(14) -103_445 n
C3 C2 9.581(16) -103_446 n
C3 C2 10.795(7) -103_545 n
C3 C3 6.56806(17) 1_455 n
C3 C3 6.56806(17) 1_655 n
C3 C3 7.553(12) 3_455 n
C3 C3 3.729(23) 3_555 n
C3 C3 7.553(12) 3_655 n
C3 C3 8.632(12) -1_457 n
C3 C3 10.759(29) -1_556 n
C3 C3 5.602(19) -1_557 n
C3 C3 8.632(12) -1_657 n
C3 C3 8.866(10) -3_547 n
C3 C3 8.866(10) -3_557 n
C3 C3 8.607(12) 103_454 n
C3 C3 8.607(12) 103_455 n
C3 C3 8.607(12) 103_554 n
C3 C3 8.607(12) 103_555 n
C3 C3 5.912(16) -101_345 n
C3 C3 5.912(16) -101_445 n
C3 C3 4.588(18) -103_345 n
C3 C3 10.490(25) -103_346 n
C3 C3 4.588(18) -103_445 n
C3 C3 10.490(25) -103_446 n
C3 C3 10.360(8) -103_545 n
loop_
_pd_meas_intensity_total
_pd_proc_ls_weight
_pd_proc_intensity_bkg_calc
_pd_calc_intensity_total
16.5(23) 0.0 0.00 .
15.6(21) 0.0 0.00 .
18.5(22) 0.0 0.00 .
23.1(26) 0.0 0.00 .
35.1(30) 0.0 0.00 .
228(8) 0.0 0.0 .
153(7) 0.0 0.0 .
1044(17) 0.0 0.0 .
1769(22) 0.0 0.0 .
3358(32) 0.0 0.0 .
4067(33) 0.0 0.0 .
3951(33) 0.0 0.0 .
4027(34) 0.0 0.0 .
1552(22) 0.0 0.0 .
124(6) 0.0 0.0 .
74(5) 0.0 0.0 .
58(4) 0.0 0.0 .
49(4) 0.0 0.0 .
46(4) 0.0 0.0 .
71(5) 0.0 0.0 .
217(8) 0.0 0.0 .
400(10) 0.0 0.0 .
833(15) 0.0 0.0 .
1050(18) 0.0 0.0 .
1145(18) 0.0 0.0 .
1354(19) 0.0 0.0 .
1435(20) 0.0 0.0 .
1589(21) 0.0 0.0 .
1811(23) 0.0 0.0 .
1966(24) 0.0 0.0 .
2168(24) 0.0 0.0 .
2200(25) 0.0 0.0 .
1954(24) 0.0 0.0 .
1700(23) 0.0 0.0 .
1179(18) 0.0 0.0 .
716(14) 0.0 0.0 .
361(10) 0.0 0.0 .
251(9) 0.0 0.0 .
151(7) 0.0 0.0 .
78(5) 0.0 0.0 .
38.6(32) 0.0 0.00 .
46(4) 0.0 0.0 .
32.5(29) 0.0 0.00 .
39.4(34) 0.0 0.00 .
30.0(28) 0.0 0.00 .
22.0(25) 0.0 0.00 .
19.9(24) 0.0 0.00 .
22.2(27) 0.0 0.00 .
28.1(29) 0.0 0.00 .
22.7(24) 0.0 0.00 .
23.9(26) 0.0 0.00 .
31.5(30) 0.0 0.00 .
27.8(28) 0.0 0.00 .
33.2(31) 0.0 0.00 .
37.0(32) 0.0 0.00 .
23.5(25) 0.0 0.00 .
32.5(32) 0.0 0.00 .
26.1(26) 0.0 0.00 .
32.0(31) 0.0 0.00 .
36.5(32) 0.0 0.00 .
29.7(29) 0.0 0.00 .
33.4(32) 0.0 0.00 .
31.8(32) 0.0 0.00 .
30.1(29) 0.0 0.00 .
23.5(25) 0.0 0.00 .
29.3(28) 0.0 0.00 .
35.9(32) 0.0 0.00 .
29.8(30) 0.0 0.00 .
34.0(33) 0.0 0.00 .
33.8(31) 0.0 0.00 .
33.2(30) 0.0 0.00 .
37.5(33) 0.0 0.00 .
35.2(32) 0.0 0.00 .
40.8(34) 0.0 0.00 .
36.8(32) 0.0 0.00 .
38.8(33) 0.0 0.00 .
43.1(35) 0.0 0.00 .
33.9(31) 0.0 0.00 .
46(4) 0.0 0.0 .
38.0(33) 0.0 0.00 .
32.6(29) 0.0 0.00 .
31.0(30) 0.0 0.00 .
36.8(31) 0.0 0.00 .
50(4) 0.0 0.0 .
40.1(33) 0.0 0.00 .
34.2(31) 0.0 0.00 .
40(4) 0.0 0.0 .
35.4(33) 0.0 0.00 .
35.5(32) 0.0 0.00 .
37.7(32) 0.0 0.00 .
33.9(30) 0.0 0.00 .
28.3(29) 0.0 0.00 .
35.7(32) 0.0 0.00 .
47(4) 0.0 0.0 .
58(4) 0.0 0.0 .
75(5) 0.0 0.0 .
69(4) 0.0 0.0 .
76(5) 0.0 0.0 .
89(5) 0.0 0.0 .
104(5) 0.0 0.0 .
112(6) 0.0 0.0 .
107(6) 0.0 0.0 .
116(6) 0.0 0.0 .
141(6) 0.0 0.0 .
140(6) 0.0 0.0 .
143(6) 0.0 0.0 .
164(7) 0.0 0.0 .
162(7) 0.0 0.0 .
159(7) 0.0 0.0 .
195(7) 0.0 0.0 .
179(7) 0.0 0.0 .
207(8) 0.0 0.0 .
200(7) 0.0 0.0 .
213(8) 0.0 0.0 .
219(8) 0.0 0.0 .
247(9) 0.0 0.0 .
262(9) 0.0 0.0 .
270(9) 0.0 0.0 .
273(9) 0.0 0.0 .
257(8) 0.0 0.0 .
264(9) 0.0 0.0 .
293(9) 0.0 0.0 .
306(9) 0.0 0.0 .
298(9) 0.0 0.0 .
341(10) 0.0 0.0 .
344(10) 0.0 0.0 .
357(10) 0.0 0.0 .
332(10) 0.0 0.0 .
386(10) 0.0 0.0 .
338(10) 0.0 0.0 .
374(10) 0.0 0.0 .
379(11) 0.0 0.0 .
364(10) 0.0 0.0 .
402(10) 0.0 0.0 .
385(10) 0.0 0.0 .
399(11) 0.0 0.0 .
424(11) 0.0 0.0 .
414(11) 0.0 0.0 .
412(11) 0.0 0.0 .
404(11) 0.0 0.0 .
441(12) 0.0 0.0 .
456(12) 0.0 0.0 .
448(11) 0.0 0.0 .
481(11) 0.0 0.0 .
505(12) 0.0 0.0 .
498(12) 0.0 0.0 .
510(12) 0.0 0.0 .
492(12) 0.0 0.0 .
525(12) 0.0 0.0 .
496(12) 0.0 0.0 .
514(12) 0.0 0.0 .
493(12) 0.0 0.0 .
487(12) 0.0 0.0 .
515(12) 0.0 0.0 .
517(12) 0.0 0.0 .
539(13) 0.0 0.0 .
512(12) 0.0 0.0 .
537(12) 0.0 0.0 .
559(12) 0.0 0.0 .
540(12) 0.0 0.0 .
563(13) 0.0 0.0 .
543(12) 0.0 0.0 .
572(12) 0.0 0.0 .
544(12) 0.0 0.0 .
550(13) 0.0 0.0 .
546(13) 0.0 0.0 .
587(13) 0.0 0.0 .
575(12) 0.0 0.0 .
568(12) 0.0 0.0 .
615(13) 0.0 0.0 .
592(13) 0.0 0.0 .
562(13) 0.0 0.0 .
587(13) 0.0 0.0 .
569(12) 0.0 0.0 .
618(13) 0.0 0.0 .
592(13) 0.0 0.0 .
588(13) 0.0 0.0 .
576(12) 0.0 0.0 .
613(13) 0.0 0.0 .
601(13) 0.0 0.0 .
622(14) 0.0 0.0 .
612(13) 0.0 0.0 .
597(13) 0.0 0.0 .
601(13) 0.0 0.0 .
627(14) 0.0 0.0 .
636(14) 0.0 0.0 .
619(13) 0.0 0.0 .
622(13) 0.0 0.0 .
604(13) 0.0 0.0 .
610(13) 0.0 0.0 .
628(14) 0.0 0.0 .
619(13) 0.0 0.0 .
653(13) 0.0 0.0 .
642(14) 0.0 0.0 .
654(14) 0.0 0.0 .
648(14) 0.0 0.0 .
636(13) 0.0 0.0 .
686(14) 0.0 0.0 .
679(14) 0.0 0.0 .
677(14) 0.0 0.0 .
665(14) 0.0 0.0 .
696(14) 0.0 0.0 .
699(14) 0.0 0.0 .
680(14) 0.0 0.0 .
716(15) 0.0 0.0 .
744(15) 0.0 0.0 .
677(14) 0.0 0.0 .
685(14) 0.0 0.0 .
727(14) 0.0 0.0 .
673(14) 0.0 0.0 .
694(14) 0.0 0.0 .
732(14) 0.0 0.0 .
687(14) 0.0 0.0 .
713(14) 0.0 0.0 .
745(15) 0.0 0.0 .
752(15) 0.0 0.0 .
773(14) 0.0 0.0 .
759(14) 0.0 0.0 .
746(15) 0.0 0.0 .
713(15) 0.0 0.0 .
752(15) 0.0 0.0 .
712(14) 0.0 0.0 .
795(15) 0.0 0.0 .
772(15) 0.0 0.0 .
743(15) 0.0 0.0 .
743(14) 0.0 0.0 .
786(15) 0.0 0.0 .
775(15) 0.0 0.0 .
756(15) 0.0 0.0 .
735(15) 0.0 0.0 .
792(15) 0.0 0.0 .
772(14) 0.0 0.0 .
808(15) 0.0 0.0 .
792(15) 0.0 0.0 .
818(16) 0.0 0.0 .
809(15) 0.0 0.0 .
822(15) 0.0 0.0 .
805(15) 0.0 0.0 .
840(16) 0.0 0.0 .
820(16) 0.0 0.0 .
820(15) 0.0 0.0 .
769(14) 0.0 0.0 .
799(15) 0.0 0.0 .
793(15) 0.0 0.0 .
781(15) 0.0 0.0 .
780(15) 0.0 0.0 .
794(15) 0.0 0.0 .
808(15) 0.0 0.0 .
847(16) 0.0 0.0 .
860(16) 0.0 0.0 .
877(15) 0.0 0.0 .
817(15) 0.0 0.0 .
841(16) 0.0 0.0 .
825(16) 0.0 0.0 .
837(16) 0.0 0.0 .
877(16) 0.0 0.0 .
797(15) 0.0 0.0 .
788(15) 0.0 0.0 .
833(16) 0.0 0.0 .
855(16) 0.0 0.0 .
865(15) 0.0 0.0 .
824(15) 0.0 0.0 .
808(15) 0.0 0.0 .
870(16) 0.0 0.0 .
853(16) 0.0 0.0 .
855(15) 0.0 0.0 .
905(16) 0.0 0.0 .
835(15) 0.0 0.0 .
848(16) 0.0 0.0 .
892(16) 0.0 0.0 .
868(15) 0.0 0.0 .
884(16) 0.0 0.0 .
895(16) 0.0 0.0 .
875(16) 0.0 0.0 .
883(16) 0.0 0.0 .
946(16) 0.0 0.0 .
918(16) 0.0 0.0 .
866(16) 0.0 0.0 .
826(16) 0.0 0.0 .
894(16) 0.0 0.0 .
855(15) 0.0 0.0 .
899(16) 0.0 0.0 .
974(17) 0.0 0.0 .
905(16) 0.0 0.0 .
877(16) 0.0 0.0 .
838(15) 0.0 0.0 .
897(16) 0.0 0.0 .
863(16) 0.0 0.0 .
870(16) 0.0 0.0 .
876(16) 0.0 0.0 .
893(16) 0.0 0.0 .
910(16) 0.0 0.0 .
960(17) 0.0 0.0 .
925(16) 0.0 0.0 .
918(16) 0.0 0.0 .
904(16) 0.0 0.0 .
900(16) 0.0 0.0 .
906(16) 0.0 0.0 .
895(16) 0.0 0.0 .
950(16) 0.0 0.0 .
896(16) 0.0 0.0 .
956(17) 0.0 0.0 .
930(17) 0.0 0.0 .
929(16) 0.0 0.0 .
868(15) 0.0 0.0 .
893(15) 0.0 0.0 .
899(16) 0.0 0.0 .
955(17) 0.0 0.0 .
914(16) 0.0 0.0 .
905(16) 0.0 0.0 .
949(16) 0.0 0.0 .
928(16) 0.0 0.0 .
942(17) 0.0 0.0 .
962(17) 0.0 0.0 .
943(16) 0.0 0.0 .
942(16) 0.0 0.0 .
956(16) 0.0 0.0 .
954(17) 0.0 0.0 .
964(17) 0.0 0.0 .
936(16) 0.0 0.0 .
998(17) 0.0 0.0 .
969(17) 0.0 0.0 .
964(17) 0.0 0.0 .
983(17) 0.0 0.0 .
964(16) 0.0 0.0 .
975(16) 0.0 0.0 .
956(17) 0.0 0.0 .
971(17) 0.0 0.0 .
943(16) 0.0 0.0 .
995(16) 0.0 0.0 .
1000(17) 0.0 0.0 .
964(17) 0.0 0.0 .
987(17) 0.0 0.0 .
1005(17) 0.0 0.0 .
982(16) 0.0 0.0 .
969(16) 0.0 0.0 .
1047(17) 0.0 0.0 .
1068(18) 0.0 0.0 .
1030(17) 0.0 0.0 .
1026(17) 0.0 0.0 .
1035(17) 0.0 0.0 .
1012(17) 0.0 0.0 .
1002(17) 0.0 0.0 .
1028(17) 0.0 0.0 .
1013(17) 0.0 0.0 .
1022(17) 0.0 0.0 .
1023(17) 0.0 0.0 .
1052(17) 0.0 0.0 .
1025(17) 0.0 0.0 .
1024(17) 0.0 0.0 .
1036(17) 0.0 0.0 .
1104(18) 0.0 0.0 .
1102(18) 0.0 0.0 .
1067(17) 0.0 0.0 .
1058(17) 0.0 0.0 .
1084(18) 0.0 0.0 .
1078(18) 0.0 0.0 .
1050(17) 0.0 0.0 .
1060(17) 0.0 0.0 .
1092(17) 0.0 0.0 .
1108(18) 0.0 0.0 .
1116(18) 0.0 0.0 .
1101(18) 0.0 0.0 .
1100(17) 0.0 0.0 .
1091(17) 0.0 0.0 .
1083(17) 0.0 0.0 .
1130(19) 0.0 0.0 .
1117(18) 0.0 0.0 .
1114(17) 0.0 0.0 .
1129(17) 0.0 0.0 .
1138(18) 0.0 0.0 .
1126(19) 0.0 0.0 .
1138(18) 0.0 0.0 .
1130(17) 0.0 0.0 .
1171(18) 0.0 0.0 .
1189(19) 0.0 0.0 .
1152(19) 0.0 0.0 .
1119(18) 0.0 0.0 .
1119(17) 0.0 0.0 .
1083(17) 0.0 0.0 .
1121(18) 0.0 0.0 .
1169(19) 0.0 0.0 .
1161(19) 0.0 0.0 .
1107(17) 0.0 0.0 .
1120(18) 0.0 0.0 .
1152(18) 0.0 0.0 .
1164(19) 0.0 0.0 .
1129(18) 0.0 0.0 .
1139(18) 0.0 0.0 .
1122(18) 0.0 0.0 .
1144(18) 0.0 0.0 .
1140(18) 0.0 0.0 .
1162(18) 0.0 0.0 .
1140(18) 0.0 0.0 .
1157(18) 0.0 0.0 .
1155(18) 0.0 0.0 .
1200(19) 0.0 0.0 .
1165(18) 0.0 0.0 .
1146(18) 0.0 0.0 .
1189(19) 0.0 0.0 .
1187(19) 0.0 0.0 .
1171(18) 0.0 0.0 .
1184(18) 0.0 0.0 .
1183(18) 0.0 0.0 .
1223(19) 0.0 0.0 .
1188(19) 0.0 0.0 .
1211(19) 0.0 0.0 .
1197(18) 0.0 0.0 .
1142(18) 0.0 0.0 .
1135(18) 0.0 0.0 .
1174(19) 0.0 0.0 .
1216(19) 0.0 0.0 .
1226(18) 0.0 0.0 .
1184(18) 0.0 0.0 .
1187(18) 0.0 0.0 .
1212(19) 0.0 0.0 .
1193(18) 0.0 0.0 .
1240(18) 0.0 0.0 .
1205(18) 0.0 0.0 .
1168(18) 0.0 0.0 .
1201(19) 0.0 0.0 .
1182(19) 0.0 0.0 .
1230(18) 0.0 0.0 .
1225(18) 0.0 0.0 .
1218(19) 0.0 0.0 .
1220(19) 0.0 0.0 .
1205(19) 0.0 0.0 .
1180(18) 0.0 0.0 .
1258(19) 0.0 0.0 .
1237(19) 0.0 0.0 .
1255(19) 0.0 0.0 .
1208(19) 0.0 0.0 .
1195(18) 0.0 0.0 .
1240(19) 0.0 0.0 .
1230(19) 0.0 0.0 .
1217(19) 0.0 0.0 .
1217(19) 0.0 0.0 .
1179(18) 0.0 0.0 .
1213(18) 0.0 0.0 .
1233(19) 0.0 0.0 .
1275(19) 0.0 0.0 .
1281(19) 0.0 0.0 .
1229(18) 0.0 0.0 .
1248(19) 0.0 0.0 .
1234(19) 0.0 0.0 .
1233(19) 0.0 0.0 .
1179(18) 0.0 0.0 .
1233(18) 0.0 0.0 .
1234(19) 0.0 0.0 .
1205(19) 0.0 0.0 .
1234(19) 0.0 0.0 .
1248(19) 0.0 0.0 .
1256(18) 0.0 0.0 .
1268(19) 0.0 0.0 .
1204(19) 0.0 0.0 .
1247(19) 0.0 0.0 .
1265(19) 0.0 0.0 .
1237(18) 0.0 0.0 .
1248(19) 0.0 0.0 .
1186(19) 0.0 0.0 .
1186(19) 0.0 0.0 .
1264(19) 0.0 0.0 .
1234(18) 0.0 0.0 .
1223(19) 0.0 0.0 .
1231(19) 0.0 0.0 .
1263(19) 0.0 0.0 .
1239(18) 0.0 0.0 .
1304(19) 0.0 0.0 .
1247(19) 0.0 0.0 .
1262(20) 0.0 0.0 .
1195(19) 0.0 0.0 .
1227(18) 0.0 0.0 .
1274(19) 0.0 0.0 .
1209(18) 0.0 0.0 .
1242(20) 0.0 0.0 .
1254(19) 0.0 0.0 .
1257(18) 0.0 0.0 .
1221(18) 0.0 0.0 .
1245(19) 0.0 0.0 .
1272(20) 0.0 0.0 .
1249(19) 0.0 0.0 .
1212(18) 0.0 0.0 .
1243(18) 0.0 0.0 .
1264(19) 0.0 0.0 .
1262(19) 0.0 0.0 .
1232(19) 0.0 0.0 .
1284(19) 0.0 0.0 .
1213(18) 0.0 0.0 .
1256(19) 0.0 0.0 .
1228(19) 0.0 0.0 .
1250(19) 0.0 0.0 .
1228(18) 0.0 0.0 .
1201(18) 0.0 0.0 .
1273(20) 0.0 0.0 .
1201(19) 0.0 0.0 .
1198(18) 0.0 0.0 .
1215(18) 0.0 0.0 .
1225(19) 0.0 0.0 .
1230(19) 0.0 0.0 .
1202(19) 0.0 0.0 .
1266(19) 0.0 0.0 .
1266(19) 0.0 0.0 .
1219(19) 0.0 0.0 .
1226(19) 0.0 0.0 .
1254(19) 0.0 0.0 .
1247(19) 0.0 0.0 .
1277(19) 0.0 0.0 .
1253(19) 0.0 0.0 .
1247(20) 0.0 0.0 .
1221(19) 0.0 0.0 .
1162(18) 0.0 0.0 .
1236(18) 0.0 0.0 .
1243(19) 0.0 0.0 .
1224(19) 0.0 0.0 .
1260(19) 0.0 0.0 .
1242(18) 0.0 0.0 .
1263(18) 0.0 0.0 .
1232(19) 0.0 0.0 .
1224(20) 0.0 0.0 .
1248(19) 0.0 0.0 .
1243(18) 0.0 0.0 .
1263(18) 0.0 0.0 .
1247(19) 0.0 0.0 .
1219(19) 0.0 0.0 .
1230(19) 0.0 0.0 .
1289(19) 0.0 0.0 .
1282(19) 0.0 0.0 .
1139(18) 0.0 0.0 .
1204(19) 0.0 0.0 .
1280(19) 0.0 0.0 .
1243(18) 0.0 0.0 .
1225(18) 0.0 0.0 .
1236(19) 0.0 0.0 .
1210(19) 0.0 0.0 .
1211(19) 0.0 0.0 .
1177(18) 0.0 0.0 .
1217(19) 0.0 0.0 .
1217(19) 0.0 0.0 .
1249(19) 0.0 0.0 .
1216(19) 0.0 0.0 .
1248(18) 0.0 0.0 .
1219(18) 0.0 0.0 .
1207(19) 0.0 0.0 .
1238(19) 0.0 0.0 .
1263(19) 0.0 0.0 .
1227(18) 0.0 0.0 .
1254(19) 0.0 0.0 .
1225(19) 0.0 0.0 .
1215(19) 0.0 0.0 .
1228(18) 0.0 0.0 .
1197(18) 0.0 0.0 .
1233(19) 0.0 0.0 .
1238(19) 0.0 0.0 .
1220(19) 0.0 0.0 .
1213(18) 0.0 0.0 .
1217(18) 0.0 0.0 .
1212(19) 0.0 0.0 .
1227(19) 0.0 0.0 .
1253(19) 0.0 0.0 .
1209(18) 0.0 0.0 .
1237(18) 0.0 0.0 .
1162(18) 0.0 0.0 .
1213(19) 0.0 0.0 .
1244(19) 0.0 0.0 .
1240(18) 0.0 0.0 .
1215(18) 0.0 0.0 .
1146(18) 0.0 0.0 .
1220(19) 0.0 0.0 .
1166(18) 0.0 0.0 .
1199(18) 0.0 0.0 .
1208(18) 0.0 0.0 .
1187(18) 0.0 0.0 .
1204(19) 0.0 0.0 .
1201(19) 0.0 0.0 .
1180(18) 0.0 0.0 .
1238(18) 0.0 0.0 .
1287(19) 0.0 0.0 .
1169(19) 0.0 0.0 .
1218(19) 0.0 0.0 .
1240(18) 0.0 0.0 .
1191(18) 0.0 0.0 .
1195(19) 0.0 0.0 .
1187(19) 0.0 0.0 .
1160(18) 0.0 0.0 .
1129(18) 0.0 0.0 .
1212(18) 0.0 0.0 .
1194(19) 0.0 0.0 .
1175(19) 0.0 0.0 .
1247(19) 0.0 0.0 .
1269(18) 0.0 0.0 .
1161(18) 0.0 0.0 .
1181(19) 0.0 0.0 .
1174(19) 0.0 0.0 .
1184(18) 0.0 0.0 .
1196(18) 0.0 0.0 .
1163(18) 0.0 0.0 .
1197(19) 0.0 0.0 .
1216(19) 0.0 0.0 .
1179(18) 0.0 0.0 .
1143(18) 0.0 0.0 .
1181(19) 0.0 0.0 .
1161(19) 0.0 0.0 .
1152(18) 0.0 0.0 .
1150(18) 0.0 0.0 .
1114(17) 0.0 0.0 .
1182(19) 0.0 0.0 .
1211(19) 0.0 0.0 .
1170(18) 0.0 0.0 .
1170(18) 0.0 0.0 .
1191(18) 0.0 0.0 .
1196(18) 0.0 0.0 .
1188(19) 0.0 0.0 .
1177(18) 0.0 0.0 .
1131(18) 0.0 0.0 .
1164(18) 0.0 0.0 .
1127(18) 0.0 0.0 .
1137(19) 0.0 0.0 .
1144(18) 0.0 0.0 .
1154(18) 0.0 0.0 .
1135(18) 0.0 0.0 .
1143(18) 0.0 0.0 .
1160(19) 0.0 0.0 .
1142(18) 0.0 0.0 .
1135(17) 0.0 0.0 .
1151(18) 0.0 0.0 .
1199(19) 0.0 0.0 .
1102(18) 0.0 0.0 .
1145(18) 0.0 0.0 .
1162(18) 0.0 0.0 .
1151(18) 0.0 0.0 .
1119(18) 0.0 0.0 .
1170(19) 0.0 0.0 .
1123(18) 0.0 0.0 .
1151(18) 0.0 0.0 .
1097(17) 0.0 0.0 .
1140(18) 0.0 0.0 .
1146(18) 0.0 0.0 .
1119(18) 0.0 0.0 .
1134(18) 0.0 0.0 .
1161(18) 0.0 0.0 .
1144(18) 0.0 0.0 .
1144(18) 0.0 0.0 .
1122(18) 0.0 0.0 .
1152(18) 0.0 0.0 .
1146(18) 0.0 0.0 .
1131(18) 0.0 0.0 .
1118(18) 0.0 0.0 .
1116(18) 0.0 0.0 .
1126(17) 0.0 0.0 .
1117(18) 0.0 0.0 .
1126(18) 0.0 0.0 .
1123(18) 0.0 0.0 .
1125(17) 0.0 0.0 .
1197(18) 0.0 0.0 .
1162(18) 0.0 0.0 .
1100(18) 0.0 0.0 .
1061(17) 0.0 0.0 .
1104(17) 0.0 0.0 .
1128(17) 0.0 0.0 .
1112(18) 0.0 0.0 .
1117(18) 0.0 0.0 .
1094(18) 0.0 0.0 .
1128(18) 0.0 0.0 .
1064(17) 0.0 0.0 .
1120(18) 0.0 0.0 .
1097(19) 0.0 0.0 .
1117(18) 0.0 0.0 .
1121(17) 0.0 0.0 .
1073(17) 0.0 0.0 .
1113(18) 0.0 0.0 .
1114(18) 0.0 0.0 .
1089(18) 0.0 0.0 .
1133(17) 0.0 0.0 .
1115(17) 0.0 0.0 .
1137(18) 0.0 0.0 .
1120(18) 0.0 0.0 .
1047(17) 0.0 0.0 .
1087(17) 0.0 0.0 .
1086(17) 0.0 0.0 .
1130(18) 0.0 0.0 .
1071(18) 0.0 0.0 .
1117(18) 0.0 0.0 .
1064(17) 0.0 0.0 .
1083(17) 0.0 0.0 .
1089(18) 0.0 0.0 .
1057(18) 0.0 0.0 .
1096(18) 0.0 0.0 .
1099(17) 0.0 0.0 .
1078(17) 0.0 0.0 .
1102(18) 0.0 0.0 .
1088(18) 0.0 0.0 .
1045(17) 0.0 0.0 .
1049(17) 0.0 0.0 .
1042(17) 0.0 0.0 .
1064(18) 0.0 0.0 .
1064(18) 0.0 0.0 .
1068(17) 0.0 0.0 .
1076(17) 0.0 0.0 .
1038(17) 0.0 0.0 .
1067(18) 0.0 0.0 .
1068(18) 0.0 0.0 .
1067(17) 0.0 0.0 .
1050(17) 0.0 0.0 .
1056(18) 0.0 0.0 .
1090(18) 0.0 0.0 .
1052(17) 0.0 0.0 .
1061(17) 0.0 0.0 .
1032(17) 0.0 0.0 .
1066(18) 0.0 0.0 .
1009(17) 0.0 0.0 .
1080(18) 0.0 0.0 .
1045(17) 0.0 0.0 .
1036(17) 0.0 0.0 .
1086(18) 0.0 0.0 .
1058(18) 0.0 0.0 .
1064(17) 0.0 0.0 .
1038(17) 0.0 0.0 .
1030(17) 0.0 0.0 .
1039(17) 0.0 0.0 .
1059(18) 0.0 0.0 .
1078(18) 0.0 0.0 .
1064(17) 0.0 0.0 .
1036(17) 0.0 0.0 .
1059(18) 0.0 0.0 .
1059(18) 0.0 0.0 .
986(17) 0.0 0.0 .
1046(17) 0.0 0.0 .
1011(17) 0.0 0.0 .
1063(17) 0.0 0.0 .
1062(18) 0.0 0.0 .
1038(17) 0.0 0.0 .
990(16) 0.0 0.0 .
1070(17) 0.0 0.0 .
1025(17) 0.0 0.0 .
1051(18) 0.0 0.0 .
1052(18) 0.0 0.0 .
1039(17) 0.0 0.0 .
1023(17) 0.0 0.0 .
1038(17) 0.0 0.0 .
1036(18) 0.0 0.0 .
1078(18) 0.0 0.0 .
1065(17) 0.0 0.0 .
1023(17) 0.0 0.0 .
1009(17) 0.0 0.0 .
975(17) 0.0 0.0 .
1022(17) 0.0 0.0 .
1037(17) 0.0 0.0 .
1002(17) 0.0 0.0 .
1038(18) 0.0 0.0 .
996(17) 0.0 0.0 .
1047(17) 0.0 0.0 .
1000(16) 0.0 0.0 .
1007(17) 0.0 0.0 .
1091(18) 0.0 0.0 .
1018(17) 0.0 0.0 .
965(16) 0.0 0.0 .
1063(17) 0.0 0.0 .
1004(17) 0.0 0.0 .
991(17) 0.0 0.0 .
1016(17) 0.0 0.0 .
1039(17) 0.0 0.0 .
1048(17) 0.0 0.0 .
984(17) 0.0 0.0 .
997(17) 0.0 0.0 .
1002(17) 0.0 0.0 .
1000(17) 0.0 0.0 .
974(16) 0.0 0.0 .
1030(17) 0.0 0.0 .
1011(18) 0.0 0.0 .
973(17) 0.0 0.0 .
965(16) 0.0 0.0 .
976(16) 0.0 0.0 .
1004(17) 0.0 0.0 .
976(17) 0.0 0.0 .
972(17) 0.0 0.0 .
1012(17) 0.0 0.0 .
987(16) 0.0 0.0 .
1018(17) 0.0 0.0 .
980(17) 0.0 0.0 .
976(17) 0.0 0.0 .
980(16) 0.0 0.0 .
978(16) 0.0 0.0 .
986(17) 0.0 0.0 .
958(17) 0.0 0.0 .
992(17) 0.0 0.0 .
1003(16) 0.0 0.0 .
976(16) 0.0 0.0 .
972(17) 0.0 0.0 .
997(17) 0.0 0.0 .
954(17) 0.0 0.0 .
938(16) 0.0 0.0 .
975(16) 0.0 0.0 .
943(17) 0.0 0.0 .
951(17) 0.0 0.0 .
964(17) 0.0 0.0 .
965(16) 0.0 0.0 .
957(16) 0.0 0.0 .
994(17) 0.0 0.0 .
998(17) 0.0 0.0 .
995(17) 0.0 0.0 .
964(16) 0.0 0.0 .
958(17) 0.0 0.0 .
1007(17) 0.0 0.0 .
1004(17) 0.0 0.0 .
970(16) 0.0 0.0 .
938(16) 0.0 0.0 .
990(17) 0.0 0.0 .
963(17) 0.0 0.0 .
932(16) 0.0 0.0 .
977(16) 0.0 0.0 .
958(16) 0.0 0.0 .
955(17) 0.0 0.0 .
973(17) 0.0 0.0 .
952(16) 0.0 0.0 .
981(16) 0.0 0.0 .
970(16) 0.0 0.0 .
1000(17) 0.0 0.0 .
991(17) 0.0 0.0 .
978(17) 0.0 0.0 .
933(16) 0.0 0.0 .
936(16) 0.0 0.0 .
920(16) 0.0 0.0 .
978(18) 0.0 0.0 .
1006(17) 0.0 0.0 .
946(16) 0.0 0.0 .
931(16) 0.0 0.0 .
952(17) 0.0 0.0 .
924(17) 0.0 0.0 .
921(16) 0.0 0.0 .
922(16) 0.0 0.0 .
936(16) 0.0 0.0 .
942(16) 0.0 0.0 .
985(17) 0.0 0.0 .
934(16) 0.0 0.0 .
967(16) 0.0 0.0 .
954(16) 0.0 0.0 .
941(17) 0.0 0.0 .
925(16) 0.0 0.0 .
968(17) 0.0 0.0 .
927(16) 0.0 0.0 .
947(16) 0.0 0.0 .
927(17) 0.0 0.0 .
890(16) 0.0 0.0 .
978(17) 0.0 0.0 .
944(16) 0.0 0.0 .
964(17) 0.0 0.0 .
942(17) 0.0 0.0 .
933(17) 0.0 0.0 .
927(16) 0.0 0.0 .
936(16) 0.0 0.0 .
930(16) 0.0 0.0 .
934(17) 0.0 0.0 .
934(17) 0.0 0.0 .
968(16) 0.0 0.0 .
922(16) 0.0 0.0 .
933(17) 0.0 0.0 .
949(17) 0.0 0.0 .
923(16) 0.0 0.0 .
946(16) 0.0 0.0 .
972(16) 0.0 0.0 .
951(16) 0.0 0.0 .
937(17) 0.0 0.0 .
914(16) 0.0 0.0 .
892(16) 0.0 0.0 .
963(16) 0.0 0.0 .
913(16) 0.0 0.0 .
917(17) 0.0 0.0 .
913(16) 0.0 0.0 .
917(16) 0.0 0.0 .
910(16) 0.0 0.0 .
899(16) 0.0 0.0 .
915(17) 0.0 0.0 .
927(16) 0.0 0.0 .
904(16) 0.0 0.0 .
942(16) 0.0 0.0 .
927(16) 0.0 0.0 .
903(17) 0.0 0.0 .
877(16) 0.0 0.0 .
891(15) 0.0 0.0 .
950(16) 0.0 0.0 .
946(16) 0.0 0.0 .
908(16) 0.0 0.0 .
915(16) 0.0 0.0 .
959(16) 0.0 0.0 .
943(16) 0.0 0.0 .
913(16) 0.0 0.0 .
878(16) 0.0 0.0 .
900(16) 0.0 0.0 .
860(15) 0.0 0.0 .
903(16) 0.0 0.0 .
907(16) 0.0 0.0 .
912(16) 0.0 0.0 .
875(16) 0.0 0.0 .
900(16) 0.0 0.0 .
910(16) 0.0 0.0 .
911(16) 0.0 0.0 .
904(16) 0.0 0.0 .
859(16) 0.0 0.0 .
904(16) 0.0 0.0 .
910(16) 0.0 0.0 .
923(17) 0.0 0.0 .
894(16) 0.0 0.0 .
898(16) 0.0 0.0 .
908(16) 0.0 0.0 .
907(16) 0.0 0.0 .
908(17) 0.0 0.0 .
901(16) 0.0 0.0 .
897(16) 0.0 0.0 .
907(16) 0.0 0.0 .
856(16) 0.0 0.0 .
864(16) 0.0 0.0 .
885(16) 0.0 0.0 .
856(15) 0.0 0.0 .
875(15) 0.0 0.0 .
873(16) 0.0 0.0 .
851(16) 0.0 0.0 .
904(16) 0.0 0.0 .
860(15) 0.0 0.0 .
909(16) 0.0 0.0 .
867(16) 0.0 0.0 .
870(17) 0.0 0.0 .
875(16) 0.0 0.0 .
838(15) 0.0 0.0 .
890(15) 0.0 0.0 .
878(16) 0.0 0.0 .
862(16) 0.0 0.0 .
853(16) 0.0 0.0 .
869(15) 0.0 0.0 .
904(16) 0.0 0.0 .
868(16) 0.0 0.0 .
873(16) 0.0 0.0 .
862(16) 0.0 0.0 .
850(15) 0.0 0.0 .
880(15) 0.0 0.0 .
885(16) 0.0 0.0 .
882(16) 0.0 0.0 .
860(16) 0.0 0.0 .
880(15) 0.0 0.0 .
854(15) 0.0 0.0 .
842(16) 0.0 0.0 .
877(16) 0.0 0.0 .
869(16) 0.0 0.0 .
842(15) 0.0 0.0 .
875(16) 0.0 0.0 .
870(16) 0.0 0.0 .
851(16) 0.0 0.0 .
868(16) 0.0 0.0 .
838(15) 0.0 0.0 .
865(16) 0.0 0.0 .
857(16) 0.0 0.0 .
823(15) 0.0 0.0 .
834(15) 0.0 0.0 .
847(15) 0.0 0.0 .
884(16) 0.0 0.0 .
837(16) 0.0 0.0 .
869(16) 0.0 0.0 .
896(16) 0.0 0.0 .
900(16) 0.0 0.0 .
850(16) 0.0 0.0 .
899(17) 0.0 0.0 .
857(16) 0.0 0.0 .
857(15) 0.0 0.0 .
851(15) 0.0 0.0 .
838(16) 0.0 0.0 .
878(16) 0.0 0.0 .
839(15) 0.0 0.0 .
785(15) 0.0 0.0 .
841(15) 0.0 0.0 .
843(16) 0.0 0.0 .
823(16) 0.0 0.0 .
816(15) 0.0 0.0 .
799(15) 0.0 0.0 .
869(15) 0.0 0.0 .
844(16) 0.0 0.0 .
819(16) 0.0 0.0 .
807(15) 0.0 0.0 .
852(15) 0.0 0.0 .
845(15) 0.0 0.0 .
818(15) 0.0 0.0 .
842(16) 0.0 0.0 .
865(16) 0.0 0.0 .
869(15) 0.0 0.0 .
830(15) 0.0 0.0 .
827(15) 0.0 0.0 .
828(16) 0.0 0.0 .
833(16) 0.0 0.0 .
798(15) 0.0 0.0 .
810(15) 0.0 0.0 .
822(15) 0.0 0.0 .
811(16) 0.0 0.0 .
803(15) 0.0 0.0 .
816(15) 0.0 0.0 .
834(15) 0.0 0.0 .
827(16) 0.0 0.0 .
851(16) 0.0 0.0 .
838(15) 0.0 0.0 .
789(15) 0.0 0.0 .
849(16) 0.0 0.0 .
788(15) 0.0 0.0 .
794(15) 0.0 0.0 .
796(15) 0.0 0.0 .
805(15) 0.0 0.0 .
802(15) 0.0 0.0 .
820(16) 0.0 0.0 .
814(15) 0.0 0.0 .
807(15) 0.0 0.0 .
785(15) 0.0 0.0 .
827(15) 0.0 0.0 .
798(15) 0.0 0.0 .
830(15) 0.0 0.0 .
824(15) 0.0 0.0 .
810(15) 0.0 0.0 .
823(15) 0.0 0.0 .
817(16) 0.0 0.0 .
795(15) 0.0 0.0 .
792(15) 0.0 0.0 .
799(15) 0.0 0.0 .
832(15) 0.0 0.0 .
815(16) 0.0 0.0 .
821(15) 0.0 0.0 .
798(15) 0.0 0.0 .
766(14) 0.0 0.0 .
783(15) 0.0 0.0 .
821(16) 0.0 0.0 .
779(15) 0.0 0.0 .
783(15) 0.0 0.0 .
762(14) 0.0 0.0 .
785(15) 0.0 0.0 .
797(16) 0.0 0.0 .
790(15) 0.0 0.0 .
787(15) 0.0 0.0 .
825(15) 0.0 0.0 .
800(15) 0.0 0.0 .
757(15) 0.0 0.0 .
790(15) 0.0 0.0 .
817(15) 0.0 0.0 .
758(14) 0.0 0.0 .
788(15) 0.0 0.0 .
781(15) 0.0 0.0 .
787(15) 0.0 0.0 .
740(14) 0.0 0.0 .
774(15) 0.0 0.0 .
802(15) 0.0 0.0 .
820(15) 0.0 0.0 .
823(15) 0.0 0.0 .
782(14) 0.0 0.0 .
830(15) 0.0 0.0 .
796(15) 0.0 0.0 .
766(15) 0.0 0.0 .
778(15) 0.0 0.0 .
780(14) 0.0 0.0 .
741(15) 0.0 0.0 .
762(15) 0.0 0.0 .
806(15) 0.0 0.0 .
768(15) 0.0 0.0 .
755(14) 0.0 0.0 .
771(15) 0.0 0.0 .
775(15) 0.0 0.0 .
751(15) 0.0 0.0 .
788(15) 0.0 0.0 .
788(15) 0.0 0.0 .
744(15) 0.0 0.0 .
750(15) 0.0 0.0 .
792(15) 0.0 0.0 .
775(15) 0.0 0.0 .
776(14) 0.0 0.0 .
760(15) 0.0 0.0 .
785(16) 0.0 0.0 .
777(15) 0.0 0.0 .
803(15) 0.0 0.0 .
756(14) 0.0 0.0 .
750(15) 0.0 0.0 .
764(16) 0.0 0.0 .
751(15) 0.0 0.0 .
785(15) 0.0 0.0 .
773(14) 0.0 0.0 .
733(14) 0.0 0.0 .
749(15) 0.0 0.0 .
733(14) 0.0 0.0 .
791(15) 0.0 0.0 .
803(15) 0.0 0.0 .
728(14) 0.0 0.0 .
750(15) 0.0 0.0 .
727(14) 0.0 0.0 .
779(14) 0.0 0.0 .
744(14) 0.0 0.0 .
763(15) 0.0 0.0 .
708(14) 0.0 0.0 .
704(14) 0.0 0.0 .
727(14) 0.0 0.0 .
781(15) 0.0 0.0 .
767(15) 0.0 0.0 .
732(15) 0.0 0.0 .
728(14) 0.0 0.0 .
703(14) 0.0 0.0 .
744(15) 0.0 0.0 .
732(15) 0.0 0.0 .
724(15) 0.0 0.0 .
721(14) 0.0 0.0 .
760(14) 0.0 0.0 .
724(14) 0.0 0.0 .
755(15) 0.0 0.0 .
734(14) 0.0 0.0 .
732(14) 0.0 0.0 .
767(14) 0.0 0.0 .
742(15) 0.0 0.0 .
731(15) 0.0 0.0 .
714(14) 0.0 0.0 .
716(14) 0.0 0.0 .
695(14) 0.0 0.0 .
754(15) 0.0 0.0 .
731(15) 0.0 0.0 .
792(15) 0.0 0.0 .
751(14) 0.0 0.0 .
735(14) 0.0 0.0 .
743(15) 0.0 0.0 .
714(15) 0.0 0.0 .
730(15) 0.0 0.0 .
730(14) 0.0 0.0 .
744(14) 0.0 0.0 .
748(15) 0.0 0.0 .
733(15) 0.0 0.0 .
704(14) 0.0 0.0 .
743(14) 0.0 0.0 .
725(14) 0.0 0.0 .
676(14) 0.0 0.0 .
700(15) 0.0 0.0 .
731(15) 0.0 0.0 .
727(14) 0.0 0.0 .
709(14) 0.0 0.0 .
692(14) 0.0 0.0 .
728(15) 0.0 0.0 .
740(15) 0.0 0.0 .
725(14) 0.0 0.0 .
699(14) 0.0 0.0 .
699(14) 0.0 0.0 .
727(15) 0.0 0.0 .
736(15) 0.0 0.0 .
708(14) 0.0 0.0 .
736(14) 0.0 0.0 .
756(15) 0.0 0.0 .
719(15) 0.0 0.0 .
724(14) 0.0 0.0 .
728(14) 0.0 0.0 .
749(15) 0.0 0.0 .
743(15) 0.0 0.0 .
733(15) 0.0 0.0 .
677(14) 0.0 0.0 .
700(14) 0.0 0.0 .
723(14) 0.0 0.0 .
723(14) 0.0 0.0 .
686(14) 0.0 0.0 .
700(14) 0.0 0.0 .
707(14) 0.0 0.0 .
733(15) 0.0 0.0 .
744(15) 0.0 0.0 .
701(14) 0.0 0.0 .
723(14) 0.0 0.0 .
697(14) 0.0 0.0 .
701(14) 0.0 0.0 .
720(15) 0.0 0.0 .
727(15) 0.0 0.0 .
702(14) 0.0 0.0 .
708(14) 0.0 0.0 .
701(14) 0.0 0.0 .
702(15) 0.0 0.0 .
681(14) 0.0 0.0 .
705(14) 0.0 0.0 .
682(14) 0.0 0.0 .
699(14) 0.0 0.0 .
712(15) 0.0 0.0 .
715(14) 0.0 0.0 .
730(14) 0.0 0.0 .
719(14) 0.0 0.0 .
706(14) 0.0 0.0 .
700(15) 0.0 0.0 .
698(14) 0.0 0.0 .
703(14) 0.0 0.0 .
715(14) 0.0 0.0 .
707(14) 0.0 0.0 .
740(15) 0.0 0.0 .
702(14) 0.0 0.0 .
683(14) 0.0 0.0 .
710(14) 0.0 0.0 .
669(14) 0.0 0.0 .
681(15) 0.0 0.0 .
679(14) 0.0 0.0 .
708(14) 0.0 0.0 .
723(14) 0.0 0.0 .
680(14) 0.0 0.0 .
692(14) 0.0 0.0 .
701(14) 0.0 0.0 .
726(14) 0.0 0.0 .
722(14) 0.0 0.0 .
708(14) 0.0 0.0 .
676(14) 0.0 0.0 .
727(14) 0.0 0.0 .
713(14) 0.0 0.0 .
681(14) 0.0 0.0 .
693(14) 0.0 0.0 .
694(14) 0.0 0.0 .
690(14) 0.0 0.0 .
673(13) 0.0 0.0 .
669(14) 0.0 0.0 .
685(14) 0.0 0.0 .
678(14) 0.0 0.0 .
645(13) 0.0 0.0 .
670(13) 0.0 0.0 .
692(14) 0.0 0.0 .
726(15) 0.0 0.0 .
662(14) 0.0 0.0 .
681(14) 0.0 0.0 .
690(14) 0.0 0.0 .
695(14) 0.0 0.0 .
704(15) 0.0 0.0 .
703(14) 0.0 0.0 .
691(14) 0.0 0.0 .
678(14) 0.0 0.0 .
679(14) 0.0 0.0 .
677(15) 0.0 0.0 .
661(14) 0.0 0.0 .
671(13) 0.0 0.0 .
669(13) 0.0 0.0 .
684(14) 0.0 0.0 .
705(15) 0.0 0.0 .
672(14) 0.0 0.0 .
680(14) 0.0 0.0 .
683(14) 0.0 0.0 .
663(14) 0.0 0.0 .
700(15) 0.0 0.0 .
668(14) 0.0 0.0 .
649(13) 0.0 0.0 .
695(14) 0.0 0.0 .
713(15) 0.0 0.0 .
689(14) 0.0 0.0 .
699(14) 0.0 0.0 .
699(14) 0.0 0.0 .
695(14) 0.0 0.0 .
719(15) 0.0 0.0 .
678(14) 0.0 0.0 .
665(14) 0.0 0.0 .
680(14) 0.0 0.0 .
679(14) 0.0 0.0 .
653(14) 0.0 0.0 .
655(14) 0.0 0.0 .
686(14) 0.0 0.0 .
709(14) 0.0 0.0 .
680(14) 0.0 0.0 .
680(14) 0.0 0.0 .
667(14) 0.0 0.0 .
641(13) 0.0 0.0 .
690(14) 0.0 0.0 .
697(14) 0.0 0.0 .
673(14) 0.0 0.0 .
733(15) 0.0 0.0 .
682(14) 0.0 0.0 .
675(13) 0.0 0.0 .
650(14) 0.0 0.0 .
639(14) 0.0 0.0 .
663(14) 0.0 0.0 .
667(14) 0.0 0.0 .
647(13) 0.0 0.0 .
672(14) 0.0 0.0 .
677(14) 0.0 0.0 .
624(13) 0.0 0.0 .
655(13) 0.0 0.0 .
663(13) 0.0 0.0 .
660(14) 0.0 0.0 .
685(15) 0.0 0.0 .
659(14) 0.0 0.0 .
663(13) 0.0 0.0 .
637(13) 0.0 0.0 .
644(14) 0.0 0.0 .
651(14) 0.0 0.0 .
657(14) 0.0 0.0 .
663(13) 0.0 0.0 .
655(13) 0.0 0.0 .
658(14) 0.0 0.0 .
658(14) 0.0 0.0 .
637(14) 0.0 0.0 .
656(13) 0.0 0.0 .
670(14) 0.0 0.0 .
688(14) 0.0 0.0 .
673(14) 0.0 0.0 .
641(14) 0.0 0.0 .
687(14) 0.0 0.0 .
665(14) 0.0 0.0 .
680(14) 0.0 0.0 .
677(14) 0.0 0.0 .
647(14) 0.0 0.0 .
634(13) 0.0 0.0 .
667(14) 0.0 0.0 .
626(13) 0.0 0.0 .
673(14) 0.0 0.0 .
666(14) 0.0 0.0 .
662(13) 0.0 0.0 .
620(13) 0.0 0.0 .
662(14) 0.0 0.0 .
638(14) 0.0 0.0 .
651(14) 0.0 0.0 .
636(13) 0.0 0.0 .
658(14) 0.0 0.0 .
638(14) 0.0 0.0 .
610(13) 0.0 0.0 .
628(13) 0.0 0.0 .
646(13) 0.0 0.0 .
664(14) 0.0 0.0 .
651(14) 0.0 0.0 .
692(14) 0.0 0.0 .
660(13) 0.0 0.0 .
606(13) 0.0 0.0 .
664(14) 0.0 0.0 .
620(14) 0.0 0.0 .
619(13) 0.0 0.0 .
649(13) 0.0 0.0 .
628(13) 0.0 0.0 .
628(13) 0.0 0.0 .
676(15) 0.0 0.0 .
608(13) 0.0 0.0 .
619(13) 0.0 0.0 .
622(13) 0.0 0.0 .
674(14) 0.0 0.0 .
666(14) 0.0 0.0 .
631(13) 0.0 0.0 .
627(13) 0.0 0.0 .
680(14) 0.0 0.0 .
651(14) 0.0 0.0 .
643(14) 0.0 0.0 .
637(13) 0.0 0.0 .
653(13) 0.0 0.0 .
681(14) 0.0 0.0 .
630(13) 0.0 0.0 .
584(13) 0.0 0.0 .
613(13) 0.0 0.0 .
638(13) 0.0 0.0 .
634(13) 0.0 0.0 .
619(13) 0.0 0.0 .
638(14) 0.0 0.0 .
651(14) 0.0 0.0 .
651(13) 0.0 0.0 .
672(14) 0.0 0.0 .
635(14) 0.0 0.0 .
627(14) 0.0 0.0 .
625(13) 0.0 0.0 .
635(13) 0.0 0.0 .
659(14) 0.0 0.0 .
613(13) 0.0 0.0 .
628(14) 0.0 0.0 .
655(14) 0.0 0.0 .
665(13) 0.0 0.0 .
662(14) 0.0 0.0 .
606(13) 0.0 0.0 .
665(14) 0.0 0.0 .
618(13) 0.0 0.0 .
642(13) 0.0 0.0 .
599(13) 0.0 0.0 .
647(14) 0.0 0.0 .
654(14) 0.0 0.0 .
648(13) 0.0 0.0 .
646(13) 0.0 0.0 .
627(13) 0.0 0.0 .
651(14) 0.0 0.0 .
620(13) 0.0 0.0 .
645(13) 0.0 0.0 .
633(13) 0.0 0.0 .
644(14) 0.0 0.0 .
632(14) 0.0 0.0 .
611(13) 0.0 0.0 .
645(13) 0.0 0.0 .
647(13) 0.0 0.0 .
643(14) 0.0 0.0 .
638(14) 0.0 0.0 .
637(14) 0.0 0.0 .
603(13) 0.0 0.0 .
640(13) 0.0 0.0 .
608(13) 0.0 0.0 .
606(14) 0.0 0.0 .
628(13) 0.0 0.0 .
616(13) 0.0 0.0 .
609(13) 0.0 0.0 .
595(13) 0.0 0.0 .
624(14) 0.0 0.0 .
615(13) 0.0 0.0 .
648(13) 0.0 0.0 .
629(13) 0.0 0.0 .
671(14) 0.0 0.0 .
648(14) 0.0 0.0 .
626(13) 0.0 0.0 .
641(13) 0.0 0.0 .
624(13) 0.0 0.0 .
598(13) 0.0 0.0 .
645(14) 0.0 0.0 .
636(13) 0.0 0.0 .
627(13) 0.0 0.0 .
618(13) 0.0 0.0 .
576(13) 0.0 0.0 .
605(13) 0.0 0.0 .
623(13) 0.0 0.0 .
664(13) 0.0 0.0 .
661(14) 0.0 0.0 .
642(14) 0.0 0.0 .
605(13) 0.0 0.0 .
619(13) 0.0 0.0 .
649(13) 0.0 0.0 .
631(13) 0.0 0.0 .
655(14) 0.0 0.0 .
608(13) 0.0 0.0 .
578(13) 0.0 0.0 .
647(13) 0.0 0.0 .
650(14) 0.0 0.0 .
654(14) 0.0 0.0 .
657(14) 0.0 0.0 .
665(14) 0.0 0.0 .
616(13) 0.0 0.0 .
649(14) 0.0 0.0 .
623(14) 0.0 0.0 .
629(14) 0.0 0.0 .
603(13) 0.0 0.0 .
640(13) 0.0 0.0 .
683(14) 0.0 0.0 .
631(14) 0.0 0.0 .
626(13) 0.0 0.0 .
652(13) 0.0 0.0 .
622(13) 0.0 0.0 .
626(13) 0.0 0.0 .
677(14) 0.0 0.0 .
667(14) 0.0 0.0 .
650(13) 0.0 0.0 .
656(14) 0.0 0.0 .
621(13) 0.0 0.0 .
641(14) 0.0 0.0 .
653(14) 0.0 0.0 .
664(13) 0.0 0.0 .
663(14) 0.0 0.0 .
689(14) 0.0 0.0 .
693(14) 0.0 0.0 .
647(14) 0.0 0.0 .
640(13) 0.0 0.0 .
645(13) 0.0 0.0 .
610(13) 0.0 0.0 .
642(14) 0.0 0.0 .
655(14) 0.0 0.0 .
670(13) 0.0 0.0 .
639(13) 0.0 0.0 .
666(14) 0.0 0.0 .
649(14) 0.0 0.0 .
636(13) 0.0 0.0 .
665(13) 0.0 0.0 .
652(13) 0.0 0.0 .
628(13) 0.0 0.0 .
667(14) 0.0 0.0 .
627(13) 0.0 0.0 .
668(13) 0.0 0.0 .
673(14) 0.0 0.0 .
630(13) 0.0 0.0 .
681(14) 0.0 0.0 .
701(14) 0.0 0.0 .
704(14) 0.0 0.0 .
654(14) 0.0 0.0 .
645(14) 0.0 0.0 .
673(14) 0.0 0.0 .
701(14) 0.0 0.0 .
679(14) 0.0 0.0 .
681(14) 0.0 0.0 .
687(14) 0.0 0.0 .
707(14) 0.0 0.0 .
718(14) 0.0 0.0 .
723(14) 0.0 0.0 .
669(14) 0.0 0.0 .
716(15) 0.0 0.0 .
730(14) 0.0 0.0 .
728(14) 0.0 0.0 .
725(14) 0.0 0.0 .
707(14) 0.0 0.0 .
778(16) 0.0 0.0 .
716(14) 0.0 0.0 .
723(14) 0.0 0.0 .
747(14) 0.0 0.0 .
749(15) 0.0 0.0 .
757(15) 0.0 0.0 .
766(15) 0.0 0.0 .
775(14) 0.0 0.0 .
823(15) 0.0 0.0 .
813(15) 0.0 0.0 .
852(16) 0.0 0.0 .
866(16) 0.0 0.0 .
911(16) 0.0 0.0 .
923(16) 0.0 0.0 .
901(16) 0.0 0.0 .
964(17) 0.0 0.0 .
972(17) 0.0 0.0 .
978(16) 0.0 0.0 .
1037(17) 0.0 0.0 .
1024(17) 0.0 0.0 .
1089(18) 0.0 0.0 .
1125(18) 0.0 0.0 .
1192(18) 0.0 0.0 .
1257(19) 0.0 0.0 .
1260(19) 0.0 0.0 .
1386(20) 0.0 0.0 .
1397(20) 0.0 0.0 .
1503(20) 0.0 0.0 .
1490(21) 0.0 0.0 .
1535(21) 0.0 0.0 .
1653(22) 0.0 0.0 .
1742(22) 0.0 0.0 .
1798(22) 0.0 0.0 .
1903(23) 0.0 0.0 .
2105(25) 0.0 0.0 .
2328(26) 0.0 0.0 .
2565(27) 0.0 0.0 .
2848(28) 0.0 0.0 .
3213(30) 0.0 0.0 .
3624(33) 0.0 0.0 .
4158(35) 0.0 0.0 .
4777(36) 0.0 0. .
5525(39) 0.0 0. .
6278(42) 0.0 0. .
7195(47) 0.0 0. .
8287(49) 0.0 0. .
9455(51) 0.0 0. .
10780(54) 0.0 0. .
12015(59) 0.0 0. .
13312(65) 0.0 0. .
14545(66) 0.0 0. .
16153(67) 0.0 0. .
17843(70) 0.0 0. .
19554(76) 0.0 0. .
21726(83) 0.0 0. .
24229(85) 0.0 0. .
27054(87) 0.0 0. .
30694(94) 0.0 0. .
33960(100) 0.0 0. .
36410(110) 0.0 0. .
37780(110) 0.0 0. .
36630(100) 0.0 0. .
32529(97) 0.0 0. .
27837(92) 0.0 0. .
23171(85) 0.0 0. .
19075(75) 0.0 0. .
15986(66) 0.0 0. .
13407(62) 0.0 0. .
11182(58) 0.0 0. .
9314(53) 0.0 0. .
7792(47) 0.0 0. .
6713(43) 0.0 0. .
5711(41) 0.0 0. .
5024(39) 0.0 0. .
4386(36) 0.0 0. .
3874(33) 0.0 0.0 .
3360(30) 0.0 0.0 .
3130(30) 0.0 0.0 .
2688(28) 0.0 0.0 .
2472(27) 0.0 0.0 .
2294(25) 0.0 0.0 .
2148(24) 0.0 0.0 .
1912(24) 0.0 0.0 .
1798(23) 0.0 0.0 .
1643(22) 0.0 0.0 .
1608(21) 0.0 0.0 .
1464(20) 0.0 0.0 .
1357(20) 0.0 0.0 .
1380(21) 0.0 0.0 .
1337(20) 0.0 0.0 .
1231(18) 0.0 0.0 .
1172(18) 0.0 0.0 .
1101(18) 0.0 0.0 .
1073(18) 0.0 0.0 .
1050(17) 0.0 0.0 .
1053(17) 0.0 0.0 .
1036(17) 0.0 0.0 .
1030(17) 0.0 0.0 .
961(17) 0.0 0.0 .
930(16) 0.0 0.0 .
905(16) 0.0 0.0 .
924(16) 0.0 0.0 .
854(16) 0.0 0.0 .
851(16) 0.0 0.0 .
839(15) 0.0 0.0 .
813(15) 0.0 0.0 .
814(15) 0.0 0.0 .
837(16) 0.0 0.0 .
810(16) 0.0 0.0 .
742(15) 0.0 0.0 .
732(14) 0.0 0.0 .
751(14) 0.0 0.0 .
762(15) 0.0 0.0 .
737(15) 0.0 0.0 .
726(14) 0.0 0.0 .
739(14) 0.0 0.0 .
752(14) 0.0 0.0 .
768(15) 0.0 0.0 .
717(15) 0.0 0.0 .
729(15) 0.0 0.0 .
710(14) 0.0 0.0 .
660(14) 0.0 0.0 .
683(14) 0.0 0.0 .
709(14) 0.0 0.0 .
689(14) 0.0 0.0 .
668(13) 0.0 0.0 .
677(14) 0.0 0.0 .
675(14) 0.0 0.0 .
662(14) 0.0 0.0 .
645(13) 0.0 0.0 .
663(13) 0.0 0.0 .
668(14) 0.0 0.0 .
676(14) 0.0 0.0 .
689(14) 0.0 0.0 .
646(13) 0.0 0.0 .
644(13) 0.0 0.0 .
639(14) 0.0 0.0 .
615(14) 0.0 0.0 .
633(13) 0.0 0.0 .
642(13) 0.0 0.0 .
682(14) 0.0 0.0 .
674(14) 0.0 0.0 .
623(14) 0.0 0.0 .
658(14) 0.0 0.0 .
646(13) 0.0 0.0 .
607(13) 0.0 0.0 .
606(13) 0.0 0.0 .
650(14) 0.0 0.0 .
607(13) 0.0 0.0 .
598(13) 0.0 0.0 .
637(13) 0.0 0.0 .
629(14) 0.0 0.0 .
574(13) 0.0 0.0 .
589(13) 0.0 0.0 .
599(13) 0.0 0.0 .
601(13) 0.0 0.0 .
627(13) 0.0 0.0 .
605(14) 0.0 0.0 .
602(13) 0.0 0.0 .
580(13) 0.0 0.0 .
589(13) 0.0 0.0 .
608(13) 0.0 0.0 .
600(13) 0.0 0.0 .
569(13) 0.0 0.0 .
635(13) 0.0 0.0 .
596(13) 0.0 0.0 .
596(13) 0.0 0.0 .
590(13) 0.0 0.0 .
611(13) 0.0 0.0 .
588(13) 0.0 0.0 .
561(13) 0.0 0.0 .
617(13) 0.0 0.0 .
583(13) 0.0 0.0 .
596(13) 0.0 0.0 .
589(13) 0.0 0.0 .
568(13) 0.0 0.0 .
588(13) 0.0 0.0 .
575(13) 0.0 0.0 .
566(12) 0.0 0.0 .
587(13) 0.0 0.0 .
556(13) 0.0 0.0 .
546(13) 0.0 0.0 .
585(13) 0.0 0.0 .
549(12) 0.0 0.0 .
572(12) 0.0 0.0 .
597(13) 0.0 0.0 .
568(13) 0.0 0.0 .
591(13) 0.0 0.0 .
585(13) 0.0 0.0 .
569(12) 0.0 0.0 .
589(13) 0.0 0.0 .
605(13) 0.0 0.0 .
562(12) 0.0 0.0 .
598(13) 0.00586 573.4 38.9
580(12) 0.00611 573.4 38.4
567(13) 0.00588 573.4 37.8
566(13) 0.00550 573.4 37.3
581(13) 0.00563 573.3 36.7
569(12) 0.00613 573.0 36.2
594(13) 0.00593 572.7 35.7
558(13) 0.00597 572.3 35.2
577(13) 0.00528 572.0 34.7
571(13) 0.00574 571.6 34.2
558(12) 0.00626 571.3 33.8
594(13) 0.00591 571.0 33.3
614(13) 0.00535 570.6 32.8
567(13) 0.00541 570.3 32.4
565(13) 0.00588 569.9 32.0
608(13) 0.00581 569.6 31.6
586(13) 0.00601 569.3 31.1
579(13) 0.00570 568.9 30.7
596(14) 0.00521 568.6 30.3
577(13) 0.00577 568.2 29.9
548(12) 0.00638 567.9 29.6
551(12) 0.00623 567.6 29.2
546(13) 0.00576 567.2 28.8
544(13) 0.00584 566.9 28.5
575(13) 0.00572 566.5 28.1
596(13) 0.00593 566.2 27.8
548(12) 0.00620 565.9 27.4
538(12) 0.00620 565.5 27.1
581(13) 0.00556 565.2 26.8
568(13) 0.00576 564.8 26.4
597(13) 0.00592 564.5 26.1
574(13) 0.00589 564.2 25.8
543(13) 0.00596 563.8 25.5
536(13) 0.00603 563.5 25.2
552(12) 0.00606 563.1 24.9
543(12) 0.00645 562.8 24.6
567(13) 0.00581 562.5 24.3
566(13) 0.00570 562.1 24.1
551(13) 0.00580 561.8 23.8
529(12) 0.00631 561.4 23.5
545(12) 0.00642 561.1 23.3
547(13) 0.00595 560.8 23.0
543(13) 0.00601 560.4 22.8
543(12) 0.00615 560.1 22.5
561(12) 0.00610 559.7 22.3
547(12) 0.00636 559.4 22.0
545(13) 0.00600 559.1 21.8
556(13) 0.00564 558.7 21.5
559(13) 0.00592 558.4 21.3
548(12) 0.00633 558.0 21.1
558(12) 0.00630 557.7 20.9
562(13) 0.00577 557.4 20.7
531(13) 0.00581 557.0 20.4
554(13) 0.00591 556.7 20.2
538(12) 0.00649 556.3 20.0
524(12) 0.00671 556.0 19.8
521(12) 0.00609 555.7 19.6
502(12) 0.00617 555.3 19.4
513(12) 0.00654 555.0 19.2
531(12) 0.00660 554.6 19.0
535(12) 0.00653 554.3 18.9
531(12) 0.00627 554.0 18.7
535(13) 0.00579 553.6 18.5
554(13) 0.00594 553.3 18.3
524(12) 0.00668 552.9 18.1
527(12) 0.00667 552.6 18.0
559(13) 0.00575 552.3 17.8
548(13) 0.00554 551.9 17.6
522(12) 0.00623 551.6 17.5
552(12) 0.00639 551.2 17.3
566(13) 0.00603 550.9 17.1
525(12) 0.00623 550.6 17.0
535(13) 0.00576 550.2 16.8
527(12) 0.00616 549.9 16.7
570(12) 0.00618 549.5 16.5
548(12) 0.00631 549.2 16.4
522(12) 0.00630 548.9 16.2
550(13) 0.00593 548.5 16.1
546(12) 0.00612 548.2 15.9
530(12) 0.00658 547.9 15.8
528(12) 0.00646 547.5 15.7
543(13) 0.00596 547.2 15.5
512(12) 0.00636 546.8 15.4
557(13) 0.00595 546.5 15.3
519(12) 0.00677 546.2 15.1
522(12) 0.00632 545.8 15.0
528(12) 0.00634 545.5 14.9
544(12) 0.00607 545.1 14.8
554(12) 0.00616 544.8 14.6
545(12) 0.00638 544.5 14.5
530(12) 0.00622 544.1 14.4
533(13) 0.00597 543.8 14.3
544(13) 0.00596 543.4 14.2
539(12) 0.00618 543.1 14.1
528(12) 0.00667 542.8 14.0
546(13) 0.00588 542.4 13.8
557(13) 0.00564 542.1 13.7
537(12) 0.00619 541.7 13.6
519(12) 0.00666 541.4 13.5
563(12) 0.00627 541.1 13.4
544(12) 0.00625 540.7 13.3
550(13) 0.00564 540.4 13.2
514(12) 0.00639 540.0 13.1
517(12) 0.00670 539.7 13.0
557(12) 0.00624 539.4 12.9
526(12) 0.00626 539.0 12.8
538(13) 0.00563 538.7 12.8
564(13) 0.00585 538.3 12.7
509(12) 0.00682 538.0 12.6
531(12) 0.00662 537.7 12.5
524(12) 0.00619 537.3 12.4
558(13) 0.00523 537.0 12.3
540(12) 0.00609 536.6 12.2
549(12) 0.00631 536.3 12.2
543(12) 0.00645 536.0 12.1
543(13) 0.00602 535.6 12.0
530(13) 0.00581 535.3 11.9
526(12) 0.00632 534.9 11.8
536(12) 0.00654 534.6 11.8
550(12) 0.00623 534.3 11.7
521(12) 0.00629 533.9 11.6
507(12) 0.00618 533.6 11.5
539(13) 0.00593 533.2 11.5
534(12) 0.00655 532.9 11.4
550(12) 0.00618 532.6 11.3
559(13) 0.00578 532.2 11.3
511(12) 0.00613 531.9 11.2
520(12) 0.00617 531.5 11.1
527(12) 0.00660 531.2 11.1
507(12) 0.00662 530.9 11.0
565(13) 0.00566 530.5 11.0
535(13) 0.00603 530.2 10.9
512(12) 0.00644 529.8 10.8
566(12) 0.00622 529.5 10.8
515(12) 0.00644 529.2 10.7
534(13) 0.00590 528.8 10.7
531(13) 0.00591 528.5 10.6
555(13) 0.00599 528.1 10.6
540(12) 0.00650 527.8 10.5
506(12) 0.00654 527.5 10.5
531(13) 0.00592 527.1 10.4
492(12) 0.00680 526.8 10.4
512(12) 0.00661 526.4 10.3
513(12) 0.00676 526.1 10.3
535(13) 0.00585 525.8 10.3
526(13) 0.00595 525.4 10.2
520(12) 0.00619 525.1 10.2
505(12) 0.00677 524.7 10.1
533(12) 0.00657 524.4 10.1
491(12) 0.00672 524.1 10.1
493(12) 0.00635 523.7 10.0
492(12) 0.00666 523.4 10.0
532(12) 0.00661 523.0 10.0
539(12) 0.00638 522.7 9.9
528(12) 0.00607 522.5 9.9
528(13) 0.00582 522.4 9.9
520(12) 0.00624 522.2 9.8
510(12) 0.00680 522.1 9.8
517(12) 0.00670 522.0 9.8
516(12) 0.00638 521.8 9.8
485(12) 0.00654 521.7 9.8
516(12) 0.00653 521.5 9.7
531(12) 0.00652 521.4 9.7
528(12) 0.00647 521.2 9.7
495(12) 0.00668 521.1 9.7
551(13) 0.00549 520.9 9.7
533(12) 0.00618 520.8 9.7
524(12) 0.00674 520.7 9.7
550(12) 0.00629 520.5 9.7
498(12) 0.00676 520.4 9.7
523(13) 0.00592 520.2 9.7
528(12) 0.00620 520.1 9.7
518(12) 0.00674 519.9 9.7
503(12) 0.00674 519.8 9.7
507(12) 0.00654 519.6 9.7
531(13) 0.00580 519.5 9.7
531(12) 0.00610 519.4 9.7
511(12) 0.00685 519.2 9.7
514(12) 0.00648 519.1 9.8
494(12) 0.00643 518.9 9.8
506(12) 0.00633 518.8 9.8
510(12) 0.00647 518.6 9.8
503(12) 0.00698 518.5 9.9
504(12) 0.00663 518.3 9.9
548(13) 0.00581 518.2 9.9
528(13) 0.00599 518.1 10.0
531(12) 0.00606 517.9 10.0
507(12) 0.00693 517.8 10.1
519(12) 0.00629 517.6 10.1
540(13) 0.00597 517.5 10.2
540(12) 0.00619 517.3 10.3
518(12) 0.00653 517.2 10.4
516(12) 0.00681 517.1 10.4
496(12) 0.00664 516.9 10.5
514(12) 0.00617 516.8 10.6
525(12) 0.00612 516.6 10.7
538(12) 0.00643 516.5 10.8
512(12) 0.00682 516.3 10.9
511(12) 0.00654 516.2 11.0
550(13) 0.00577 516.0 11.2
505(12) 0.00655 515.9 11.3
521(12) 0.00661 515.8 11.5
495(12) 0.00704 515.6 11.6
526(12) 0.00632 515.5 11.8
535(13) 0.00588 515.3 12.0
530(12) 0.00616 515.2 12.2
517(12) 0.00677 515.0 12.4
526(12) 0.00659 514.9 12.6
516(12) 0.00651 514.7 12.8
558(13) 0.00548 514.6 13.1
521(12) 0.00631 514.5 13.4
491(11) 0.00710 514.3 13.7
539(12) 0.00636 514.2 14.0
522(12) 0.00647 514.0 14.3
554(13) 0.00548 513.9 14.7
541(12) 0.00607 513.7 15.1
540(12) 0.00650 513.6 15.5
541(12) 0.00633 513.4 16.0
531(12) 0.00620 513.3 16.5
494(12) 0.00644 513.2 17.0
501(12) 0.00652 513.0 17.6
548(12) 0.00647 512.9 18.3
545(12) 0.00609 512.7 19.0
549(13) 0.00600 512.6 19.7
533(13) 0.00590 512.4 20.6
540(13) 0.00597 512.3 21.5
556(12) 0.00635 512.2 22.5
537(12) 0.00644 512.0 23.7
580(13) 0.00574 511.9 25.0
566(13) 0.00575 511.7 26.5
543(12) 0.00618 511.6 28.1
551(12) 0.00632 511.4 30.0
580(13) 0.00575 511.3 32.2
557(13) 0.00584 511.1 34.7
557(13) 0.00587 511.0 37.7
578(13) 0.00579 510.9 41.1
606(13) 0.00589 510.7 45.1
585(13) 0.00578 510.6 49.8
590(13) 0.00548 510.4 55.3
586(13) 0.00557 510.3 61.6
588(13) 0.00586 510.1 69.0
606(13) 0.00585 510.0 77.4
618(14) 0.00521 509.8 87.0
597(13) 0.00534 509.7 97.9
606(13) 0.00549 509.6 110.1
634(13) 0.00540 509.4 123.6
690(14) 0.00510 509.3 138.3
630(14) 0.00519 509.1 154.1
662(14) 0.00473 509.0 170.8
679(14) 0.00485 508.8 187.8
713(14) 0.00489 508.7 204.7
731(14) 0.00487 508.5 220.5
694(14) 0.00473 508.4 234.3
695(15) 0.00449 508.3 245.0
676(14) 0.00503 508.1 251.6
682(14) 0.00522 508.0 253.4
728(14) 0.00488 507.8 250.2
692(14) 0.00487 507.7 242.4
678(14) 0.00467 507.5 230.7
682(14) 0.00493 507.4 216.2
678(14) 0.00519 507.2 200.0
627(13) 0.00566 507.1 183.0
655(14) 0.00500 507.0 165.9
590(13) 0.00527 506.8 149.4
577(13) 0.00566 506.7 133.9
576(12) 0.00616 506.5 119.4
532(12) 0.00640 506.4 106.2
566(13) 0.00574 506.2 94.3
572(13) 0.00536 506.1 83.7
549(13) 0.00586 506.0 74.4
548(12) 0.00638 505.8 66.2
492(12) 0.00702 505.7 59.1
544(13) 0.00604 505.5 52.9
538(13) 0.00589 505.4 47.6
542(13) 0.00593 505.2 43.1
521(12) 0.00671 505.1 39.2
500(12) 0.00684 504.9 35.8
496(12) 0.00667 504.8 33.0
507(12) 0.00608 504.7 30.5
516(12) 0.00630 504.5 28.3
538(12) 0.00646 504.4 26.5
508(12) 0.00654 504.2 24.8
520(12) 0.00608 504.1 23.3
520(12) 0.00631 503.9 22.0
540(12) 0.00629 503.8 20.9
510(12) 0.00685 503.6 19.8
511(12) 0.00648 503.5 18.9
493(12) 0.00650 503.4 18.0
503(12) 0.00647 503.2 17.2
503(12) 0.00682 503.1 16.5
524(12) 0.00666 502.9 15.8
520(12) 0.00622 502.8 15.2
519(12) 0.00621 502.6 14.6
534(12) 0.00621 502.5 14.0
510(12) 0.00665 502.3 13.5
505(12) 0.00694 502.2 13.1
522(12) 0.00617 502.1 12.6
496(12) 0.00634 501.9 12.2
496(12) 0.00664 501.8 11.8
493(12) 0.00680 501.6 11.5
505(12) 0.00690 501.5 11.1
504(12) 0.00660 501.3 10.8
505(12) 0.00608 501.2 10.5
502(12) 0.00640 501.1 10.2
509(12) 0.00675 500.9 9.9
499(12) 0.00701 500.8 9.7
491(12) 0.00680 500.6 9.4
492(13) 0.00603 500.5 9.2
523(13) 0.00604 500.3 9.0
503(12) 0.00696 500.2 8.8
527(12) 0.00656 500.0 8.6
492(12) 0.00686 499.9 8.4
524(13) 0.00597 499.8 8.2
520(12) 0.00646 499.6 8.0
509(12) 0.00688 499.5 7.9
540(12) 0.00637 499.3 7.7
511(12) 0.00644 499.2 7.6
502(12) 0.00622 499.0 7.4
502(12) 0.00657 498.9 7.3
495(12) 0.00694 498.7 7.1
489(12) 0.00704 498.6 7.0
484(12) 0.00678 498.5 6.9
493(12) 0.00630 498.3 6.8
494(12) 0.00649 498.2 6.7
520(12) 0.00670 498.0 6.6
519(12) 0.00644 497.9 6.5
509(12) 0.00645 497.7 3.1
480(12) 0.00656 497.6 3.0
496(12) 0.00657 497.4 2.9
455(11) 0.00763 497.3 2.9
490(12) 0.00687 497.2 2.8
525(12) 0.00614 497.0 2.7
504(12) 0.00640 496.9 2.6
490(12) 0.00670 496.7 2.6
503(12) 0.00693 496.6 2.5
484(12) 0.00677 496.4 2.5
460(12) 0.00693 496.3 2.4
519(12) 0.00620 496.1 2.3
477(11) 0.00711 496.0 2.3
494(12) 0.00705 495.9 2.2
520(12) 0.00623 495.7 2.2
460(12) 0.00688 495.6 2.1
494(12) 0.00636 495.4 2.1
492(12) 0.00673 495.3 2.0
493(11) 0.00712 495.1 2.0
507(12) 0.00635 495.0 2.0
477(12) 0.00680 494.9 1.9
491(12) 0.00673 494.7 1.9
525(12) 0.00653 494.6 1.8
494(12) 0.00704 494.4 1.8
511(12) 0.00633 494.3 1.8
495(12) 0.00623 494.1 1.7
471(12) 0.00706 494.0 1.7
468(11) 0.00740 493.8 1.7
531(12) 0.00653 493.7 1.6
512(12) 0.00639 493.6 1.6
518(13) 0.00588 493.4 1.6
524(12) 0.00622 493.3 1.5
504(12) 0.00685 493.1 1.5
500(12) 0.00699 493.0 1.5
545(13) 0.00603 492.8 1.4
487(12) 0.00645 492.7 1.4
518(12) 0.00638 492.5 1.4
506(12) 0.00690 492.4 1.4
479(11) 0.00715 492.3 1.3
496(12) 0.00653 492.1 1.3
518(13) 0.00593 492.0 1.3
483(12) 0.00673 491.8 1.3
502(12) 0.00691 491.7 1.3
485(11) 0.00713 491.5 1.2
503(12) 0.00644 491.4 1.2
516(13) 0.00603 491.2 1.2
524(12) 0.00615 491.1 1.2
499(12) 0.00702 491.0 1.2
459(11) 0.00727 490.8 1.1
491(12) 0.00666 490.7 1.1
512(12) 0.00607 490.5 1.1
488(12) 0.00652 490.4 1.1
483(11) 0.00713 490.2 1.1
491(12) 0.00674 490.1 1.1
503(12) 0.00636 490.0 1.0
511(12) 0.00614 489.8 1.0
509(12) 0.00634 489.7 1.0
502(12) 0.00698 489.5 1.0
480(12) 0.00689 489.4 1.0
472(12) 0.00700 489.2 1.0
487(12) 0.00679 489.1 1.0
500(12) 0.00657 488.9 0.9
481(11) 0.00720 488.8 0.9
476(12) 0.00663 488.7 0.9
481(12) 0.00672 488.5 0.9
500(12) 0.00634 488.4 0.9
476(11) 0.00712 488.2 0.9
492(12) 0.00706 488.1 0.9
498(12) 0.00657 487.9 0.9
496(12) 0.00641 487.8 0.8
461(11) 0.00716 487.6 0.8
502(12) 0.00665 487.6 0.8
486(11) 0.00719 487.6 0.8
485(12) 0.00667 487.6 0.8
499(12) 0.00614 487.6 0.8
502(12) 0.00652 487.6 0.8
510(12) 0.00667 487.6 0.8
512(12) 0.00667 487.6 0.8
522(12) 0.00610 487.5 0.8
487(12) 0.00655 487.5 0.7
509(12) 0.00631 487.5 0.7
471(11) 0.00742 487.5 0.7
451(11) 0.00767 487.5 0.7
495(12) 0.00642 487.5 0.7
497(12) 0.00623 487.5 0.7
506(12) 0.00648 487.5 0.7
477(11) 0.00720 487.5 0.7
464(11) 0.00729 487.5 0.7
496(12) 0.00649 487.5 0.7
486(12) 0.00629 487.4 0.7
462(11) 0.00716 487.4 0.7
456(11) 0.00756 487.4 0.6
465(11) 0.00727 487.4 0.6
503(12) 0.00652 487.4 0.6
484(12) 0.00655 487.4 0.6
488(12) 0.00667 487.4 0.6
476(11) 0.00725 487.4 0.6
488(12) 0.00702 487.4 0.6
525(12) 0.00619 487.4 0.6
510(12) 0.00622 487.3 0.6
474(12) 0.00693 487.3 0.6
475(11) 0.00728 487.3 0.6
487(12) 0.00687 487.3 0.6
508(12) 0.00620 487.3 0.6
489(12) 0.00674 487.3 0.6
491(12) 0.00658 487.3 0.6
489(11) 0.00712 487.3 0.6
473(12) 0.00700 487.3 0.5
495(12) 0.00648 487.3 0.5
513(12) 0.00612 487.3 0.5
480(12) 0.00699 487.2 0.5
483(11) 0.00716 487.2 0.5
505(12) 0.00660 487.2 0.5
493(12) 0.00639 487.2 0.5
505(12) 0.00641 487.2 0.5
497(12) 0.00686 487.2 0.5
513(12) 0.00680 487.2 0.5
462(12) 0.00690 487.2 0.5
462(12) 0.00675 487.2 0.5
480(12) 0.00675 487.2 0.5
519(12) 0.00658 487.2 0.5
496(12) 0.00701 487.1 0.5
504(12) 0.00654 487.1 0.5
499(12) 0.00637 487.1 0.5
477(12) 0.00697 487.1 0.5
527(12) 0.00647 487.1 0.5
471(11) 0.00734 487.1 0.5
491(12) 0.00663 487.1 0.5
503(12) 0.00610 487.1 0.5
507(12) 0.00624 487.1 0.5
486(12) 0.00708 487.1 0.5
478(11) 0.00726 487.0 0.4
506(12) 0.00634 487.0 0.4
501(13) 0.00602 487.0 0.4
484(12) 0.00687 487.0 0.4
532(12) 0.00661 487.0 0.4
496(12) 0.00697 487.0 0.4
506(12) 0.00652 487.0 0.4
471(12) 0.00651 487.0 0.4
458(11) 0.00719 487.0 0.4
486(11) 0.00727 487.0 0.4
497(12) 0.00693 487.0 0.4
515(12) 0.00640 486.9 0.4
503(12) 0.00609 486.9 0.4
496(12) 0.00660 486.9 0.4
481(11) 0.00726 486.9 0.4
524(12) 0.00636 486.9 0.4
492(12) 0.00668 486.9 0.4
505(12) 0.00634 486.9 0.4
499(12) 0.00661 486.9 0.4
494(12) 0.00705 486.9 0.4
492(12) 0.00691 486.9 0.4
486(12) 0.00680 486.9 0.4
495(12) 0.00647 486.8 0.4
480(12) 0.00683 486.8 0.4
501(12) 0.00695 486.8 0.4
482(12) 0.00698 486.8 0.4
495(12) 0.00643 486.8 0.4
484(12) 0.00652 486.8 0.4
476(12) 0.00687 486.8 0.4
509(12) 0.00691 486.8 0.4
491(12) 0.00683 486.8 0.4
466(11) 0.00711 486.8 0.4
495(12) 0.00647 486.7 0.4
488(12) 0.00688 486.7 0.4
506(12) 0.00692 486.7 0.4
501(12) 0.00634 486.7 0.4
476(12) 0.00664 486.7 0.4
484(12) 0.00671 486.7 0.4
484(12) 0.00706 486.7 0.4
479(11) 0.00726 486.7 0.4
487(12) 0.00670 486.7 0.4
497(12) 0.00636 486.7 0.4
527(12) 0.00617 486.7 0.4
516(12) 0.00669 486.6 0.4
507(12) 0.00682 486.6 0.4
485(12) 0.00692 486.6 0.3
513(13) 0.00593 486.6 0.3
478(12) 0.00694 486.6 0.3
506(12) 0.00687 486.6 0.3
476(11) 0.00725 486.6 0.3
480(12) 0.00662 486.6 0.3
491(12) 0.00607 486.6 0.3
484(12) 0.00692 486.6 0.3
508(12) 0.00685 486.6 0.3
479(11) 0.00719 486.5 0.3
491(12) 0.00656 486.5 0.3
498(12) 0.00617 486.5 0.3
476(12) 0.00701 486.5 0.3
480(11) 0.00720 486.5 0.3
523(12) 0.00656 486.5 0.3
499(12) 0.00649 486.5 0.3
496(12) 0.00613 486.5 0.3
462(11) 0.00722 486.5 0.3
492(12) 0.00707 486.5 0.3
504(12) 0.00680 486.4 0.3
482(12) 0.00690 486.4 0.3
459(12) 0.00694 486.4 0.3
470(12) 0.00704 486.4 0.3
517(12) 0.00675 486.4 0.3
487(12) 0.00691 486.4 0.3
465(11) 0.00714 486.4 0.3
468(12) 0.00695 486.4 0.3
471(12) 0.00696 486.4 0.3
461(11) 0.00752 486.4 0.3
489(12) 0.00688 486.4 0.3
492(12) 0.00646 486.3 0.3
499(12) 0.00629 486.3 0.3
490(12) 0.00682 486.3 0.3
488(11) 0.00710 486.3 0.3
498(12) 0.00663 486.3 0.3
484(12) 0.00669 486.3 0.3
506(12) 0.00628 486.3 0.3
476(12) 0.00703 486.3 0.3
457(11) 0.00762 486.3 0.3
476(12) 0.00683 486.3 0.3
476(12) 0.00673 486.2 0.3
516(12) 0.00623 486.2 0.3
467(11) 0.00729 486.2 0.3
463(11) 0.00742 486.2 0.3
489(12) 0.00660 486.2 0.3
496(12) 0.00647 486.2 0.3
499(12) 0.00621 486.2 0.3
467(11) 0.00728 486.2 0.3
486(11) 0.00710 486.2 0.3
500(12) 0.00656 486.2 0.3
489(12) 0.00644 486.2 0.3
487(12) 0.00677 486.1 0.3
478(11) 0.00713 486.1 0.3
478(11) 0.00739 486.1 0.3
469(12) 0.00699 486.1 0.7
481(12) 0.00624 486.1 0.7
510(12) 0.00635 486.1 0.7
466(11) 0.00744 486.1 0.7
508(12) 0.00682 486.1 0.7
477(12) 0.00696 486.1 0.7
483(12) 0.00628 486.1 0.7
453(11) 0.00738 486.1 0.7
454(11) 0.00758 486.0 0.8
442(11) 0.00782 486.0 0.8
488(12) 0.00678 486.0 0.8
490(12) 0.00654 486.0 0.8
493(12) 0.00674 486.0 0.8
495(12) 0.00702 486.0 0.8
481(12) 0.00706 486.0 0.8
488(12) 0.00671 486.0 0.8
495(12) 0.00627 486.0 0.8
487(12) 0.00667 486.0 0.8
505(12) 0.00689 485.9 0.8
468(11) 0.00711 485.9 0.8
486(12) 0.00671 485.9 0.8
510(12) 0.00633 485.9 0.8
491(12) 0.00651 485.9 0.8
483(11) 0.00717 485.9 0.8
474(11) 0.00711 485.9 0.8
483(12) 0.00668 485.9 0.8
491(12) 0.00652 485.9 0.8
526(12) 0.00621 485.9 0.8
488(11) 0.00714 485.9 0.8
502(12) 0.00680 485.8 0.8
480(12) 0.00675 485.8 0.8
523(12) 0.00616 485.8 0.8
481(12) 0.00676 485.8 0.8
467(11) 0.00743 485.8 0.8
453(11) 0.00726 485.8 0.9
472(12) 0.00687 485.8 0.9
481(12) 0.00674 485.8 0.9
475(11) 0.00708 485.8 0.9
463(11) 0.00745 485.8 0.9
470(12) 0.00687 485.8 0.9
510(13) 0.00605 485.7 0.9
493(12) 0.00666 485.7 0.9
453(11) 0.00754 485.7 0.9
477(11) 0.00731 485.7 0.9
484(12) 0.00666 485.7 0.9
485(12) 0.00637 485.7 0.9
488(12) 0.00664 485.7 0.9
495(12) 0.00681 485.7 0.9
468(11) 0.00742 485.7 0.9
481(12) 0.00679 485.7 0.9
474(12) 0.00652 485.6 0.9
497(12) 0.00650 485.6 1.0
496(12) 0.00705 485.6 1.0
490(11) 0.00712 485.6 1.0
480(12) 0.00679 485.6 1.0
460(12) 0.00675 485.6 1.0
473(12) 0.00696 485.6 1.0
486(11) 0.00713 485.6 1.0
514(12) 0.00683 485.6 1.0
478(12) 0.00700 485.6 1.0
492(12) 0.00644 485.6 1.0
502(12) 0.00636 485.5 1.0
499(12) 0.00695 485.5 1.0
498(12) 0.00688 485.5 1.0
493(12) 0.00668 485.5 1.1
534(13) 0.00589 485.5 1.1
509(12) 0.00615 485.5 1.1
488(11) 0.00709 485.5 1.1
500(12) 0.00692 485.5 1.1
525(12) 0.00632 485.5 1.1
508(12) 0.00621 485.5 1.1
444(11) 0.00741 485.5 1.1
469(11) 0.00745 485.4 1.1
497(12) 0.00686 485.4 1.1
494(12) 0.00669 485.4 1.2
499(12) 0.00642 485.4 1.2
488(12) 0.00677 485.4 1.2
487(11) 0.00716 485.4 1.2
505(12) 0.00651 485.4 1.2
474(12) 0.00697 485.4 1.2
478(12) 0.00684 485.4 1.2
499(12) 0.00678 485.4 1.3
506(12) 0.00686 485.3 1.3
499(12) 0.00662 485.3 1.3
490(12) 0.00658 485.3 1.3
456(11) 0.00723 485.3 1.3
485(12) 0.00694 485.3 1.3
472(11) 0.00731 485.3 1.3
515(12) 0.00622 485.3 1.4
492(12) 0.00634 485.4 1.4
505(12) 0.00625 485.5 1.4
470(11) 0.00730 485.6 1.4
501(12) 0.00696 485.7 1.4
514(12) 0.00631 485.8 1.5
463(12) 0.00685 485.9 1.5
462(11) 0.00721 486.0 1.5
488(11) 0.00713 486.1 1.5
484(11) 0.00717 486.2 1.6
502(12) 0.00648 486.3 1.6
483(12) 0.00640 486.4 1.6
480(12) 0.00684 486.5 1.6
478(11) 0.00721 486.6 1.7
502(12) 0.00696 486.7 1.7
508(12) 0.00639 486.8 1.7
517(13) 0.00590 486.9 1.7
481(12) 0.00693 487.0 1.8
479(11) 0.00726 487.1 1.8
489(12) 0.00708 487.2 1.8
472(12) 0.00704 487.3 1.9
497(13) 0.00602 487.4 1.9
470(11) 0.00713 487.5 2.0
488(11) 0.00716 487.7 2.0
474(11) 0.00728 487.8 2.0
492(12) 0.00649 487.9 2.1
478(12) 0.00658 488.0 2.1
505(12) 0.00645 488.1 2.2
514(12) 0.00679 488.2 2.2
478(11) 0.00721 488.3 2.3
493(12) 0.00680 488.4 2.3
508(12) 0.00616 488.5 2.4
476(12) 0.00698 488.6 2.5
506(12) 0.00685 488.7 2.5
501(12) 0.00673 488.8 2.6
487(12) 0.00658 488.9 2.7
513(12) 0.00620 489.0 2.7
503(12) 0.00630 489.1 2.8
499(12) 0.00704 489.2 2.9
472(12) 0.00706 489.3 3.0
487(12) 0.00648 489.4 3.1
464(11) 0.00708 489.5 3.2
496(12) 0.00670 489.6 3.3
513(12) 0.00683 489.7 3.4
475(12) 0.00694 489.8 3.5
502(12) 0.00635 489.9 3.7
502(12) 0.00647 490.0 3.8
484(12) 0.00698 490.1 4.0
501(12) 0.00697 490.2 4.2
511(12) 0.00629 490.3 4.3
466(12) 0.00691 490.4 4.6
501(12) 0.00646 490.5 4.8
473(11) 0.00723 490.7 5.0
496(12) 0.00696 490.8 5.3
517(12) 0.00625 490.9 5.5
497(12) 0.00611 491.0 5.9
477(12) 0.00664 491.1 6.2
456(11) 0.00740 491.2 6.6
527(12) 0.00663 491.3 6.9
491(12) 0.00652 491.4 7.4
513(12) 0.00615 491.5 7.8
521(12) 0.00636 491.6 8.3
474(11) 0.00719 491.7 8.9
478(11) 0.00724 491.8 9.5
492(12) 0.00647 491.9 10.1
483(12) 0.00611 492.0 10.8
493(12) 0.00642 492.1 11.5
482(11) 0.00712 492.2 12.2
513(12) 0.00674 492.3 13.1
483(12) 0.00681 492.4 13.9
493(12) 0.00618 492.5 14.8
498(12) 0.00667 492.6 15.7
485(11) 0.00723 492.7 16.7
486(11) 0.00713 492.8 17.7
471(12) 0.00695 492.9 18.7
486(12) 0.00619 493.0 19.7
486(12) 0.00638 493.1 20.6
489(12) 0.00706 493.2 21.5
490(12) 0.00704 493.3 22.4
473(12) 0.00691 493.4 23.1
475(12) 0.00646 493.5 23.8
496(12) 0.00663 493.6 24.2
499(12) 0.00695 493.8 24.6
464(11) 0.00745 493.9 24.7
502(12) 0.00638 494.0 24.7
493(12) 0.00648 494.1 24.4
516(12) 0.00623 494.2 24.0
482(11) 0.00721 494.3 23.5
464(11) 0.00728 494.4 22.8
487(12) 0.00671 494.5 22.0
518(12) 0.00605 494.6 21.1
488(12) 0.00673 494.7 20.2
486(11) 0.00717 494.8 19.2
512(12) 0.00651 494.9 18.2
493(12) 0.00654 495.0 17.2
514(12) 0.00620 495.1 16.3
486(12) 0.00695 495.2 15.3
511(12) 0.00684 495.3 14.5
511(12) 0.00641 495.4 13.6
482(12) 0.00678 495.5 12.8
486(12) 0.00667 495.6 12.0
498(12) 0.00673 495.7 11.3
499(12) 0.00704 495.8 10.6
484(12) 0.00657 495.9 10.0
516(12) 0.00608 496.0 9.4
524(12) 0.00633 496.1 8.8
489(12) 0.00703 496.2 8.3
496(12) 0.00696 496.3 7.9
498(12) 0.00672 496.4 7.5
507(12) 0.00610 496.5 7.1
509(12) 0.00621 496.6 6.7
526(12) 0.00648 496.8 6.9
491(12) 0.00707 496.9 6.6
487(12) 0.00661 497.0 6.4
495(12) 0.00626 497.1 6.1
497(12) 0.00661 497.2 5.9
503(12) 0.00688 497.3 5.7
473(11) 0.00741 497.4 5.5
511(12) 0.00641 497.5 5.3
486(12) 0.00628 497.6 5.1
488(12) 0.00658 497.7 5.0
500(12) 0.00691 497.8 4.9
487(11) 0.00712 497.9 4.7
478(12) 0.00689 498.0 4.6
481(12) 0.00647 498.1 4.5
532(12) 0.00625 498.2 4.4
480(11) 0.00730 498.3 4.3
509(12) 0.00668 498.4 4.2
489(12) 0.00657 498.5 4.2
497(12) 0.00613 498.6 4.1
479(12) 0.00687 498.7 4.0
473(11) 0.00732 498.8 4.0
463(11) 0.00736 498.9 3.9
457(12) 0.00705 499.0 3.9
475(12) 0.00654 499.1 3.8
520(12) 0.00620 499.2 3.8
493(11) 0.00710 499.3 3.7
502(12) 0.00661 499.4 3.7
494(12) 0.00647 499.5 3.7
475(12) 0.00669 499.6 3.6
482(12) 0.00697 499.8 3.6
493(11) 0.00710 499.9 3.6
501(12) 0.00655 500.0 3.5
469(12) 0.00686 500.1 3.5
480(12) 0.00668 500.2 3.5
462(11) 0.00717 500.3 3.5
508(12) 0.00686 500.4 3.5
510(12) 0.00658 500.5 3.4
524(12) 0.00618 500.6 3.4
497(12) 0.00674 500.7 3.4
482(12) 0.00701 500.8 3.4
505(12) 0.00680 500.9 3.4
506(12) 0.00649 501.0 3.4
506(12) 0.00640 501.1 3.4
494(12) 0.00671 501.2 3.4
486(12) 0.00685 501.3 3.4
493(11) 0.00710 501.4 3.4
537(12) 0.00608 501.5 3.4
502(12) 0.00626 501.6 3.4
475(12) 0.00673 501.7 3.4
451(11) 0.00755 501.8 3.4
507(12) 0.00687 501.9 3.4
512(12) 0.00633 502.0 3.4
503(12) 0.00629 502.1 3.4
521(12) 0.00647 502.2 3.4
543(12) 0.00639 502.3 3.4
502(12) 0.00698 502.4 3.4
476(12) 0.00692 502.5 3.4
520(13) 0.00550 502.6 3.4
486(12) 0.00660 502.7 3.4
483(11) 0.00720 502.9 3.4
486(11) 0.00713 503.0 3.5
510(12) 0.00618 503.1 3.5
494(12) 0.00627 503.2 3.5
497(12) 0.00669 503.3 3.5
511(12) 0.00690 503.4 3.5
482(11) 0.00714 503.5 3.5
476(12) 0.00702 503.6 3.5
533(13) 0.00586 503.7 3.5
474(12) 0.00700 503.8 3.6
511(12) 0.00688 503.9 3.6
502(12) 0.00684 504.0 3.6
516(12) 0.00640 504.1 3.6
499(12) 0.00649 504.2 3.6
488(12) 0.00664 504.3 3.6
483(11) 0.00721 504.4 3.7
499(12) 0.00678 504.5 3.7
484(12) 0.00679 504.6 3.7
493(12) 0.00646 504.7 3.7
517(12) 0.00637 504.8 3.7
504(12) 0.00692 504.9 3.8
518(12) 0.00642 505.0 3.8
483(12) 0.00659 505.1 3.8
467(12) 0.00699 505.2 3.8
498(12) 0.00667 505.3 3.9
495(12) 0.00705 505.4 3.9
523(12) 0.00618 505.5 3.9
482(12) 0.00660 505.6 3.9
496(12) 0.00652 505.7 4.0
507(12) 0.00654 505.9 4.0
525(12) 0.00669 506.0 4.0
485(12) 0.00694 506.1 4.1
504(12) 0.00632 506.2 4.1
492(12) 0.00662 506.3 4.1
490(12) 0.00689 506.4 4.2
481(11) 0.00725 506.5 4.2
538(13) 0.00600 506.6 4.2
525(12) 0.00629 506.7 4.3
541(12) 0.00624 506.8 4.3
499(12) 0.00691 506.9 4.3
511(12) 0.00685 507.0 4.4
523(12) 0.00618 507.1 4.4
511(12) 0.00605 507.2 4.5
498(12) 0.00654 507.3 4.5
495(12) 0.00693 507.4 4.5
503(12) 0.00693 507.5 4.6
490(12) 0.00643 507.6 4.6
509(13) 0.00560 507.7 4.7
515(12) 0.00621 507.8 4.7
518(12) 0.00665 507.9 4.8
497(12) 0.00704 508.0 4.8
512(12) 0.00644 508.1 4.9
494(12) 0.00611 508.2 4.9
488(12) 0.00684 508.3 5.0
535(12) 0.00654 508.4 5.0
527(12) 0.00656 508.5 5.1
502(12) 0.00666 508.6 5.1
518(13) 0.00589 508.7 5.2
511(12) 0.00643 508.9 5.2
518(12) 0.00675 509.0 5.3
505(12) 0.00675 509.1 5.3
466(12) 0.00698 509.2 5.4
513(12) 0.00613 509.3 5.5
519(12) 0.00620 509.4 5.5
506(12) 0.00690 509.5 5.6
508(12) 0.00665 509.6 5.7
515(12) 0.00637 509.7 5.7
539(13) 0.00586 509.8 5.8
499(12) 0.00652 509.9 5.9
517(12) 0.00670 510.0 5.9
528(12) 0.00642 510.1 6.0
525(13) 0.00600 510.2 6.1
504(12) 0.00635 510.3 6.2
534(12) 0.00617 510.4 6.2
514(12) 0.00676 510.5 6.3
515(12) 0.00640 510.6 6.4
513(12) 0.00631 510.7 6.5
527(12) 0.00623 510.8 6.6
520(12) 0.00630 510.9 6.7
523(12) 0.00667 511.1 6.8
504(12) 0.00657 511.3 6.8
526(13) 0.00590 511.4 6.9
527(12) 0.00607 511.6 7.0
505(12) 0.00674 511.8 7.1
503(12) 0.00695 512.0 7.2
514(12) 0.00657 512.2 7.3
512(12) 0.00613 512.4 7.5
493(12) 0.00673 512.6 7.6
509(12) 0.00666 512.8 7.7
507(12) 0.00690 512.9 7.8
499(12) 0.00631 513.1 7.9
507(13) 0.00601 513.3 8.0
518(12) 0.00630 513.5 8.2
514(12) 0.00669 513.7 8.3
504(12) 0.00690 513.9 8.4
526(12) 0.00625 514.1 8.6
499(12) 0.00624 514.3 8.7
518(12) 0.00632 514.5 8.9
470(11) 0.00737 514.6 9.0
533(12) 0.00658 514.8 9.2
524(12) 0.00620 515.0 9.3
503(13) 0.00596 515.2 9.5
519(12) 0.00619 515.4 9.7
508(12) 0.00682 515.6 9.8
482(12) 0.00702 515.8 10.0
487(12) 0.00677 516.0 10.2
499(12) 0.00634 516.2 10.4
507(12) 0.00643 516.3 10.6
530(12) 0.00662 516.5 10.8
555(12) 0.00615 516.7 11.0
506(12) 0.00663 516.9 11.2
521(13) 0.00598 517.1 11.5
501(12) 0.00650 517.3 11.7
509(12) 0.00685 517.5 11.9
528(12) 0.00645 517.7 12.2
529(12) 0.00617 517.8 12.4
546(13) 0.00579 518.0 12.7
501(12) 0.00656 518.2 13.0
538(12) 0.00651 518.4 13.2
551(12) 0.00611 518.6 13.5
509(12) 0.00645 518.8 13.8
544(13) 0.00584 519.0 14.2
514(12) 0.00641 519.2 14.5
501(12) 0.00699 519.4 14.8
507(12) 0.00666 519.5 15.2
547(13) 0.00591 519.7 15.5
532(12) 0.00622 519.9 15.9
504(12) 0.00677 520.1 16.3
516(12) 0.00676 520.3 16.7
525(12) 0.00625 520.5 17.2
497(12) 0.00651 520.7 17.6
524(12) 0.00624 520.9 18.1
532(12) 0.00639 521.1 18.5
527(12) 0.00664 521.2 19.1
520(12) 0.00607 521.4 19.6
542(13) 0.00584 521.6 20.1
526(12) 0.00620 521.8 20.7
536(12) 0.00630 522.0 21.3
510(12) 0.00689 522.2 21.9
536(13) 0.00598 522.4 22.6
522(13) 0.00591 522.6 23.3
575(13) 0.00561 522.8 24.0
527(12) 0.00659 522.9 24.8
499(12) 0.00698 523.1 25.6
523(12) 0.00641 523.3 26.4
546(13) 0.00568 523.5 27.3
530(12) 0.00616 523.7 28.2
527(12) 0.00661 523.9 29.2
550(12) 0.00624 524.1 30.3
519(12) 0.00633 524.3 31.3
572(14) 0.00512 524.4 32.5
517(12) 0.00634 524.6 33.7
531(12) 0.00650 524.8 35.0
520(12) 0.00660 525.0 36.4
556(13) 0.00586 525.2 37.9
544(13) 0.00573 525.4 39.4
515(12) 0.00632 525.6 41.1
527(12) 0.00663 525.8 42.8
555(12) 0.00618 526.0 44.7
564(13) 0.00577 526.1 46.7
560(13) 0.00547 526.3 48.9
577(13) 0.00565 526.5 51.2
596(13) 0.00593 526.7 53.7
578(13) 0.00601 526.9 56.3
603(13) 0.00551 527.1 59.2
550(13) 0.00579 527.3 62.3
549(13) 0.00590 527.5 65.7
560(12) 0.00626 527.7 69.3
564(12) 0.00608 527.8 73.2
580(13) 0.00557 528.0 77.5
595(13) 0.00542 528.2 82.2
601(13) 0.00557 528.4 87.4
601(13) 0.00589 528.6 93.1
592(13) 0.00580 528.8 99.2
574(13) 0.00582 529.0 106.1
660(14) 0.00500 529.2 113.6
690(14) 0.00498 529.3 122.0
624(13) 0.00567 529.5 131.4
651(14) 0.00505 529.7 141.9
678(14) 0.00476 529.9 153.7
674(14) 0.00500 530.1 167.2
697(14) 0.00504 530.3 182.7
721(14) 0.00494 530.5 200.9
774(15) 0.00438 530.7 222.5
811(16) 0.00390 530.9 248.7
831(16) 0.00397 531.0 281.0
914(16) 0.00374 531.2 321.8
923(16) 0.00387 531.4 373.9
991(17) 0.003394 531.6 441.1
1083(18) 0.002940 531.8 528.1
1205(19) 0.002772 532.0 639.8
1293(19) 0.002784 532.2 781.9
1536(20) 0.002356 532.4 959.5
1740(22) 0.001980 532.6 1176.7
2022(25) 0.001587 532.7 1436.0
2307(26) 0.001462 532.9 1736.4
2573(27) 0.001401 533.1 2072.5
2835(28) 0.001292 533.3 2433.4
3102(30) 0.001126 533.5 2799.0
3536(33) 0.000908 533.7 3139.6
3958(34) 0.000862 533.9 3414.7
4190(34) 0.000875 534.1 3581.2
4373(35) 0.000831 534.2 3607.4
4255(35) 0.000801 534. 3488.
3878(35) 0.000823 534.6 3246.3
3482(32) 0.000980 534.8 2923.8
2954(28) 0.001234 535.0 2563.1
2613(27) 0.001383 535.2 2197.8
2275(26) 0.001512 535.4 1851.3
2006(25) 0.001608 535.6 1537.4
1784(23) 0.001923 535.8 1263.4
1575(21) 0.002318 535.9 1031.5
1455(20) 0.002433 536.1 840.3
1330(20) 0.002528 536.3 686.4
1246(20) 0.002567 536.5 564.5
1132(18) 0.002989 536.7 469.5
1021(17) 0.00353 536.9 395.9
940(16) 0.00365 537.1 338.9
973(17) 0.003395 537.3 294.6
848(16) 0.00384 537.5 259.5
826(15) 0.00403 537.6 231.4
805(15) 0.00442 537.8 208.4
755(15) 0.00442 538.0 189.1
720(15) 0.00450 538.2 172.8
689(14) 0.00479 538.4 158.6
687(14) 0.00484 538.6 146.2
666(13) 0.00530 538.8 135.3
674(14) 0.00507 539.0 125.6
674(14) 0.00486 539.1 116.9
645(14) 0.00513 539.3 109.1
654(14) 0.00518 539.5 102.0
630(13) 0.00564 539.7 95.7
621(13) 0.00536 539.9 89.9
613(14) 0.00517 540.1 84.6
612(13) 0.00544 540.3 79.8
617(13) 0.00565 540.5 75.3
623(13) 0.00564 540.7 71.3
595(13) 0.00551 540.8 67.6
560(13) 0.00563 541.0 64.1
562(13) 0.00583 541.2 61.0
562(13) 0.00604 541.4 58.0
573(12) 0.00616 541.6 55.3
573(13) 0.00576 541.8 52.8
544(13) 0.00586 542.0 50.4
601(13) 0.00550 542.2 48.3
563(12) 0.00619 542.4 46.2
551(12) 0.00633 542.5 44.3
540(12) 0.00625 542.7 42.5
536(13) 0.00574 542.9 40.8
534(13) 0.00594 543.1 39.3
578(13) 0.00602 543.3 37.8
576(12) 0.00611 543.5 36.4
578(13) 0.00565 543.7 35.1
542(13) 0.00566 543.9 33.9
567(13) 0.00572 544.0 32.7
566(12) 0.00607 544.2 31.6
554(12) 0.00627 544.4 30.6
578(13) 0.00567 544.6 29.6
564(13) 0.00549 544.8 28.7
582(13) 0.00547 545.0 27.8
532(12) 0.00656 545.2 26.9
541(12) 0.00628 545.4 26.1
557(13) 0.00593 545.6 25.4
585(13) 0.00545 545.7 24.7
559(13) 0.00582 545.9 24.0
555(12) 0.00633 546.1 23.3
570(13) 0.00602 546.3 22.7
555(13) 0.00572 546.5 22.1
520(12) 0.00622 546.7 21.5
511(12) 0.00642 546.9 21.0
583(13) 0.00604 547.1 20.5
578(13) 0.00567 547.3 20.0
539(13) 0.00585 547.4 19.5
507(12) 0.00647 547.6 19.1
538(12) 0.00608 547.8 18.6
566(12) 0.00624 548.0 18.2
566(13) 0.00589 548.2 17.8
581(13) 0.00563 548.4 17.4
536(12) 0.00609 548.6 17.1
537(12) 0.00610 548.8 16.7
520(12) 0.00674 548.9 16.4
551(13) 0.00593 549.1 16.1
585(13) 0.00539 549.3 15.8
545(13) 0.00602 549.5 15.5
533(12) 0.00635 549.7 15.2
539(12) 0.00644 549.9 14.9
584(13) 0.00556 550.1 14.6
577(13) 0.00546 550.3 14.4
522(12) 0.00616 550.5 14.1
553(12) 0.00625 550.6 13.9
505(12) 0.00684 550.8 13.7
561(13) 0.00576 551.0 13.4
525(12) 0.00615 551.2 13.2
567(13) 0.00591 551.4 13.0
545(12) 0.00644 551.6 12.8
553(12) 0.00634 551.8 12.6
560(13) 0.00600 552.0 12.5
557(13) 0.00561 552.2 12.3
532(12) 0.00619 552.3 12.1
564(12) 0.00617 552.5 11.9
554(12) 0.00627 552.7 11.8
565(13) 0.00592 552.9 11.6
572(13) 0.00537 553.1 11.5
549(13) 0.00596 553.3 11.3
559(12) 0.00622 553.5 11.2
560(12) 0.00623 553.7 11.1
554(13) 0.00599 553.9 10.9
571(13) 0.00540 554.0 10.8
542(13) 0.00604 554.2 10.7
542(12) 0.00652 554.4 10.6
551(12) 0.00619 554.6 10.5
552(13) 0.00585 554.8 10.4
553(13) 0.00570 555.0 10.3
559(13) 0.00595 555.2 10.2
547(12) 0.00642 555.4 10.1
566(12) 0.00607 555.5 10.0
541(12) 0.00618 555.7 9.9
558(13) 0.00556 555.9 9.8
583(13) 0.00560 556.1 9.7
594(13) 0.00593 556.3 9.6
534(12) 0.00645 556.5 9.5
557(13) 0.00590 556.7 9.5
550(13) 0.00584 556.9 9.4
566(13) 0.00582 557.1 9.3
518(12) 0.00673 557.2 9.3
535(12) 0.00636 557.4 9.2
530(12) 0.00624 557.6 9.1
558(13) 0.00579 557.8 9.1
535(12) 0.00622 558.0 9.0
571(12) 0.00623 558.2 9.0
564(13) 0.00585 558.4 8.9
579(13) 0.00563 558.6 8.9
596(13) 0.00559 558.8 8.8
564(13) 0.00603 558.9 8.8
572(12) 0.00611 559.1 8.7
569(13) 0.00571 559.3 8.7
576(13) 0.00561 559.5 8.6
594(13) 0.00562 559.7 8.6
578(12) 0.00606 559.9 8.6
573(12) 0.00615 560.1 8.5
575(13) 0.00583 560.3 8.5
580(13) 0.00540 560.4 8.5
578(13) 0.00557 560.6 8.4
560(12) 0.00617 560.8 8.4
565(12) 0.00622 561.0 8.4
531(12) 0.00624 561.2 8.4
530(13) 0.00575 561.4 8.3
527(12) 0.00629 561.6 8.3
560(12) 0.00625 561.8 8.3
568(12) 0.00619 562.0 8.3
580(13) 0.00554 562.1 8.3
559(13) 0.00563 562.3 8.2
572(13) 0.00581 562.5 8.2
558(12) 0.00625 562.7 8.2
558(12) 0.00630 562.9 8.2
554(13) 0.00605 563.1 8.2
545(13) 0.00570 563.3 8.2
566(13) 0.00568 563.5 8.2
572(12) 0.00613 563.7 8.2
568(12) 0.00617 563.8 8.2
531(12) 0.00631 564.0 8.2
548(13) 0.00578 564.2 8.2
566(13) 0.00584 564.4 8.2
562(12) 0.00621 564.6 8.2
567(13) 0.00594 564.8 8.2
575(13) 0.00553 565.0 8.2
580(13) 0.00532 565.2 8.2
571(13) 0.00561 565.3 8.2
540(12) 0.00642 565.5 8.2
579(13) 0.00597 565.7 8.2
561(13) 0.00600 565.9 8.2
592(13) 0.00558 566.1 8.2
592(13) 0.00561 566.3 8.2
550(12) 0.00642 566.5 8.2
579(13) 0.00579 566.7 8.2
608(13) 0.00540 566.9 8.3
567(13) 0.00583 567.0 8.3
581(13) 0.00573 567.2 8.3
555(12) 0.00630 567.4 8.3
572(13) 0.00582 567.6 8.3
558(13) 0.00595 567.8 8.4
566(13) 0.00574 568.0 8.4
578(13) 0.00592 568.2 8.4
568(12) 0.00617 568.4 8.4
579(13) 0.00578 568.6 8.5
558(13) 0.00572 568.7 8.5
562(13) 0.00580 568.9 8.5
579(13) 0.00594 569.1 8.5
576(12) 0.00613 569.3 8.6
559(13) 0.00572 569.5 8.6
545(13) 0.00577 569.7 8.6
600(13) 0.00548 569.9 8.7
600(13) 0.00586 570.1 8.7
587(13) 0.00597 570.2 8.7
570(13) 0.00556 570.7 8.8
553(13) 0.00575 571.1 8.8
583(13) 0.00566 571.6 8.9
565(12) 0.00623 572.1 8.9
595(13) 0.00588 572.5 9.0
620(14) 0.00522 573.0 9.0
559(13) 0.00546 573.5 9.1
570(13) 0.00566 573.9 9.1
577(13) 0.00603 574.4 9.1
569(12) 0.00615 574.9 9.2
582(13) 0.00564 575.3 9.3
593(14) 0.00514 575.8 9.3
608(13) 0.00543 576.3 9.4
547(12) 0.00646 576.8 9.4
558(12) 0.00611 577.2 9.5
565(13) 0.00587 577.7 9.5
583(14) 0.00522 578.2 9.6
583(13) 0.00554 578.6 9.7
594(13) 0.00593 579.1 9.7
574(13) 0.00603 579.6 9.8
583(13) 0.00562 580.0 9.9
566(13) 0.00564 580.5 9.9
592(13) 0.00546 581.0 10.0
568(12) 0.00615 581.4 10.1
572(12) 0.00607 581.9 10.2
597(13) 0.00555 582.4 10.2
579(13) 0.00563 582.8 10.3
592(13) 0.00558 583.3 10.4
579(12) 0.00606 583.8 10.5
583(13) 0.00580 584.2 10.6
590(13) 0.00532 584.7 10.7
589(13) 0.00545 585.2 10.7
558(13) 0.00599 585.6 10.8
542(12) 0.00648 586.1 10.9
593(13) 0.00564 586.6 11.0
604(13) 0.00534 587.0 11.1
594(13) 0.00542 587.5 11.2
585(13) 0.00570 588.0 11.3
573(12) 0.00619 588.4 11.4
560(13) 0.00592 588.9 11.5
604(13) 0.00532 589.4 11.6
605(13) 0.00539 589.8 11.8
597(13) 0.00570 590.3 11.9
590(13) 0.00595 590.8 12.0
575(13) 0.00562 591.3 12.1
603(13) 0.00530 591.7 12.2
579(13) 0.00589 592.2 12.3
602(13) 0.00573 592.7 12.5
585(12) 0.00605 593.1 12.6
583(13) 0.00554 593.6 12.7
564(13) 0.00539 594.1 12.9
601(13) 0.00553 594.5 13.0
613(13) 0.00573 595.0 13.2
597(13) 0.00586 595.5 13.4
565(13) 0.00596 595.9 13.5
566(13) 0.00554 596.4 13.7
618(14) 0.00522 596.9 13.9
590(13) 0.00595 597.3 14.0
600(13) 0.00575 597.8 14.2
617(13) 0.00538 598.3 14.4
586(13) 0.00536 598.7 14.5
624(13) 0.00540 599.2 14.7
610(13) 0.00579 599.7 14.9
589(13) 0.00593 600.1 15.1
659(14) 0.00504 600.6 15.3
616(13) 0.00524 601.1 15.5
611(13) 0.00558 601.5 15.7
630(13) 0.00558 602.0 15.9
586(13) 0.00597 602.5 16.1
608(13) 0.00550 602.9 16.3
610(13) 0.00525 603.4 16.5
619(14) 0.00513 603.9 16.7
601(13) 0.00586 604.3 17.0
595(13) 0.00576 604.8 17.2
630(14) 0.00510 605.3 17.4
614(14) 0.00517 605.8 17.7
583(13) 0.00576 606.2 17.9
592(13) 0.00599 606.7 18.2
598(13) 0.00559 607.2 18.5
605(13) 0.00537 607.6 18.7
607(13) 0.00531 608.1 19.0
583(13) 0.00577 608.6 19.3
648(13) 0.00550 609.0 19.6
599(13) 0.00567 609.5 19.9
595(13) 0.00546 610.0 20.2
625(14) 0.00519 610.4 20.5
631(13) 0.00542 610.9 20.9
617(13) 0.00570 611.4 21.2
646(14) 0.00516 611.8 21.6
610(13) 0.00535 612.3 21.9
621(14) 0.00522 612.8 22.3
654(14) 0.00521 613.2 22.7
626(13) 0.00559 613.7 23.1
632(14) 0.00516 614.2 23.5
581(13) 0.00557 614.6 23.9
611(13) 0.00549 615.1 24.3
647(13) 0.00537 615.6 24.7
630(13) 0.00560 616.0 25.2
589(13) 0.00563 616.5 25.7
623(14) 0.00507 617.0 26.1
624(13) 0.00525 617.4 26.6
611(13) 0.00577 617.9 27.1
601(13) 0.00576 618.4 27.7
615(13) 0.00526 618.8 28.2
660(14) 0.00463 619.3 28.8
682(14) 0.00483 619.8 29.3
597(13) 0.00589 620.3 29.9
622(13) 0.00564 620.7 30.6
632(13) 0.00527 621.2 31.2
627(14) 0.00493 621.7 31.9
578(13) 0.00593 622.1 32.5
605(13) 0.00587 622.6 33.2
620(13) 0.00566 623.1 34.0
621(13) 0.00544 623.5 34.7
634(14) 0.00494 624.0 35.5
627(13) 0.00546 624.5 36.3
671(13) 0.00525 624.9 37.1
681(14) 0.00514 625.4 38.0
653(13) 0.00524 625.9 38.9
657(14) 0.00488 626.3 39.8
679(14) 0.00470 626.8 40.8
648(13) 0.00548 627.3 41.8
685(14) 0.00506 627.7 42.9
688(14) 0.00486 628.2 44.0
689(14) 0.00468 628.7 45.1
652(14) 0.00515 629.1 46.3
637(13) 0.00551 629.6 47.5
673(14) 0.00503 630.1 48.8
664(14) 0.00500 630.5 50.1
662(14) 0.00486 631.0 51.5
658(14) 0.00506 631.5 52.9
680(14) 0.00520 631.9 54.4
691(14) 0.00492 632.4 56.0
687(14) 0.00482 632.9 57.7
703(14) 0.00467 633.4 59.4
727(14) 0.00464 633.8 61.2
688(14) 0.00515 634.3 63.1
668(14) 0.00503 634.8 65.1
672(14) 0.00484 635.2 67.2
696(14) 0.00473 635.7 69.4
687(14) 0.00500 636.2 71.6
670(13) 0.00532 636.6 74.1
684(14) 0.00476 637.1 76.6
686(14) 0.00480 637.6 79.3
701(14) 0.00485 638.0 82.1
692(14) 0.00495 638.5 85.1
662(13) 0.00542 639.0 88.2
695(14) 0.00478 639.4 91.5
696(14) 0.00467 639.9 95.0
705(14) 0.00468 640.4 98.7
690(14) 0.00501 640.8 102.7
709(14) 0.00501 641.3 106.9
722(14) 0.00466 641.8 111.3
719(15) 0.00438 642.2 116.1
693(14) 0.00476 642.7 121.1
695(14) 0.00501 643.2 126.5
738(14) 0.00482 643.6 132.2
744(15) 0.00454 644.1 138.4
735(15) 0.00420 644.6 145.0
715(14) 0.00470 645.0 152.0
724(14) 0.00491 645.5 159.6
773(14) 0.00459 646.0 167.8
752(14) 0.00457 646.4 176.6
771(16) 0.00399 646.9 186.2
803(15) 0.00410 647.4 196.5
807(15) 0.00439 647.9 207.7
808(15) 0.00440 648.3 219.8
812(15) 0.00419 648.8 233.1
816(16) 0.00401 649.3 247.6
872(16) 0.00387 649.7 263.5
889(15) 0.00401 650.2 281.1
855(15) 0.00413 650.7 300.5
892(16) 0.00374 651.1 322.1
954(17) 0.003321 651.6 346.4
946(17) 0.003484 652.1 373.7
1019(17) 0.00355 652.5 404.9
1035(17) 0.003402 653.0 440.7
1080(18) 0.003142 653.5 482.3
1183(19) 0.002735 653.9 531.0
1165(18) 0.002926 654.4 588.4
1278(19) 0.002833 654.9 656.8
1356(19) 0.002594 655.3 738.4
1370(20) 0.002483 655.8 835.9
1594(22) 0.002065 656.3 952.7
1703(22) 0.002010 656.7 1091.8
1888(23) 0.001931 657.2 1256.7
2066(24) 0.001670 657.7 1450.6
2262(26) 0.001483 658.1 1676.5
2574(27) 0.001308 658.6 1936.5
2919(29) 0.001189 659.1 2231.5
3297(30) 0.001111 659.5 2561.3
3792(33) 0.000906 660.0 2922.7
4179(35) 0.000800 660. 3309.
4638(37) 0.000733 661. 3709.
4990(37) 0.000715 661. 4105.
5377(38) 0.000683 662. 4472.
5775(41) 0.000594 662. 4779.
5962(42) 0.000552 663. 4994.
5920(41) 0.000578 663. 5088.
5813(40) 0.000621 664. 5049.
5599(39) 0.000653 664. 4882.
5110(39) 0.000670 665. 4610.
4638(38) 0.000699 665. 4264.
4180(35) 0.000829 665.6 3876.9
3973(33) 0.000918 666.1 3476.4
3527(31) 0.001036 666.6 3083.0
3307(31) 0.001039 667.0 2710.7
2910(30) 0.001115 667.5 2367.8
2732(28) 0.001245 668.0 2058.5
2553(26) 0.001430 668.4 1784.5
2339(25) 0.001547 668.9 1545.2
2205(25) 0.001553 669.4 1338.8
2007(25) 0.001591 669.8 1162.8
1928(24) 0.001780 670.3 1013.9
1782(22) 0.002035 670.8 888.9
1691(21) 0.002153 671.2 784.4
1591(21) 0.002151 671.7 697.1
1481(21) 0.002190 672.2 624.4
1455(21) 0.002321 672.6 563.4
1354(19) 0.002674 673.1 512.1
1327(19) 0.002668 673.6 468.6
1211(19) 0.002761 674.0 431.5
1179(19) 0.002752 674.5 399.6
1160(18) 0.002881 675.0 371.9
1132(17) 0.003191 675.4 347.7
1098(17) 0.003200 675.9 326.5
1026(17) 0.003271 676.4 307.8
1037(18) 0.003131 676.9 291.4
992(17) 0.003419 677.3 276.9
989(16) 0.00363 677.8 264.2
1007(17) 0.003453 678.3 253.2
980(17) 0.003341 678.7 243.7
963(17) 0.003357 679.2 235.8
918(16) 0.00369 679.7 229.4
942(16) 0.00384 680.1 224.6
934(16) 0.00365 680.6 221.2
887(16) 0.00367 681.1 219.3
906(16) 0.00366 681.5 219.1
949(16) 0.00362 682.0 220.4
925(16) 0.00389 682.5 223.3
908(16) 0.00368 682.9 227.8
914(16) 0.00358 683.4 233.9
878(16) 0.00395 683.9 241.5
924(16) 0.00380 684.3 250.3
931(16) 0.00386 684.8 260.2
906(16) 0.00369 685.3 270.6
887(16) 0.00363 685.7 281.1
880(16) 0.00380 686.2 290.8
930(16) 0.00373 686.7 298.8
914(16) 0.00394 687.1 304.0
917(16) 0.00369 687.6 305.6
908(17) 0.003468 688.1 303.1
926(16) 0.00364 688.5 296.3
962(16) 0.00373 689.0 285.6
896(16) 0.00399 689.5 271.9
856(16) 0.00400 689.9 256.1
892(17) 0.003460 690.4 239.2
877(16) 0.00380 690.9 221.9
882(16) 0.00401 691.4 204.8
791(15) 0.00452 691.8 188.5
787(15) 0.00428 692.3 173.2
818(16) 0.00378 692.8 159.0
833(16) 0.00396 693.2 146.0
783(14) 0.00457 693.7 134.3
818(15) 0.00430 694.2 123.8
773(15) 0.00441 694.6 114.3
767(15) 0.00411 695.1 106.0
792(15) 0.00411 695.6 98.6
781(14) 0.00456 696.0 92.1
777(15) 0.00448 696.5 86.3
730(14) 0.00456 697.0 81.3
739(15) 0.00434 697.4 76.8
742(15) 0.00455 697.9 72.8
763(14) 0.00467 698.4 69.2
733(14) 0.00472 698.8 66.0
748(15) 0.00447 699.3 63.1
738(15) 0.00435 699.8 60.5
749(15) 0.00446 700.2 58.1
754(14) 0.00470 700.7 55.9
708(14) 0.00488 701.2 53.9
725(15) 0.00445 701.6 52.0
726(15) 0.00447 702.1 50.3
718(14) 0.00468 702.6 48.6
718(14) 0.00496 703.0 47.1
743(15) 0.00455 703.5 45.6
737(15) 0.00449 704.0 44.3
794(15) 0.00408 704.5 43.0
744(15) 0.00455 704.9 41.8
710(14) 0.00503 705.4 40.6
740(15) 0.00453 705.9 39.5
728(15) 0.00438 706.3 38.5
712(14) 0.00464 706.8 37.5
676(14) 0.00499 707.3 36.5
722(14) 0.00492 707.7 35.6
707(14) 0.00468 708.2 34.8
726(15) 0.00438 708.7 33.9
697(14) 0.00474 709.1 33.1
699(14) 0.00491 709.6 32.4
734(14) 0.00480 710.1 31.6
680(14) 0.00490 710.5 30.9
721(15) 0.00438 711.0 30.3
699(14) 0.00462 711.5 29.6
709(14) 0.00493 711.9 29.0
733(14) 0.00484 712.4 28.4
702(14) 0.00483 712.9 27.8
752(15) 0.00415 713.3 27.3
697(14) 0.00482 713.8 26.8
730(14) 0.00478 714.3 26.2
728(14) 0.00489 714.7 25.7
723(14) 0.00465 715.2 25.3
720(15) 0.00435 715.7 24.8
717(14) 0.00466 716.1 24.4
729(14) 0.00487 716.6 23.9
743(14) 0.00477 717.1 23.5
742(15) 0.00449 717.5 23.1
709(15) 0.00448 718.0 22.7
751(15) 0.00446 718.5 22.3
744(14) 0.00472 719.0 22.0
719(14) 0.00498 719.4 21.6
732(15) 0.00450 719.9 21.3
715(15) 0.00440 720.4 21.0
732(15) 0.00443 720.8 20.6
719(14) 0.00497 721.3 20.3
717(14) 0.00493 721.8 20.0
717(14) 0.00469 722.2 19.7
726(15) 0.00450 722.7 19.5
732(14) 0.00460 723.2 19.2
723(14) 0.00488 723.6 18.9
729(14) 0.00478 724.1 18.7
753(15) 0.00440 724.6 18.4
756(15) 0.00424 725.0 18.2
747(15) 0.00446 725.5 18.0
703(14) 0.00503 726.0 17.7
766(15) 0.00440 726.4 17.5
713(14) 0.00460 726.9 17.3
694(14) 0.00473 727.4 17.1
714(14) 0.00471 727.8 16.9
752(14) 0.00475 728.3 16.7
714(14) 0.00477 728.8 16.5
734(15) 0.00442 729.2 16.3
791(15) 0.00416 729.7 16.2
741(14) 0.00468 730.2 16.0
758(14) 0.00471 730.6 15.9
711(14) 0.00467 731.1 15.7
720(15) 0.00450 731.6 15.6
755(15) 0.00428 732.0 15.4
752(14) 0.00457 732.5 15.3
733(14) 0.00484 733.0 15.1
700(14) 0.00463 733.5 15.0
695(15) 0.00456 733.9 14.9
749(15) 0.00440 734.4 14.8
716(14) 0.00492 734.9 14.7
761(14) 0.00469 735.3 14.6
735(14) 0.00460 735.8 14.5
748(15) 0.00417 736.3 14.4
735(15) 0.00447 736.9 14.3
729(14) 0.00487 737.4 14.2
750(14) 0.00471 738.0 14.1
742(15) 0.00445 738.6 14.1
691(14) 0.00460 739.2 14.0
751(15) 0.00444 739.7 13.9
696(14) 0.00505 740.3 13.9
780(15) 0.00450 740.9 13.9
745(15) 0.00444 741.5 13.8
742(15) 0.00421 742.0 13.8
712(14) 0.00480 742.6 13.8
772(14) 0.00460 743.2 13.7
749(14) 0.00471 743.8 13.7
776(15) 0.00431 744.3 13.7
745(15) 0.00429 744.9 13.7
761(15) 0.00440 745.5 13.7
746(14) 0.00478 746.1 13.7
737(14) 0.00469 746.6 13.8
759(15) 0.00426 747.2 13.8
748(15) 0.00431 747.8 13.9
760(15) 0.00443 748.4 13.9
775(14) 0.00463 748.9 14.0
772(15) 0.00445 749.5 14.0
724(15) 0.00453 750.1 14.1
759(15) 0.00425 750.7 14.2
768(15) 0.00431 751.2 14.4
724(14) 0.00492 751.8 14.5
756(15) 0.00446 752.4 14.6
740(15) 0.00452 753.0 14.8
761(15) 0.00442 753.6 15.0
779(15) 0.00434 754.1 15.2
763(14) 0.00465 754.7 15.4
771(15) 0.00438 755.3 15.6
787(15) 0.00418 755.9 15.9
761(15) 0.00430 756.4 16.2
785(15) 0.00436 757.0 16.5
792(15) 0.00453 757.6 16.9
793(15) 0.00407 758.2 17.3
759(15) 0.00422 758.7 17.7
740(15) 0.00440 759.3 18.2
741(14) 0.00468 759.9 18.7
826(15) 0.00434 760.5 19.3
790(15) 0.00430 761.0 19.9
768(15) 0.00424 761.6 20.6
757(15) 0.00437 762.2 21.4
776(14) 0.00458 762.8 22.3
755(14) 0.00470 763.3 23.3
739(14) 0.00457 763.9 24.4
755(15) 0.00417 764.5 25.6
764(15) 0.00427 765.1 27.0
766(14) 0.00459 765.6 28.5
792(15) 0.00453 766.2 30.3
801(15) 0.00417 766.8 32.3
792(16) 0.00396 767.4 34.6
816(15) 0.00416 768.0 37.3
845(15) 0.00425 768.5 40.5
831(15) 0.00429 769.1 44.3
828(15) 0.00402 769.7 49.0
826(16) 0.00373 770.3 54.9
866(16) 0.00382 770.8 62.7
849(15) 0.00424 771.4 73.1
914(16) 0.00385 772.0 87.1
882(16) 0.00388 772.6 106.0
928(17) 0.003417 773.1 131.5
946(16) 0.00357 773.7 165.0
1015(17) 0.00352 774.3 208.3
1063(17) 0.003368 774.9 262.1
1083(18) 0.003165 775.4 326.9
1156(19) 0.002798 776.0 401.5
1245(19) 0.002706 776.6 483.2
1386(19) 0.002607 777.2 566.7
1350(19) 0.002641 777.7 643.7
1460(21) 0.002284 778.3 703.3
1514(21) 0.002183 778.9 733.6
1505(21) 0.002279 779.5 727.7
1510(20) 0.002396 780.0 686.9
1438(20) 0.002381 780.6 620.4
1319(20) 0.002562 781.2 540.2
1210(19) 0.002742 781.8 456.5
1115(18) 0.003138 782.3 376.6
991(16) 0.00362 782.9 304.8
938(16) 0.00365 783.5 243.3
933(17) 0.00352 784.1 192.8
878(16) 0.00381 784.7 152.8
861(16) 0.00397 785.2 121.9
855(15) 0.00420 785.8 98.6
864(16) 0.00380 786.4 81.3
831(16) 0.00394 787.0 68.5
836(16) 0.00397 787.5 59.0
847(15) 0.00409 788.1 51.8
816(15) 0.00436 788.7 46.2
804(15) 0.00422 789.3 41.7
832(16) 0.00391 789.8 38.1
821(15) 0.00404 790.4 35.0
844(15) 0.00416 791.0 32.4
831(15) 0.00429 791.6 30.1
807(15) 0.00416 792.1 28.1
776(15) 0.00421 792.7 26.4
875(16) 0.00373 793.3 24.8
801(15) 0.00441 793.9 23.4
772(14) 0.00461 794.4 22.2
836(16) 0.00386 795.0 21.0
800(16) 0.00395 795.6 20.0
810(15) 0.00417 796.2 19.1
813(15) 0.00435 796.7 18.2
781(15) 0.00455 797.3 17.5
773(15) 0.00431 797.9 16.8
774(15) 0.00406 798.5 16.1
797(15) 0.00414 799.0 15.5
804(15) 0.00440 799.6 15.0
824(15) 0.00428 800.2 14.5
823(15) 0.00414 800.8 14.0
815(16) 0.00393 801.4 13.6
820(15) 0.00410 801.9 13.2
801(15) 0.00445 802.5 12.8
808(15) 0.00440 803.1 12.5
785(15) 0.00435 803.7 12.2
814(16) 0.00390 804.2 11.9
812(15) 0.00404 804.8 11.6
794(15) 0.00450 805.4 11.3
819(15) 0.00419 806.0 11.1
828(16) 0.00399 806.5 10.9
797(15) 0.00407 807.1 10.7
770(15) 0.00420 807.7 10.5
833(15) 0.00430 808.3 10.3
838(15) 0.00403 808.8 10.1
839(16) 0.00401 809.4 9.9
863(16) 0.00375 810.0 9.8
818(15) 0.00407 810.6 9.6
803(15) 0.00444 811.1 9.5
778(15) 0.00439 811.7 9.3
758(15) 0.00431 812.3 9.2
806(15) 0.00408 812.9 9.1
824(15) 0.00412 813.4 9.0
795(15) 0.00451 814.0 8.9
824(15) 0.00413 814.6 8.8
836(16) 0.00396 815.2 8.7
830(16) 0.00400 815.8 8.6
815(15) 0.00422 816.3 8.5
786(15) 0.00450 816.9 8.5
820(15) 0.00403 817.5 8.4
795(15) 0.00408 818.1 8.3
786(15) 0.00425 818.6 8.2
785(15) 0.00443 819.2 8.2
797(15) 0.00451 819.8 8.1
787(15) 0.00431 820.4 8.1
825(16) 0.00394 820.9 8.0
843(16) 0.00398 821.5 8.0
808(15) 0.00434 822.1 7.9
791(15) 0.00451 822.7 7.9
823(15) 0.00401 823.2 7.9
809(16) 0.00393 823.8 7.8
842(16) 0.00400 824.4 7.8
822(15) 0.00429 825.0 7.8
825(15) 0.00428 825.5 7.8
843(15) 0.00403 826.1 7.7
815(16) 0.00391 826.7 7.7
819(15) 0.00405 827.3 7.7
823(15) 0.00434 827.8 7.7
863(15) 0.00410 828.4 7.7
826(15) 0.00408 829.0 7.7
847(16) 0.00377 829.6 7.7
851(16) 0.00397 830.1 7.7
865(15) 0.00413 830.7 7.7
876(15) 0.00403 831.3 7.7
842(16) 0.00396 831.9 7.7
856(16) 0.00367 832.5 7.7
850(16) 0.00390 833.0 7.7
872(15) 0.00412 833.6 7.7
822(15) 0.00419 834.2 7.7
834(15) 0.00402 834.8 7.7
834(16) 0.00385 835.3 7.7
863(16) 0.00381 835.9 7.7
852(15) 0.00417 836.5 7.8
833(15) 0.00409 837.0 7.8
876(16) 0.00379 837.5 7.8
849(16) 0.00384 838.0 7.8
890(16) 0.00377 838.5 7.9
848(15) 0.00419 839.0 7.9
850(15) 0.00407 839.5 7.9
820(15) 0.00404 840.1 8.0
844(16) 0.00388 840.6 8.0
899(16) 0.00384 841.1 8.1
880(15) 0.00403 841.6 8.1
843(16) 0.00396 842.1 8.2
853(16) 0.00380 842.6 8.2
879(16) 0.00372 843.1 8.3
847(15) 0.00406 843.6 8.3
836(15) 0.00424 844.1 8.4
811(16) 0.00401 844.6 8.5
872(16) 0.00357 845.1 8.5
869(16) 0.00384 845.7 8.6
861(15) 0.00408 846.2 8.7
863(15) 0.00413 846.7 8.7
873(16) 0.00384 847.2 8.8
881(16) 0.00361 847.7 8.9
846(16) 0.00401 848.2 9.0
823(15) 0.00426 848.7 9.1
836(15) 0.00429 849.2 9.2
832(16) 0.00394 849.7 9.3
830(16) 0.00375 850.2 9.4
856(16) 0.00388 850.7 9.5
836(15) 0.00419 851.3 9.6
813(15) 0.00436 851.8 9.7
884(16) 0.00376 852.3 9.8
845(16) 0.00369 852.8 9.9
888(16) 0.00372 853.3 10.1
836(15) 0.00425 853.8 10.2
884(15) 0.00405 854.3 10.4
881(16) 0.00390 854.8 10.5
858(16) 0.00373 855.3 10.7
859(16) 0.00396 855.8 10.8
895(16) 0.00400 856.3 11.0
876(16) 0.00400 856.9 11.1
840(15) 0.00404 857.4 11.3
903(17) 0.003443 857.9 11.5
874(16) 0.00381 858.4 11.7
914(16) 0.00392 858.9 11.9
923(16) 0.00380 859.4 12.1
881(16) 0.00391 859.9 12.3
902(16) 0.00360 860.4 12.6
915(16) 0.00357 860.9 12.8
847(15) 0.00418 861.4 13.0
894(16) 0.00390 861.9 13.3
913(16) 0.00367 862.5 13.6
917(17) 0.003485 863.0 13.9
880(16) 0.00382 863.5 14.2
870(15) 0.00410 864.0 14.5
902(16) 0.00383 864.5 14.8
898(16) 0.00372 865.0 15.1
900(16) 0.00367 865.5 15.5
891(16) 0.00380 866.0 15.8
906(16) 0.00396 866.5 16.2
907(16) 0.00377 867.0 16.6
913(16) 0.00360 867.5 17.0
872(16) 0.00383 868.1 17.5
891(16) 0.00388 868.6 17.9
915(16) 0.00395 869.1 18.4
947(17) 0.003473 869.6 18.9
903(16) 0.00361 870.1 19.5
871(16) 0.00388 870.6 20.0
875(16) 0.00400 871.1 20.6
917(16) 0.00391 871.6 21.2
903(16) 0.00364 872.1 21.9
868(16) 0.00374 872.6 22.6
890(16) 0.00379 873.1 23.3
895(16) 0.00400 873.7 24.1
894(16) 0.00401 874.2 24.9
900(16) 0.00366 874.7 25.8
874(16) 0.00363 875.2 26.7
869(16) 0.00390 875.7 27.6
913(16) 0.00393 876.2 28.7
893(16) 0.00401 876.7 29.8
891(16) 0.00371 877.2 30.9
912(17) 0.003418 877.7 32.2
905(16) 0.00383 878.2 33.5
924(16) 0.00391 878.7 34.9
905(16) 0.00389 879.3 36.4
895(16) 0.00377 879.8 38.0
902(17) 0.003453 880.3 39.7
888(16) 0.00373 880.8 41.6
926(16) 0.00386 881.3 43.6
894(16) 0.00397 881.8 45.7
925(16) 0.00366 882.3 48.1
901(17) 0.00352 882.8 50.6
919(16) 0.00364 883.3 53.3
905(16) 0.00395 883.8 56.3
904(16) 0.00390 884.3 59.6
939(16) 0.00359 884.9 63.3
944(17) 0.003383 885.4 67.3
930(17) 0.00355 885.9 71.8
913(16) 0.00393 886.4 76.8
949(16) 0.00368 886.9 82.3
980(17) 0.003381 887.4 88.6
949(17) 0.00353 887.9 95.7
989(17) 0.003410 888.4 103.7
1016(17) 0.00354 888.9 112.8
989(17) 0.00354 889.4 123.2
1005(17) 0.003311 889.9 134.9
999(17) 0.003311 890.5 148.2
1061(18) 0.003110 891.0 163.2
1064(17) 0.003372 891.5 180.2
1094(18) 0.003143 892.0 199.3
1101(18) 0.002974 892.5 220.8
1152(18) 0.002856 893.0 244.6
1210(19) 0.002835 893.5 271.1
1225(18) 0.002960 894.0 300.2
1218(19) 0.002775 894.5 332.0
1243(19) 0.002652 895.0 366.4
1312(20) 0.002564 895.5 403.0
1346(19) 0.002626 896.1 441.6
1389(19) 0.002606 896.6 481.4
1480(21) 0.002274 897.1 521.4
1510(21) 0.002176 897.6 560.2
1566(21) 0.002205 898.1 596.2
1594(21) 0.002214 898.6 627.3
1646(21) 0.002220 899.1 651.4
1633(22) 0.002031 899.6 666.9
1577(22) 0.002015 900.1 672.2
1637(22) 0.002083 900.6 667.1
1613(21) 0.002245 901.1 651.8
1602(21) 0.002276 901.7 627.8
1507(21) 0.002269 902.2 596.8
1478(22) 0.002121 902.7 560.9
1439(20) 0.002343 903.2 522.2
1402(20) 0.002558 903.7 482.2
1326(19) 0.002731 904.2 442.4
1264(19) 0.002654 904.7 403.7
1290(20) 0.002428 905.2 367.0
1267(19) 0.002667 905.7 332.6
1216(18) 0.002974 906.2 300.7
1219(18) 0.002935 906.7 271.5
1195(18) 0.002848 907.3 245.0
1175(19) 0.002707 907.8 221.0
1117(18) 0.003055 908.3 199.5
1143(18) 0.003141 908.8 180.4
1112(17) 0.003207 909.3 163.3
1151(18) 0.002920 909.8 148.2
1088(18) 0.002918 910.3 134.9
1128(18) 0.002934 910.8 123.1
1105(17) 0.003255 911.3 112.7
1053(17) 0.003330 911.8 103.6
1036(17) 0.003232 912.3 95.5
1028(17) 0.003183 912.9 88.4
1040(17) 0.003235 913.4 82.1
1033(17) 0.003489 913.9 76.5
1025(17) 0.003422 914.4 71.5
977(17) 0.003408 914.9 67.0
970(17) 0.003316 915.4 62.9
971(17) 0.003502 915.9 59.3
1002(16) 0.00362 916.4 56.0
963(17) 0.00355 916.9 52.9
1055(18) 0.003116 917.4 50.1
1020(17) 0.003324 917.9 47.6
1011(17) 0.003402 918.5 45.2
1006(16) 0.00357 919.0 43.1
1023(17) 0.003304 919.5 41.1
998(17) 0.003283 920.0 39.2
989(17) 0.003423 920.5 37.4
999(17) 0.003502 921.0 35.8
1034(17) 0.003485 921.5 34.3
950(17) 0.003481 922.0 32.9
989(17) 0.003237 922.5 31.5
951(17) 0.00354 923.0 30.3
980(16) 0.00363 923.5 29.1
954(16) 0.00377 924.1 28.0
966(17) 0.003448 924.6 27.0
964(17) 0.003356 925.1 26.0
988(17) 0.003412 925.6 25.0
926(16) 0.00387 926.1 24.2
923(16) 0.00390 926.6 23.3
997(17) 0.003367 927.1 22.5
980(17) 0.003257 927.6 21.8
957(17) 0.003482 928.1 21.1
949(16) 0.00378 928.6 20.4
932(16) 0.00386 929.1 19.8
993(17) 0.003440 929.7 19.2
948(17) 0.003276 930.2 18.6
976(17) 0.003415 930.7 18.0
947(16) 0.00378 931.2 17.5
956(16) 0.00378 931.7 17.0
945(16) 0.00361 932.2 16.5
965(17) 0.003268 932.7 16.1
952(17) 0.00354 933.2 15.6
989(16) 0.00359 933.7 15.2
958(16) 0.00369 934.2 14.8
960(17) 0.00354 934.7 14.4
988(17) 0.003190 935.3 14.1
952(17) 0.00353 935.8 13.7
932(16) 0.00384 936.3 13.4
955(16) 0.00367 936.8 13.0
936(16) 0.00364 937.3 12.7
1002(17) 0.003231 937.8 12.4
978(17) 0.003363 938.3 12.1
966(16) 0.00370 938.8 11.9
942(16) 0.00374 939.3 11.6
949(17) 0.00353 939.8 11.3
1016(17) 0.003206 940.3 11.1
924(16) 0.00372 940.9 10.8
931(16) 0.00386 941.4 10.6
974(16) 0.00362 941.9 10.4
997(17) 0.003421 942.4 10.2
941(16) 0.00357 942.9 10.0
958(16) 0.00356 943.4 9.8
996(16) 0.00361 943.9 9.6
961(16) 0.00358 944.4 9.4
975(17) 0.003376 944.9 9.2
965(17) 0.003447 945.4 9.1
1027(17) 0.003389 945.9 8.9
958(16) 0.00376 946.5 8.8
937(16) 0.00361 947.0 8.6
956(17) 0.003370 947.5 8.5
1002(17) 0.003294 948.0 8.3
958(16) 0.00366 948.5 8.2
983(16) 0.00366 949.0 8.0
948(16) 0.00356 949.5 7.9
982(17) 0.003270 950.0 7.8
1027(17) 0.003265 950.5 7.6
1003(17) 0.00353 951.0 7.5
967(16) 0.00371 951.5 7.4
921(16) 0.00368 952.1 7.3
976(17) 0.003230 952.6 7.2
960(17) 0.00353 953.1 7.1
954(16) 0.00373 953.6 6.9
973(16) 0.00370 954.1 6.8
1009(17) 0.003325 954.6 6.7
987(17) 0.003182 955.1 6.6
973(17) 0.003470 955.6 6.5
965(16) 0.00371 956.1 6.5
986(16) 0.00364 956.6 6.4
953(17) 0.003481 957.1 6.3
964(17) 0.003215 957.7 6.2
949(17) 0.00354 958.2 6.1
962(16) 0.00372 958.7 6.0
959(16) 0.00368 959.2 6.0
986(17) 0.003371 959.7 5.9
968(17) 0.003334 960.2 5.8
1020(17) 0.003361 960.7 5.7
1003(16) 0.00359 961.2 5.7
942(16) 0.00376 961.7 5.6
1000(17) 0.003375 962.2 5.5
985(17) 0.003256 962.7 5.5
968(17) 0.003454 963.3 5.4
1001(16) 0.00359 963.8 5.3
1009(17) 0.003458 964.3 5.3
1017(17) 0.003236 964.8 5.2
962(17) 0.003340 965.3 5.2
949(17) 0.003480 965.8 5.1
1001(16) 0.00356 966.3 5.1
992(17) 0.00352 966.8 5.0
975(17) 0.003485 967.3 5.0
991(17) 0.003290 967.8 4.9
1007(17) 0.003392 968.3 4.9
1013(16) 0.00356 968.9 4.8
963(17) 0.00353 969.4 4.8
936(17) 0.00355 969.9 4.7
992(17) 0.003307 970.4 4.7
999(17) 0.003381 970.9 4.7
981(16) 0.00365 971.4 4.6
936(17) 0.003492 971.9 4.6
983(17) 0.003294 972.4 4.5
1013(17) 0.003334 972.9 4.5
982(16) 0.00356 973.4 4.5
986(16) 0.00365 973.9 4.4
1013(17) 0.003255 974.4 4.4
1001(17) 0.003194 975.0 4.4
991(17) 0.003397 975.5 4.3
1009(17) 0.003495 976.0 4.3
1030(17) 0.00352 976.5 4.3
976(17) 0.003444 977.0 4.3
948(17) 0.003451 977.5 4.2
1012(17) 0.003384 978.0 4.2
989(16) 0.00361 978.5 4.2
973(16) 0.00366 979.0 4.2
990(17) 0.003411 979.5 4.2
1005(18) 0.003103 980.0 4.1
991(17) 0.003405 980.6 4.1
976(16) 0.00367 981.1 4.1
983(16) 0.00363 981.6 4.1
1019(17) 0.003372 982.1 4.1
982(17) 0.003236 982.6 4.1
976(17) 0.003481 983.1 4.1
1001(16) 0.00361 983.6 4.1
1004(17) 0.00354 984.1 4.1
1023(17) 0.003302 984.6 4.1
977(17) 0.003230 985.1 4.1
1037(18) 0.003148 985.6 4.1
977(16) 0.00368 986.2 4.1
1014(17) 0.00352 986.7 4.1
1028(17) 0.003239 987.2 4.1
1005(17) 0.003243 987.7 4.1
1007(17) 0.003307 988.2 4.1
1013(17) 0.00353 988.7 4.1
1009(17) 0.003494 989.2 4.2
996(17) 0.003334 989.7 4.2
967(17) 0.003272 990.2 4.2
962(17) 0.003507 990.7 4.2
1039(17) 0.003438 991.2 4.3
997(17) 0.003490 991.8 4.3
962(17) 0.003503 992.3 4.3
990(17) 0.003357 992.8 4.3
996(17) 0.003421 993.3 4.4
978(16) 0.00370 993.8 4.4
1027(17) 0.003277 994.3 4.4
1037(18) 0.003169 994.8 4.5
989(17) 0.003366 995.3 4.5
965(16) 0.00357 995.8 4.5
962(16) 0.00375 996.3 4.6
993(17) 0.003348 996.8 4.6
1007(17) 0.003298 997.4 4.6
1013(17) 0.003321 997.9 4.6
987(16) 0.00356 998.4 4.6
965(16) 0.00369 998.7 4.6
994(17) 0.003395 998.7 4.6
996(17) 0.003274 998.8 4.6
988(17) 0.003416 998.8 4.6
999(16) 0.00357 998.9 4.6
1027(17) 0.003503 998.9 4.5
1009(17) 0.003353 999.0 4.5
979(17) 0.003350 999.0 4.5
1004(17) 0.003398 999.1 4.4
999(17) 0.00352 999.2 4.4
1009(17) 0.00354 999.2 4.3
1019(17) 0.003221 999.3 4.3
1020(18) 0.003075 999.3 4.2
970(17) 0.00355 999.4 4.2
998(16) 0.00363 999.4 4.1
962(16) 0.00371 999.5 4.1
953(16) 0.00357 999.5 4.1
1029(18) 0.003031 999.6 4.0
1023(17) 0.003344 999.7 4.0
1042(17) 0.003474 999.7 3.9
997(16) 0.00358 999.8 3.9
978(17) 0.003497 999.8 3.8
1014(18) 0.003144 999.9 3.8
1023(17) 0.003352 999.9 3.8
1011(16) 0.00358 1000.0 3.7
978(16) 0.00366 1000.0 3.7
1020(17) 0.003248 1000.1 3.7
996(18) 0.003165 1000.2 3.7
992(17) 0.003349 1000.2 3.6
1032(17) 0.003507 1000.3 3.6
1024(17) 0.003426 1000.3 3.6
1025(17) 0.003247 1000.4 3.6
1010(17) 0.003213 1000.4 3.6
1015(17) 0.003289 1000.5 3.6
1054(17) 0.003429 1000.5 3.5
1019(17) 0.003420 1000.6 3.5
1029(17) 0.003305 1000.7 3.5
1004(17) 0.003289 1000.7 3.5
983(17) 0.003488 1000.8 3.5
973(16) 0.00370 1000.8 3.5
988(17) 0.003455 1000.9 3.5
1022(17) 0.003196 1000.9 3.5
1002(17) 0.003338 1001.0 3.5
1016(17) 0.003400 1001.0 3.5
993(16) 0.00364 1001.1 3.6
957(16) 0.00356 1001.2 3.6
964(17) 0.003495 1001.2 3.6
1016(17) 0.003232 1001.3 3.6
1033(17) 0.003245 1001.3 3.6
1021(17) 0.00354 1001.4 3.6
1023(17) 0.003264 1001.4 3.7
1023(18) 0.003138 1001.5 3.7
1024(17) 0.003261 1001.5 3.7
1020(17) 0.003370 1001.6 3.7
1000(16) 0.00361 1001.7 3.8
980(17) 0.003466 1001.7 3.8
993(17) 0.003175 1001.8 3.8
1029(17) 0.003301 1001.8 3.9
1025(17) 0.003435 1001.9 3.9
1007(16) 0.00357 1001.9 3.9
985(17) 0.003422 1002.0 4.0
994(17) 0.003193 1002.0 4.0
1022(17) 0.003318 1002.1 4.1
991(16) 0.00360 1002.2 4.1
1044(17) 0.003470 1002.2 4.2
1030(17) 0.003331 1002.3 4.2
1027(18) 0.003038 1002.3 4.3
987(17) 0.003413 1002.4 4.4
992(16) 0.00365 1002.4 4.4
1054(17) 0.003379 1002.5 4.5
1054(17) 0.003201 1002.5 4.6
1057(18) 0.002995 1002.6 4.7
1034(17) 0.003278 1002.7 4.7
1019(17) 0.003492 1002.7 4.8
1035(17) 0.003427 1002.8 4.9
997(17) 0.003376 1002.8 5.0
1020(18) 0.003149 1002.9 5.1
1012(17) 0.003368 1002.9 5.2
1050(17) 0.003452 1003.0 5.4
1046(17) 0.003401 1003.0 5.5
1034(17) 0.003201 1003.1 5.6
1003(17) 0.003192 1003.2 5.7
991(17) 0.003339 1003.2 5.9
1049(17) 0.003425 1003.3 6.1
1044(17) 0.003273 1003.3 6.2
966(17) 0.003464 1003.4 6.4
1010(17) 0.003241 1003.4 6.6
1066(17) 0.003176 1003.5 6.8
1004(16) 0.00356 1003.6 7.0
1015(17) 0.003402 1003.6 7.3
1027(17) 0.003279 1003.7 7.5
1005(17) 0.003438 1003.7 7.8
1022(17) 0.003415 1003.8 8.1
1018(17) 0.00353 1003.8 8.4
1000(17) 0.003433 1003.9 8.8
1020(17) 0.003254 1003.9 9.2
1036(17) 0.003244 1004.0 9.6
1037(17) 0.003321 1004.1 10.0
1033(17) 0.003503 1004.1 10.5
1040(17) 0.003297 1004.2 11.0
1013(17) 0.003254 1004.2 11.6
1062(17) 0.003192 1004.3 12.2
1019(17) 0.003468 1004.3 12.9
1019(17) 0.00352 1004.4 13.6
1055(18) 0.003141 1004.4 14.4
1026(18) 0.003149 1004.5 15.2
1054(17) 0.003191 1004.6 16.2
1051(17) 0.003361 1004.6 17.2
1043(17) 0.003436 1004.7 18.2
1053(17) 0.003230 1004.7 19.4
1059(18) 0.002994 1004.8 20.6
1034(17) 0.003261 1004.8 21.9
1060(17) 0.003348 1004.9 23.3
1021(17) 0.00353 1004.9 24.8
1041(17) 0.003260 1005.0 26.4
1078(18) 0.002895 1005.1 28.1
1020(17) 0.003329 1005.1 29.9
1065(17) 0.003337 1005.2 31.7
1091(17) 0.003306 1005.2 33.6
1060(17) 0.003207 1005.3 35.6
1038(18) 0.003094 1005.3 37.6
1067(17) 0.003217 1005.4 39.6
1013(16) 0.00356 1005.4 41.6
1058(17) 0.003360 1005.5 43.5
1013(17) 0.003359 1005.6 45.3
1015(18) 0.003138 1005.6 47.0
1020(17) 0.003276 1005.7 48.5
1069(17) 0.003363 1005.7 49.7
1069(17) 0.003336 1005.8 50.6
1058(17) 0.003197 1005.8 51.3
1027(17) 0.003184 1005.9 51.6
1064(18) 0.003163 1005.9 51.5
1008(16) 0.00357 1006.0 51.0
1039(17) 0.003415 1006.1 50.3
1059(17) 0.003177 1006.1 49.2
1037(18) 0.003129 1006.2 47.8
1050(18) 0.003159 1006.2 46.2
1088(17) 0.003321 1006.3 44.5
985(17) 0.00352 1006.3 42.6
1049(17) 0.003194 1006.4 40.6
1045(17) 0.003201 1006.4 38.6
1041(17) 0.003254 1006.5 36.6
1035(17) 0.003489 1006.6 34.6
1024(17) 0.003275 1006.6 32.7
1041(18) 0.003134 1006.7 30.8
1014(17) 0.003328 1006.7 29.0
1071(17) 0.003199 1006.8 27.2
1040(17) 0.003473 1006.8 25.6
1035(17) 0.003212 1006.9 24.0
1027(17) 0.003175 1006.9 22.5
1033(17) 0.003290 1007.0 21.2
1007(17) 0.003505 1007.1 19.9
999(16) 0.00361 1007.1 18.7
1042(17) 0.003200 1007.2 17.5
1002(17) 0.003221 1007.2 16.5
1001(17) 0.003389 1007.3 15.5
1025(17) 0.003451 1007.3 14.6
1030(17) 0.00351 1007.4 13.8
1011(17) 0.003379 1007.4 13.0
1047(18) 0.003058 1007.5 12.3
1063(17) 0.003197 1007.6 11.6
1047(17) 0.003390 1007.6 11.0
997(16) 0.00361 1007.7 10.5
1036(17) 0.003265 1007.7 10.0
1004(17) 0.003235 1007.8 9.5
1038(17) 0.003258 1007.8 9.0
1058(17) 0.003357 1007.9 8.6
1026(17) 0.003470 1007.9 8.2
1027(17) 0.003279 1008.0 7.9
999(18) 0.003157 1008.1 7.6
1016(17) 0.003321 1008.1 7.3
1028(17) 0.003478 1008.2 7.0
1044(17) 0.003432 1008.2 6.7
996(17) 0.003424 1008.3 6.5
1056(18) 0.003019 1008.3 6.3
1046(17) 0.003264 1008.4 6.0
1026(17) 0.003507 1008.4 5.8
991(16) 0.00356 1008.5 5.7
995(17) 0.003387 1008.6 5.5
1052(18) 0.003042 1008.6 5.3
1078(18) 0.003113 1008.7 5.2
1045(17) 0.003438 1008.7 5.0
1009(17) 0.00351 1008.8 4.9
994(17) 0.003443 1008.8 4.7
1067(18) 0.002999 1008.9 4.6
1019(17) 0.003321 1008.9 4.5
1029(17) 0.00351 1009.0 4.4
1042(17) 0.003311 1009.1 4.3
1037(17) 0.003252 1009.1 4.1
1042(18) 0.003137 1009.2 4.0
1009(17) 0.003385 1009.2 4.0
1014(17) 0.00354 1009.3 3.9
1053(17) 0.003279 1009.3 3.8
1007(17) 0.003294 1009.4 3.7
1007(17) 0.003312 1009.4 3.6
1078(18) 0.003170 1009.5 3.5
1018(17) 0.00354 1009.6 3.5
1022(17) 0.003277 1009.6 3.4
1019(18) 0.003165 1009.7 3.3
994(17) 0.003386 1009.7 3.3
1044(17) 0.003313 1009.8 3.2
1014(17) 0.00354 1009.8 3.1
993(17) 0.003382 1009.9 3.1
975(17) 0.003370 1009.9 3.0
1019(17) 0.003251 1010.0 3.0
1033(17) 0.003394 1010.1 2.9
1079(17) 0.003352 1010.1 2.9
1031(18) 0.003150 1010.2 2.8
963(17) 0.003345 1010.2 2.8
1020(17) 0.003288 1010.3 2.7
990(16) 0.00363 1010.3 2.7
1033(17) 0.003482 1010.4 2.6
1045(17) 0.003223 1010.4 2.6
1048(18) 0.002972 1010.5 2.6
1036(17) 0.003232 1010.6 2.5
1030(17) 0.003446 1010.6 2.5
1008(16) 0.00358 1010.7 2.4
1030(17) 0.003259 1010.7 2.4
1014(18) 0.003081 1010.8 2.4
985(17) 0.003447 1010.8 2.3
1010(16) 0.00357 1010.9 2.3
982(16) 0.00367 1010.9 2.3
979(17) 0.00351 1011.0 2.3
1056(18) 0.002979 1011.1 2.2
1077(18) 0.003150 1011.1 2.2
1063(17) 0.003384 1011.2 2.2
1015(17) 0.003497 1011.2 2.1
1030(17) 0.003248 1011.3 2.1
1027(18) 0.003148 1011.3 2.1
1013(17) 0.003329 1011.4 2.1
1031(17) 0.00352 1011.4 2.0
995(17) 0.003470 1011.5 2.0
998(17) 0.003333 1011.6 2.0
1026(18) 0.003169 1011.6 2.0
1020(17) 0.003228 1011.7 2.0
994(16) 0.00361 1011.7 1.9
1061(17) 0.003251 1011.8 1.9
1063(18) 0.003078 1011.8 1.9
1029(17) 0.003173 1011.9 1.9
1031(17) 0.003309 1011.9 1.9
1042(17) 0.003449 1012.0 1.8
1011(17) 0.003388 1012.1 1.8
1023(17) 0.003209 1012.1 1.8
992(17) 0.003417 1012.2 1.8
1025(17) 0.003373 1012.2 1.8
1014(17) 0.00355 1012.3 1.8
1109(18) 0.003054 1012.3 1.7
1032(17) 0.003197 1012.4 1.7
982(17) 0.003415 1012.4 1.7
994(17) 0.00352 1012.5 1.7
1012(17) 0.00354 1012.6 1.7
1052(17) 0.003179 1012.6 1.7
965(17) 0.003348 1012.4 1.7
1006(17) 0.003289 1011.9 1.6
1019(17) 0.003459 1011.5 1.6
999(16) 0.00361 1011.0 1.6
1098(18) 0.003029 1010.5 1.6
1054(18) 0.003112 1010.0 1.6
1076(18) 0.003119 1009.6 1.6
1039(17) 0.003384 1009.1 1.6
992(16) 0.00365 1008.6 1.6
1004(17) 0.003420 1008.1 1.5
994(17) 0.003214 1007.7 1.5
997(17) 0.003388 1007.2 1.5
1004(17) 0.00355 1006.7 1.5
1000(16) 0.00359 1006.2 1.5
952(17) 0.00351 1005.8 1.5
974(17) 0.003236 1005.3 1.5
962(16) 0.00358 1004.8 1.5
1024(17) 0.00352 1004.3 1.5
1024(17) 0.003458 1003.9 1.5
993(17) 0.003462 1003.4 1.4
1058(18) 0.003021 1002.9 1.4
1041(17) 0.003276 1002.5 1.4
1018(16) 0.00356 1002.0 1.4
1018(17) 0.003464 1001.5 1.4
992(17) 0.003422 1001.0 1.4
996(17) 0.003234 1000.6 1.4
995(17) 0.003332 1000.1 1.4
976(16) 0.00369 999.6 1.4
1001(17) 0.00354 999.1 1.4
1036(17) 0.003275 998.7 1.4
1002(17) 0.003215 998.2 1.4
1020(17) 0.003328 997.7 1.3
991(16) 0.00361 997.2 1.3
1030(17) 0.003361 996.8 1.3
1011(17) 0.003306 996.3 1.3
979(17) 0.003418 995.8 1.3
1070(18) 0.003162 995.3 1.3
1005(16) 0.00359 994.9 1.3
1009(17) 0.003415 994.4 1.3
1006(17) 0.003309 993.9 1.3
967(17) 0.003488 993.4 1.3
974(17) 0.003468 993.0 1.3
986(16) 0.00364 992.5 1.3
973(16) 0.00357 992.0 1.3
1016(17) 0.003232 991.6 1.3
1033(17) 0.003207 991.1 1.3
986(16) 0.00357 990.6 1.3
997(16) 0.00360 990.1 1.2
1050(18) 0.003110 989.7 1.2
1020(17) 0.003237 989.2 1.2
1009(17) 0.003323 988.7 1.2
998(17) 0.003496 988.2 1.2
1006(16) 0.00356 987.8 1.2
984(17) 0.003433 987.3 1.2
1005(17) 0.003187 986.8 1.2
995(17) 0.003346 986.3 1.2
999(17) 0.00354 985.9 1.2
1011(17) 0.00353 985.4 1.2
994(17) 0.003424 984.9 1.2
1016(17) 0.003198 984.4 1.2
1003(17) 0.003294 984.0 1.2
991(17) 0.00354 983.5 1.2
1047(17) 0.003412 983.0 1.2
1015(17) 0.003322 982.5 1.2
956(17) 0.003309 982.1 1.2
955(16) 0.00358 981.6 1.2
1014(17) 0.00351 981.1 1.2
989(16) 0.00358 980.7 1.2
989(17) 0.003458 980.2 1.2
982(17) 0.003228 979.7 1.2
1015(17) 0.003302 979.2 1.1
946(16) 0.00372 978.8 1.1
988(16) 0.00356 978.3 1.1
1008(17) 0.003313 977.8 1.1
1023(18) 0.003074 977.3 1.1
1020(17) 0.003320 976.9 1.1
982(16) 0.00359 976.4 1.1
993(17) 0.00354 975.9 1.1
977(17) 0.003450 975.4 1.1
994(17) 0.003227 975.0 1.1
953(17) 0.003506 974.5 1.1
984(16) 0.00360 974.0 1.1
998(17) 0.003501 973.5 1.1
995(17) 0.003359 973.1 1.1
992(17) 0.003329 972.6 1.1
989(17) 0.003337 972.1 1.1
1000(16) 0.00357 971.6 1.1
964(17) 0.00355 971.2 1.1
964(17) 0.003412 970.7 1.1
967(17) 0.003439 970.2 1.1
978(17) 0.003395 969.8 1.1
988(16) 0.00362 969.3 1.1
993(17) 0.003424 968.8 1.1
1006(17) 0.003308 968.3 1.1
1007(17) 0.003286 967.9 1.1
984(17) 0.00354 967.4 1.1
997(16) 0.00360 966.9 1.1
988(17) 0.003376 966.4 1.1
986(17) 0.003293 966.0 1.1
988(17) 0.003324 965.5 1.1
988(16) 0.00359 965.0 1.1
999(17) 0.00355 964.5 1.1
965(17) 0.003426 964.1 1.1
987(17) 0.003252 963.6 1.1
995(17) 0.003373 963.1 1.1
1003(17) 0.003499 962.6 1.0
933(16) 0.00385 962.2 1.0
921(16) 0.00369 961.7 1.0
972(17) 0.003246 961.2 1.0
931(16) 0.00373 960.7 1.0
991(16) 0.00357 960.3 1.0
996(16) 0.00364 959.8 1.1
978(17) 0.003408 959.3 1.1
985(17) 0.003256 958.9 1.1
965(17) 0.00353 958.4 1.1
951(16) 0.00375 957.9 1.1
957(16) 0.00375 957.4 1.1
981(17) 0.003394 957.0 1.1
965(17) 0.003267 956.5 1.1
985(17) 0.00351 956.0 1.1
964(16) 0.00373 955.5 1.1
960(16) 0.00368 955.1 1.1
953(17) 0.003495 954.6 1.1
967(17) 0.003228 954.1 1.1
928(16) 0.00363 953.6 1.1
940(16) 0.00380 953.2 1.1
969(16) 0.00366 952.7 1.1
951(16) 0.00358 952.2 1.1
944(17) 0.003473 951.7 1.1
984(17) 0.003471 951.3 1.1
974(16) 0.00370 950.8 1.1
938(16) 0.00370 950.3 1.1
959(17) 0.00351 949.8 1.1
944(17) 0.003497 949.4 1.1
926(17) 0.003499 948.9 1.1
921(16) 0.00390 948.4 1.1
932(16) 0.00375 948.0 1.1
964(17) 0.003459 947.5 1.1
940(16) 0.00358 947.0 1.1
965(17) 0.00353 946.5 1.1
997(16) 0.00364 946.1 1.1
965(16) 0.00356 945.6 1.1
937(17) 0.00351 945.1 1.1
922(16) 0.00361 944.6 1.1
937(16) 0.00370 944.2 1.1
928(16) 0.00391 943.7 1.1
949(17) 0.003465 943.2 1.1
978(17) 0.003332 942.7 1.1
939(17) 0.00351 942.3 1.1
917(16) 0.00381 941.8 1.1
1033(17) 0.003488 941.3 1.1
962(17) 0.003474 940.8 1.1
990(17) 0.003229 940.4 1.1
952(16) 0.00356 939.9 1.1
990(16) 0.00357 939.4 1.1
981(16) 0.00369 938.9 1.1
951(16) 0.00357 938.5 1.1
948(17) 0.003425 938.0 1.1
942(16) 0.00362 937.5 1.1
928(16) 0.00386 937.1 1.1
981(16) 0.00366 936.6 1.1
966(17) 0.00355 936.1 1.1
963(17) 0.003314 935.6 1.1
922(16) 0.00368 935.2 1.1
991(16) 0.00359 934.7 1.1
996(16) 0.00362 934.2 1.1
958(17) 0.003493 933.7 1.1
927(17) 0.003394 933.3 1.1
982(17) 0.003429 932.8 1.1
938(16) 0.00383 932.3 1.1
954(16) 0.00372 931.8 1.1
922(16) 0.00361 931.4 1.1
976(17) 0.003237 930.9 1.1
962(17) 0.00351 930.4 1.1
920(16) 0.00392 929.9 1.1
950(16) 0.00369 929.5 1.1
932(16) 0.00356 929.0 1.1
943(17) 0.003357 928.5 1.1
917(16) 0.00364 928.0 1.1
940(16) 0.00379 927.6 1.2
920(16) 0.00387 927.1 1.2
993(17) 0.003331 926.6 1.2
953(17) 0.003472 926.2 1.2
965(17) 0.003470 925.7 1.2
926(16) 0.00386 925.2 1.2
954(16) 0.00365 924.7 1.2
931(16) 0.00359 924.3 1.2
960(17) 0.003339 923.8 1.2
941(16) 0.00361 923.3 1.2
940(16) 0.00381 922.8 1.2
917(16) 0.00383 922.4 1.2
926(17) 0.00354 921.9 1.2
952(17) 0.003485 921.4 1.2
935(16) 0.00368 920.9 1.2
984(16) 0.00369 920.5 1.2
916(16) 0.00364 920.0 1.2
895(16) 0.00364 919.5 1.2
948(17) 0.00352 919.0 1.2
944(16) 0.00376 918.6 1.2
934(16) 0.00384 918.1 1.2
973(17) 0.003417 917.6 1.2
902(16) 0.00364 917.1 1.2
916(16) 0.00363 916.7 1.2
923(16) 0.00387 916.2 1.2
963(16) 0.00372 915.7 1.2
943(16) 0.00357 915.3 1.2
937(17) 0.003452 914.8 1.2
938(17) 0.00355 914.3 1.2
911(16) 0.00389 913.8 1.2
937(16) 0.00381 913.4 1.2
985(17) 0.003361 912.9 1.2
935(17) 0.003427 912.4 1.2
902(16) 0.00375 911.9 1.2
910(16) 0.00393 911.5 1.2
910(16) 0.00393 911.0 1.2
927(16) 0.00364 910.5 1.2
932(17) 0.003362 910.0 1.2
924(16) 0.00362 909.6 1.2
912(16) 0.00393 909.1 1.2
911(16) 0.00391 908.6 1.3
907(16) 0.00373 908.1 1.3
930(17) 0.003353 907.7 1.3
910(16) 0.00373 907.2 1.3
955(16) 0.00376 906.7 1.3
941(16) 0.00378 906.2 1.3
915(16) 0.00371 905.8 1.3
930(17) 0.003428 905.3 1.3
907(16) 0.00369 904.8 1.3
918(16) 0.00391 904.4 1.3
911(16) 0.00387 903.9 1.3
901(16) 0.00372 903.4 1.3
908(17) 0.00351 902.9 1.3
953(17) 0.00351 902.5 1.3
935(16) 0.00383 902.0 1.3
907(16) 0.00385 901.5 1.3
923(16) 0.00366 901.0 1.3
933(17) 0.003493 900.6 1.3
921(16) 0.00369 900.1 1.3
888(15) 0.00404 899.6 1.3
910(16) 0.00374 899.1 1.3
924(16) 0.00363 898.7 1.4
907(16) 0.00369 898.2 1.4
895(16) 0.00381 897.7 1.4
914(16) 0.00393 897.2 1.4
865(16) 0.00397 896.8 1.4
878(16) 0.00377 896.3 1.4
883(16) 0.00374 895.8 1.4
871(16) 0.00400 895.4 1.4
904(16) 0.00400 894.9 1.4
906(16) 0.00368 894.4 1.4
876(16) 0.00375 893.9 1.4
903(16) 0.00373 893.5 1.4
887(16) 0.00391 893.0 1.4
918(16) 0.00392 892.5 1.4
908(16) 0.00370 892.0 1.4
909(17) 0.00353 891.6 1.5
906(16) 0.00373 891.1 1.5
906(16) 0.00389 890.6 1.5
893(15) 0.00401 890.1 1.5
898(16) 0.00370 889.7 1.5
911(17) 0.00355 889.2 1.5
916(16) 0.00367 888.7 1.5
915(16) 0.00386 888.2 1.5
851(15) 0.00423 887.8 1.5
879(16) 0.00382 887.3 1.5
908(17) 0.003382 886.8 1.5
881(16) 0.00380 886.3 1.6
924(16) 0.00386 885.9 1.6
920(16) 0.00390 885.4 1.6
889(16) 0.00386 884.9 1.6
901(17) 0.003438 884.5 1.6
865(16) 0.00388 884.0 1.6
865(15) 0.00410 883.5 1.6
918(16) 0.00383 883.0 1.6
899(16) 0.00380 882.6 1.6
883(16) 0.00365 882.1 1.7
875(16) 0.00385 881.6 1.7
879(15) 0.00412 881.1 1.7
897(16) 0.00392 880.7 1.7
903(16) 0.00373 880.2 1.7
927(17) 0.003474 879.7 1.7
901(16) 0.00365 879.2 1.7
890(15) 0.00404 878.8 1.8
899(16) 0.00387 878.3 1.8
871(16) 0.00388 877.8 1.8
905(17) 0.00354 877.3 1.8
868(16) 0.00383 876.9 1.8
888(15) 0.00403 876.4 1.9
837(15) 0.00414 875.9 1.9
873(16) 0.00378 875.4 1.9
867(16) 0.00377 875.0 1.9
861(16) 0.00392 874.5 1.9
915(16) 0.00392 874.0 2.0
882(16) 0.00393 873.6 2.0
911(16) 0.00371 873.1 2.0
918(16) 0.00364 872.6 2.0
882(16) 0.00388 872.1 2.1
931(16) 0.00388 871.7 2.1
864(16) 0.00399 871.2 2.1
825(15) 0.00403 870.7 2.1
866(16) 0.00381 870.2 2.2
861(15) 0.00402 869.8 2.2
905(16) 0.00396 869.3 2.2
847(16) 0.00393 868.8 2.3
831(16) 0.00401 868.3 2.3
912(16) 0.00366 867.9 2.3
896(16) 0.00393 867.4 2.4
861(15) 0.00415 866.9 2.4
874(16) 0.00380 866.4 2.5
850(16) 0.00371 866.0 2.5
893(16) 0.00375 865.5 2.6
884(16) 0.00399 865.0 2.6
861(15) 0.00415 864.5 2.7
841(15) 0.00405 864.1 2.7
853(16) 0.00374 863.6 2.8
878(16) 0.00382 863.1 2.9
865(15) 0.00413 862.6 2.9
807(15) 0.00430 862.1 3.0
874(16) 0.00380 861.6 3.1
900(17) 0.003412 861.1 3.2
874(16) 0.00379 860.6 3.2
855(15) 0.00418 860.1 3.3
814(15) 0.00435 859.6 3.4
888(16) 0.00381 859.1 3.5
856(16) 0.00370 858.6 3.7
869(16) 0.00385 858.1 3.8
877(15) 0.00411 857.6 3.9
878(16) 0.00399 857.1 4.0
885(16) 0.00377 856.5 4.2
868(16) 0.00364 856.0 4.3
795(15) 0.00429 855.5 4.5
864(15) 0.00412 855.0 4.7
841(15) 0.00417 854.5 4.8
848(16) 0.00392 854.0 5.0
805(15) 0.00408 853.5 5.2
830(15) 0.00404 853.0 5.4
874(15) 0.00412 852.5 5.7
841(15) 0.00412 852.0 5.9
853(16) 0.00395 851.5 6.1
867(16) 0.00373 851.0 6.4
842(15) 0.00408 850.4 6.6
879(15) 0.00407 849.9 6.9
821(15) 0.00418 849.4 7.1
842(16) 0.00387 848.9 7.4
816(15) 0.00408 848.4 7.7
852(16) 0.00397 847.9 7.9
852(15) 0.00420 847.4 8.2
863(16) 0.00390 846.9 8.4
840(16) 0.00390 846.4 8.6
839(16) 0.00399 845.9 8.9
891(16) 0.00389 845.4 9.0
876(15) 0.00411 844.9 9.2
863(16) 0.00382 844.4 9.3
872(16) 0.00360 843.8 9.4
841(16) 0.00393 843.3 9.5
876(16) 0.00400 842.8 9.5
857(15) 0.00418 842.3 9.5
906(16) 0.00368 841.8 9.4
847(16) 0.00377 841.3 9.4
858(16) 0.00394 840.8 9.2
833(15) 0.00421 840.3 9.1
827(15) 0.00433 839.8 8.9
871(16) 0.00386 839.3 8.7
879(16) 0.00367 838.8 8.5
837(15) 0.00418 838.3 8.3
835(15) 0.00423 837.7 8.1
821(15) 0.00437 837.2 7.9
824(15) 0.00406 836.7 7.7
866(16) 0.00357 836.2 7.4
826(15) 0.00410 835.7 7.2
828(15) 0.00430 835.2 7.0
803(15) 0.00442 834.7 6.8
831(16) 0.00396 834.2 6.6
832(16) 0.00374 833.7 6.4
846(15) 0.00402 833.2 6.2
857(15) 0.00415 832.7 6.0
855(15) 0.00418 832.2 5.9
858(16) 0.00393 831.6 5.7
855(16) 0.00369 831.1 5.6
811(15) 0.00420 830.6 5.5
829(15) 0.00433 830.1 5.3
819(15) 0.00435 829.6 5.2
838(16) 0.00397 829.1 5.1
816(16) 0.00397 828.6 5.0
810(15) 0.00416 828.1 4.9
796(15) 0.00448 827.6 4.9
823(15) 0.00419 827.1 4.8
814(15) 0.00410 826.6 4.7
815(15) 0.00403 826.1 4.7
805(15) 0.00419 825.5 4.6
843(15) 0.00426 825.0 4.6
845(15) 0.00402 824.5 4.5
830(15) 0.00404 824.0 4.5
825(15) 0.00408 823.5 4.5
848(16) 0.00399 823.0 4.5
906(16) 0.00393 822.5 4.5
826(15) 0.00409 822.0 4.4
799(15) 0.00411 821.5 4.4
831(16) 0.00396 821.0 4.4
863(15) 0.00403 820.5 4.4
841(15) 0.00424 820.0 4.5
776(15) 0.00435 819.4 4.5
820(16) 0.00390 818.9 4.5
826(16) 0.00400 818.4 4.5
842(15) 0.00412 817.9 4.5
827(15) 0.00432 817.4 4.6
820(16) 0.00399 816.9 4.6
839(16) 0.00375 816.4 4.6
826(15) 0.00405 815.9 4.7
833(15) 0.00426 815.4 4.7
853(15) 0.00420 814.9 4.8
827(15) 0.00411 814.4 4.8
844(16) 0.00368 813.9 4.9
793(15) 0.00430 813.4 4.9
791(15) 0.00446 812.8 5.0
812(15) 0.00446 812.3 5.1
804(15) 0.00413 811.8 5.1
794(16) 0.00397 811.3 5.2
812(15) 0.00416 810.8 5.3
802(15) 0.00444 810.3 5.4
809(15) 0.00442 809.8 5.5
805(15) 0.00426 809.3 5.6
842(16) 0.00375 808.8 5.7
780(15) 0.00436 808.3 5.8
799(15) 0.00452 807.8 5.9
825(15) 0.00419 807.3 6.0
809(15) 0.00410 806.7 6.1
753(15) 0.00434 806.2 6.2
787(15) 0.00420 805.7 6.4
804(15) 0.00446 805.2 6.5
859(15) 0.00410 804.7 6.7
805(15) 0.00412 804.2 6.8
795(15) 0.00405 803.7 7.0
779(15) 0.00429 803.2 7.2
764(14) 0.00468 802.7 7.4
812(15) 0.00416 802.2 7.6
806(15) 0.00415 801.7 7.8
831(16) 0.00395 801.2 8.0
802(15) 0.00416 800.6 8.2
795(15) 0.00453 800.1 8.5
800(15) 0.00431 799.6 8.8
814(15) 0.00404 799.1 9.0
804(15) 0.00410 798.6 9.3
777(15) 0.00435 798.1 9.7
825(15) 0.00434 797.6 10.0
805(15) 0.00424 797.1 10.4
778(15) 0.00422 796.6 10.8
818(15) 0.00408 796.1 11.2
855(15) 0.00403 795.6 11.7
808(15) 0.00442 795.1 12.2
844(16) 0.00401 794.5 12.7
828(16) 0.00396 794.0 13.3
820(15) 0.00404 793.5 13.9
788(15) 0.00435 793.0 14.5
794(15) 0.00451 792.5 15.3
783(15) 0.00419 792.0 16.1
817(16) 0.00385 791.5 16.9
777(15) 0.00429 791.0 17.9
798(15) 0.00434 790.5 18.9
783(15) 0.00455 790.0 20.1
821(15) 0.00406 789.5 21.3
820(16) 0.00382 789.0 22.7
847(16) 0.00387 788.4 24.3
824(15) 0.00433 787.9 26.0
826(15) 0.00433 787.4 28.0
797(15) 0.00417 786.9 30.2
828(16) 0.00372 786.4 32.6
796(15) 0.00431 785.9 35.5
804(15) 0.00447 785.4 38.8
815(15) 0.00435 784.9 42.6
870(16) 0.00375 784.4 47.2
832(16) 0.00380 783.9 52.9
862(16) 0.00387 783.4 60.0
878(15) 0.00403 782.9 69.1
927(16) 0.00384 782.4 81.1
881(16) 0.00381 781.8 97.2
881(16) 0.00365 781.3 118.7
933(16) 0.00359 780.8 147.3
929(16) 0.00386 780.3 184.7
1032(17) 0.003427 779.8 232.7
1032(17) 0.003334 779.3 292.2
1098(18) 0.002969 778.8 363.7
1116(18) 0.003073 778.3 446.1
1258(18) 0.002870 777.8 536.7
1332(19) 0.002643 777.3 629.7
1386(20) 0.002451 776.8 716.3
1521(21) 0.002172 776.3 784.1
1590(22) 0.002120 775.7 820.1
1650(21) 0.002223 775.2 815.7
1633(21) 0.002198 774.7 772.0
1483(21) 0.002289 774.2 699.1
1372(20) 0.002453 773.7 610.2
1285(19) 0.002705 773.2 517.2
1192(18) 0.003017 772.7 428.1
1108(18) 0.003066 772.2 347.9
1063(18) 0.003084 771.7 279.0
976(17) 0.003425 771.2 222.0
936(16) 0.00368 770.7 176.5
951(16) 0.00378 770.2 141.2
923(16) 0.00361 769.6 114.3
853(16) 0.00387 769.1 94.2
878(16) 0.00376 768.6 79.1
878(16) 0.00397 768.1 67.9
837(15) 0.00429 767.6 59.3
875(16) 0.00373 767.1 52.6
812(16) 0.00396 766.6 47.3
814(16) 0.00399 766.1 42.9
867(16) 0.00401 765.6 39.3
752(14) 0.00471 765.1 36.2
760(15) 0.00438 764.6 33.5
795(16) 0.00395 764.1 31.1
753(15) 0.00446 763.5 29.1
767(14) 0.00463 763.0 27.2
803(15) 0.00442 762.5 25.6
784(15) 0.00424 762.0 24.2
777(16) 0.00399 761.5 22.9
769(15) 0.00434 761.0 21.7
778(15) 0.00455 760.5 20.7
804(15) 0.00444 760.0 19.7
770(15) 0.00452 759.5 18.9
755(15) 0.00420 759.0 18.1
764(15) 0.00442 758.5 17.4
791(15) 0.00451 758.0 16.8
782(14) 0.00458 757.5 16.2
771(15) 0.00424 756.9 15.7
734(15) 0.00423 756.4 15.2
757(15) 0.00437 755.9 14.8
779(14) 0.00457 755.4 14.4
791(15) 0.00440 754.9 14.0
796(15) 0.00415 754.4 13.7
752(15) 0.00420 753.9 13.4
782(15) 0.00410 753.4 13.1
763(14) 0.00469 752.9 12.9
757(14) 0.00459 752.4 12.7
770(15) 0.00439 751.9 12.5
746(15) 0.00434 751.4 12.3
756(15) 0.00428 750.8 12.1
736(14) 0.00481 750.3 12.0
751(14) 0.00464 749.8 11.9
739(15) 0.00451 749.3 11.7
747(15) 0.00427 748.8 11.6
742(15) 0.00447 748.3 11.6
778(14) 0.00463 747.8 11.5
764(15) 0.00442 747.3 11.5
748(15) 0.00442 746.8 11.4
769(15) 0.00437 746.3 11.4
775(15) 0.00450 745.8 11.4
741(14) 0.00482 745.3 11.4
761(15) 0.00438 744.7 11.4
783(15) 0.00414 744.2 11.4
788(15) 0.00420 743.7 11.4
736(14) 0.00470 743.2 11.5
713(14) 0.00499 742.7 11.5
738(15) 0.00452 742.2 11.6
740(15) 0.00446 741.7 11.7
747(15) 0.00449 741.2 11.8
760(14) 0.00462 740.7 11.9
819(15) 0.00434 740.2 12.0
731(15) 0.00456 739.7 12.1
722(15) 0.00438 739.2 12.3
741(15) 0.00451 738.6 12.4
726(14) 0.00488 738.1 12.6
769(14) 0.00459 737.6 12.8
802(15) 0.00407 737.1 13.0
733(15) 0.00437 736.6 13.2
761(15) 0.00423 736.2 13.5
702(14) 0.00500 735.7 13.7
687(14) 0.00522 735.3 13.9
717(14) 0.00480 734.8 14.1
786(16) 0.00400 734.4 14.3
758(15) 0.00452 733.9 14.5
733(14) 0.00484 733.5 14.7
702(14) 0.00502 733.1 14.9
703(14) 0.00467 732.6 15.1
724(15) 0.00431 732.2 15.4
746(15) 0.00451 731.7 15.6
759(14) 0.00466 731.3 15.9
721(14) 0.00492 730.8 16.2
714(14) 0.00475 730.4 16.5
719(15) 0.00443 730.0 16.9
742(15) 0.00452 729.5 17.3
748(14) 0.00479 729.1 17.7
722(14) 0.00482 728.6 18.1
761(15) 0.00437 728.2 18.5
734(15) 0.00436 727.7 19.0
712(14) 0.00465 727.3 19.5
723(14) 0.00490 726.9 20.1
703(14) 0.00489 726.4 20.6
754(15) 0.00435 726.0 21.2
751(15) 0.00416 725.5 21.9
701(14) 0.00483 725.1 22.6
744(14) 0.00476 724.6 23.3
733(15) 0.00456 724.2 24.0
728(14) 0.00462 723.8 24.8
754(15) 0.00425 723.3 25.7
713(14) 0.00469 722.9 26.5
751(14) 0.00476 722.4 27.5
734(14) 0.00469 722.0 28.5
763(15) 0.00429 721.5 29.6
758(15) 0.00431 721.1 30.7
729(14) 0.00471 720.7 31.9
714(14) 0.00500 720.2 33.2
755(15) 0.00436 719.8 34.6
779(15) 0.00415 719.3 36.1
728(15) 0.00449 718.9 37.7
702(14) 0.00492 718.4 39.4
738(14) 0.00485 718.0 41.2
777(15) 0.00426 717.6 43.2
760(15) 0.00426 717.1 45.3
771(15) 0.00442 716.7 47.6
782(15) 0.00451 716.2 50.1
749(14) 0.00476 715.8 52.9
747(15) 0.00445 715.3 55.9
757(15) 0.00411 714.9 59.1
738(14) 0.00460 714.5 62.7
762(14) 0.00459 714.0 66.7
766(14) 0.00463 713.6 71.2
746(15) 0.00453 713.1 76.1
747(15) 0.00422 712.7 81.6
770(15) 0.00440 712.2 87.9
792(15) 0.00447 711.8 94.9
825(15) 0.00431 711.4 102.8
770(15) 0.00443 710.9 111.8
817(16) 0.00388 710.5 122.0
830(15) 0.00411 710.0 133.5
852(15) 0.00420 709.6 146.6
841(15) 0.00425 709.1 161.3
875(16) 0.00387 708.7 177.8
864(16) 0.00366 708.3 196.4
922(16) 0.00359 707.8 217.2
927(16) 0.00388 707.4 240.3
954(16) 0.00370 706.9 265.8
983(17) 0.003440 706.5 293.9
995(17) 0.003294 706.0 324.3
1071(18) 0.003088 705.6 357.2
1132(17) 0.003190 705.2 392.1
1154(18) 0.003073 704.7 428.6
1166(18) 0.002925 704.3 466.2
1211(19) 0.002683 703.8 503.7
1277(19) 0.002692 703.4 539.9
1308(19) 0.002770 702.9 573.2
1361(20) 0.002561 702.5 601.6
1376(20) 0.002431 702.1 623.4
1339(20) 0.002497 701.6 636.8
1355(20) 0.002549 701.2 640.7
1260(18) 0.002888 700.7 634.9
1234(19) 0.002817 700.3 619.8
1227(19) 0.002645 699.8 596.6
1138(18) 0.002978 699.4 567.1
1194(18) 0.002887 699.0 533.2
1145(18) 0.003155 698.5 496.7
1084(18) 0.003024 698.1 459.1
1042(18) 0.003095 697.6 421.8
1006(17) 0.003328 697.2 385.6
1023(17) 0.003453 696.7 351.1
943(16) 0.00378 696.3 318.8
923(16) 0.00359 695.9 288.9
947(17) 0.003444 695.4 261.5
930(16) 0.00361 695.0 236.5
899(16) 0.00393 694.5 214.0
868(15) 0.00414 694.1 193.7
849(16) 0.00400 693.6 175.6
870(16) 0.00360 693.2 159.5
841(16) 0.00396 692.8 145.2
834(15) 0.00423 692.3 132.6
810(15) 0.00443 691.9 121.5
869(16) 0.00380 691.4 111.6
824(16) 0.00383 691.0 103.0
800(15) 0.00421 690.5 95.3
747(14) 0.00475 690.1 88.6
787(15) 0.00454 689.7 82.6
771(15) 0.00436 689.2 77.3
802(16) 0.00385 688.8 72.6
803(15) 0.00419 688.3 68.4
736(14) 0.00483 687.9 64.6
740(14) 0.00469 687.4 61.2
765(15) 0.00441 687.0 58.1
752(15) 0.00424 686.6 55.3
743(15) 0.00450 686.1 52.8
762(14) 0.00470 685.7 50.5
749(14) 0.00462 685.2 48.4
723(15) 0.00453 684.8 46.5
745(15) 0.00434 684.3 44.7
736(15) 0.00455 683.9 43.1
698(14) 0.00512 683.4 41.6
728(14) 0.00477 683.0 40.3
739(15) 0.00452 682.6 39.1
732(15) 0.00427 682.1 37.9
676(14) 0.00481 681.7 36.9
749(14) 0.00476 681.2 36.0
689(14) 0.00502 680.8 35.2
671(14) 0.00481 680.3 34.4
693(14) 0.00458 679.9 33.8
707(14) 0.00466 679.5 33.2
739(14) 0.00481 679.0 32.8
716(14) 0.00476 678.6 32.4
707(15) 0.00454 678.1 32.1
709(14) 0.00459 677.7 31.9
710(14) 0.00479 677.2 31.8
682(14) 0.00520 676.8 31.8
682(14) 0.00476 676.4 31.9
655(14) 0.00502 675.9 32.1
697(14) 0.00462 675.5 32.4
698(14) 0.00491 675.0 32.8
725(14) 0.00490 674.6 33.4
756(15) 0.00421 674.1 34.2
690(14) 0.00471 673.7 35.0
733(15) 0.00450 673.3 36.1
677(14) 0.00514 672.8 37.3
679(13) 0.00524 672.4 38.8
724(15) 0.00450 671.9 40.4
748(15) 0.00413 671.5 42.3
705(14) 0.00473 671.0 44.4
701(14) 0.00484 670.6 46.7
693(14) 0.00513 670.2 49.2
721(14) 0.00461 669.7 52.0
724(15) 0.00435 669.3 55.0
707(14) 0.00468 668.8 58.2
700(14) 0.00506 668.4 61.5
772(14) 0.00459 667.9 65.0
730(14) 0.00464 667.5 68.5
785(16) 0.00383 667.1 72.0
764(15) 0.00439 666.6 75.3
774(14) 0.00459 666.2 78.3
715(14) 0.00495 665.7 80.9
742(14) 0.00459 665.3 82.9
716(15) 0.00435 664.8 84.2
719(14) 0.00470 664.4 84.8
747(14) 0.00466 664.0 84.5
725(14) 0.00485 663.5 83.4
722(14) 0.00466 663.1 81.7
745(15) 0.00418 662.6 79.4
737(15) 0.00453 662.2 76.6
743(14) 0.00476 661.7 73.6
741(14) 0.00473 661.3 70.4
707(14) 0.00468 660.9 67.3
725(15) 0.00438 660.4 64.2
727(15) 0.00455 660.0 61.2
715(14) 0.00491 659.5 58.5
686(14) 0.00508 659.1 56.0
699(14) 0.00470 658.6 53.8
695(14) 0.00467 658.2 51.9
691(14) 0.00471 657.8 50.3
715(14) 0.00495 657.3 49.0
700(14) 0.00495 656.9 48.0
699(14) 0.00475 656.4 47.3
705(15) 0.00455 656.0 46.9
662(14) 0.00517 655.5 46.8
678(13) 0.00524 655.1 47.0
708(14) 0.00467 654.7 47.5
718(15) 0.00446 654.2 48.2
692(14) 0.00483 653.8 49.2
694(14) 0.00500 653.3 50.4
697(14) 0.00511 652.9 51.9
703(14) 0.00473 652.4 53.6
700(14) 0.00467 652.0 55.4
684(14) 0.00484 651.6 57.4
675(14) 0.00510 651.1 59.6
695(14) 0.00511 650.7 61.8
716(14) 0.00461 650.2 64.0
693(14) 0.00457 649.8 66.2
689(14) 0.00479 649.3 68.2
660(14) 0.00518 648.9 70.1
682(13) 0.00523 648.5 71.7
730(15) 0.00451 648.0 72.9
725(15) 0.00432 647.6 73.7
719(14) 0.00466 647.1 74.0
739(14) 0.00482 646.7 73.8
680(13) 0.00524 646.2 73.1
695(14) 0.00471 645.8 71.9
710(15) 0.00434 645.4 70.2
659(14) 0.00516 644.9 68.2
692(14) 0.00509 644.5 65.8
665(13) 0.00531 644.0 63.2
674(14) 0.00506 643.6 60.4
663(14) 0.00476 643.1 57.5
688(14) 0.00472 642.7 54.5
695(14) 0.00507 642.3 51.6
688(14) 0.00517 641.8 48.8
682(14) 0.00498 641.4 46.0
665(14) 0.00480 640.9 43.3
692(14) 0.00480 640.5 40.8
674(14) 0.00523 640.0 38.4
677(14) 0.00520 639.6 36.1
671(14) 0.00508 639.2 34.0
648(14) 0.00504 638.7 32.0
682(14) 0.00475 638.3 30.1
661(13) 0.00535 637.8 28.4
653(14) 0.00514 637.4 26.8
634(13) 0.00525 636.9 25.4
629(14) 0.00517 636.5 24.0
662(14) 0.00486 636.1 22.8
662(13) 0.00540 635.6 21.6
668(14) 0.00499 635.2 20.6
650(14) 0.00488 634.7 19.6
673(14) 0.00481 634.3 18.7
655(14) 0.00517 633.8 17.9
636(13) 0.00557 633.4 17.2
628(13) 0.00538 633.0 16.5
658(14) 0.00488 632.5 15.9
619(13) 0.00523 632.1 15.4
613(13) 0.00550 631.6 14.9
634(13) 0.00555 631.2 14.4
659(14) 0.00497 630.7 14.0
635(14) 0.00500 630.3 13.6
603(13) 0.00560 629.9 13.3
626(13) 0.00544 629.4 12.9
641(13) 0.00552 629.0 12.7
627(13) 0.00530 628.5 12.4
634(14) 0.00497 628.1 12.2
632(13) 0.00528 627.6 12.0
634(13) 0.00548 627.2 11.8
662(13) 0.00536 626.8 11.6
639(14) 0.00521 626.3 11.4
623(14) 0.00496 625.9 11.3
649(14) 0.00502 625.4 11.2
636(13) 0.00555 625.0 11.1
618(13) 0.00567 624.5 11.0
649(14) 0.00509 624.1 11.0
628(14) 0.00495 623.7 11.0
613(13) 0.00553 623.2 11.0
600(13) 0.00584 622.8 11.0
627(13) 0.00558 622.3 11.1
629(13) 0.00531 621.9 11.2
603(14) 0.00510 621.4 11.3
628(14) 0.00505 621.0 11.6
629(13) 0.00563 620.5 12.0
607(13) 0.00582 620.1 12.6
633(14) 0.00519 619.7 13.8
607(14) 0.00517 619.2 15.9
647(14) 0.00516 618.8 19.5
657(13) 0.00538 618.3 25.6
683(14) 0.00507 617.9 35.1
705(14) 0.00467 617.4 48.9
714(15) 0.00449 617.0 67.1
713(14) 0.00471 616.6 89.0
753(14) 0.00476 616.1 112.4
734(14) 0.00459 615.7 133.5
733(15) 0.00455 615.2 147.9
770(15) 0.00424 614.8 151.4
797(15) 0.00416 614.3 142.8
760(14) 0.00467 613.9 124.9
711(14) 0.00481 613.5 102.0
678(14) 0.00484 613.0 78.7
670(14) 0.00489 612.6 57.8
652(14) 0.00513 612.1 41.1
632(13) 0.00560 611.7 28.9
641(13) 0.00525 611.2 20.6
644(14) 0.00497 610.8 15.4
642(14) 0.00507 610.4 12.2
664(14) 0.00516 609.9 10.4
600(13) 0.00587 609.5 9.2
624(13) 0.00533 609.0 8.4
605(13) 0.00531 608.6 7.9
631(14) 0.00508 608.1 7.4
609(13) 0.00568 607.7 7.1
623(13) 0.00568 607.3 6.8
614(13) 0.00537 606.8 6.5
610(13) 0.00523 606.4 6.2
598(13) 0.00546 605.9 6.0
594(13) 0.00589 605.5 5.8
589(13) 0.00596 605.0 5.6
612(13) 0.00525 604.6 5.4
619(14) 0.00516 604.2 5.3
621(13) 0.00540 603.7 5.1
581(12) 0.00605 603.3 5.0
629(13) 0.00560 602.8 4.9
644(14) 0.00511 602.4 4.7
588(13) 0.00539 601.9 4.6
605(13) 0.00558 601.5 4.5
619(13) 0.00565 601.1 4.4
557(12) 0.00621 600.6 4.3
605(13) 0.00545 600.2 4.2
601(13) 0.00523 599.7 4.1
617(13) 0.00543 599.3 4.1
596(13) 0.00588 598.8 4.0
594(13) 0.00578 598.4 3.9
594(13) 0.00551 598.0 3.8
567(13) 0.00566 597.5 3.8
583(13) 0.00556 597.1 3.7
603(13) 0.00588 596.6 3.6
618(13) 0.00568 596.2 3.6
570(13) 0.00583 595.7 3.5
575(13) 0.00545 595.3 3.4
597(13) 0.00554 594.9 3.4
593(13) 0.00593 594.4 3.3
607(13) 0.00574 594.0 3.3
620(14) 0.00510 593.5 3.2
575(13) 0.00551 593.1 3.2
597(13) 0.00555 592.6 3.1
613(13) 0.00575 592.2 3.1
566(13) 0.00598 591.8 3.1
599(13) 0.00539 591.3 3.0
625(14) 0.00505 590.9 3.0
570(13) 0.00582 590.4 2.9
583(12) 0.00607 590.0 2.9
592(13) 0.00561 589.5 2.9
554(13) 0.00580 589.1 2.8
584(13) 0.00549 588.7 2.8
562(12) 0.00610 588.2 2.8
555(12) 0.00633 587.8 2.7
565(13) 0.00594 587.3 2.7
572(13) 0.00548 586.9 2.7
600(13) 0.00539 586.4 2.6
571(13) 0.00600 586.0 2.6
592(13) 0.00592 585.6 2.6
597(13) 0.00555 585.1 2.6
567(13) 0.00559 584.7 2.5
578(13) 0.00561 584.2 2.5
608(13) 0.00569 583.8 2.5
602(13) 0.00582 583.3 2.5
579(13) 0.00557 582.9 2.4
575(13) 0.00542 582.5 2.4
570(13) 0.00590 582.0 2.4
590(13) 0.00574 581.6 2.4
559(12) 0.00630 581.1 2.3
567(13) 0.00584 580.7 2.3
584(13) 0.00527 580.2 2.3
580(13) 0.00565 579.8 2.3
585(13) 0.00587 579.4 2.3
556(12) 0.00628 578.9 2.3
589(13) 0.00567 578.5 2.2
604(14) 0.00505 578.0 2.2
578(13) 0.00583 577.6 2.2
580(12) 0.00612 577.1 2.2
555(12) 0.00629 576.7 2.2
581(13) 0.00566 576.3 2.2
557(13) 0.00563 575.8 2.1
559(13) 0.00580 575.4 2.1
590(13) 0.00594 574.9 2.1
588(13) 0.00596 574.5 2.1
584(13) 0.00575 574.0 2.1
559(13) 0.00565 573.6 2.1
555(13) 0.00597 573.2 2.0
579(13) 0.00604 572.7 2.0
569(12) 0.00610 572.3 2.0
565(13) 0.00581 571.8 2.0
569(13) 0.00554 571.4 2.0
554(13) 0.00598 570.9 2.0
563(12) 0.00628 570.5 2.0
549(12) 0.00626 570.1 2.0
579(13) 0.00554 569.6 1.9
573(13) 0.00551 569.2 1.9
566(13) 0.00562 568.7 1.9
570(12) 0.00616 568.3 1.9
574(13) 0.00596 567.8 1.9
581(13) 0.00556 567.4 1.9
544(13) 0.00600 567.0 1.9
580(13) 0.00578 566.5 1.9
589(13) 0.00599 566.1 1.9
554(13) 0.00601 565.6 1.8
541(12) 0.00610 565.2 1.8
551(13) 0.00602 564.7 1.8
551(12) 0.00617 564.3 1.8
563(12) 0.00627 563.9 1.8
551(13) 0.00591 563.5 1.8
552(13) 0.00587 563.2 1.8
549(13) 0.00589 562.9 1.8
537(12) 0.00640 562.6 1.8
528(12) 0.00659 562.4 1.8
556(13) 0.00594 562.1 1.8
531(13) 0.00592 561.8 1.8
565(13) 0.00570 561.5 1.8
554(12) 0.00628 561.2 1.8
584(13) 0.00604 561.0 1.7
563(13) 0.00586 560.7 1.7
541(13) 0.00571 560.4 1.7
565(13) 0.00576 560.1 1.7
548(12) 0.00640 559.8 1.7
570(12) 0.00619 559.5 1.7
538(12) 0.00617 559.3 1.7
553(13) 0.00570 559.0 1.7
568(13) 0.00598 558.7 1.7
565(12) 0.00620 558.4 1.7
579(12) 0.00611 558.1 1.7
571(13) 0.00580 557.9 1.7
560(13) 0.00544 557.6 1.7
540(13) 0.00596 557.3 1.7
558(12) 0.00632 557.0 1.7
573(13) 0.00605 556.7 1.7
557(13) 0.00591 556.5 1.7
601(14) 0.00504 556.2 1.7
555(13) 0.00597 555.9 1.7
575(12) 0.00617 555.6 1.7
545(12) 0.00642 555.3 1.7
546(13) 0.00597 555.0 1.7
555(13) 0.00559 554.8 1.7
577(13) 0.00579 554.5 1.7
572(12) 0.00617 554.2 1.7
575(13) 0.00591 553.9 1.7
563(13) 0.00588 553.6 1.8
552(13) 0.00579 553.4 1.8
542(12) 0.00607 553.1 1.8
551(12) 0.00645 552.8 1.8
569(13) 0.00588 552.5 1.8
551(13) 0.00583 552.2 1.8
566(13) 0.00559 551.9 1.8
573(13) 0.00589 551.7 1.8
567(12) 0.00619 551.4 1.8
592(13) 0.00563 551.1 1.8
550(12) 0.00608 550.8 1.8
538(12) 0.00610 550.5 1.8
560(12) 0.00610 550.3 1.8
561(12) 0.00634 550.0 1.8
580(13) 0.00571 549.7 1.8
577(13) 0.00552 549.4 1.8
547(13) 0.00595 549.1 1.8
570(13) 0.00584 548.8 1.8
531(12) 0.00659 548.6 1.8
543(13) 0.00602 548.3 1.8
540(13) 0.00601 548.0 1.8
560(13) 0.00595 547.7 1.8
537(12) 0.00635 547.4 1.8
525(12) 0.00666 547.2 1.8
555(13) 0.00584 546.9 1.8
544(13) 0.00569 546.6 1.8
570(13) 0.00580 546.3 1.8
544(12) 0.00646 546.0 1.8
554(12) 0.00641 545.8 1.9
565(13) 0.00579 545.5 1.9
541(13) 0.00572 545.2 1.9
529(12) 0.00617 544.9 1.9
573(12) 0.00607 544.6 1.9
548(12) 0.00638 544.3 1.9
533(12) 0.00629 544.1 1.9
562(13) 0.00545 543.8 2.0
539(12) 0.00616 543.5 2.0
550(12) 0.00641 543.2 2.0
545(12) 0.00633 542.9 2.0
553(13) 0.00598 542.7 2.1
530(13) 0.00604 542.4 2.1
557(13) 0.00588 542.1 2.1
546(12) 0.00642 541.8 2.2
495(12) 0.00680 541.5 2.2
534(12) 0.00612 541.2 2.2
533(13) 0.00598 541.0 2.3
533(12) 0.00620 540.7 2.3
542(12) 0.00649 540.4 2.4
527(12) 0.00637 540.1 2.4
541(12) 0.00610 539.8 2.5
581(13) 0.00548 539.6 2.6
538(12) 0.00624 539.3 2.6
553(12) 0.00636 539.0 2.7
540(12) 0.00630 538.7 2.8
572(13) 0.00559 538.4 2.9
578(13) 0.00554 538.2 2.9
542(12) 0.00622 537.9 3.0
568(12) 0.00613 537.6 3.1
543(12) 0.00626 537.3 3.3
533(12) 0.00611 537.0 3.4
522(13) 0.00601 536.7 3.5
535(12) 0.00622 536.5 3.7
531(12) 0.00659 536.2 3.9
558(13) 0.00559 535.9 4.1
545(13) 0.00570 535.6 4.3
535(12) 0.00606 535.3 4.5
549(12) 0.00621 535.1 4.8
542(12) 0.00646 534.8 5.1
528(12) 0.00610 534.5 5.4
506(12) 0.00622 534.2 5.8
523(12) 0.00629 533.9 6.2
520(12) 0.00661 533.6 6.7
553(12) 0.00635 533.4 7.3
537(12) 0.00608 533.1 8.0
563(13) 0.00541 532.8 8.8
505(12) 0.00652 532.5 9.8
534(12) 0.00649 532.2 11.2
559(12) 0.00622 532.0 12.9
522(12) 0.00639 531.7 15.3
561(13) 0.00553 531.4 18.5
581(13) 0.00582 531.1 23.0
581(13) 0.00600 530.8 29.0
579(13) 0.00605 530.5 37.1
573(13) 0.00584 530.3 47.4
582(13) 0.00537 530.0 60.2
611(13) 0.00534 529.7 75.5
644(13) 0.00551 529.4 92.7
643(13) 0.00541 529.1 110.9
631(14) 0.00516 528.9 128.6
696(15) 0.00444 528.6 143.4
726(14) 0.00460 528.3 152.4
699(14) 0.00510 528.0 153.6
660(13) 0.00530 527.7 146.6
686(14) 0.00481 527.5 133.1
653(14) 0.00490 527.2 116.0
624(13) 0.00534 526.9 97.7
587(13) 0.00599 526.6 80.1
582(13) 0.00592 526.3 64.3
572(13) 0.00557 526.0 50.8
570(13) 0.00541 525.8 39.8
529(12) 0.00619 525.5 31.1
556(12) 0.00633 525.2 24.6
525(12) 0.00653 524.9 19.7
532(12) 0.00637 524.6 16.2
548(13) 0.00592 524.4 13.6
517(12) 0.00640 524.1 11.7
546(12) 0.00644 523.8 10.3
539(12) 0.00612 523.5 9.2
537(13) 0.00594 523.2 8.3
505(12) 0.00664 522.9 7.6
548(12) 0.00611 522.7 7.0
531(12) 0.00657 522.4 6.5
527(12) 0.00629 522.1 6.1
517(12) 0.00629 521.8 5.7
497(12) 0.00670 521.5 5.3
499(12) 0.00675 521.3 5.0
563(12) 0.00632 521.0 4.8
499(12) 0.00658 520.7 4.5
530(13) 0.00584 520.4 4.3
504(12) 0.00656 520.1 4.1
497(12) 0.00683 519.9 4.0
527(12) 0.00667 519.6 3.8
497(12) 0.00651 519.3 3.7
520(13) 0.00596 519.0 3.6
512(12) 0.00645 518.7 3.5
520(12) 0.00668 518.4 3.4
497(12) 0.00699 518.2 3.3
513(12) 0.00628 517.9 3.2
516(13) 0.00591 517.6 3.1
512(12) 0.00644 517.3 3.0
535(12) 0.00651 517.0 3.0
531(12) 0.00657 516.8 2.9
546(13) 0.00598 516.5 2.9
515(13) 0.00593 516.2 2.8
519(12) 0.00643 515.9 2.8
515(12) 0.00678 515.6 2.8
508(12) 0.00689 515.3 2.7
509(12) 0.00627 515.1 2.7
505(12) 0.00611 514.8 2.7
526(12) 0.00625 514.5 2.7
488(11) 0.00713 514.2 2.6
508(12) 0.00688 513.9 2.6
500(12) 0.00652 513.7 2.6
508(12) 0.00610 513.4 2.6
522(12) 0.00630 513.1 2.6
511(12) 0.00682 512.8 2.6
533(12) 0.00646 512.5 2.6
496(12) 0.00678 512.2 2.6
492(12) 0.00651 512.0 2.6
506(12) 0.00631 511.7 2.6
515(12) 0.00678 511.4 2.6
499(12) 0.00684 511.1 2.7
470(12) 0.00690 510.8 2.7
493(12) 0.00638 510.6 2.7
490(12) 0.00668 510.3 2.7
484(11) 0.00721 510.0 2.8
529(12) 0.00624 509.7 2.8
498(12) 0.00650 509.4 2.8
490(12) 0.00662 509.2 2.9
518(12) 0.00638 508.9 2.9
555(12) 0.00633 508.6 2.9
521(12) 0.00644 508.3 3.0
520(12) 0.00611 508.0 3.0
524(12) 0.00614 507.7 3.1
503(12) 0.00680 507.5 3.2
475(11) 0.00731 507.2 3.2
510(12) 0.00634 506.9 3.3
526(13) 0.00597 506.6 3.4
497(12) 0.00649 506.3 3.4
492(12) 0.00678 506.1 3.5
503(12) 0.00693 505.8 3.6
508(12) 0.00643 505.5 3.7
524(13) 0.00598 505.2 3.8
519(12) 0.00629 504.9 3.9
480(11) 0.00719 504.6 4.0
514(12) 0.00679 504.4 4.1
539(13) 0.00589 504.1 4.3
520(13) 0.00602 503.8 4.4
481(12) 0.00693 503.5 4.5
500(12) 0.00687 503.2 4.7
525(12) 0.00666 503.0 4.8
509(12) 0.00640 502.7 5.0
483(12) 0.00630 502.4 5.2
513(12) 0.00631 502.1 5.4
523(12) 0.00659 501.8 5.5
503(12) 0.00684 501.6 5.7
536(13) 0.00604 501.3 5.9
503(12) 0.00619 501.0 6.2
543(12) 0.00606 500.7 6.4
513(12) 0.00679 500.4 6.6
529(12) 0.00656 500.1 6.9
538(12) 0.00605 499.9 7.1
514(13) 0.00604 499.6 7.4
524(12) 0.00618 499.3 7.6
489(12) 0.00707 499.0 7.9
487(12) 0.00707 498.7 8.2
499(12) 0.00661 498.5 8.5
505(12) 0.00635 498.2 8.8
530(12) 0.00629 497.9 9.0
549(12) 0.00640 497.6 9.3
499(12) 0.00685 497.3 9.6
488(12) 0.00654 497.0 9.9
524(13) 0.00591 496.8 10.2
517(12) 0.00627 496.5 10.5
506(12) 0.00689 496.2 10.7
547(12) 0.00608 495.9 11.0
506(12) 0.00632 495.6 11.2
510(12) 0.00635 495.4 11.5
507(12) 0.00648 495.1 11.7
538(12) 0.00655 494.8 11.9
492(12) 0.00686 494.5 12.0
530(12) 0.00609 494.2 12.2
515(12) 0.00634 493.9 12.4
497(12) 0.00673 493.7 12.5
536(12) 0.00652 493.4 12.7
492(12) 0.00696 493.1 12.9
510(12) 0.00637 492.8 13.1
521(12) 0.00625 492.5 13.4
518(12) 0.00651 492.3 13.6
527(12) 0.00670 492.0 13.9
516(13) 0.00594 491.7 14.1
494(12) 0.00638 491.4 14.3
497(12) 0.00652 491.1 14.3
531(12) 0.00634 490.9 14.2
517(12) 0.00675 490.6 13.9
524(12) 0.00617 490.3 13.4
516(12) 0.00611 490.0 12.7
526(12) 0.00638 489.7 12.0
541(12) 0.00636 489.4 11.3
511(12) 0.00682 489.2 10.6
502(12) 0.00643 488.9 9.9
503(13) 0.00583 488.6 9.3
460(12) 0.00706 488.3 8.8
502(12) 0.00691 488.0 8.3
524(12) 0.00652 487.8 7.8
513(12) 0.00635 487.5 7.4
493(12) 0.00615 487.2 7.1
496(12) 0.00654 486.9 6.8
496(11) 0.00709 486.6 6.5
498(12) 0.00686 486.3 6.2
482(12) 0.00679 486.1 5.9
503(12) 0.00625 485.8 5.7
503(12) 0.00659 485.5 5.5
481(11) 0.00726 485.2 5.3
482(11) 0.00716 484.9 5.1
484(12) 0.00674 484.7 4.9
502(12) 0.00609 484.4 4.7
476(12) 0.00684 484.1 4.5
464(11) 0.00746 483.8 4.4
488(12) 0.00692 483.5 4.2
510(12) 0.00644 483.3 4.1
496(12) 0.00647 483.0 3.9
483(12) 0.00672 482.7 3.8
507(12) 0.00689 482.4 3.7
486(12) 0.00707 482.1 3.5
493(12) 0.00669 481.8 3.4
481(12) 0.00661 481.6 3.3
454(11) 0.00722 481.3 3.2
490(11) 0.00709 481.0 3.1
473(12) 0.00694 480.7 3.0
473(12) 0.00674 480.4 2.9
470(12) 0.00688 480.2 2.9
505(12) 0.00671 479.9 2.8
502(12) 0.00697 479.6 2.7
488(12) 0.00660 479.3 2.6
492(12) 0.00646 479.0 2.6
479(12) 0.00677 478.7 2.5
510(12) 0.00665 478.5 2.5
495(12) 0.00700 478.2 2.4
474(12) 0.00691 477.9 2.3
497(12) 0.00625 477.6 2.3
477(12) 0.00684 477.3 2.2
473(11) 0.00718 477.1 2.2
499(12) 0.00706 476.8 2.2
483(12) 0.00662 476.5 2.1
467(12) 0.00648 476.2 2.1
467(12) 0.00698 475.9 2.0
487(12) 0.00708 475.6 2.0
497(12) 0.00705 475.4 2.0
483(12) 0.00687 475.1 1.9
493(12) 0.00632 474.8 1.9
472(12) 0.00685 474.5 1.9
470(11) 0.00739 474.2 1.8
468(11) 0.00743 474.0 1.8
471(12) 0.00700 473.7 1.8
474(12) 0.00650 473.4 1.8
472(12) 0.00695 473.1 1.7
470(11) 0.00741 472.8 1.7
510(12) 0.00677 472.6 1.7
471(11) 0.00718 472.3 1.7
476(12) 0.00649 472.0 1.6
450(11) 0.00747 471.7 1.6
472(11) 0.00740 471.4 1.7
492(12) 0.00697 471.1 1.6
506(12) 0.00640 470.9 1.6
475(12) 0.00656 470.6 1.6
476(12) 0.00683 470.3 1.6
453(11) 0.00763 470.0 1.6
465(11) 0.00724 469.7 1.6
483(12) 0.00657 469.5 1.5
443(11) 0.00716 469.2 1.5
477(12) 0.00675 468.9 1.5
481(11) 0.00716 468.6 1.5
467(11) 0.00733 468.3 1.5
461(11) 0.00722 468.0 1.5
465(12) 0.00690 467.8 1.5
461(11) 0.00711 467.5 1.5
482(11) 0.00721 467.2 1.5
483(12) 0.00682 466.9 1.4
484(12) 0.00649 466.6 1.4
486(12) 0.00649 466.4 1.4
487(12) 0.00698 466.1 1.4
455(11) 0.00761 465.8 1.4
439(11) 0.00726 465.5 1.4
455(12) 0.00705 465.2 1.4
490(12) 0.00655 465.0 1.4
489(12) 0.00701 464.7 1.4
488(11) 0.00716 464.4 1.4
441(11) 0.00735 464.1 1.4
468(12) 0.00663 463.8 1.4
489(12) 0.00646 463.5 1.3
445(11) 0.00772 463.3 1.3
478(11) 0.00732 463.0 1.3
484(12) 0.00657 462.7 1.3
450(11) 0.00715 462.4 1.3
485(12) 0.00673 462.1 1.3
461(11) 0.00741 461.9 1.3
470(11) 0.00745 461.6 1.3
472(12) 0.00685 461.3 1.3
468(12) 0.00652 461.0 1.3
472(12) 0.00683 460.7 1.3
459(11) 0.00740 460.4 1.3
452(11) 0.00762 460.2 1.3
456(11) 0.00734 459.9 1.3
458(12) 0.00651 459.6 1.3
459(12) 0.00703 459.3 1.3
476(11) 0.00734 459.0 1.3
496(12) 0.00694 458.8 1.3
485(12) 0.00680 458.5 1.3
485(12) 0.00621 458.2 1.3
477(12) 0.00663 457.9 1.3
448(11) 0.00767 457.6 1.3
456(11) 0.00734 457.3 1.3
437(11) 0.00730 457.1 1.3
463(12) 0.00687 456.8 1.3
462(12) 0.00705 456.5 1.3
423(11) 0.00825 456.2 1.3
459(11) 0.00723 455.9 1.3
440(11) 0.00741 455.7 1.3
464(12) 0.00664 455.4 1.3
467(12) 0.00700 455.1 1.3
421(11) 0.00818 454.8 1.3
456(11) 0.00740 454.6 1.3
464(12) 0.00697 454.4 1.3
456(12) 0.00706 454.2 1.4
466(12) 0.00704 454.1 1.4
466(11) 0.00748 453.9 1.4
466(11) 0.00715 453.8 1.4
449(12) 0.00699 453.6 1.4
470(12) 0.00663 453.5 1.4
439(11) 0.00757 453.3 1.4
486(11) 0.00720 453.2 1.4
435(11) 0.00752 453.0 1.4
432(11) 0.00746 452.8 1.4
465(12) 0.00687 452.7 1.5
469(11) 0.00714 452.5 1.5
459(11) 0.00759 452.4 1.5
468(12) 0.00692 452.2 1.5
439(11) 0.00729 452.1 1.5
470(12) 0.00686 451.9 1.5
457(11) 0.00742 451.8 1.6
455(11) 0.00769 451.6 1.6
439(11) 0.00725 451.4 1.6
467(12) 0.00655 451.3 1.6
462(11) 0.00712 451.1 1.7
472(11) 0.00720 451.0 1.7
461(11) 0.00755 450.8 1.7
467(11) 0.00708 450.7 1.7
428(11) 0.00734 450.5 1.8
453(11) 0.00709 450.4 1.8
463(11) 0.00748 450.2 1.9
435(11) 0.00793 450.0 1.9
475(12) 0.00670 449.9 2.0
464(12) 0.00648 449.7 2.0
455(12) 0.00702 449.6 2.1
473(11) 0.00722 449.4 2.1
455(11) 0.00759 449.3 2.2
466(11) 0.00709 449.1 2.3
491(12) 0.00619 449.0 2.3
476(12) 0.00664 448.8 2.4
430(11) 0.00804 448.6 2.5
444(11) 0.00773 448.5 2.6
456(12) 0.00692 448.3 2.8
454(12) 0.00692 448.2 2.9
478(12) 0.00696 448.0 3.0
503(12) 0.00692 447.9 3.2
467(11) 0.00722 447.7 3.4
458(11) 0.00729 447.6 3.7
478(12) 0.00647 447.4 3.9
469(12) 0.00699 447.2 4.2
470(11) 0.00731 447.1 4.6
462(11) 0.00725 446.9 5.0
465(12) 0.00682 446.8 5.5
457(12) 0.00671 446.6 6.0
469(12) 0.00687 446.5 6.7
476(11) 0.00726 446.3 7.4
487(12) 0.00685 446.2 8.2
449(11) 0.00716 446.0 9.2
445(11) 0.00715 445.8 10.2
459(11) 0.00708 445.7 11.3
472(11) 0.00736 445.5 12.6
460(11) 0.00712 445.4 13.9
475(12) 0.00671 445.2 15.3
440(11) 0.00749 445.1 16.7
470(12) 0.00706 444.9 18.0
466(11) 0.00744 444.8 19.3
469(11) 0.00720 444.6 20.3
481(12) 0.00644 444.4 21.0
457(12) 0.00702 444.3 21.4
443(11) 0.00757 444.1 21.3
456(11) 0.00758 444.0 20.9
473(12) 0.00691 443.8 20.1
447(12) 0.00688 443.7 19.0
435(11) 0.00712 443.5 17.7
458(11) 0.00733 443.4 16.4
481(11) 0.00722 443.2 15.0
454(11) 0.00709 443.0 13.6
479(12) 0.00642 442.9 12.3
426(11) 0.00784 442.7 11.1
447(11) 0.00775 442.6 10.0
447(11) 0.00771 442.4 9.0
455(12) 0.00692 442.3 8.1
462(12) 0.00666 442.1 7.3
457(12) 0.00702 442.0 6.6
439(11) 0.00789 441.8 6.0
453(11) 0.00772 441.6 5.5
466(11) 0.00712 441.5 5.0
460(12) 0.00669 441.3 4.6
446(11) 0.00735 441.2 4.3
433(11) 0.00785 441.0 4.0
464(11) 0.00749 440.9 3.7
474(12) 0.00689 440.7 3.5
443(12) 0.00696 440.6 3.3
435(11) 0.00732 440.4 3.2
457(11) 0.00756 440.2 3.0
422(11) 0.00811 440.1 2.9
472(12) 0.00681 439.9 2.8
425(11) 0.00734 439.8 2.7
425(11) 0.00767 439.6 2.6
466(11) 0.00747 439.5 2.6
428(11) 0.00787 439.3 2.5
443(11) 0.00722 439.2 2.4
455(12) 0.00687 439.0 2.4
422(11) 0.00774 438.8 2.3
485(11) 0.00722 438.7 2.3
442(11) 0.00757 438.5 2.3
453(12) 0.00705 438.4 2.2
447(11) 0.00726 438.2 2.2
451(11) 0.00726 438.1 2.2
447(11) 0.00773 437.9 2.2
457(11) 0.00709 437.8 2.1
429(11) 0.00738 437.6 2.1
444(11) 0.00732 437.4 2.1
434(11) 0.00772 437.3 2.1
419(11) 0.00832 437.1 2.1
461(12) 0.00697 437.0 2.1
449(12) 0.00708 436.8 2.1
455(12) 0.00685 436.7 2.1
427(11) 0.00755 436.5 2.1
443(11) 0.00783 436.4 2.1
429(11) 0.00742 436.2 2.1
434(11) 0.00726 436.0 2.1
446(11) 0.00743 435.9 2.2
473(11) 0.00722 435.7 2.2
442(11) 0.00781 435.6 2.2
454(12) 0.00696 435.4 2.2
433(12) 0.00697 435.3 2.2
429(11) 0.00743 435.1 2.3
431(11) 0.00788 435.0 2.3
424(11) 0.00814 434.8 2.3
430(11) 0.00754 434.6 2.3
438(12) 0.00707 434.5 2.4
467(12) 0.00664 434.3 2.4
440(11) 0.00778 434.2 2.4
429(11) 0.00806 434.0 2.5
428(11) 0.00757 433.9 2.5
446(12) 0.00677 433.7 2.5
448(11) 0.00732 433.6 2.5
456(11) 0.00757 433.4 2.6
424(11) 0.00811 433.2 2.6
444(11) 0.00733 433.1 2.6
439(12) 0.00688 432.9 2.6
434(11) 0.00746 432.8 2.7
456(11) 0.00769 432.6 2.7
443(11) 0.00755 432.5 2.7
447(11) 0.00729 432.3 2.7
430(11) 0.00733 432.2 2.7
442(11) 0.00725 432.0 2.7
432(11) 0.00798 431.8 2.7
437(11) 0.00758 431.7 2.7
418(11) 0.00761 431.5 2.7
429(11) 0.00730 431.4 2.7
439(11) 0.00748 431.2 2.6
462(11) 0.00749 431.1 2.6
452(11) 0.00769 430.9 2.6
461(12) 0.00707 430.8 2.6
443(11) 0.00710 430.6 2.5
410(11) 0.00781 430.4 2.5
424(11) 0.00818 430.3 2.5
433(11) 0.00754 430.1 2.4
416(11) 0.00768 430.0 2.4
426(11) 0.00733 429.8 2.3
413(11) 0.00801 429.7 2.3
421(11) 0.00822 429.5 2.3
436(11) 0.00736 429.4 2.2
414(11) 0.00774 429.2 2.2
439(11) 0.00725 429.0 2.2
398(10) 0.00859 428.9 2.1
422(11) 0.00828 428.7 2.1
433(11) 0.00736 428.6 2.1
443(12) 0.00698 428.4 2.0
454(12) 0.00695 428.3 2.0
461(11) 0.00733 428.1 2.0
469(11) 0.00741 428.0 1.9
458(11) 0.00726 427.8 1.9
449(12) 0.00702 427.6 1.9
415(11) 0.00787 427.5 1.8
464(11) 0.00726 427.3 1.8
447(11) 0.00779 427.2 1.8
418(11) 0.00781 427.0 1.8
421(11) 0.00721 426.9 1.7
411(11) 0.00805 426.7 1.7
404(10) 0.00841 426.6 1.7
420(11) 0.00821 426.4 1.7
421(11) 0.00769 426.2 1.7
410(11) 0.00739 426.1 1.6
421(11) 0.00782 425.9 1.6
417(11) 0.00825 425.8 1.6
420(11) 0.00807 425.6 1.6
430(11) 0.00734 425.5 1.6
423(11) 0.00712 425.3 1.6
450(11) 0.00722 425.2 1.6
446(11) 0.00770 425.0 1.6
433(11) 0.00792 424.8 1.5
428(11) 0.00771 424.7 1.5
433(11) 0.00721 424.5 1.5
421(11) 0.00782 424.4 1.5
421(11) 0.00820 424.2 1.5
409(10) 0.00843 424.1 1.5
433(11) 0.00739 423.9 1.5
429(11) 0.00721 423.8 1.5
400(11) 0.00813 423.6 1.5
408(11) 0.00832 423.4 1.5
431(11) 0.00779 423.3 1.5
412(11) 0.00781 423.1 1.5
437(11) 0.00737 423.0 1.5
401(10) 0.00839 422.8 1.5
461(11) 0.00756 422.7 1.5
434(11) 0.00763 422.5 1.5
433(11) 0.00733 422.4 1.5
432(11) 0.00740 422.2 1.5
422(11) 0.00784 422.0 1.5
445(11) 0.00783 421.9 1.5
421(11) 0.00750 421.7 1.5
433(11) 0.00714 421.6 1.5
434(11) 0.00736 421.4 1.5
433(11) 0.00757 421.3 1.5
433(11) 0.00797 421.1 1.5
445(11) 0.00715 421.0 1.5
412(11) 0.00775 420.8 1.5
432(11) 0.00749 420.6 1.5
427(11) 0.00796 420.5 1.5
389(10) 0.00877 420.3 1.5
392(11) 0.00816 420.2 1.5
407(11) 0.00764 420.0 1.5
443(11) 0.00726 419.9 1.5
416(11) 0.00806 419.7 1.5
426(11) 0.00816 419.6 1.5
399(11) 0.00829 419.4 1.5
429(11) 0.00715 419.2 1.5
425(11) 0.00770 419.1 1.5
419(11) 0.00820 418.9 1.5
400(10) 0.00862 418.8 1.5
400(11) 0.00806 418.6 1.5
431(12) 0.00675 418.5 1.5
414(11) 0.00779 418.3 1.5
417(11) 0.00824 418.2 1.5
415(11) 0.00820 418.0 1.5
410(11) 0.00803 417.8 1.5
422(12) 0.00689 417.7 1.5
406(11) 0.00795 417.5 1.6
443(11) 0.00778 417.4 1.6
417(11) 0.00816 417.2 1.6
402(11) 0.00792 417.1 1.6
431(11) 0.00711 416.9 1.6
430(11) 0.00771 416.8 1.6
425(11) 0.00811 416.6 1.6
417(11) 0.00798 416.4 1.6
432(11) 0.00741 416.3 1.6
391(11) 0.00798 416.1 1.6
384(11) 0.00814 416.0 1.6
402(10) 0.00859 415.8 1.6
432(11) 0.00781 415.7 1.6
438(11) 0.00732 415.5 1.6
440(11) 0.00727 415.4 1.7
450(11) 0.00713 415.2 1.7
436(11) 0.00793 415.0 1.7
423(11) 0.00805 414.9 1.7
413(11) 0.00802 414.7 1.7
410(11) 0.00804 414.6 1.7
423(11) 0.00776 414.4 1.7
423(11) 0.00815 414.3 1.7
440(11) 0.00752 414.1 1.7
423(11) 0.00749 414.0 1.7
415(11) 0.00767 413.8 1.8
420(11) 0.00800 413.6 1.8
383(10) 0.00901 413.5 1.8
420(11) 0.00760 413.3 1.8
443(11) 0.00709 413.2 1.8
408(11) 0.00789 413.0 1.8
411(11) 0.00817 412.9 1.8
404(10) 0.00854 412.7 1.8
425(11) 0.00751 412.6 1.9
414(11) 0.00751 412.4 1.9
417(11) 0.00792 412.2 1.9
396(10) 0.00859 412.1 1.9
426(11) 0.00811 411.9 1.9
421(11) 0.00770 411.8 1.9
417(11) 0.00734 411.6 1.9
411(11) 0.00802 411.5 2.0
420(11) 0.00807 411.3 2.0
426(11) 0.00805 411.2 2.0
437(11) 0.00748 411.0 2.0
422(11) 0.00730 410.8 2.0
432(11) 0.00744 410.7 2.0
391(10) 0.00851 410.5 2.1
408(11) 0.00837 410.4 2.1
417(11) 0.00786 410.2 2.1
397(11) 0.00744 410.1 2.1
446(11) 0.00720 409.9 2.1
404(10) 0.00854 409.8 2.1
410(11) 0.00833 409.6 2.2
413(11) 0.00788 409.4 2.2
437(11) 0.00710 409.3 2.2
429(11) 0.00751 409.1 2.2
401(10) 0.00850 409.0 2.2
437(11) 0.00780 408.9 2.3
414(11) 0.00801 408.8 2.3
391(11) 0.00796 408.7 2.3
396(11) 0.00818 408.6 2.3
399(10) 0.00857 408.5 2.4
423(11) 0.00779 408.4 2.4
403(11) 0.00773 408.3 2.4
423(11) 0.00758 408.2 2.4
421(11) 0.00767 408.1 2.5
420(11) 0.00822 408.0 2.5
414(11) 0.00767 407.9 2.5
418(11) 0.00748 407.8 2.5
403(11) 0.00778 407.7 2.6
390(11) 0.00832 407.6 2.6
399(10) 0.00858 407.5 2.6
413(11) 0.00778 407.4 2.7
405(11) 0.00781 407.3 2.7
405(11) 0.00796 407.2 2.7
407(11) 0.00831 407.1 2.8
404(10) 0.00849 407.0 2.8
426(11) 0.00770 406.9 2.8
411(11) 0.00785 406.8 2.9
417(11) 0.00776 406.7 2.9
395(11) 0.00837 406.6 2.9
396(10) 0.00866 406.5 3.0
402(11) 0.00800 406.4 3.0
412(11) 0.00752 406.3 3.1
422(11) 0.00754 406.2 3.1
410(11) 0.00807 406.1 3.2
421(11) 0.00814 406.0 3.2
426(11) 0.00761 405.9 3.3
430(11) 0.00719 405.8 3.3
382(10) 0.00865 405.7 3.4
416(11) 0.00784 405.6 3.4
414(11) 0.00834 405.5 3.5
419(11) 0.00796 405.4 3.5
410(11) 0.00767 405.3 3.6
428(11) 0.00769 405.2 3.6
410(11) 0.00823 405.1 3.7
394(10) 0.00876 405.0 3.8
434(11) 0.00736 404.9 3.8
391(11) 0.00777 404.8 3.9
377(10) 0.00875 404.7 4.0
399(10) 0.00856 404.6 4.0
393(10) 0.00867 404.5 4.1
417(11) 0.00801 404.4 4.2
405(11) 0.00793 404.3 4.3
418(11) 0.00786 404.2 4.3
395(10) 0.00859 404.1 4.4
412(11) 0.00820 404.0 4.5
391(11) 0.00835 403.9 4.6
427(12) 0.00701 403.7 4.7
418(11) 0.00758 403.6 4.8
390(10) 0.00879 403.5 4.9
400(10) 0.00850 403.4 5.0
416(11) 0.00774 403.3 5.2
425(11) 0.00745 403.2 5.3
442(11) 0.00730 403.1 5.4
419(11) 0.00819 403.0 5.5
405(10) 0.00846 402.9 5.7
408(11) 0.00808 402.8 5.8
408(11) 0.00756 402.7 6.0
376(10) 0.00874 402.6 6.2
400(10) 0.00860 402.5 6.3
403(11) 0.00829 402.4 6.5
425(11) 0.00746 402.3 6.7
400(11) 0.00802 402.2 6.9
415(11) 0.00784 402.1 7.1
377(10) 0.00903 402.0 7.4
419(11) 0.00780 401.9 7.6
402(11) 0.00814 401.8 7.9
427(11) 0.00751 401.7 8.1
404(11) 0.00824 401.6 8.4
387(10) 0.00888 401.5 8.7
435(11) 0.00738 401.4 9.1
447(12) 0.00686 401.3 9.4
391(11) 0.00831 401.2 9.8
401(10) 0.00845 401.1 10.3
387(10) 0.00879 401.0 10.7
369(10) 0.00869 400.9 11.2
394(11) 0.00785 400.8 11.7
405(11) 0.00799 400.7 12.3
401(10) 0.00840 400.6 12.9
407(10) 0.00841 400.5 13.6
392(10) 0.00841 400.4 14.4
438(12) 0.00688 400.3 15.2
393(10) 0.00849 400.2 16.2
389(10) 0.00864 400.1 17.2
400(10) 0.00862 400.0 18.4
432(11) 0.00751 399.9 19.8
415(11) 0.00723 399.8 21.4
436(11) 0.00732 399.7 23.3
464(11) 0.00748 399.6 25.5
419(11) 0.00830 399.5 28.1
476(12) 0.00692 399.4 31.3
460(12) 0.00680 399.3 35.1
424(11) 0.00773 399.2 39.7
441(11) 0.00786 399.1 45.3
469(11) 0.00727 399.0 51.9
467(12) 0.00688 398.9 59.7
452(12) 0.00679 398.8 68.9
448(11) 0.00734 398.7 79.5
491(12) 0.00704 398.6 91.5
561(12) 0.00614 398.5 105.0
547(12) 0.00619 398.4 119.7
572(13) 0.00542 398.3 135.4
582(13) 0.00557 398.2 151.3
617(13) 0.00573 398.1 166.7
676(14) 0.00501 398.0 180.3
620(13) 0.00538 397.9 190.7
657(14) 0.00494 397.8 196.5
656(14) 0.00506 397.7 197.1
656(13) 0.00542 397.6 192.3
613(13) 0.00558 397.5 182.9
578(13) 0.00579 397.4 170.1
567(13) 0.00570 397.3 155.5
522(12) 0.00642 397.2 140.3
534(12) 0.00659 397.1 125.3
504(12) 0.00651 397.0 111.2
477(12) 0.00665 396.9 98.4
483(12) 0.00666 396.8 87.1
476(12) 0.00697 396.7 77.4
502(12) 0.00697 396.6 69.2
464(11) 0.00713 396.5 62.6
480(12) 0.00653 396.4 57.5
480(12) 0.00662 396.3 53.8
451(11) 0.00759 396.2 51.3
438(11) 0.00784 396.1 50.0
461(12) 0.00698 396.0 49.7
463(12) 0.00685 395.9 50.5
488(12) 0.00671 395.8 52.3
462(11) 0.00739 395.7 54.9
460(11) 0.00754 395.6 58.2
432(11) 0.00767 395.5 62.2
473(12) 0.00658 395.4 66.7
483(12) 0.00689 395.3 71.3
483(11) 0.00712 395.2 75.7
467(11) 0.00749 395.1 79.5
489(12) 0.00667 395.0 82.1
530(13) 0.00556 394.9 83.1
478(12) 0.00683 394.8 82.3
469(11) 0.00741 394.7 79.8
484(11) 0.00724 394.6 75.9
466(12) 0.00690 394.5 71.1
443(12) 0.00695 394.4 65.9
458(11) 0.00716 394.3 60.6
462(11) 0.00758 394.2 55.6
435(11) 0.00781 394.1 50.9
454(11) 0.00712 394.0 46.8
452(12) 0.00669 393.9 43.2
419(11) 0.00799 393.8 40.1
442(11) 0.00783 393.7 37.6
479(11) 0.00715 393.6 35.5
426(11) 0.00787 393.5 34.0
412(11) 0.00766 393.3 32.8
445(11) 0.00715 393.2 32.0
398(10) 0.00863 393.1 31.5
423(11) 0.00782 393.0 31.2
428(11) 0.00759 392.9 31.2
422(11) 0.00741 392.8 31.4
419(11) 0.00791 392.7 31.7
417(11) 0.00826 392.6 32.2
395(10) 0.00845 392.5 32.9
411(11) 0.00749 392.4 33.6
430(11) 0.00733 392.3 34.5
434(11) 0.00761 392.2 35.6
452(11) 0.00765 392.1 36.7
428(11) 0.00770 392.0 38.0
409(11) 0.00802 391.9 39.5
422(11) 0.00754 391.8 41.0
432(11) 0.00777 391.7 42.8
460(11) 0.00758 391.6 44.7
435(11) 0.00738 391.5 46.8
424(11) 0.00746 391.4 49.1
437(11) 0.00751 391.3 51.7
439(11) 0.00771 391.2 54.6
426(11) 0.00811 391.1 57.9
463(12) 0.00694 391.0 61.7
427(11) 0.00731 390.9 66.2
450(12) 0.00708 390.8 71.4
443(11) 0.00750 390.7 77.8
475(11) 0.00726 390.6 85.5
471(12) 0.00690 390.5 95.0
498(12) 0.00620 390.4 106.8
490(12) 0.00651 390.3 121.4
549(12) 0.00635 390.2 139.5
539(12) 0.00655 390.1 161.5
564(13) 0.00585 390.0 188.0
553(13) 0.00566 389.9 219.5
627(13) 0.00526 389.8 256.2
648(13) 0.00541 389.7 297.9
678(14) 0.00522 389.6 344.1
717(14) 0.00475 389.5 393.6
759(15) 0.00414 389.4 444.2
853(16) 0.00401 389.3 492.6
881(15) 0.00406 389.2 534.1
925(16) 0.00382 389.1 563.6
952(17) 0.00354 389.0 576.3
910(17) 0.003506 388.9 570.0
890(16) 0.00382 388.8 545.6
865(15) 0.00415 388.7 507.3
807(15) 0.00432 388.6 460.0
770(15) 0.00435 388.5 409.0
716(15) 0.00450 388.4 357.9
673(14) 0.00490 388.3 309.4
662(13) 0.00535 388.2 265.1
635(13) 0.00542 388.1 225.7
569(13) 0.00589 388.0 191.5
591(13) 0.00555 387.9 162.5
548(13) 0.00602 387.8 138.2
523(12) 0.00668 387.7 118.2
527(12) 0.00639 387.6 102.0
525(12) 0.00618 387.5 88.8
485(12) 0.00657 387.4 78.1
454(11) 0.00715 387.3 69.5
457(11) 0.00759 387.2 62.5
435(11) 0.00753 387.1 56.8
428(11) 0.00764 387.0 52.0
433(11) 0.00715 386.9 48.0
429(11) 0.00779 386.8 44.5
437(11) 0.00790 386.7 41.6
439(11) 0.00760 386.6 39.0
457(12) 0.00704 386.5 36.7
440(11) 0.00719 386.4 34.6
405(11) 0.00823 386.3 32.8
406(10) 0.00847 386.2 31.1
409(11) 0.00790 386.1 29.7
396(11) 0.00785 386.0 28.3
388(10) 0.00839 385.9 27.1
412(11) 0.00812 385.8 26.0
427(11) 0.00813 385.7 25.0
424(11) 0.00753 385.6 24.1
392(11) 0.00790 385.5 23.3
409(11) 0.00778 385.4 22.6
406(11) 0.00838 385.3 21.9
394(10) 0.00859 385.2 21.3
416(11) 0.00749 385.1 20.7
415(11) 0.00719 385.0 20.2
406(11) 0.00799 384.9 19.8
454(11) 0.00757 384.8 19.4
386(10) 0.00867 384.7 19.0
415(11) 0.00776 384.6 18.7
428(11) 0.00709 384.5 18.5
426(11) 0.00770 384.4 18.2
388(10) 0.00880 384.3 18.0
399(10) 0.00855 384.2 17.9
419(11) 0.00740 384.1 17.7
385(11) 0.00787 384.0 17.6
414(11) 0.00765 383.9 17.6
387(10) 0.00879 383.8 17.6
408(11) 0.00831 383.7 17.6
391(11) 0.00813 383.6 17.6
398(11) 0.00779 383.5 17.7
380(10) 0.00840 383.4 17.8
394(10) 0.00869 383.3 18.0
395(10) 0.00858 383.2 18.1
390(11) 0.00832 383.1 18.4
418(11) 0.00728 382.9 18.6
395(11) 0.00829 382.8 18.9
420(11) 0.00824 382.7 19.3
396(11) 0.00818 382.6 19.7
386(11) 0.00830 382.5 20.1
400(11) 0.00790 382.4 20.6
410(11) 0.00794 382.3 21.2
401(10) 0.00858 382.2 21.9
395(10) 0.00847 382.1 22.6
403(11) 0.00772 382.0 23.4
428(11) 0.00751 381.9 24.3
428(11) 0.00780 381.8 25.4
428(11) 0.00807 381.7 26.6
417(11) 0.00780 381.6 27.9
421(11) 0.00770 381.5 29.4
403(11) 0.00797 381.4 31.0
419(11) 0.00785 381.3 32.9
420(11) 0.00819 381.2 35.1
450(12) 0.00701 381.1 37.5
457(12) 0.00698 381.0 40.2
438(11) 0.00744 380.9 43.3
434(11) 0.00761 380.8 46.8
440(11) 0.00786 380.7 50.6
434(11) 0.00731 380.6 55.0
453(12) 0.00676 380.5 59.8
440(11) 0.00729 380.4 65.1
478(12) 0.00706 380.3 71.0
473(11) 0.00738 380.2 77.4
474(12) 0.00682 380.1 84.4
480(12) 0.00658 380.0 92.0
515(12) 0.00638 379.9 100.1
500(12) 0.00689 379.8 108.7
518(12) 0.00672 379.7 117.6
542(13) 0.00603 379.6 126.8
520(13) 0.00570 379.5 136.0
512(12) 0.00620 379.4 144.9
499(12) 0.00696 379.3 153.3
517(12) 0.00680 379.2 160.6
547(13) 0.00601 379.1 166.6
555(13) 0.00551 379.0 170.9
557(13) 0.00598 378.9 173.0
600(13) 0.00587 378.8 173.0
596(13) 0.00592 378.7 170.7
567(13) 0.00592 378.6 166.4
558(13) 0.00571 378.5 160.3
561(13) 0.00592 378.4 152.9
536(12) 0.00649 378.3 144.5
513(12) 0.00676 378.2 135.5
507(12) 0.00649 378.1 126.2
508(12) 0.00621 378.0 117.0
462(11) 0.00713 377.9 108.0
429(11) 0.00809 377.8 99.3
480(12) 0.00707 377.7 91.1
465(11) 0.00710 377.6 83.5
406(11) 0.00818 377.5 76.4
432(11) 0.00757 377.4 69.9
423(11) 0.00823 377.3 63.9
415(11) 0.00796 377.2 58.5
430(11) 0.00750 377.1 53.6
395(10) 0.00845 377.0 49.2
392(10) 0.00860 376.9 45.2
398(10) 0.00866 376.8 41.7
408(11) 0.00802 376.7 38.5
408(11) 0.00775 376.6 35.7
417(11) 0.00765 376.5 33.2
385(10) 0.00865 376.4 30.9
415(11) 0.00831 376.3 28.9
399(11) 0.00802 376.2 27.1
380(10) 0.00847 376.1 25.5
395(11) 0.00838 376.0 24.1
388(10) 0.00853 375.9 22.8
411(11) 0.00831 375.8 21.7
397(11) 0.00805 375.7 20.6
396(11) 0.00770 375.6 19.6
403(11) 0.00819 375.5 18.8
372(10) 0.00898 375.4 18.0
372(10) 0.00914 375.3 17.3
398(11) 0.00810 375.2 16.6
368(10) 0.00845 375.1 16.0
391(11) 0.00809 375.0 15.4
389(10) 0.00861 374.9 14.9
370(10) 0.00914 374.8 14.4
363(10) 0.00852 374.7 13.9
375(11) 0.00800 374.6 13.5
362(10) 0.00903 374.5 13.1
373(10) 0.00912 374.4 12.7
386(10) 0.00881 374.3 12.4
370(10) 0.00851 374.2 12.0
360(11) 0.00806 374.1 11.7
368(10) 0.00860 374.0 11.4
380(10) 0.00892 373.9 11.2
388(10) 0.00864 373.8 10.9
340(10) 0.00972 373.7 10.7
357(10) 0.00856 373.6 10.5
386(11) 0.00820 373.5 10.3
411(10) 0.00842 373.4 10.1
367(10) 0.00929 373.3 9.9
369(10) 0.00879 373.2 9.7
387(11) 0.00790 373.1 9.5
358(10) 0.00903 373.0 9.4
403(10) 0.00851 372.9 9.2
419(11) 0.00783 372.8 9.1
396(11) 0.00806 372.7 9.0
358(10) 0.00879 372.5 8.9
370(10) 0.00870 372.4 8.7
358(10) 0.00948 372.3 8.6
386(10) 0.00849 372.2 8.5
363(10) 0.00886 372.1 8.5
366(10) 0.00878 372.0 8.4
378(11) 0.00825 371.9 8.3
395(10) 0.00873 371.8 8.2
384(10) 0.00850 371.7 8.2
374(11) 0.00833 371.6 8.1
383(10) 0.00853 371.5 8.1
395(11) 0.00806 371.4 8.0
383(10) 0.00899 371.3 8.0
394(11) 0.00820 371.2 7.9
343(10) 0.00917 371.1 7.9
342(10) 0.00924 371.0 7.9
383(10) 0.00852 370.9 7.8
379(10) 0.00896 370.8 7.8
391(11) 0.00807 370.7 7.8
363(10) 0.00866 370.6 7.8
386(11) 0.00792 370.5 7.8
366(10) 0.00898 370.4 7.8
350(10) 0.00973 370.3 7.8
356(10) 0.00892 370.2 7.8
381(11) 0.00787 370.1 7.8
387(11) 0.00819 370.0 7.9
374(10) 0.00917 369.9 7.9
330(9) 0.01023 369.8 7.9
392(11) 0.00821 369.7 8.0
386(11) 0.00794 369.6 8.0
367(10) 0.00875 369.5 8.1
361(10) 0.00937 369.4 8.2
368(10) 0.00926 369.3 8.2
366(10) 0.00874 369.2 8.3
388(11) 0.00763 369.1 8.4
362(10) 0.00902 369.0 8.5
363(10) 0.00942 368.9 8.6
366(10) 0.00920 368.8 8.8
365(10) 0.00889 368.7 8.9
365(11) 0.00827 368.6 9.1
353(10) 0.00903 368.5 9.3
361(10) 0.00938 368.4 9.5
342(10) 0.00969 368.3 9.8
357(10) 0.00900 368.2 10.2
356(10) 0.00850 368.1 10.7
378(11) 0.00818 368.0 11.3
355(10) 0.00945 367.9 12.1
361(10) 0.00926 367.8 13.3
374(11) 0.00826 367.7 14.8
372(10) 0.00852 367.6 16.7
363(10) 0.00851 367.5 19.1
380(10) 0.00904 367.4 22.1
357(10) 0.00935 367.3 25.5
393(11) 0.00800 367.2 29.3
384(11) 0.00823 367.1 33.2
404(11) 0.00802 366.9 36.8
421(11) 0.00817 366.8 39.7
401(11) 0.00837 366.7 41.3
398(11) 0.00789 366.6 41.3
404(11) 0.00769 366.5 39.7
392(11) 0.00808 366.4 36.9
397(10) 0.00867 366.3 33.5
412(11) 0.00768 366.2 29.9
359(10) 0.00873 366.1 26.4
388(11) 0.00827 366.0 23.4
385(10) 0.00861 365.9 20.8
366(10) 0.00936 365.7 18.8
351(10) 0.00912 365.6 17.3
352(10) 0.00916 365.5 16.1
388(11) 0.00810 365.4 15.4
366(10) 0.00904 365.3 14.9
365(10) 0.00929 365.2 14.6
398(11) 0.00783 365.1 14.5
377(11) 0.00815 365.0 14.5
377(10) 0.00856 364.9 14.6
386(10) 0.00859 364.8 14.7
358(10) 0.00937 364.7 14.9
360(10) 0.00912 364.6 15.1
379(11) 0.00803 364.4 15.3
378(10) 0.00851 364.3 15.6
373(10) 0.00900 364.2 15.8
367(10) 0.00915 364.1 16.1
388(10) 0.00847 364.0 16.5
391(11) 0.00793 363.9 16.8
404(11) 0.00795 363.8 17.2
366(10) 0.00932 363.7 17.6
381(10) 0.00886 363.6 18.0
403(11) 0.00797 363.5 18.5
402(11) 0.00731 363.4 19.0
381(11) 0.00823 363.3 19.5
363(10) 0.00942 363.1 20.0
389(10) 0.00871 363.0 20.6
374(10) 0.00862 362.9 21.2
376(11) 0.00826 362.8 21.8
378(11) 0.00820 362.7 22.4
348(10) 0.00979 362.6 23.2
375(10) 0.00901 362.5 23.9
364(10) 0.00900 362.4 24.7
376(11) 0.00809 362.3 25.5
365(10) 0.00890 362.2 26.4
382(10) 0.00897 362.1 27.4
367(10) 0.00917 361.9 28.4
398(11) 0.00804 361.8 29.5
360(10) 0.00852 361.7 30.6
362(10) 0.00889 361.6 31.8
377(10) 0.00896 361.5 33.1
380(10) 0.00864 361.4 34.5
403(11) 0.00774 361.3 36.0
407(11) 0.00770 361.2 37.5
428(11) 0.00777 361.1 39.2
389(10) 0.00880 361.0 41.0
406(11) 0.00803 360.9 42.8
395(11) 0.00813 360.8 44.8
373(10) 0.00861 360.6 46.9
436(11) 0.00754 360.5 49.0
408(10) 0.00844 360.4 51.3
444(11) 0.00710 360.3 53.7
438(12) 0.00706 360.2 56.1
437(11) 0.00730 360.1 58.6
426(11) 0.00784 360.0 61.1
422(11) 0.00817 359.9 63.7
438(11) 0.00746 359.8 66.2
434(11) 0.00731 359.7 68.5
414(11) 0.00798 359.6 70.8
450(11) 0.00750 359.5 72.8
444(11) 0.00788 359.3 74.6
452(11) 0.00722 359.2 76.0
462(12) 0.00673 359.1 77.0
451(11) 0.00734 359.0 77.5
439(11) 0.00775 358.9 77.6
442(11) 0.00779 358.8 77.2
465(11) 0.00710 358.7 76.4
440(11) 0.00724 358.6 75.2
452(11) 0.00717 358.5 73.7
438(11) 0.00785 358.4 71.9
420(11) 0.00799 358.3 69.8
432(11) 0.00738 358.1 67.7
419(11) 0.00728 358.0 65.4
407(11) 0.00808 357.9 63.1
411(11) 0.00832 357.8 60.9
407(10) 0.00839 357.7 58.6
434(11) 0.00737 357.6 56.5
418(11) 0.00751 357.5 54.5
428(11) 0.00741 357.4 52.6
410(11) 0.00833 357.3 50.8
396(10) 0.00857 357.2 49.1
414(11) 0.00784 357.1 47.6
395(11) 0.00749 357.0 46.2
373(10) 0.00844 356.8 45.0
391(10) 0.00875 356.7 43.8
417(11) 0.00790 356.6 42.9
403(11) 0.00786 356.5 42.0
420(11) 0.00736 356.4 41.3
403(11) 0.00810 356.3 40.7
382(10) 0.00894 356.2 40.3
409(11) 0.00814 356.1 40.0
402(11) 0.00804 356.0 39.8
395(11) 0.00783 355.9 39.7
387(11) 0.00805 355.8 39.7
380(10) 0.00902 355.7 39.9
403(11) 0.00808 355.5 40.2
379(10) 0.00860 355.4 40.6
411(11) 0.00778 355.3 41.1
385(10) 0.00865 355.2 41.8
415(11) 0.00825 355.1 42.7
393(11) 0.00822 355.0 43.6
400(11) 0.00788 354.9 44.8
392(11) 0.00833 354.8 46.1
408(11) 0.00813 354.7 47.6
404(10) 0.00854 354.6 49.3
406(11) 0.00789 354.5 51.3
424(11) 0.00720 354.3 53.4
408(11) 0.00764 354.2 55.9
430(11) 0.00779 354.1 58.6
433(11) 0.00814 354.0 61.7
440(11) 0.00745 353.9 65.1
395(11) 0.00804 353.8 68.9
432(11) 0.00736 353.7 73.0
429(11) 0.00797 353.6 77.7
407(10) 0.00851 353.5 82.8
426(11) 0.00771 353.4 88.3
447(12) 0.00701 353.3 94.5
467(11) 0.00714 353.2 101.2
455(11) 0.00767 353.0 108.4
476(11) 0.00726 352.9 116.3
454(11) 0.00730 352.8 124.9
498(12) 0.00610 352.7 134.1
457(11) 0.00720 352.6 143.9
477(11) 0.00721 352.5 154.3
495(12) 0.00701 352.4 165.3
527(12) 0.00628 352.3 176.8
528(13) 0.00589 352.2 188.7
555(13) 0.00588 352.1 200.8
539(12) 0.00645 352.0 213.0
550(12) 0.00619 351.9 225.0
557(13) 0.00582 351.7 236.5
570(13) 0.00546 351.6 247.3
551(13) 0.00597 351.5 256.9
614(13) 0.00571 351.4 265.1
589(13) 0.00581 351.3 271.6
583(13) 0.00564 351.2 276.1
572(13) 0.00556 351.1 278.6
578(13) 0.00562 351.0 278.9
590(13) 0.00600 350.9 277.3
573(13) 0.00590 350.8 273.7
563(13) 0.00581 350.7 268.4
534(13) 0.00602 350.6 261.6
557(13) 0.00596 350.4 253.4
543(12) 0.00645 350.3 244.1
549(12) 0.00611 350.2 233.8
557(13) 0.00590 350.1 222.8
526(12) 0.00608 350.0 211.1
501(12) 0.00674 349.9 199.1
513(12) 0.00685 349.8 187.0
485(12) 0.00679 349.7 174.9
488(12) 0.00644 349.6 163.1
475(12) 0.00679 349.5 151.7
445(11) 0.00744 349.4 140.7
459(11) 0.00756 349.2 130.4
475(12) 0.00683 349.1 120.7
463(12) 0.00694 349.0 111.6
440(11) 0.00760 348.9 103.2
444(11) 0.00760 348.8 95.4
450(11) 0.00777 348.7 88.3
428(11) 0.00751 348.6 81.8
422(11) 0.00744 348.5 75.9
423(11) 0.00770 348.4 70.5
423(11) 0.00803 348.3 65.6
417(11) 0.00818 348.2 61.1
390(10) 0.00841 348.1 57.1
400(11) 0.00745 347.9 53.4
400(11) 0.00819 347.8 50.1
410(11) 0.00836 347.7 47.1
391(10) 0.00862 347.6 44.4
401(11) 0.00821 347.5 41.9
381(11) 0.00787 347.4 39.6
390(11) 0.00813 347.3 37.6
375(10) 0.00918 347.2 35.7
376(10) 0.00891 347.1 34.0
352(10) 0.00933 347.0 32.4
368(11) 0.00833 346.9 31.0
354(10) 0.00927 346.8 29.7
358(10) 0.00950 346.6 28.4
394(10) 0.00849 346.5 27.3
388(10) 0.00850 346.4 26.2
371(10) 0.00852 346.3 25.2
376(10) 0.00840 346.2 24.3
363(10) 0.00933 346.1 23.4
373(10) 0.00881 346.0 22.6
390(11) 0.00799 345.9 21.9
344(10) 0.00915 345.8 21.1
368(10) 0.00866 345.7 20.5
355(10) 0.00959 345.6 19.8
338(10) 0.00975 345.4 19.2
376(11) 0.00823 345.3 18.7
354(10) 0.00880 345.2 18.2
376(11) 0.00835 345.1 17.7
379(10) 0.00904 345.0 17.2
330(10) 0.01001 344.9 16.7
376(11) 0.00823 344.8 16.3
362(10) 0.00869 344.7 15.9
364(10) 0.00901 344.6 15.6
372(10) 0.00920 344.5 15.2
341(10) 0.00984 344.4 14.9
355(10) 0.00879 344.3 14.6
349(10) 0.00902 344.1 14.3
360(10) 0.00917 344.0 14.0
327(9) 0.01025 343.9 13.8
355(10) 0.00899 343.8 13.5
361(10) 0.00865 343.7 13.3
363(10) 0.00852 343.6 13.1
329(9) 0.01024 343.5 12.9
318(9) 0.01061 343.4 12.8
334(10) 0.00967 343.3 12.6
376(11) 0.00795 343.2 12.5
334(10) 0.00963 343.1 12.4
366(10) 0.00883 343.0 12.3
330(9) 0.01011 342.8 12.3
376(10) 0.00862 342.7 12.2
361(10) 0.00842 342.6 12.2
315(9) 0.01030 342.5 12.2
330(9) 0.01036 342.4 12.2
346(10) 0.00978 342.3 12.2
341(10) 0.00942 342.2 12.3
344(10) 0.00866 342.1 12.3
352(10) 0.00877 342.0 12.4
365(10) 0.00934 341.9 12.6
367(10) 0.00933 341.8 12.7
330(10) 0.00981 341.6 12.9
336(10) 0.00904 341.5 13.1
343(10) 0.00940 341.4 13.3
338(9) 0.01013 341.3 13.5
325(9) 0.01033 341.2 13.7
342(10) 0.00931 341.1 14.0
341(10) 0.00888 341.0 14.3
361(10) 0.00882 340.9 14.6
340(9) 0.01009 340.8 14.9
362(10) 0.00910 340.7 15.2
325(9) 0.01025 340.6 15.5
343(10) 0.00907 340.5 15.8
339(10) 0.00893 340.3 16.0
331(9) 0.01028 340.2 16.3
362(10) 0.00915 340.1 16.5
358(10) 0.00861 340.0 16.6
358(10) 0.00844 339.9 16.7
373(10) 0.00866 339.8 16.8
339(10) 0.00997 339.7 16.7
332(10) 0.00992 339.6 16.6
344(10) 0.00907 339.5 16.5
300(9) 0.01068 339.4 16.2
347(10) 0.00902 339.3 16.0
360(10) 0.00950 339.2 15.6
350(10) 0.00946 339.0 15.2
340(10) 0.00913 338.9 14.8
345(10) 0.00920 338.8 14.4
393(11) 0.00832 338.7 14.0
390(10) 0.00877 338.6 13.5
363(10) 0.00868 338.5 13.0
336(10) 0.00940 338.4 12.6
336(10) 0.00936 338.3 12.2
331(10) 0.00966 338.2 11.7
349(10) 0.00969 338.1 11.3
335(10) 0.00925 338.0 10.9
346(10) 0.00869 337.8 10.5
351(10) 0.00914 337.7 10.2
338(10) 0.00999 337.6 9.8
306(9) 0.01101 337.5 9.5
340(10) 0.00950 337.4 9.2
320(10) 0.00909 337.3 8.9
334(10) 0.00944 337.2 8.6
349(10) 0.00969 337.1 8.4
358(10) 0.00948 337.0 8.1
335(10) 0.00978 336.9 7.9
345(10) 0.00884 336.8 7.7
333(10) 0.00962 336.7 7.5
313(9) 0.01074 336.5 7.4
337(10) 0.00974 336.4 7.2
341(10) 0.00932 336.3 7.0
344(10) 0.00899 336.2 6.9
344(10) 0.00937 336.1 6.8
310(9) 0.01085 336.0 6.7
333(9) 0.01013 335.9 6.6
326(10) 0.00989 335.8 6.5
327(10) 0.00925 335.7 6.4
348(10) 0.00901 335.6 6.3
330(9) 0.01018 335.5 6.2
346(10) 0.00964 335.4 6.2
360(10) 0.00874 335.2 6.1
352(10) 0.00856 335.1 6.0
347(10) 0.00913 335.0 6.0
340(10) 0.00995 334.9 5.9
331(10) 0.01004 334.8 5.9
328(10) 0.00965 334.7 5.9
332(10) 0.00901 334.6 5.9
326(10) 0.00966 334.5 5.8
324(9) 0.01042 334.4 5.8
350(10) 0.00932 334.3 5.8
334(10) 0.00960 334.2 5.8
338(10) 0.00933 334.1 5.8
330(10) 0.00981 333.9 5.8
352(10) 0.00968 333.8 5.8
354(10) 0.00912 333.7 5.8
354(10) 0.00850 333.6 5.8
324(10) 0.00979 333.5 5.9
346(10) 0.00958 333.4 5.9
335(10) 0.01007 333.3 5.9
339(10) 0.00940 333.2 5.9
324(10) 0.00966 333.1 6.0
333(10) 0.00934 333.0 6.0
309(9) 0.01064 332.9 6.1
337(9) 0.01010 332.7 6.1
347(10) 0.00879 332.6 6.2
340(10) 0.00902 332.5 6.3
334(10) 0.00946 332.4 6.4
338(10) 0.00978 332.3 6.4
363(10) 0.00935 332.2 6.5
332(10) 0.00980 332.1 6.6
352(10) 0.00839 332.0 6.8
322(10) 0.00983 331.9 6.9
337(10) 0.00991 331.8 7.0
343(10) 0.00991 331.7 7.1
344(10) 0.00932 331.6 7.3
317(10) 0.00947 331.4 7.5
340(10) 0.00906 331.3 7.6
315(9) 0.01060 331.2 7.8
330(9) 0.01013 331.1 8.0
334(10) 0.00963 331.0 8.3
349(10) 0.00855 330.9 8.5
334(10) 0.00939 330.8 8.8
336(10) 0.00995 330.7 9.0
356(10) 0.00929 330.6 9.3
348(10) 0.00907 330.5 9.7
335(10) 0.00915 330.4 10.0
338(10) 0.00959 330.3 10.3
333(9) 0.01013 330.1 10.7
335(9) 0.01008 330.0 11.1
331(10) 0.00950 329.9 11.6
348(10) 0.00871 329.8 12.0
339(10) 0.00941 329.7 12.5
347(10) 0.00990 329.6 13.0
338(10) 0.00975 329.5 13.5
348(10) 0.00898 329.4 14.1
341(10) 0.00900 329.3 14.7
333(10) 0.00925 329.2 15.3
344(10) 0.00983 329.1 16.0
362(10) 0.00908 328.9 16.6
350(10) 0.00869 328.8 17.3
322(10) 0.00989 328.7 18.1
350(10) 0.00919 328.6 18.8
322(9) 0.01059 328.5 19.6
321(9) 0.01011 328.4 20.3
355(10) 0.00852 328.3 21.1
344(10) 0.00887 328.2 21.9
341(10) 0.00974 328.1 22.7
351(10) 0.00967 328.0 23.4
335(10) 0.00970 327.9 24.1
326(10) 0.00972 327.8 24.8
366(11) 0.00835 327.6 25.5
328(9) 0.01019 327.5 26.0
345(10) 0.00987 327.4 26.5
361(10) 0.00886 327.3 27.0
361(10) 0.00870 327.2 27.3
352(10) 0.00895 327.1 27.5
346(10) 0.00951 327.0 27.6
373(10) 0.00913 326.9 27.7
357(10) 0.00903 326.8 27.6
339(10) 0.00925 326.7 27.4
343(10) 0.00920 326.6 27.1
326(9) 0.01037 326.5 26.7
352(10) 0.00968 326.3 26.2
343(10) 0.00931 326.2 25.6
347(10) 0.00872 326.1 25.0
317(10) 0.01000 326.0 24.3
352(10) 0.00956 325.9 23.6
362(10) 0.00958 325.8 22.8
343(10) 0.00939 325.7 22.1
351(11) 0.00817 325.6 21.3
345(10) 0.00891 325.5 20.5
333(10) 0.01006 325.4 19.7
335(10) 0.01005 325.3 19.0
352(10) 0.00880 325.1 18.2
330(10) 0.00883 325.0 17.5
319(10) 0.00991 324.9 16.8
334(9) 0.01013 324.8 16.1
341(10) 0.00992 324.7 15.4
321(10) 0.00976 324.6 14.8
349(10) 0.00852 324.5 14.2
334(10) 0.00940 324.4 13.6
320(9) 0.01045 324.3 13.1
340(10) 0.00988 324.2 12.6
336(10) 0.00943 324.1 12.1
341(10) 0.00915 324.0 11.6
334(10) 0.00932 323.8 11.2
325(9) 0.01041 323.7 10.8
309(9) 0.01073 323.6 10.4
348(10) 0.00926 323.5 10.1
283(9) 0.01091 323.4 9.7
312(10) 0.00979 323.3 9.4
320(9) 0.01044 323.2 9.1
353(10) 0.00905 323.1 8.8
323(10) 0.00951 323.0 8.6
322(10) 0.00993 322.9 8.4
324(9) 0.01009 322.8 8.1
346(10) 0.00978 322.7 7.9
313(9) 0.01010 322.5 7.7
312(10) 0.00944 322.4 7.6
332(10) 0.00938 322.3 7.4
313(9) 0.01036 322.2 7.3
336(10) 0.01004 322.1 7.2
315(10) 0.00999 322.0 7.0
328(10) 0.00886 321.9 6.9
311(9) 0.01017 321.8 6.8
330(9) 0.01016 321.7 6.7
355(10) 0.00953 321.6 6.7
337(10) 0.00951 321.5 6.6
323(10) 0.00936 321.4 6.5
307(9) 0.01026 321.2 6.5
316(9) 0.01061 321.1 6.4
304(9) 0.01117 321.0 6.4
338(10) 0.00920 320.9 6.4
336(10) 0.00904 320.8 6.4
347(10) 0.00907 320.7 6.3
334(9) 0.01009 320.6 6.3
316(9) 0.01061 320.5 6.3
319(10) 0.00999 320.4 6.3
313(10) 0.00965 320.3 6.3
324(10) 0.00981 320.2 6.3
303(9) 0.01109 320.0 6.3
311(9) 0.01084 319.9 6.4
337(10) 0.00922 319.8 6.4
302(10) 0.00989 319.7 6.4
340(10) 0.00936 319.6 6.4
331(9) 0.01008 319.5 6.4
335(10) 0.00992 319.4 6.5
335(10) 0.00944 319.3 6.5
312(10) 0.00963 319.2 6.5
325(10) 0.00961 319.1 6.6
343(10) 0.00994 319.0 6.6
330(10) 0.01004 318.9 6.6
336(10) 0.00948 318.7 6.6
330(10) 0.00922 318.6 6.7
332(10) 0.00945 318.5 6.7
339(9) 0.01017 318.4 6.7
329(10) 0.00976 318.3 6.7
307(9) 0.01024 318.2 6.7
312(10) 0.00991 318.1 6.8
308(10) 0.01003 318.1 6.8
336(10) 0.01004 318.0 6.8
344(10) 0.00940 317.9 6.8
301(9) 0.01050 317.9 6.7
315(10) 0.00958 317.8 6.7
293(9) 0.01109 317.7 6.7
315(9) 0.01075 317.7 6.7
326(10) 0.00958 317.6 6.7
316(10) 0.00966 317.5 6.6
313(10) 0.01006 317.5 6.6
343(10) 0.00945 317.4 6.6
308(9) 0.01095 317.3 6.5
323(10) 0.00989 317.3 6.4
336(10) 0.00900 317.2 6.4
344(10) 0.00934 317.1 6.3
345(10) 0.00947 317.1 6.2
331(9) 0.01009 317.0 6.1
336(10) 0.00944 316.9 6.1
328(10) 0.00943 316.9 6.0
318(10) 0.00994 316.8 5.9
318(9) 0.01048 316.7 5.8
343(10) 0.00990 316.7 5.7
310(9) 0.01025 316.6 5.6
311(10) 0.00951 316.5 5.6
331(10) 0.00951 316.5 5.5
326(9) 0.01017 316.4 5.4
317(9) 0.01068 316.3 5.3
322(10) 0.00994 316.3 5.2
329(10) 0.00901 316.2 5.1
310(9) 0.01031 316.1 5.0
292(9) 0.01146 316.1 4.9
294(9) 0.01132 316.0 4.8
296(9) 0.01083 315.9 4.7
334(10) 0.00859 315.9 4.6
311(9) 0.01034 315.8 4.5
306(9) 0.01101 315.7 4.4
330(9) 0.01009 315.7 4.4
333(10) 0.00956 315.6 4.3
320(10) 0.00945 315.5 4.2
333(10) 0.00940 315.5 4.1
328(9) 0.01030 315.4 4.0
300(9) 0.01114 315.3 4.0
329(10) 0.00937 315.3 3.9
322(10) 0.00952 315.2 3.8
310(9) 0.01023 315.2 3.7
329(9) 0.01031 315.1 3.7
327(9) 0.01019 315.0 3.6
337(10) 0.00958 315.0 3.5
330(10) 0.00927 314.9 3.5
333(10) 0.00932 314.8 3.4
328(9) 0.01024 314.8 3.4
336(10) 0.00977 314.7 3.3
309(9) 0.01057 314.6 3.3
312(9) 0.01009 314.6 3.2
310(9) 0.01035 314.5 3.2
336(10) 0.00999 314.4 3.1
311(9) 0.01022 314.4 3.1
312(10) 0.00988 314.3 3.0
293(9) 0.01092 314.2 3.0
304(9) 0.01027 314.2 2.9
325(9) 0.01041 314.1 2.9
320(10) 0.00965 314.0 2.9
316(10) 0.00970 314.0 2.8
321(10) 0.00926 313.9 2.8
307(9) 0.01076 313.8 2.7
310(9) 0.01076 313.8 2.7
315(10) 0.00997 313.7 2.7
316(10) 0.00957 313.6 2.6
313(10) 0.00960 313.6 2.6
292(9) 0.01094 313.5 2.6
314(9) 0.01076 313.4 2.6
323(10) 0.00964 313.4 2.5
316(10) 0.00959 313.3 2.5
302(9) 0.01029 313.2 2.5
306(9) 0.01078 313.2 2.5
314(9) 0.01057 313.1 2.5
319(9) 0.01017 313.0 2.4
340(10) 0.00882 313.0 2.4
321(10) 0.00999 312.9 2.4
318(9) 0.01071 312.8 2.4
325(9) 0.01038 312.8 2.4
326(10) 0.01001 312.7 2.3
331(10) 0.00880 312.6 2.3
319(10) 0.00970 312.6 2.3
302(9) 0.01105 312.5 2.3
321(9) 0.01039 312.4 2.3
325(10) 0.00967 312.4 2.3
319(10) 0.00920 312.3 2.3
306(9) 0.01014 312.2 2.2
316(9) 0.01049 312.2 2.2
310(9) 0.01059 312.1 2.2
319(10) 0.00972 312.0 2.2
307(10) 0.00980 312.0 2.2
314(10) 0.00961 311.9 2.2
300(9) 0.01112 311.8 2.2
312(9) 0.01064 311.8 2.2
335(10) 0.00926 311.7 2.2
315(10) 0.00972 311.6 2.2
319(10) 0.00970 311.6 2.2
297(9) 0.01138 311.5 2.2
304(9) 0.01052 311.4 2.2
281(9) 0.01129 311.4 2.2
314(10) 0.00974 311.3 2.2
307(9) 0.01036 311.2 2.2
292(9) 0.01143 311.2 2.2
285(9) 0.01114 311.1 2.2
320(10) 0.00925 311.0 2.2
308(10) 0.01002 311.0 2.2
290(9) 0.01076 310.9 2.2
328(9) 0.01032 310.8 2.2
313(9) 0.01030 310.8 2.2
321(10) 0.00931 310.7 2.2
300(9) 0.01041 310.6 2.2
277(9) 0.01164 310.6 2.2
297(9) 0.01125 310.5 2.2
293(9) 0.01068 310.4 2.2
314(10) 0.00931 310.4 2.3
292(9) 0.01046 310.3 2.3
309(9) 0.01056 310.2 2.3
290(9) 0.01146 310.2 2.3
301(9) 0.01038 310.1 2.3
330(10) 0.00898 310.0 2.3
324(10) 0.00962 310.0 2.4
310(9) 0.01072 309.9 2.4
324(9) 0.01041 309.8 2.4
337(10) 0.00929 309.8 2.5
338(10) 0.00892 309.7 2.5
324(10) 0.00961 309.6 2.5
329(10) 0.00995 309.6 2.6
299(9) 0.01126 309.5 2.6
300(9) 0.01044 309.4 2.7
317(10) 0.00914 309.4 2.7
302(9) 0.01031 309.3 2.8
303(9) 0.01119 309.2 2.9
306(9) 0.01085 309.2 3.0
304(9) 0.01035 309.1 3.1
294(9) 0.01024 309.0 3.2
298(9) 0.01032 309.0 3.3
299(9) 0.01135 308.9 3.4
302(9) 0.01097 308.8 3.6
320(10) 0.01001 308.8 3.8
322(10) 0.00948 308.7 4.0
290(9) 0.01109 308.6 4.3
307(9) 0.01106 308.6 4.6
307(9) 0.01060 308.5 5.0
308(9) 0.01013 308.4 5.5
299(9) 0.01013 308.4 6.0
298(9) 0.01012 308.3 6.6
298(9) 0.01108 308.2 7.4
284(9) 0.01125 308.2 8.2
303(9) 0.01023 308.1 9.2
306(10) 0.00995 308.0 10.2
282(9) 0.01092 308.0 11.4
300(9) 0.01110 307.9 12.6
313(9) 0.01029 307.8 13.9
297(9) 0.01059 307.8 15.1
333(10) 0.00910 307.7 16.3
335(10) 0.00936 307.6 17.3
306(9) 0.01092 307.6 18.1
312(9) 0.01038 307.5 18.5
308(9) 0.01019 307.4 18.4
312(9) 0.01010 307.4 18.0
328(10) 0.00996 307.3 17.3
311(9) 0.01081 307.2 16.3
305(9) 0.01030 307.2 15.1
313(10) 0.00974 307.1 13.9
313(9) 0.01009 307.0 12.6
328(10) 0.00972 307.0 11.5
312(9) 0.01091 306.9 10.4
332(10) 0.00953 306.8 9.4
300(9) 0.01025 306.8 8.5
303(9) 0.01061 306.7 7.7
311(9) 0.01092 306.6 7.0
307(9) 0.01075 306.6 6.4
310(10) 0.00996 306.5 6.0
309(10) 0.01008 306.4 5.6
308(9) 0.01051 306.4 5.2
279(9) 0.01163 306.3 5.0
294(9) 0.01119 306.2 4.7
296(9) 0.01077 306.2 4.6
337(10) 0.00913 306.1 4.4
313(9) 0.01027 306.0 4.3
282(9) 0.01161 306.0 4.3
319(9) 0.01066 305.9 4.2
283(9) 0.01106 305.8 4.2
274(9) 0.01068 305.8 4.1
316(10) 0.00988 305.7 4.1
304(9) 0.01093 305.6 4.2
312(9) 0.01076 305.6 4.2
302(9) 0.01022 305.5 4.2
316(10) 0.00923 305.4 4.3
296(9) 0.01063 305.4 4.3
301(9) 0.01110 305.3 4.4
286(9) 0.01156 305.2 4.5
294(9) 0.01078 305.2 4.6
320(10) 0.00928 305.1 4.7
297(9) 0.01045 305.0 4.8
311(9) 0.01083 305.0 5.0
314(9) 0.01061 304.9 5.2
297(9) 0.01026 304.8 5.4
291(9) 0.01058 304.8 5.6
312(9) 0.01008 304.7 5.8
301(9) 0.01112 304.6 6.1
307(9) 0.01055 304.6 6.4
309(9) 0.01009 304.5 6.6
306(9) 0.01011 304.4 7.0
307(9) 0.01028 304.4 7.3
305(9) 0.01080 304.3 7.6
290(9) 0.01087 304.2 7.9
288(9) 0.01055 304.2 8.1
290(9) 0.01068 304.1 8.3
313(9) 0.01041 304.0 8.5
304(9) 0.01091 304.0 8.6
308(9) 0.01019 303.9 8.6
296(9) 0.01040 303.8 8.5
288(9) 0.01070 303.8 8.4
320(10) 0.00995 303.7 8.1
310(9) 0.01067 303.6 7.9
279(9) 0.01106 303.6 7.6
311(10) 0.00926 303.5 7.3
296(9) 0.01039 303.4 7.0
293(9) 0.01121 303.4 6.7
298(9) 0.01114 303.3 6.4
302(9) 0.01017 303.2 6.1
302(9) 0.01008 303.2 5.9
306(9) 0.01070 303.1 5.6
322(9) 0.01037 303.0 5.4
303(9) 0.01088 303.0 5.3
306(9) 0.01012 302.9 5.1
316(10) 0.00907 302.8 5.0
312(10) 0.00974 302.8 4.8
282(9) 0.01144 302.7 4.7
308(9) 0.01072 302.6 4.6
281(9) 0.01063 302.6 4.6
268(9) 0.01074 302.5 4.5
287(9) 0.01069 302.4 4.5
285(9) 0.01156 302.4 4.5
305(9) 0.01094 302.3 4.4
280(9) 0.01128 302.3 4.4
293(9) 0.01017 302.2 4.4
292(9) 0.01038 302.1 4.4
305(9) 0.01094 302.1 4.5
306(9) 0.01088 302.0 4.5
298(9) 0.01049 301.9 4.5
304(10) 0.00974 301.9 4.6
297(10) 0.01007 301.8 4.6
284(9) 0.01162 301.7 4.6
303(9) 0.01073 301.7 4.7
296(9) 0.01033 301.6 4.8
305(10) 0.00959 301.5 4.8
315(10) 0.00980 301.5 4.9
304(9) 0.01101 301.4 5.0
310(9) 0.01044 301.3 5.1
299(9) 0.01030 301.3 5.1
303(9) 0.01024 301.2 5.2
304(9) 0.01050 301.1 5.3
310(9) 0.01090 301.1 5.4
333(10) 0.00942 301.0 5.5
311(9) 0.01015 300.9 5.7
284(9) 0.01096 300.9 5.8
295(9) 0.01083 300.8 5.9
289(9) 0.01144 300.7 6.0
290(9) 0.01093 300.7 6.2
306(9) 0.01028 300.6 6.3
308(9) 0.01044 300.5 6.4
306(9) 0.01086 300.5 6.6
301(9) 0.01120 300.4 6.7
301(10) 0.00995 300.4 6.9
318(10) 0.00935 300.3 7.0
309(9) 0.01013 300.2 7.2
288(9) 0.01140 300.2 7.4
294(9) 0.01138 300.1 7.5
308(10) 0.00999 300.1 7.7
281(9) 0.01080 300.0 7.9
317(10) 0.00965 299.9 8.0
306(9) 0.01080 299.9 8.2
325(9) 0.01032 299.8 8.4
311(9) 0.01011 299.8 8.6
322(10) 0.00934 299.7 8.7
299(9) 0.01048 299.6 8.9
301(9) 0.01110 299.6 9.0
312(9) 0.01069 299.5 9.2
324(10) 0.00959 299.5 9.4
319(10) 0.00890 299.4 9.5
320(10) 0.00939 299.3 9.6
292(9) 0.01138 299.3 9.8
278(9) 0.01202 299.2 9.9
298(9) 0.01084 299.2 10.0
299(9) 0.01050 299.1 10.1
323(10) 0.00988 299.0 10.2
314(9) 0.01079 299.0 10.3
295(9) 0.01115 298.9 10.4
291(9) 0.01092 298.9 10.5
295(10) 0.00995 298.8 10.5
288(9) 0.01097 298.7 10.6
300(9) 0.01097 298.7 10.6
323(9) 0.01032 298.6 10.6
301(9) 0.01055 298.6 10.7
307(9) 0.01017 298.5 10.7
323(10) 0.00964 298.5 10.7
319(9) 0.01051 298.4 10.8
307(9) 0.01046 298.3 10.8
294(9) 0.01085 298.3 10.8
312(10) 0.00995 298.2 10.8
310(9) 0.01015 298.2 10.8
305(9) 0.01101 298.1 10.9
288(9) 0.01108 298.0 10.9
313(10) 0.01001 298.0 11.0
310(10) 0.00996 297.9 11.0
303(9) 0.01058 297.9 11.1
307(9) 0.01097 297.8 11.2
302(9) 0.01070 297.7 11.2
324(10) 0.00937 297.7 11.4
290(9) 0.01091 297.6 11.5
301(9) 0.01081 297.6 11.6
319(9) 0.01046 297.5 11.7
320(10) 0.00992 297.4 11.9
314(10) 0.00976 297.4 12.1
323(10) 0.00974 297.3 12.3
316(9) 0.01059 297.3 12.5
314(9) 0.01055 297.2 12.7
289(9) 0.01110 297.1 13.0
334(10) 0.00879 297.1 13.2
316(10) 0.01000 297.0 13.5
319(9) 0.01045 297.0 13.8
301(9) 0.01115 296.9 14.1
305(9) 0.01039 296.8 14.4
317(10) 0.00936 296.8 14.7
309(9) 0.01023 296.7 15.1
303(9) 0.01113 296.7 15.4
293(9) 0.01114 296.6 15.8
323(10) 0.01005 296.5 16.1
317(10) 0.00948 296.5 16.4
310(9) 0.01023 296.4 16.7
335(10) 0.00997 296.4 17.0
351(10) 0.00960 296.3 17.3
339(10) 0.00956 296.2 17.6
364(11) 0.00811 296.2 17.8
322(9) 0.01014 296.1 17.9
331(9) 0.01010 296.1 18.1
335(10) 0.01005 296.0 18.2
338(10) 0.00915 295.9 18.2
310(10) 0.00998 295.9 18.2
332(10) 0.00952 295.8 18.1
336(9) 0.01017 295.8 18.0
346(10) 0.00955 295.7 17.8
340(10) 0.00916 295.6 17.6
332(10) 0.00913 295.6 17.3
333(10) 0.00969 295.5 17.0
319(9) 0.01058 295.5 16.7
301(9) 0.01052 295.4 16.3
315(10) 0.00998 295.3 15.9
305(10) 0.00980 295.3 15.5
301(9) 0.01047 295.2 15.1
295(9) 0.01130 295.2 14.7
290(9) 0.01079 295.1 14.2
311(10) 0.00972 295.0 13.8
299(9) 0.01015 295.0 13.4
317(10) 0.00977 294.9 12.9
337(10) 0.01002 294.9 12.5
299(9) 0.01093 294.8 12.1
296(9) 0.01068 294.7 11.7
318(10) 0.00999 294.7 11.3
323(10) 0.01006 294.6 10.9
307(9) 0.01090 294.6 10.5
296(9) 0.01055 294.5 10.2
284(9) 0.01063 294.4 9.9
311(10) 0.00949 294.4 9.6
301(9) 0.01072 294.3 9.3
318(9) 0.01060 294.3 9.0
309(10) 0.00991 294.2 8.7
295(10) 0.01005 294.1 8.5
305(9) 0.01040 294.1 8.2
317(9) 0.01048 294.0 8.0
308(9) 0.01087 294.0 7.8
301(9) 0.01035 293.9 7.6
291(9) 0.01052 293.9 7.4
317(9) 0.01014 293.8 7.3
290(9) 0.01146 293.7 7.1
308(9) 0.01073 293.7 7.0
288(9) 0.01090 293.6 6.8
295(10) 0.00983 293.6 6.7
292(9) 0.01089 293.5 6.6
295(9) 0.01117 293.4 6.5
297(9) 0.01122 293.4 6.4
318(10) 0.00976 293.3 6.3
316(10) 0.00948 293.3 6.3
305(9) 0.01031 293.2 6.2
278(9) 0.01187 293.1 6.1
297(9) 0.01109 293.1 6.1
321(10) 0.00978 293.0 6.0
310(10) 0.00947 293.0 6.0
285(9) 0.01112 292.9 5.9
303(9) 0.01113 292.8 5.9
281(9) 0.01173 292.8 5.8
304(9) 0.01035 292.7 5.8
282(9) 0.01104 292.7 5.7
304(9) 0.01021 292.6 5.6
287(9) 0.01162 292.5 5.6
294(9) 0.01111 292.5 5.5
297(9) 0.01055 292.4 5.5
298(9) 0.01010 292.4 5.4
308(10) 0.01004 292.3 5.3
307(9) 0.01086 292.2 5.3
316(9) 0.01014 292.2 5.2
280(9) 0.01141 292.1 5.1
285(9) 0.01083 292.1 5.0
302(9) 0.01046 292.0 4.9
299(9) 0.01123 291.9 4.9
293(9) 0.01082 291.9 4.8
314(10) 0.01001 291.8 4.7
276(9) 0.01181 291.8 4.6
294(9) 0.01104 291.7 4.5
275(9) 0.01206 291.6 4.4
267(9) 0.01167 291.6 4.3
301(10) 0.00989 291.5 4.2
292(9) 0.01113 291.5 4.1
300(9) 0.01097 291.4 4.1
291(9) 0.01140 291.3 4.0
283(9) 0.01107 291.3 3.9
288(9) 0.01010 291.2 3.8
281(9) 0.01117 291.2 3.7
296(9) 0.01115 291.1 3.7
297(9) 0.01126 291.0 3.6
313(10) 0.00993 291.0 3.5
294(9) 0.01022 290.9 3.4
287(9) 0.01088 290.9 3.4
301(9) 0.01092 290.8 3.3
283(9) 0.01175 290.7 3.2
279(9) 0.01124 290.7 3.2
295(9) 0.01018 290.6 3.1
306(9) 0.01068 290.6 3.1
286(9) 0.01154 290.5 3.0
285(9) 0.01181 290.4 3.0
297(9) 0.01066 290.4 2.9
309(10) 0.00953 290.3 2.9
286(9) 0.01110 290.3 2.8
311(9) 0.01067 290.2 2.8
275(9) 0.01203 290.1 2.7
292(9) 0.01095 290.1 2.7
312(10) 0.00947 290.0 2.6
296(9) 0.01065 290.0 2.6
285(9) 0.01165 289.9 2.6
294(9) 0.01120 289.8 2.5
286(9) 0.01098 289.8 2.5
278(9) 0.01062 289.7 2.5
290(9) 0.01067 289.7 2.4
310(9) 0.01085 289.6 2.4
302(9) 0.01081 289.6 2.4
298(9) 0.01039 289.5 2.4
292(9) 0.01044 289.4 2.3
295(9) 0.01072 289.4 2.3
292(9) 0.01125 289.3 2.3
293(9) 0.01105 289.3 2.3
276(9) 0.01147 289.2 2.2
294(9) 0.01027 289.1 2.2
275(9) 0.01146 289.1 2.2
297(9) 0.01120 289.0 2.2
302(9) 0.01046 289.0 2.2
295(9) 0.01065 288.9 2.2
281(9) 0.01083 288.8 2.1
270(9) 0.01189 288.8 2.1
258(8) 0.01285 288.7 2.1
293(9) 0.01075 288.7 2.1
300(9) 0.01018 288.6 2.1
264(9) 0.01217 288.5 2.1
276(9) 0.01163 288.5 2.1
308(9) 0.01090 288.4 2.0
290(9) 0.01058 288.4 2.0
283(9) 0.01079 288.3 2.0
272(9) 0.01122 288.2 2.0
257(8) 0.01264 288.2 2.0
275(9) 0.01214 288.1 2.0
280(9) 0.01144 288.1 2.0
311(10) 0.00952 288.0 2.0
293(9) 0.01091 287.9 2.0
274(9) 0.01214 287.9 2.0
282(9) 0.01189 287.8 2.0
287(9) 0.01108 287.8 2.0
298(9) 0.01020 287.7 1.9
297(9) 0.01068 287.6 1.9
305(9) 0.01097 287.6 1.9
287(9) 0.01170 287.5 1.9
277(9) 0.01163 287.5 1.9
286(9) 0.01039 287.4 1.9
290(9) 0.01088 287.3 1.9
289(9) 0.01152 287.3 1.9
292(9) 0.01127 287.2 1.9
300(9) 0.01018 287.2 1.9
314(10) 0.00936 287.1 1.9
299(9) 0.01037 287.0 1.9
261(8) 0.01270 287.0 1.9
297(9) 0.01092 286.9 1.9
293(9) 0.01055 286.9 1.9
290(9) 0.01039 286.8 1.9
288(9) 0.01130 286.7 1.9
276(9) 0.01205 286.7 1.9
268(9) 0.01216 286.6 1.9
255(8) 0.01272 286.6 1.9
287(9) 0.01062 286.5 1.9
299(9) 0.01051 286.4 1.9
293(9) 0.01148 286.4 1.9
305(9) 0.01085 286.3 1.9
272(9) 0.01199 286.3 1.9
263(9) 0.01147 286.2 1.9
286(9) 0.01085 286.1 1.9
269(9) 0.01212 286.1 1.9
281(9) 0.01136 286.0 1.9
284(9) 0.01109 286.0 1.9
296(9) 0.01017 285.9 1.9
265(9) 0.01178 285.8 1.9
262(8) 0.01268 285.8 1.9
295(9) 0.01088 285.7 1.9
286(9) 0.01043 285.7 1.9
288(9) 0.01086 285.6 1.9
282(9) 0.01178 285.5 1.9
285(9) 0.01169 285.5 1.9
297(9) 0.01009 285.4 1.9
274(9) 0.01144 285.4 1.9
302(9) 0.01047 285.3 1.9
305(9) 0.01075 285.3 2.0
298(9) 0.01121 285.2 2.0
291(9) 0.01052 285.1 2.0
271(9) 0.01060 285.1 2.0
280(9) 0.01074 285.0 2.0
295(9) 0.01117 285.0 2.0
281(9) 0.01178 284.9 2.0
274(9) 0.01147 284.8 2.0
280(9) 0.01062 284.8 2.0
275(9) 0.01144 284.7 2.0
282(9) 0.01153 284.7 2.0
268(8) 0.01250 284.6 2.0
286(9) 0.01033 284.5 2.0
275(9) 0.01028 284.5 2.0
275(9) 0.01147 284.4 2.1
286(9) 0.01151 284.4 2.1
282(9) 0.01184 284.3 2.1
268(9) 0.01186 284.2 2.1
292(10) 0.00981 284.2 2.1
277(9) 0.01108 284.1 2.1
278(9) 0.01200 284.1 2.1
268(9) 0.01229 284.0 2.1
278(9) 0.01165 283.9 2.1
278(9) 0.01072 283.9 2.2
281(9) 0.01097 283.8 2.2
276(9) 0.01207 283.8 2.2
288(9) 0.01103 283.7 2.2
296(9) 0.01027 283.6 2.2
280(9) 0.01091 283.6 2.2
276(9) 0.01120 283.5 2.2
265(8) 0.01251 283.5 2.3
285(9) 0.01154 283.4 2.3
296(9) 0.01060 283.3 2.3
273(9) 0.01142 283.3 2.3
271(9) 0.01151 283.2 2.3
258(8) 0.01277 283.2 2.3
292(9) 0.01086 283.1 2.4
269(9) 0.01150 283.0 2.4
255(8) 0.01237 283.0 2.4
258(8) 0.01234 282.9 2.4
285(9) 0.01176 282.9 2.5
284(9) 0.01132 282.8 2.5
286(9) 0.01081 282.7 2.5
275(9) 0.01101 282.7 2.5
282(9) 0.01145 282.6 2.6
312(9) 0.01069 282.6 2.6
281(9) 0.01105 282.5 2.6
302(10) 0.00984 282.4 2.6
294(9) 0.01037 282.4 2.7
299(9) 0.01096 282.3 2.7
278(9) 0.01184 282.3 2.8
293(9) 0.01052 282.2 2.8
284(9) 0.01064 282.1 2.8
285(9) 0.01110 282.1 2.9
292(9) 0.01136 282.0 2.9
284(9) 0.01164 282.0 3.0
274(9) 0.01148 281.9 3.0
295(10) 0.00985 281.8 3.1
296(9) 0.01064 281.8 3.2
271(9) 0.01211 281.7 3.2
298(9) 0.01126 281.7 3.3
308(9) 0.01013 281.6 3.3
277(9) 0.01093 281.5 3.4
284(9) 0.01078 281.5 3.5
264(9) 0.01225 281.4 3.6
286(9) 0.01176 281.4 3.7
274(9) 0.01165 281.3 3.7
275(9) 0.01094 281.2 3.8
284(9) 0.01113 281.2 3.9
284(9) 0.01179 281.1 4.0
282(9) 0.01162 281.1 4.1
295(9) 0.01062 281.0 4.3
293(9) 0.01013 280.9 4.4
306(9) 0.01020 280.9 4.5
280(9) 0.01198 280.9 4.6
288(9) 0.01122 280.9 4.8
288(9) 0.01099 280.9 4.9
264(9) 0.01139 280.9 5.1
277(9) 0.01107 281.0 5.2
274(9) 0.01224 281.0 5.4
277(9) 0.01207 281.0 5.5
271(9) 0.01169 281.1 5.7
271(9) 0.01103 281.1 5.8
284(9) 0.01082 281.1 6.0
267(8) 0.01242 281.1 6.2
286(9) 0.01111 281.2 6.3
295(9) 0.01055 281.2 6.5
294(9) 0.01063 281.2 6.6
287(9) 0.01102 281.2 6.8
277(9) 0.01189 281.3 6.9
266(9) 0.01198 281.3 7.0
267(9) 0.01171 281.3 7.1
305(9) 0.01030 281.3 7.2
290(9) 0.01125 281.4 7.2
292(9) 0.01147 281.4 7.3
278(9) 0.01094 281.4 7.3
266(9) 0.01131 281.4 7.3
294(9) 0.01047 281.5 7.3
282(9) 0.01143 281.5 7.2
261(8) 0.01268 281.5 7.2
291(9) 0.01028 281.5 7.1
291(9) 0.01018 281.6 7.0
298(9) 0.01053 281.6 6.9
289(9) 0.01123 281.6 6.8
261(8) 0.01261 281.6 6.7
281(9) 0.01096 281.7 6.6
298(9) 0.01044 281.7 6.5
302(9) 0.01040 281.7 6.4
291(9) 0.01135 281.7 6.3
279(9) 0.01190 281.8 6.2
296(9) 0.01051 281.8 6.1
281(9) 0.01037 281.8 6.0
273(9) 0.01155 281.8 5.9
277(9) 0.01163 281.9 5.8
314(9) 0.01062 281.9 5.7
300(9) 0.01035 281.9 5.7
283(9) 0.01037 281.9 5.6
295(9) 0.01070 282.0 5.5
310(9) 0.01061 282.0 5.5
290(9) 0.01138 282.0 5.4
290(9) 0.01110 282.0 5.4
298(10) 0.00977 282.1 5.3
278(9) 0.01111 282.1 5.3
281(9) 0.01178 282.1 5.3
286(9) 0.01152 282.1 5.2
286(9) 0.01089 282.2 5.2
296(10) 0.00988 282.2 5.2
276(9) 0.01123 282.2 5.2
299(9) 0.01119 282.2 5.2
280(9) 0.01166 282.3 5.2
299(9) 0.01060 282.3 5.2
305(9) 0.01025 282.3 5.2
313(10) 0.00999 282.3 5.2
281(9) 0.01171 282.4 5.2
279(9) 0.01181 282.4 5.3
292(9) 0.01018 282.4 5.3
288(9) 0.01047 282.4 5.3
288(9) 0.01099 282.5 5.3
296(9) 0.01125 282.5 5.4
298(9) 0.01072 282.5 5.4
292(9) 0.01105 282.5 5.5
295(9) 0.01049 282.6 5.5
298(9) 0.01054 282.6 5.6
268(8) 0.01232 282.6 5.6
269(9) 0.01125 282.6 5.7
271(9) 0.01157 282.7 5.7
295(9) 0.01070 282.7 5.8
288(9) 0.01098 282.7 5.9
308(9) 0.01093 282.7 6.0
289(9) 0.01013 282.8 6.0
277(9) 0.01103 282.8 6.1
267(9) 0.01175 282.8 6.2
261(9) 0.01213 282.8 6.3
300(9) 0.01127 282.9 6.4
295(9) 0.01031 282.9 6.5
305(10) 0.00998 282.9 6.6
312(10) 0.00986 283.0 6.7
284(9) 0.01149 283.0 6.8
294(9) 0.01119 283.0 6.9
260(9) 0.01210 283.0 7.0
263(9) 0.01110 283.1 7.1
287(9) 0.01067 283.1 7.2
284(9) 0.01170 283.1 7.4
304(9) 0.01105 283.1 7.5
270(9) 0.01155 283.2 7.6
296(10) 0.00959 283.2 7.8
285(9) 0.01117 283.2 7.9
304(9) 0.01104 283.2 8.1
275(9) 0.01194 283.3 8.2
273(9) 0.01135 283.3 8.4
270(9) 0.01134 283.3 8.6
296(9) 0.01053 283.3 8.7
269(8) 0.01244 283.4 8.9
306(9) 0.01082 283.4 9.1
285(9) 0.01118 283.4 9.3
278(9) 0.01114 283.4 9.5
294(9) 0.01082 283.5 9.7
278(9) 0.01191 283.5 9.9
279(9) 0.01181 283.5 10.2
291(9) 0.01063 283.5 10.4
284(9) 0.01076 283.6 10.6
297(9) 0.01064 283.6 10.9
300(9) 0.01120 283.6 11.2
292(9) 0.01101 283.6 11.4
277(9) 0.01116 283.7 11.7
272(9) 0.01118 283.7 12.0
280(9) 0.01089 283.7 12.3
302(9) 0.01106 283.7 12.7
278(9) 0.01114 283.8 13.0
287(9) 0.01057 283.8 13.4
312(10) 0.01001 283.8 13.7
320(9) 0.01031 283.8 14.1
300(9) 0.01108 283.9 14.5
326(10) 0.00967 283.9 14.9
290(9) 0.01062 283.9 15.4
286(9) 0.01054 283.9 15.8
304(9) 0.01052 284.0 16.3
290(9) 0.01146 284.0 16.8
321(10) 0.00982 284.0 17.4
289(9) 0.01084 284.0 17.9
308(9) 0.01016 284.1 18.5
323(9) 0.01015 284.1 19.1
327(9) 0.01018 284.1 19.8
289(9) 0.01073 284.1 20.5
283(9) 0.01071 284.2 21.2
302(9) 0.01046 284.2 22.0
309(9) 0.01082 284.2 22.8
311(9) 0.01086 284.2 23.7
298(9) 0.01067 284.3 24.6
307(10) 0.00977 284.3 25.6
309(9) 0.01014 284.3 26.6
301(9) 0.01111 284.3 27.7
305(9) 0.01092 284.4 28.9
319(9) 0.01036 284.4 30.2
328(10) 0.00914 284.4 31.5
311(9) 0.01017 284.4 33.0
321(9) 0.01047 284.5 34.6
323(9) 0.01038 284.5 36.3
307(9) 0.01063 284.5 38.2
314(10) 0.00948 284.5 40.3
335(10) 0.00938 284.6 42.5
345(10) 0.00986 284.6 45.1
338(10) 0.00990 284.6 47.9
343(10) 0.00948 284.6 51.0
337(10) 0.00947 284.7 54.6
344(10) 0.00938 284.7 58.7
341(10) 0.00987 284.7 63.3
370(10) 0.00899 284.7 68.6
371(11) 0.00838 284.8 74.7
368(11) 0.00829 284.8 81.8
374(10) 0.00854 284.8 89.9
397(10) 0.00869 284.9 99.3
422(11) 0.00797 284.9 110.0
412(11) 0.00777 284.9 122.2
418(11) 0.00748 284.9 136.2
425(11) 0.00733 285.0 151.9
441(11) 0.00790 285.0 169.6
494(12) 0.00669 285.0 189.2
524(12) 0.00611 285.0 210.8
523(12) 0.00622 285.1 234.3
552(13) 0.00592 285.1 259.4
553(12) 0.00633 285.1 285.8
614(13) 0.00543 285.1 313.0
599(13) 0.00551 285.2 340.0
635(14) 0.00522 285.2 365.8
702(14) 0.00484 285.2 389.3
694(14) 0.00511 285.2 409.2
704(14) 0.00481 285.3 424.6
711(14) 0.00457 285.3 435.0
698(14) 0.00483 285.3 440.4
672(14) 0.00516 285.3 441.3
685(14) 0.00513 285.4 438.6
689(14) 0.00480 285.4 433.0
680(14) 0.00466 285.4 425.0
676(14) 0.00501 285.4 415.0
717(14) 0.00487 285.5 403.0
708(14) 0.00504 285.5 388.9
715(14) 0.00463 285.5 372.6
686(14) 0.00467 285.5 354.1
649(14) 0.00517 285.6 333.8
632(13) 0.00559 285.6 312.0
624(13) 0.00562 285.6 289.4
592(13) 0.00559 285.6 266.7
604(14) 0.00505 285.7 244.3
534(12) 0.00617 285.7 222.8
490(11) 0.00713 285.7 202.4
437(11) 0.00781 285.7 183.5
437(11) 0.00760 285.8 166.0
453(12) 0.00665 285.8 150.1
408(11) 0.00808 285.8 135.7
409(11) 0.00826 285.8 122.7
382(10) 0.00887 285.9 111.1
376(10) 0.00861 285.9 100.8
351(10) 0.00858 285.9 91.6
342(10) 0.00928 285.9 83.4
377(10) 0.00911 286.0 76.2
379(10) 0.00878 286.0 69.9
372(10) 0.00853 286.0 64.3
348(10) 0.00866 286.0 59.4
343(10) 0.00910 286.1 55.0
339(10) 0.00993 286.1 51.2
344(10) 0.00969 286.1 47.7
321(10) 0.00978 286.1 44.7
322(10) 0.00987 286.2 42.0
343(10) 0.00916 286.2 39.6
331(10) 0.01007 286.2 37.4
318(9) 0.01035 286.2 35.4
314(10) 0.01003 286.3 33.6
306(9) 0.01013 286.3 32.0
344(10) 0.00937 286.3 30.4
327(9) 0.01028 286.3 29.1
326(10) 0.00986 286.4 27.8
319(10) 0.00971 286.4 26.6
302(9) 0.01056 286.4 25.5
310(9) 0.01026 286.4 24.5
324(9) 0.01044 286.5 23.6
327(10) 0.00960 286.5 22.7
296(9) 0.01071 286.5 21.9
310(9) 0.01024 286.5 21.1
315(9) 0.01024 286.6 20.4
324(9) 0.01034 286.6 19.7
315(10) 0.00991 286.6 19.1
289(9) 0.01057 286.6 18.5
308(9) 0.01044 286.7 17.9
300(9) 0.01095 286.7 17.4
288(9) 0.01163 286.7 16.9
304(9) 0.01046 286.8 16.4
310(10) 0.00974 286.8 16.0
311(9) 0.01015 286.8 15.6
296(9) 0.01113 286.8 15.2
271(9) 0.01221 286.9 14.9
294(9) 0.01076 286.9 14.5
314(10) 0.00945 286.9 14.2
320(9) 0.01022 286.9 13.9
304(9) 0.01093 287.0 13.7
295(9) 0.01115 287.0 13.4
304(9) 0.01039 287.0 13.2
287(9) 0.01044 287.0 13.0
298(9) 0.01059 287.1 12.8
313(9) 0.01072 287.1 12.6
308(9) 0.01096 287.1 12.5
302(9) 0.01047 287.1 12.4
281(9) 0.01040 287.2 12.3
296(9) 0.01051 287.2 12.2
284(9) 0.01160 287.2 12.2
292(9) 0.01115 287.2 12.1
307(9) 0.01074 287.3 12.2
312(10) 0.00982 287.3 12.2
283(9) 0.01096 287.3 12.3
302(9) 0.01108 287.3 12.4
299(9) 0.01092 287.4 12.6
305(9) 0.01036 287.4 12.8
302(10) 0.01000 287.4 13.2
323(10) 0.00963 287.4 13.7
296(9) 0.01117 287.5 14.3
304(9) 0.01078 287.5 15.3
311(10) 0.00980 287.5 16.5
306(10) 0.01007 287.5 18.3
326(10) 0.00962 287.6 20.7
328(9) 0.01042 287.6 23.9
355(10) 0.00897 287.6 28.1
348(10) 0.00899 287.6 33.4
328(10) 0.00958 287.7 40.0
368(10) 0.00876 287.7 47.8
368(10) 0.00922 287.7 56.7
352(10) 0.00938 287.7 66.5
358(10) 0.00871 287.8 76.6
389(11) 0.00803 287.8 86.4
400(11) 0.00831 287.8 94.8
427(11) 0.00796 287.8 100.7
394(11) 0.00804 287.9 102.9
391(11) 0.00773 287.9 101.1
399(11) 0.00778 287.9 95.5
346(10) 0.00950 287.9 87.3
355(10) 0.00961 288.0 77.5
360(10) 0.00902 288.0 67.1
346(10) 0.00897 288.0 57.1
322(10) 0.01000 288.0 47.9
331(10) 0.00992 288.1 39.8
311(9) 0.01075 288.1 32.9
316(10) 0.00991 288.1 27.3
320(10) 0.00927 288.1 22.8
318(9) 0.01015 288.2 19.3
309(9) 0.01078 288.2 16.6
319(9) 0.01040 288.2 14.6
294(9) 0.01031 288.2 13.1
299(10) 0.00966 288.3 12.0
304(9) 0.01037 288.3 11.1
316(9) 0.01042 288.3 10.4
315(9) 0.01055 288.3 9.9
309(10) 0.01001 288.4 9.4
308(10) 0.00958 288.4 9.0
323(10) 0.00957 288.4 8.7
304(9) 0.01103 288.4 8.4
292(9) 0.01133 288.5 8.1
320(10) 0.00963 288.5 7.9
297(10) 0.00969 288.5 7.7
281(9) 0.01082 288.5 7.5
283(9) 0.01184 288.6 7.3
280(9) 0.01175 288.6 7.2
301(9) 0.01026 288.6 7.0
279(9) 0.01098 288.7 6.9
305(9) 0.01040 288.7 6.8
293(9) 0.01117 288.7 6.7
288(9) 0.01122 288.7 6.6
308(10) 0.00989 288.8 6.5
272(9) 0.01139 288.8 6.4
277(9) 0.01134 288.8 6.3
264(8) 0.01240 288.8 6.3
264(8) 0.01233 288.9 6.2
274(9) 0.01155 288.9 6.1
293(9) 0.01061 288.9 6.1
298(9) 0.01074 288.9 6.0
295(9) 0.01130 289.0 6.0
289(9) 0.01062 289.0 6.0
294(9) 0.01051 289.0 5.9
305(9) 0.01045 289.0 5.9
313(9) 0.01019 289.1 5.8
293(9) 0.01135 289.1 5.8
298(9) 0.01064 289.1 5.8
305(10) 0.00968 289.1 5.8
269(9) 0.01171 289.2 5.8
312(9) 0.01031 289.2 5.7
303(9) 0.01107 289.2 5.7
278(9) 0.01086 289.2 5.7
290(9) 0.01027 289.3 5.7
313(10) 0.00994 289.3 5.7
321(10) 0.00990 289.3 5.7
290(9) 0.01168 289.3 5.7
290(9) 0.01080 289.4 5.7
322(10) 0.00948 289.4 5.7
269(9) 0.01189 289.4 5.7
287(9) 0.01145 289.4 5.7
309(9) 0.01082 289.5 5.7
310(9) 0.01008 289.5 5.7
300(10) 0.00997 289.5 5.7
303(9) 0.01039 289.5 5.8
289(9) 0.01141 289.6 5.8
300(9) 0.01112 289.6 5.8
285(9) 0.01107 289.6 5.8
305(10) 0.00940 289.6 5.8
289(9) 0.01103 289.7 5.9
287(9) 0.01169 289.7 5.9
292(9) 0.01128 289.7 5.9
271(9) 0.01168 289.7 5.9
307(10) 0.00976 289.8 6.0
289(9) 0.01102 289.8 6.0
302(9) 0.01113 289.8 6.0
300(9) 0.01094 289.8 6.1
291(9) 0.01106 289.9 6.1
311(10) 0.00971 289.9 6.2
283(9) 0.01101 289.9 6.2
308(9) 0.01091 289.9 6.3
280(9) 0.01171 290.0 6.3
308(9) 0.01034 290.0 6.4
310(10) 0.00985 290.0 6.4
303(9) 0.01021 290.0 6.5
320(9) 0.01050 290.1 6.5
299(9) 0.01095 290.1 6.6
297(9) 0.01043 290.1 6.7
282(9) 0.01081 290.1 6.7
287(9) 0.01085 290.2 6.8
292(9) 0.01147 290.2 6.9
299(9) 0.01038 290.2 6.9
276(9) 0.01081 290.2 7.0
297(9) 0.01012 290.2 7.1
304(9) 0.01045 290.2 7.2
313(9) 0.01072 290.2 7.2
276(9) 0.01108 290.2 7.3
270(9) 0.01119 290.2 7.4
314(10) 0.00995 290.2 7.5
309(9) 0.01068 290.2 7.6
276(9) 0.01202 290.2 7.7
315(10) 0.00980 290.2 7.8
287(9) 0.01051 290.2 7.9
322(10) 0.00954 290.3 8.0
319(9) 0.01056 290.3 8.1
316(9) 0.01064 290.3 8.2
294(9) 0.01084 290.3 8.3
288(9) 0.01068 290.3 8.4
300(9) 0.01037 290.3 8.5
287(9) 0.01153 290.3 8.6
298(9) 0.01128 290.3 8.7
306(9) 0.01051 290.3 8.9
312(10) 0.00941 290.3 9.0
304(10) 0.01002 290.3 9.1
284(9) 0.01185 290.3 9.2
292(9) 0.01154 290.3 9.4
320(10) 0.00979 290.3 9.5
300(9) 0.01009 290.3 9.6
300(9) 0.01101 290.3 9.8
302(9) 0.01097 290.3 9.9
291(9) 0.01146 290.3 10.0
313(9) 0.01021 290.3 10.2
312(10) 0.00964 290.3 10.3
321(9) 0.01014 290.3 10.4
313(9) 0.01064 290.3 10.6
280(9) 0.01185 290.3 10.7
289(9) 0.01104 290.4 10.8
309(10) 0.00965 290.4 11.0
307(9) 0.01014 290.4 11.1
313(9) 0.01071 290.4 11.2
320(9) 0.01035 290.4 11.4
273(9) 0.01170 290.4 11.5
300(9) 0.01039 290.4 11.6
313(9) 0.01026 290.4 11.7
326(9) 0.01035 290.4 11.9
291(9) 0.01121 290.4 12.0
288(9) 0.01062 290.4 12.1
275(9) 0.01137 290.4 12.2
279(9) 0.01108 290.4 12.3
309(9) 0.01078 290.4 12.5
307(9) 0.01049 290.4 12.6
286(9) 0.01070 290.4 12.7
276(9) 0.01121 290.4 12.8
306(9) 0.01051 290.4 12.9
294(9) 0.01133 290.4 13.0
302(9) 0.01036 290.4 13.1
318(10) 0.00948 290.4 13.3
319(10) 0.00967 290.4 13.4
307(9) 0.01080 290.4 13.5
323(9) 0.01046 290.4 13.6
303(10) 0.01007 290.5 13.8
298(9) 0.01016 290.5 13.9
301(9) 0.01032 290.5 14.1
302(9) 0.01097 290.5 14.2
288(9) 0.01157 290.5 14.4
324(10) 0.00941 290.5 14.5
325(10) 0.00918 290.5 14.7
304(9) 0.01045 290.5 14.9
324(10) 0.01006 290.5 15.1
321(9) 0.01066 290.5 15.3
300(9) 0.01057 290.5 15.5
302(10) 0.00945 290.5 15.8
306(9) 0.01021 290.5 16.0
328(9) 0.01024 290.5 16.3
295(9) 0.01126 290.5 16.6
301(9) 0.01037 290.5 17.0
322(10) 0.00891 290.5 17.3
306(9) 0.01039 290.5 17.7
321(9) 0.01048 290.5 18.1
323(9) 0.01030 290.5 18.6
313(9) 0.01013 290.5 19.1
297(9) 0.01018 290.5 19.6
297(9) 0.01077 290.5 20.1
319(9) 0.01062 290.5 20.8
328(9) 0.01008 290.6 21.4
321(10) 0.00976 290.6 22.2
294(10) 0.00991 290.6 23.0
287(9) 0.01100 290.6 23.8
308(9) 0.01084 290.6 24.8
322(9) 0.01029 290.6 25.9
303(9) 0.01041 290.6 27.0
311(10) 0.01006 290.6 28.3
309(9) 0.01012 290.6 29.7
313(9) 0.01085 290.6 31.3
333(10) 0.00963 290.6 33.2
342(10) 0.00894 290.6 35.5
336(10) 0.00922 290.6 38.3
341(10) 0.00934 290.6 41.9
356(10) 0.00951 290.6 46.7
376(10) 0.00864 290.6 53.3
382(11) 0.00830 290.6 62.3
412(11) 0.00733 290.6 74.6
380(11) 0.00834 290.6 91.1
377(10) 0.00901 290.6 112.5
416(11) 0.00783 290.6 139.3
468(12) 0.00652 290.6 171.5
511(12) 0.00609 290.6 208.3
540(12) 0.00628 290.6 247.9
561(12) 0.00625 290.7 287.7
607(13) 0.00540 290.7 323.7
662(14) 0.00480 290.7 351.3
691(14) 0.00477 290.7 365.8
705(14) 0.00489 290.7 364.4
713(14) 0.00497 290.7 347.9
668(14) 0.00497 290.7 319.5
638(14) 0.00489 290.7 284.3
570(13) 0.00579 290.7 246.5
531(12) 0.00655 290.7 209.9
509(12) 0.00681 290.7 176.6
469(12) 0.00691 290.7 148.1
465(12) 0.00665 290.7 125.0
454(11) 0.00719 290.7 107.0
459(11) 0.00733 290.7 93.6
422(11) 0.00819 290.7 84.0
430(11) 0.00727 290.7 77.3
404(11) 0.00765 290.7 72.7
407(11) 0.00779 290.7 69.5
387(10) 0.00883 290.7 67.4
335(10) 0.00997 290.7 66.0
368(10) 0.00881 290.7 65.0
372(11) 0.00803 290.7 64.3
351(10) 0.00914 290.7 63.8
359(10) 0.00940 290.8 63.6
365(10) 0.00928 290.8 63.5
378(11) 0.00827 290.8 63.5
351(10) 0.00861 290.8 63.7
369(10) 0.00857 290.8 63.9
387(10) 0.00880 290.8 64.3
366(10) 0.00902 290.8 64.8
353(10) 0.00906 290.8 65.3
372(11) 0.00808 290.8 65.8
354(10) 0.00900 290.8 66.5
377(10) 0.00909 290.8 67.1
365(10) 0.00907 290.8 67.7
356(10) 0.00921 290.8 68.2
369(10) 0.00839 290.8 68.7
366(10) 0.00870 290.8 69.2
384(10) 0.00886 290.8 69.5
363(10) 0.00896 290.8 69.7
365(10) 0.00866 290.8 69.8
363(10) 0.00849 290.8 69.7
378(11) 0.00827 290.8 69.5
384(10) 0.00895 290.8 69.2
382(11) 0.00835 290.8 68.7
406(11) 0.00773 290.8 68.1
360(10) 0.00886 290.8 67.4
362(10) 0.00907 290.9 66.6
351(10) 0.00970 290.9 65.7
336(10) 0.00913 290.9 64.6
359(10) 0.00846 290.9 63.5
367(10) 0.00839 290.9 62.3
363(10) 0.00891 290.9 61.0
328(9) 0.01031 290.9 59.4
356(10) 0.00892 290.9 57.8
344(10) 0.00897 290.9 55.9
357(10) 0.00900 290.9 54.0
366(10) 0.00902 290.9 52.1
321(9) 0.01041 290.9 50.1
338(10) 0.00942 290.9 48.2
338(10) 0.00913 290.9 46.4
374(10) 0.00856 290.9 44.6
322(9) 0.01039 290.9 43.0
341(10) 0.00984 290.9 41.5
335(10) 0.00951 290.9 40.1
308(10) 0.00984 290.9 38.8
322(10) 0.01000 290.9 37.6
317(9) 0.01062 290.9 36.5
333(9) 0.01022 290.9 35.5
344(10) 0.00913 290.9 34.6
324(10) 0.00913 290.9 33.7
322(10) 0.00989 291.0 33.0
314(9) 0.01077 291.0 32.3
327(9) 0.01024 291.0 31.6
319(10) 0.00989 291.0 31.1
349(10) 0.00859 291.0 30.6
329(10) 0.00978 291.0 30.1
352(10) 0.00957 291.0 29.7
331(10) 0.00993 291.0 29.4
311(9) 0.01009 291.0 29.1
320(10) 0.00951 291.0 28.8
321(10) 0.00991 291.0 28.6
318(9) 0.01058 291.0 28.5
323(9) 0.01025 291.0 28.4
343(10) 0.00921 291.0 28.3
353(10) 0.00863 291.0 28.3
310(9) 0.01028 291.0 28.3
313(9) 0.01076 291.0 28.4
312(9) 0.01033 291.0 28.5
310(10) 0.00996 291.0 28.7
320(10) 0.00929 291.0 28.9
325(10) 0.00985 291.0 29.1
336(9) 0.01010 291.0 29.4
320(9) 0.01012 291.0 29.7
307(9) 0.01052 291.0 30.1
338(10) 0.00923 291.1 30.5
327(10) 0.00973 291.1 31.0
309(9) 0.01085 291.1 31.5
316(10) 0.00999 291.1 32.1
326(10) 0.00918 291.1 32.8
336(10) 0.00951 291.1 33.5
335(10) 0.00973 291.1 34.2
349(10) 0.00971 291.1 35.1
339(10) 0.00922 291.1 36.0
345(10) 0.00908 291.1 37.0
332(10) 0.00959 291.1 38.1
310(9) 0.01088 291.1 39.3
347(10) 0.00978 291.1 40.6
371(10) 0.00853 291.1 42.0
356(10) 0.00860 291.1 43.5
338(10) 0.00934 291.1 45.2
344(10) 0.00958 291.1 46.9
347(10) 0.00977 291.1 48.9
323(9) 0.01022 291.1 51.0
342(10) 0.00870 291.1 53.2
344(10) 0.00915 291.1 55.7
374(10) 0.00909 291.1 58.3
362(10) 0.00944 291.1 61.1
351(10) 0.00938 291.2 64.2
378(11) 0.00775 291.2 67.4
366(10) 0.00882 291.2 70.8
353(10) 0.00968 291.2 74.5
384(10) 0.00879 291.2 78.3
362(10) 0.00892 291.2 82.4
395(11) 0.00781 291.2 86.7
418(11) 0.00774 291.2 91.1
416(11) 0.00823 291.2 95.7
395(10) 0.00849 291.2 100.4
364(10) 0.00883 291.2 105.2
368(10) 0.00855 291.2 110.0
434(11) 0.00738 291.2 114.8
417(11) 0.00815 291.2 119.5
399(10) 0.00841 291.2 124.0
430(11) 0.00743 291.2 128.2
436(11) 0.00759 291.2 132.2
435(11) 0.00768 291.2 135.8
429(11) 0.00807 291.2 139.0
461(11) 0.00730 291.2 142.0
456(11) 0.00717 291.2 144.7
447(11) 0.00720 291.2 147.3
460(11) 0.00717 291.2 149.8
485(11) 0.00719 291.2 152.6
458(11) 0.00730 291.3 155.6
458(12) 0.00695 291.3 159.2
462(11) 0.00710 291.3 163.5
474(11) 0.00719 291.3 168.5
453(11) 0.00765 291.3 174.5
458(11) 0.00713 291.3 181.4
467(12) 0.00665 291.3 189.1
463(12) 0.00690 291.3 197.7
486(12) 0.00686 291.3 206.9
485(11) 0.00716 291.3 216.3
510(12) 0.00621 291.3 225.4
525(13) 0.00585 291.3 233.6
546(13) 0.00581 291.3 240.2
497(12) 0.00688 291.3 244.5
507(12) 0.00690 291.3 246.1
505(12) 0.00641 291.3 244.9
536(13) 0.00579 291.3 241.2
522(12) 0.00630 291.3 235.5
488(12) 0.00704 291.3 228.5
480(11) 0.00720 291.3 221.1
486(12) 0.00672 291.3 213.8
481(12) 0.00625 291.3 207.0
468(12) 0.00693 291.3 201.2
501(12) 0.00689 291.3 196.4
479(11) 0.00711 291.4 192.9
486(12) 0.00674 291.4 190.8
476(12) 0.00643 291.4 189.9
469(12) 0.00699 291.4 190.3
498(12) 0.00694 291.4 192.0
498(12) 0.00682 291.4 194.7
486(12) 0.00677 291.4 198.5
481(12) 0.00654 291.4 203.1
533(12) 0.00615 291.4 208.5
519(12) 0.00674 291.4 214.5
523(12) 0.00660 291.4 220.9
561(13) 0.00588 291.4 227.5
543(12) 0.00609 291.4 234.2
585(13) 0.00565 291.4 240.7
534(12) 0.00656 291.4 246.9
588(13) 0.00584 291.4 252.5
582(13) 0.00574 291.4 257.3
569(13) 0.00568 291.4 261.1
573(13) 0.00577 291.4 263.9
563(12) 0.00621 291.4 265.3
549(12) 0.00616 291.4 265.5
538(12) 0.00618 291.4 264.3
550(13) 0.00589 291.4 261.7
528(12) 0.00630 291.4 257.8
501(12) 0.00692 291.5 252.7
508(12) 0.00654 291.5 246.5
538(13) 0.00597 291.5 239.3
517(12) 0.00637 291.5 231.3
523(12) 0.00625 291.5 222.7
493(11) 0.00710 291.5 213.7
480(12) 0.00699 291.5 204.3
503(12) 0.00637 291.5 194.8
483(12) 0.00678 291.5 185.3
458(11) 0.00745 291.5 175.9
468(11) 0.00745 291.5 166.7
426(11) 0.00769 291.5 157.8
421(11) 0.00756 291.5 149.3
439(11) 0.00746 291.5 141.1
407(11) 0.00834 291.5 133.2
424(11) 0.00806 291.5 125.8
432(11) 0.00734 291.5 118.8
410(11) 0.00759 291.5 112.2
386(11) 0.00834 291.5 106.0
392(10) 0.00864 291.5 100.1
388(10) 0.00892 291.5 94.7
372(10) 0.00840 291.5 89.6
379(11) 0.00777 291.5 84.8
383(11) 0.00813 291.5 80.4
354(10) 0.00950 291.6 76.3
373(10) 0.00891 291.6 72.5
331(10) 0.00991 291.6 68.9
365(11) 0.00823 291.6 65.6
383(11) 0.00826 291.6 62.6
352(10) 0.00964 291.6 59.7
360(10) 0.00931 291.6 57.1
326(10) 0.00988 291.6 54.7
339(10) 0.00860 291.6 52.4
341(10) 0.00946 291.6 50.3
354(10) 0.00959 291.6 48.4
349(10) 0.00965 291.6 46.6
348(10) 0.00926 291.6 44.9
348(10) 0.00896 291.6 43.3
336(10) 0.00983 291.6 41.9
332(10) 0.01003 291.6 40.5
338(10) 0.00975 291.6 39.3
319(10) 0.00963 291.6 38.1
355(10) 0.00879 291.6 37.0
349(10) 0.00922 291.6 35.9
357(10) 0.00959 291.6 35.0
309(9) 0.01043 291.6 34.0
303(9) 0.01010 291.6 33.2
324(10) 0.00937 291.6 32.3
326(10) 0.00978 291.7 31.5
316(9) 0.01067 291.7 30.8
315(9) 0.01013 291.7 30.1
324(10) 0.00973 291.7 29.4
360(10) 0.00864 291.7 28.7
338(10) 0.00970 291.7 28.1
351(10) 0.00960 291.7 27.5
319(9) 0.01021 291.7 26.9
320(10) 0.00960 291.7 26.3
335(10) 0.00943 291.7 25.7
329(10) 0.01006 291.7 25.2
320(9) 0.01050 291.7 24.7
341(10) 0.00934 291.7 24.2
325(10) 0.00976 291.7 23.7
328(10) 0.00947 291.7 23.2
313(9) 0.01050 291.7 22.7
311(9) 0.01074 291.7 22.3
337(10) 0.00901 291.7 21.9
317(10) 0.00951 291.7 21.4
301(9) 0.01020 291.7 21.0
285(9) 0.01162 291.7 20.7
308(9) 0.01100 291.7 20.3
329(10) 0.00949 291.7 19.9
285(9) 0.01074 291.7 19.6
312(9) 0.01009 291.8 19.3
313(9) 0.01056 291.8 19.0
308(9) 0.01079 291.8 18.7
301(9) 0.01087 291.8 18.4
342(10) 0.00843 291.8 18.2
307(9) 0.01050 291.8 17.9
291(9) 0.01156 291.8 17.7
303(9) 0.01115 291.8 17.5
318(10) 0.01003 291.8 17.4
314(10) 0.00956 291.8 17.2
305(9) 0.01043 291.8 17.1
304(9) 0.01112 291.8 17.0
312(9) 0.01071 291.8 16.9
320(9) 0.01010 291.8 16.8
285(9) 0.01088 291.8 16.8
300(9) 0.01061 291.8 16.8
320(9) 0.01052 291.8 16.9
346(10) 0.00984 291.8 16.9
322(10) 0.00995 291.8 17.1
316(10) 0.00958 291.8 17.2
304(9) 0.01033 291.8 17.4
293(9) 0.01153 291.8 17.7
327(9) 0.01021 291.8 18.0
312(9) 0.01038 291.8 18.3
334(10) 0.00890 291.9 18.7
306(9) 0.01064 291.9 19.2
301(9) 0.01103 291.9 19.7
308(9) 0.01081 291.9 20.3
304(9) 0.01038 291.9 21.0
303(10) 0.00997 291.9 21.7
310(10) 0.00994 291.9 22.5
329(9) 0.01026 291.9 23.4
317(9) 0.01008 291.9 24.3
325(10) 0.00960 291.9 25.2
306(9) 0.01035 291.9 26.2
342(10) 0.00964 291.9 27.3
313(9) 0.01073 291.9 28.3
319(9) 0.01019 291.9 29.3
337(10) 0.00920 291.9 30.3
322(10) 0.00977 291.9 31.2
324(10) 0.01005 291.9 32.0
321(9) 0.01049 291.9 32.6
318(10) 0.00980 291.9 33.0
313(10) 0.00977 291.9 33.3
336(10) 0.00933 291.9 33.3
316(9) 0.01053 291.9 33.1
327(9) 0.01036 291.9 32.7
326(10) 0.00993 292.0 32.0
337(10) 0.00914 292.0 31.2
332(10) 0.00916 292.0 30.2
336(10) 0.00985 292.0 29.1
342(10) 0.00988 292.0 27.9
315(9) 0.01015 292.0 26.7
314(10) 0.00964 292.0 25.5
316(10) 0.00976 292.0 24.3
304(9) 0.01092 292.0 23.1
296(9) 0.01127 292.0 21.9
295(9) 0.01085 292.0 20.8
318(10) 0.00903 292.0 19.8
311(9) 0.01015 292.0 18.8
322(9) 0.01036 292.0 17.8
305(9) 0.01075 292.0 17.0
319(10) 0.00987 292.0 16.2
320(10) 0.00921 292.0 15.4
324(10) 0.00968 292.0 14.7
289(9) 0.01153 292.0 14.1
296(9) 0.01077 292.0 13.5
296(9) 0.01060 292.0 13.0
289(9) 0.01059 292.0 12.5
298(9) 0.01010 292.0 12.0
305(9) 0.01090 292.0 11.6
315(9) 0.01044 292.1 11.2
310(10) 0.01003 292.1 10.9
313(10) 0.00953 292.1 10.6
286(9) 0.01117 292.1 10.3
334(9) 0.01016 292.1 10.1
297(9) 0.01103 292.1 9.9
289(9) 0.01116 292.1 9.7
303(9) 0.01029 292.1 9.5
294(9) 0.01050 292.1 9.3
305(9) 0.01101 292.1 9.2
306(9) 0.01064 292.1 9.1
283(9) 0.01094 292.1 8.9
298(9) 0.01010 292.1 8.8
312(10) 0.01007 292.1 8.8
281(9) 0.01178 292.1 8.7
307(9) 0.01056 292.1 8.6
310(9) 0.01022 292.1 8.6
303(9) 0.01021 292.1 8.5
300(9) 0.01101 292.1 8.5
295(9) 0.01134 292.1 8.5
309(9) 0.01037 292.1 8.5
316(10) 0.00978 292.1 8.5
297(9) 0.01070 292.1 8.5
314(9) 0.01056 292.1 8.6
318(9) 0.01058 292.2 8.6
290(9) 0.01111 292.2 8.7
297(9) 0.01023 292.2 8.8
297(9) 0.01052 292.2 8.9
323(9) 0.01019 292.2 9.0
300(9) 0.01113 292.2 9.2
288(9) 0.01124 292.2 9.3
307(10) 0.00938 292.2 9.5
320(10) 0.00942 292.2 9.7
306(9) 0.01093 292.2 10.0
313(9) 0.01053 292.2 10.3
272(9) 0.01205 292.2 10.6
326(10) 0.00877 292.2 10.9
303(9) 0.01032 292.2 11.3
310(9) 0.01083 292.2 11.7
302(9) 0.01105 292.2 12.1
286(9) 0.01099 292.2 12.6
308(10) 0.00986 292.2 13.1
310(10) 0.00996 292.2 13.6
299(9) 0.01112 292.2 14.2
288(9) 0.01140 292.2 14.8
296(9) 0.01058 292.2 15.5
295(9) 0.01030 292.2 16.1
316(10) 0.00959 292.2 16.8
303(9) 0.01112 292.3 17.5
308(9) 0.01044 292.3 18.2
320(10) 0.00939 292.3 18.8
321(10) 0.00937 292.3 19.5
308(10) 0.01007 292.3 20.1
321(9) 0.01048 292.3 20.6
331(10) 0.00990 292.3 21.1
307(9) 0.01046 292.3 21.4
304(10) 0.00997 292.3 21.6
311(9) 0.01011 292.3 21.7
332(9) 0.01020 292.3 21.7
331(10) 0.00994 292.3 21.5
305(9) 0.01032 292.3 21.2
299(9) 0.01054 292.3 20.8
305(9) 0.01025 292.3 20.3
314(9) 0.01073 292.3 19.7
321(10) 0.00989 292.3 19.0
318(10) 0.00971 292.3 18.3
289(9) 0.01079 292.3 17.6
311(9) 0.01056 292.3 16.9
292(9) 0.01136 292.3 16.1
295(9) 0.01056 292.3 15.4
322(10) 0.00941 292.3 14.7
306(9) 0.01018 292.3 14.0
303(9) 0.01087 292.4 13.3
292(9) 0.01137 292.4 12.7
294(9) 0.01078 292.4 12.1
289(9) 0.01034 292.4 11.5
285(9) 0.01097 292.4 11.0
276(9) 0.01203 292.4 10.5
296(9) 0.01129 292.4 10.1
298(9) 0.01026 292.4 9.7
297(10) 0.01002 292.4 9.3
303(9) 0.01058 292.4 8.9
306(9) 0.01091 292.4 8.6
304(9) 0.01104 292.4 8.3
327(10) 0.00954 292.4 8.0
287(9) 0.01060 292.4 7.7
281(9) 0.01134 292.4 7.5
298(9) 0.01129 292.4 7.3
298(9) 0.01072 292.4 7.1
279(9) 0.01143 292.4 6.9
269(9) 0.01089 292.4 6.7
322(10) 0.00944 292.4 6.5
298(9) 0.01122 292.4 6.4
289(9) 0.01122 292.4 6.3
305(9) 0.01052 292.4 6.2
311(10) 0.00964 292.4 6.1
296(9) 0.01036 292.5 6.0
291(9) 0.01144 292.5 5.9
295(9) 0.01088 292.5 5.8
287(9) 0.01039 292.5 5.7
273(9) 0.01105 292.5 5.6
299(9) 0.01031 292.5 5.6
281(9) 0.01181 292.5 5.5
276(9) 0.01182 292.5 5.4
307(9) 0.01013 292.5 5.4
310(10) 0.01001 292.5 5.3
321(10) 0.00988 292.5 5.3
300(9) 0.01120 292.5 5.3
295(9) 0.01096 292.5 5.2
304(9) 0.01024 292.5 5.2
309(10) 0.00987 292.5 5.1
316(10) 0.00991 292.5 5.1
307(9) 0.01102 292.5 5.1
286(9) 0.01116 292.5 5.1
292(9) 0.01049 292.5 5.0
306(10) 0.01000 292.5 5.0
281(9) 0.01168 292.5 5.0
315(9) 0.01059 292.5 5.0
294(9) 0.01056 292.5 5.0
317(10) 0.00948 292.5 5.0
303(9) 0.01033 292.4 5.0
311(9) 0.01052 292.4 4.9
307(9) 0.01093 292.4 4.9
305(10) 0.00995 292.3 4.9
305(10) 0.00999 292.3 4.9
308(9) 0.01042 292.3 4.9
286(9) 0.01158 292.3 4.9
297(9) 0.01130 292.2 4.9
306(10) 0.01005 292.2 4.9
285(9) 0.01037 292.2 4.9
290(9) 0.01016 292.1 4.9
303(9) 0.01100 292.1 5.0
288(9) 0.01162 292.1 5.0
290(9) 0.01048 292.0 5.0
287(9) 0.01024 292.0 5.0
293(9) 0.01045 292.0 5.0
275(9) 0.01201 291.9 5.0
289(9) 0.01153 291.9 5.0
297(9) 0.01050 291.9 5.1
294(9) 0.01024 291.8 5.1
300(9) 0.01013 291.8 5.1
296(9) 0.01136 291.8 5.1
288(9) 0.01118 291.8 5.1
311(10) 0.00979 291.7 5.2
295(9) 0.01009 291.7 5.2
290(9) 0.01128 291.7 5.2
307(9) 0.01087 291.6 5.3
297(9) 0.01105 291.6 5.3
291(9) 0.01112 291.6 5.3
294(9) 0.01030 291.5 5.4
291(9) 0.01055 291.5 5.4
306(9) 0.01089 291.5 5.5
306(9) 0.01065 291.4 5.5
310(10) 0.00990 291.4 5.6
277(9) 0.01081 291.4 5.6
275(9) 0.01111 291.3 5.7
292(9) 0.01131 291.3 5.7
285(9) 0.01146 291.3 5.8
312(9) 0.01011 291.3 5.8
293(9) 0.01042 291.2 5.9
294(9) 0.01056 291.2 6.0
268(9) 0.01223 291.2 6.0
267(9) 0.01141 291.1 6.1
288(9) 0.01061 291.1 6.2
307(9) 0.01047 291.1 6.3
293(9) 0.01061 291.0 6.3
286(9) 0.01157 291.0 6.4
303(9) 0.01052 291.0 6.5
300(9) 0.01038 290.9 6.6
310(9) 0.01043 290.9 6.7
294(9) 0.01111 290.9 6.8
306(9) 0.01086 290.8 6.9
291(9) 0.01082 290.8 7.0
274(9) 0.01077 290.8 7.1
286(9) 0.01081 290.8 7.3
280(9) 0.01180 290.7 7.4
303(9) 0.01085 290.7 7.5
293(9) 0.01087 290.7 7.7
304(10) 0.00975 290.6 7.8
312(10) 0.01002 290.6 8.0
286(9) 0.01159 290.6 8.2
279(9) 0.01190 290.5 8.3
291(9) 0.01070 290.5 8.5
290(9) 0.01036 290.5 8.7
300(9) 0.01028 290.4 8.9
298(9) 0.01126 290.4 9.2
336(10) 0.01007 290.4 9.4
313(9) 0.01025 290.4 9.6
287(9) 0.01025 290.3 9.9
286(9) 0.01086 290.3 10.2
285(9) 0.01169 290.3 10.5
288(9) 0.01144 290.2 10.8
338(10) 0.00933 290.2 11.2
330(10) 0.00931 290.2 11.5
315(10) 0.00994 290.1 11.9
306(9) 0.01098 290.1 12.3
310(9) 0.01052 290.1 12.8
316(9) 0.01035 290.0 13.3
291(9) 0.01064 290.0 13.9
302(9) 0.01040 290.0 14.4
312(9) 0.01076 289.9 15.1
308(9) 0.01071 289.9 15.8
309(9) 0.01034 289.9 16.6
303(10) 0.00991 289.9 17.4
278(9) 0.01118 289.8 18.3
319(9) 0.01053 289.8 19.3
321(10) 0.00999 289.8 20.4
333(10) 0.00920 289.7 21.6
335(10) 0.00914 289.7 22.9
317(9) 0.01011 289.7 24.3
306(9) 0.01089 289.6 25.8
325(10) 0.01004 289.6 27.5
308(9) 0.01025 289.6 29.3
323(10) 0.00931 289.5 31.3
334(10) 0.00953 289.5 33.3
311(9) 0.01092 289.5 35.6
316(9) 0.01009 289.4 37.9
366(10) 0.00843 289.4 40.4
358(10) 0.00878 289.4 43.0
338(10) 0.00965 289.4 45.7
345(10) 0.00989 289.3 48.5
340(10) 0.00907 289.3 51.3
349(10) 0.00861 289.3 54.2
347(10) 0.00926 289.2 56.9
347(10) 0.00969 289.2 59.6
355(10) 0.00954 289.2 62.0
357(10) 0.00889 289.1 64.2
355(11) 0.00837 289.1 65.9
342(10) 0.00932 289.1 67.3
363(10) 0.00923 289.0 68.1
364(10) 0.00935 289.0 68.4
329(10) 0.00970 289.0 68.2
351(10) 0.00859 288.9 67.5
372(10) 0.00851 288.9 66.3
342(10) 0.00986 288.9 64.7
337(10) 0.01005 288.9 62.9
384(11) 0.00831 288.8 60.8
332(10) 0.00876 288.8 58.6
341(10) 0.00936 288.8 56.3
337(9) 0.01021 288.7 53.9
359(10) 0.00940 288.7 51.6
341(10) 0.00958 288.7 49.3
319(10) 0.00942 288.6 47.1
333(10) 0.00957 288.6 45.0
327(10) 0.01003 288.6 43.0
351(10) 0.00957 288.5 41.1
348(10) 0.00915 288.5 39.3
336(10) 0.00909 288.5 37.7
349(10) 0.00877 288.4 36.1
345(10) 0.00982 288.4 34.7
339(10) 0.00971 288.4 33.4
353(10) 0.00892 288.4 32.2
310(10) 0.00997 288.3 31.1
324(10) 0.00958 288.3 30.1
341(10) 0.00987 288.3 29.2
344(10) 0.00977 288.2 28.3
335(10) 0.00944 288.2 27.6
338(10) 0.00908 288.2 26.9
315(9) 0.01023 288.1 26.3
317(9) 0.01050 288.1 25.8
311(9) 0.01054 288.1 25.3
319(10) 0.00978 288.0 24.9
297(9) 0.01055 288.0 24.6
337(10) 0.00966 288.0 24.3
335(10) 0.01006 287.9 24.0
310(9) 0.01015 287.9 23.8
326(10) 0.00960 287.9 23.6
338(10) 0.00950 287.9 23.5
315(9) 0.01042 287.8 23.4
348(10) 0.00973 287.8 23.3
337(10) 0.00911 287.8 23.3
331(10) 0.00914 287.7 23.3
309(9) 0.01025 287.7 23.3
317(9) 0.01047 287.7 23.4
332(9) 0.01013 287.6 23.5
326(10) 0.00958 287.6 23.6
349(10) 0.00852 287.6 23.8
347(10) 0.00885 287.5 24.0
294(9) 0.01115 287.5 24.2
325(9) 0.01025 287.5 24.4
320(10) 0.00977 287.4 24.7
303(10) 0.00960 287.4 25.1
323(10) 0.00962 287.4 25.5
303(9) 0.01089 287.4 26.0
302(9) 0.01120 287.3 26.6
310(9) 0.01042 287.3 27.3
316(10) 0.00952 287.3 28.1
310(10) 0.00996 287.2 29.0
344(10) 0.00985 287.2 30.1
300(9) 0.01120 287.2 31.4
300(9) 0.01090 287.1 33.0
332(10) 0.00910 287.1 34.7
361(10) 0.00880 287.1 36.7
319(9) 0.01045 287.0 39.0
340(10) 0.00996 287.0 41.5
357(10) 0.00895 287.0 44.2
355(10) 0.00856 286.9 47.1
349(10) 0.00898 286.9 50.1
355(10) 0.00965 286.9 53.1
363(10) 0.00916 286.9 56.0
348(10) 0.00962 286.8 58.5
395(11) 0.00798 286.8 60.4
379(10) 0.00859 286.8 61.7
404(10) 0.00856 286.7 62.0
395(10) 0.00864 286.7 61.5
377(10) 0.00858 286.7 60.2
355(10) 0.00894 286.6 58.3
366(10) 0.00872 286.6 56.0
372(10) 0.00915 286.6 53.4
328(10) 0.00992 286.5 50.8
352(10) 0.00871 286.5 48.3
359(10) 0.00850 286.5 45.9
352(10) 0.00933 286.4 43.8
357(10) 0.00945 286.4 41.9
325(10) 0.00998 286.4 40.2
345(10) 0.00880 286.4 38.8
343(10) 0.00907 286.3 37.6
325(10) 0.00990 286.3 36.6
323(9) 0.01050 286.3 35.9
326(10) 0.00975 286.2 35.3
325(10) 0.00939 286.2 34.9
336(10) 0.00949 286.2 34.5
338(10) 0.00979 286.1 34.3
321(9) 0.01048 286.1 34.2
339(10) 0.00932 286.1 34.1
335(10) 0.00887 286.0 34.0
331(10) 0.00947 286.0 34.0
316(9) 0.01047 286.0 34.0
318(9) 0.01063 285.9 34.0
353(10) 0.00857 285.9 34.0
309(10) 0.00989 285.9 34.0
323(10) 0.00987 285.9 33.9
309(9) 0.01075 285.8 33.8
342(10) 0.00988 285.8 33.7
320(9) 0.01009 285.8 33.6
323(10) 0.00927 285.7 33.5
317(10) 0.00983 285.7 33.3
318(9) 0.01046 285.7 33.1
331(9) 0.01020 285.6 32.9
309(9) 0.01033 285.6 32.6
317(10) 0.00906 285.6 32.4
329(10) 0.00955 285.5 32.1
326(9) 0.01024 285.5 31.8
313(9) 0.01067 285.5 31.4
298(9) 0.01060 285.4 31.1
316(10) 0.00950 285.4 30.8
303(9) 0.01059 285.4 30.4
313(9) 0.01086 285.4 30.0
294(9) 0.01122 285.3 29.7
323(10) 0.01001 285.3 29.3
319(10) 0.00962 285.3 29.0
288(9) 0.01140 285.2 28.6
300(9) 0.01117 285.2 28.3
296(9) 0.01104 285.2 28.0
316(9) 0.01020 285.1 27.7
300(9) 0.01063 285.1 27.4
326(10) 0.00971 285.1 27.1
298(9) 0.01110 285.0 26.8
313(9) 0.01019 285.0 26.6
318(10) 0.00963 285.0 26.4
317(10) 0.00946 285.0 26.2
319(10) 0.01001 284.9 26.0
322(9) 0.01043 284.9 25.9
319(10) 0.01006 284.9 25.7
317(10) 0.00961 284.8 25.6
296(9) 0.01068 284.8 25.5
306(9) 0.01051 284.8 25.5
327(9) 0.01026 284.7 25.4
299(9) 0.01078 284.7 25.4
324(10) 0.00938 284.7 25.4
296(9) 0.01076 284.6 25.4
304(9) 0.01034 284.6 25.4
308(9) 0.01092 284.6 25.4
298(9) 0.01040 284.5 25.4
329(10) 0.00910 284.5 25.5
299(9) 0.01084 284.5 25.5
296(9) 0.01124 284.5 25.5
321(9) 0.01048 284.4 25.5
321(10) 0.00989 284.4 25.5
325(10) 0.00895 284.4 25.5
319(10) 0.00974 284.3 25.5
317(9) 0.01073 284.3 25.4
337(10) 0.01001 284.3 25.4
313(9) 0.01041 284.2 25.3
306(10) 0.00984 284.2 25.1
316(9) 0.01022 284.2 25.0
331(10) 0.00993 284.1 24.8
317(9) 0.01079 284.1 24.6
333(10) 0.00971 284.1 24.4
317(10) 0.00931 284.0 24.1
281(9) 0.01155 284.0 23.8
323(9) 0.01032 284.0 23.5
295(9) 0.01123 284.0 23.2
329(10) 0.00989 283.9 22.9
305(10) 0.00988 283.9 22.6
313(10) 0.00996 283.9 22.2
310(9) 0.01083 283.8 21.9
310(9) 0.01069 283.8 21.6
328(10) 0.00946 283.8 21.2
305(10) 0.00983 283.7 20.9
295(9) 0.01046 283.7 20.6
295(9) 0.01147 283.7 20.3
327(10) 0.00984 283.6 20.0
295(9) 0.01088 283.6 19.8
298(9) 0.01010 283.6 19.5
294(9) 0.01060 283.5 19.3
315(9) 0.01073 283.5 19.2
292(9) 0.01128 283.5 19.0
305(9) 0.01021 283.5 18.9
297(9) 0.01011 283.4 18.8
283(9) 0.01116 283.4 18.7
306(9) 0.01098 283.4 18.7
300(9) 0.01085 283.3 18.7
311(10) 0.01002 283.3 18.8
315(10) 0.00979 283.3 18.9
308(9) 0.01035 283.2 19.1
318(9) 0.01061 283.2 19.4
310(9) 0.01052 283.2 19.7
324(10) 0.00927 283.1 20.1
314(10) 0.00983 283.1 20.6
287(9) 0.01145 283.1 21.2
291(9) 0.01133 283.0 21.9
292(9) 0.01062 283.0 22.8
317(10) 0.00961 283.0 23.7
328(10) 0.00939 283.0 24.9
323(9) 0.01018 282.9 26.1
320(9) 0.01050 282.9 27.6
295(9) 0.01056 282.9 29.2
340(10) 0.00863 282.8 31.0
334(10) 0.00971 282.8 32.9
325(9) 0.01030 282.8 35.0
340(10) 0.00982 282.7 37.3
339(10) 0.00934 282.7 39.7
330(10) 0.00913 282.7 42.2
362(10) 0.00888 282.6 44.8
323(9) 0.01027 282.6 47.3
346(10) 0.00986 282.6 49.7
338(10) 0.00946 282.5 52.0
348(10) 0.00875 282.5 54.1
359(10) 0.00879 282.5 55.9
346(10) 0.00981 282.5 57.4
364(10) 0.00907 282.4 58.8
364(10) 0.00849 282.4 60.1
362(10) 0.00839 282.4 61.4
383(10) 0.00862 282.3 62.8
373(10) 0.00906 282.3 64.4
385(10) 0.00883 282.3 66.3
387(11) 0.00838 282.2 68.6
338(10) 0.00906 282.2 71.3
355(10) 0.00872 282.2 74.4
368(10) 0.00926 282.1 77.9
387(10) 0.00872 282.1 81.9
410(11) 0.00780 282.1 86.2
414(11) 0.00747 282.0 90.8
398(11) 0.00791 282.0 95.6
419(11) 0.00823 282.0 100.5
408(11) 0.00829 282.0 105.3
465(12) 0.00684 281.9 109.8
471(12) 0.00682 281.9 113.8
485(12) 0.00671 281.9 117.0
463(11) 0.00756 281.8 119.3
437(11) 0.00751 281.8 120.4
432(11) 0.00738 281.8 120.2
456(12) 0.00700 281.7 118.9
467(12) 0.00705 281.7 116.2
402(10) 0.00856 281.7 112.6
405(11) 0.00792 281.6 108.0
412(11) 0.00777 281.6 102.8
407(11) 0.00812 281.6 97.2
409(11) 0.00797 281.5 91.3
384(10) 0.00882 281.5 85.3
356(10) 0.00898 281.5 79.4
378(11) 0.00819 281.5 73.6
352(10) 0.00924 281.4 68.1
350(10) 0.00949 281.4 62.8
353(10) 0.00954 281.4 57.9
366(10) 0.00854 281.3 53.3
350(10) 0.00894 281.3 49.0
337(10) 0.00973 281.3 45.1
337(10) 0.00993 281.2 41.6
337(9) 0.01014 281.2 38.3
344(10) 0.00888 281.2 35.4
316(10) 0.00973 281.1 32.7
329(10) 0.00963 281.1 30.3
322(9) 0.01020 281.1 28.2
324(9) 0.01021 281.0 26.3
312(10) 0.00992 281.0 24.6
305(10) 0.00965 281.0 23.0
302(9) 0.01059 281.0 21.7
309(9) 0.01060 280.9 20.5
328(9) 0.01018 280.9 19.4
296(9) 0.01097 280.9 18.4
314(10) 0.00925 280.8 17.5
292(9) 0.01054 280.8 16.7
296(9) 0.01124 280.8 16.0
293(9) 0.01103 280.7 15.4
301(9) 0.01027 280.7 14.8
275(9) 0.01105 280.7 14.3
295(9) 0.01068 280.6 13.8
274(9) 0.01216 280.6 13.4
294(9) 0.01111 280.6 13.0
310(9) 0.01026 280.5 12.7
309(10) 0.00971 280.5 12.4
289(9) 0.01074 280.5 12.1
293(9) 0.01138 280.5 11.8
293(9) 0.01117 280.4 11.6
277(9) 0.01167 280.4 11.3
307(9) 0.01013 280.4 11.2
297(9) 0.01070 280.3 11.0
288(9) 0.01168 280.3 10.8
267(9) 0.01214 280.3 10.7
312(10) 0.01002 280.2 10.6
282(9) 0.01123 280.2 10.5
297(9) 0.01088 280.2 10.4
301(9) 0.01103 280.1 10.3
281(9) 0.01135 280.1 10.3
300(10) 0.00998 280.1 10.3
288(9) 0.01060 280.1 10.2
299(9) 0.01087 280.0 10.2
279(9) 0.01188 280.0 10.3
286(9) 0.01108 280.0 10.3
279(9) 0.01103 279.9 10.3
274(9) 0.01163 279.9 10.4
296(9) 0.01109 279.9 10.4
288(9) 0.01160 279.8 10.5
283(9) 0.01101 279.8 10.6
305(10) 0.00973 279.8 10.7
285(9) 0.01135 279.7 10.8
315(9) 0.01059 279.7 10.9
296(9) 0.01125 279.7 11.0
275(9) 0.01116 279.6 11.2
279(9) 0.01045 279.6 11.3
284(9) 0.01097 279.6 11.5
300(9) 0.01077 279.6 11.6
284(9) 0.01163 279.5 11.7
271(9) 0.01168 279.5 11.9
282(9) 0.01029 279.5 12.0
269(9) 0.01177 279.4 12.1
280(9) 0.01172 279.4 12.2
301(9) 0.01112 279.4 12.3
294(9) 0.01067 279.3 12.4
267(9) 0.01117 279.3 12.4
296(9) 0.01079 279.3 12.5
303(9) 0.01103 279.2 12.5
282(9) 0.01148 279.2 12.5
293(9) 0.01071 279.2 12.4
295(9) 0.01010 279.1 12.4
286(9) 0.01084 279.1 12.3
296(9) 0.01135 279.1 12.2
299(9) 0.01104 279.1 12.0
284(9) 0.01108 279.0 11.9
304(10) 0.00987 279.0 11.7
291(9) 0.01109 279.0 11.5
287(9) 0.01161 278.9 11.3
287(9) 0.01146 278.9 11.1
274(9) 0.01118 278.9 10.9
305(10) 0.00971 278.8 10.6
304(9) 0.01070 278.8 10.4
294(9) 0.01118 278.8 10.2
268(9) 0.01207 278.7 10.0
277(9) 0.01131 278.7 9.7
294(9) 0.01045 278.7 9.5
302(10) 0.01004 278.6 9.3
288(9) 0.01154 278.6 9.1
296(9) 0.01065 278.6 8.8
281(9) 0.01073 278.6 8.6
261(9) 0.01190 278.5 8.5
283(9) 0.01137 278.5 8.3
274(9) 0.01206 278.5 8.1
285(9) 0.01132 278.4 7.9
291(9) 0.01061 278.4 7.7
285(9) 0.01117 278.4 7.6
299(9) 0.01063 278.3 7.4
284(9) 0.01165 278.3 7.3
285(9) 0.01098 278.3 7.2
256(9) 0.01195 278.2 7.0
281(9) 0.01057 278.2 6.9
311(9) 0.01038 278.2 6.8
313(9) 0.01073 278.1 6.7
301(9) 0.01037 278.1 6.6
280(9) 0.01059 278.1 6.5
272(9) 0.01129 278.1 6.4
291(9) 0.01133 278.0 6.4
306(9) 0.01094 278.0 6.3
281(9) 0.01125 278.0 6.2
281(9) 0.01049 277.9 6.2
274(9) 0.01163 277.9 6.1
279(9) 0.01178 277.9 6.1
279(9) 0.01197 277.8 6.0
299(9) 0.01069 277.8 6.0
304(10) 0.00973 277.8 5.9
267(9) 0.01203 277.7 5.9
295(9) 0.01140 277.7 5.9
272(9) 0.01208 277.7 5.8
294(9) 0.01028 277.6 5.8
285(9) 0.01014 277.6 5.8
283(9) 0.01108 277.6 5.8
273(9) 0.01199 277.6 5.8
292(9) 0.01137 277.5 5.8
284(9) 0.01116 277.5 5.7
289(9) 0.01042 277.5 5.7
290(9) 0.01097 277.4 5.7
275(9) 0.01201 277.4 5.7
278(9) 0.01172 277.4 5.7
280(9) 0.01105 277.3 5.7
270(9) 0.01089 277.3 5.7
279(9) 0.01112 277.3 5.7
271(8) 0.01234 277.2 5.7
270(9) 0.01186 277.2 5.7
285(9) 0.01064 277.2 5.7
279(9) 0.01098 277.1 5.7
275(9) 0.01125 277.1 5.7
268(9) 0.01223 277.1 5.7
276(9) 0.01173 277.1 5.7
283(9) 0.01065 277.0 5.7
292(9) 0.01053 277.0 5.7
279(9) 0.01167 277.0 5.7
256(8) 0.01290 276.9 5.7
267(9) 0.01179 276.9 5.7
267(9) 0.01131 276.9 5.7
296(9) 0.01041 276.8 5.7
291(9) 0.01093 276.8 5.7
280(9) 0.01179 276.8 5.7
267(9) 0.01176 276.7 5.7
273(9) 0.01091 276.7 5.7
272(9) 0.01152 276.7 5.7
282(9) 0.01107 276.6 5.7
304(9) 0.01090 276.6 5.7
283(9) 0.01114 276.6 5.7
288(9) 0.01081 276.6 5.6
290(9) 0.01079 276.5 5.6
283(9) 0.01169 276.5 5.6
263(8) 0.01247 276.5 5.6
287(9) 0.01059 276.4 5.6
283(9) 0.01011 276.4 5.6
278(9) 0.01097 276.4 5.5
275(9) 0.01209 276.3 5.5
265(8) 0.01249 276.3 5.5
271(9) 0.01192 276.3 5.5
292(10) 0.00974 276.2 5.4
280(9) 0.01126 276.2 5.4
293(9) 0.01126 276.2 5.4
315(9) 0.01057 276.1 5.3
312(10) 0.00978 276.1 5.3
289(9) 0.01012 276.1 5.3
287(9) 0.01080 276.1 5.2
290(9) 0.01159 276.0 5.2
267(9) 0.01201 276.0 5.1
267(9) 0.01114 276.0 5.1
265(9) 0.01091 275.9 5.1
257(9) 0.01226 275.9 5.0
294(9) 0.01136 275.9 5.0
295(9) 0.01133 275.8 5.0
281(9) 0.01132 275.8 4.9
271(9) 0.01103 275.8 4.9
275(9) 0.01122 275.7 4.8
285(9) 0.01167 275.7 4.8
277(9) 0.01186 275.7 4.8
269(9) 0.01141 275.6 4.7
279(9) 0.01084 275.6 4.7
293(9) 0.01056 275.6 4.6
275(9) 0.01194 275.6 4.6
293(9) 0.01087 275.5 4.6
262(9) 0.01198 275.5 4.5
287(9) 0.01046 275.5 4.5
299(9) 0.01051 275.4 4.4
282(9) 0.01186 275.4 4.4
280(9) 0.01111 275.4 4.4
255(9) 0.01181 275.3 4.3
268(9) 0.01159 275.3 4.3
280(9) 0.01130 275.3 4.3
266(8) 0.01238 275.2 4.2
293(9) 0.01068 275.2 4.2
298(9) 0.01030 275.2 4.2
295(9) 0.01013 275.2 4.1
296(9) 0.01093 275.1 4.1
254(8) 0.01297 275.1 4.1
282(9) 0.01086 275.1 4.0
271(9) 0.01083 275.0 4.0
279(9) 0.01110 275.0 4.0
301(9) 0.01104 275.0 4.0
281(9) 0.01181 275.0 3.9
280(9) 0.01104 275.0 3.9
269(9) 0.01087 275.0 3.9
259(9) 0.01225 275.0 3.9
270(8) 0.01238 274.9 3.8
276(9) 0.01193 274.9 3.8
256(8) 0.01248 274.9 3.8
293(10) 0.00996 274.9 3.8
254(8) 0.01235 274.9 3.8
276(9) 0.01191 274.9 3.7
281(9) 0.01170 274.9 3.7
278(9) 0.01147 274.9 3.7
284(9) 0.01033 274.9 3.7
280(9) 0.01105 274.9 3.7
266(8) 0.01248 274.8 3.7
267(9) 0.01219 274.8 3.6
288(9) 0.01084 274.8 3.6
267(9) 0.01118 274.8 3.6
271(9) 0.01161 274.8 3.6
272(9) 0.01212 274.8 3.6
258(9) 0.01201 274.8 3.6
278(9) 0.01128 274.8 3.6
286(9) 0.01066 274.8 3.6
268(9) 0.01179 274.8 3.5
286(9) 0.01159 274.7 3.5
274(9) 0.01200 274.7 3.5
284(9) 0.01114 274.7 3.5
273(9) 0.01113 274.7 3.5
277(9) 0.01060 274.7 3.5
271(9) 0.01216 274.7 3.5
273(9) 0.01175 274.7 3.5
269(9) 0.01149 274.7 3.5
274(9) 0.01101 274.7 3.5
266(9) 0.01173 274.6 3.5
262(8) 0.01260 274.6 3.5
270(9) 0.01167 274.6 3.5
274(9) 0.01117 274.6 3.5
252(9) 0.01199 274.6 3.5
279(9) 0.01144 274.6 3.5
289(9) 0.01142 274.6 3.5
268(9) 0.01142 274.6 3.5
278(9) 0.01102 274.6 3.5
275(9) 0.01123 274.6 3.5
259(8) 0.01244 274.5 3.5
286(9) 0.01164 274.5 3.6
297(9) 0.01043 274.5 3.6
271(9) 0.01156 274.5 3.6
283(9) 0.01080 274.5 3.6
251(8) 0.01308 274.5 3.6
289(9) 0.01164 274.5 3.6
275(9) 0.01143 274.5 3.6
286(9) 0.01043 274.5 3.6
262(9) 0.01201 274.5 3.6
273(9) 0.01179 274.4 3.7
270(9) 0.01229 274.4 3.7
285(9) 0.01100 274.4 3.7
285(9) 0.01035 274.4 3.7
288(9) 0.01116 274.4 3.7
284(9) 0.01168 274.4 3.8
292(9) 0.01147 274.4 3.8
271(9) 0.01180 274.4 3.8
269(9) 0.01086 274.4 3.8
279(9) 0.01111 274.3 3.9
271(9) 0.01198 274.3 3.9
271(8) 0.01232 274.3 3.9
276(9) 0.01139 274.3 3.9
254(9) 0.01165 274.3 4.0
288(9) 0.01091 274.3 4.0
260(8) 0.01258 274.3 4.0
277(9) 0.01199 274.3 4.1
263(9) 0.01194 274.3 4.1
278(9) 0.01049 274.3 4.2
287(9) 0.01071 274.2 4.2
272(9) 0.01223 274.2 4.2
280(9) 0.01147 274.2 4.3
294(9) 0.01074 274.2 4.3
284(9) 0.01060 274.2 4.4
278(9) 0.01110 274.2 4.5
267(9) 0.01223 274.2 4.5
267(9) 0.01216 274.2 4.6
284(9) 0.01090 274.2 4.6
302(10) 0.00991 274.2 4.7
273(9) 0.01144 274.1 4.8
274(9) 0.01211 274.1 4.9
271(9) 0.01173 274.1 4.9
263(9) 0.01159 274.1 5.0
275(9) 0.01117 274.1 5.1
252(8) 0.01263 274.1 5.2
279(9) 0.01186 274.1 5.3
289(9) 0.01105 274.1 5.5
273(9) 0.01123 274.1 5.6
256(8) 0.01262 274.0 5.7
300(9) 0.01075 274.0 5.9
304(9) 0.01103 274.0 6.1
280(9) 0.01109 274.0 6.3
263(9) 0.01086 274.0 6.5
261(9) 0.01126 274.0 6.7
276(9) 0.01188 274.0 7.0
277(9) 0.01186 274.0 7.3
277(9) 0.01161 274.0 7.7
279(9) 0.01080 274.0 8.2
292(9) 0.01049 273.9 8.7
259(8) 0.01259 273.9 9.3
275(9) 0.01203 273.9 10.0
263(9) 0.01186 273.9 10.8
263(9) 0.01136 273.9 11.7
275(9) 0.01150 273.9 12.7
282(9) 0.01182 273.9 13.9
284(9) 0.01169 273.9 15.2
285(9) 0.01091 273.9 16.7
284(9) 0.01015 273.9 18.3
285(9) 0.01080 273.8 20.0
279(9) 0.01187 273.8 21.7
287(9) 0.01139 273.8 23.5
289(9) 0.01097 273.8 25.3
285(9) 0.01059 273.8 27.0
308(9) 0.01038 273.8 28.5
317(9) 0.01045 273.8 29.7
313(9) 0.01074 273.8 30.5
314(10) 0.00993 273.8 30.9
277(9) 0.01114 273.7 30.7
296(9) 0.01072 273.7 30.1
306(9) 0.01086 273.7 29.1
324(9) 0.01020 273.7 27.8
318(10) 0.00960 273.7 26.3
313(10) 0.00970 273.7 24.7
292(9) 0.01044 273.7 23.1
292(9) 0.01131 273.7 21.5
274(9) 0.01171 273.7 20.0
288(9) 0.01053 273.7 18.6
293(9) 0.01014 273.6 17.3
251(8) 0.01248 273.6 16.2
285(9) 0.01177 273.6 15.2
289(9) 0.01043 273.6 14.3
244(8) 0.01246 273.6 13.6
276(9) 0.01102 273.6 13.0
274(9) 0.01170 273.6 12.6
268(8) 0.01235 273.6 12.2
284(9) 0.01093 273.6 11.9
304(9) 0.01017 273.6 11.7
288(9) 0.01106 273.5 11.6
268(9) 0.01202 273.5 11.5
274(9) 0.01194 273.5 11.5
289(9) 0.01087 273.5 11.6
294(10) 0.00995 273.5 11.7
279(9) 0.01108 273.5 11.9
286(9) 0.01115 273.5 12.1
263(8) 0.01240 273.5 12.3
283(9) 0.01079 273.5 12.6
278(9) 0.01067 273.5 12.9
284(9) 0.01087 273.4 13.3
281(9) 0.01142 273.4 13.7
258(8) 0.01284 273.4 14.2
287(9) 0.01067 273.4 14.7
270(9) 0.01128 273.4 15.3
284(9) 0.01105 273.4 15.9
293(9) 0.01122 273.4 16.6
267(8) 0.01231 273.4 17.3
298(9) 0.01046 273.4 18.1
303(10) 0.00974 273.3 19.0
307(9) 0.01051 273.3 19.9
298(9) 0.01133 273.3 20.8
289(9) 0.01143 273.3 21.8
268(9) 0.01169 273.3 22.8
282(10) 0.00996 273.3 23.8
283(9) 0.01103 273.3 24.9
295(9) 0.01121 273.3 25.9
287(9) 0.01130 273.3 26.8
301(9) 0.01009 273.3 27.7
282(9) 0.01038 273.2 28.4
290(9) 0.01068 273.2 29.0
292(9) 0.01141 273.2 29.5
262(8) 0.01263 273.2 29.8
294(9) 0.01057 273.2 30.0
309(10) 0.00996 273.2 30.0
307(9) 0.01037 273.2 29.9
294(9) 0.01102 273.2 29.7
284(9) 0.01172 273.2 29.4
272(9) 0.01187 273.2 29.2
291(9) 0.01070 273.1 28.9
303(9) 0.01043 273.1 28.6
306(9) 0.01097 273.1 28.4
285(9) 0.01143 273.1 28.3
302(9) 0.01037 273.1 28.2
297(9) 0.01043 273.1 28.2
282(9) 0.01117 273.1 28.3
284(9) 0.01172 273.1 28.5
299(9) 0.01088 273.1 28.8
294(9) 0.01029 273.0 29.2
291(9) 0.01037 273.0 29.8
307(9) 0.01048 273.0 30.4
319(9) 0.01050 273.0 31.1
311(9) 0.01027 273.0 32.0
306(9) 0.01012 273.0 32.9
308(9) 0.01017 273.0 34.0
310(9) 0.01071 273.0 35.2
326(9) 0.01030 273.0 36.5
291(9) 0.01084 273.0 37.9
326(10) 0.00903 272.9 39.4
288(9) 0.01121 272.9 41.0
305(9) 0.01076 272.9 42.7
308(9) 0.01095 272.9 44.5
301(9) 0.01018 272.9 46.4
319(10) 0.00918 272.9 48.4
342(10) 0.00886 272.9 50.5
328(9) 0.01024 272.9 52.7
318(9) 0.01062 272.9 54.9
360(10) 0.00860 272.9 57.1
351(10) 0.00850 272.8 59.4
336(10) 0.00948 272.8 61.7
325(9) 0.01021 272.8 64.0
349(10) 0.00979 272.8 66.2
365(10) 0.00904 272.8 68.3
362(10) 0.00864 272.8 70.3
358(10) 0.00918 272.8 72.2
353(10) 0.00959 272.8 73.9
357(10) 0.00941 272.8 75.3
356(10) 0.00858 272.7 76.5
369(11) 0.00792 272.7 77.4
339(10) 0.00973 272.7 78.0
360(10) 0.00950 272.7 78.3
357(10) 0.00939 272.7 78.3
362(10) 0.00858 272.7 78.0
360(10) 0.00848 272.7 77.4
353(10) 0.00910 272.7 76.5
352(10) 0.00960 272.7 75.3
323(9) 0.01015 272.7 74.0
323(10) 0.01003 272.6 72.5
340(10) 0.00913 272.6 70.9
350(10) 0.00917 272.6 69.1
348(10) 0.00983 272.6 67.3
337(10) 0.00931 272.6 65.5
342(10) 0.00921 272.6 63.6
321(10) 0.00961 272.6 61.8
337(10) 0.00963 272.6 60.0
351(10) 0.00970 272.6 58.2
309(10) 0.00999 272.6 56.5
311(10) 0.01000 272.5 54.8
325(10) 0.00968 272.5 53.2
354(10) 0.00915 272.5 51.6
301(9) 0.01123 272.5 50.2
305(9) 0.01066 272.5 48.8
314(10) 0.01005 272.5 47.5
301(9) 0.01034 272.5 46.2
306(9) 0.01052 272.5 45.1
318(9) 0.01060 272.5 44.0
302(9) 0.01032 272.4 42.9
312(10) 0.00976 272.4 41.9
311(9) 0.01031 272.4 41.0
316(9) 0.01051 272.4 40.1
335(10) 0.01007 272.4 39.3
330(10) 0.00981 272.4 38.5
296(9) 0.01030 272.4 37.7
325(10) 0.00965 272.4 37.0
318(9) 0.01077 272.4 36.3
284(9) 0.01150 272.4 35.6
303(9) 0.01008 272.3 35.0
290(9) 0.01050 272.3 34.3
302(9) 0.01043 272.3 33.7
290(9) 0.01145 272.3 33.1
298(9) 0.01123 272.3 32.5
333(10) 0.00945 272.3 31.9
299(10) 0.00986 272.3 31.4
308(9) 0.01024 272.3 30.8
290(9) 0.01150 272.3 30.2
290(9) 0.01149 272.3 29.6
298(9) 0.01090 272.2 29.1
312(10) 0.00956 272.2 28.5
316(10) 0.00984 272.2 28.0
263(8) 0.01248 272.2 27.4
293(9) 0.01126 272.2 26.9
310(9) 0.01033 272.2 26.3
301(10) 0.00989 272.2 25.8
296(9) 0.01063 272.2 25.3
277(9) 0.01204 272.2 24.8
277(9) 0.01185 272.1 24.2
306(9) 0.01027 272.1 23.7
308(10) 0.00949 272.1 23.2
296(9) 0.01024 272.1 22.8
305(9) 0.01086 272.1 22.3
291(9) 0.01089 272.1 21.8
297(9) 0.01053 272.1 21.3
292(9) 0.01069 272.1 20.9
265(9) 0.01219 272.1 20.5
269(9) 0.01230 272.1 20.0
294(9) 0.01081 272.0 19.6
303(9) 0.01022 272.0 19.2
295(9) 0.01052 272.0 18.8
277(9) 0.01150 272.0 18.5
278(9) 0.01193 272.0 18.1
255(9) 0.01219 272.0 17.7
292(9) 0.01031 272.0 17.4
283(9) 0.01102 272.0 17.1
284(9) 0.01127 272.0 16.7
292(9) 0.01140 272.0 16.4
283(9) 0.01096 271.9 16.2
298(10) 0.01002 271.9 15.9
282(9) 0.01113 271.9 15.6
293(9) 0.01094 271.9 15.3
290(9) 0.01138 271.9 15.1
268(9) 0.01138 271.9 14.9
298(10) 0.00988 271.9 14.7
275(9) 0.01150 271.9 14.5
298(9) 0.01112 271.9 14.3
283(9) 0.01186 271.8 14.1
272(9) 0.01152 271.8 13.9
288(9) 0.01054 271.8 13.7
289(9) 0.01096 271.8 13.6
307(9) 0.01087 271.8 13.5
271(8) 0.01237 271.8 13.3
289(9) 0.01079 271.8 13.2
275(9) 0.01055 271.8 13.1
275(9) 0.01105 271.8 13.1
293(9) 0.01142 271.8 13.0
281(9) 0.01166 271.7 12.9
297(9) 0.01070 271.7 12.9
293(10) 0.01001 271.7 12.8
275(9) 0.01124 271.7 12.8
285(9) 0.01152 271.7 12.8
266(8) 0.01243 271.7 12.8
284(9) 0.01091 271.7 12.8
292(9) 0.01017 271.7 12.8
290(9) 0.01084 271.7 12.9
283(9) 0.01185 271.7 12.9
278(9) 0.01155 271.6 13.0
267(9) 0.01199 271.6 13.0
295(9) 0.01044 271.6 13.1
272(9) 0.01145 271.6 13.2
281(9) 0.01183 271.6 13.3
300(9) 0.01060 271.6 13.4
276(9) 0.01136 271.6 13.6
267(9) 0.01163 271.6 13.7
282(9) 0.01079 271.6 13.8
284(9) 0.01174 271.5 14.0
272(9) 0.01157 271.5 14.1
277(9) 0.01087 271.5 14.3
290(9) 0.01065 271.5 14.5
289(9) 0.01082 271.5 14.6
278(9) 0.01193 271.5 14.8
291(9) 0.01094 271.5 15.0
302(9) 0.01008 271.5 15.1
283(9) 0.01096 271.5 15.3
284(9) 0.01140 271.5 15.4
284(9) 0.01153 271.4 15.5
270(9) 0.01159 271.4 15.7
252(9) 0.01216 271.4 15.8
282(9) 0.01115 271.4 15.9
287(9) 0.01113 271.4 15.9
304(9) 0.01113 271.4 16.0
287(9) 0.01087 271.4 16.1
274(9) 0.01096 271.4 16.1
303(9) 0.01051 271.4 16.1
298(9) 0.01125 271.4 16.1
267(8) 0.01244 271.3 16.2
297(9) 0.01045 271.3 16.2
297(10) 0.01002 271.3 16.2
303(9) 0.01037 271.3 16.2
291(9) 0.01136 271.3 16.2
306(9) 0.01094 271.3 16.2
303(9) 0.01062 271.3 16.2
314(10) 0.00929 271.3 16.2
306(9) 0.01030 271.3 16.2
314(9) 0.01041 271.2 16.2
296(9) 0.01130 271.2 16.2
296(9) 0.01083 271.2 16.2
299(10) 0.00991 271.2 16.2
280(9) 0.01098 271.2 16.3
301(9) 0.01103 271.2 16.3
290(9) 0.01131 271.2 16.3
292(9) 0.01065 271.2 16.3
279(9) 0.01050 271.2 16.3
294(9) 0.01071 271.2 16.3
301(9) 0.01120 271.1 16.4
292(9) 0.01128 271.1 16.4
292(9) 0.01086 271.1 16.4
267(9) 0.01153 271.1 16.4
271(9) 0.01130 271.1 16.4
254(8) 0.01296 271.1 16.4
269(9) 0.01194 271.1 16.4
275(9) 0.01133 271.1 16.4
282(9) 0.01103 271.1 16.4
273(9) 0.01167 271.1 16.4
291(9) 0.01153 271.0 16.4
290(9) 0.01098 271.0 16.4
277(9) 0.01096 271.0 16.4
291(9) 0.01029 271.0 16.4
244(8) 0.01269 271.0 16.4
296(9) 0.01128 271.0 16.3
288(9) 0.01122 271.0 16.3
330(10) 0.00947 271.0 16.3
293(9) 0.01055 271.0 16.3
273(9) 0.01198 270.9 16.3
291(9) 0.01134 270.9 16.3
289(9) 0.01097 270.9 16.3
299(9) 0.01028 270.9 16.3
290(9) 0.01115 270.9 16.3
307(9) 0.01067 270.9 16.4
290(9) 0.01147 270.9 16.4
267(9) 0.01175 270.9 16.5
273(9) 0.01121 270.9 16.5
285(9) 0.01111 270.9 16.6
293(9) 0.01133 270.8 16.7
280(9) 0.01184 270.8 16.8
269(9) 0.01141 270.8 17.0
287(9) 0.01037 270.8 17.2
294(9) 0.01053 270.8 17.4
307(9) 0.01062 270.8 17.7
286(9) 0.01171 270.8 18.0
304(9) 0.01056 270.8 18.4
286(9) 0.01052 270.8 18.9
273(9) 0.01157 270.8 19.5
286(9) 0.01166 270.7 20.2
294(9) 0.01130 270.7 21.0
288(9) 0.01104 270.7 22.0
300(10) 0.01005 270.7 23.1
278(9) 0.01168 270.7 24.3
298(9) 0.01110 270.7 25.7
313(9) 0.01048 270.7 27.2
307(9) 0.01044 270.7 28.9
324(10) 0.00938 270.7 30.7
336(10) 0.00965 270.6 32.6
319(9) 0.01058 270.6 34.6
321(9) 0.01042 270.6 36.7
299(9) 0.01058 270.6 38.7
318(10) 0.00962 270.6 40.6
326(10) 0.00940 270.6 42.3
335(10) 0.01007 270.6 43.6
350(10) 0.00961 270.6 44.5
352(10) 0.00860 270.6 44.9
339(10) 0.00873 270.6 44.8
343(10) 0.00894 270.5 44.3
356(10) 0.00953 270.5 43.3
341(10) 0.00968 270.5 42.0
335(10) 0.00971 270.5 40.6
332(10) 0.00951 270.5 39.0
315(9) 0.01011 270.5 37.4
312(9) 0.01072 270.5 35.9
334(10) 0.00971 270.5 34.4
306(9) 0.01049 270.5 33.0
315(10) 0.00966 270.5 31.8
294(9) 0.01096 270.4 30.7
303(9) 0.01112 270.4 29.7
295(9) 0.01088 270.4 28.7
291(9) 0.01069 270.4 27.8
305(9) 0.01008 270.4 27.0
274(9) 0.01158 270.4 26.2
314(9) 0.01076 270.4 25.4
304(9) 0.01065 270.4 24.6
295(9) 0.01024 270.4 23.9
284(9) 0.01119 270.3 23.2
290(9) 0.01153 270.3 22.6
288(9) 0.01169 270.3 22.0
299(9) 0.01020 270.3 21.4
289(9) 0.01031 270.3 20.9
295(9) 0.01070 270.3 20.5
280(9) 0.01151 270.3 20.1
305(9) 0.01100 270.3 19.7
308(9) 0.01046 270.3 19.4
307(10) 0.00979 270.3 19.1
292(9) 0.01089 270.2 18.9
265(9) 0.01227 270.2 18.7
312(9) 0.01070 270.2 18.5
295(9) 0.01103 270.2 18.4
278(9) 0.01074 270.2 18.3
282(9) 0.01091 270.2 18.2
270(8) 0.01245 270.2 18.1
281(9) 0.01176 270.2 18.1
271(9) 0.01154 270.2 18.0
259(9) 0.01158 270.2 18.0
267(9) 0.01185 270.1 18.0
272(9) 0.01227 270.1 18.1
289(9) 0.01150 270.1 18.1
307(9) 0.01009 270.1 18.2
301(10) 0.00991 270.1 18.2
271(9) 0.01167 270.1 18.3
293(9) 0.01131 270.1 18.4
297(9) 0.01135 270.1 18.5
298(9) 0.01055 270.1 18.7
292(9) 0.01045 270.0 18.8
274(9) 0.01129 270.0 18.9
253(8) 0.01303 270.0 19.1
274(9) 0.01159 270.0 19.3
278(9) 0.01107 270.0 19.5
282(9) 0.01080 270.0 19.6
257(9) 0.01209 270.0 19.9
299(9) 0.01123 270.0 20.1
277(9) 0.01157 270.0 20.3
282(9) 0.01071 270.0 20.5
298(9) 0.01026 269.9 20.8
287(9) 0.01123 269.9 21.0
274(9) 0.01206 269.9 21.3
287(9) 0.01061 269.9 21.6
299(9) 0.01021 269.9 21.9
291(9) 0.01060 269.9 22.2
266(9) 0.01173 269.9 22.5
281(9) 0.01184 269.9 22.8
274(9) 0.01159 269.9 23.1
309(9) 0.01009 269.9 23.4
297(9) 0.01050 269.8 23.7
285(9) 0.01145 269.8 24.1
285(9) 0.01176 269.8 24.4
325(10) 0.00949 269.8 24.8
290(9) 0.01045 269.8 25.2
306(9) 0.01033 269.8 25.5
298(9) 0.01119 269.8 25.9
310(9) 0.01060 269.8 26.2
296(9) 0.01052 269.8 26.6
288(9) 0.01022 269.7 26.9
307(9) 0.01020 269.7 27.1
312(9) 0.01081 269.7 27.4
268(9) 0.01226 269.7 27.5
298(9) 0.01070 269.7 27.7
306(10) 0.00973 269.7 27.8
308(9) 0.01009 269.7 27.8
285(9) 0.01146 269.7 27.9
297(9) 0.01129 269.7 28.0
310(9) 0.01013 269.7 28.2
302(10) 0.00979 269.6 28.4
315(10) 0.00975 269.6 28.8
300(9) 0.01123 269.6 29.3
306(9) 0.01084 269.6 30.0
309(9) 0.01014 269.6 30.9
290(9) 0.01035 269.6 32.0
300(9) 0.01074 269.6 33.4
305(9) 0.01089 269.6 35.0
284(9) 0.01167 269.6 37.0
317(10) 0.00971 269.6 39.3
312(10) 0.00974 269.5 41.8
298(9) 0.01068 269.5 44.7
323(9) 0.01041 269.5 47.8
322(9) 0.01037 269.5 51.0
329(10) 0.00928 269.5 54.4
297(9) 0.01011 269.5 57.7
307(9) 0.01029 269.5 60.8
327(9) 0.01028 269.5 63.6
341(10) 0.00955 269.5 65.8
328(10) 0.00989 269.4 67.3
347(10) 0.00902 269.4 68.1
356(10) 0.00863 269.4 68.0
340(10) 0.00999 269.4 67.3
353(10) 0.00900 269.4 66.0
330(10) 0.00905 269.4 64.3
301(9) 0.01025 269.4 62.3
317(9) 0.01022 269.4 60.1
306(9) 0.01093 269.4 57.8
306(9) 0.01034 269.4 55.4
316(10) 0.00962 269.3 53.0
318(10) 0.00985 269.3 50.7
324(10) 0.00972 269.3 48.5
315(9) 0.01063 269.3 46.5
311(10) 0.00975 269.3 44.5
327(10) 0.00911 269.3 42.8
279(9) 0.01097 269.3 41.2
272(9) 0.01172 269.3 39.8
314(9) 0.01080 269.3 38.6
305(9) 0.01025 269.3 37.5
309(10) 0.00963 269.2 36.6
299(9) 0.01073 269.2 35.9
283(9) 0.01151 269.2 35.3
302(9) 0.01096 269.2 34.9
306(9) 0.01020 269.2 34.6
303(10) 0.00968 269.2 34.5
289(9) 0.01131 269.2 34.6
307(9) 0.01085 269.2 34.8
277(9) 0.01193 269.2 35.1
304(9) 0.01030 269.1 35.6
296(10) 0.00994 269.1 36.3
311(10) 0.00988 269.1 37.0
290(9) 0.01147 269.1 37.9
304(9) 0.01105 269.1 39.0
298(9) 0.01066 269.1 40.2
303(9) 0.01014 269.1 41.5
322(10) 0.00931 269.1 42.9
313(9) 0.01069 269.1 44.4
319(9) 0.01026 269.1 45.9
311(10) 0.00982 269.0 47.5
282(9) 0.01073 269.0 49.2
302(10) 0.01002 269.0 50.9
307(9) 0.01100 269.0 52.5
320(9) 0.01015 269.0 54.1
342(10) 0.00945 269.0 55.6
336(10) 0.00916 269.0 56.9
334(10) 0.00963 269.0 58.1
325(9) 0.01034 269.0 59.1
330(10) 0.00959 269.0 59.9
316(10) 0.00996 268.9 60.4
307(10) 0.00994 268.9 60.6
320(10) 0.00987 268.9 60.6
328(9) 0.01028 268.9 60.2
312(9) 0.01048 268.9 59.6
295(9) 0.01072 268.9 58.6
333(10) 0.00903 268.9 57.4
315(9) 0.01048 268.9 56.0
312(9) 0.01087 268.9 54.3
289(9) 0.01137 268.8 52.5
318(10) 0.00948 268.8 50.5
302(9) 0.01036 268.8 48.4
314(9) 0.01073 268.8 46.2
281(9) 0.01184 268.8 44.0
268(9) 0.01136 268.8 41.8
271(9) 0.01113 268.8 39.6
285(9) 0.01102 268.8 37.5
295(9) 0.01115 268.8 35.5
299(9) 0.01112 268.8 33.6
273(9) 0.01150 268.7 31.7
306(10) 0.00957 268.7 30.0
291(9) 0.01071 268.7 28.3
275(9) 0.01220 268.7 26.8
309(9) 0.01076 268.7 25.4
279(9) 0.01133 268.7 24.0
292(10) 0.01002 268.7 22.8
278(9) 0.01124 268.7 21.6
296(9) 0.01114 268.7 20.6
283(9) 0.01172 268.7 19.6
284(9) 0.01123 268.6 18.7
273(9) 0.01070 268.6 17.9
275(9) 0.01146 268.6 17.2
291(9) 0.01119 268.6 16.6
280(9) 0.01174 268.6 16.0
282(9) 0.01124 268.6 15.4
285(9) 0.01055 268.6 15.0
283(9) 0.01130 268.6 14.6
271(9) 0.01221 268.6 14.2
272(9) 0.01185 268.5 13.9
266(9) 0.01185 268.5 13.6
284(9) 0.01022 268.5 13.4
259(9) 0.01199 268.5 13.2
264(8) 0.01240 268.5 13.0
286(9) 0.01156 268.5 12.9
280(9) 0.01113 268.5 12.8
279(9) 0.01067 268.5 12.8
283(9) 0.01092 268.5 12.7
264(8) 0.01252 268.5 12.7
271(9) 0.01173 268.4 12.8
285(9) 0.01058 268.4 12.8
249(9) 0.01217 268.4 12.9
259(9) 0.01197 268.4 13.0
290(9) 0.01160 268.4 13.0
273(9) 0.01144 268.4 13.2
275(9) 0.01140 268.4 13.3
290(9) 0.01055 268.4 13.4
268(9) 0.01167 268.4 13.5
232(8) 0.01392 268.4 13.6
272(9) 0.01148 268.3 13.6
286(9) 0.01067 268.3 13.7
270(9) 0.01176 268.3 13.7
280(9) 0.01176 268.3 13.6
275(9) 0.01189 268.3 13.6
285(9) 0.01074 268.3 13.5
266(9) 0.01143 268.3 13.3
268(9) 0.01119 268.3 13.2
281(9) 0.01166 268.3 12.9
288(9) 0.01162 268.2 12.7
283(9) 0.01077 268.2 12.4
269(9) 0.01111 268.2 12.2
285(9) 0.01081 268.2 11.9
279(9) 0.01178 268.2 11.6
288(9) 0.01168 268.2 11.3
269(9) 0.01164 268.2 11.0
292(10) 0.00997 268.2 10.7
254(8) 0.01246 268.2 10.4
284(9) 0.01154 268.2 10.2
276(9) 0.01204 268.1 9.9
280(9) 0.01111 268.1 9.7
255(9) 0.01134 268.1 9.4
260(9) 0.01154 268.1 9.2
256(8) 0.01293 268.1 9.0
259(8) 0.01239 268.1 8.8
267(9) 0.01191 268.1 8.7
274(9) 0.01079 268.1 8.5
260(8) 0.01255 268.1 8.4
283(9) 0.01186 268.1 8.2
276(9) 0.01205 268.0 8.1
272(9) 0.01145 268.0 8.0
283(9) 0.01067 268.0 7.9
274(9) 0.01195 268.0 7.9
259(8) 0.01257 268.0 7.8
274(9) 0.01202 268.0 7.7
265(9) 0.01200 268.0 7.7
291(9) 0.01040 268.0 7.7
265(9) 0.01075 268.0 7.6
237(8) 0.01379 268.0 7.6
276(9) 0.01154 268.0 7.6
268(9) 0.01166 268.0 7.6
270(9) 0.01065 268.0 7.6
287(9) 0.01096 268.0 7.7
287(9) 0.01158 268.0 7.7
261(8) 0.01236 268.0 7.7
275(9) 0.01133 268.0 7.8
275(9) 0.01162 268.0 7.8
301(9) 0.01061 268.0 7.9
281(9) 0.01181 268.0 8.0
274(9) 0.01145 268.0 8.1
301(10) 0.01006 268.0 8.2
271(9) 0.01182 268.0 8.3
280(9) 0.01144 268.0 8.4
245(8) 0.01325 268.0 8.5
269(9) 0.01127 268.0 8.7
275(9) 0.01100 267.9 8.8
284(9) 0.01106 267.9 9.0
293(9) 0.01105 267.9 9.2
286(9) 0.01166 267.9 9.3
281(9) 0.01112 267.9 9.6
279(9) 0.01111 267.9 9.8
292(9) 0.01078 267.9 10.0
270(9) 0.01223 267.9 10.3
276(9) 0.01172 267.9 10.6
239(8) 0.01260 267.9 10.9
286(9) 0.01053 267.9 11.2
282(9) 0.01111 267.9 11.5
269(9) 0.01204 267.9 11.9
282(9) 0.01137 267.9 12.3
262(9) 0.01188 267.9 12.7
257(9) 0.01119 267.9 13.1
281(9) 0.01096 267.9 13.6
273(9) 0.01217 267.9 14.1
292(9) 0.01129 267.9 14.7
280(9) 0.01147 267.9 15.2
303(10) 0.00928 267.9 15.9
276(9) 0.01124 267.9 16.5
299(9) 0.01115 267.9 17.2
292(9) 0.01129 267.9 17.9
293(9) 0.01110 267.9 18.7
274(9) 0.01073 267.9 19.5
254(9) 0.01187 267.9 20.3
291(9) 0.01156 267.9 21.2
276(9) 0.01192 267.9 22.1
291(9) 0.01073 267.9 23.1
300(10) 0.00997 267.9 24.1
281(9) 0.01106 267.9 25.1
295(9) 0.01140 267.9 26.2
266(9) 0.01195 267.9 27.3
291(9) 0.01056 267.8 28.4
301(9) 0.01008 267.8 29.6
293(9) 0.01070 267.8 30.8
323(9) 0.01049 267.8 31.9
298(9) 0.01096 267.8 33.1
320(10) 0.00990 267.8 34.3
298(9) 0.01037 267.8 35.4
298(9) 0.01070 267.8 36.5
286(9) 0.01165 267.8 37.5
315(9) 0.01020 267.8 38.5
333(10) 0.00921 267.8 39.4
308(9) 0.01020 267.8 40.1
294(9) 0.01088 267.8 40.8
307(9) 0.01090 267.8 41.3
291(9) 0.01096 267.8 41.7
286(9) 0.01085 267.8 41.9
322(10) 0.00969 267.8 42.0
285(9) 0.01172 267.8 41.9
281(9) 0.01184 267.8 41.6
299(10) 0.00989 267.8 41.2
291(9) 0.01051 267.8 40.7
301(9) 0.01026 267.8 40.0
278(9) 0.01170 267.8 39.3
308(9) 0.01087 267.8 38.4
285(9) 0.01060 267.8 37.4
283(9) 0.01038 267.8 36.4
282(9) 0.01092 267.8 35.3
269(9) 0.01197 267.8 34.2
285(9) 0.01177 267.8 33.1
297(9) 0.01068 267.8 31.9
287(9) 0.01015 267.8 30.8
274(9) 0.01112 267.8 29.6
275(9) 0.01166 267.8 28.5
263(8) 0.01251 267.7 27.4
268(9) 0.01176 267.7 26.4
275(9) 0.01046 267.7 25.3
271(9) 0.01141 267.7 24.3
274(9) 0.01213 267.7 23.4
286(9) 0.01148 267.7 22.5
282(9) 0.01118 267.7 21.6
255(9) 0.01131 267.7 20.7
271(9) 0.01127 267.7 19.9
257(8) 0.01278 267.7 19.2
277(9) 0.01171 267.7 18.5
270(9) 0.01126 267.7 17.8
253(9) 0.01137 267.7 17.2
291(9) 0.01064 267.7 16.6
275(9) 0.01186 267.7 16.0
296(9) 0.01101 267.7 15.5
279(9) 0.01128 267.7 15.1
281(9) 0.01062 267.7 14.6
258(9) 0.01188 267.7 14.2
274(9) 0.01180 267.7 13.8
290(9) 0.01100 267.7 13.5
267(9) 0.01167 267.7 13.1
270(9) 0.01142 267.7 12.9
273(9) 0.01162 267.7 12.6
271(9) 0.01219 267.7 12.3
274(9) 0.01175 267.7 12.1
248(8) 0.01242 267.7 11.9
280(9) 0.01109 267.7 11.8
298(9) 0.01080 267.7 11.6
275(9) 0.01202 267.7 11.5
272(9) 0.01143 267.7 11.4
270(9) 0.01102 267.7 11.4
292(9) 0.01053 267.7 11.3
276(9) 0.01162 267.7 11.3
264(8) 0.01241 267.6 11.3
248(9) 0.01224 267.6 11.3
267(9) 0.01102 267.6 11.3
288(9) 0.01099 267.6 11.4
268(9) 0.01191 267.6 11.5
278(9) 0.01191 267.6 11.6
274(9) 0.01146 267.6 11.8
286(9) 0.01030 267.6 11.9
283(9) 0.01130 267.6 12.1
280(9) 0.01183 267.6 12.4
278(9) 0.01196 267.6 12.7
288(9) 0.01098 267.6 13.0
290(9) 0.01039 267.6 13.3
299(9) 0.01062 267.6 13.7
276(9) 0.01201 267.6 14.1
278(9) 0.01195 267.6 14.6
314(9) 0.01009 267.6 15.1
277(9) 0.01095 267.6 15.7
306(9) 0.01030 267.6 16.3
289(9) 0.01171 267.6 17.0
294(9) 0.01128 267.6 17.7
292(9) 0.01085 267.6 18.5
276(9) 0.01098 267.6 19.3
272(9) 0.01154 267.6 20.2
269(9) 0.01222 267.6 21.1
261(8) 0.01239 267.6 22.2
281(9) 0.01110 267.6 23.2
281(9) 0.01031 267.6 24.3
301(9) 0.01017 267.6 25.5
294(9) 0.01130 267.6 26.7
278(9) 0.01134 267.6 27.9
290(9) 0.01031 267.6 29.2
304(10) 0.00973 267.6 30.5
266(9) 0.01193 267.6 31.8
310(9) 0.01089 267.5 33.0
288(9) 0.01126 267.5 34.2
316(10) 0.00951 267.5 35.3
306(10) 0.00973 267.5 36.3
293(9) 0.01103 267.5 37.2
293(9) 0.01142 267.5 37.9
308(9) 0.01042 267.5 38.5
305(9) 0.01026 267.5 38.9
292(9) 0.01072 267.5 39.0
291(9) 0.01119 267.5 39.0
319(9) 0.01055 267.5 38.7
336(10) 0.00955 267.5 38.2
284(9) 0.01110 267.5 37.6
304(9) 0.01023 267.5 36.8
298(9) 0.01101 267.5 35.9
288(9) 0.01160 267.5 34.8
311(9) 0.01021 267.5 33.7
316(10) 0.00974 267.5 32.5
277(9) 0.01161 267.5 31.3
283(9) 0.01165 267.5 30.1
307(9) 0.01091 267.5 28.9
302(9) 0.01035 267.5 27.8
285(9) 0.01055 267.5 26.6
294(9) 0.01068 267.5 25.5
299(9) 0.01084 267.5 24.5
289(9) 0.01154 267.5 23.5
282(9) 0.01099 267.5 22.6
269(9) 0.01116 267.5 21.7
250(8) 0.01284 267.5 20.9
274(9) 0.01204 267.5 20.1
288(9) 0.01159 267.5 19.4
289(9) 0.01107 267.5 18.8
274(9) 0.01080 267.5 18.3
276(9) 0.01110 267.4 17.7
303(9) 0.01073 267.4 17.3
274(9) 0.01227 267.4 16.9
278(9) 0.01160 267.4 16.5
265(9) 0.01070 267.4 16.2
276(9) 0.01100 267.4 16.0
297(9) 0.01131 267.4 15.8
274(9) 0.01197 267.4 15.6
277(9) 0.01155 267.4 15.5
273(9) 0.01114 267.4 15.4
289(9) 0.01030 267.4 15.3
278(9) 0.01194 267.4 15.3
271(9) 0.01197 267.4 15.3
289(9) 0.01071 267.4 15.4
264(9) 0.01125 267.4 15.4
290(9) 0.01057 267.4 15.5
290(9) 0.01140 267.4 15.6
300(9) 0.01071 267.4 15.8
276(9) 0.01125 267.4 15.9
265(9) 0.01178 267.4 16.1
292(9) 0.01075 267.4 16.3
299(9) 0.01121 267.4 16.5
277(9) 0.01183 267.4 16.7
259(9) 0.01192 267.4 16.9
267(9) 0.01154 267.4 17.1
284(9) 0.01096 267.4 17.3
272(9) 0.01214 267.4 17.5
269(9) 0.01143 267.4 17.7
290(9) 0.01065 267.4 17.9
309(9) 0.01029 267.4 18.1
294(9) 0.01119 267.4 18.3
298(9) 0.01125 267.4 18.4
305(10) 0.01000 267.4 18.6
299(9) 0.01015 267.4 18.7
289(9) 0.01061 267.3 18.8
278(9) 0.01133 267.3 18.8
290(9) 0.01144 267.3 18.9
300(9) 0.01039 267.3 18.9
303(10) 0.00964 267.3 18.9
269(9) 0.01154 267.3 18.8
309(9) 0.01050 267.3 18.8
290(9) 0.01164 267.3 18.7
274(9) 0.01097 267.3 18.5
282(9) 0.01024 267.3 18.4
271(9) 0.01154 267.3 18.2
269(9) 0.01218 267.3 18.0
291(9) 0.01152 267.3 17.8
272(9) 0.01151 267.3 17.6
296(10) 0.00990 267.3 17.3
287(9) 0.01155 267.3 17.1
280(9) 0.01192 267.3 16.8
264(8) 0.01257 267.3 16.6
316(10) 0.00999 267.3 16.3
289(9) 0.01062 267.3 16.0
298(9) 0.01048 267.3 15.7
280(9) 0.01182 267.3 15.5
286(9) 0.01166 267.3 15.2
276(9) 0.01192 267.3 14.9
293(9) 0.01032 267.3 14.7
312(10) 0.00964 267.3 14.4
290(9) 0.01148 267.3 14.2
289(9) 0.01114 267.3 13.9
281(9) 0.01095 267.3 13.7
287(9) 0.01018 267.3 13.5
267(9) 0.01185 267.3 13.3
244(8) 0.01344 267.3 13.1
272(9) 0.01208 267.3 12.9
285(9) 0.01075 267.3 12.7
280(9) 0.01090 267.2 12.6
281(9) 0.01120 267.2 12.4
289(9) 0.01146 267.2 12.3
281(9) 0.01142 267.2 12.2
281(9) 0.01111 267.2 12.1
258(9) 0.01227 267.2 12.0
271(9) 0.01157 267.2 11.9
287(9) 0.01157 267.2 11.8
279(9) 0.01149 267.2 11.8
277(9) 0.01134 267.2 11.8
249(8) 0.01244 267.2 11.8
268(9) 0.01166 267.2 11.8
283(9) 0.01174 267.2 11.8
263(9) 0.01181 267.2 11.8
288(10) 0.01002 267.2 11.8
272(9) 0.01136 267.2 11.9
293(9) 0.01101 267.2 12.0
239(8) 0.01369 267.2 12.1
260(9) 0.01192 267.2 12.2
272(9) 0.01138 267.2 12.3
282(9) 0.01114 267.2 12.4
279(9) 0.01184 267.2 12.6
271(9) 0.01218 267.2 12.8
276(9) 0.01131 267.2 13.0
267(9) 0.01101 267.2 13.2
284(9) 0.01072 267.2 13.4
264(8) 0.01232 267.2 13.6
288(9) 0.01146 267.2 13.9
266(9) 0.01189 267.2 14.1
285(10) 0.00992 267.2 14.4
260(9) 0.01225 267.2 14.7
266(8) 0.01247 267.2 15.0
256(8) 0.01284 267.2 15.4
287(9) 0.01074 267.1 15.7
272(9) 0.01103 267.1 16.1
265(9) 0.01177 267.1 16.4
263(8) 0.01232 267.1 16.8
275(9) 0.01207 267.1 17.3
267(9) 0.01175 267.1 17.7
324(10) 0.00928 267.1 18.1
300(9) 0.01092 267.1 18.6
267(8) 0.01233 267.1 19.0
279(9) 0.01187 267.1 19.5
268(9) 0.01167 267.1 20.0
273(9) 0.01102 267.1 20.5
267(9) 0.01134 267.1 21.0
289(9) 0.01156 267.1 21.5
292(9) 0.01131 267.1 22.0
284(9) 0.01120 267.1 22.6
298(9) 0.01020 267.1 23.1
306(9) 0.01020 267.1 23.6
289(9) 0.01148 267.1 24.1
306(9) 0.01042 267.1 24.6
280(9) 0.01113 267.1 25.1
278(9) 0.01101 267.1 25.5
289(9) 0.01076 267.1 26.0
293(9) 0.01136 267.1 26.4
280(9) 0.01093 267.1 26.8
289(9) 0.01046 267.1 27.1
274(9) 0.01123 267.1 27.5
291(9) 0.01055 267.1 27.7
280(9) 0.01176 267.1 28.0
283(9) 0.01099 267.1 28.2
295(9) 0.01061 267.1 28.3
288(9) 0.01066 267.1 28.4
297(9) 0.01090 267.1 28.4
321(9) 0.01052 267.1 28.4
293(9) 0.01087 267.0 28.3
300(9) 0.01030 267.0 28.2
315(10) 0.00976 267.0 28.0
310(9) 0.01037 267.0 27.8
296(9) 0.01126 267.0 27.6
291(9) 0.01078 267.0 27.2
283(9) 0.01032 267.0 26.9
285(9) 0.01086 267.0 26.5
284(9) 0.01139 267.0 26.1
284(9) 0.01177 267.0 25.7
287(9) 0.01050 267.0 25.2
280(9) 0.01063 267.0 24.8
282(9) 0.01134 267.0 24.3
281(9) 0.01165 267.0 23.8
262(8) 0.01256 267.0 23.2
308(10) 0.00975 267.0 22.7
268(9) 0.01093 267.0 22.2
270(9) 0.01138 267.0 21.7
281(9) 0.01164 267.0 21.2
281(9) 0.01177 267.0 20.7
258(9) 0.01210 267.0 20.2
285(9) 0.01059 267.0 19.7
301(9) 0.01053 267.0 19.2
308(9) 0.01091 267.0 18.7
263(8) 0.01271 267.0 18.2
281(9) 0.01139 267.0 17.8
270(9) 0.01129 267.0 17.3
282(9) 0.01106 267.0 16.9
280(9) 0.01175 267.0 16.5
279(9) 0.01193 267.0 16.1
273(9) 0.01109 267.0 15.7
293(10) 0.00993 267.0 15.3
288(9) 0.01055 267.0 15.0
291(9) 0.01140 266.9 14.7
297(9) 0.01065 266.9 14.3
259(9) 0.01201 266.9 14.0
259(9) 0.01177 266.9 13.7
267(9) 0.01176 266.9 13.4
271(9) 0.01217 266.9 13.2
293(9) 0.01126 266.9 12.9
281(9) 0.01076 266.9 12.7
263(9) 0.01170 266.9 12.5
287(9) 0.01083 266.9 12.3
282(9) 0.01183 266.9 12.1
261(9) 0.01177 266.9 11.9
273(9) 0.01111 266.9 11.7
273(9) 0.01168 266.9 11.5
273(9) 0.01162 266.9 11.4
268(8) 0.01245 266.9 11.2
264(9) 0.01150 266.9 11.1
255(9) 0.01184 266.9 11.0
259(9) 0.01193 266.9 10.9
266(9) 0.01197 266.9 10.8
271(9) 0.01226 266.9 10.7
269(9) 0.01177 266.9 10.6
276(9) 0.01097 266.9 10.6
257(9) 0.01224 266.9 10.5
278(9) 0.01170 266.9 10.5
260(8) 0.01250 266.9 10.4
241(8) 0.01302 266.9 10.4
264(9) 0.01081 266.9 10.4
243(8) 0.01284 266.9 10.4
269(9) 0.01230 266.9 10.4
283(9) 0.01159 266.9 10.4
278(9) 0.01106 266.9 10.4
274(9) 0.01061 266.9 10.4
265(9) 0.01172 266.9 10.4
278(9) 0.01195 266.9 10.5
262(9) 0.01231 266.9 10.5
261(9) 0.01225 266.9 10.6
284(9) 0.01028 266.9 10.6
278(9) 0.01115 266.9 10.7
256(8) 0.01285 266.9 10.8
265(9) 0.01210 266.9 10.8
279(9) 0.01150 266.9 10.9
283(9) 0.01047 266.9 11.0
272(9) 0.01138 266.9 11.1
270(9) 0.01225 266.9 11.2
266(8) 0.01237 266.9 11.3
268(9) 0.01161 266.9 11.5
260(9) 0.01185 266.9 11.6
276(9) 0.01103 266.9 11.7
290(9) 0.01151 266.9 11.9
270(9) 0.01176 266.9 12.0
279(9) 0.01108 266.9 12.2
280(9) 0.01086 266.9 12.3
280(9) 0.01100 266.9 12.5
267(8) 0.01254 266.9 12.7
238(8) 0.01348 267.0 12.9
274(9) 0.01107 267.0 13.0
256(9) 0.01204 267.0 13.2
268(9) 0.01174 267.0 13.4
252(8) 0.01317 267.0 13.6
280(9) 0.01131 267.0 13.8
285(9) 0.01094 267.0 13.9
280(9) 0.01070 267.0 14.1
269(9) 0.01183 267.0 14.3
283(9) 0.01170 267.0 14.4
287(9) 0.01090 267.0 14.6
279(9) 0.01071 267.0 14.7
269(9) 0.01156 267.0 14.8
261(8) 0.01267 267.0 14.9
268(8) 0.01231 267.0 15.0
271(9) 0.01108 267.0 15.1
261(9) 0.01171 267.0 15.2
274(9) 0.01170 267.0 15.2
285(9) 0.01132 267.0 15.3
269(8) 0.01245 267.0 15.3
275(9) 0.01105 267.1 15.3
283(9) 0.01018 267.1 15.3
289(9) 0.01081 267.1 15.3
271(9) 0.01216 267.1 15.2
254(8) 0.01297 267.1 15.2
266(9) 0.01163 267.1 15.2
291(10) 0.00979 267.1 15.1
291(9) 0.01056 267.1 15.1
271(9) 0.01216 267.1 15.1
270(9) 0.01218 267.1 15.0
268(9) 0.01157 267.1 15.0
286(9) 0.01037 267.1 15.0
284(9) 0.01110 267.1 15.0
275(9) 0.01214 267.1 15.0
284(9) 0.01164 267.1 15.0
275(9) 0.01126 267.1 15.0
268(9) 0.01110 267.1 15.1
283(9) 0.01107 267.1 15.1
288(9) 0.01154 267.1 15.2
295(9) 0.01127 267.1 15.4
304(9) 0.01018 267.1 15.6
286(9) 0.01049 267.2 15.8
302(9) 0.01016 267.2 16.2
303(9) 0.01101 267.2 16.6
294(9) 0.01107 267.2 17.3
272(9) 0.01172 267.2 18.2
292(9) 0.01070 267.2 19.3
308(9) 0.01025 267.2 20.8
286(9) 0.01172 267.2 22.7
287(9) 0.01106 267.2 24.9
305(10) 0.01005 267.2 27.5
297(9) 0.01061 267.2 30.5
318(9) 0.01010 267.2 33.7
279(9) 0.01195 267.2 37.0
324(10) 0.00971 267.2 40.2
318(10) 0.00990 267.2 43.2
301(9) 0.01025 267.2 45.6
308(9) 0.01060 267.2 47.2
320(9) 0.01048 267.2 47.8
306(9) 0.01040 267.2 47.4
281(9) 0.01095 267.2 46.0
292(9) 0.01053 267.2 43.8
310(9) 0.01050 267.3 41.0
297(9) 0.01121 267.3 37.9
318(10) 0.00992 267.3 34.8
275(9) 0.01133 267.3 31.8
272(9) 0.01178 267.3 29.0
279(9) 0.01154 267.3 26.5
281(9) 0.01187 267.3 24.5
282(9) 0.01104 267.3 22.7
288(9) 0.01056 267.3 21.4
279(9) 0.01147 267.3 20.3
291(9) 0.01139 267.3 19.5
282(9) 0.01167 267.3 18.9
300(9) 0.01049 267.3 18.4
284(9) 0.01040 267.3 18.1
284(9) 0.01103 267.3 17.8
286(9) 0.01152 267.3 17.6
299(9) 0.01107 267.3 17.4
297(9) 0.01078 267.3 17.2
310(10) 0.00958 267.3 17.0
288(9) 0.01081 267.3 16.9
273(9) 0.01225 267.4 16.7
294(9) 0.01112 267.4 16.5
311(9) 0.01013 267.4 16.4
284(9) 0.01068 267.4 16.2
279(9) 0.01138 267.4 16.0
280(9) 0.01206 267.4 15.8
301(9) 0.01083 267.4 15.6
290(9) 0.01072 267.4 15.4
301(10) 0.00976 267.4 15.2
285(9) 0.01107 267.4 15.0
287(9) 0.01161 267.4 14.8
286(9) 0.01139 267.4 14.6
294(9) 0.01034 267.4 14.4
298(10) 0.00998 267.4 14.1
269(9) 0.01106 267.4 13.9
280(9) 0.01190 267.4 13.7
268(9) 0.01207 267.4 13.5
281(9) 0.01101 267.4 13.3
287(9) 0.01095 267.4 13.1
286(9) 0.01111 267.4 12.9
292(9) 0.01136 267.4 12.7
277(9) 0.01113 267.5 12.5
282(9) 0.01075 267.5 12.3
287(9) 0.01055 267.5 12.1
295(9) 0.01071 267.5 11.9
314(9) 0.01068 267.5 11.7
272(9) 0.01143 267.5 11.5
276(9) 0.01128 267.5 11.4
270(9) 0.01173 267.5 11.2
272(9) 0.01164 267.5 11.0
249(8) 0.01330 267.5 10.8
253(9) 0.01214 267.5 10.7
277(9) 0.01076 267.5 10.5
291(9) 0.01070 267.5 10.4
273(9) 0.01176 267.5 10.2
294(9) 0.01141 267.5 10.1
275(9) 0.01137 267.5 10.0
289(9) 0.01048 267.5 9.8
318(10) 0.01000 267.5 9.7
283(9) 0.01153 267.5 9.6
278(9) 0.01201 267.5 9.5
277(9) 0.01118 267.6 9.4
281(9) 0.01042 267.6 9.3
286(9) 0.01074 267.6 9.2
264(8) 0.01253 267.6 9.1
273(9) 0.01219 267.6 9.0
279(9) 0.01095 267.6 8.9
265(9) 0.01075 267.6 8.8
273(9) 0.01182 267.6 8.7
265(8) 0.01248 267.6 8.7
278(9) 0.01196 267.6 8.6
283(9) 0.01070 267.6 8.5
297(10) 0.00950 267.6 8.5
279(9) 0.01111 267.6 8.4
256(8) 0.01283 267.6 8.4
287(9) 0.01139 267.6 8.3
255(8) 0.01260 267.6 8.3
284(9) 0.01059 267.6 8.2
272(9) 0.01162 267.6 8.2
282(9) 0.01160 267.6 8.2
302(9) 0.01079 267.6 8.2
288(9) 0.01077 267.6 8.1
285(9) 0.01088 267.7 8.1
319(10) 0.00992 267.7 8.1
265(8) 0.01248 267.7 8.1
273(9) 0.01156 267.7 8.1
270(9) 0.01145 267.7 8.1
283(9) 0.01111 267.7 8.1
268(9) 0.01164 267.7 8.1
261(8) 0.01261 267.7 8.2
273(9) 0.01164 267.7 8.2
285(9) 0.01075 267.7 8.2
272(9) 0.01194 267.7 8.3
282(9) 0.01110 267.7 8.3
287(9) 0.01163 267.7 8.3
273(9) 0.01144 267.7 8.4
271(9) 0.01146 267.7 8.5
272(9) 0.01142 267.7 8.6
290(9) 0.01125 267.7 8.7
270(9) 0.01223 267.7 8.8
297(9) 0.01013 267.7 8.9
295(9) 0.01014 267.7 9.1
285(9) 0.01118 267.7 9.4
309(9) 0.01048 267.8 9.7
266(8) 0.01248 267.8 10.0
271(9) 0.01126 267.8 10.6
271(9) 0.01121 267.8 11.2
275(9) 0.01138 267.8 12.0
288(9) 0.01104 267.8 13.1
265(9) 0.01213 267.8 14.4
280(9) 0.01126 267.8 16.0
284(9) 0.01077 267.8 17.9
292(9) 0.01087 267.8 20.2
305(9) 0.01080 267.8 22.8
266(9) 0.01228 267.8 25.8
289(9) 0.01102 267.8 29.0
307(10) 0.00987 267.8 32.3
316(10) 0.00993 267.8 35.8
322(9) 0.01039 267.8 39.1
309(9) 0.01076 267.8 42.2
331(10) 0.00945 267.8 44.7
342(10) 0.00867 267.8 46.4
327(10) 0.00962 267.8 47.1
310(9) 0.01069 267.9 46.8
320(9) 0.01065 267.9 45.5
325(10) 0.00956 267.9 43.2
334(10) 0.00911 267.9 40.4
321(10) 0.00973 267.9 37.1
314(9) 0.01073 267.9 33.6
301(9) 0.01106 267.9 30.2
301(9) 0.01031 267.9 26.8
320(10) 0.00919 267.9 23.7
280(9) 0.01139 267.9 20.9
276(9) 0.01202 267.9 18.4
284(9) 0.01128 267.9 16.3
278(9) 0.01104 267.9 14.5
284(9) 0.01058 267.9 13.0
269(9) 0.01201 267.9 11.8
295(9) 0.01123 267.9 10.9
282(9) 0.01167 267.9 10.1
277(9) 0.01118 267.9 9.5
290(9) 0.01044 267.9 9.1
291(9) 0.01081 267.9 8.7
286(9) 0.01168 267.9 8.4
284(9) 0.01117 268.0 8.2
284(9) 0.01060 268.0 8.0
286(9) 0.01068 268.0 7.8
274(9) 0.01166 268.0 7.7
281(9) 0.01181 268.0 7.5
270(9) 0.01161 268.0 7.4
277(9) 0.01109 268.0 7.4
273(9) 0.01146 268.0 7.3
254(8) 0.01284 268.0 7.2
255(8) 0.01286 268.0 7.1
249(8) 0.01237 268.0 7.1
302(10) 0.00983 268.0 7.0
274(9) 0.01120 268.0 7.0
264(8) 0.01257 268.0 6.9
276(9) 0.01199 268.0 6.9
275(9) 0.01083 268.0 6.8
259(9) 0.01141 268.0 6.8
274(9) 0.01129 268.0 6.8
289(9) 0.01149 268.0 6.7
303(9) 0.01098 268.0 6.7
285(9) 0.01111 268.0 6.7
264(9) 0.01116 268.1 6.6
275(9) 0.01134 268.1 6.6
278(9) 0.01186 268.1 6.6
287(9) 0.01151 268.1 6.6
274(9) 0.01086 268.1 6.6
265(9) 0.01074 268.1 6.5
256(9) 0.01212 268.1 6.5
289(9) 0.01146 268.1 6.5
258(8) 0.01261 268.1 6.5
274(9) 0.01143 268.1 6.5
288(9) 0.01035 268.1 6.6
264(9) 0.01215 268.1 6.6
297(9) 0.01128 268.1 6.6
258(8) 0.01256 268.1 6.7
269(9) 0.01193 268.1 6.8
267(9) 0.01151 268.1 7.0
258(9) 0.01199 268.1 7.1
280(9) 0.01198 268.1 7.3
270(9) 0.01225 268.1 7.6
259(9) 0.01205 268.1 7.9
250(9) 0.01193 268.2 8.2
275(9) 0.01094 268.2 8.6
295(9) 0.01137 268.2 9.0
291(9) 0.01078 268.2 9.4
292(9) 0.01080 268.2 9.8
288(9) 0.01083 268.2 10.1
275(9) 0.01164 268.2 10.4
298(9) 0.01118 268.2 10.6
297(9) 0.01050 268.2 10.7
262(9) 0.01174 268.2 10.6
279(9) 0.01110 268.2 10.5
285(9) 0.01139 268.2 10.2
280(9) 0.01177 268.2 9.8
275(9) 0.01139 268.2 9.4
293(9) 0.01055 268.2 8.9
270(9) 0.01162 268.2 8.5
278(9) 0.01143 268.2 8.1
306(9) 0.01089 268.2 7.7
287(9) 0.01088 268.2 7.3
256(9) 0.01209 268.2 6.9
288(9) 0.01067 268.2 6.7
291(9) 0.01118 268.3 6.4
285(9) 0.01176 268.3 6.2
258(9) 0.01171 268.3 6.0
289(10) 0.00998 268.3 5.9
254(8) 0.01275 268.3 5.8
284(9) 0.01166 268.3 5.7
290(9) 0.01160 268.3 5.6
266(9) 0.01183 268.3 5.6
273(9) 0.01098 268.3 5.5
254(8) 0.01237 268.3 5.5
265(8) 0.01248 268.3 5.4
274(9) 0.01193 268.3 5.4
256(9) 0.01218 268.3 5.4
235(8) 0.01251 268.3 5.4
272(9) 0.01110 268.3 5.4
257(8) 0.01282 268.3 5.4
255(8) 0.01294 268.3 5.3
293(9) 0.01062 268.3 5.3
267(9) 0.01114 268.3 5.3
292(9) 0.01072 268.3 5.3
269(9) 0.01220 268.4 5.3
266(9) 0.01209 268.4 5.3
265(9) 0.01180 268.4 5.3
287(9) 0.01081 268.4 5.4
291(9) 0.01041 268.4 5.4
278(9) 0.01195 268.4 5.4
259(8) 0.01259 268.4 5.4
256(8) 0.01271 268.4 5.4
274(9) 0.01100 268.4 5.4
267(9) 0.01168 268.4 5.4
289(9) 0.01159 268.4 5.5
274(9) 0.01172 268.4 5.5
281(9) 0.01106 268.4 5.5
268(9) 0.01152 268.4 5.5
272(9) 0.01136 268.4 5.6
273(9) 0.01207 268.4 5.6
260(9) 0.01213 268.4 5.7
274(9) 0.01130 268.4 5.7
288(9) 0.01087 268.4 5.7
286(9) 0.01111 268.4 5.8
286(9) 0.01145 268.4 5.8
268(9) 0.01163 268.5 5.9
259(9) 0.01184 268.5 5.9
256(9) 0.01205 268.5 6.0
273(9) 0.01153 268.5 6.1
271(9) 0.01216 268.5 6.1
277(9) 0.01075 268.5 6.2
278(9) 0.01079 268.5 6.3
282(9) 0.01119 268.5 6.3
254(8) 0.01283 268.5 6.4
267(9) 0.01230 268.5 6.5
299(9) 0.01039 268.5 6.6
278(9) 0.01101 268.5 6.7
274(9) 0.01166 268.5 6.8
280(9) 0.01190 268.5 6.9
286(9) 0.01138 268.5 7.0
264(9) 0.01189 268.5 7.1
265(9) 0.01157 268.5 7.2
312(10) 0.00995 268.5 7.4
287(9) 0.01142 268.5 7.5
276(9) 0.01199 268.5 7.7
261(9) 0.01197 268.5 7.8
271(9) 0.01098 268.6 8.0
271(9) 0.01139 268.6 8.2
281(9) 0.01158 268.6 8.3
287(9) 0.01170 268.6 8.5
275(9) 0.01174 268.6 8.8
301(10) 0.00950 268.6 9.0
289(9) 0.01055 268.6 9.3
283(9) 0.01155 268.6 9.5
276(9) 0.01178 268.6 9.8
280(9) 0.01129 268.6 10.2
284(9) 0.01064 268.6 10.5
291(9) 0.01092 268.6 10.9
296(9) 0.01106 268.6 11.3
295(9) 0.01130 268.6 11.8
278(9) 0.01092 268.6 12.3
271(9) 0.01101 268.6 12.9
313(10) 0.00989 268.6 13.5
269(9) 0.01230 268.6 14.1
283(9) 0.01145 268.6 14.9
294(10) 0.00980 268.6 15.6
301(9) 0.01040 268.7 16.4
285(9) 0.01164 268.7 17.3
280(9) 0.01157 268.7 18.3
275(9) 0.01168 268.7 19.2
312(10) 0.00969 268.7 20.2
296(9) 0.01072 268.7 21.3
315(9) 0.01075 268.7 22.3
331(10) 0.00976 268.7 23.4
298(9) 0.01063 268.7 24.4
274(9) 0.01118 268.7 25.4
303(9) 0.01046 268.7 26.3
276(9) 0.01210 268.7 27.0
316(10) 0.00998 268.7 27.7
302(9) 0.01015 268.7 28.2
298(9) 0.01088 268.7 28.5
301(9) 0.01063 268.7 28.7
302(9) 0.01113 268.7 28.7
303(10) 0.01004 268.7 28.6
301(10) 0.00988 268.7 28.3
280(9) 0.01125 268.7 28.0
326(9) 0.01020 268.7 27.5
313(9) 0.01073 268.8 26.9
276(9) 0.01122 268.8 26.2
317(10) 0.00928 268.8 25.5
287(9) 0.01133 268.8 24.7
284(9) 0.01170 268.8 23.9
301(9) 0.01110 268.8 23.1
275(9) 0.01119 268.8 22.3
280(9) 0.01052 268.8 21.5
267(9) 0.01209 268.8 20.8
273(9) 0.01208 268.8 20.1
282(9) 0.01143 268.8 19.4
266(9) 0.01151 268.8 18.8
289(10) 0.01001 268.8 18.2
302(9) 0.01041 268.8 17.7
285(9) 0.01154 268.8 17.2
282(9) 0.01170 268.8 16.7
285(9) 0.01097 268.8 16.3
292(9) 0.01047 268.8 15.9
301(9) 0.01035 268.8 15.5
283(9) 0.01182 268.8 15.2
300(9) 0.01088 268.8 14.8
269(9) 0.01170 268.9 14.5
276(9) 0.01062 268.9 14.3
297(9) 0.01034 268.9 14.0
247(8) 0.01332 268.9 13.8
299(9) 0.01096 268.9 13.5
279(9) 0.01126 268.9 13.3
272(9) 0.01162 268.9 13.1
262(9) 0.01213 268.9 12.9
272(9) 0.01226 268.9 12.7
279(9) 0.01145 268.9 12.5
294(9) 0.01037 268.9 12.4
294(9) 0.01048 268.9 12.2
271(9) 0.01184 268.9 12.0
302(9) 0.01106 268.9 11.9
289(9) 0.01113 268.9 11.7
287(9) 0.01017 268.9 11.6
254(9) 0.01201 268.9 11.5
266(9) 0.01198 268.9 11.3
269(8) 0.01234 268.9 11.2
280(9) 0.01136 268.9 11.1
284(9) 0.01093 269.0 11.0
270(9) 0.01180 269.0 10.8
262(8) 0.01243 269.0 10.7
276(9) 0.01190 269.0 10.6
281(9) 0.01092 269.0 10.5
281(9) 0.01062 269.0 10.4
275(9) 0.01136 269.0 10.3
274(9) 0.01203 269.0 10.2
258(8) 0.01264 269.0 10.1
277(9) 0.01120 269.0 10.0
259(9) 0.01106 269.0 9.9
277(9) 0.01097 269.0 9.9
287(9) 0.01170 269.0 9.8
282(9) 0.01186 269.0 9.7
274(9) 0.01121 269.0 9.6
265(9) 0.01134 269.0 9.6
277(9) 0.01158 269.0 9.5
266(9) 0.01209 269.0 9.4
277(9) 0.01186 269.0 9.4
272(9) 0.01140 269.0 9.3
266(9) 0.01058 269.0 9.3
270(9) 0.01126 269.1 9.2
272(9) 0.01217 269.1 9.2
274(9) 0.01213 269.1 9.1
261(9) 0.01222 269.1 9.1
293(10) 0.00990 269.1 9.0
266(9) 0.01184 269.1 9.0
284(9) 0.01184 269.1 9.0
255(8) 0.01260 269.1 8.9
273(9) 0.01162 269.1 8.9
277(9) 0.01110 269.1 8.9
283(9) 0.01114 269.1 8.8
295(9) 0.01127 269.1 8.8
294(9) 0.01113 269.1 8.8
258(9) 0.01173 269.1 8.7
272(9) 0.01095 269.1 8.7
261(9) 0.01167 269.1 8.7
307(9) 0.01079 269.1 8.7
286(9) 0.01156 269.1 8.6
258(8) 0.01241 269.1 8.6
283(9) 0.01120 269.1 8.6
296(9) 0.01048 269.2 8.6
268(8) 0.01241 269.2 8.5
284(9) 0.01145 269.2 8.5
281(9) 0.01121 269.2 8.5
294(9) 0.01039 269.2 8.5
290(9) 0.01110 269.2 8.5
252(8) 0.01301 269.2 8.4
288(9) 0.01092 269.2 8.4
271(9) 0.01142 269.2 8.4
298(9) 0.01033 269.2 8.4
287(9) 0.01133 269.2 8.4
295(9) 0.01136 269.2 8.4
289(9) 0.01075 269.3 8.4
317(10) 0.00958 269.3 8.4
293(9) 0.01083 269.3 8.4
280(9) 0.01145 269.3 8.4
283(9) 0.01181 269.3 8.4
259(9) 0.01219 269.4 8.4
270(9) 0.01088 269.4 8.4
243(9) 0.01227 269.4 8.4
252(8) 0.01278 269.4 8.4
276(9) 0.01197 269.4 8.4
257(9) 0.01178 269.5 8.5
294(10) 0.00997 269.5 8.5
288(9) 0.01086 269.5 8.5
300(9) 0.01122 269.5 8.6
277(9) 0.01185 269.5 8.6
271(9) 0.01105 269.5 8.7
253(9) 0.01168 269.6 8.8
291(9) 0.01102 269.6 8.9
308(9) 0.01096 269.6 8.9
293(9) 0.01128 269.6 9.1
307(10) 0.00971 269.6 9.2
279(9) 0.01053 269.7 9.3
263(9) 0.01210 269.7 9.5
258(8) 0.01271 269.7 9.6
280(9) 0.01170 269.7 9.8
293(9) 0.01088 269.7 10.1
289(10) 0.00999 269.8 10.4
268(9) 0.01167 269.8 10.7
280(9) 0.01167 269.8 11.1
282(9) 0.01166 269.8 11.6
307(9) 0.01017 269.8 12.2
288(9) 0.01036 269.9 12.9
284(9) 0.01112 269.9 13.7
290(9) 0.01130 269.9 14.6
292(9) 0.01109 269.9 15.7
288(9) 0.01037 269.9 16.9
290(9) 0.01039 269.9 18.3
269(9) 0.01166 270.0 19.8
289(9) 0.01159 270.0 21.5
296(9) 0.01092 270.0 23.3
285(9) 0.01072 270.0 25.2
292(9) 0.01051 270.0 27.1
310(9) 0.01039 270.1 29.0
297(9) 0.01124 270.1 30.8
317(10) 0.00973 270.1 32.5
302(9) 0.01043 270.1 33.8
299(9) 0.01077 270.1 34.8
331(10) 0.00984 270.2 35.3
278(9) 0.01178 270.2 35.4
295(9) 0.01042 270.2 34.9
286(9) 0.01090 270.2 34.1
288(9) 0.01077 270.2 32.9
299(9) 0.01076 270.3 31.6
284(9) 0.01177 270.3 30.1
308(9) 0.01016 270.3 28.6
281(9) 0.01134 270.3 27.1
302(9) 0.01054 270.3 25.7
288(9) 0.01143 270.3 24.4
291(9) 0.01144 270.4 23.3
290(9) 0.01089 270.4 22.4
289(9) 0.01029 270.4 21.6
284(9) 0.01117 270.4 20.9
308(9) 0.01101 270.4 20.5
293(9) 0.01120 270.5 20.2
292(9) 0.01076 270.5 20.1
301(10) 0.00981 270.5 20.2
299(9) 0.01054 270.5 20.4
280(9) 0.01184 270.5 20.8
277(9) 0.01195 270.6 21.3
295(9) 0.01122 270.6 22.0
293(9) 0.01053 270.6 22.9
295(9) 0.01095 270.6 24.0
326(9) 0.01014 270.6 25.3
305(9) 0.01076 270.7 26.9
316(10) 0.00992 270.7 28.7
334(10) 0.00903 270.7 30.7
314(10) 0.00999 270.7 33.1
290(9) 0.01143 270.7 35.7
323(9) 0.01037 270.7 38.6
300(9) 0.01066 270.8 41.8
313(10) 0.00959 270.8 45.3
314(9) 0.01008 270.8 48.9
340(10) 0.00991 270.8 52.8
343(10) 0.00966 270.8 56.7
346(10) 0.00915 270.9 60.6
316(10) 0.00989 270.9 64.3
336(10) 0.00926 270.9 67.7
316(9) 0.01062 270.9 70.7
339(10) 0.00988 270.9 73.0
325(10) 0.00971 271.0 74.5
342(10) 0.00907 271.0 75.2
342(10) 0.00940 271.0 75.1
338(9) 0.01011 271.0 74.2
328(10) 0.00990 271.0 72.8
349(10) 0.00888 271.1 71.0
351(10) 0.00904 271.1 69.1
333(10) 0.00982 271.1 67.1
320(9) 0.01033 271.1 65.2
328(10) 0.00974 271.1 63.5
351(10) 0.00855 271.1 62.0
326(10) 0.00964 271.2 60.8
304(9) 0.01081 271.2 59.7
324(9) 0.01040 271.2 58.8
330(10) 0.00982 271.2 58.0
320(10) 0.00975 271.2 57.1
312(10) 0.00988 271.3 56.0
313(9) 0.01066 271.3 54.7
333(10) 0.01000 271.3 53.1
326(10) 0.00977 271.3 51.1
312(10) 0.00933 271.3 48.9
300(9) 0.01068 271.4 46.6
305(9) 0.01104 271.4 44.1
284(9) 0.01171 271.4 41.6
326(10) 0.00960 271.4 39.2
290(9) 0.01046 271.4 37.0
321(9) 0.01015 271.5 34.9
330(9) 0.01021 271.5 32.9
303(9) 0.01105 271.5 31.2
285(9) 0.01085 271.5 29.7
287(9) 0.01074 271.5 28.4
314(9) 0.01033 271.5 27.3
317(9) 0.01058 271.6 26.4
291(9) 0.01145 271.6 25.8
288(9) 0.01077 271.6 25.3
308(10) 0.00987 271.6 24.9
303(9) 0.01046 271.6 24.8
301(9) 0.01120 271.7 24.7
310(9) 0.01049 271.7 24.8
308(10) 0.00992 271.7 25.1
264(9) 0.01169 271.7 25.4
305(9) 0.01016 271.7 25.8
295(9) 0.01134 271.8 26.3
308(9) 0.01064 271.8 26.9
291(9) 0.01098 271.8 27.5
294(9) 0.01058 271.8 28.3
294(9) 0.01082 271.8 29.0
309(9) 0.01094 271.9 29.9
316(9) 0.01026 271.9 30.7
293(9) 0.01060 271.9 31.6
299(9) 0.01033 271.9 32.6
306(9) 0.01020 271.9 33.5
325(9) 0.01040 271.9 34.4
315(9) 0.01008 272.0 35.4
311(10) 0.00993 272.0 36.2
324(10) 0.00987 272.0 37.1
338(10) 0.00971 272.0 37.9
342(10) 0.00993 272.0 38.6
298(9) 0.01064 272.1 39.3
308(10) 0.00958 272.1 39.8
312(10) 0.00988 272.1 40.3
292(9) 0.01143 272.1 40.7
291(9) 0.01127 272.1 41.0
300(9) 0.01073 272.2 41.1
295(9) 0.01037 272.2 41.1
308(10) 0.00995 272.2 41.0
313(9) 0.01079 272.2 40.8
313(9) 0.01074 272.2 40.4
316(10) 0.01002 272.3 39.9
301(10) 0.00966 272.3 39.3
313(10) 0.01004 272.3 38.6
298(9) 0.01120 272.3 37.8
301(9) 0.01111 272.3 36.9
293(9) 0.01070 272.3 36.0
304(10) 0.00941 272.4 35.0
298(9) 0.01051 272.4 33.9
292(9) 0.01120 272.4 32.9
311(9) 0.01094 272.4 31.8
282(9) 0.01126 272.4 30.8
292(10) 0.01007 272.5 29.8
306(9) 0.01030 272.5 28.8
285(9) 0.01169 272.5 27.9
291(9) 0.01138 272.5 27.0
288(9) 0.01069 272.5 26.1
301(10) 0.00971 272.6 25.3
282(9) 0.01122 272.6 24.6
268(9) 0.01226 272.6 23.9
297(9) 0.01110 272.6 23.2
299(9) 0.01086 272.6 22.7
316(10) 0.00977 272.7 22.1
312(9) 0.01018 272.7 21.7
295(9) 0.01116 272.7 21.2
263(9) 0.01218 272.7 20.9
273(9) 0.01153 272.7 20.5
284(9) 0.01067 272.7 20.2
295(9) 0.01050 272.8 20.0
270(9) 0.01223 272.8 19.8
310(9) 0.01068 272.8 19.6
299(9) 0.01038 272.8 19.4
272(9) 0.01073 272.8 19.3
294(9) 0.01060 272.9 19.2
290(9) 0.01141 272.9 19.1
308(9) 0.01037 272.9 19.0
310(10) 0.00969 272.9 18.9
320(10) 0.00941 272.9 18.9
280(9) 0.01196 273.0 18.9
290(9) 0.01150 273.0 18.9
269(9) 0.01181 273.0 18.9
269(9) 0.01141 273.0 19.0
288(9) 0.01065 273.0 19.2
274(9) 0.01199 273.1 19.4
309(9) 0.01092 273.1 19.7
284(9) 0.01117 273.1 20.1
280(9) 0.01094 273.1 20.6
304(9) 0.01025 273.1 21.1
309(9) 0.01073 273.1 21.9
293(9) 0.01124 273.2 22.7
298(9) 0.01044 273.2 23.6
285(9) 0.01050 273.2 24.8
303(9) 0.01016 273.2 26.0
291(9) 0.01116 273.2 27.4
281(9) 0.01200 273.3 28.9
298(9) 0.01092 273.3 30.6
281(9) 0.01103 273.3 32.4
323(10) 0.00980 273.3 34.3
310(9) 0.01070 273.3 36.2
320(9) 0.01041 273.4 38.2
342(10) 0.00923 273.4 40.1
336(10) 0.00881 273.4 42.0
337(10) 0.00920 273.4 43.6
323(9) 0.01038 273.4 45.1
321(9) 0.01040 273.5 46.1
344(10) 0.00903 273.5 46.8
328(10) 0.00911 273.5 47.0
315(10) 0.00988 273.5 46.7
313(9) 0.01060 273.5 46.0
328(10) 0.00999 273.5 44.9
325(10) 0.00972 273.6 43.4
334(10) 0.00908 273.6 41.7
316(9) 0.01011 273.6 39.8
319(9) 0.01051 273.6 37.8
312(9) 0.01043 273.6 35.8
338(10) 0.00921 273.7 33.8
307(9) 0.01008 273.7 31.9
301(9) 0.01019 273.7 30.1
307(9) 0.01102 273.7 28.4
319(10) 0.01007 273.7 26.8
323(10) 0.00959 273.8 25.4
304(9) 0.01008 273.8 24.2
290(9) 0.01116 273.8 23.1
286(9) 0.01172 273.8 22.2
311(9) 0.01034 273.8 21.5
309(9) 0.01026 273.9 20.9
312(10) 0.00955 273.9 20.5
292(9) 0.01093 273.9 20.2
281(9) 0.01182 273.9 20.1
294(9) 0.01073 273.9 20.1
280(9) 0.01118 273.9 20.2
290(9) 0.01078 274.0 20.5
303(9) 0.01076 274.0 21.0
333(10) 0.01007 274.0 21.5
330(10) 0.00917 274.0 22.2
292(9) 0.01040 274.0 23.0
315(10) 0.00986 274.1 23.9
321(10) 0.01007 274.1 25.0
294(9) 0.01136 274.1 26.1
302(9) 0.01031 274.1 27.4
333(10) 0.00887 274.1 28.8
312(9) 0.01031 274.2 30.3
314(9) 0.01057 274.2 31.9
315(9) 0.01065 274.2 33.6
306(9) 0.01046 274.2 35.4
312(10) 0.00961 274.2 37.2
320(9) 0.01023 274.3 39.0
300(9) 0.01125 274.3 40.9
327(9) 0.01033 274.3 42.7
313(9) 0.01032 274.3 44.4
303(10) 0.00957 274.3 46.0
284(9) 0.01112 274.3 47.4
336(10) 0.00981 274.4 48.6
333(9) 0.01019 274.4 49.5
331(10) 0.00929 274.4 50.1
304(10) 0.00963 274.4 50.3
313(10) 0.01007 274.4 50.2
313(9) 0.01076 274.5 49.7
303(9) 0.01088 274.5 48.9
332(10) 0.00967 274.5 47.8
323(10) 0.00967 274.5 46.4
319(10) 0.01004 274.5 44.8
302(9) 0.01097 274.6 43.1
309(9) 0.01086 274.6 41.3
285(9) 0.01088 274.6 39.4
296(9) 0.01037 274.6 37.5
314(10) 0.00974 274.6 35.6
299(9) 0.01128 274.7 33.8
287(9) 0.01119 274.7 32.0
286(9) 0.01066 274.7 30.3
274(9) 0.01073 274.7 28.7
290(9) 0.01057 274.7 27.2
295(9) 0.01133 274.7 25.8
288(9) 0.01107 274.8 24.5
296(9) 0.01034 274.8 23.3
293(9) 0.01051 274.8 22.3
294(9) 0.01047 274.8 21.4
297(9) 0.01128 274.8 20.6
292(9) 0.01110 274.9 19.8
287(9) 0.01088 274.9 19.3
285(9) 0.01052 274.9 18.8
281(9) 0.01141 274.9 18.4
281(9) 0.01174 274.9 18.1
284(9) 0.01071 275.0 17.9
311(10) 0.00938 275.0 17.8
302(9) 0.01024 275.0 17.8
320(10) 0.01007 275.0 17.8
287(9) 0.01180 275.0 17.9
310(10) 0.00976 275.1 18.1
287(9) 0.01095 275.1 18.3
307(10) 0.00998 275.1 18.5
305(9) 0.01067 275.1 18.7
283(9) 0.01163 275.1 18.9
316(10) 0.00982 275.1 19.2
297(10) 0.01003 275.2 19.3
311(10) 0.00997 275.2 19.4
293(9) 0.01131 275.2 19.5
293(9) 0.01148 275.2 19.4
303(9) 0.01060 275.2 19.3
285(9) 0.01053 275.3 19.0
283(9) 0.01118 275.3 18.7
309(9) 0.01073 275.3 18.3
272(9) 0.01226 275.3 17.8
288(9) 0.01096 275.3 17.3
268(9) 0.01123 275.4 16.8
286(9) 0.01091 275.4 16.2
304(9) 0.01111 275.4 15.6
286(9) 0.01166 275.4 15.1
244(8) 0.01307 275.4 14.5
298(10) 0.01005 275.5 14.0
308(9) 0.01059 275.5 13.5
305(9) 0.01110 275.5 13.1
305(9) 0.01082 275.5 12.7
285(9) 0.01126 275.5 12.3
290(10) 0.01005 275.5 12.0
283(9) 0.01110 275.6 11.7
299(9) 0.01116 275.6 11.5
300(9) 0.01110 275.6 11.3
294(9) 0.01085 275.6 11.1
288(9) 0.01033 275.6 11.0
301(9) 0.01027 275.7 11.0
274(9) 0.01209 275.7 11.0
278(9) 0.01131 275.7 11.0
290(9) 0.01080 275.7 11.1
285(9) 0.01110 275.7 11.3
314(9) 0.01043 275.8 11.6
297(9) 0.01140 275.8 11.9
307(9) 0.01035 275.8 12.3
278(9) 0.01136 275.8 12.7
252(9) 0.01226 275.8 13.3
273(9) 0.01138 275.9 14.0
298(9) 0.01128 275.9 14.7
289(9) 0.01101 275.9 15.5
283(9) 0.01070 275.9 16.5
293(9) 0.01046 275.9 17.5
301(9) 0.01071 275.9 18.6
313(9) 0.01078 276.0 19.8
273(9) 0.01098 276.0 21.1
293(9) 0.01024 276.0 22.4
300(9) 0.01037 276.0 23.7
278(9) 0.01151 276.0 25.0
287(9) 0.01166 276.1 26.3
305(9) 0.01011 276.1 27.5
279(9) 0.01075 276.1 28.5
293(9) 0.01070 276.1 29.4
304(9) 0.01090 276.1 30.0
306(9) 0.01088 276.2 30.3
274(9) 0.01186 276.2 30.3
325(10) 0.00906 276.2 30.0
302(9) 0.01062 276.2 29.5
298(9) 0.01114 276.2 28.8
287(9) 0.01154 276.3 27.9
296(9) 0.01088 276.3 26.9
301(10) 0.00980 276.3 25.9
308(10) 0.00972 276.3 24.8
320(9) 0.01035 276.3 23.8
298(9) 0.01131 276.3 22.8
304(9) 0.01073 276.4 21.9
322(10) 0.00924 276.4 21.1
282(9) 0.01139 276.4 20.3
318(9) 0.01058 276.4 19.7
293(9) 0.01100 276.4 19.2
318(10) 0.00992 276.5 18.8
297(9) 0.01023 276.5 18.5
294(9) 0.01070 276.5 18.3
300(9) 0.01117 276.5 18.2
300(9) 0.01093 276.5 18.3
278(9) 0.01128 276.6 18.4
305(10) 0.00976 276.6 18.6
309(9) 0.01019 276.6 18.8
309(9) 0.01083 276.6 19.2
294(9) 0.01091 276.6 19.6
287(9) 0.01084 276.7 20.1
306(10) 0.01000 276.7 20.7
316(10) 0.00982 276.7 21.3
301(9) 0.01111 276.7 22.0
335(10) 0.00950 276.7 22.7
296(9) 0.01046 276.7 23.4
293(9) 0.01086 276.8 24.2
295(9) 0.01113 276.8 25.1
292(9) 0.01145 276.8 25.9
276(9) 0.01121 276.8 26.8
316(10) 0.00959 276.8 27.7
307(9) 0.01020 276.9 28.6
331(10) 0.00970 276.9 29.4
315(9) 0.01062 276.9 30.3
308(9) 0.01028 276.9 31.1
326(10) 0.00950 276.9 31.9
313(9) 0.01027 277.0 32.7
320(9) 0.01027 277.0 33.4
320(9) 0.01060 277.0 34.0
296(9) 0.01051 277.0 34.5
296(9) 0.01016 277.0 34.9
296(9) 0.01090 277.1 35.1
296(9) 0.01123 277.1 35.3
302(9) 0.01119 277.1 35.3
297(9) 0.01062 277.1 35.3
315(10) 0.00966 277.1 35.0
325(10) 0.00975 277.1 34.7
313(9) 0.01073 277.2 34.2
329(9) 0.01009 277.2 33.7
310(9) 0.01015 277.2 33.0
295(10) 0.01007 277.2 32.3
298(9) 0.01012 277.2 31.5
303(9) 0.01098 277.3 30.6
313(9) 0.01066 277.3 29.7
349(10) 0.00908 277.3 28.8
308(10) 0.00985 277.3 27.8
290(9) 0.01103 277.3 26.9
294(9) 0.01136 277.4 25.9
292(9) 0.01128 277.4 24.9
286(9) 0.01059 277.4 24.0
280(9) 0.01044 277.4 23.1
294(9) 0.01020 277.4 22.2
310(9) 0.01090 277.5 21.3
296(9) 0.01094 277.5 20.4
328(10) 0.00944 277.5 19.6
285(9) 0.01085 277.5 18.8
313(9) 0.01025 277.5 18.1
312(9) 0.01077 277.5 17.4
280(9) 0.01148 277.6 16.7
292(9) 0.01066 277.6 16.0
306(10) 0.01004 277.6 15.4
314(10) 0.01000 277.6 14.8
312(9) 0.01084 277.6 14.3
303(9) 0.01048 277.7 13.8
282(9) 0.01137 277.7 13.3
309(9) 0.01011 277.7 12.8
296(9) 0.01075 277.7 12.4
295(9) 0.01138 277.7 12.0
285(9) 0.01104 277.8 11.6
307(10) 0.00993 277.8 11.3
310(10) 0.00992 277.8 10.9
288(9) 0.01128 277.8 10.6
254(8) 0.01297 277.8 10.4
307(10) 0.01007 277.9 10.1
286(10) 0.01003 277.9 9.9
258(9) 0.01230 277.9 9.6
285(9) 0.01162 277.9 9.4
288(9) 0.01164 277.9 9.3
277(9) 0.01108 277.9 9.1
329(10) 0.00866 278.0 8.9
279(9) 0.01112 278.0 8.8
279(9) 0.01145 278.0 8.7
297(9) 0.01121 278.0 8.5
292(9) 0.01078 278.0 8.4
310(10) 0.00993 278.1 8.3
299(9) 0.01074 278.1 8.2
272(9) 0.01203 278.1 8.2
291(9) 0.01147 278.1 8.1
292(9) 0.01057 278.1 8.0
302(10) 0.00943 278.2 7.9
284(9) 0.01122 278.2 7.9
293(9) 0.01125 278.2 7.8
281(9) 0.01194 278.2 7.8
279(9) 0.01129 278.2 7.7
306(10) 0.00941 278.3 7.7
286(9) 0.01149 278.3 7.6
305(9) 0.01092 278.3 7.6
294(9) 0.01091 278.3 7.5
289(9) 0.01103 278.3 7.5
304(10) 0.01006 278.3 7.4
296(9) 0.01082 278.4 7.4
289(9) 0.01142 278.4 7.3
289(9) 0.01156 278.4 7.3
293(9) 0.01121 278.4 7.3
308(9) 0.01013 278.4 7.2
289(9) 0.01069 278.5 7.1
292(9) 0.01132 278.5 7.1
302(9) 0.01097 278.5 7.0
310(9) 0.01028 278.5 7.0
291(9) 0.01065 278.5 6.9
296(9) 0.01071 278.6 6.9
268(9) 0.01229 278.6 6.8
279(9) 0.01139 278.6 6.8
284(9) 0.01079 278.6 6.7
298(9) 0.01039 278.6 6.7
310(9) 0.01033 278.7 6.6
297(9) 0.01153 278.7 6.6
303(9) 0.01041 278.7 6.5
289(9) 0.01059 278.7 6.5
292(9) 0.01057 278.7 6.4
292(9) 0.01094 278.7 6.4
266(8) 0.01237 278.8 6.4
302(9) 0.01022 278.8 6.3
297(9) 0.01049 278.8 6.3
294(9) 0.01056 278.8 6.3
280(9) 0.01158 278.8 6.3
300(9) 0.01111 278.9 6.3
290(9) 0.01020 278.9 6.3
293(9) 0.01038 278.9 6.2
296(9) 0.01034 278.9 6.3
285(9) 0.01158 278.9 6.3
295(9) 0.01143 279.0 6.3
266(9) 0.01192 279.0 6.3
298(10) 0.00941 279.0 6.3
287(9) 0.01091 279.0 6.3
300(9) 0.01111 279.0 6.4
287(9) 0.01145 279.1 6.4
306(9) 0.01042 279.1 6.5
300(10) 0.00990 279.1 6.6
289(9) 0.01111 279.1 6.7
297(9) 0.01105 279.1 6.8
288(9) 0.01147 279.1 6.9
293(9) 0.01074 279.2 7.0
300(10) 0.00997 279.2 7.1
278(9) 0.01129 279.2 7.3
289(9) 0.01150 279.2 7.5
300(9) 0.01113 279.2 7.7
303(9) 0.01035 279.3 8.0
301(10) 0.00998 279.3 8.3
291(9) 0.01078 279.3 8.7
306(9) 0.01075 279.3 9.1
297(9) 0.01087 279.3 9.5
292(9) 0.01092 279.4 10.1
296(9) 0.01027 279.4 10.7
285(9) 0.01115 279.4 11.4
296(9) 0.01125 279.4 12.1
312(9) 0.01025 279.4 13.0
293(9) 0.01106 279.5 14.0
290(9) 0.01081 279.5 15.1
304(10) 0.00974 279.5 16.3
310(9) 0.01066 279.5 17.6
321(9) 0.01009 279.5 19.0
313(10) 0.00982 279.5 20.5
296(10) 0.01003 279.6 22.2
322(10) 0.00976 279.6 23.9
303(9) 0.01102 279.6 25.6
312(9) 0.01025 279.6 27.4
303(9) 0.01018 279.6 29.2
311(9) 0.01009 279.7 30.9
326(10) 0.01004 279.7 32.5
328(9) 0.01034 279.7 34.0
305(9) 0.01049 279.7 35.2
338(10) 0.00900 279.7 36.1
309(9) 0.01031 279.8 36.7
324(10) 0.01000 279.8 36.9
326(9) 0.01033 279.8 36.6
298(9) 0.01041 279.8 36.0
307(10) 0.01002 279.8 35.1
346(10) 0.00906 279.9 33.9
324(9) 0.01017 279.9 32.4
330(9) 0.01017 279.9 30.8
309(10) 0.01001 279.9 29.1
283(9) 0.01085 279.9 27.3
291(9) 0.01080 279.9 25.6
286(9) 0.01120 280.0 23.8
320(9) 0.01041 280.0 22.2
294(9) 0.01073 280.0 20.6
296(9) 0.01023 280.0 19.1
293(9) 0.01099 280.0 17.8
284(9) 0.01126 280.1 16.5
299(9) 0.01131 280.1 15.4
308(10) 0.00983 280.1 14.4
314(10) 0.00886 280.1 13.4
287(9) 0.01091 280.1 12.6
294(9) 0.01129 280.2 11.9
311(9) 0.01063 280.2 11.3
302(9) 0.01039 280.2 10.7
321(10) 0.00941 280.2 10.2
324(10) 0.00992 280.2 9.8
297(9) 0.01125 280.3 9.5
282(9) 0.01160 280.3 9.2
284(9) 0.01063 280.3 8.9
279(9) 0.01044 280.3 8.7
293(9) 0.01021 280.3 8.5
283(9) 0.01156 280.3 8.4
319(9) 0.01036 280.4 8.2
315(10) 0.00987 280.4 8.1
310(10) 0.00988 280.4 8.0
303(9) 0.01024 280.4 8.0
297(9) 0.01109 280.4 7.9
290(9) 0.01105 280.5 7.9
304(10) 0.01007 280.5 7.8
297(9) 0.01049 280.5 7.8
299(9) 0.01073 280.5 7.8
324(9) 0.01030 280.5 7.8
278(9) 0.01150 280.6 7.8
303(9) 0.01010 280.6 7.9
326(10) 0.00933 280.6 7.9
321(10) 0.01002 280.6 7.9
316(9) 0.01063 280.6 8.0
319(10) 0.00984 280.7 8.0
282(9) 0.01122 280.7 8.1
315(10) 0.00967 280.7 8.1
323(10) 0.00993 280.7 8.2
308(9) 0.01092 280.7 8.3
287(9) 0.01091 280.7 8.4
321(10) 0.00929 280.8 8.5
312(10) 0.00994 280.8 8.6
292(9) 0.01112 280.8 8.7
293(9) 0.01144 280.8 8.8
309(10) 0.00991 280.8 8.9
312(10) 0.00929 280.9 9.0
305(9) 0.01032 280.9 9.2
311(9) 0.01068 280.9 9.3
278(9) 0.01204 280.9 9.5
299(9) 0.01067 280.9 9.7
304(10) 0.00967 281.0 9.9
312(9) 0.01018 281.0 10.1
296(9) 0.01138 281.0 10.3
298(9) 0.01127 281.0 10.6
325(10) 0.00995 281.0 10.9
299(9) 0.01015 281.1 11.2
286(9) 0.01071 281.1 11.5
303(9) 0.01099 281.1 11.9
318(9) 0.01057 281.1 12.3
311(9) 0.01018 281.1 12.8
310(10) 0.00923 281.1 13.4
285(9) 0.01112 281.2 14.0
321(9) 0.01046 281.2 14.7
330(9) 0.01015 281.2 15.5
308(9) 0.01024 281.2 16.3
310(10) 0.00962 281.2 17.3
310(9) 0.01020 281.3 18.4
321(9) 0.01040 281.3 19.7
310(9) 0.01067 281.3 21.1
326(10) 0.00954 281.3 22.6
311(10) 0.00970 281.3 24.2
308(9) 0.01040 281.4 26.0
323(9) 0.01037 281.4 27.9
355(10) 0.00935 281.4 29.9
334(10) 0.00932 281.4 32.0
348(10) 0.00863 281.4 34.2
346(10) 0.00967 281.5 36.4
380(10) 0.00894 281.5 38.6
363(10) 0.00892 281.5 40.7
355(10) 0.00879 281.5 42.7
361(10) 0.00866 281.5 44.4
352(10) 0.00916 281.5 45.7
366(10) 0.00927 281.6 46.7
350(10) 0.00925 281.6 47.3
352(10) 0.00883 281.6 47.4
362(10) 0.00858 281.6 47.1
371(10) 0.00897 281.6 46.4
332(9) 0.01020 281.7 45.5
353(10) 0.00904 281.7 44.3
369(11) 0.00823 281.7 43.0
353(10) 0.00894 281.7 41.7
341(10) 0.00983 281.7 40.5
333(9) 0.01012 281.8 39.3
331(10) 0.00968 281.8 38.2
340(10) 0.00886 281.8 37.4
344(10) 0.00931 281.8 36.7
364(10) 0.00921 281.8 36.2
315(9) 0.01080 281.9 36.0
322(10) 0.00992 281.9 36.0
330(10) 0.00930 281.9 36.2
332(10) 0.00926 281.9 36.7
320(9) 0.01044 281.9 37.5
329(9) 0.01017 281.9 38.5
319(9) 0.01012 282.0 39.7
352(11) 0.00825 282.0 41.1
343(10) 0.00929 282.0 42.8
343(10) 0.00980 282.0 44.6
365(10) 0.00923 282.0 46.5
370(10) 0.00890 282.1 48.5
359(11) 0.00828 282.1 50.6
343(10) 0.00935 282.1 52.8
356(10) 0.00948 282.1 54.8
354(10) 0.00955 282.1 56.7
363(10) 0.00897 282.2 58.5
385(11) 0.00799 282.2 59.9
369(10) 0.00908 282.2 60.9
379(10) 0.00883 282.2 61.5
368(10) 0.00903 282.2 61.6
342(10) 0.00931 282.3 61.2
370(11) 0.00809 282.3 60.3
342(10) 0.00937 282.3 59.0
352(10) 0.00965 282.3 57.3
335(10) 0.00963 282.3 55.3
324(10) 0.00968 282.3 53.1
340(10) 0.00930 282.4 50.8
351(10) 0.00893 282.4 48.4
320(9) 0.01048 282.4 46.0
316(9) 0.01031 282.4 43.6
322(9) 0.01015 282.4 41.3
304(9) 0.01058 282.5 39.0
322(10) 0.00964 282.5 36.9
325(9) 0.01035 282.5 34.9
337(10) 0.00984 282.5 33.1
325(10) 0.00988 282.5 31.3
332(10) 0.00941 282.6 29.7
312(9) 0.01022 282.6 28.3
322(9) 0.01055 282.6 26.9
316(10) 0.01000 282.6 25.7
344(10) 0.00854 282.6 24.6
311(10) 0.00990 282.7 23.6
344(10) 0.00955 282.7 22.8
312(9) 0.01075 282.7 22.0
338(10) 0.00923 282.7 21.2
302(9) 0.01040 282.7 20.6
298(9) 0.01050 282.7 20.0
277(9) 0.01196 282.8 19.5
299(9) 0.01108 282.8 19.1
320(10) 0.00969 282.8 18.7
290(9) 0.01036 282.8 18.3
297(9) 0.01062 282.8 18.0
303(9) 0.01085 282.9 17.7
291(9) 0.01146 282.9 17.4
299(9) 0.01048 282.9 17.2
296(10) 0.00983 282.9 17.0
329(10) 0.00958 282.9 16.8
311(9) 0.01086 283.0 16.6
288(9) 0.01165 283.0 16.5
310(9) 0.01034 283.0 16.4
309(10) 0.00947 283.0 16.3
309(9) 0.01033 283.0 16.2
286(9) 0.01182 283.1 16.1
309(9) 0.01072 283.1 16.1
314(9) 0.01013 283.1 16.0
293(9) 0.01041 283.1 16.0
307(9) 0.01011 283.1 16.0
300(9) 0.01118 283.1 16.1
295(9) 0.01123 283.2 16.1
313(10) 0.00983 283.2 16.2
297(10) 0.01000 283.2 16.3
292(9) 0.01076 283.2 16.4
286(9) 0.01169 283.2 16.5
280(9) 0.01143 283.3 16.6
305(10) 0.00998 283.3 16.8
297(10) 0.01006 283.3 17.0
299(9) 0.01017 283.3 17.2
293(9) 0.01142 283.3 17.5
320(9) 0.01017 283.4 17.7
303(9) 0.01033 283.4 18.0
311(10) 0.00999 283.4 18.3
316(9) 0.01023 283.4 18.7
300(9) 0.01109 283.4 19.1
309(9) 0.01013 283.5 19.5
303(9) 0.01014 283.5 19.9
288(9) 0.01063 283.5 20.3
298(9) 0.01047 283.5 20.8
312(9) 0.01073 283.5 21.3
294(9) 0.01074 283.5 21.9
282(9) 0.01101 283.6 22.4
329(10) 0.00939 283.6 23.0
317(9) 0.01023 283.6 23.6
302(9) 0.01108 283.6 24.2
295(9) 0.01032 283.6 24.9
311(10) 0.00956 283.7 25.5
296(9) 0.01089 283.7 26.2
323(9) 0.01015 283.7 26.8
317(9) 0.01061 283.7 27.5
278(9) 0.01112 283.7 28.2
295(9) 0.01012 283.8 28.8
304(9) 0.01021 283.8 29.5
292(9) 0.01149 283.8 30.1
327(9) 0.01024 283.8 30.7
320(10) 0.00994 283.8 31.3
321(10) 0.00929 283.9 31.9
326(10) 0.00995 283.9 32.4
310(9) 0.01095 283.9 32.9
338(10) 0.00984 283.9 33.5
314(10) 0.00997 283.9 33.9
321(10) 0.00882 283.9 34.4
289(9) 0.01043 284.0 34.9
306(9) 0.01098 284.0 35.3
305(9) 0.01082 284.0 35.7
297(9) 0.01043 284.0 36.2
328(10) 0.00888 284.0 36.6
307(9) 0.01027 284.1 37.0
347(10) 0.00959 284.1 37.3
332(10) 0.00995 284.1 37.7
308(9) 0.01034 284.1 38.0
294(9) 0.01055 284.1 38.3
315(10) 0.00984 284.2 38.5
312(9) 0.01087 284.2 38.8
321(9) 0.01027 284.2 39.0
325(10) 0.00990 284.2 39.1
322(10) 0.00973 284.2 39.2
330(10) 0.00948 284.3 39.3
310(9) 0.01082 284.3 39.3
339(10) 0.00984 284.3 39.3
314(10) 0.01004 284.3 39.2
356(10) 0.00859 284.3 39.1
343(10) 0.00900 284.3 39.0
316(9) 0.01064 284.4 38.9
322(9) 0.01020 284.4 38.7
340(10) 0.00914 284.4 38.6
285(9) 0.01117 284.4 38.4
321(10) 0.01001 284.4 38.2
330(9) 0.01035 284.5 38.0
318(10) 0.01002 284.5 37.8
328(10) 0.00961 284.5 37.7
328(10) 0.00956 284.5 37.5
312(9) 0.01065 284.5 37.4
340(10) 0.00994 284.6 37.3
338(10) 0.00944 284.6 37.2
323(10) 0.00917 284.6 37.1
313(10) 0.00999 284.6 37.1
300(9) 0.01064 284.6 37.1
332(9) 0.01010 284.7 37.2
331(10) 0.00977 284.7 37.3
337(10) 0.00899 284.7 37.4
319(10) 0.00965 284.7 37.6
342(10) 0.00971 284.7 37.8
306(9) 0.01105 284.7 38.1
325(10) 0.00963 284.8 38.4
348(11) 0.00831 284.8 38.8
331(10) 0.00956 284.8 39.2
343(10) 0.00985 284.8 39.8
337(10) 0.01002 284.8 40.4
331(10) 0.00959 284.9 41.0
338(10) 0.00851 284.9 41.8
342(10) 0.00921 284.9 42.6
339(10) 0.00989 284.9 43.6
330(10) 0.01002 284.9 44.6
357(10) 0.00883 285.0 45.7
324(10) 0.00941 285.0 47.0
365(10) 0.00876 285.0 48.3
320(9) 0.01051 285.0 49.8
355(10) 0.00945 285.0 51.3
370(10) 0.00861 285.1 52.9
359(10) 0.00858 285.1 54.7
344(10) 0.00935 285.1 56.5
357(10) 0.00950 285.1 58.4
340(10) 0.00990 285.1 60.3
376(10) 0.00860 285.1 62.2
358(10) 0.00875 285.2 64.1
339(10) 0.00926 285.2 66.0
358(10) 0.00939 285.2 67.7
353(10) 0.00949 285.2 69.2
378(10) 0.00860 285.2 70.5
358(10) 0.00874 285.3 71.4
360(10) 0.00879 285.3 72.0
345(10) 0.00994 285.3 72.1
333(10) 0.00957 285.3 71.8
348(10) 0.00916 285.3 71.0
349(10) 0.00909 285.4 69.8
353(10) 0.00949 285.4 68.2
335(9) 0.01013 285.4 66.3
355(10) 0.00872 285.4 64.0
328(10) 0.00965 285.4 61.6
353(10) 0.00887 285.5 59.1
334(10) 0.00985 285.5 56.5
324(9) 0.01047 285.5 53.8
307(9) 0.01037 285.5 51.2
298(9) 0.01041 285.5 48.7
330(10) 0.00946 285.5 46.2
330(9) 0.01012 285.6 43.8
320(9) 0.01050 285.6 41.5
309(10) 0.00988 285.6 39.4
319(10) 0.00989 285.6 37.4
327(10) 0.00963 285.6 35.5
312(9) 0.01071 285.7 33.8
307(9) 0.01089 285.7 32.1
295(9) 0.01052 285.7 30.6
317(10) 0.00943 285.7 29.3
325(9) 0.01012 285.7 28.0
325(9) 0.01030 285.8 26.8
330(9) 0.01015 285.8 25.8
327(10) 0.00979 285.8 24.8
347(10) 0.00869 285.8 23.9
320(9) 0.01014 285.8 23.1
325(9) 0.01039 285.9 22.4
281(9) 0.01166 285.9 21.7
303(9) 0.01042 285.9 21.1
311(10) 0.00919 285.9 20.6
314(10) 0.01005 285.9 20.1
291(9) 0.01127 285.9 19.6
308(9) 0.01063 286.0 19.2
311(9) 0.01039 286.0 18.8
309(10) 0.00970 286.0 18.4
317(9) 0.01009 286.0 18.1
336(10) 0.00995 286.0 17.8
296(9) 0.01118 286.1 17.5
305(9) 0.01023 286.1 17.3
340(10) 0.00846 286.1 17.0
311(10) 0.01004 286.1 16.8
308(9) 0.01106 286.1 16.6
292(9) 0.01087 286.2 16.4
279(9) 0.01127 286.2 16.2
317(10) 0.00934 286.2 16.1
322(10) 0.00968 286.2 15.9
317(9) 0.01061 286.2 15.8
310(9) 0.01033 286.3 15.7
320(10) 0.00982 286.3 15.5
314(10) 0.00990 286.3 15.4
305(9) 0.01059 286.3 15.4
312(9) 0.01082 286.3 15.3
308(9) 0.01044 286.3 15.2
307(10) 0.00994 286.4 15.1
306(10) 0.01001 286.4 15.1
292(9) 0.01060 286.4 15.0
297(9) 0.01128 286.4 15.0
302(9) 0.01051 286.4 15.0
315(10) 0.00990 286.5 15.0
310(9) 0.01024 286.5 15.0
312(9) 0.01063 286.5 15.0
330(9) 0.01018 286.5 15.0
295(9) 0.01063 286.5 15.0
314(10) 0.00928 286.6 15.0
289(9) 0.01070 286.6 15.1
286(9) 0.01156 286.6 15.1
294(9) 0.01146 286.6 15.2
311(10) 0.01003 286.6 15.2
324(10) 0.00926 286.7 15.3
316(9) 0.01021 286.7 15.4
325(9) 0.01025 286.7 15.5
322(9) 0.01049 286.7 15.6
285(9) 0.01099 286.7 15.8
311(10) 0.00924 286.7 15.9
321(9) 0.01009 286.8 16.1
286(9) 0.01164 286.8 16.2
302(9) 0.01088 286.8 16.4
317(10) 0.01007 286.8 16.6
319(10) 0.00903 286.8 16.8
314(9) 0.01035 286.9 17.0
335(9) 0.01010 286.9 17.3
319(9) 0.01022 286.9 17.5
285(9) 0.01123 286.9 17.8
316(10) 0.00892 286.9 18.0
313(10) 0.00968 287.0 18.3
318(9) 0.01060 287.0 18.6
338(10) 0.00971 287.0 18.8
304(9) 0.01018 287.0 19.1
314(10) 0.00962 287.0 19.4
324(10) 0.00976 287.1 19.7
320(9) 0.01053 287.1 19.9
321(9) 0.01039 287.1 20.1
302(9) 0.01063 287.1 20.3
337(10) 0.00910 287.1 20.5
334(10) 0.00948 287.1 20.6
335(10) 0.01005 287.2 20.7
346(10) 0.00953 287.2 20.7
312(9) 0.01042 287.2 20.7
314(10) 0.01001 287.2 20.6
307(9) 0.01013 287.2 20.5
310(9) 0.01085 287.3 20.3
324(10) 0.01002 287.3 20.0
325(10) 0.00971 287.3 19.7
338(10) 0.00884 287.3 19.4
294(9) 0.01108 287.3 19.0
295(9) 0.01136 287.4 18.6
296(9) 0.01060 287.4 18.1
259(8) 0.01245 287.4 17.7
318(10) 0.00965 287.4 17.2
293(9) 0.01126 287.4 16.8
316(9) 0.01057 287.5 16.3
308(9) 0.01025 287.5 15.8
307(10) 0.01004 287.5 15.4
310(10) 0.01000 287.5 14.9
309(9) 0.01072 287.5 14.5
318(9) 0.01066 287.5 14.1
313(9) 0.01021 287.6 13.7
315(10) 0.00944 287.6 13.3
302(9) 0.01014 287.6 12.9
274(9) 0.01193 287.6 12.6
306(9) 0.01109 287.6 12.2
325(10) 0.00950 287.7 11.9
305(10) 0.00980 287.7 11.6
316(10) 0.00990 287.7 11.3
320(9) 0.01048 287.7 11.0
306(9) 0.01089 287.7 10.8
286(9) 0.01127 287.8 10.5
301(10) 0.00973 287.8 10.3
319(10) 0.00980 287.8 10.0
299(9) 0.01131 287.8 9.8
294(9) 0.01126 287.8 9.6
309(9) 0.01025 287.9 9.5
284(9) 0.01057 287.9 9.3
317(10) 0.00988 287.9 9.1
313(9) 0.01067 287.9 9.0
290(9) 0.01155 287.9 8.8
284(9) 0.01161 287.9 8.7
322(10) 0.00951 288.0 8.5
327(10) 0.00976 288.0 8.4
304(9) 0.01104 288.0 8.3
293(9) 0.01133 288.0 8.2
296(9) 0.01054 288.0 8.1
305(10) 0.00966 288.1 8.0
304(9) 0.01024 288.1 7.9
317(9) 0.01067 288.1 7.9
318(9) 0.01052 288.1 7.8
283(9) 0.01115 288.1 7.7
282(9) 0.01092 288.2 7.7
287(9) 0.01120 288.2 7.6
296(9) 0.01119 288.2 7.6
324(10) 0.00985 288.2 7.5
312(9) 0.01025 288.2 7.5
309(9) 0.01014 288.3 7.5
283(9) 0.01124 288.3 7.4
309(9) 0.01089 288.3 7.4
327(10) 0.00978 288.3 7.4
287(9) 0.01112 288.3 7.3
323(10) 0.00923 288.3 7.3
295(9) 0.01062 288.4 7.3
294(9) 0.01129 288.4 7.2
301(9) 0.01067 288.4 7.2
321(10) 0.00963 288.4 7.2
318(10) 0.00984 288.4 7.1
317(9) 0.01028 288.5 7.1
300(9) 0.01122 288.5 7.1
285(9) 0.01095 288.5 7.0
294(9) 0.01022 288.5 7.0
308(9) 0.01010 288.5 7.0
312(9) 0.01060 288.6 7.0
289(9) 0.01161 288.6 6.9
311(9) 0.01029 288.6 6.9
316(10) 0.00971 288.6 6.9
296(9) 0.01056 288.6 6.9
293(9) 0.01112 288.7 6.9
265(9) 0.01228 288.7 6.9
306(9) 0.01038 288.7 6.9
314(10) 0.00914 288.7 6.9
304(9) 0.01018 288.7 6.9
284(9) 0.01186 288.7 6.9
300(9) 0.01109 288.8 6.9
325(10) 0.00961 288.8 6.9
277(9) 0.01057 288.8 6.9
310(10) 0.00984 288.8 7.0
289(9) 0.01151 288.8 7.0
309(9) 0.01067 288.9 7.1
316(10) 0.00976 288.9 7.1
284(9) 0.01072 288.9 7.1
294(9) 0.01081 288.9 7.2
299(9) 0.01114 288.9 7.2
302(9) 0.01094 289.0 7.3
297(9) 0.01041 289.0 7.4
306(10) 0.00977 289.0 7.4
288(9) 0.01071 289.0 7.5
303(9) 0.01095 289.0 7.5
280(9) 0.01167 289.1 7.6
292(9) 0.01113 289.1 7.7
310(10) 0.00985 289.1 7.7
296(9) 0.01025 289.1 7.8
319(9) 0.01052 289.1 7.9
299(9) 0.01075 289.1 7.9
290(9) 0.01124 289.2 8.0
304(9) 0.01047 289.2 8.0
302(9) 0.01084 289.2 8.1
298(9) 0.01116 289.2 8.1
296(9) 0.01051 289.2 8.1
303(10) 0.01005 289.3 8.2
313(10) 0.01001 289.3 8.2
304(9) 0.01047 289.3 8.2
294(9) 0.01140 289.3 8.2
308(10) 0.00988 289.3 8.2
293(9) 0.01051 289.4 8.2
298(9) 0.01047 289.4 8.2
289(9) 0.01107 289.4 8.2
322(9) 0.01040 289.4 8.2
312(9) 0.01009 289.4 8.2
300(9) 0.01049 289.5 8.2
330(10) 0.00952 289.5 8.2
304(9) 0.01087 289.5 8.2
331(9) 0.01032 289.5 8.1
296(9) 0.01023 289.5 8.1
291(9) 0.01018 289.5 8.1
296(9) 0.01047 289.6 8.0
299(9) 0.01113 289.6 8.0
306(9) 0.01103 289.6 7.9
330(10) 0.00984 289.6 7.9
284(9) 0.01078 289.6 7.8
294(9) 0.01060 289.7 7.8
322(9) 0.01026 289.7 7.7
285(9) 0.01173 289.7 7.7
303(9) 0.01060 289.7 7.6
319(10) 0.00912 289.7 7.6
287(9) 0.01079 289.8 7.5
281(9) 0.01188 289.8 7.5
314(9) 0.01064 289.8 7.4
315(9) 0.01026 289.8 7.3
312(10) 0.00967 289.8 7.3
314(10) 0.00983 289.9 7.2
301(9) 0.01084 289.9 7.2
297(9) 0.01140 289.9 7.1
307(9) 0.01037 289.9 7.1
313(10) 0.00972 289.9 7.0
288(9) 0.01093 289.9 6.9
306(9) 0.01093 290.0 6.9
283(9) 0.01117 290.0 6.8
298(9) 0.01040 290.0 6.8
305(10) 0.00993 290.0 6.7
286(9) 0.01108 290.0 6.7
307(9) 0.01078 290.1 6.6
306(9) 0.01089 290.1 6.6
312(9) 0.01015 290.1 6.5
316(10) 0.01002 290.1 6.5
299(9) 0.01088 290.1 6.4
292(9) 0.01149 290.2 6.4
278(9) 0.01151 290.2 6.4
296(9) 0.01060 290.2 6.3
312(9) 0.01008 290.2 6.3
309(9) 0.01036 290.2 6.2
267(9) 0.01223 290.2 6.2
286(9) 0.01091 290.2 6.2
272(9) 0.01141 290.3 6.1
264(9) 0.01175 290.3 6.1
294(9) 0.01096 290.3 6.0
309(9) 0.01088 290.3 6.0
299(9) 0.01068 290.3 6.0
316(10) 0.00956 290.3 5.9
295(9) 0.01095 290.3 5.9
304(9) 0.01064 290.3 5.9
293(9) 0.01160 290.3 5.9
317(10) 0.00986 290.3 5.8
309(10) 0.00986 290.4 5.8
306(9) 0.01074 290.4 5.8
276(9) 0.01218 290.4 5.8
294(9) 0.01132 290.4 5.8
272(9) 0.01165 290.4 5.7
315(10) 0.00930 290.4 5.7
321(10) 0.00983 290.4 5.7
323(9) 0.01044 290.4 5.7
326(9) 0.01044 290.4 5.7
286(9) 0.01102 290.5 5.7
300(9) 0.01008 290.5 5.7
295(9) 0.01093 290.5 5.7
294(9) 0.01141 290.5 5.7
319(9) 0.01035 290.5 5.7
306(10) 0.01006 290.5 5.7
281(9) 0.01087 290.5 5.7
291(9) 0.01053 290.5 5.7
303(9) 0.01115 290.5 5.7
310(9) 0.01072 290.6 5.7
295(9) 0.01038 290.6 5.7
284(9) 0.01082 290.6 5.8
302(9) 0.01036 290.6 5.8
275(9) 0.01205 290.6 5.8
295(9) 0.01104 290.6 5.8
306(9) 0.01022 290.6 5.9
305(10) 0.00994 290.6 5.9
292(9) 0.01085 290.6 6.0
313(9) 0.01066 290.6 6.0
273(9) 0.01183 290.7 6.1
295(9) 0.01041 290.7 6.1
287(9) 0.01066 290.7 6.2
305(9) 0.01031 290.7 6.3
317(9) 0.01062 290.7 6.3
289(9) 0.01111 290.7 6.4
310(9) 0.01012 290.7 6.5
302(9) 0.01024 290.7 6.6
290(9) 0.01040 290.7 6.7
294(9) 0.01124 290.8 6.8
313(9) 0.01014 290.8 7.0
311(10) 0.00998 290.8 7.1
324(10) 0.00963 290.8 7.3
311(9) 0.01035 290.8 7.4
308(9) 0.01099 290.8 7.6
329(10) 0.00991 290.8 7.8
325(10) 0.00943 290.8 8.0
304(9) 0.01051 290.8 8.2
300(9) 0.01092 290.8 8.4
304(9) 0.01105 290.9 8.6
299(9) 0.01052 290.9 8.9
292(9) 0.01036 290.9 9.1
282(9) 0.01116 290.9 9.4
302(9) 0.01074 290.9 9.7
327(9) 0.01033 290.9 10.0
281(9) 0.01140 290.9 10.3
312(10) 0.00968 290.9 10.7
318(10) 0.00971 290.9 11.0
316(9) 0.01041 291.0 11.4
307(9) 0.01079 291.0 11.7
301(9) 0.01028 291.0 12.1
299(10) 0.00993 291.0 12.5
310(9) 0.01012 291.0 12.9
302(9) 0.01106 291.0 13.3
342(10) 0.00983 291.0 13.7
312(9) 0.01071 291.0 14.0
321(10) 0.00950 291.0 14.4
323(10) 0.00965 291.1 14.7
300(9) 0.01110 291.1 15.1
310(9) 0.01077 291.1 15.4
282(9) 0.01171 291.1 15.6
276(9) 0.01087 291.1 15.9
273(9) 0.01130 291.1 16.1
286(9) 0.01166 291.1 16.2
311(9) 0.01062 291.1 16.3
303(9) 0.01037 291.1 16.3
294(9) 0.01015 291.1 16.3
291(9) 0.01093 291.2 16.3
299(9) 0.01124 291.2 16.2
314(9) 0.01026 291.2 16.1
283(9) 0.01112 291.2 15.9
305(10) 0.00998 291.2 15.7
301(9) 0.01064 291.2 15.5
329(9) 0.01023 291.2 15.3
335(10) 0.00956 291.2 15.0
318(10) 0.00974 291.2 14.8
302(9) 0.01059 291.3 14.5
303(9) 0.01029 291.3 14.3
285(9) 0.01163 291.3 14.0
301(9) 0.01054 291.3 13.8
312(10) 0.00963 291.3 13.6
317(10) 0.00972 291.3 13.4
307(9) 0.01052 291.3 13.2
278(9) 0.01181 291.3 13.0
295(9) 0.01060 291.3 12.8
299(9) 0.01043 291.3 12.7
289(9) 0.01037 291.4 12.5
288(9) 0.01109 291.4 12.4
296(9) 0.01139 291.4 12.3
293(9) 0.01057 291.4 12.2
319(10) 0.00930 291.4 12.2
289(9) 0.01083 291.4 12.1
317(9) 0.01067 291.4 12.1
310(9) 0.01087 291.4 12.1
292(9) 0.01067 291.4 12.1
315(10) 0.00932 291.5 12.1
318(10) 0.00990 291.5 12.2
282(9) 0.01176 291.5 12.2
312(9) 0.01077 291.5 12.3
300(9) 0.01032 291.5 12.4
314(10) 0.00911 291.5 12.5
301(9) 0.01050 291.5 12.7
295(9) 0.01130 291.5 12.8
306(9) 0.01084 291.5 13.0
297(9) 0.01033 291.6 13.2
326(10) 0.00898 291.6 13.5
316(10) 0.00999 291.6 13.7
309(9) 0.01088 291.6 14.0
322(9) 0.01041 291.6 14.3
318(9) 0.01018 291.6 14.7
312(10) 0.00949 291.6 15.1
287(9) 0.01113 291.6 15.5
295(9) 0.01134 291.6 15.9
327(10) 0.00994 291.6 16.4
308(9) 0.01019 291.7 16.9
330(10) 0.00918 291.7 17.5
326(10) 0.00977 291.7 18.1
339(9) 0.01010 291.7 18.7
336(10) 0.00965 291.7 19.4
328(10) 0.00953 291.7 20.1
338(10) 0.00873 291.7 20.9
291(9) 0.01068 291.7 21.6
312(9) 0.01069 291.7 22.4
336(10) 0.00982 291.8 23.3
328(10) 0.00971 291.8 24.1
339(10) 0.00916 291.8 25.0
330(10) 0.00985 291.8 25.9
309(9) 0.01077 291.8 26.7
314(9) 0.01034 291.8 27.5
323(10) 0.00976 291.8 28.3
315(9) 0.01028 291.8 29.0
311(9) 0.01060 291.8 29.6
318(9) 0.01058 291.9 30.2
315(10) 0.01007 291.9 30.6
302(9) 0.01022 291.9 30.8
315(10) 0.00979 291.9 31.0
297(9) 0.01084 291.9 30.9
340(10) 0.00984 291.9 30.8
313(9) 0.01025 291.9 30.4
333(10) 0.00894 291.9 30.0
323(10) 0.01005 291.9 29.4
325(9) 0.01020 291.9 28.7
329(9) 0.01027 292.0 27.9
315(10) 0.00991 292.0 27.0
305(10) 0.00985 292.0 26.1
289(9) 0.01092 292.0 25.1
305(9) 0.01088 292.0 24.1
332(9) 0.01016 292.0 23.1
318(9) 0.01020 292.0 22.2
316(10) 0.00951 292.0 21.2
303(9) 0.01047 292.0 20.3
302(9) 0.01077 292.1 19.4
301(9) 0.01121 292.1 18.5
327(10) 0.00951 292.1 17.6
313(10) 0.00957 292.1 16.8
298(9) 0.01054 292.1 16.1
314(9) 0.01073 292.1 15.4
316(9) 0.01046 292.1 14.7
303(9) 0.01065 292.1 14.1
308(10) 0.00955 292.1 13.5
282(9) 0.01092 292.1 12.9
302(9) 0.01127 292.2 12.4
313(9) 0.01051 292.2 12.0
283(9) 0.01105 292.2 11.5
308(10) 0.00971 292.2 11.1
306(9) 0.01031 292.2 10.7
297(9) 0.01114 292.2 10.4
294(9) 0.01131 292.2 10.1
318(10) 0.00997 292.2 9.8
320(10) 0.00915 292.2 9.6
311(10) 0.00996 292.3 9.3
328(9) 0.01036 292.3 9.1
308(9) 0.01055 292.3 8.9
295(9) 0.01097 292.3 8.7
312(10) 0.00987 292.3 8.6
289(9) 0.01096 292.3 8.4
322(9) 0.01044 292.3 8.3
315(9) 0.01020 292.3 8.2
308(9) 0.01019 292.3 8.0
316(10) 0.00989 292.4 7.9
301(9) 0.01055 292.4 7.8
310(9) 0.01085 292.4 7.8
295(9) 0.01055 292.4 7.7
311(10) 0.00992 292.4 7.6
308(9) 0.01030 292.4 7.5
316(10) 0.01005 292.4 7.4
318(9) 0.01050 292.4 7.4
305(9) 0.01026 292.4 7.3
297(9) 0.01027 292.4 7.2
287(9) 0.01075 292.5 7.1
297(9) 0.01119 292.5 7.1
283(9) 0.01166 292.5 7.0
295(9) 0.01025 292.5 6.9
301(10) 0.00960 292.5 6.8
313(10) 0.00947 292.5 6.8
302(9) 0.01082 292.5 6.7
301(9) 0.01117 292.5 6.6
296(9) 0.01051 292.5 6.6
312(10) 0.00962 292.6 6.5
321(9) 0.01014 292.6 6.4
291(9) 0.01129 292.6 6.4
293(9) 0.01139 292.6 6.3
289(9) 0.01115 292.6 6.2
323(10) 0.00893 292.6 6.2
315(10) 0.00970 292.6 6.1
308(9) 0.01077 292.6 6.1
313(9) 0.01068 292.6 6.0
296(9) 0.01076 292.7 6.0
323(10) 0.00901 292.7 6.0
292(9) 0.01072 292.7 5.9
322(9) 0.01053 292.7 5.9
296(9) 0.01097 292.7 5.9
310(10) 0.00999 292.7 5.8
309(10) 0.00995 292.7 5.8
315(10) 0.01003 292.7 5.8
302(9) 0.01120 292.7 5.8
280(9) 0.01162 292.7 5.8
311(10) 0.00987 292.8 5.8
303(9) 0.01013 292.8 5.8
306(9) 0.01048 292.8 5.8
315(9) 0.01063 292.8 5.8
313(9) 0.01049 292.8 5.8
304(9) 0.01043 292.8 5.8
291(9) 0.01067 292.8 5.8
307(9) 0.01056 292.8 5.9
281(9) 0.01177 292.8 5.9
293(9) 0.01117 292.9 5.9
308(9) 0.01038 292.9 6.0
310(9) 0.01015 292.9 6.0
288(9) 0.01114 292.9 6.1
283(9) 0.01171 292.9 6.2
287(9) 0.01053 292.9 6.3
284(9) 0.01081 292.9 6.3
297(9) 0.01084 292.9 6.5
304(9) 0.01070 292.9 6.6
308(9) 0.01089 292.9 6.7
294(9) 0.01060 293.0 6.8
277(9) 0.01109 293.0 7.0
277(9) 0.01124 293.0 7.2
301(9) 0.01054 293.0 7.4
266(8) 0.01267 293.0 7.6
310(9) 0.01012 293.0 7.9
289(9) 0.01040 293.0 8.2
304(10) 0.01000 293.0 8.5
297(9) 0.01096 293.0 8.8
314(9) 0.01078 293.1 9.2
294(9) 0.01079 293.1 9.6
314(10) 0.00937 293.1 10.1
294(9) 0.01075 293.1 10.6
333(10) 0.01002 293.1 11.1
298(9) 0.01104 293.1 11.7
324(10) 0.00947 293.1 12.2
302(10) 0.00944 293.1 12.9
289(9) 0.01094 293.1 13.5
337(10) 0.00987 293.2 14.1
319(9) 0.01053 293.2 14.8
297(9) 0.01090 293.2 15.5
320(10) 0.00906 293.2 16.1
289(9) 0.01130 293.2 16.7
313(9) 0.01080 293.2 17.3
333(9) 0.01019 293.2 17.8
326(10) 0.00943 293.2 18.2
306(10) 0.00973 293.2 18.5
346(10) 0.00912 293.2 18.8
328(9) 0.01038 293.3 18.9
327(9) 0.01037 293.3 19.0
296(9) 0.01077 293.3 18.9
305(9) 0.01015 293.3 18.8
330(10) 0.00952 293.3 18.7
307(9) 0.01090 293.3 18.5
301(9) 0.01071 293.3 18.3
319(10) 0.00988 293.3 18.1
345(10) 0.00894 293.3 17.9
290(9) 0.01115 293.4 17.7
281(9) 0.01197 293.4 17.5
317(9) 0.01046 293.4 17.4
317(10) 0.00973 293.4 17.3
321(10) 0.00973 293.4 17.3
303(9) 0.01073 293.4 17.2
321(9) 0.01054 293.4 17.3
340(10) 0.00964 293.4 17.3
316(10) 0.00995 293.4 17.4
317(10) 0.00990 293.5 17.5
341(10) 0.00954 293.5 17.7
314(9) 0.01059 293.5 17.9
312(9) 0.01028 293.5 18.1
298(9) 0.01032 293.5 18.3
323(10) 0.00962 293.5 18.5
312(9) 0.01035 293.5 18.8
327(9) 0.01024 293.5 19.0
331(10) 0.00984 293.5 19.2
322(10) 0.00957 293.5 19.5
340(10) 0.00903 293.6 19.7
333(10) 0.00998 293.6 19.9
323(9) 0.01042 293.6 20.0
310(9) 0.01018 293.6 20.2
334(10) 0.00871 293.6 20.3
317(10) 0.00985 293.6 20.4
295(9) 0.01114 293.6 20.5
309(9) 0.01103 293.6 20.6
310(9) 0.01014 293.6 20.6
299(9) 0.01008 293.7 20.6
322(10) 0.00935 293.7 20.5
324(9) 0.01016 293.7 20.5
328(9) 0.01039 293.7 20.4
304(9) 0.01080 293.7 20.3
332(10) 0.00883 293.7 20.3
312(9) 0.01012 293.7 20.2
335(9) 0.01015 293.7 20.0
330(9) 0.01024 293.7 19.9
323(10) 0.00987 293.7 19.8
319(10) 0.00928 293.8 19.7
320(10) 0.00962 293.8 19.7
316(9) 0.01057 293.8 19.6
349(10) 0.00951 293.8 19.5
320(10) 0.00989 293.8 19.5
316(10) 0.00966 293.8 19.5
322(10) 0.00970 293.8 19.5
313(9) 0.01083 293.8 19.5
311(9) 0.01042 293.8 19.5
312(10) 0.01005 293.9 19.6
331(10) 0.00919 293.9 19.7
307(10) 0.00997 293.9 19.8
303(9) 0.01114 293.9 20.0
319(10) 0.01006 293.9 20.2
312(9) 0.01011 293.9 20.4
337(10) 0.00890 293.9 20.7
313(9) 0.01049 293.9 21.0
333(9) 0.01019 293.9 21.3
335(10) 0.00961 294.0 21.6
327(10) 0.00951 294.0 21.9
319(10) 0.00968 294.0 22.3
339(10) 0.00974 294.0 22.6
334(9) 0.01009 294.0 23.0
323(10) 0.01004 294.0 23.4
332(10) 0.00929 294.0 23.7
344(10) 0.00903 294.0 24.0
305(9) 0.01060 294.0 24.2
324(9) 0.01038 294.0 24.4
300(9) 0.01026 294.1 24.6
311(10) 0.00923 294.1 24.6
346(10) 0.00904 294.1 24.6
316(9) 0.01035 294.1 24.4
322(9) 0.01052 294.1 24.2
329(10) 0.00986 294.1 23.9
329(10) 0.00902 294.1 23.5
325(10) 0.00993 294.1 23.0
337(10) 0.00974 294.1 22.5
319(9) 0.01057 294.2 21.9
331(10) 0.00992 294.2 21.3
313(10) 0.00985 294.2 20.7
323(10) 0.00995 294.2 20.1
317(9) 0.01072 294.2 19.4
330(10) 0.01006 294.2 18.8
302(9) 0.01073 294.2 18.2
314(10) 0.00938 294.2 17.6
310(9) 0.01026 294.2 17.0
307(9) 0.01094 294.3 16.5
336(10) 0.00998 294.3 16.0
308(9) 0.01014 294.3 15.5
311(10) 0.00948 294.3 15.1
305(9) 0.01041 294.3 14.7
323(9) 0.01038 294.3 14.3
305(9) 0.01094 294.3 14.0
319(10) 0.00965 294.3 13.7
304(10) 0.00983 294.3 13.4
304(10) 0.01005 294.3 13.2
333(9) 0.01010 294.4 13.0
328(10) 0.00973 294.4 12.8
290(9) 0.01068 294.4 12.7
310(10) 0.00969 294.4 12.6
304(9) 0.01010 294.4 12.6
303(9) 0.01100 294.4 12.6
301(9) 0.01056 294.4 12.6
325(10) 0.00960 294.4 12.7
333(10) 0.00897 294.4 12.9
319(10) 0.00980 294.5 13.0
313(9) 0.01076 294.5 13.2
330(9) 0.01011 294.5 13.5
315(10) 0.00979 294.5 13.8
313(10) 0.00971 294.5 14.2
298(9) 0.01109 294.5 14.6
299(9) 0.01118 294.5 15.0
320(10) 0.00982 294.5 15.5
309(9) 0.01009 294.5 16.1
330(10) 0.00948 294.5 16.7
300(9) 0.01062 294.6 17.3
302(9) 0.01105 294.6 18.0
310(10) 0.00980 294.6 18.7
305(9) 0.01008 294.6 19.4
303(9) 0.01063 294.6 20.2
322(10) 0.01005 294.6 21.0
338(10) 0.00988 294.6 21.7
306(9) 0.01045 294.6 22.5
279(9) 0.01135 294.6 23.3
337(10) 0.00925 294.7 24.0
327(10) 0.00982 294.7 24.6
316(9) 0.01075 294.7 25.2
299(9) 0.01081 294.7 25.6
314(10) 0.00981 294.7 25.9
318(9) 0.01016 294.7 26.1
330(9) 0.01028 294.7 26.1
337(10) 0.00984 294.7 26.0
317(10) 0.00994 294.7 25.8
314(10) 0.00945 294.8 25.4
321(10) 0.01003 294.8 24.9
317(9) 0.01081 294.8 24.2
313(9) 0.01050 294.8 23.5
320(10) 0.00972 294.8 22.8
309(10) 0.00933 294.8 21.9
329(10) 0.00958 294.8 21.1
309(9) 0.01076 294.8 20.3
314(9) 0.01072 294.8 19.4
320(9) 0.01017 294.8 18.6
308(10) 0.00994 294.9 17.8
297(9) 0.01059 294.9 17.0
308(9) 0.01098 294.9 16.2
322(9) 0.01027 294.9 15.5
303(9) 0.01067 294.9 14.9
311(10) 0.00984 294.9 14.3
324(10) 0.00946 294.9 13.7
300(9) 0.01110 294.9 13.2
309(9) 0.01071 294.9 12.7
282(9) 0.01083 295.0 12.2
296(9) 0.01015 295.0 11.9
302(9) 0.01041 295.0 11.5
288(9) 0.01150 295.0 11.2
285(9) 0.01116 295.0 11.0
306(10) 0.00997 295.0 10.8
297(9) 0.01052 295.0 10.6
326(10) 0.00992 295.0 10.5
315(9) 0.01062 295.0 10.4
318(10) 0.01003 295.1 10.4
312(10) 0.01006 295.1 10.5
300(9) 0.01010 295.1 10.5
305(9) 0.01061 295.1 10.7
315(9) 0.01061 295.1 10.9
314(9) 0.01025 295.1 11.1
295(9) 0.01031 295.1 11.4
312(9) 0.01030 295.1 11.8
332(10) 0.00996 295.1 12.2
320(9) 0.01059 295.1 12.6
325(10) 0.00980 295.2 13.1
312(10) 0.00944 295.2 13.5
308(9) 0.01037 295.2 14.0
296(9) 0.01102 295.2 14.5
286(9) 0.01145 295.2 14.9
285(9) 0.01121 295.2 15.3
336(10) 0.00875 295.2 15.7
292(9) 0.01045 295.2 15.9
309(9) 0.01036 295.2 16.0
305(9) 0.01117 295.3 16.0
313(10) 0.00971 295.3 16.0
312(10) 0.00934 295.3 15.8
316(10) 0.00988 295.3 15.5
309(9) 0.01061 295.3 15.2
320(9) 0.01053 295.3 14.8
303(9) 0.01077 295.3 14.5
294(10) 0.00989 295.3 14.1
287(9) 0.01099 295.3 13.7
304(9) 0.01098 295.3 13.4
288(9) 0.01170 295.4 13.0
296(9) 0.01050 295.4 12.7
298(10) 0.01000 295.4 12.5
299(9) 0.01030 295.4 12.3
308(9) 0.01081 295.4 12.1
265(8) 0.01256 295.4 12.0
286(9) 0.01102 295.4 11.9
334(10) 0.00855 295.4 11.9
312(9) 0.01019 295.4 11.9
308(9) 0.01089 295.5 11.9
313(9) 0.01056 295.5 12.0
282(9) 0.01128 295.5 12.1
323(10) 0.00943 295.5 12.2
303(9) 0.01065 295.5 12.3
317(9) 0.01059 295.5 12.5
287(9) 0.01131 295.5 12.7
280(9) 0.01105 295.5 12.9
306(10) 0.00968 295.5 13.2
287(9) 0.01074 295.6 13.4
288(9) 0.01145 295.6 13.7
323(9) 0.01017 295.6 14.1
326(10) 0.00950 295.6 14.4
320(10) 0.00969 295.6 14.8
313(9) 0.01078 295.6 15.2
319(9) 0.01056 295.6 15.7
317(9) 0.01014 295.6 16.2
314(10) 0.00979 295.6 16.8
316(10) 0.00992 295.6 17.5
313(9) 0.01058 295.7 18.2
320(9) 0.01048 295.7 19.0
305(9) 0.01021 295.7 19.9
303(10) 0.00982 295.7 20.9
330(10) 0.00940 295.7 22.0
328(9) 0.01018 295.7 23.2
345(10) 0.00987 295.7 24.6
346(10) 0.00914 295.7 26.1
329(10) 0.00913 295.7 27.8
330(10) 0.00949 295.8 29.6
336(9) 0.01010 295.8 31.6
342(10) 0.00993 295.8 33.8
325(10) 0.00983 295.8 36.2
310(10) 0.01001 295.8 38.7
343(10) 0.00917 295.8 41.5
337(10) 0.00999 295.8 44.5
346(10) 0.00984 295.8 47.6
361(10) 0.00869 295.8 51.0
382(11) 0.00777 295.9 54.5
354(10) 0.00917 295.9 58.1
385(10) 0.00873 295.9 61.9
372(10) 0.00923 295.9 65.7
398(11) 0.00785 295.9 69.5
385(11) 0.00793 295.9 73.4
392(11) 0.00817 295.9 77.1
405(10) 0.00854 295.9 80.5
410(11) 0.00830 295.9 83.7
420(11) 0.00782 295.9 86.5
411(11) 0.00767 296.0 88.9
426(11) 0.00728 296.0 90.6
383(10) 0.00890 296.0 91.6
407(11) 0.00823 296.0 92.0
398(11) 0.00793 296.0 91.6
389(11) 0.00838 296.0 90.6
424(11) 0.00750 296.0 88.8
397(10) 0.00861 296.0 86.5
359(10) 0.00923 296.0 83.7
371(10) 0.00861 296.1 80.6
365(11) 0.00838 296.1 77.1
353(10) 0.00887 296.1 73.4
338(10) 0.01004 296.1 69.6
345(10) 0.00938 296.1 65.7
364(10) 0.00856 296.1 61.9
354(10) 0.00898 296.1 58.1
345(10) 0.00958 296.1 54.4
360(10) 0.00943 296.1 50.9
327(10) 0.00957 296.1 47.5
360(11) 0.00826 296.2 44.3
327(10) 0.00963 296.2 41.3
344(10) 0.00946 296.2 38.4
322(9) 0.01049 296.2 35.7
345(10) 0.00898 296.2 33.3
339(10) 0.00902 296.2 31.0
330(10) 0.00977 296.2 28.9
336(10) 0.01001 296.2 27.0
307(9) 0.01093 296.2 25.2
313(10) 0.01004 296.3 23.6
316(10) 0.00944 296.3 22.1
312(10) 0.01005 296.3 20.8
312(9) 0.01066 296.3 19.6
324(9) 0.01035 296.3 18.5
313(10) 0.00992 296.3 17.6
312(10) 0.00927 296.3 16.7
315(9) 0.01017 296.3 15.9
324(9) 0.01033 296.3 15.2
309(9) 0.01073 296.4 14.6
317(10) 0.00980 296.4 14.0
294(10) 0.01006 296.4 13.5
286(9) 0.01095 296.4 13.0
271(9) 0.01225 296.4 12.6
309(9) 0.01070 296.4 12.2
306(9) 0.01039 296.4 11.8
303(10) 0.00988 296.4 11.5
302(9) 0.01038 296.4 11.2
289(9) 0.01157 296.4 10.9
294(9) 0.01139 296.5 10.7
294(9) 0.01082 296.5 10.5
316(10) 0.00915 296.5 10.3
297(9) 0.01053 296.5 10.1
281(9) 0.01183 296.5 9.9
302(9) 0.01083 296.5 9.8
292(9) 0.01098 296.5 9.6
315(10) 0.00965 296.5 9.5
294(9) 0.01077 296.5 9.4
311(9) 0.01080 296.6 9.3
304(9) 0.01097 296.6 9.2
311(9) 0.01024 296.6 9.1
296(9) 0.01031 296.6 9.0
298(9) 0.01088 296.6 8.9
299(9) 0.01121 296.6 8.9
311(9) 0.01030 296.6 8.8
330(10) 0.00975 296.6 8.7
306(9) 0.01031 296.6 8.7
328(10) 0.00992 296.7 8.6
313(9) 0.01064 296.7 8.5
302(9) 0.01098 296.7 8.5
312(10) 0.00987 296.7 8.4
315(10) 0.01007 296.7 8.3
322(10) 0.00994 296.7 8.3
313(9) 0.01068 296.7 8.2
340(10) 0.00944 296.7 8.2
303(9) 0.01046 296.7 8.1
313(10) 0.00977 296.7 8.0
297(9) 0.01101 296.8 8.0
296(9) 0.01112 296.8 7.9
315(10) 0.00992 296.8 7.9
286(9) 0.01105 296.8 7.9
314(9) 0.01017 296.8 7.8
286(9) 0.01150 296.8 7.8
309(9) 0.01095 296.8 7.8
314(9) 0.01028 296.8 7.7
322(10) 0.00931 296.8 7.7
321(10) 0.00984 296.9 7.7
324(9) 0.01042 296.9 7.7
309(9) 0.01076 296.9 7.7
301(9) 0.01054 296.9 7.7
309(10) 0.00975 296.9 7.7
299(9) 0.01080 296.9 7.7
290(9) 0.01163 296.9 7.8
312(9) 0.01076 296.9 7.8
325(10) 0.00967 296.9 7.8
319(10) 0.00916 296.9 7.9
293(9) 0.01057 297.0 7.9
287(9) 0.01148 297.0 8.0
308(9) 0.01065 297.0 8.0
311(10) 0.01004 297.0 8.1
286(9) 0.01051 297.0 8.1
294(9) 0.01038 297.0 8.2
318(9) 0.01039 297.0 8.3
296(9) 0.01114 297.0 8.4
314(10) 0.00992 297.0 8.4
293(9) 0.01040 297.1 8.5
293(9) 0.01087 297.1 8.6
317(9) 0.01064 297.1 8.7
293(9) 0.01092 297.1 8.8
312(9) 0.01013 297.1 8.9
340(10) 0.00897 297.1 8.9
338(10) 0.00965 297.1 9.0
305(9) 0.01103 297.1 9.1
303(9) 0.01068 297.1 9.2
310(10) 0.01007 297.2 9.3
281(9) 0.01087 297.2 9.4
300(9) 0.01050 297.2 9.5
293(9) 0.01136 297.2 9.5
300(9) 0.01037 297.2 9.6
296(10) 0.01006 297.2 9.7
307(9) 0.01034 297.2 9.7
298(9) 0.01104 297.2 9.8
311(9) 0.01073 297.2 9.8
303(9) 0.01029 297.2 9.9
308(9) 0.01021 297.2 9.9
311(9) 0.01039 297.2 9.9
316(9) 0.01020 297.2 10.0
316(9) 0.01070 297.2 10.0
321(10) 0.00987 297.2 10.0
302(10) 0.00997 297.1 10.1
302(9) 0.01048 297.1 10.1
307(9) 0.01090 297.1 10.1
294(9) 0.01131 297.1 10.1
302(9) 0.01056 297.1 10.1
298(10) 0.01000 297.1 10.2
308(9) 0.01027 297.1 10.2
307(9) 0.01081 297.1 10.2
254(8) 0.01318 297.1 10.2
284(9) 0.01080 297.1 10.3
295(10) 0.00982 297.1 10.3
312(10) 0.00978 297.1 10.3
308(9) 0.01086 297.1 10.4
316(9) 0.01057 297.1 10.4
330(10) 0.00927 297.1 10.4
298(9) 0.01012 297.1 10.5
290(9) 0.01086 297.0 10.5
330(9) 0.01023 297.0 10.5
296(9) 0.01140 297.0 10.6
282(9) 0.01151 297.0 10.6
309(10) 0.00957 297.0 10.7
306(9) 0.01011 297.0 10.7
301(9) 0.01099 297.0 10.8
312(9) 0.01074 297.0 10.9
290(9) 0.01111 297.0 10.9
299(10) 0.01005 297.0 11.0
311(10) 0.00983 297.0 11.1
300(9) 0.01114 297.0 11.2
323(10) 0.00999 297.0 11.3
308(9) 0.01024 297.0 11.3
303(9) 0.01030 297.0 11.5
315(9) 0.01013 296.9 11.6
325(9) 0.01043 296.9 11.7
323(9) 0.01009 296.9 11.8
329(10) 0.00955 296.9 12.0
311(10) 0.01001 296.9 12.1
304(9) 0.01072 296.9 12.3
293(9) 0.01137 296.9 12.5
287(9) 0.01121 296.9 12.6
298(9) 0.01030 296.9 12.8
310(10) 0.01006 296.9 13.0
301(9) 0.01048 296.9 13.3
317(9) 0.01063 296.9 13.5
301(9) 0.01059 296.9 13.8
344(10) 0.00873 296.9 14.0
314(10) 0.00985 296.9 14.3
314(9) 0.01015 296.9 14.6
303(9) 0.01096 296.8 15.0
314(10) 0.00998 296.8 15.3
332(10) 0.00915 296.8 15.7
311(9) 0.01046 296.8 16.1
299(9) 0.01102 296.8 16.5
324(9) 0.01047 296.8 16.9
307(9) 0.01013 296.8 17.4
326(10) 0.00893 296.8 17.8
290(9) 0.01116 296.8 18.3
329(9) 0.01010 296.8 18.9
329(9) 0.01033 296.8 19.4
324(10) 0.00981 296.8 20.0
336(10) 0.00870 296.8 20.7
319(10) 0.00991 296.8 21.3
343(10) 0.00984 296.8 22.0
331(9) 0.01019 296.7 22.7
306(9) 0.01028 296.7 23.5
308(10) 0.00963 296.7 24.3
292(9) 0.01091 296.7 25.1
305(9) 0.01091 296.7 25.9
291(9) 0.01137 296.7 26.8
348(10) 0.00869 296.7 27.8
308(10) 0.00969 296.7 28.7
328(10) 0.00955 296.7 29.7
333(9) 0.01017 296.7 30.8
328(9) 0.01015 296.7 31.8
341(10) 0.00933 296.7 32.9
344(10) 0.00871 296.7 34.1
345(10) 0.00919 296.7 35.2
334(9) 0.01010 296.7 36.4
325(9) 0.01017 296.7 37.6
334(10) 0.00956 296.6 38.8
341(10) 0.00920 296.6 40.1
351(10) 0.00903 296.6 41.3
333(9) 0.01015 296.6 42.6
353(10) 0.00902 296.6 43.8
347(10) 0.00890 296.6 45.1
362(10) 0.00858 296.6 46.3
371(10) 0.00890 296.6 47.5
361(10) 0.00944 296.6 48.7
367(10) 0.00862 296.6 49.8
346(10) 0.00908 296.6 50.9
378(11) 0.00819 296.6 51.9
375(10) 0.00870 296.6 52.9
355(10) 0.00959 296.6 53.8
337(10) 0.00964 296.6 54.7
352(10) 0.00870 296.5 55.5
353(10) 0.00919 296.5 56.2
344(10) 0.00959 296.5 56.8
364(10) 0.00927 296.5 57.4
366(10) 0.00873 296.5 57.9
385(11) 0.00823 296.5 58.2
361(10) 0.00900 296.5 58.5
367(10) 0.00918 296.5 58.7
329(9) 0.01026 296.5 58.7
357(10) 0.00897 296.5 58.6
328(10) 0.00957 296.5 58.4
350(10) 0.00921 296.5 58.1
337(10) 0.00983 296.5 57.6
349(10) 0.00972 296.5 57.0
344(10) 0.00897 296.5 56.3
349(10) 0.00865 296.5 55.5
359(10) 0.00874 296.4 54.5
343(10) 0.00993 296.4 53.5
348(10) 0.00947 296.4 52.3
339(10) 0.00915 296.4 51.1
319(10) 0.00946 296.4 49.8
372(11) 0.00834 296.4 48.4
351(10) 0.00957 296.4 47.1
341(10) 0.01000 296.4 45.7
336(10) 0.00930 296.4 44.3
342(10) 0.00865 296.4 42.8
327(10) 0.00984 296.4 41.4
325(9) 0.01031 296.4 40.1
315(9) 0.01055 296.4 38.7
346(10) 0.00898 296.4 37.4
313(10) 0.01003 296.4 36.1
330(10) 0.00974 296.3 34.8
329(9) 0.01025 296.3 33.6
316(9) 0.01050 296.3 32.5
317(10) 0.00973 296.3 31.4
313(10) 0.00957 296.3 30.3
313(10) 0.00973 296.3 29.2
325(9) 0.01029 296.3 28.3
324(9) 0.01037 296.3 27.3
339(10) 0.00919 296.3 26.4
311(9) 0.01025 296.3 25.6
313(9) 0.01037 296.3 24.8
316(9) 0.01065 296.3 24.0
304(9) 0.01022 296.3 23.3
316(10) 0.00975 296.3 22.6
315(9) 0.01016 296.3 21.9
304(9) 0.01058 296.3 21.3
313(9) 0.01073 296.2 20.7
292(9) 0.01033 296.2 20.2
320(10) 0.00910 296.2 19.7
313(9) 0.01008 296.2 19.2
313(9) 0.01028 296.2 18.7
313(9) 0.01073 296.2 18.3
308(9) 0.01015 296.2 17.8
315(10) 0.00974 296.2 17.5
297(9) 0.01043 296.2 17.1
312(9) 0.01073 296.2 16.7
318(9) 0.01066 296.2 16.4
305(10) 0.00985 296.2 16.1
282(9) 0.01065 296.2 15.8
311(9) 0.01027 296.2 15.5
305(9) 0.01089 296.2 15.2
296(9) 0.01105 296.1 14.9
309(10) 0.01005 296.1 14.7
303(10) 0.00990 296.1 14.4
296(9) 0.01027 296.1 14.2
315(9) 0.01058 296.1 14.0
279(9) 0.01185 296.1 13.8
272(9) 0.01142 296.1 13.6
291(9) 0.01019 296.1 13.4
304(9) 0.01062 296.1 13.2
314(9) 0.01080 296.1 13.0
316(9) 0.01040 296.1 12.8
278(9) 0.01122 296.1 12.6
299(9) 0.01018 296.1 12.5
324(10) 0.01001 296.1 12.3
312(9) 0.01075 296.1 12.2
301(9) 0.01091 296.1 12.0
306(9) 0.01023 296.0 11.9
335(10) 0.00905 296.0 11.7
289(9) 0.01107 296.0 11.6
294(9) 0.01130 296.0 11.4
281(9) 0.01160 296.0 11.3
297(9) 0.01046 296.0 11.2
268(9) 0.01143 296.0 11.1
287(9) 0.01044 296.0 10.9
292(9) 0.01133 296.0 10.8
307(9) 0.01041 296.0 10.7
285(9) 0.01090 296.0 10.6
296(9) 0.01033 296.0 10.5
310(10) 0.00994 296.0 10.4
298(9) 0.01134 296.0 10.3
299(9) 0.01071 296.0 10.2
317(10) 0.00997 295.9 10.1
321(10) 0.00945 295.9 10.0
314(9) 0.01025 295.9 9.9
305(9) 0.01109 295.9 9.8
293(9) 0.01055 295.9 9.7
301(9) 0.01017 295.9 9.6
286(9) 0.01084 295.9 9.5
304(9) 0.01068 295.9 9.4
312(9) 0.01079 295.9 9.4
275(9) 0.01154 295.9 9.3
288(9) 0.01058 295.9 9.2
294(9) 0.01099 295.9 9.1
288(9) 0.01130 295.9 9.1
264(8) 0.01252 295.9 9.0
291(9) 0.01047 295.9 8.9
285(9) 0.01068 295.9 8.9
300(9) 0.01031 295.8 8.8
299(9) 0.01106 295.8 8.8
277(9) 0.01200 295.8 8.7
297(9) 0.01071 295.8 8.6
281(9) 0.01061 295.8 8.6
287(9) 0.01084 295.8 8.6
298(9) 0.01114 295.8 8.5
289(9) 0.01149 295.8 8.5
292(9) 0.01060 295.8 8.4
290(10) 0.00997 295.8 8.4
263(9) 0.01201 295.8 8.4
307(9) 0.01075 295.8 8.3
308(9) 0.01076 295.8 8.3
305(9) 0.01026 295.8 8.3
294(10) 0.00992 295.8 8.2
301(9) 0.01054 295.7 8.2
311(9) 0.01065 295.7 8.2
295(9) 0.01123 295.7 8.2
271(9) 0.01161 295.7 8.2
295(10) 0.00992 295.7 8.2
290(9) 0.01080 295.7 8.2
272(8) 0.01231 295.7 8.1
291(9) 0.01096 295.7 8.1
294(9) 0.01053 295.7 8.1
293(9) 0.01018 295.7 8.1
293(9) 0.01060 295.7 8.2
290(9) 0.01149 295.7 8.2
296(9) 0.01072 295.7 8.2
276(9) 0.01137 295.7 8.2
284(9) 0.01086 295.7 8.2
313(10) 0.00962 295.7 8.2
289(9) 0.01152 295.6 8.2
306(9) 0.01069 295.6 8.3
290(9) 0.01092 295.6 8.3
291(9) 0.01043 295.6 8.3
279(9) 0.01152 295.6 8.3
294(9) 0.01141 295.6 8.4
291(9) 0.01100 295.6 8.4
302(9) 0.01010 295.6 8.5
292(9) 0.01033 295.6 8.5
280(9) 0.01171 295.6 8.5
320(9) 0.01052 295.6 8.6
307(9) 0.01022 295.6 8.6
317(10) 0.00982 295.6 8.7
305(9) 0.01048 295.6 8.7
257(8) 0.01287 295.6 8.8
295(9) 0.01128 295.5 8.9
272(9) 0.01135 295.5 8.9
297(9) 0.01017 295.5 9.0
283(9) 0.01104 295.5 9.1
279(9) 0.01170 295.5 9.1
304(9) 0.01107 295.5 9.2
275(9) 0.01101 295.5 9.3
289(9) 0.01012 295.5 9.4
277(9) 0.01147 295.5 9.4
304(9) 0.01095 295.5 9.5
314(9) 0.01069 295.5 9.6
290(9) 0.01040 295.5 9.7
293(10) 0.01002 295.5 9.8
287(9) 0.01128 295.5 9.9
273(9) 0.01218 295.5 10.0
266(8) 0.01259 295.5 10.1
291(9) 0.01062 295.4 10.2
308(10) 0.00969 295.4 10.3
291(9) 0.01074 295.4 10.3
296(9) 0.01128 295.4 10.4
283(9) 0.01175 295.4 10.5
274(9) 0.01133 295.4 10.6
280(9) 0.01073 295.4 10.7
295(9) 0.01068 295.4 10.8
289(9) 0.01153 295.4 10.9
315(9) 0.01065 295.4 11.0
321(10) 0.01005 295.4 11.1
300(10) 0.01004 295.4 11.2
301(9) 0.01013 295.4 11.3
320(9) 0.01061 295.4 11.3
313(9) 0.01010 295.4 11.4
314(10) 0.00989 295.3 11.5
311(10) 0.00989 295.3 11.6
305(9) 0.01018 295.3 11.7
311(9) 0.01075 295.3 11.7
321(9) 0.01021 295.3 11.8
275(9) 0.01162 295.3 11.9
316(10) 0.00931 295.3 11.9
297(9) 0.01039 295.3 12.0
309(9) 0.01080 295.3 12.1
296(9) 0.01086 295.3 12.1
288(9) 0.01083 295.3 12.2
272(9) 0.01157 295.3 12.3
314(10) 0.01002 295.3 12.3
308(9) 0.01084 295.3 12.4
287(9) 0.01111 295.3 12.4
295(9) 0.01055 295.3 12.5
314(10) 0.00983 295.2 12.6
300(9) 0.01038 295.2 12.6
284(9) 0.01147 295.2 12.7
296(9) 0.01072 295.2 12.8
298(9) 0.01022 295.2 12.8
304(9) 0.01028 295.2 12.9
297(9) 0.01111 295.2 13.0
297(9) 0.01115 295.2 13.0
286(9) 0.01110 295.2 13.1
293(9) 0.01026 295.2 13.2
325(10) 0.00980 295.2 13.2
306(9) 0.01074 295.2 13.3
274(9) 0.01216 295.2 13.3
277(9) 0.01166 295.2 13.4
322(10) 0.00936 295.2 13.5
315(9) 0.01037 295.1 13.5
297(9) 0.01115 295.1 13.6
323(9) 0.01040 295.1 13.6
295(9) 0.01050 295.1 13.7
291(10) 0.01004 295.1 13.7
297(9) 0.01061 295.1 13.7
308(9) 0.01099 295.1 13.8
305(9) 0.01095 295.1 13.8
301(9) 0.01050 295.1 13.8
308(10) 0.00943 295.1 13.8
300(9) 0.01019 295.1 13.9
287(9) 0.01165 295.1 13.9
302(9) 0.01091 295.1 13.8
310(9) 0.01036 295.1 13.8
305(10) 0.00991 295.1 13.8
313(10) 0.00985 295.1 13.8
291(9) 0.01147 295.0 13.8
307(9) 0.01064 295.0 13.7
294(9) 0.01076 295.0 13.7
310(10) 0.00978 295.0 13.6
307(9) 0.01016 295.0 13.6
305(9) 0.01092 295.0 13.5
302(9) 0.01065 295.0 13.5
299(9) 0.01060 295.0 13.4
298(9) 0.01008 295.0 13.3
314(9) 0.01008 295.0 13.3
303(9) 0.01112 295.0 13.2
282(9) 0.01110 295.0 13.1
282(9) 0.01083 295.0 13.0
305(10) 0.01004 295.0 12.9
295(9) 0.01083 295.0 12.9
272(9) 0.01222 294.9 12.8
295(9) 0.01075 294.9 12.7
314(10) 0.00995 294.9 12.6
314(10) 0.00995 294.9 12.5
305(9) 0.01059 294.9 12.4
313(9) 0.01082 294.9 12.4
295(9) 0.01046 294.9 12.3
316(10) 0.00932 294.9 12.2
298(9) 0.01057 294.9 12.1
305(9) 0.01099 294.9 12.1
305(9) 0.01092 294.9 12.0
309(10) 0.00968 294.9 11.9
328(10) 0.00894 294.9 11.8
277(9) 0.01153 294.8 11.8
295(9) 0.01134 294.8 11.7
317(9) 0.01066 294.8 11.6
313(9) 0.01013 294.8 11.6
305(10) 0.00998 294.8 11.5
287(9) 0.01116 294.7 11.5
315(9) 0.01060 294.7 11.4
292(9) 0.01102 294.7 11.4
290(9) 0.01094 294.7 11.3
286(9) 0.01082 294.6 11.3
305(9) 0.01060 294.6 11.2
289(9) 0.01155 294.6 11.2
307(9) 0.01089 294.6 11.2
308(9) 0.01022 294.5 11.2
315(10) 0.00928 294.5 11.2
309(9) 0.01055 294.5 11.2
312(9) 0.01077 294.5 11.3
287(9) 0.01144 294.4 11.3
299(9) 0.01035 294.4 11.4
307(10) 0.00972 294.4 11.6
312(10) 0.00947 294.4 11.8
297(9) 0.01118 294.3 12.0
314(9) 0.01052 294.3 12.3
299(9) 0.01064 294.3 12.7
303(9) 0.01019 294.3 13.2
293(9) 0.01105 294.2 13.8
297(9) 0.01125 294.2 14.5
288(9) 0.01125 294.2 15.3
308(10) 0.00996 294.2 16.2
290(9) 0.01069 294.1 17.2
305(9) 0.01024 294.1 18.4
309(9) 0.01086 294.1 19.6
313(9) 0.01029 294.1 20.9
322(10) 0.00960 294.0 22.2
295(9) 0.01057 294.0 23.5
314(10) 0.01001 294.0 24.9
310(9) 0.01078 294.0 26.1
318(9) 0.01027 293.9 27.1
308(9) 0.01046 293.9 28.0
329(10) 0.00920 293.9 28.6
289(9) 0.01102 293.9 29.0
318(9) 0.01061 293.8 28.9
304(9) 0.01047 293.8 28.6
314(10) 0.00951 293.8 27.9
298(9) 0.01057 293.8 27.0
296(9) 0.01065 293.7 25.9
287(9) 0.01171 293.7 24.6
310(9) 0.01015 293.7 23.3
313(10) 0.00962 293.7 21.9
288(9) 0.01095 293.6 20.5
286(9) 0.01128 293.6 19.2
314(9) 0.01063 293.6 17.9
325(10) 0.00983 293.6 16.7
311(10) 0.00994 293.5 15.6
304(9) 0.01056 293.5 14.7
294(9) 0.01142 293.5 13.9
311(9) 0.01077 293.5 13.1
278(9) 0.01154 293.5 12.5
293(10) 0.00997 293.4 12.0
282(9) 0.01098 293.4 11.6
313(9) 0.01074 293.4 11.3
289(9) 0.01157 293.4 11.0
309(9) 0.01029 293.3 10.8
307(10) 0.00969 293.3 10.7
302(9) 0.01024 293.3 10.6
282(9) 0.01173 293.3 10.5
287(9) 0.01160 293.2 10.5
304(9) 0.01022 293.2 10.5
304(10) 0.00972 293.2 10.5
318(10) 0.01000 293.2 10.5
288(9) 0.01132 293.1 10.5
299(9) 0.01118 293.1 10.6
327(10) 0.00947 293.1 10.7
313(10) 0.00972 293.1 10.7
276(9) 0.01127 293.0 10.8
268(8) 0.01231 293.0 10.9
294(9) 0.01099 293.0 11.0
296(9) 0.01051 293.0 11.2
306(10) 0.00984 292.9 11.3
296(9) 0.01049 292.9 11.4
297(9) 0.01122 292.9 11.6
285(9) 0.01126 292.9 11.7
313(9) 0.01014 292.8 11.9
321(10) 0.00973 292.8 12.1
311(9) 0.01046 292.8 12.3
286(9) 0.01160 292.8 12.5
274(9) 0.01132 292.7 12.7
273(9) 0.01105 292.7 12.9
305(9) 0.01019 292.7 13.2
321(10) 0.01005 292.7 13.4
296(9) 0.01126 292.6 13.7
299(9) 0.01041 292.6 13.9
278(9) 0.01089 292.6 14.2
307(9) 0.01010 292.6 14.5
306(9) 0.01099 292.5 14.8
321(9) 0.01051 292.5 15.1
292(9) 0.01083 292.5 15.4
299(9) 0.01049 292.5 15.7
329(10) 0.00952 292.4 16.0
298(9) 0.01104 292.4 16.3
287(9) 0.01158 292.4 16.7
303(9) 0.01047 292.4 17.0
294(9) 0.01048 292.3 17.3
302(9) 0.01051 292.3 17.6
315(9) 0.01072 292.3 17.9
303(9) 0.01115 292.3 18.2
339(10) 0.00915 292.2 18.5
306(10) 0.00953 292.2 18.8
305(9) 0.01030 292.2 19.1
305(9) 0.01099 292.2 19.3
306(9) 0.01086 292.2 19.6
309(9) 0.01032 292.1 19.9
335(10) 0.00885 292.1 20.3
331(10) 0.00957 292.1 20.6
324(9) 0.01048 292.1 20.9
333(10) 0.01005 292.0 21.2
317(9) 0.01026 292.0 21.6
320(10) 0.00931 292.0 21.9
325(10) 0.00965 292.0 22.3
335(10) 0.01007 291.9 22.6
309(9) 0.01078 291.9 23.0
292(9) 0.01108 291.9 23.3
333(10) 0.00884 291.9 23.7
324(10) 0.00974 291.8 24.1
297(9) 0.01120 291.8 24.5
307(9) 0.01077 291.8 24.8
307(9) 0.01025 291.8 25.2
316(10) 0.00969 291.7 25.6
320(10) 0.00994 291.7 25.9
292(9) 0.01132 291.7 26.3
294(9) 0.01119 291.7 26.7
305(9) 0.01015 291.6 27.0
299(9) 0.01033 291.6 27.3
294(9) 0.01056 291.6 27.7
315(9) 0.01084 291.6 28.0
349(10) 0.00916 291.5 28.3
322(10) 0.00977 291.5 28.5
301(9) 0.01045 291.5 28.8
325(10) 0.00979 291.5 29.1
327(9) 0.01027 291.4 29.3
337(10) 0.00936 291.4 29.5
352(10) 0.00861 291.4 29.7
325(9) 0.01010 291.4 29.8
339(10) 0.00970 291.3 30.0
323(9) 0.01042 291.3 30.1
300(9) 0.01053 291.3 30.2
317(10) 0.00979 291.3 30.3
330(10) 0.00938 291.2 30.4
323(9) 0.01031 291.2 30.4
308(9) 0.01084 291.2 30.5
315(10) 0.00972 291.2 30.5
312(10) 0.00944 291.1 30.5
332(10) 0.00926 291.1 30.5
292(9) 0.01129 291.1 30.4
330(9) 0.01027 291.1 30.4
334(10) 0.00934 291.0 30.3
333(10) 0.00877 291.0 30.2
301(9) 0.01049 291.0 30.1
331(9) 0.01016 291.0 30.0
292(9) 0.01135 290.9 29.9
308(9) 0.01056 290.9 29.8
323(10) 0.00903 290.9 29.7
329(10) 0.00917 290.9 29.5
312(9) 0.01080 290.9 29.3
327(9) 0.01023 290.8 29.1
321(10) 0.00984 290.8 28.9
317(10) 0.00965 290.8 28.6
336(10) 0.00922 290.8 28.3
345(10) 0.00977 290.7 28.0
316(9) 0.01038 290.7 27.7
322(10) 0.00970 290.7 27.3
304(10) 0.00982 290.7 26.9
306(9) 0.01061 290.6 26.4
292(9) 0.01148 290.6 26.0
309(9) 0.01081 290.6 25.5
303(9) 0.01064 290.6 25.1
327(10) 0.00960 290.5 24.6
342(10) 0.00942 290.5 24.1
324(9) 0.01039 290.5 23.7
313(9) 0.01064 290.5 23.3
296(9) 0.01050 290.4 22.9
317(10) 0.00962 290.4 22.5
300(9) 0.01081 290.4 22.2
301(9) 0.01104 290.4 22.0
310(9) 0.01049 290.3 21.7
298(9) 0.01093 290.3 21.6
313(10) 0.00951 290.3 21.5
306(9) 0.01048 290.3 21.5
330(9) 0.01024 290.2 21.5
316(9) 0.01030 290.2 21.6
312(10) 0.00999 290.2 21.8
293(9) 0.01129 290.2 22.0
319(9) 0.01012 290.1 22.3
313(9) 0.01076 290.1 22.7
355(10) 0.00882 290.1 23.0
311(10) 0.00979 290.1 23.4
323(10) 0.00954 290.0 23.8
324(9) 0.01026 290.0 24.1
315(9) 0.01067 290.0 24.3
320(10) 0.00981 290.0 24.5
313(10) 0.00963 289.9 24.6
283(9) 0.01146 289.9 24.5
309(9) 0.01081 289.9 24.2
319(9) 0.01053 289.9 23.8
330(10) 0.00965 289.8 23.3
303(9) 0.01011 289.8 22.7
306(9) 0.01029 289.8 21.9
311(9) 0.01071 289.8 21.1
305(9) 0.01117 289.7 20.3
317(10) 0.00999 289.7 19.5
313(10) 0.00939 289.7 18.6
322(10) 0.00976 289.7 17.8
298(9) 0.01105 289.6 17.1
300(9) 0.01114 289.6 16.4
302(9) 0.01023 289.6 15.7
312(10) 0.00987 289.6 15.1
316(9) 0.01012 289.5 14.6
317(9) 0.01041 289.5 14.2
324(9) 0.01035 289.5 13.8
302(9) 0.01051 289.5 13.4
293(10) 0.00993 289.5 13.2
269(9) 0.01158 289.4 12.9
318(9) 0.01043 289.4 12.7
301(9) 0.01097 289.4 12.6
297(9) 0.01035 289.4 12.5
308(10) 0.00923 289.3 12.4
281(9) 0.01118 289.3 12.4
289(9) 0.01141 289.3 12.4
288(9) 0.01123 289.3 12.4
326(10) 0.00949 289.2 12.4
309(10) 0.00973 289.2 12.5
292(9) 0.01065 289.2 12.6
281(9) 0.01185 289.2 12.7
295(9) 0.01107 289.1 12.8
315(10) 0.00980 289.1 13.0
300(9) 0.01035 289.1 13.2
287(9) 0.01106 289.1 13.4
302(9) 0.01116 289.0 13.6
290(9) 0.01086 289.0 13.9
285(9) 0.01081 289.0 14.2
297(9) 0.01067 289.0 14.5
295(9) 0.01118 288.9 14.9
313(9) 0.01073 288.9 15.2
325(10) 0.00971 288.9 15.6
307(9) 0.01014 288.9 16.1
306(9) 0.01039 288.8 16.5
310(9) 0.01053 288.8 17.0
303(9) 0.01102 288.8 17.4
302(9) 0.01028 288.8 17.9
334(10) 0.00904 288.7 18.4
298(9) 0.01083 288.7 18.9
300(9) 0.01054 288.7 19.4
311(9) 0.01094 288.7 19.8
308(10) 0.01007 288.6 20.3
310(10) 0.00964 288.6 20.7
324(10) 0.00964 288.6 21.1
316(9) 0.01037 288.6 21.5
304(9) 0.01118 288.5 21.8
313(10) 0.01004 288.5 22.1
332(10) 0.00924 288.5 22.3
343(10) 0.00971 288.5 22.6
318(9) 0.01065 288.4 22.8
276(9) 0.01189 288.4 22.9
320(10) 0.00964 288.4 23.1
294(9) 0.01049 288.4 23.1
319(10) 0.00976 288.3 23.2
303(9) 0.01111 288.3 23.2
309(9) 0.01075 288.3 23.1
294(9) 0.01082 288.3 23.0
306(10) 0.00980 288.2 22.9
323(10) 0.00959 288.2 22.7
318(9) 0.01069 288.2 22.4
299(9) 0.01116 288.2 22.2
296(9) 0.01063 288.2 21.9
293(9) 0.01037 288.1 21.6
303(9) 0.01042 288.1 21.4
303(9) 0.01112 288.1 21.1
320(9) 0.01033 288.1 20.9
294(9) 0.01090 288.0 20.7
292(9) 0.01009 288.0 20.5
316(10) 0.00967 288.0 20.3
295(9) 0.01128 288.0 20.1
305(9) 0.01068 287.9 20.0
273(9) 0.01188 287.9 19.9
304(9) 0.01019 287.9 19.8
286(9) 0.01097 287.9 19.6
291(9) 0.01155 287.8 19.5
337(10) 0.00920 287.8 19.4
280(9) 0.01087 287.8 19.3
300(9) 0.01018 287.8 19.1
293(9) 0.01096 287.7 18.9
303(9) 0.01104 287.7 18.8
303(9) 0.01035 287.7 18.6
286(9) 0.01050 287.7 18.3
310(10) 0.00980 287.6 18.1
314(9) 0.01067 287.6 17.8
301(9) 0.01113 287.6 17.5
317(10) 0.00983 287.6 17.2
290(9) 0.01073 287.5 16.9
335(10) 0.00929 287.5 16.6
319(9) 0.01029 287.5 16.2
292(9) 0.01133 287.5 15.9
331(10) 0.00986 287.4 15.5
320(10) 0.01005 287.4 15.1
310(9) 0.01062 287.4 14.7
301(9) 0.01114 287.4 14.3
288(9) 0.01160 287.3 13.9
310(9) 0.01026 287.3 13.5
313(10) 0.00944 287.3 13.1
322(10) 0.00972 287.3 12.7
293(9) 0.01151 287.2 12.3
305(9) 0.01102 287.2 12.0
329(10) 0.00952 287.2 11.6
303(10) 0.00956 287.2 11.2
287(9) 0.01138 287.1 10.9
296(9) 0.01135 287.1 10.5
310(9) 0.01075 287.1 10.2
291(9) 0.01092 287.1 9.9
294(10) 0.00997 287.0 9.5
336(10) 0.00942 287.0 9.2
299(9) 0.01124 287.0 9.0
300(9) 0.01100 287.0 8.7
301(9) 0.01067 286.9 8.4
298(9) 0.01030 286.9 8.2
300(9) 0.01032 286.9 7.9
297(9) 0.01120 286.9 7.7
281(9) 0.01158 286.9 7.5
264(9) 0.01158 286.8 7.3
296(10) 0.00978 286.8 7.1
285(9) 0.01065 286.8 6.9
304(9) 0.01098 286.8 6.7
296(9) 0.01102 286.7 6.5
300(9) 0.01050 286.7 6.3
312(10) 0.00938 286.7 6.2
284(9) 0.01119 286.7 6.0
286(9) 0.01165 286.6 5.9
299(9) 0.01065 286.6 5.8
309(10) 0.00983 286.6 5.6
293(9) 0.01040 286.6 5.5
300(9) 0.01094 286.5 5.4
297(9) 0.01124 286.5 5.3
313(9) 0.01025 286.5 5.2
272(9) 0.01132 286.5 5.1
275(9) 0.01127 286.4 5.0
288(9) 0.01127 286.4 4.9
319(9) 0.01044 286.4 4.8
292(9) 0.01112 286.4 4.8
304(9) 0.01015 286.3 4.7
293(9) 0.01079 286.3 4.6
308(9) 0.01060 286.3 4.5
328(9) 0.01026 286.3 4.5
296(9) 0.01068 286.2 4.4
297(10) 0.01005 286.2 4.4
273(9) 0.01179 286.2 4.3
293(9) 0.01113 286.2 4.3
284(9) 0.01185 286.1 4.2
326(10) 0.00965 286.1 4.2
309(10) 0.00965 286.1 4.1
294(9) 0.01077 286.1 4.1
282(9) 0.01180 286.0 4.0
298(9) 0.01103 286.0 4.0
315(9) 0.01016 286.0 4.0
288(10) 0.01006 286.0 3.9
281(9) 0.01130 285.9 3.9
307(9) 0.01079 285.9 3.9
289(9) 0.01135 285.9 3.8
300(9) 0.01070 285.9 3.8
298(10) 0.00998 285.8 3.8
273(9) 0.01182 285.8 3.8
287(9) 0.01168 285.8 3.7
279(9) 0.01168 285.8 3.7
291(9) 0.01092 285.7 3.7
294(10) 0.01003 285.7 3.7
304(9) 0.01022 285.7 3.7
276(9) 0.01211 285.7 3.7
289(9) 0.01114 285.6 3.6
291(9) 0.01071 285.6 3.6
284(9) 0.01068 285.6 3.6
294(9) 0.01099 285.6 3.6
330(9) 0.01024 285.5 3.6
311(9) 0.01043 285.5 3.6
267(9) 0.01189 285.5 3.6
299(9) 0.01029 285.5 3.6
307(9) 0.01068 285.5 3.6
275(9) 0.01197 285.4 3.6
297(9) 0.01058 285.4 3.6
295(9) 0.01031 285.4 3.6
276(9) 0.01142 285.4 3.6
292(9) 0.01110 285.3 3.6
295(9) 0.01132 285.3 3.6
309(9) 0.01032 285.3 3.6
297(9) 0.01050 285.3 3.6
295(9) 0.01055 285.2 3.6
285(9) 0.01141 285.2 3.6
280(9) 0.01190 285.2 3.6
270(9) 0.01170 285.2 3.6
296(10) 0.00990 285.1 3.6
289(9) 0.01049 285.1 3.6
306(9) 0.01074 285.1 3.6
282(9) 0.01175 285.1 3.6
275(9) 0.01162 285.0 3.7
293(9) 0.01008 285.0 3.7
310(9) 0.01029 285.0 3.7
297(9) 0.01107 285.0 3.7
277(9) 0.01195 284.9 3.7
283(9) 0.01101 284.9 3.7
298(9) 0.01008 284.9 3.8
274(9) 0.01160 284.9 3.8
283(9) 0.01173 284.8 3.8
289(9) 0.01147 284.8 3.8
268(9) 0.01147 284.8 3.9
293(10) 0.00980 284.8 3.9
307(9) 0.01016 284.7 3.9
298(9) 0.01116 284.7 3.9
305(9) 0.01107 284.7 4.0
292(9) 0.01089 284.7 4.0
293(10) 0.00991 284.6 4.1
277(9) 0.01127 284.6 4.1
275(9) 0.01219 284.6 4.1
281(9) 0.01165 284.6 4.2
291(9) 0.01096 284.5 4.2
268(9) 0.01139 284.5 4.3
283(9) 0.01093 284.5 4.3
329(9) 0.01036 284.5 4.4
285(9) 0.01121 284.4 4.4
251(8) 0.01279 284.4 4.5
308(10) 0.00985 284.4 4.5
274(9) 0.01178 284.4 4.6
307(9) 0.01098 284.4 4.6
298(9) 0.01086 284.4 4.7
288(9) 0.01087 284.4 4.8
297(9) 0.01052 284.4 4.8
290(9) 0.01085 284.4 4.9
264(8) 0.01254 284.4 5.0
305(9) 0.01063 284.4 5.0
290(9) 0.01063 284.4 5.1
263(9) 0.01183 284.4 5.2
285(9) 0.01112 284.4 5.3
289(9) 0.01155 284.4 5.4
306(9) 0.01023 284.4 5.4
275(9) 0.01122 284.4 5.5
297(9) 0.01021 284.5 5.6
288(9) 0.01097 284.5 5.7
284(9) 0.01171 284.5 5.8
293(9) 0.01063 284.5 5.9
292(9) 0.01053 284.5 6.0
290(9) 0.01106 284.5 6.1
285(9) 0.01119 284.5 6.2
284(9) 0.01184 284.5 6.3
278(9) 0.01134 284.5 6.4
313(10) 0.00928 284.5 6.5
310(9) 0.01032 284.5 6.6
293(9) 0.01134 284.5 6.7
280(9) 0.01191 284.5 6.8
282(9) 0.01142 284.5 6.9
269(9) 0.01119 284.5 7.0
288(9) 0.01100 284.6 7.1
317(9) 0.01024 284.6 7.2
304(9) 0.01110 284.6 7.3
324(10) 0.00972 284.6 7.4
303(10) 0.00990 284.6 7.5
282(9) 0.01123 284.6 7.6
255(8) 0.01308 284.6 7.7
278(9) 0.01197 284.6 7.8
276(9) 0.01090 284.6 7.9
276(9) 0.01059 284.6 8.0
291(9) 0.01064 284.6 8.0
287(9) 0.01161 284.6 8.1
276(9) 0.01190 284.6 8.2
301(9) 0.01024 284.6 8.2
296(10) 0.01003 284.6 8.3
283(9) 0.01107 284.7 8.4
303(9) 0.01088 284.7 8.4
311(9) 0.01071 284.7 8.4
303(10) 0.01007 284.7 8.5
296(10) 0.00994 284.7 8.5
297(9) 0.01055 284.7 8.6
295(9) 0.01141 284.7 8.6
305(9) 0.01083 284.7 8.6
291(9) 0.01086 284.7 8.7
293(9) 0.01030 284.7 8.7
282(9) 0.01127 284.7 8.7
308(9) 0.01074 284.7 8.8
297(9) 0.01081 284.7 8.8
306(9) 0.01043 284.7 8.8
306(9) 0.01015 284.8 8.9
304(9) 0.01014 284.8 8.9
287(9) 0.01153 284.8 9.0
278(9) 0.01136 284.8 9.0
307(9) 0.01033 284.8 9.1
296(9) 0.01086 284.8 9.1
307(9) 0.01052 284.8 9.2
307(9) 0.01086 284.8 9.3
285(9) 0.01089 284.8 9.4
322(10) 0.00947 284.8 9.4
290(9) 0.01109 284.8 9.5
309(9) 0.01056 284.8 9.6
303(9) 0.01107 284.8 9.8
295(9) 0.01023 284.8 9.9
278(9) 0.01119 284.8 10.0
316(10) 0.00994 284.9 10.2
297(9) 0.01099 284.9 10.3
292(9) 0.01151 284.9 10.5
299(9) 0.01060 284.9 10.7
321(10) 0.00930 284.9 10.9
311(10) 0.01001 284.9 11.1
306(9) 0.01091 284.9 11.3
336(10) 0.01007 284.9 11.5
293(9) 0.01057 284.9 11.8
286(9) 0.01039 284.9 12.0
298(9) 0.01086 284.9 12.3
283(9) 0.01156 284.9 12.6
275(9) 0.01202 284.9 12.9
288(9) 0.01077 284.9 13.2
296(9) 0.01021 284.9 13.6
325(10) 0.00967 285.0 13.9
313(9) 0.01068 285.0 14.3
286(9) 0.01160 285.0 14.7
287(9) 0.01095 285.0 15.1
304(10) 0.00951 285.0 15.5
303(9) 0.01036 285.0 16.0
290(9) 0.01153 285.0 16.4
311(9) 0.01075 285.0 16.9
284(9) 0.01121 285.0 17.4
295(9) 0.01073 285.0 17.9
316(9) 0.01036 285.0 18.4
306(9) 0.01105 285.0 18.9
309(9) 0.01070 285.0 19.4
301(9) 0.01048 285.0 20.0
314(10) 0.00954 285.0 20.5
312(10) 0.00993 285.1 21.0
313(9) 0.01069 285.1 21.5
314(9) 0.01039 285.1 22.0
326(10) 0.00956 285.1 22.4
317(10) 0.00962 285.1 22.9
321(10) 0.00977 285.1 23.3
297(9) 0.01134 285.1 23.6
301(9) 0.01073 285.1 24.0
326(10) 0.00947 285.1 24.2
339(10) 0.00900 285.1 24.5
309(9) 0.01008 285.1 24.6
306(9) 0.01098 285.1 24.7
306(9) 0.01020 285.1 24.8
315(10) 0.00954 285.1 24.8
307(9) 0.01021 285.2 24.7
312(9) 0.01029 285.2 24.6
296(9) 0.01121 285.2 24.4
306(10) 0.00995 285.2 24.2
308(10) 0.01002 285.2 23.9
304(9) 0.01061 285.2 23.6
311(9) 0.01040 285.2 23.3
294(9) 0.01155 285.2 23.0
282(9) 0.01132 285.2 22.6
325(10) 0.00927 285.2 22.2
317(10) 0.01005 285.2 21.9
285(9) 0.01175 285.2 21.5
309(9) 0.01079 285.2 21.1
300(9) 0.01032 285.2 20.7
295(9) 0.01032 285.2 20.4
287(9) 0.01102 285.3 20.0
292(9) 0.01133 285.3 19.7
333(9) 0.01009 285.3 19.4
309(9) 0.01059 285.3 19.2
305(10) 0.00956 285.3 19.0
283(9) 0.01099 285.3 18.8
279(9) 0.01197 285.3 18.6
295(9) 0.01116 285.3 18.5
324(10) 0.00965 285.3 18.4
317(10) 0.00968 285.3 18.4
309(9) 0.01011 285.3 18.4
314(9) 0.01065 285.3 18.4
327(10) 0.01004 285.3 18.5
288(9) 0.01129 285.3 18.6
322(10) 0.00928 285.3 18.7
310(9) 0.01042 285.4 18.9
316(9) 0.01051 285.4 19.0
317(10) 0.00997 285.4 19.2
275(9) 0.01168 285.4 19.3
300(9) 0.01012 285.4 19.4
298(9) 0.01027 285.4 19.5
328(9) 0.01008 285.4 19.5
296(9) 0.01075 285.4 19.4
300(9) 0.01022 285.4 19.3
292(9) 0.01061 285.4 19.1
302(9) 0.01055 285.4 18.8
306(9) 0.01094 285.4 18.4
275(9) 0.01167 285.4 17.9
314(10) 0.00973 285.4 17.4
332(10) 0.00907 285.4 16.8
324(10) 0.00970 285.5 16.2
282(9) 0.01175 285.5 15.6
288(9) 0.01086 285.5 15.0
291(9) 0.01053 285.5 14.4
286(9) 0.01085 285.5 13.9
297(9) 0.01070 285.5 13.3
302(9) 0.01099 285.5 12.7
283(9) 0.01098 285.5 12.2
286(9) 0.01089 285.5 11.7
312(10) 0.00992 285.5 11.3
293(9) 0.01097 285.5 10.9
296(9) 0.01120 285.5 10.5
293(9) 0.01078 285.5 10.1
299(9) 0.01026 285.5 9.8
300(9) 0.01065 285.6 9.4
286(9) 0.01154 285.6 9.2
298(9) 0.01109 285.6 8.9
295(9) 0.01068 285.6 8.7
295(9) 0.01043 285.6 8.4
300(9) 0.01052 285.6 8.2
283(9) 0.01167 285.6 8.0
290(9) 0.01160 285.6 7.9
316(10) 0.01001 285.6 7.7
289(9) 0.01054 285.6 7.6
274(9) 0.01171 285.6 7.4
301(9) 0.01090 285.6 7.3
297(9) 0.01095 285.6 7.1
270(9) 0.01203 285.6 7.0
296(10) 0.01006 285.6 6.9
284(9) 0.01112 285.7 6.8
295(9) 0.01114 285.7 6.7
305(9) 0.01114 285.7 6.6
296(9) 0.01040 285.7 6.5
301(10) 0.00984 285.7 6.4
284(9) 0.01118 285.7 6.3
309(9) 0.01080 285.7 6.2
281(9) 0.01166 285.7 6.1
261(9) 0.01210 285.7 6.1
298(10) 0.00991 285.7 6.0
312(10) 0.00997 285.7 5.9
290(9) 0.01144 285.7 5.8
295(9) 0.01105 285.7 5.8
284(9) 0.01129 285.7 5.7
296(9) 0.01040 285.7 5.6
292(9) 0.01097 285.8 5.6
313(9) 0.01070 285.8 5.5
295(9) 0.01093 285.8 5.5
297(9) 0.01078 285.8 5.4
296(9) 0.01055 285.8 5.4
298(9) 0.01057 285.8 5.3
298(9) 0.01120 285.8 5.3
294(9) 0.01109 285.8 5.2
307(10) 0.01001 285.8 5.2
300(9) 0.01010 285.8 5.1
298(9) 0.01091 285.8 5.1
303(9) 0.01098 285.8 5.1
307(10) 0.01001 285.8 5.0
283(9) 0.01088 285.8 5.0
274(9) 0.01139 285.9 5.0
292(9) 0.01107 285.9 5.0
292(9) 0.01134 285.9 5.0
291(9) 0.01071 285.9 4.9
318(10) 0.00933 285.9 4.9
292(9) 0.01061 285.9 4.9
275(9) 0.01164 285.9 4.9
310(9) 0.01099 285.9 4.9
287(9) 0.01085 285.9 4.9
291(9) 0.01032 285.9 4.9
287(9) 0.01112 285.9 4.9
266(8) 0.01237 285.9 4.9
283(9) 0.01139 285.9 4.9
287(9) 0.01117 285.9 5.0
304(9) 0.01015 285.9 5.0
313(9) 0.01015 286.0 5.0
311(9) 0.01084 286.0 5.1
307(9) 0.01105 286.0 5.1
285(9) 0.01138 286.0 5.2
275(9) 0.01057 286.0 5.2
265(9) 0.01172 286.0 5.3
317(9) 0.01056 286.0 5.4
297(9) 0.01077 286.0 5.4
292(9) 0.01039 286.0 5.5
287(10) 0.00993 286.0 5.6
291(9) 0.01057 286.0 5.7
292(9) 0.01137 286.0 5.9
275(9) 0.01209 286.0 6.0
306(9) 0.01027 286.0 6.1
309(10) 0.01007 286.0 6.2
292(9) 0.01087 286.1 6.4
321(9) 0.01050 286.1 6.5
303(9) 0.01088 286.1 6.7
290(9) 0.01091 286.1 6.9
313(10) 0.00942 286.1 7.0
295(9) 0.01030 286.1 7.2
277(9) 0.01208 286.1 7.3
310(9) 0.01067 286.1 7.5
299(9) 0.01072 286.1 7.6
306(9) 0.01041 286.1 7.7
310(9) 0.01009 286.1 7.8
309(9) 0.01090 286.1 7.9
274(9) 0.01164 286.1 8.0
314(10) 0.00977 286.1 8.0
306(9) 0.01015 286.1 8.0
277(9) 0.01186 286.2 8.0
329(9) 0.01024 286.2 8.0
279(9) 0.01120 286.2 7.9
274(9) 0.01119 286.2 7.9
307(10) 0.01002 286.2 7.8
305(9) 0.01042 286.2 7.7
287(9) 0.01160 286.2 7.7
285(9) 0.01075 286.2 7.6
300(9) 0.01016 286.2 7.5
301(9) 0.01023 286.2 7.5
308(9) 0.01083 286.2 7.4
288(9) 0.01147 286.2 7.3
296(9) 0.01013 286.2 7.3
265(9) 0.01097 286.2 7.3
277(9) 0.01148 286.3 7.2
290(9) 0.01128 286.3 7.2
295(9) 0.01113 286.3 7.2
280(9) 0.01128 286.3 7.2
295(10) 0.00993 286.3 7.2
307(9) 0.01030 286.3 7.2
300(9) 0.01109 286.3 7.2
300(9) 0.01116 286.3 7.2
316(9) 0.01021 286.3 7.3
328(10) 0.00908 286.3 7.3
287(9) 0.01109 286.3 7.4
311(9) 0.01086 286.3 7.4
319(9) 0.01021 286.3 7.5
295(9) 0.01084 286.3 7.5
326(10) 0.00913 286.3 7.6
309(10) 0.00998 286.4 7.7
264(8) 0.01253 286.4 7.7
275(9) 0.01152 286.4 7.8
266(9) 0.01217 286.4 7.9
289(9) 0.01057 286.4 7.9
310(10) 0.00997 286.4 8.0
313(9) 0.01069 286.4 8.1
310(9) 0.01044 286.4 8.2
297(9) 0.01060 286.4 8.3
299(9) 0.01020 286.4 8.3
320(10) 0.00987 286.4 8.4
303(9) 0.01105 286.4 8.5
312(9) 0.01063 286.4 8.6
320(10) 0.00982 286.4 8.7
295(9) 0.01055 286.4 8.7
293(9) 0.01061 286.5 8.8
320(9) 0.01065 286.5 8.9
305(9) 0.01045 286.5 9.0
321(10) 0.00946 286.5 9.0
300(9) 0.01015 286.5 9.1
299(9) 0.01057 286.5 9.1
299(9) 0.01122 286.5 9.2
278(9) 0.01147 286.5 9.3
267(9) 0.01142 286.5 9.3
287(9) 0.01061 286.5 9.4
324(9) 0.01016 286.5 9.4
316(9) 0.01072 286.5 9.4
316(10) 0.00982 286.5 9.5
326(10) 0.00937 286.5 9.5
298(9) 0.01036 286.5 9.5
318(9) 0.01032 286.6 9.6
286(9) 0.01162 286.6 9.6
279(9) 0.01108 286.6 9.6
285(9) 0.01082 286.6 9.6
302(9) 0.01012 286.6 9.6
317(9) 0.01022 286.6 9.6
321(9) 0.01061 286.6 9.6
297(9) 0.01067 286.6 9.6
312(10) 0.00958 286.6 9.6
291(9) 0.01083 286.6 9.6
267(8) 0.01234 286.6 9.6
295(9) 0.01132 286.6 9.6
312(9) 0.01020 286.6 9.6
323(10) 0.00877 286.6 9.6
316(10) 0.01004 286.7 9.6
290(9) 0.01131 286.7 9.5
289(9) 0.01140 286.7 9.5
297(9) 0.01098 286.7 9.5
289(9) 0.01035 286.7 9.4
275(9) 0.01158 286.7 9.4
308(9) 0.01074 286.7 9.4
292(9) 0.01148 286.7 9.3
296(9) 0.01060 286.7 9.3
303(10) 0.00962 286.7 9.3
286(9) 0.01087 286.7 9.2
299(9) 0.01126 286.7 9.2
292(9) 0.01113 286.7 9.2
284(9) 0.01109 286.7 9.1
326(10) 0.00900 286.7 9.1
307(10) 0.00978 286.8 9.0
318(9) 0.01054 286.8 9.0
309(9) 0.01072 286.8 9.0
334(10) 0.00965 286.8 8.9
290(9) 0.01060 286.8 8.9
318(10) 0.01006 286.8 8.8
306(9) 0.01101 286.8 8.8
273(9) 0.01185 286.8 8.7
307(10) 0.01000 286.8 8.7
300(9) 0.01022 286.8 8.7
302(9) 0.01046 286.8 8.6
292(9) 0.01137 286.8 8.6
304(9) 0.01088 286.8 8.5
305(10) 0.01002 286.8 8.5
316(10) 0.00966 286.8 8.4
320(9) 0.01016 286.9 8.4
282(9) 0.01188 286.9 8.3
293(9) 0.01080 286.9 8.3
297(9) 0.01010 286.9 8.2
312(10) 0.00974 286.9 8.2
269(9) 0.01202 286.9 8.1
262(8) 0.01251 286.9 8.1
307(9) 0.01037 286.9 8.0
305(9) 0.01008 286.9 7.9
297(9) 0.01068 286.9 7.9
297(9) 0.01101 286.9 7.8
279(9) 0.01201 286.9 7.7
284(9) 0.01085 286.9 7.7
326(10) 0.00927 286.9 7.6
297(9) 0.01096 287.0 7.5
294(9) 0.01116 287.0 7.5
285(9) 0.01165 287.0 7.4
287(9) 0.01114 287.0 7.3
291(9) 0.01015 287.0 7.3
306(9) 0.01035 287.0 7.2
313(9) 0.01041 287.0 7.1
281(9) 0.01172 287.0 7.1
291(9) 0.01087 287.0 7.0
297(10) 0.00995 287.0 6.9
295(9) 0.01057 287.0 6.8
268(9) 0.01224 287.0 6.8
285(9) 0.01135 287.0 6.7
285(9) 0.01110 287.0 6.6
301(10) 0.00990 287.0 6.6
294(9) 0.01077 287.1 6.5
286(9) 0.01166 287.1 6.4
273(9) 0.01190 287.1 6.4
281(9) 0.01098 287.1 6.3
295(9) 0.01011 287.1 6.2
281(9) 0.01121 287.1 6.2
309(9) 0.01084 287.1 6.1
291(9) 0.01116 287.1 6.1
313(9) 0.01019 287.1 6.0
315(9) 0.01019 287.1 6.0
289(9) 0.01110 287.1 5.9
284(9) 0.01173 287.1 5.9
289(9) 0.01118 287.1 5.8
296(9) 0.01051 287.1 5.8
271(9) 0.01125 287.1 5.7
303(9) 0.01056 287.2 5.7
297(9) 0.01128 287.2 5.6
286(9) 0.01115 287.2 5.6
305(9) 0.01036 287.2 5.6
307(10) 0.00985 287.2 5.5
299(9) 0.01085 287.2 5.5
291(9) 0.01148 287.2 5.5
268(9) 0.01179 287.2 5.5
282(9) 0.01092 287.2 5.4
288(9) 0.01094 287.2 5.4
265(9) 0.01202 287.2 5.4
294(9) 0.01128 287.2 5.4
317(10) 0.00958 287.2 5.4
276(9) 0.01089 287.2 5.3
287(9) 0.01117 287.2 5.3
273(9) 0.01211 287.3 5.3
289(9) 0.01147 287.3 5.3
251(8) 0.01234 287.3 5.3
287(9) 0.01025 287.3 5.3
300(9) 0.01033 287.3 5.3
292(9) 0.01134 287.3 5.3
291(9) 0.01137 287.3 5.3
266(9) 0.01170 287.3 5.3
281(9) 0.01092 287.3 5.3
285(9) 0.01123 287.3 5.3
296(9) 0.01132 287.3 5.3
310(9) 0.01076 287.3 5.3
287(9) 0.01128 287.3 5.3
291(9) 0.01013 287.3 5.3
302(10) 0.00983 287.4 5.4
269(8) 0.01240 287.4 5.4
280(9) 0.01161 287.4 5.4
285(9) 0.01112 287.4 5.4
286(9) 0.01027 287.4 5.4
260(9) 0.01156 287.4 5.5
289(9) 0.01145 287.4 5.5
298(9) 0.01123 287.4 5.5
291(9) 0.01077 287.4 5.5
291(9) 0.01016 287.4 5.6
284(9) 0.01112 287.4 5.6
294(9) 0.01130 287.4 5.6
296(9) 0.01108 287.4 5.7
294(9) 0.01056 287.4 5.7
283(9) 0.01069 287.4 5.8
294(9) 0.01053 287.5 5.8
299(9) 0.01117 287.5 5.8
297(9) 0.01103 287.5 5.9
294(9) 0.01079 287.5 5.9
293(9) 0.01037 287.5 6.0
296(9) 0.01102 287.5 6.0
317(9) 0.01050 287.5 6.1
301(9) 0.01074 287.5 6.1
311(9) 0.01016 287.5 6.2
280(9) 0.01122 287.5 6.2
274(9) 0.01152 287.5 6.3
271(9) 0.01213 287.5 6.4
282(9) 0.01159 287.5 6.4
269(9) 0.01152 287.5 6.5
296(9) 0.01036 287.5 6.6
279(9) 0.01168 287.6 6.6
248(8) 0.01333 287.6 6.7
299(9) 0.01028 287.6 6.8
302(9) 0.01040 287.6 6.8
294(9) 0.01070 287.6 6.9
287(9) 0.01111 287.6 7.0
329(9) 0.01026 287.6 7.0
311(9) 0.01022 287.6 7.1
307(10) 0.00982 287.6 7.2
294(9) 0.01076 287.6 7.3
281(9) 0.01157 287.6 7.4
279(9) 0.01172 287.6 7.4
293(9) 0.01081 287.6 7.5
312(10) 0.00943 287.6 7.6
290(9) 0.01074 287.6 7.7
282(9) 0.01166 287.7 7.8
296(9) 0.01125 287.7 7.9
287(9) 0.01084 287.7 8.0
281(9) 0.01043 287.7 8.0
272(9) 0.01152 287.7 8.1
311(9) 0.01079 287.7 8.2
289(9) 0.01106 287.7 8.3
283(9) 0.01074 287.7 8.4
291(10) 0.00996 287.7 8.5
285(9) 0.01109 287.7 8.6
290(9) 0.01158 287.7 8.7
287(9) 0.01165 287.7 8.8
322(10) 0.00990 287.7 8.9
302(10) 0.01006 287.7 9.0
299(9) 0.01017 287.8 9.2
290(9) 0.01170 287.8 9.3
288(9) 0.01160 287.8 9.4
286(9) 0.01084 287.8 9.5
283(9) 0.01076 287.8 9.6
281(9) 0.01140 287.8 9.8
278(9) 0.01182 287.8 9.9
284(9) 0.01128 287.8 10.1
282(9) 0.01099 287.8 10.2
284(9) 0.01095 287.8 10.4
306(9) 0.01013 287.8 10.5
294(9) 0.01129 287.8 10.7
298(9) 0.01101 287.8 10.9
300(9) 0.01065 287.8 11.1
322(10) 0.00960 287.8 11.3
319(10) 0.00998 287.9 11.5
277(9) 0.01188 287.9 11.8
287(9) 0.01101 287.9 12.0
290(9) 0.01072 287.9 12.3
297(10) 0.00999 287.9 12.5
272(9) 0.01190 287.9 12.8
281(9) 0.01175 287.9 13.0
304(9) 0.01039 287.9 13.3
316(10) 0.00932 288.0 13.6
289(9) 0.01105 288.0 13.9
294(9) 0.01115 288.0 14.1
311(9) 0.01084 288.0 14.4
280(9) 0.01116 288.0 14.6
295(9) 0.01014 288.0 14.8
293(9) 0.01058 288.1 15.0
288(9) 0.01148 288.1 15.2
314(9) 0.01073 288.1 15.3
301(9) 0.01068 288.1 15.4
317(10) 0.00925 288.1 15.4
292(9) 0.01073 288.1 15.4
302(9) 0.01097 288.2 15.3
291(9) 0.01167 288.2 15.3
286(9) 0.01119 288.2 15.2
289(10) 0.00987 288.2 15.0
284(9) 0.01124 288.2 14.9
291(9) 0.01157 288.2 14.7
302(9) 0.01111 288.3 14.6
290(9) 0.01115 288.3 14.4
307(10) 0.00953 288.3 14.3
307(9) 0.01026 288.3 14.1
289(9) 0.01175 288.3 14.0
282(9) 0.01162 288.3 13.9
289(9) 0.01094 288.3 13.8
320(10) 0.00927 288.4 13.7
292(9) 0.01062 288.4 13.6
288(9) 0.01167 288.4 13.6
281(9) 0.01165 288.4 13.5
310(9) 0.01024 288.4 13.5
288(9) 0.01050 288.4 13.5
282(9) 0.01106 288.5 13.6
297(9) 0.01117 288.5 13.6
297(9) 0.01081 288.5 13.7
288(9) 0.01098 288.5 13.8
306(9) 0.01013 288.5 13.9
321(10) 0.00996 288.5 14.0
307(9) 0.01087 288.6 14.1
295(9) 0.01113 288.6 14.3
317(10) 0.00988 288.6 14.4
284(9) 0.01104 288.6 14.6
286(9) 0.01141 288.6 14.8
300(9) 0.01115 288.6 15.0
298(9) 0.01088 288.7 15.3
301(9) 0.01023 288.7 15.5
292(9) 0.01105 288.7 15.7
289(9) 0.01117 288.7 16.0
294(9) 0.01152 288.7 16.3
281(9) 0.01123 288.7 16.5
293(9) 0.01041 288.8 16.8
295(9) 0.01051 288.8 17.1
298(9) 0.01080 288.8 17.3
269(8) 0.01233 288.8 17.6
298(9) 0.01063 288.8 17.9
300(10) 0.00999 288.8 18.2
315(10) 0.00937 288.9 18.4
295(9) 0.01095 288.9 18.7
327(9) 0.01044 288.9 18.9
272(9) 0.01163 288.9 19.1
282(9) 0.01034 288.9 19.3
283(9) 0.01083 288.9 19.5
305(9) 0.01076 288.9 19.6
286(9) 0.01176 289.0 19.7
310(10) 0.01007 289.0 19.8
297(10) 0.00993 289.0 19.8
309(9) 0.01023 289.0 19.8
312(9) 0.01074 289.0 19.8
299(9) 0.01127 289.0 19.7
298(9) 0.01062 289.1 19.6
276(9) 0.01056 289.1 19.4
280(9) 0.01102 289.1 19.3
288(9) 0.01160 289.1 19.1
305(9) 0.01107 289.1 18.8
293(9) 0.01103 289.1 18.6
282(9) 0.01061 289.2 18.3
312(10) 0.00992 289.2 18.1
307(9) 0.01091 289.2 17.8
302(9) 0.01093 289.2 17.5
315(10) 0.00967 289.2 17.3
283(9) 0.01032 289.2 17.0
308(10) 0.00978 289.3 16.7
301(9) 0.01106 289.3 16.5
310(9) 0.01076 289.3 16.2
316(10) 0.01003 289.3 16.0
291(9) 0.01051 289.3 15.8
288(9) 0.01105 289.3 15.5
303(9) 0.01106 289.4 15.3
325(10) 0.00981 289.4 15.1
299(9) 0.01060 289.4 14.9
302(9) 0.01011 289.4 14.7
295(9) 0.01088 289.4 14.5
294(9) 0.01150 289.4 14.4
292(9) 0.01085 289.5 14.2
305(9) 0.01026 289.5 14.0
291(9) 0.01098 289.5 13.8
299(9) 0.01081 289.5 13.7
309(9) 0.01086 289.5 13.5
302(9) 0.01076 289.5 13.4
295(9) 0.01071 289.5 13.2
285(9) 0.01102 289.6 13.0
294(9) 0.01087 289.6 12.9
279(9) 0.01192 289.6 12.7
276(9) 0.01120 289.6 12.5
276(9) 0.01117 289.6 12.4
280(9) 0.01066 289.6 12.2
283(9) 0.01122 289.7 12.0
306(9) 0.01108 289.7 11.9
279(9) 0.01109 289.7 11.7
293(9) 0.01008 289.7 11.6
287(9) 0.01077 289.7 11.4
297(9) 0.01066 289.7 11.3
283(9) 0.01197 289.8 11.1
280(9) 0.01084 289.8 11.0
313(10) 0.00928 289.8 10.8
286(9) 0.01064 289.8 10.7
288(9) 0.01125 289.8 10.6
312(9) 0.01078 289.8 10.5
309(9) 0.01032 289.9 10.3
272(9) 0.01063 289.9 10.2
286(9) 0.01089 289.9 10.1
313(9) 0.01053 289.9 10.0
311(9) 0.01070 289.9 9.9
289(9) 0.01101 289.9 9.8
294(10) 0.00991 290.0 9.7
316(10) 0.00991 290.0 9.6
305(9) 0.01092 290.0 9.6
292(9) 0.01159 290.0 9.5
295(9) 0.01115 290.0 9.4
304(10) 0.00991 290.0 9.3
283(9) 0.01093 290.1 9.3
284(9) 0.01187 290.1 9.2
317(9) 0.01020 290.1 9.2
286(9) 0.01115 290.1 9.1
270(9) 0.01172 290.1 9.1
268(9) 0.01170 290.1 9.0
308(9) 0.01094 290.1 9.0
322(10) 0.01000 290.2 8.9
308(10) 0.00997 290.2 8.9
296(10) 0.00995 290.2 8.9
271(9) 0.01121 290.2 8.8
298(9) 0.01126 290.2 8.8
271(9) 0.01182 290.2 8.8
302(9) 0.01024 290.2 8.8
285(9) 0.01088 290.2 8.8
270(9) 0.01192 290.2 8.7
280(9) 0.01180 290.2 8.7
259(8) 0.01237 290.2 8.7
284(9) 0.01084 290.2 8.7
289(9) . . .
294(9) . . .
291(9) . . .
283(9) . . .
287(9) . . .
298(9) . . .
300(9) . . .
292(9) . . .
274(9) . . .
278(9) . . .
279(9) . . .
281(9) . . .
297(9) . . .
276(9) . . .
287(9) . . .
303(9) . . .
292(9) . . .
290(9) . . .
282(9) . . .
299(9) . . .
310(9) . . .
282(9) . . .
297(9) . . .
303(9) . . .
268(9) . . .
284(9) . . .
277(9) . . .
289(9) . . .
262(9) . . .
285(9) . . .
297(9) . . .
300(9) . . .
302(9) . . .
268(9) . . .
279(9) . . .
283(9) . . .
261(8) . . .
263(8) . . .
294(9) . . .
322(10) . . .
326(10) . . .
308(9) . . .
295(9) . . .
331(10) . . .
289(9) . . .
293(9) . . .
297(9) . . .
303(9) . . .
282(9) . . .
306(10) . . .
304(9) . . .
308(9) . . .
279(9) . . .
299(10) . . .
306(9) . . .
278(9) . . .
319(9) . . .
309(9) . . .
294(9) . . .
296(9) . . .
299(9) . . .
278(9) . . .
291(9) . . .
279(9) . . .
292(9) . . .
286(9) . . .
302(9) . . .
289(9) . . .
293(9) . . .
284(9) . . .
298(9) . . .
282(9) . . .
286(9) . . .
275(9) . . .
305(9) . . .
298(9) . . .
271(9) . . .
280(9) . . .
269(9) . . .
274(9) . . .
278(9) . . .
277(9) . . .
284(9) . . .
277(9) . . .
298(10) . . .
279(9) . . .
282(9) . . .
285(9) . . .
311(10) . . .
273(9) . . .
283(9) . . .
304(9) . . .
306(10) . . .
302(10) . . .
297(9) . . .
294(9) . . .
297(9) . . .
287(9) . . .
272(9) . . .
283(9) . . .
275(9) . . .
266(9) . . .
297(9) . . .
294(9) . . .
301(9) . . .
303(9) . . .
283(9) . . .
294(9) . . .
293(9) . . .
292(9) . . .
301(9) . . .
281(9) . . .
281(9) . . .
272(9) . . .
287(9) . . .
260(8) . . .
260(9) . . .
259(9) . . .
296(9) . . .
266(8) . . .
257(8) . . .
271(9) . . .
244(9) . . .
279(9) . . .
249(8) . . .
273(9) . . .
289(9) . . .
305(10) . . .
283(9) . . .
302(9) . . .
285(9) . . .
280(9) . . .
277(9) . . .
279(9) . . .
301(9) . . .
272(9) . . .
292(9) . . .
278(9) . . .
267(9) . . .
283(9) . . .
271(9) . . .
303(10) . . .
268(9) . . .
270(9) . . .
282(9) . . .
293(9) . . .
289(9) . . .
298(9) . . .
296(9) . . .
285(9) . . .
286(9) . . .
271(9) . . .
269(9) . . .
281(9) . . .
269(9) . . .
277(9) . . .
281(9) . . .
279(9) . . .
268(9) . . .
287(9) . . .
276(9) . . .
292(9) . . .
284(9) . . .
271(9) . . .
265(8) . . .
280(9) . . .
291(10) . . .
270(9) . . .
283(9) . . .
264(8) . . .
270(9) . . .
284(9) . . .
287(9) . . .
301(9) . . .
269(8) . . .
265(9) . . .
294(9) . . .
295(9) . . .
258(8) . . .
298(9) . . .
281(9) . . .
296(9) . . .
277(9) . . .
264(8) . . .
272(9) . . .
296(9) . . .
271(9) . . .
287(9) . . .
266(8) . . .
283(9) . . .
282(9) . . .
278(9) . . .
276(9) . . .
249(8) . . .
244(8) . . .
273(9) . . .
280(9) . . .
277(9) . . .
283(9) . . .
273(9) . . .
276(9) . . .
270(9) . . .
271(9) . . .
271(9) . . .
288(9) . . .
269(9) . . .
276(9) . . .
270(9) . . .
288(9) . . .
244(8) . . .
276(9) . . .
271(9) . . .
273(9) . . .
281(9) . . .
286(9) . . .
275(9) . . .
267(9) . . .
263(8) . . .
283(9) . . .
270(9) . . .
290(9) . . .
299(10) . . .
274(9) . . .
261(8) . . .
269(9) . . .
305(10) . . .
280(9) . . .
284(9) . . .
265(9) . . .
278(9) . . .
270(9) . . .
273(9) . . .
295(9) . . .
286(9) . . .
294(9) . . .
284(9) . . .
261(9) . . .
274(9) . . .
257(8) . . .
277(9) . . .
268(9) . . .
292(9) . . .
262(8) . . .
279(9) . . .
261(9) . . .
274(9) . . .
266(9) . . .
281(9) . . .
261(9) . . .
287(9) . . .
283(9) . . .
260(9) . . .
280(9) . . .
269(9) . . .
264(9) . . .
292(9) . . .
298(9) . . .
268(9) . . .
267(9) . . .
280(9) . . .
255(8) . . .
267(8) . . .
257(8) . . .
278(9) . . .
296(10) . . .
269(9) . . .
274(9) . . .
271(9) . . .
266(9) . . .
277(9) . . .
297(9) . . .
290(9) . . .
280(9) . . .
269(9) . . .
280(9) . . .
289(9) . . .
249(8) . . .
278(9) . . .
268(9) . . .
270(9) . . .
274(9) . . .
272(9) . . .
259(9) . . .
262(9) . . .
275(9) . . .
286(9) . . .
287(9) . . .
267(9) . . .
291(9) . . .
287(10) . . .
279(9) . . .
277(9) . . .
273(9) . . .
274(9) . . .
263(9) . . .
272(9) . . .
254(8) . . .
261(9) . . .
256(9) . . .
273(9) . . .
283(9) . . .
247(8) . . .
254(8) . . .
293(9) . . .
295(9) . . .
268(9) . . .
290(9) . . .
296(9) . . .
304(10) . . .
284(9) . . .
313(9) . . .
288(9) . . .
285(9) . . .
297(9) . . .
307(9) . . .
291(9) . . .
279(9) . . .
303(9) . . .
308(10) . . .
291(9) . . .
302(9) . . .
267(8) . . .
295(9) . . .
278(9) . . .
287(9) . . .
295(9) . . .
277(9) . . .
298(9) . . .
274(9) . . .
267(9) . . .
271(9) . . .
292(9) . . .
279(9) . . .
287(9) . . .
295(9) . . .
263(8) . . .
267(9) . . .
283(9) . . .
268(9) . . .
281(9) . . .
272(9) . . .
267(9) . . .
269(9) . . .
265(9) . . .
265(9) . . .
305(9) . . .
275(9) . . .
271(9) . . .
270(9) . . .
288(9) . . .
279(9) . . .
274(9) . . .
276(9) . . .
268(9) . . .
245(8) . . .
266(8) . . .
307(10) . . .
279(9) . . .
272(9) . . .
272(9) . . .
289(9) . . .
275(9) . . .
287(9) . . .
275(9) . . .
292(9) . . .
266(8) . . .
304(9) . . .
271(9) . . .
281(9) . . .
256(8) . . .
277(9) . . .
282(9) . . .
296(10) . . .
298(9) . . .
282(9) . . .
275(9) . . .
278(9) . . .
294(10) . . .
315(9) . . .
303(9) . . .
290(9) . . .
299(9) . . .
284(9) . . .
290(9) . . .
291(9) . . .
281(9) . . .
274(9) . . .
284(9) . . .
293(9) . . .
276(9) . . .
276(9) . . .
265(9) . . .
267(9) . . .
279(9) . . .
280(9) . . .
279(9) . . .
292(9) . . .
283(9) . . .
294(9) . . .
279(9) . . .
263(9) . . .
273(9) . . .
260(9) . . .
287(9) . . .
272(9) . . .
258(9) . . .
289(9) . . .
288(9) . . .
279(9) . . .
296(9) . . .
277(9) . . .
282(9) . . .
285(9) . . .
290(9) . . .
271(9) . . .
268(9) . . .
281(9) . . .
275(9) . . .
262(8) . . .
256(8) . . .
274(9) . . .
300(10) . . .
276(9) . . .
264(8) . . .
261(8) . . .
296(9) . . .
267(9) . . .
291(9) . . .
265(8) . . .
289(9) . . .
295(9) . . .
297(10) . . .
294(9) . . .
252(8) . . .
277(9) . . .
279(9) . . .
253(9) . . .
271(9) . . .
285(9) . . .
273(9) . . .
290(9) . . .
279(9) . . .
250(8) . . .
276(9) . . .
279(9) . . .
272(9) . . .
291(9) . . .
273(9) . . .
264(8) . . .
290(9) . . .
259(9) . . .
247(9) . . .
260(8) . . .
252(8) . . .
251(9) . . .
272(9) . . .
271(9) . . .
284(9) . . .
296(9) . . .
264(9) . . .
284(9) . . .
260(9) . . .
254(8) . . .
250(8) . . .
266(9) . . .
244(9) . . .
262(9) . . .
281(9) . . .
278(9) . . .
259(9) . . .
263(9) . . .
287(9) . . .
275(9) . . .
269(8) . . .
273(9) . . .
264(9) . . .
256(9) . . .
258(8) . . .
249(8) . . .
270(9) . . .
275(9) . . .
254(8) . . .
249(8) . . .
267(9) . . .
276(9) . . .
245(9) . . .
248(9) . . .
276(9) . . .
264(8) . . .
258(9) . . .
272(9) . . .
282(9) . . .
245(8) . . .
249(8) . . .
260(9) . . .
274(9) . . .
244(8) . . .
263(8) . . .
258(9) . . .
242(8) . . .
250(9) . . .
259(9) . . .
258(8) . . .
264(9) . . .
269(9) . . .
252(9) . . .
246(8) . . .
256(8) . . .
230(8) . . .
261(9) . . .
257(9) . . .
262(9) . . .
282(9) . . .
256(9) . . .
258(9) . . .
244(8) . . .
235(8) . . .
268(9) . . .
259(9) . . .
241(9) . . .
248(8) . . .
229(8) . . .
263(8) . . .
246(8) . . .
275(10) . . .
246(9) . . .
251(8) . . .
265(8) . . .
274(9) . . .
274(9) . . .
266(9) . . .
250(8) . . .
254(8) . . .
269(9) . . .
265(9) . . .
258(9) . . .
244(8) . . .
241(8) . . .
243(8) . . .
264(9) . . .
251(9) . . .
250(8) . . .
240(8) . . .
250(9) . . .
226(8) . . .
239(8) . . .
245(8) . . .
258(9) . . .
248(8) . . .
281(9) . . .
287(9) . . .
253(8) . . .
242(8) . . .
253(9) . . .
250(9) . . .
254(8) . . .
248(8) . . .
256(9) . . .
252(9) . . .
246(8) . . .
266(9) . . .
255(8) . . .
261(9) . . .
259(9) . . .
241(8) . . .
241(8) . . .
254(8) . . .
247(8) . . .
262(9) . . .
256(9) . . .
262(8) . . .
270(9) . . .
266(9) . . .
243(9) . . .
241(8) . . .
246(8) . . .
242(8) . . .
231(8) . . .
249(9) . . .
247(9) . . .
243(8) . . .
230(8) . . .
251(9) . . .
241(9) . . .
258(9) . . .
252(8) . . .
250(8) . . .
267(9) . . .
249(9) . . .
241(8) . . .
245(8) . . .
241(8) . . .
242(8) . . .
250(9) . . .
266(9) . . .
255(8) . . .
286(9) . . .
237(8) . . .
257(9) . . .
234(8) . . .
235(8) . . .
237(8) . . .
253(9) . . .
269(9) . . .
253(8) . . .
221(8) . . .
232(8) . . .
255(9) . . .
255(9) . . .
229(8) . . .
237(8) . . .
283(9) . . .
249(9) . . .
226(8) . . .
235(8) . . .
270(9) . . .
254(9) . . .
242(9) . . .
253(8) . . .
254(8) . . .
245(8) . . .
245(8) . . .
247(9) . . .
261(9) . . .
275(9) . . .
265(9) . . .
262(9) . . .
239(9) . . .
253(9) . . .
272(9) . . .
256(8) . . .
264(9) . . .
259(9) . . .
237(8) . . .
256(8) . . .
266(8) . . .
264(9) . . .
240(8) . . .
250(8) . . .
261(8) . . .
258(8) . . .
263(9) . . .
245(8) . . .
245(8) . . .
268(9) . . .
240(8) . . .
256(9) . . .
235(8) . . .
256(9) . . .
269(9) . . .
250(8) . . .
268(9) . . .
257(9) . . .
251(8) . . .
266(8) . . .
233(8) . . .
255(9) . . .
268(9) . . .
272(9) . . .
245(8) . . .
252(9) . . .
266(9) . . .
253(8) . . .
255(8) . . .
245(8) . . .
248(8) . . .
259(9) . . .
251(9) . . .
251(8) . . .
253(8) . . .
244(8) . . .
238(8) . . .
233(8) . . .
246(8) . . .
222(8) . . .
231(8) . . .
268(9) . . .
226(8) . . .
234(8) . . .
254(8) . . .
265(9) . . .
246(9) . . .
261(9) . . .
241(8) . . .
242(8) . . .
254(9) . . .
267(9) . . .
253(9) . . .
243(8) . . .
247(8) . . .
262(9) . . .
236(8) . . .
227(8) . . .
244(8) . . .
241(8) . . .
234(8) . . .
219(8) . . .
227(8) . . .
218(8) . . .
240(8) . . .
220(8) . . .
263(9) . . .
221(8) . . .
226(8) . . .
243(8) . . .
262(9) . . .
224(8) . . .
236(8) . . .
202(7) . . .
233(8) . . .
235(8) . . .
230(8) . . .
235(8) . . .
233(8) . . .
242(9) . . .
251(9) . . .
215(8) . . .
230(8) . . .
239(8) . . .
260(9) . . .
267(9) . . .
243(8) . . .
241(8) . . .
243(8) . . .
237(8) . . .
253(9) . . .
254(9) . . .
267(8) . . .
254(8) . . .
236(8) . . .
238(9) . . .
258(9) . . .
251(8) . . .
238(8) . . .
214(8) . . .
224(8) . . .
219(8) . . .
251(8) . . .
223(8) . . .
250(9) . . .
256(9) . . .
251(8) . . .
258(8) . . .
230(8) . . .
243(9) . . .
244(9) . . .
230(8) . . .
237(8) . . .
230(8) . . .
247(9) . . .
256(9) . . .
248(8) . . .
248(8) . . .
219(8) . . .
229(8) . . .
219(8) . . .
246(8) . . .
259(8) . . .
244(8) . . .
243(9) . . .
227(8) . . .
262(9) . . .
233(8) . . .
241(8) . . .
238(9) . . .
252(9) . . .
248(8) . . .
254(8) . . .
247(8) . . .
253(9) . . .
247(8) . . .
259(8) . . .
242(8) . . .
270(9) . . .
258(9) . . .
263(9) . . .
251(8) . . .
258(8) . . .
255(9) . . .
249(9) . . .
235(8) . . .
256(8) . . .
269(8) . . .
258(9) . . .
272(9) . . .
241(8) . . .
242(8) . . .
255(8) . . .
268(9) . . .
256(9) . . .
249(9) . . .
247(8) . . .
260(9) . . .
248(9) . . .
254(9) . . .
253(9) . . .
239(8) . . .
247(8) . . .
226(8) . . .
237(8) . . .
233(8) . . .
269(9) . . .
228(8) . . .
235(8) . . .
246(8) . . .
227(8) . . .
210(8) . . .
235(8) . . .
241(9) . . .
211(8) . . .
218(8) . . .
251(8) . . .
236(8) . . .
215(8) . . .
214(8) . . .
237(8) . . .
247(8) . . .
231(8) . . .
216(8) . . .
217(8) . . .
229(8) . . .
243(8) . . .
242(9) . . .
235(9) . . .
242(8) . . .
199(7) . . .
231(8) . . .
222(8) . . .
237(9) . . .
221(8) . . .
221(8) . . .
227(8) . . .
240(8) . . .
243(9) . . .
219(8) . . .
224(8) . . .
232(8) . . .
218(8) . . .
214(8) . . .
219(8) . . .
212(8) . . .
227(8) . . .
228(8) . . .
221(8) . . .
233(8) . . .
216(8) . . .
235(8) . . .
214(8) . . .
218(8) . . .
232(8) . . .
212(8) . . .
223(8) . . .
240(8) . . .
212(8) . . .
221(8) . . .
247(8) . . .
210(8) . . .
237(8) . . .
230(8) . . .
224(8) . . .
258(8) . . .
251(9) . . .
234(8) . . .
236(8) . . .
223(8) . . .
231(8) . . .
221(8) . . .
220(8) . . .
219(8) . . .
191(7) . . .
225(8) . . .
200(7) . . .
221(8) . . .
219(8) . . .
223(8) . . .
212(8) . . .
231(8) . . .
189(7) . . .
210(8) . . .
217(8) . . .
215(8) . . .
215(8) . . .
201(8) . . .
203(8) . . .
212(8) . . .
208(8) . . .
221(8) . . .
219(8) . . .
208(8) . . .
228(8) . . .
217(8) . . .
214(8) . . .
213(8) . . .
237(9) . . .
233(8) . . .
217(8) . . .
219(8) . . .
234(8) . . .
241(8) . . .
217(8) . . .
237(8) . . .
239(8) . . .
230(8) . . .
222(8) . . .
214(8) . . .
215(8) . . .
225(8) . . .
215(8) . . .
212(8) . . .
197(7) . . .
231(8) . . .
244(9) . . .
210(8) . . .
221(8) . . .
218(8) . . .
223(8) . . .
220(8) . . .
223(8) . . .
219(8) . . .
206(7) . . .
209(8) . . .
232(8) . . .
198(7) . . .
217(8) . . .
197(7) . . .
216(8) . . .
209(8) . . .
220(8) . . .
201(7) . . .
203(7) . . .
219(8) . . .
217(8) . . .
245(8) . . .
220(8) . . .
218(8) . . .
204(8) . . .
203(8) . . .
216(8) . . .
230(8) . . .
218(8) . . .
227(8) . . .
230(8) . . .
224(8) . . .
219(8) . . .
209(8) . . .
223(8) . . .
232(8) . . .
217(8) . . .
198(7) . . .
234(8) . . .
245(8) . . .
210(8) . . .
236(8) . . .
209(8) . . .
215(8) . . .
234(8) . . .
226(8) . . .
222(8) . . .
203(7) . . .
212(8) . . .
237(8) . . .
220(8) . . .
213(8) . . .
237(8) . . .
209(8) . . .
185(8) . . .
184(7) . . .
222(8) . . .
219(8) . . .
232(8) . . .
237(9) . . .
232(8) . . .
211(8) . . .
197(7) . . .
226(8) . . .
217(8) . . .
203(8) . . .
201(7) . . .
224(8) . . .
207(8) . . .
228(8) . . .
214(8) . . .
224(8) . . .
215(8) . . .
227(8) . . .
226(8) . . .
230(8) . . .
202(7) . . .
183(7) . . .
199(8) . . .
215(8) . . .
203(8) . . .
218(8) . . .
224(8) . . .
214(8) . . .
196(8) . . .
206(8) . . .
214(8) . . .
223(8) . . .
223(8) . . .
221(8) . . .
240(8) . . .
218(8) . . .
202(7) . . .
208(8) . . .
225(8) . . .
210(8) . . .
212(8) . . .
213(8) . . .
190(7) . . .
204(8) . . .
202(7) . . .
228(8) . . .
221(8) . . .
219(8) . . .
202(7) . . .
224(8) . . .
222(8) . . .
203(8) . . .
206(8) . . .
213(8) . . .
188(7) . . .
196(7) . . .
209(8) . . .
205(8) . . .
189(7) . . .
203(7) . . .
218(8) . . .
219(8) . . .
208(8) . . .
209(8) . . .
224(8) . . .
219(8) . . .
224(8) . . .
216(8) . . .
218(8) . . .
201(7) . . .
233(8) . . .
222(8) . . .
228(8) . . .
222(8) . . .
208(8) . . .
226(8) . . .
245(8) . . .
242(8) . . .
222(8) . . .
210(8) . . .
220(8) . . .
226(8) . . .
213(8) . . .
218(8) . . .
223(8) . . .
226(8) . . .
217(8) . . .
218(8) . . .
236(8) . . .
215(8) . . .
205(8) . . .
196(8) . . .
198(8) . . .
219(8) . . .
242(8) . . .
208(8) . . .
207(8) . . .
210(8) . . .
198(7) . . .
237(8) . . .
215(8) . . .
212(8) . . .
222(8) . . .
223(8) . . .
208(7) . . .
224(8) . . .
234(9) . . .
216(8) . . .
195(7) . . .
226(8) . . .
229(8) . . .
211(8) . . .
214(8) . . .
224(8) . . .
220(8) . . .
214(8) . . .
223(8) . . .
225(8) . . .
239(8) . . .
208(8) . . .
215(8) . . .
199(8) . . .
213(8) . . .
226(8) . . .
234(8) . . .
220(8) . . .
213(8) . . .
237(8) . . .
219(8) . . .
206(8) . . .
228(8) . . .
241(9) . . .
211(8) . . .
221(8) . . .
232(8) . . .
225(8) . . .
200(8) . . .
193(7) . . .
210(7) . . .
200(8) . . .
197(8) . . .
191(8) . . .
215(8) . . .
207(7) . . .
213(8) . . .
202(8) . . .
200(7) . . .
206(8) . . .
217(8) . . .
221(8) . . .
193(8) . . .
218(8) . . .
229(8) . . .
216(8) . . .
220(8) . . .
211(8) . . .
212(8) . . .
201(7) . . .
207(7) . . .
213(8) . . .
217(8) . . .
216(8) . . .
199(7) . . .
227(8) . . .
210(8) . . .
198(8) . . .
213(8) . . .
222(8) . . .
205(7) . . .
195(7) . . .
209(8) . . .
227(8) . . .
210(7) . . .
219(8) . . .
194(7) . . .
215(8) . . .
191(7) . . .
196(7) . . .
203(8) . . .
175(7) . . .
200(8) . . .
204(8) . . .
202(7) . . .
216(8) . . .
203(8) . . .
212(8) . . .
211(8) . . .
192(7) . . .
203(8) . . .
207(8) . . .
184(7) . . .
178(7) . . .
205(7) . . .
199(8) . . .
206(8) . . .
217(8) . . .
198(7) . . .
187(7) . . .
185(7) . . .
217(8) . . .
205(8) . . .
217(8) . . .
198(7) . . .
205(8) . . .
189(8) . . .
208(8) . . .
214(8) . . .
197(7) . . .
220(8) . . .
207(8) . . .
210(8) . . .
207(7) . . .
205(7) . . .
213(8) . . .
178(7) . . .
212(8) . . .
220(8) . . .
220(8) . . .
191(7) . . .
210(8) . . .
189(7) . . .
212(8) . . .
232(8) . . .
238(8) . . .
198(7) . . .
202(8) . . .
196(7) . . .
193(7) . . .
190(7) . . .
195(8) . . .
187(8) . . .
188(7) . . .
190(7) . . .
180(7) . . .
192(8) . . .
199(8) . . .
194(7) . . .
195(7) . . .
184(8) . . .
193(8) . . .
201(7) . . .
206(7) . . .
207(8) . . .
206(8) . . .
205(8) . . .
186(7) . . .
183(7) . . .
203(8) . . .
214(8) . . .
216(8) . . .
207(8) . . .
221(8) . . .
220(8) . . .
220(8) . . .
212(8) . . .
204(7) . . .
199(7) . . .
207(8) . . .
202(8) . . .
223(8) . . .
204(7) . . .
196(7) . . .
201(8) . . .
213(8) . . .
202(8) . . .
197(7) . . .
206(7) . . .
183(7) . . .
192(8) . . .
215(8) . . .
194(7) . . .
185(7) . . .
211(8) . . .
192(8) . . .
188(7) . . .
201(7) . . .
213(8) . . .
209(8) . . .
187(7) . . .
203(8) . . .
194(7) . . .
197(8) . . .
212(8) . . .
219(8) . . .
192(7) . . .
216(8) . . .
192(8) . . .
207(8) . . .
180(7) . . .
190(7) . . .
205(7) . . .
179(7) . . .
212(8) . . .
192(7) . . .
223(8) . . .
197(7) . . .
208(8) . . .
195(8) . . .
189(8) . . .
199(7) . . .
201(7) . . .
184(7) . . .
212(8) . . .
194(7) . . .
197(7) . . .
184(7) . . .
182(7) . . .
196(8) . . .
184(7) . . .
196(7) . . .
195(7) . . .
221(8) . . .
209(8) . . .
184(7) . . .
203(7) . . .
196(7) . . .
210(8) . . .
215(8) . . .
195(7) . . .
212(8) . . .
181(7) . . .
208(8) . . .
210(8) . . .
212(8) . . .
217(8) . . .
212(8) . . .
210(8) . . .
198(7) . . .
212(8) . . .
224(8) . . .
199(7) . . .
189(7) . . .
183(7) . . .
210(8) . . .
214(8) . . .
198(7) . . .
196(8) . . .
194(7) . . .
201(8) . . .
216(8) . . .
195(7) . . .
214(8) . . .
182(7) . . .
172(7) . . .
180(7) . . .
181(7) . . .
210(8) . . .
203(8) . . .
198(8) . . .
196(7) . . .
204(8) . . .
200(8) . . .
201(8) . . .
200(8) . . .
212(8) . . .
218(8) . . .
201(8) . . .
208(8) . . .
204(7) . . .
186(7) . . .
211(8) . . .
200(8) . . .
198(8) . . .
214(8) . . .
201(7) . . .
194(7) . . .
206(8) . . .
191(7) . . .
202(7) . . .
193(7) . . .
204(8) . . .
205(8) . . .
204(8) . . .
206(7) . . .
206(7) . . .
221(8) . . .
197(8) . . .
195(7) . . .
204(7) . . .
219(8) . . .
214(8) . . .
193(7) . . .
215(8) . . .
213(8) . . .
222(8) . . .
213(8) . . .
203(8) . . .
189(7) . . .
213(8) . . .
211(8) . . .
196(7) . . .
221(8) . . .
198(7) . . .
185(7) . . .
192(7) . . .
203(8) . . .
206(8) . . .
200(7) . . .
204(7) . . .
202(8) . . .
194(8) . . .
181(7) . . .
178(7) . . .
181(7) . . .
223(8) . . .
194(8) . . .
214(8) . . .
206(7) . . .
213(8) . . .
194(7) . . .
206(8) . . .
198(8) . . .
180(7) . . .
180(7) . . .
202(8) . . .
200(8) . . .
199(8) . . .
183(7) . . .
190(7) . . .
215(8) . . .
202(8) . . .
197(8) . . .
194(7) . . .
198(7) . . .
186(8) . . .
188(7) . . .
213(8) . . .
197(7) . . .
182(7) . . .
213(8) . . .
191(7) . . .
194(8) . . .
199(7) . . .
188(7) . . .
185(7) . . .
192(8) . . .
200(7) . . .
194(7) . . .
214(8) . . .
184(7) . . .
186(8) . . .
198(8) . . .
202(7) . . .
205(8) . . .
187(7) . . .
177(7) . . .
193(7) . . .
189(7) . . .
190(7) . . .
209(8) . . .
200(8) . . .
199(7) . . .
211(8) . . .
175(7) . . .
184(7) . . .
191(7) . . .
169(7) . . .
180(7) . . .
225(8) . . .
205(8) . . .
230(8) . . .
213(8) . . .
197(7) . . .
206(8) . . .
188(8) . . .
194(8) . . .
185(7) . . .
203(7) . . .
189(7) . . .
224(8) . . .
196(7) . . .
210(8) . . .
203(7) . . .
204(8) . . .
204(8) . . .
192(7) . . .
207(8) . . .
188(7) . . .
208(8) . . .
205(8) . . .
189(7) . . .
193(7) . . .
179(7) . . .
200(8) . . .
206(8) . . .
215(8) . . .
198(7) . . .
204(8) . . .
196(8) . . .
199(8) . . .
195(7) . . .
188(7) . . .
159(7) . . .
195(8) . . .
201(8) . . .
180(7) . . .
200(7) . . .
180(7) . . .
190(7) . . .
180(7) . . .
188(7) . . .
185(7) . . .
188(7) . . .
187(8) . . .
186(7) . . .
189(7) . . .
176(7) . . .
170(7) . . .
201(8) . . .
166(7) . . .
197(7) . . .
193(7) . . .
192(8) . . .
196(8) . . .
186(8) . . .
177(7) . . .
188(7) . . .
188(7) . . .
206(8) . . .
178(7) . . .
192(7) . . .
185(7) . . .
172(7) . . .
177(7) . . .
189(7) . . .
199(7) . . .
201(7) . . .
199(8) . . .
180(7) . . .
186(7) . . .
192(7) . . .
193(7) . . .
188(7) . . .
192(8) . . .
183(7) . . .
195(7) . . .
193(7) . . .
199(8) . . .
163(7) . . .
186(7) . . .
197(7) . . .
180(7) . . .
182(7) . . .
183(7) . . .
182(7) . . .
204(7) . . .
187(8) . . .
170(7) . . .
187(7) . . .
190(7) . . .
179(7) . . .
182(7) . . .
179(7) . . .
198(8) . . .
195(7) . . .
199(7) . . .
196(7) . . .
196(8) . . .
198(8) . . .
186(7) . . .
173(7) . . .
185(7) . . .
184(8) . . .
170(7) . . .
165(7) . . .
162(7) . . .
164(7) . . .
200(8) . . .
211(8) . . .
196(7) . . .
177(7) . . .
183(7) . . .
189(7) . . .
189(7) . . .
191(7) . . .
190(7) . . .
212(8) . . .
198(8) . . .
179(7) . . .
189(7) . . .
186(7) . . .
187(7) . . .
192(8) . . .
186(7) . . .
176(7) . . .
176(7) . . .
188(8) . . .
184(7) . . .
175(7) . . .
174(7) . . .
179(7) . . .
187(7) . . .
185(7) . . .
196(7) . . .
185(7) . . .
182(7) . . .
160(7) . . .
190(7) . . .
189(7) . . .
193(7) . . .
179(7) . . .
180(8) . . .
189(7) . . .
177(7) . . .
172(7) . . .
196(7) . . .
184(7) . . .
178(7) . . .
186(7) . . .
199(7) . . .
189(7) . . .
200(8) . . .
185(7) . . .
193(7) . . .
175(7) . . .
189(7) . . .
190(8) . . .
192(8) . . .
175(7) . . .
181(7) . . .
177(7) . . .
182(7) . . .
175(7) . . .
188(7) . . .
193(7) . . .
195(7) . . .
170(7) . . .
187(7) . . .
192(7) . . .
186(7) . . .
179(7) . . .
190(8) . . .
183(7) . . .
191(7) . . .
178(7) . . .
183(7) . . .
192(8) . . .
179(7) . . .
195(7) . . .
182(7) . . .
188(7) . . .
166(7) . . .
172(7) . . .
178(7) . . .
188(7) . . .
173(7) . . .
170(7) . . .
181(7) . . .
196(7) . . .
193(8) . . .
179(7) . . .
187(7) . . .
186(7) . . .
171(7) . . .
180(7) . . .
181(7) . . .
171(7) . . .
172(7) . . .
178(7) . . .
161(7) . . .
186(8) . . .
171(7) . . .
189(7) . . .
187(7) . . .
183(7) . . .
193(8) . . .
187(7) . . .
210(8) . . .
186(7) . . .
184(7) . . .
199(8) . . .
175(7) . . .
178(7) . . .
208(8) . . .
192(7) . . .
188(7) . . .
183(7) . . .
181(7) . . .
184(7) . . .
168(7) . . .
186(7) . . .
173(7) . . .
171(7) . . .
173(7) . . .
196(8) . . .
204(8) . . .
196(8) . . .
158(6) . . .
183(7) . . .
184(7) . . .
184(7) . . .
192(7) . . .
190(7) . . .
197(7) . . .
164(7) . . .
182(7) . . .
205(8) . . .
192(7) . . .
185(7) . . .
180(7) . . .
197(8) . . .
185(7) . . .
177(7) . . .
188(7) . . .
188(8) . . .
186(7) . . .
196(7) . . .
202(7) . . .
182(7) . . .
171(7) . . .
190(7) . . .
190(7) . . .
207(7) . . .
188(7) . . .
177(7) . . .
177(7) . . .
178(7) . . .
185(7) . . .
187(7) . . .
195(8) . . .
197(8) . . .
173(7) . . .
193(7) . . .
181(7) . . .
177(7) . . .
181(7) . . .
163(7) . . .
171(7) . . .
186(7) . . .
206(8) . . .
175(7) . . .
214(8) . . .
186(7) . . .
171(7) . . .
193(8) . . .
152(7) . . .
202(7) . . .
202(8) . . .
173(7) . . .
190(8) . . .
185(7) . . .
182(7) . . .
191(7) . . .
186(7) . . .
179(7) . . .
206(8) . . .
187(7) . . .
172(7) . . .
183(7) . . .
175(7) . . .
189(7) . . .
192(7) . . .
174(7) . . .
156(7) . . .
178(7) . . .
198(7) . . .
187(7) . . .
178(7) . . .
192(8) . . .
179(7) . . .
187(7) . . .
183(7) . . .
182(7) . . .
184(7) . . .
170(7) . . .
181(7) . . .
177(7) . . .
189(7) . . .
194(8) . . .
185(7) . . .
168(7) . . .
186(7) . . .
181(7) . . .
165(7) . . .
178(7) . . .
180(7) . . .
189(7) . . .
178(7) . . .
172(7) . . .
187(7) . . .
170(7) . . .
185(7) . . .
172(7) . . .
178(7) . . .
176(7) . . .
174(7) . . .
177(7) . . .
172(7) . . .
170(7) . . .
192(7) . . .
164(7) . . .
165(7) . . .
182(7) . . .
174(7) . . .
177(7) . . .
181(7) . . .
182(7) . . .
174(7) . . .
168(7) . . .
174(7) . . .
185(7) . . .
201(8) . . .
198(8) . . .
175(7) . . .
178(7) . . .
164(7) . . .
163(7) . . .
164(7) . . .
175(7) . . .
189(7) . . .
190(7) . . .
169(7) . . .
178(8) . . .
166(7) . . .
176(7) . . .
183(7) . . .
178(7) . . .
173(7) . . .
167(7) . . .
192(7) . . .
186(7) . . .
173(7) . . .
179(7) . . .
175(7) . . .
185(7) . . .
192(7) . . .
180(7) . . .
186(8) . . .
186(7) . . .
182(7) . . .
178(7) . . .
173(7) . . .
178(7) . . .
201(8) . . .
192(7) . . .
187(7) . . .
178(7) . . .
193(8) . . .
172(7) . . .
166(7) . . .
173(7) . . .
188(7) . . .
196(7) . . .
189(7) . . .
178(7) . . .
186(7) . . .
163(7) . . .
176(7) . . .
182(7) . . .
207(7) . . .
182(7) . . .
189(8) . . .
202(8) . . .
191(7) . . .
194(7) . . .
173(7) . . .
187(8) . . .
186(7) . . .
164(7) . . .
176(7) . . .
185(7) . . .
177(8) . . .
160(7) . . .
169(7) . . .
196(7) . . .
172(7) . . .
176(8) . . .
168(7) . . .
176(7) . . .
188(7) . . .
171(7) . . .
178(7) . . .
177(7) . . .
173(7) . . .
185(7) . . .
164(7) . . .
182(7) . . .
170(7) . . .
166(7) . . .
186(7) . . .
168(7) . . .
161(7) . . .
177(7) . . .
181(7) . . .
171(7) . . .
181(7) . . .
191(8) . . .
180(7) . . .
196(7) . . .
168(7) . . .
173(7) . . .
192(7) . . .
184(7) . . .
179(7) . . .
187(7) . . .
178(7) . . .
186(8) . . .
179(7) . . .
187(7) . . .
181(7) . . .
165(7) . . .
163(7) . . .
159(7) . . .
178(7) . . .
194(8) . . .
162(7) . . .
173(7) . . .
164(7) . . .
191(7) . . .
190(7) . . .
163(7) . . .
173(7) . . .
177(7) . . .
194(7) . . .
182(7) . . .
181(7) . . .
166(7) . . .
172(7) . . .
191(7) . . .
180(7) . . .
174(7) . . .
182(7) . . .
202(7) . . .
194(7) . . .
169(7) . . .
168(7) . . .
171(7) . . .
186(7) . . .
177(7) . . .
188(8) . . .
187(8) . . .
179(7) . . .
162(7) . . .
168(7) . . .
174(7) . . .
180(7) . . .
180(7) . . .
189(7) . . .
155(6) . . .
185(8) . . .
160(7) . . .
176(7) . . .
175(7) . . .
175(7) . . .
171(7) . . .
145(6) . . .
159(7) . . .
179(7) . . .
181(7) . . .
179(7) . . .
196(8) . . .
191(7) . . .
187(7) . . .
178(7) . . .
185(8) . . .
145(7) . . .
166(7) . . .
169(7) . . .
173(7) . . .
160(7) . . .
194(8) . . .
162(7) . . .
177(7) . . .
180(7) . . .
176(7) . . .
190(7) . . .
167(7) . . .
174(7) . . .
190(7) . . .
158(7) . . .
160(7) . . .
193(7) . . .
182(7) . . .
184(7) . . .
166(7) . . .
202(8) . . .
204(7) . . .
189(7) . . .
171(7) . . .
179(7) . . .
196(7) . . .
200(7) . . .
178(7) . . .
196(8) . . .
186(8) . . .
190(7) . . .
167(7) . . .
152(6) . . .
185(7) . . .
173(7) . . .
188(7) . . .
181(7) . . .
165(7) . . .
156(7) . . .
184(7) . . .
161(7) . . .
176(7) . . .
174(7) . . .
188(7) . . .
184(7) . . .
164(7) . . .
188(7) . . .
173(7) . . .
177(7) . . .
186(7) . . .
179(7) . . .
172(7) . . .
165(7) . . .
174(7) . . .
185(7) . . .
163(7) . . .
172(7) . . .
180(7) . . .
178(7) . . .
160(7) . . .
183(7) . . .
173(7) . . .
185(7) . . .
165(7) . . .
162(7) . . .
177(7) . . .
181(7) . . .
183(7) . . .
180(7) . . .
177(7) . . .
175(7) . . .
169(7) . . .
183(7) . . .
190(8) . . .
172(7) . . .
171(7) . . .
170(7) . . .
171(7) . . .
171(7) . . .
190(7) . . .
193(7) . . .
171(7) . . .
172(7) . . .
173(7) . . .
185(7) . . .
160(7) . . .
180(7) . . .
187(7) . . .
156(7) . . .
176(7) . . .
186(7) . . .
157(7) . . .
183(8) . . .
154(7) . . .
170(7) . . .
172(7) . . .
162(7) . . .
168(7) . . .
163(7) . . .
168(7) . . .
164(7) . . .
196(8) . . .
165(7) . . .
168(7) . . .
165(7) . . .
167(7) . . .
184(7) . . .
180(7) . . .
174(7) . . .
181(7) . . .
163(7) . . .
161(7) . . .
170(7) . . .
163(7) . . .
182(7) . . .
164(7) . . .
171(7) . . .
166(7) . . .
176(7) . . .
170(7) . . .
167(7) . . .
172(7) . . .
163(7) . . .
181(7) . . .
195(7) . . .
168(7) . . .
184(7) . . .
190(7) . . .
166(7) . . .
171(7) . . .
178(7) . . .
155(7) . . .
183(7) . . .
184(7) . . .
168(7) . . .
181(7) . . .
164(7) . . .
164(7) . . .
179(7) . . .
165(7) . . .
181(7) . . .
173(7) . . .
157(7) . . .
174(7) . . .
163(7) . . .
165(7) . . .
171(7) . . .
182(7) . . .
183(7) . . .
162(7) . . .
168(7) . . .
169(7) . . .
179(7) . . .
149(6) . . .
177(7) . . .
182(7) . . .
191(8) . . .
178(7) . . .
159(7) . . .
167(7) . . .
179(7) . . .
186(8) . . .
184(7) . . .
174(7) . . .
184(7) . . .
190(8) . . .
156(7) . . .
185(7) . . .
178(7) . . .
187(7) . . .
175(7) . . .
147(7) . . .
171(7) . . .
173(7) . . .
169(7) . . .
178(7) . . .
181(7) . . .
175(7) . . .
172(7) . . .
171(7) . . .
161(7) . . .
173(7) . . .
166(7) . . .
189(7) . . .
147(6) . . .
178(7) . . .
164(7) . . .
178(7) . . .
171(7) . . .
167(7) . . .
176(7) . . .
177(7) . . .
174(7) . . .
177(7) . . .
161(7) . . .
149(7) . . .
169(7) . . .
152(6) . . .
154(7) . . .
189(7) . . .
180(7) . . .
177(7) . . .
172(7) . . .
164(7) . . .
159(7) . . .
174(7) . . .
160(7) . . .
177(7) . . .
167(7) . . .
167(7) . . .
165(7) . . .
164(7) . . .
155(6) . . .
164(7) . . .
171(7) . . .
181(7) . . .
176(7) . . .
148(6) . . .
164(7) . . .
170(7) . . .
175(7) . . .
173(7) . . .
162(7) . . .
175(7) . . .
167(7) . . .
176(7) . . .
174(7) . . .
169(7) . . .
180(7) . . .
158(7) . . .
161(7) . . .
164(7) . . .
169(7) . . .
189(7) . . .
166(7) . . .
187(8) . . .
168(7) . . .
157(6) . . .
164(7) . . .
173(7) . . .
173(7) . . .
172(7) . . .
172(7) . . .
182(7) . . .
169(7) . . .
162(7) . . .
180(7) . . .
175(7) . . .
161(7) . . .
160(7) . . .
180(7) . . .
176(7) . . .
160(7) . . .
182(7) . . .
159(7) . . .
176(7) . . .
173(7) . . .
172(7) . . .
172(7) . . .
176(7) . . .
193(7) . . .
177(7) . . .
160(7) . . .
173(7) . . .
187(8) . . .
186(8) . . .
188(7) . . .
184(7) . . .
173(7) . . .
184(7) . . .
201(8) . . .
163(7) . . .
177(7) . . .
183(7) . . .
176(7) . . .
176(7) . . .
168(7) . . .
163(7) . . .
169(7) . . .
173(7) . . .
153(6) . . .
179(7) . . .
174(7) . . .
185(7) . . .
167(7) . . .
175(7) . . .
180(7) . . .
175(7) . . .
180(7) . . .
175(7) . . .
180(7) . . .
166(7) . . .
173(7) . . .
174(7) . . .
169(7) . . .
185(7) . . .
180(7) . . .
185(7) . . .
193(8) . . .
166(7) . . .
164(7) . . .
185(7) . . .
168(7) . . .
164(7) . . .
169(7) . . .
178(7) . . .
172(7) . . .
181(7) . . .
169(7) . . .
163(7) . . .
170(7) . . .
170(7) . . .
183(7) . . .
176(7) . . .
166(7) . . .
158(7) . . .
176(7) . . .
162(7) . . .
160(7) . . .
175(7) . . .
156(6) . . .
164(7) . . .
164(7) . . .
156(7) . . .
173(7) . . .
181(7) . . .
192(7) . . .
178(7) . . .
162(7) . . .
173(7) . . .
159(7) . . .
191(7) . . .
165(7) . . .
179(7) . . .
173(7) . . .
179(7) . . .
171(7) . . .
159(7) . . .
169(7) . . .
178(7) . . .
176(7) . . .
188(7) . . .
188(7) . . .
180(7) . . .
178(7) . . .
188(7) . . .
176(7) . . .
183(7) . . .
183(7) . . .
171(7) . . .
170(7) . . .
170(7) . . .
178(7) . . .
184(7) . . .
196(7) . . .
169(7) . . .
167(7) . . .
166(7) . . .
160(7) . . .
169(7) . . .
174(7) . . .
190(7) . . .
173(7) . . .
191(7) . . .
175(7) . . .
167(7) . . .
166(7) . . .
172(7) . . .
185(7) . . .
174(7) . . .
150(6) . . .
174(7) . . .
185(7) . . .
178(7) . . .
167(7) . . .
170(7) . . .
159(7) . . .
180(7) . . .
167(7) . . .
164(7) . . .
167(7) . . .
168(7) . . .
148(6) . . .
173(7) . . .
183(7) . . .
164(7) . . .
164(7) . . .
175(7) . . .
164(7) . . .
177(7) . . .
169(7) . . .
176(7) . . .
189(8) . . .
177(7) . . .
184(7) . . .
185(7) . . .
194(8) . . .
161(7) . . .
183(7) . . .
180(7) . . .
175(7) . . .
181(7) . . .
170(7) . . .
162(7) . . .
182(7) . . .
186(7) . . .
178(7) . . .
182(7) . . .
165(7) . . .
162(7) . . .
174(7) . . .
186(8) . . .
184(7) . . .
175(7) . . .
178(7) . . .
186(7) . . .
195(8) . . .
178(7) . . .
183(7) . . .
188(7) . . .
159(7) . . .
163(7) . . .
174(7) . . .
177(7) . . .
177(7) . . .
168(7) . . .
165(7) . . .
165(7) . . .
162(7) . . .
185(7) . . .
169(7) . . .
179(7) . . .
183(7) . . .
170(7) . . .
169(7) . . .
153(7) . . .
150(7) . . .
174(7) . . .
178(7) . . .
189(7) . . .
163(7) . . .
166(7) . . .
166(7) . . .
160(7) . . .
177(7) . . .
187(8) . . .
163(7) . . .
171(7) . . .
174(7) . . .
171(7) . . .
177(7) . . .
154(7) . . .
166(7) . . .
184(7) . . .
169(7) . . .
173(7) . . .
168(7) . . .
175(7) . . .
174(7) . . .
171(7) . . .
168(7) . . .
161(7) . . .
175(7) . . .
166(7) . . .
167(7) . . .
171(7) . . .
161(7) . . .
166(7) . . .
164(7) . . .
172(7) . . .
171(7) . . .
171(7) . . .
179(7) . . .
174(7) . . .
172(7) . . .
191(8) . . .
180(7) . . .
164(7) . . .
191(7) . . .
163(7) . . .
180(8) . . .
170(7) . . .
182(7) . . .
172(7) . . .
167(7) . . .
187(7) . . .
188(8) . . .
174(7) . . .
173(7) . . .
178(7) . . .
185(7) . . .
183(7) . . .
170(7) . . .
179(7) . . .
175(7) . . .
162(7) . . .
163(7) . . .
175(7) . . .
183(7) . . .
180(7) . . .
184(7) . . .
187(7) . . .
180(7) . . .
170(7) . . .
176(7) . . .
152(6) . . .
159(7) . . .
165(7) . . .
180(7) . . .
174(7) . . .
168(7) . . .
166(7) . . .
179(7) . . .
178(7) . . .
181(7) . . .
171(7) . . .
162(7) . . .
164(7) . . .
189(7) . . .
177(7) . . .
175(7) . . .
172(7) . . .
181(7) . . .
167(7) . . .
177(7) . . .
164(7) . . .
163(7) . . .
186(7) . . .
188(7) . . .
173(7) . . .
157(7) . . .
165(7) . . .
173(7) . . .
169(7) . . .
173(7) . . .
177(7) . . .
175(7) . . .
169(7) . . .
186(7) . . .
177(7) . . .
156(7) . . .
167(7) . . .
150(6) . . .
171(7) . . .
151(7) . . .
171(7) . . .
175(7) . . .
178(7) . . .
194(8) . . .
167(7) . . .
180(7) . . .
182(7) . . .
160(7) . . .
170(7) . . .
173(7) . . .
177(7) . . .
161(7) . . .
183(7) . . .
172(7) . . .
158(7) . . .
175(7) . . .
177(7) . . .
183(7) . . .
173(7) . . .
166(7) . . .
178(7) . . .
172(7) . . .
187(7) . . .
185(8) . . .
166(7) . . .
155(6) . . .
175(7) . . .
179(7) . . .
171(7) . . .
172(7) . . .
183(7) . . .
173(7) . . .
165(7) . . .
181(7) . . .
190(8) . . .
165(7) . . .
159(7) . . .
177(7) . . .
175(7) . . .
179(7) . . .
172(7) . . .
181(7) . . .
178(7) . . .
154(7) . . .
155(7) . . .
185(7) . . .
173(7) . . .
167(7) . . .
166(7) . . .
168(7) . . .
182(7) . . .
164(7) . . .
185(8) . . .
162(7) . . .
180(7) . . .
180(7) . . .
173(7) . . .
169(7) . . .
167(7) . . .
176(7) . . .
169(7) . . .
175(7) . . .
157(7) . . .
171(7) . . .
175(7) . . .
174(7) . . .
160(7) . . .
175(7) . . .
178(7) . . .
181(7) . . .
171(7) . . .
181(7) . . .
167(7) . . .
175(7) . . .
177(7) . . .
171(7) . . .
143(7) . . .
159(7) . . .
175(7) . . .
182(7) . . .
183(7) . . .
147(7) . . .
147(7) . . .
177(7) . . .
160(6) . . .
175(7) . . .
167(7) . . .
167(7) . . .
174(7) . . .
190(7) . . .
174(7) . . .
170(7) . . .
180(8) . . .
152(7) . . .
166(7) . . .
165(7) . . .
173(7) . . .
168(7) . . .
161(7) . . .
166(7) . . .
177(7) . . .
178(7) . . .
170(7) . . .
171(7) . . .
177(7) . . .
174(7) . . .
162(7) . . .
163(7) . . .
151(6) . . .
168(7) . . .
163(7) . . .
166(7) . . .
162(7) . . .
165(7) . . .
173(7) . . .
160(7) . . .
167(7) . . .
168(7) . . .
164(7) . . .
168(7) . . .
176(7) . . .
151(7) . . .
150(6) . . .
176(7) . . .
178(7) . . .
172(7) . . .
161(7) . . .
153(7) . . .
166(7) . . .
154(6) . . .
145(6) . . .
170(7) . . .
149(6) . . .
185(7) . . .
155(7) . . .
188(7) . . .
172(7) . . .
159(7) . . .
154(6) . . .
187(7) . . .
155(7) . . .
177(7) . . .
173(7) . . .
154(6) . . .
159(7) . . .
180(7) . . .
168(7) . . .
167(7) . . .
187(7) . . .
161(7) . . .
167(7) . . .
166(7) . . .
183(7) . . .
160(7) . . .
165(7) . . .
162(7) . . .
166(7) . . .
205(7) . . .
197(7) . . .
174(7) . . .
183(8) . . .
168(7) . . .
180(7) . . .
178(7) . . .
173(7) . . .
194(8) . . .
184(7) . . .
155(6) . . .
172(7) . . .
155(7) . . .
167(7) . . .
174(7) . . .
190(7) . . .
166(7) . . .
178(7) . . .
165(7) . . .
156(7) . . .
180(7) . . .
158(7) . . .
197(8) . . .
177(7) . . .
186(7) . . .
173(7) . . .
180(7) . . .
182(7) . . .
183(7) . . .
173(7) . . .
174(7) . . .
179(7) . . .
169(7) . . .
156(7) . . .
156(7) . . .
166(7) . . .
162(7) . . .
157(7) . . .
147(6) . . .
174(7) . . .
172(7) . . .
170(7) . . .
161(7) . . .
167(7) . . .
174(7) . . .
170(7) . . .
170(7) . . .
172(7) . . .
159(7) . . .
174(7) . . .
178(7) . . .
166(7) . . .
173(7) . . .
168(7) . . .
157(7) . . .
163(7) . . .
176(7) . . .
154(7) . . .
175(7) . . .
164(7) . . .
175(7) . . .
190(7) . . .
153(7) . . .
163(7) . . .
175(7) . . .
174(7) . . .
153(7) . . .
154(7) . . .
172(7) . . .
188(7) . . .
170(7) . . .
171(7) . . .
179(7) . . .
174(7) . . .
169(7) . . .
148(6) . . .
170(7) . . .
185(8) . . .
165(7) . . .
179(7) . . .
183(7) . . .
169(7) . . .
182(7) . . .
158(7) . . .
158(7) . . .
173(7) . . .
171(7) . . .
172(7) . . .
181(7) . . .
152(6) . . .
161(7) . . .
166(7) . . .
176(7) . . .
179(7) . . .
185(7) . . .
170(7) . . .
181(8) . . .
166(7) . . .
167(7) . . .
164(7) . . .
169(7) . . .
176(7) . . .
190(8) . . .
193(7) . . .
182(7) . . .
195(8) . . .
169(7) . . .
169(7) . . .
181(7) . . .
163(7) . . .
170(7) . . .
166(7) . . .
160(7) . . .
166(7) . . .
188(7) . . .
190(7) . . .
176(8) . . .
180(7) . . .
163(7) . . .
191(7) . . .
174(7) . . .
172(7) . . .
169(7) . . .
166(7) . . .
148(6) . . .
170(7) . . .
187(8) . . .
169(7) . . .
188(7) . . .
177(7) . . .
185(7) . . .
177(7) . . .
167(7) . . .
145(6) . . .
174(7) . . .
184(7) . . .
172(7) . . .
184(7) . . .
185(7) . . .
166(7) . . .
172(7) . . .
182(7) . . .
182(7) . . .
191(7) . . .
170(7) . . .
165(7) . . .
170(7) . . .
183(7) . . .
174(7) . . .
163(7) . . .
174(7) . . .
186(7) . . .
200(7) . . .
172(7) . . .
171(7) . . .
169(7) . . .
183(7) . . .
191(7) . . .
185(7) . . .
191(8) . . .
173(7) . . .
177(7) . . .
172(7) . . .
177(7) . . .
167(7) . . .
159(7) . . .
156(7) . . .
166(7) . . .
158(7) . . .
166(7) . . .
182(7) . . .
189(7) . . .
166(7) . . .
181(7) . . .
183(7) . . .
171(7) . . .
161(7) . . .
164(7) . . .
153(6) . . .
167(7) . . .
177(7) . . .
177(7) . . .
166(7) . . .
170(7) . . .
155(7) . . .
178(7) . . .
166(7) . . .
163(7) . . .
165(7) . . .
187(7) . . .
175(7) . . .
172(7) . . .
169(7) . . .
162(7) . . .
151(7) . . .
156(7) . . .
164(7) . . .
151(6) . . .
171(7) . . .
168(7) . . .
160(7) . . .
190(7) . . .
155(6) . . .
155(7) . . .
158(7) . . .
166(7) . . .
156(7) . . .
153(6) . . .
178(7) . . .
155(7) . . .
178(7) . . .
171(7) . . .
184(7) . . .
167(7) . . .
179(8) . . .
175(7) . . .
160(7) . . .
146(6) . . .
161(7) . . .
160(7) . . .
176(7) . . .
173(7) . . .
164(7) . . .
183(7) . . .
163(7) . . .
176(7) . . .
165(7) . . .
172(7) . . .
161(7) . . .
162(7) . . .
186(7) . . .
153(6) . . .
180(7) . . .
181(7) . . .
172(7) . . .
141(6) . . .
164(7) . . .
158(7) . . .
158(7) . . .
171(7) . . .
158(7) . . .
179(7) . . .
172(7) . . .
155(7) . . .
169(7) . . .
171(7) . . .
168(7) . . .
169(7) . . .
166(7) . . .
167(7) . . .
165(7) . . .
163(7) . . .
161(7) . . .
157(7) . . .
179(7) . . .
165(7) . . .
160(7) . . .
166(7) . . .
170(7) . . .
170(7) . . .
176(7) . . .
170(7) . . .
170(7) . . .
176(7) . . .
173(7) . . .
178(7) . . .
170(7) . . .
184(7) . . .
161(7) . . .
164(7) . . .
173(7) . . .
156(7) . . .
177(7) . . .
185(8) . . .
164(7) . . .
176(7) . . .
190(7) . . .
177(7) . . .
160(7) . . .
169(7) . . .
179(7) . . .
189(7) . . .
160(7) . . .
179(7) . . .
177(7) . . .
174(7) . . .
147(6) . . .
165(7) . . .
181(7) . . .
187(7) . . .
178(7) . . .
166(7) . . .
165(7) . . .
179(7) . . .
179(7) . . .
177(7) . . .
174(7) . . .
169(7) . . .
167(7) . . .
173(7) . . .
186(7) . . .
172(7) . . .
203(8) . . .
168(7) . . .
155(6) . . .
166(7) . . .
162(7) . . .
165(7) . . .
162(7) . . .
154(6) . . .
170(7) . . .
172(7) . . .
191(8) . . .
162(7) . . .
173(7) . . .
165(7) . . .
162(7) . . .
162(7) . . .
169(7) . . .
169(7) . . .
169(7) . . .
162(7) . . .
181(8) . . .
190(8) . . .
177(7) . . .
172(7) . . .
146(6) . . .
186(7) . . .
163(7) . . .
168(7) . . .
161(7) . . .
159(7) . . .
180(7) . . .
168(7) . . .
175(7) . . .
183(7) . . .
181(7) . . .
177(7) . . .
180(7) . . .
167(7) . . .
165(7) . . .
159(7) . . .
163(7) . . .
180(7) . . .
157(7) . . .
152(7) . . .
189(8) . . .
184(7) . . .
162(7) . . .
172(7) . . .
162(7) . . .
163(7) . . .
163(7) . . .
161(7) . . .
179(7) . . .
166(7) . . .
161(7) . . .
184(7) . . .
174(7) . . .
158(6) . . .
156(7) . . .
166(7) . . .
167(7) . . .
141(6) . . .
150(7) . . .
168(7) . . .
172(7) . . .
166(7) . . .
156(6) . . .
169(7) . . .
172(7) . . .
187(8) . . .
172(7) . . .
168(7) . . .
183(7) . . .
167(7) . . .
185(8) . . .
163(7) . . .
165(7) . . .
171(7) . . .
173(7) . . .
173(7) . . .
185(7) . . .
174(7) . . .
167(7) . . .
157(7) . . .
159(7) . . .
156(7) . . .
169(7) . . .
175(7) . . .
156(7) . . .
161(7) . . .
169(7) . . .
168(7) . . .
152(6) . . .
175(7) . . .
159(7) . . .
165(7) . . .
157(6) . . .
161(7) . . .
179(7) . . .
177(7) . . .
185(7) . . .
171(7) . . .
185(7) . . .
152(7) . . .
160(7) . . .
168(7) . . .
157(7) . . .
164(7) . . .
164(7) . . .
167(7) . . .
155(7) . . .
164(7) . . .
178(7) . . .
170(7) . . .
184(7) . . .
169(7) . . .
178(7) . . .
167(7) . . .
159(7) . . .
159(7) . . .
165(7) . . .
156(6) . . .
173(7) . . .
170(7) . . .
155(7) . . .
152(7) . . .
178(7) . . .
173(7) . . .
170(7) . . .
183(7) . . .
170(7) . . .
168(7) . . .
152(7) . . .
167(7) . . .
159(7) . . .
185(7) . . .
144(6) . . .
158(7) . . .
171(7) . . .
160(7) . . .
183(7) . . .
158(7) . . .
163(7) . . .
157(7) . . .
162(7) . . .
166(7) . . .
175(7) . . .
183(8) . . .
172(7) . . .
164(7) . . .
169(7) . . .
167(7) . . .
168(7) . . .
158(7) . . .
158(6) . . .
151(6) . . .
148(7) . . .
169(7) . . .
156(7) . . .
159(7) . . .
173(7) . . .
172(7) . . .
158(7) . . .
160(7) . . .
172(7) . . .
168(7) . . .
157(7) . . .
162(7) . . .
172(7) . . .
152(6) . . .
148(6) . . .
166(7) . . .
169(7) . . .
147(7) . . .
154(6) . . .
181(7) . . .
177(7) . . .
164(7) . . .
183(7) . . .
158(7) . . .
175(7) . . .
158(7) . . .
158(7) . . .
159(7) . . .
166(7) . . .
155(7) . . .
162(7) . . .
177(7) . . .
149(6) . . .
179(7) . . .
161(7) . . .
178(7) . . .
174(7) . . .
174(7) . . .
179(7) . . .
168(7) . . .
173(7) . . .
172(7) . . .
153(6) . . .
170(7) . . .
166(7) . . .
172(7) . . .
182(7) . . .
148(6) . . .
153(6) . . .
165(7) . . .
162(7) . . .
188(7) . . .
176(7) . . .
155(6) . . .
178(7) . . .
167(7) . . .
183(7) . . .
160(7) . . .
160(7) . . .
156(7) . . .
163(7) . . .
162(7) . . .
172(7) . . .
165(7) . . .
164(7) . . .
157(7) . . .
189(7) . . .
171(7) . . .
182(7) . . .
160(7) . . .
162(7) . . .
161(7) . . .
175(7) . . .
190(7) . . .
187(7) . . .
176(7) . . .
185(7) . . .
170(7) . . .
170(7) . . .
171(7) . . .
155(7) . . .
165(7) . . .
159(7) . . .
162(7) . . .
194(8) . . .
146(7) . . .
164(7) . . .
160(7) . . .
173(7) . . .
174(7) . . .
155(6) . . .
178(7) . . .
155(6) . . .
182(7) . . .
173(7) . . .
154(7) . . .
168(7) . . .
187(7) . . .
158(7) . . .
168(7) . . .
176(7) . . .
158(6) . . .
176(7) . . .
168(7) . . .
166(7) . . .
165(7) . . .
182(7) . . .
153(6) . . .
162(7) . . .
156(7) . . .
150(7) . . .
164(7) . . .
171(7) . . .
175(7) . . .
161(7) . . .
170(7) . . .
154(6) . . .
162(7) . . .
161(7) . . .
167(7) . . .
146(6) . . .
171(7) . . .
179(7) . . .
155(7) . . .
152(7) . . .
146(7) . . .
160(7) . . .
170(7) . . .
169(7) . . .
178(7) . . .
157(7) . . .
162(7) . . .
169(7) . . .
168(7) . . .
160(7) . . .
174(7) . . .
175(7) . . .
169(7) . . .
186(7) . . .
169(7) . . .
155(7) . . .
174(7) . . .
167(7) . . .
147(7) . . .
159(7) . . .
172(7) . . .
156(6) . . .
169(7) . . .
180(7) . . .
180(7) . . .
157(7) . . .
160(7) . . .
169(7) . . .
153(7) . . .
157(7) . . .
171(7) . . .
157(7) . . .
157(7) . . .
164(7) . . .
153(7) . . .
138(6) . . .
158(6) . . .
178(7) . . .
165(7) . . .
171(7) . . .
166(7) . . .
160(7) . . .
166(7) . . .
191(8) . . .
170(7) . . .
168(7) . . .
183(7) . . .
169(7) . . .
173(7) . . .
156(7) . . .
174(7) . . .
159(7) . . .
169(7) . . .
175(7) . . .
175(7) . . .
150(6) . . .
166(7) . . .
155(7) . . .
175(7) . . .
153(7) . . .
158(6) . . .
162(7) . . .
179(7) . . .
169(7) . . .
162(7) . . .
176(7) . . .
146(7) . . .
160(7) . . .
166(7) . . .
178(7) . . .
156(7) . . .
159(7) . . .
158(7) . . .
174(7) . . .
164(7) . . .
152(6) . . .
155(7) . . .
158(7) . . .
166(7) . . .
154(7) . . .
178(7) . . .
178(7) . . .
178(7) . . .
156(7) . . .
162(7) . . .
171(7) . . .
177(7) . . .
178(7) . . .
188(7) . . .
165(7) . . .
188(7) . . .
152(6) . . .
163(7) . . .
161(7) . . .
160(7) . . .
161(7) . . .
155(7) . . .
177(7) . . .
160(7) . . .
166(7) . . .
163(7) . . .
158(7) . . .
157(7) . . .
163(7) . . .
153(6) . . .
159(7) . . .
169(7) . . .
177(7) . . .
174(7) . . .
160(7) . . .
150(7) . . .
148(6) . . .
147(6) . . .
173(7) . . .
162(7) . . .
173(7) . . .
182(7) . . .
173(7) . . .
156(7) . . .
170(7) . . .
172(7) . . .
162(7) . . .
176(7) . . .
169(7) . . .
157(7) . . .
166(7) . . .
169(7) . . .
167(7) . . .
170(7) . . .
187(7) . . .
169(7) . . .
174(7) . . .
165(7) . . .
181(7) . . .
162(7) . . .
144(6) . . .
169(8) . . .
157(7) . . .
174(7) . . .
157(7) . . .
171(7) . . .
181(8) . . .
184(7) . . .
178(7) . . .
165(7) . . .
154(7) . . .
164(7) . . .
173(7) . . .
155(6) . . .
150(6) . . .
163(7) . . .
154(7) . . .
165(7) . . .
165(7) . . .
155(7) . . .
161(7) . . .
170(7) . . .
177(7) . . .
152(6) . . .
154(7) . . .
146(7) . . .
167(7) . . .
165(7) . . .
166(7) . . .
172(7) . . .
175(7) . . .
182(7) . . .
179(7) . . .
167(7) . . .
181(7) . . .
173(7) . . .
173(7) . . .
192(7) . . .
144(6) . . .
184(7) . . .
187(8) . . .
167(7) . . .
153(6) . . .
170(7) . . .
168(7) . . .
163(7) . . .
164(7) . . .
165(7) . . .
189(7) . . .
171(7) . . .
156(7) . . .
157(7) . . .
171(7) . . .
175(7) . . .
154(7) . . .
161(7) . . .
168(7) . . .
158(7) . . .
164(7) . . .
195(8) . . .
171(7) . . .
185(7) . . .
173(7) . . .
162(7) . . .
182(7) . . .
179(7) . . .
166(7) . . .
171(7) . . .
169(7) . . .
181(7) . . .
174(7) . . .
153(7) . . .
171(7) . . .
162(7) . . .
160(7) . . .
174(7) . . .
169(7) . . .
165(7) . . .
167(7) . . .
154(7) . . .
169(7) . . .
162(7) . . .
167(7) . . .
163(7) . . .
155(7) . . .
145(7) . . .
148(6) . . .
147(6) . . .
155(7) . . .
194(8) . . .
163(7) . . .
147(6) . . .
155(6) . . .
150(7) . . .
155(7) . . .
170(7) . . .
183(7) . . .
166(7) . . .
168(7) . . .
161(7) . . .
155(7) . . .
169(7) . . .
152(6) . . .
173(7) . . .
181(8) . . .
168(7) . . .
187(7) . . .
195(7) . . .
177(7) . . .
160(7) . . .
166(7) . . .
174(7) . . .
152(6) . . .
154(7) . . .
156(7) . . .
138(6) . . .
158(6) . . .
158(7) . . .
163(7) . . .
172(7) . . .
175(7) . . .
162(7) . . .
150(6) . . .
139(6) . . .
144(6) . . .
149(6) . . .
169(7) . . .
168(7) . . .
150(6) . . .
150(7) . . .
154(7) . . .
169(7) . . .
136(6) . . .
158(7) . . .
154(7) . . .
177(7) . . .
173(7) . . .
166(7) . . .
154(7) . . .
158(7) . . .
155(7) . . .
161(7) . . .
170(7) . . .
172(7) . . .
162(7) . . .
166(7) . . .
151(6) . . .
146(6) . . .
155(7) . . .
166(7) . . .
163(7) . . .
148(6) . . .
152(7) . . .
167(7) . . .
168(7) . . .
165(7) . . .
158(7) . . .
149(7) . . .
160(7) . . .
170(7) . . .
154(6) . . .
156(6) . . .
154(7) . . .
161(7) . . .
154(7) . . .
152(6) . . .
158(7) . . .
156(7) . . .
157(7) . . .
152(7) . . .
161(7) . . .
164(7) . . .
173(7) . . .
162(7) . . .
148(6) . . .
154(6) . . .
149(6) . . .
159(7) . . .
171(7) . . .
146(6) . . .
162(7) . . .
148(6) . . .
140(6) . . .
153(7) . . .
169(7) . . .
170(7) . . .
140(6) . . .
148(7) . . .
153(7) . . .
162(7) . . .
168(7) . . .
157(7) . . .
165(7) . . .
177(7) . . .
167(7) . . .
185(7) . . .
155(7) . . .
160(7) . . .
165(7) . . .
166(7) . . .
161(7) . . .
166(7) . . .
148(7) . . .
148(7) . . .
172(7) . . .
169(7) . . .
146(6) . . .
148(7) . . .
155(7) . . .
152(6) . . .
156(7) . . .
163(7) . . .
162(7) . . .
161(7) . . .
174(7) . . .
178(7) . . .
179(7) . . .
171(7) . . .
175(7) . . .
166(7) . . .
173(7) . . .
172(7) . . .
173(7) . . .
160(7) . . .
166(7) . . .
165(7) . . .
161(7) . . .
149(6) . . .
138(6) . . .
169(7) . . .
165(7) . . .
170(7) . . .
134(6) . . .
150(6) . . .
180(7) . . .
150(7) . . .
169(7) . . .
167(7) . . .
149(6) . . .
144(6) . . .
160(7) . . .
175(8) . . .
166(7) . . .
137(6) . . .
161(7) . . .
168(7) . . .
153(7) . . .
166(7) . . .
178(7) . . .
184(7) . . .
165(7) . . .
157(7) . . .
144(6) . . .
156(7) . . .
160(7) . . .
142(6) . . .
167(7) . . .
160(7) . . .
157(7) . . .
153(6) . . .
160(7) . . .
161(7) . . .
152(7) . . .
159(7) . . .
163(7) . . .
157(7) . . .
146(7) . . .
144(6) . . .
151(6) . . .
161(7) . . .
159(7) . . .
163(7) . . .
184(7) . . .
154(6) . . .
138(6) . . .
167(7) . . .
160(7) . . .
152(7) . . .
170(7) . . .
151(6) . . .
141(6) . . .
157(7) . . .
147(6) . . .
157(7) . . .
161(7) . . .
185(7) . . .
177(7) . . .
154(6) . . .
144(6) . . .
152(7) . . .
163(7) . . .
161(7) . . .
145(6) . . .
144(6) . . .
156(7) . . .
161(7) . . .
151(7) . . .
151(6) . . .
154(6) . . .
161(7) . . .
143(7) . . .
157(7) . . .
164(7) . . .
160(7) . . .
155(7) . . .
155(7) . . .
158(7) . . .
162(7) . . .
179(7) . . .
155(6) . . .
171(7) . . .
158(7) . . .
155(6) . . .
162(7) . . .
177(7) . . .
162(7) . . .
148(7) . . .
152(6) . . .
158(7) . . .
142(6) . . .
164(7) . . .
152(7) . . .
151(6) . . .
153(7) . . .
156(7) . . .
164(7) . . .
164(7) . . .
155(6) . . .
173(7) . . .
158(7) . . .
159(7) . . .
158(7) . . .
147(6) . . .
180(7) . . .
169(7) . . .
161(7) . . .
161(7) . . .
153(6) . . .
160(7) . . .
150(7) . . .
153(7) . . .
143(6) . . .
153(6) . . .
153(7) . . .
170(7) . . .
155(7) . . .
170(7) . . .
158(7) . . .
161(7) . . .
162(7) . . .
172(7) . . .
191(7) . . .
156(7) . . .
158(7) . . .
174(7) . . .
150(6) . . .
162(7) . . .
176(7) . . .
148(6) . . .
145(7) . . .
169(7) . . .
148(6) . . .
151(6) . . .
159(7) . . .
146(7) . . .
143(6) . . .
152(6) . . .
173(7) . . .
164(7) . . .
139(6) . . .
154(7) . . .
144(6) . . .
156(7) . . .
145(7) . . .
155(7) . . .
152(7) . . .
160(7) . . .
155(7) . . .
159(7) . . .
161(7) . . .
158(7) . . .
172(7) . . .
162(7) . . .
143(7) . . .
145(7) . . .
145(6) . . .
158(7) . . .
147(7) . . .
149(7) . . .
170(7) . . .
166(7) . . .
148(6) . . .
150(7) . . .
159(7) . . .
159(7) . . .
168(7) . . .
169(7) . . .
143(6) . . .
170(7) . . .
138(6) . . .
168(7) . . .
166(7) . . .
171(7) . . .
162(7) . . .
167(7) . . .
153(6) . . .
154(6) . . .
156(7) . . .
171(7) . . .
156(7) . . .
178(7) . . .
161(7) . . .
165(7) . . .
169(7) . . .
149(7) . . .
175(7) . . .
160(7) . . .
160(7) . . .
160(7) . . .
165(7) . . .
154(6) . . .
171(7) . . .
157(7) . . .
148(7) . . .
178(7) . . .
177(7) . . .
154(7) . . .
160(7) . . .
163(7) . . .
163(7) . . .
162(7) . . .
143(6) . . .
150(7) . . .
160(7) . . .
151(6) . . .
150(6) . . .
168(7) . . .
152(7) . . .
165(7) . . .
165(7) . . .
181(7) . . .
142(6) . . .
154(7) . . .
157(7) . . .
157(7) . . .
143(6) . . .
142(6) . . .
162(7) . . .
159(7) . . .
149(6) . . .
172(7) . . .
173(7) . . .
157(7) . . .
150(7) . . .
148(6) . . .
145(6) . . .
170(7) . . .
163(7) . . .
169(7) . . .
151(6) . . .
151(6) . . .
162(7) . . .
155(7) . . .
153(7) . . .
144(6) . . .
152(6) . . .
153(7) . . .
151(7) . . .
149(7) . . .
146(6) . . .
143(6) . . .
157(7) . . .
165(7) . . .
161(7) . . .
158(7) . . .
164(7) . . .
147(6) . . .
156(7) . . .
151(7) . . .
166(7) . . .
171(7) . . .
161(7) . . .
152(7) . . .
146(6) . . .
152(6) . . .
155(7) . . .
140(6) . . .
161(7) . . .
145(6) . . .
163(7) . . .
164(7) . . .
161(7) . . .
169(7) . . .
153(6) . . .
159(7) . . .
158(7) . . .
152(7) . . .
152(7) . . .
157(7) . . .
160(7) . . .
160(7) . . .
159(7) . . .
152(7) . . .
168(7) . . .
154(6) . . .
155(7) . . .
159(7) . . .
149(7) . . .
158(7) . . .
169(7) . . .
164(7) . . .
152(7) . . .
137(6) . . .
160(7) . . .
153(6) . . .
160(7) . . .
134(6) . . .
156(7) . . .
158(7) . . .
159(7) . . .
158(7) . . .
173(7) . . .
171(7) . . .
152(6) . . .
174(7) . . .
158(7) . . .
151(7) . . .
167(7) . . .
154(6) . . .
169(7) . . .
171(7) . . .
163(7) . . .
160(7) . . .
170(7) . . .
168(7) . . .
162(7) . . .
169(7) . . .
156(7) . . .
157(6) . . .
155(7) . . .
174(7) . . .
164(7) . . .
157(6) . . .
157(7) . . .
152(6) . . .
158(7) . . .
152(7) . . .
169(7) . . .
164(7) . . .
181(7) . . .
159(7) . . .
159(7) . . .
156(6) . . .
171(7) . . .
160(7) . . .
156(7) . . .
172(7) . . .
162(7) . . .
167(7) . . .
161(7) . . .
169(7) . . .
159(7) . . .
139(6) . . .
147(6) . . .
145(6) . . .
157(7) . . .
164(7) . . .
155(6) . . .
164(7) . . .
148(7) . . .
161(7) . . .
175(7) . . .
156(7) . . .
159(7) . . .
161(7) . . .
161(7) . . .
154(7) . . .
157(6) . . .
156(7) . . .
170(7) . . .
154(7) . . .
163(7) . . .
162(7) . . .
170(7) . . .
162(7) . . .
153(7) . . .
161(7) . . .
147(6) . . .
151(7) . . .
157(7) . . .
177(7) . . .
153(7) . . .
151(6) . . .
152(7) . . .
148(7) . . .
173(7) . . .
160(7) . . .
180(7) . . .
150(6) . . .
175(7) . . .
143(6) . . .
163(7) . . .
139(6) . . .
168(7) . . .
156(7) . . .
151(6) . . .
143(6) . . .
147(6) . . .
162(7) . . .
173(7) . . .
177(7) . . .
172(7) . . .
169(7) . . .
155(7) . . .
149(7) . . .
136(6) . . .
159(7) . . .
160(7) . . .
157(7) . . .
148(7) . . .
136(6) . . .
147(6) . . .
149(6) . . .
163(7) . . .
160(7) . . .
163(7) . . .
155(6) . . .
161(7) . . .
174(7) . . .
171(7) . . .
149(6) . . .
167(7) . . .
145(6) . . .
158(7) . . .
158(7) . . .
153(6) . . .
155(7) . . .
155(7) . . .
152(7) . . .
152(7) . . .
145(6) . . .
143(6) . . .
160(7) . . .
166(7) . . .
148(6) . . .
157(7) . . .
166(7) . . .
159(7) . . .
151(7) . . .
145(6) . . .
159(7) . . .
164(7) . . .
154(7) . . .
146(7) . . .
147(7) . . .
151(6) . . .
136(6) . . .
148(7) . . .
153(7) . . .
153(7) . . .
157(6) . . .
161(7) . . .
160(7) . . .
158(7) . . .
140(6) . . .
141(6) . . .
152(6) . . .
155(6) . . .
159(7) . . .
171(7) . . .
168(7) . . .
155(7) . . .
139(6) . . .
148(7) . . .
150(7) . . .
136(6) . . .
157(7) . . .
150(7) . . .
147(6) . . .
182(7) . . .
147(6) . . .
164(7) . . .
152(7) . . .
148(7) . . .
179(7) . . .
159(7) . . .
157(7) . . .
141(6) . . .
159(7) . . .
154(7) . . .
142(6) . . .
154(7) . . .
164(7) . . .
153(7) . . .
148(6) . . .
127(6) . . .
146(6) . . .
168(7) . . .
156(7) . . .
138(6) . . .
161(7) . . .
157(7) . . .
130(6) . . .
141(6) . . .
152(6) . . .
143(6) . . .
159(7) . . .
149(7) . . .
149(7) . . .
149(6) . . .
141(6) . . .
144(6) . . .
150(7) . . .
171(7) . . .
178(7) . . .
167(7) . . .
151(7) . . .
133(6) . . .
154(7) . . .
149(6) . . .
151(7) . . .
143(7) . . .
152(7) . . .
142(6) . . .
137(6) . . .
145(6) . . .
148(7) . . .
161(7) . . .
163(7) . . .
161(7) . . .
145(6) . . .
149(6) . . .
169(7) . . .
149(7) . . .
148(6) . . .
167(7) . . .
152(7) . . .
161(7) . . .
139(6) . . .
146(6) . . .
154(7) . . .
157(7) . . .
145(7) . . .
163(7) . . .
160(7) . . .
181(7) . . .
164(7) . . .
149(7) . . .
181(7) . . .
132(6) . . .
141(6) . . .
143(7) . . .
155(7) . . .
166(7) . . .
158(7) . . .
152(7) . . .
164(7) . . .
149(7) . . .
141(6) . . .
156(6) . . .
173(7) . . .
152(7) . . .
150(7) . . .
157(7) . . .
158(7) . . .
151(6) . . .
158(7) . . .
153(7) . . .
147(6) . . .
158(7) . . .
132(6) . . .
159(7) . . .
144(7) . . .
155(6) . . .
145(6) . . .
162(7) . . .
163(7) . . .
140(6) . . .
153(6) . . .
151(6) . . .
169(7) . . .
170(7) . . .
159(7) . . .
151(6) . . .
146(7) . . .
159(7) . . .
166(7) . . .
150(6) . . .
151(6) . . .
156(7) . . .
154(7) . . .
163(7) . . .
151(6) . . .
147(6) . . .
159(7) . . .
155(7) . . .
161(7) . . .
153(7) . . .
152(6) . . .
158(7) . . .
138(6) . . .
142(6) . . .
149(6) . . .
171(7) . . .
154(6) . . .
143(6) . . .
138(6) . . .
139(6) . . .
140(6) . . .
138(6) . . .
144(7) . . .
163(7) . . .
147(6) . . .
140(6) . . .
139(7) . . .
158(7) . . .
155(7) . . .
153(6) . . .
138(6) . . .
173(7) . . .
160(7) . . .
146(7) . . .
135(6) . . .
150(6) . . .
159(7) . . .
147(6) . . .
158(7) . . .
153(6) . . .
163(7) . . .
165(7) . . .
156(7) . . .
153(7) . . .
154(6) . . .
150(6) . . .
156(7) . . .
151(7) . . .
167(7) . . .
161(7) . . .
161(7) . . .
146(7) . . .
152(7) . . .
160(7) . . .
136(6) . . .
161(7) . . .
153(7) . . .
153(7) . . .
135(6) . . .
147(6) . . .
147(7) . . .
147(7) . . .
155(7) . . .
142(6) . . .
149(6) . . .
142(6) . . .
149(7) . . .
150(7) . . .
145(6) . . .
161(7) . . .
148(7) . . .
149(7) . . .
145(6) . . .
145(6) . . .
138(6) . . .
152(7) . . .
162(7) . . .
155(7) . . .
159(7) . . .
164(7) . . .
161(7) . . .
165(7) . . .
155(7) . . .
151(6) . . .
152(6) . . .
155(7) . . .
163(7) . . .
155(7) . . .
151(6) . . .
151(6) . . .
140(6) . . .
157(7) . . .
155(7) . . .
150(6) . . .
148(7) . . .
130(6) . . .
151(7) . . .
147(6) . . .
161(7) . . .
140(6) . . .
157(7) . . .
167(7) . . .
155(6) . . .
165(7) . . .
140(6) . . .
137(6) . . .
163(7) . . .
157(7) . . .
156(6) . . .
164(7) . . .
169(7) . . .
145(6) . . .
160(7) . . .
149(6) . . .
137(6) . . .
146(7) . . .
152(7) . . .
136(6) . . .
161(7) . . .
143(6) . . .
160(7) . . .
144(6) . . .
155(6) . . .
148(6) . . .
147(7) . . .
146(7) . . .
132(6) . . .
144(6) . . .
142(6) . . .
149(7) . . .
146(7) . . .
149(7) . . .
150(6) . . .
152(7) . . .
148(6) . . .
152(7) . . .
156(7) . . .
170(7) . . .
144(6) . . .
150(7) . . .
144(6) . . .
152(7) . . .
146(6) . . .
154(7) . . .
144(6) . . .
146(7) . . .
157(7) . . .
147(6) . . .
157(7) . . .
143(6) . . .
147(6) . . .
161(7) . . .
156(7) . . .
135(6) . . .
135(6) . . .
162(7) . . .
148(6) . . .
149(6) . . .
156(7) . . .
142(7) . . .
157(7) . . .
158(7) . . .
153(6) . . .
142(6) . . .
144(7) . . .
162(7) . . .
136(6) . . .
143(6) . . .
154(7) . . .
145(7) . . .
151(7) . . .
153(6) . . .
136(6) . . .
140(7) . . .
145(7) . . .
156(7) . . .
139(6) . . .
153(7) . . .
150(7) . . .
158(7) . . .
151(7) . . .
151(6) . . .
158(7) . . .
143(6) . . .
157(7) . . .
155(7) . . .
156(7) . . .
153(7) . . .
175(7) . . .
170(7) . . .
152(7) . . .
131(6) . . .
150(7) . . .
145(6) . . .
142(7) . . .
147(6) . . .
153(6) . . .
155(7) . . .
160(7) . . .
145(7) . . .
153(7) . . .
154(6) . . .
158(7) . . .
144(7) . . .
159(7) . . .
139(6) . . .
160(7) . . .
138(6) . . .
141(7) . . .
150(7) . . .
144(6) . . .
153(6) . . .
158(7) . . .
146(7) . . .
138(6) . . .
144(6) . . .
150(6) . . .
150(6) . . .
175(8) . . .
129(6) . . .
143(6) . . .
155(7) . . .
155(7) . . .
158(7) . . .
156(7) . . .
132(6) . . .
138(6) . . .
138(6) . . .
140(7) . . .
140(6) . . .
151(6) . . .
158(7) . . .
140(6) . . .
144(7) . . .
133(6) . . .
147(6) . . .
153(7) . . .
133(6) . . .
122(6) . . .
120(6) . . .
151(6) . . .
158(7) . . .
150(7) . . .
145(6) . . .
153(7) . . .
137(6) . . .
164(7) . . .
141(6) . . .
147(6) . . .
144(6) . . .
138(6) . . .
124(6) . . .
150(7) . . .
160(7) . . .
160(7) . . .
146(6) . . .
141(6) . . .
143(7) . . .
152(7) . . .
158(7) . . .
164(7) . . .
153(7) . . .
150(7) . . .
162(7) . . .
146(6) . . .
174(7) . . .
139(6) . . .
149(7) . . .
140(6) . . .
153(6) . . .
168(7) . . .
149(7) . . .
141(6) . . .
142(6) . . .
154(6) . . .
152(6) . . .
138(6) . . .
148(7) . . .
148(6) . . .
141(6) . . .
139(6) . . .
124(6) . . .
149(7) . . .
139(6) . . .
147(6) . . .
144(6) . . .
123(6) . . .
132(6) . . .
168(7) . . .
150(6) . . .
149(6) . . .
158(7) . . .
145(7) . . .
136(6) . . .
145(6) . . .
153(7) . . .
144(7) . . .
139(6) . . .
135(6) . . .
136(6) . . .
139(6) . . .
157(7) . . .
149(7) . . .
148(7) . . .
151(6) . . .
139(6) . . .
138(6) . . .
153(7) . . .
152(6) . . .
150(6) . . .
150(7) . . .
147(7) . . .
150(7) . . .
153(6) . . .
141(6) . . .
150(7) . . .
137(7) . . .
149(7) . . .
148(6) . . .
139(6) . . .
151(7) . . .
150(7) . . .
140(6) . . .
142(6) . . .
138(6) . . .
145(7) . . .
149(7) . . .
147(6) . . .
136(6) . . .
143(6) . . .
141(6) . . .
143(6) . . .
144(6) . . .
160(7) . . .
143(6) . . .
141(6) . . .
153(7) . . .
147(6) . . .
146(6) . . .
155(7) . . .
148(7) . . .
154(7) . . .
165(7) . . .
146(6) . . .
162(7) . . .
166(7) . . .
151(7) . . .
157(7) . . .
141(6) . . .
156(7) . . .
134(6) . . .
132(6) . . .
157(7) . . .
162(7) . . .
156(7) . . .
163(7) . . .
136(6) . . .
147(6) . . .
155(6) . . .
143(6) . . .
176(8) . . .
167(7) . . .
147(6) . . .
148(6) . . .
135(6) . . .
134(7) . . .
140(6) . . .
162(7) . . .
159(6) . . .
152(6) . . .
158(7) . . .
140(6) . . .
149(6) . . .
155(6) . . .
164(7) . . .
153(7) . . .
152(7) . . .
145(6) . . .
132(6) . . .
142(6) . . .
155(7) . . .
170(7) . . .
155(6) . . .
148(6) . . .
154(7) . . .
163(7) . . .
170(7) . . .
143(6) . . .
166(7) . . .
146(6) . . .
156(7) . . .
160(7) . . .
148(6) . . .
157(7) . . .
158(7) . . .
153(7) . . .
149(7) . . .
157(7) . . .
157(7) . . .
161(7) . . .
175(7) . . .
164(7) . . .
144(6) . . .
141(6) . . .
149(7) . . .
152(7) . . .
145(6) . . .
165(7) . . .
143(6) . . .
143(6) . . .
156(7) . . .
142(6) . . .
138(6) . . .
151(7) . . .
171(7) . . .
135(6) . . .
131(6) . . .
141(6) . . .
156(7) . . .
143(7) . . .
136(6) . . .
140(6) . . .
132(6) . . .
140(6) . . .
156(7) . . .
143(6) . . .
126(6) . . .
138(6) . . .
148(7) . . .
152(7) . . .
140(6) . . .
143(6) . . .
158(7) . . .
144(7) . . .
138(6) . . .
152(7) . . .
164(7) . . .
144(6) . . .
139(6) . . .
134(7) . . .
145(7) . . .
144(6) . . .
145(6) . . .
157(7) . . .
145(6) . . .
159(7) . . .
160(7) . . .
148(7) . . .
164(7) . . .
148(6) . . .
138(6) . . .
126(6) . . .
143(6) . . .
135(6) . . .
149(7) . . .
154(7) . . .
138(6) . . .
155(7) . . .
159(7) . . .
136(6) . . .
158(7) . . .
163(7) . . .
154(7) . . .
139(7) . . .
156(7) . . .
132(6) . . .
126(6) . . .
128(6) . . .
144(7) . . .
148(6) . . .
152(6) . . .
153(6) . . .
149(7) . . .
154(7) . . .
131(6) . . .
142(6) . . .
135(6) . . .
138(6) . . .
135(6) . . .
142(6) . . .
158(7) . . .
148(6) . . .
145(7) . . .
127(6) . . .
151(7) . . .
141(6) . . .
156(7) . . .
158(7) . . .
142(6) . . .
159(7) . . .
145(6) . . .
155(7) . . .
141(6) . . .
155(7) . . .
148(6) . . .
134(6) . . .
154(7) . . .
149(6) . . .
141(6) . . .
131(6) . . .
149(6) . . .
165(7) . . .
163(7) . . .
142(6) . . .
132(6) . . .
149(6) . . .
158(7) . . .
147(6) . . .
141(6) . . .
153(7) . . .
149(6) . . .
150(7) . . .
150(7) . . .
162(7) . . .
146(6) . . .
142(6) . . .
146(6) . . .
124(6) . . .
140(6) . . .
143(6) . . .
152(6) . . .
150(7) . . .
175(7) . . .
137(6) . . .
154(6) . . .
136(6) . . .
161(7) . . .
145(6) . . .
155(7) . . .
144(6) . . .
157(6) . . .
135(6) . . .
149(7) . . .
148(6) . . .
143(6) . . .
158(7) . . .
153(7) . . .
138(6) . . .
154(7) . . .
151(6) . . .
153(6) . . .
153(7) . . .
159(7) . . .
150(6) . . .
146(6) . . .
130(6) . . .
139(6) . . .
145(6) . . .
137(6) . . .
162(7) . . .
149(6) . . .
126(6) . . .
144(7) . . .
146(6) . . .
150(6) . . .
142(6) . . .
147(7) . . .
142(6) . . .
142(6) . . .
133(6) . . .
156(7) . . .
149(7) . . .
141(6) . . .
130(6) . . .
169(7) . . .
150(7) . . .
162(7) . . .
162(7) . . .
153(7) . . .
147(6) . . .
139(6) . . .
151(7) . . .
143(6) . . .
144(6) . . .
147(6) . . .
147(6) . . .
143(7) . . .
154(7) . . .
142(6) . . .
148(6) . . .
157(7) . . .
153(7) . . .
150(7) . . .
121(6) . . .
165(7) . . .
143(6) . . .
130(6) . . .
128(6) . . .
158(7) . . .
127(6) . . .
133(6) . . .
146(7) . . .
155(7) . . .
153(6) . . .
139(6) . . .
154(7) . . .
150(7) . . .
148(7) . . .
146(6) . . .
124(6) . . .
143(7) . . .
149(7) . . .
140(6) . . .
144(6) . . .
153(7) . . .
139(6) . . .
163(7) . . .
160(7) . . .
146(6) . . .
148(7) . . .
143(6) . . .
161(7) . . .
153(7) . . .
143(6) . . .
148(7) . . .
147(7) . . .
147(7) . . .
144(6) . . .
138(6) . . .
137(6) . . .
156(7) . . .
156(7) . . .
140(6) . . .
149(6) . . .
165(7) . . .
148(7) . . .
148(7) . . .
124(6) . . .
144(6) . . .
150(7) . . .
148(7) . . .
157(7) . . .
154(6) . . .
139(6) . . .
138(6) . . .
146(7) . . .
158(7) . . .
159(7) . . .
148(7) . . .
142(6) . . .
133(6) . . .
150(7) . . .
148(6) . . .
140(6) . . .
147(7) . . .
144(6) . . .
155(7) . . .
157(7) . . .
161(7) . . .
145(7) . . .
136(6) . . .
132(6) . . .
147(6) . . .
130(6) . . .
145(6) . . .
149(6) . . .
159(7) . . .
148(6) . . .
125(6) . . .
132(6) . . .
136(6) . . .
145(6) . . .
157(6) . . .
137(6) . . .
137(6) . . .
140(6) . . .
139(6) . . .
135(6) . . .
142(6) . . .
140(7) . . .
147(7) . . .
130(6) . . .
128(6) . . .
145(6) . . .
164(7) . . .
140(6) . . .
137(6) . . .
148(6) . . .
159(7) . . .
169(7) . . .
140(6) . . .
129(6) . . .
125(6) . . .
152(7) . . .
140(6) . . .
146(7) . . .
128(6) . . .
135(6) . . .
133(6) . . .
143(7) . . .
137(6) . . .
137(6) . . .
141(6) . . .
141(6) . . .
143(6) . . .
164(7) . . .
152(6) . . .
141(6) . . .
148(7) . . .
148(7) . . .
151(7) . . .
149(6) . . .
140(6) . . .
141(6) . . .
140(6) . . .
140(6) . . .
121(6) . . .
134(6) . . .
142(6) . . .
149(7) . . .
143(6) . . .
130(6) . . .
144(7) . . .
148(7) . . .
139(6) . . .
138(6) . . .
140(6) . . .
158(7) . . .
136(6) . . .
138(6) . . .
156(7) . . .
150(6) . . .
153(7) . . .
134(6) . . .
133(6) . . .
133(6) . . .
135(6) . . .
143(6) . . .
139(7) . . .
134(6) . . .
122(6) . . .
142(6) . . .
118(6) . . .
132(6) . . .
145(6) . . .
150(6) . . .
136(6) . . .
140(6) . . .
130(6) . . .
125(6) . . .
128(6) . . .
145(6) . . .
133(6) . . .
132(6) . . .
141(6) . . .
140(6) . . .
139(6) . . .
143(7) . . .
134(6) . . .
149(6) . . .
138(6) . . .
142(6) . . .
153(7) . . .
148(6) . . .
141(6) . . .
144(6) . . .
140(6) . . .
140(7) . . .
132(6) . . .
157(7) . . .
143(6) . . .
135(6) . . .
141(7) . . .
150(7) . . .
134(6) . . .
143(6) . . .
141(6) . . .
141(7) . . .
143(6) . . .
141(6) . . .
128(6) . . .
135(6) . . .
137(7) . . .
130(6) . . .
129(6) . . .
128(6) . . .
145(6) . . .
139(7) . . .
143(7) . . .
133(6) . . .
130(6) . . .
155(7) . . .
136(6) . . .
123(6) . . .
150(6) . . .
139(6) . . .
133(6) . . .
145(7) . . .
127(6) . . .
134(6) . . .
131(6) . . .
134(6) . . .
140(6) . . .
143(6) . . .
129(6) . . .
143(6) . . .
156(7) . . .
130(6) . . .
140(6) . . .
128(6) . . .
143(6) . . .
144(7) . . .
131(6) . . .
141(6) . . .
141(6) . . .
135(6) . . .
151(7) . . .
141(6) . . .
138(6) . . .
145(6) . . .
148(7) . . .
144(7) . . .
131(6) . . .
145(6) . . .
156(7) . . .
144(6) . . .
147(7) . . .
140(6) . . .
140(6) . . .
138(6) . . .
150(7) . . .
133(6) . . .
130(6) . . .
144(6) . . .
140(6) . . .
137(6) . . .
128(6) . . .
141(6) . . .
133(6) . . .
140(6) . . .
145(6) . . .
135(7) . . .
131(6) . . .
134(6) . . .
150(6) . . .
146(6) . . .
130(6) . . .
134(6) . . .
127(6) . . .
143(6) . . .
142(6) . . .
122(6) . . .
130(6) . . .
121(6) . . .
138(6) . . .
136(6) . . .
133(6) . . .
127(6) . . .
117(6) . . .
142(6) . . .
147(7) . . .
147(7) . . .
144(6) . . .
125(6) . . .
149(6) . . .
130(6) . . .
141(6) . . .
152(7) . . .
143(6) . . .
150(7) . . .
153(7) . . .
149(7) . . .
138(6) . . .
145(6) . . .
128(6) . . .
128(6) . . .
131(6) . . .
121(6) . . .
118(6) . . .
147(7) . . .
146(7) . . .
122(6) . . .
134(6) . . .
132(6) . . .
127(6) . . .
148(7) . . .
127(6) . . .
127(6) . . .
132(6) . . .
131(6) . . .
130(6) . . .
141(7) . . .
136(6) . . .
132(6) . . .
136(6) . . .
124(6) . . .
160(7) . . .
133(6) . . .
128(6) . . .
131(6) . . .
145(7) . . .
152(7) . . .
142(6) . . .
131(6) . . .
149(6) . . .
142(7) . . .
138(6) . . .
152(6) . . .
137(6) . . .
131(6) . . .
148(7) . . .
143(6) . . .
161(7) . . .
122(6) . . .
138(7) . . .
128(6) . . .
131(6) . . .
131(6) . . .
130(6) . . .
132(6) . . .
144(6) . . .
140(6) . . .
136(6) . . .
136(6) . . .
137(6) . . .
146(6) . . .
163(7) . . .
146(6) . . .
142(6) . . .
152(7) . . .
153(7) . . .
136(6) . . .
139(6) . . .
142(7) . . .
139(7) . . .
149(7) . . .
142(6) . . .
155(7) . . .
150(6) . . .
133(6) . . .
139(6) . . .
127(6) . . .
138(6) . . .
159(7) . . .
140(7) . . .
136(6) . . .
136(6) . . .
149(6) . . .
132(6) . . .
125(6) . . .
123(6) . . .
139(6) . . .
140(6) . . .
133(6) . . .
125(6) . . .
137(6) . . .
127(6) . . .
144(7) . . .
125(6) . . .
124(6) . . .
137(6) . . .
139(6) . . .
123(6) . . .
126(6) . . .
140(6) . . .
139(6) . . .
134(6) . . .
123(6) . . .
151(7) . . .
130(6) . . .
137(6) . . .
128(6) . . .
133(6) . . .
122(6) . . .
134(6) . . .
136(6) . . .
138(6) . . .
137(6) . . .
109(6) . . .
114(6) . . .
134(6) . . .
127(6) . . .
141(7) . . .
133(6) . . .
131(6) . . .
162(7) . . .
152(6) . . .
145(7) . . .
135(7) . . .
143(6) . . .
131(6) . . .
139(6) . . .
126(6) . . .
136(6) . . .
138(6) . . .
128(6) . . .
132(6) . . .
131(6) . . .
139(6) . . .
140(6) . . .
116(6) . . .
135(6) . . .
130(6) . . .
149(7) . . .
131(6) . . .
141(6) . . .
132(6) . . .
119(6) . . .
148(7) . . .
134(6) . . .
113(6) . . .
135(6) . . .
112(6) . . .
136(6) . . .
135(6) . . .
129(6) . . .
127(6) . . .
145(7) . . .
137(6) . . .
130(6) . . .
151(6) . . .
143(6) . . .
145(7) . . .
138(7) . . .
120(6) . . .
144(6) . . .
138(6) . . .
126(6) . . .
123(6) . . .
138(6) . . .
134(6) . . .
151(7) . . .
140(7) . . .
127(6) . . .
155(7) . . .
132(6) . . .
127(6) . . .
137(6) . . .
145(7) . . .
138(6) . . .
131(6) . . .
126(6) . . .
136(7) . . .
153(7) . . .
141(6) . . .
132(6) . . .
147(7) . . .
153(7) . . .
154(7) . . .
129(6) . . .
133(6) . . .
122(6) . . .
127(6) . . .
139(6) . . .
113(5) . . .
146(7) . . .
146(7) . . .
121(6) . . .
127(6) . . .
132(6) . . .
128(6) . . .
133(6) . . .
130(6) . . .
128(6) . . .
136(6) . . .
133(6) . . .
150(7) . . .
134(6) . . .
128(6) . . .
126(6) . . .
118(6) . . .
120(6) . . .
130(6) . . .
122(6) . . .
129(6) . . .
137(6) . . .
120(6) . . .
137(6) . . .
128(6) . . .
125(6) . . .
138(6) . . .
147(7) . . .
140(6) . . .
127(6) . . .
124(6) . . .
133(6) . . .
118(6) . . .
131(6) . . .
131(6) . . .
142(6) . . .
136(6) . . .
118(6) . . .
134(6) . . .
130(6) . . .
132(6) . . .
152(7) . . .
137(6) . . .
132(6) . . .
140(6) . . .
136(6) . . .
142(6) . . .
126(6) . . .
117(6) . . .
131(6) . . .
113(6) . . .
139(7) . . .
149(7) . . .
130(6) . . .
115(6) . . .
126(6) . . .
122(6) . . .
132(6) . . .
118(6) . . .
133(6) . . .
152(7) . . .
135(6) . . .
155(7) . . .
143(6) . . .
131(6) . . .
132(6) . . .
148(7) . . .
151(7) . . .
131(6) . . .
133(6) . . .
134(6) . . .
131(6) . . .
135(6) . . .
134(6) . . .
119(6) . . .
127(6) . . .
142(7) . . .
132(6) . . .
144(6) . . .
135(6) . . .
139(6) . . .
121(6) . . .
137(6) . . .
149(6) . . .
141(6) . . .
137(6) . . .
131(6) . . .
145(6) . . .
117(6) . . .
139(6) . . .
136(6) . . .
121(6) . . .
121(6) . . .
125(6) . . .
124(6) . . .
130(6) . . .
146(7) . . .
128(6) . . .
138(6) . . .
126(6) . . .
129(6) . . .
138(6) . . .
126(6) . . .
143(6) . . .
153(7) . . .
147(7) . . .
141(6) . . .
137(6) . . .
148(6) . . .
138(6) . . .
141(6) . . .
136(6) . . .
132(6) . . .
129(6) . . .
139(6) . . .
131(6) . . .
120(6) . . .
149(6) . . .
139(6) . . .
139(6) . . .
140(6) . . .
132(6) . . .
149(6) . . .
141(6) . . .
127(6) . . .
133(6) . . .
122(6) . . .
133(6) . . .
122(6) . . .
128(6) . . .
144(7) . . .
116(6) . . .
121(6) . . .
138(6) . . .
142(6) . . .
130(6) . . .
121(6) . . .
124(6) . . .
127(6) . . .
141(6) . . .
122(6) . . .
122(6) . . .
123(6) . . .
128(6) . . .
125(6) . . .
130(6) . . .
122(6) . . .
127(6) . . .
125(6) . . .
122(6) . . .
142(6) . . .
131(6) . . .
129(6) . . .
138(6) . . .
141(6) . . .
142(6) . . .
145(7) . . .
148(6) . . .
144(6) . . .
145(7) . . .
135(6) . . .
123(6) . . .
130(6) . . .
127(6) . . .
118(6) . . .
135(6) . . .
138(6) . . .
131(6) . . .
137(6) . . .
127(6) . . .
135(6) . . .
141(6) . . .
131(6) . . .
135(6) . . .
134(6) . . .
141(6) . . .
130(6) . . .
111(5) . . .
123(6) . . .
125(6) . . .
112(6) . . .
126(6) . . .
127(6) . . .
136(6) . . .
133(6) . . .
120(6) . . .
114(6) . . .
126(6) . . .
131(6) . . .
127(6) . . .
138(6) . . .
145(6) . . .
144(6) . . .
148(6) . . .
140(6) . . .
150(7) . . .
132(6) . . .
118(6) . . .
134(6) . . .
142(6) . . .
150(7) . . .
125(6) . . .
119(6) . . .
129(6) . . .
123(6) . . .
115(6) . . .
120(6) . . .
119(6) . . .
133(7) . . .
130(6) . . .
141(6) . . .
124(6) . . .
139(6) . . .
139(6) . . .
141(6) . . .
137(6) . . .
128(6) . . .
136(6) . . .
126(6) . . .
114(6) . . .
118(6) . . .
135(6) . . .
152(7) . . .
151(7) . . .
139(6) . . .
145(6) . . .
138(6) . . .
134(6) . . .
123(6) . . .
132(6) . . .
127(6) . . .
129(6) . . .
136(6) . . .
122(6) . . .
121(6) . . .
126(6) . . .
136(6) . . .
137(6) . . .
129(6) . . .
121(6) . . .
135(6) . . .
131(6) . . .
125(6) . . .
138(7) . . .
164(7) . . .
134(6) . . .
138(6) . . .
123(6) . . .
133(6) . . .
130(6) . . .
150(6) . . .
139(6) . . .
136(6) . . .
123(6) . . .
135(6) . . .
144(6) . . .
128(6) . . .
134(6) . . .
121(6) . . .
139(6) . . .
132(6) . . .
112(6) . . .
119(6) . . .
128(6) . . .
138(6) . . .
132(6) . . .
134(6) . . .
129(6) . . .
142(7) . . .
130(6) . . .
144(6) . . .
121(6) . . .
117(6) . . .
128(6) . . .
133(6) . . .
137(6) . . .
129(6) . . .
124(6) . . .
127(6) . . .
127(6) . . .
133(6) . . .
130(6) . . .
146(7) . . .
129(6) . . .
135(6) . . .
133(6) . . .
126(6) . . .
123(6) . . .
139(6) . . .
134(6) . . .
130(6) . . .
122(6) . . .
124(6) . . .
128(6) . . .
126(6) . . .
131(6) . . .
133(6) . . .
143(7) . . .
131(6) . . .
141(6) . . .
124(6) . . .
131(6) . . .
128(6) . . .
120(6) . . .
120(6) . . .
136(6) . . .
136(6) . . .
123(6) . . .
120(6) . . .
131(6) . . .
124(6) . . .
127(6) . . .
133(6) . . .
132(6) . . .
122(6) . . .
140(7) . . .
130(6) . . .
135(6) . . .
130(6) . . .
146(6) . . .
141(6) . . .
127(6) . . .
127(6) . . .
141(6) . . .
133(6) . . .
144(6) . . .
138(6) . . .
137(6) . . .
141(6) . . .
130(6) . . .
108(5) . . .
110(6) . . .
147(7) . . .
115(6) . . .
121(6) . . .
129(6) . . .
132(6) . . .
124(6) . . .
121(6) . . .
134(6) . . .
113(6) . . .
135(7) . . .
116(6) . . .
131(6) . . .
144(6) . . .
151(7) . . .
128(6) . . .
136(6) . . .
122(6) . . .
128(6) . . .
123(6) . . .
139(7) . . .
131(6) . . .
137(6) . . .
132(6) . . .
135(6) . . .
138(6) . . .
117(6) . . .
119(6) . . .
128(6) . . .
142(7) . . .
131(6) . . .
140(6) . . .
138(6) . . .
120(6) . . .
135(6) . . .
140(6) . . .
124(6) . . .
135(6) . . .
136(6) . . .
168(7) . . .
147(6) . . .
133(6) . . .
135(6) . . .
125(6) . . .
130(6) . . .
121(6) . . .
130(6) . . .
139(6) . . .
126(6) . . .
121(6) . . .
133(6) . . .
132(6) . . .
127(6) . . .
122(6) . . .
136(7) . . .
137(6) . . .
124(6) . . .
129(6) . . .
137(6) . . .
144(7) . . .
143(6) . . .
127(6) . . .
123(6) . . .
139(6) . . .
138(7) . . .
134(6) . . .
129(6) . . .
136(6) . . .
117(6) . . .
156(7) . . .
134(6) . . .
128(6) . . .
133(6) . . .
142(6) . . .
109(5) . . .
138(6) . . .
138(6) . . .
129(6) . . .
137(6) . . .
133(6) . . .
139(6) . . .
129(6) . . .
141(6) . . .
121(6) . . .
138(6) . . .
141(6) . . .
131(6) . . .
123(6) . . .
125(6) . . .
128(6) . . .
140(6) . . .
128(6) . . .
141(7) . . .
125(6) . . .
132(6) . . .
130(6) . . .
124(6) . . .
119(6) . . .
133(6) . . .
127(6) . . .
129(6) . . .
144(6) . . .
136(6) . . .
133(6) . . .
141(6) . . .
123(6) . . .
119(6) . . .
125(6) . . .
123(6) . . .
114(6) . . .
147(6) . . .
135(6) . . .
144(7) . . .
125(6) . . .
126(6) . . .
115(6) . . .
149(6) . . .
132(6) . . .
132(6) . . .
125(6) . . .
136(6) . . .
129(6) . . .
131(6) . . .
129(6) . . .
131(6) . . .
142(6) . . .
120(6) . . .
123(6) . . .
124(6) . . .
140(6) . . .
137(6) . . .
125(6) . . .
123(6) . . .
134(6) . . .
122(6) . . .
123(6) . . .
132(6) . . .
133(6) . . .
137(6) . . .
130(6) . . .
138(6) . . .
131(6) . . .
136(6) . . .
127(6) . . .
132(6) . . .
136(6) . . .
112(6) . . .
120(6) . . .
125(6) . . .
134(6) . . .
134(6) . . .
125(6) . . .
133(6) . . .
131(6) . . .
135(6) . . .
131(6) . . .
111(6) . . .
134(7) . . .
142(6) . . .
115(6) . . .
146(6) . . .
130(6) . . .
123(6) . . .
104(6) . . .
129(6) . . .
136(6) . . .
133(6) . . .
137(7) . . .
128(6) . . .
146(6) . . .
157(7) . . .
139(6) . . .
153(7) . . .
126(6) . . .
136(6) . . .
121(6) . . .
132(6) . . .
131(6) . . .
130(6) . . .
134(6) . . .
128(6) . . .
133(6) . . .
132(6) . . .
133(6) . . .
151(6) . . .
150(7) . . .
121(6) . . .
117(6) . . .
130(6) . . .
127(6) . . .
128(6) . . .
153(7) . . .
124(6) . . .
138(6) . . .
129(6) . . .
117(6) . . .
137(7) . . .
125(6) . . .
139(6) . . .
130(6) . . .
129(6) . . .
127(6) . . .
116(6) . . .
135(6) . . .
117(6) . . .
124(6) . . .
124(6) . . .
112(6) . . .
129(6) . . .
133(6) . . .
137(7) . . .
133(6) . . .
139(6) . . .
127(6) . . .
126(6) . . .
133(6) . . .
128(6) . . .
135(6) . . .
128(6) . . .
122(6) . . .
126(6) . . .
127(6) . . .
126(6) . . .
127(6) . . .
121(6) . . .
136(6) . . .
123(6) . . .
123(6) . . .
116(6) . . .
128(6) . . .
136(6) . . .
143(6) . . .
131(6) . . .
126(6) . . .
125(6) . . .
133(6) . . .
121(6) . . .
142(6) . . .
124(6) . . .
128(6) . . .
135(6) . . .
144(7) . . .
128(6) . . .
132(6) . . .
133(6) . . .
131(6) . . .
141(6) . . .
121(6) . . .
135(6) . . .
128(6) . . .
145(7) . . .
107(5) . . .
138(6) . . .
139(6) . . .
127(6) . . .
126(6) . . .
116(6) . . .
128(6) . . .
132(6) . . .
121(6) . . .
132(6) . . .
138(6) . . .
134(6) . . .
139(6) . . .
131(6) . . .
141(7) . . .
135(6) . . .
134(6) . . .
128(6) . . .
135(6) . . .
126(6) . . .
125(6) . . .
112(6) . . .
121(6) . . .
119(6) . . .
113(6) . . .
130(6) . . .
119(6) . . .
119(6) . . .
134(6) . . .
122(6) . . .
119(6) . . .
140(6) . . .
140(6) . . .
126(6) . . .
131(6) . . .
136(6) . . .
136(6) . . .
139(6) . . .
125(6) . . .
147(6) . . .
134(6) . . .
124(6) . . .
125(6) . . .
131(7) . . .
124(6) . . .
124(6) . . .
125(6) . . .
128(7) . . .
121(6) . . .
122(6) . . .
116(6) . . .
138(6) . . .
141(6) . . .
136(6) . . .
133(6) . . .
141(6) . . .
137(6) . . .
127(6) . . .
115(6) . . .
138(6) . . .
133(6) . . .
108(5) . . .
120(6) . . .
125(6) . . .
121(6) . . .
119(6) . . .
120(6) . . .
126(6) . . .
110(6) . . .
121(6) . . .
133(6) . . .
143(6) . . .
117(6) . . .
123(6) . . .
118(6) . . .
119(6) . . .
117(6) . . .
128(6) . . .
127(6) . . .
126(6) . . .
125(6) . . .
120(6) . . .
132(6) . . .
122(6) . . .
119(6) . . .
122(6) . . .
119(6) . . .
126(6) . . .
134(6) . . .
147(6) . . .
132(6) . . .
123(6) . . .
110(6) . . .
128(6) . . .
133(6) . . .
126(6) . . .
106(6) . . .
130(6) . . .
132(6) . . .
104(5) . . .
133(6) . . .
125(6) . . .
135(7) . . .
125(6) . . .
125(6) . . .
130(6) . . .
125(6) . . .
121(6) . . .
125(6) . . .
115(6) . . .
124(6) . . .
128(6) . . .
133(6) . . .
134(6) . . .
136(6) . . .
123(6) . . .
130(6) . . .
116(6) . . .
126(6) . . .
126(6) . . .
132(6) . . .
130(6) . . .
126(6) . . .
122(6) . . .
141(6) . . .
106(5) . . .
130(6) . . .
126(6) . . .
123(6) . . .
124(6) . . .
114(6) . . .
130(6) . . .
125(6) . . .
118(6) . . .
117(6) . . .
130(6) . . .
152(7) . . .
131(6) . . .
120(6) . . .
124(6) . . .
125(6) . . .
120(6) . . .
127(6) . . .
109(5) . . .
133(6) . . .
142(6) . . .
113(6) . . .
128(6) . . .
135(6) . . .
140(6) . . .
117(6) . . .
115(6) . . .
118(6) . . .
121(6) . . .
127(6) . . .
133(6) . . .
116(6) . . .
122(6) . . .
127(6) . . .
127(6) . . .
139(6) . . .
126(6) . . .
126(6) . . .
108(5) . . .
123(6) . . .
129(6) . . .
123(6) . . .
142(7) . . .
140(6) . . .
115(6) . . .
135(6) . . .
124(6) . . .
121(6) . . .
131(6) . . .
124(6) . . .
123(6) . . .
116(6) . . .
136(6) . . .
133(6) . . .
115(6) . . .
140(6) . . .
141(7) . . .
131(6) . . .
124(6) . . .
122(6) . . .
141(7) . . .
130(6) . . .
136(6) . . .
140(6) . . .
140(7) . . .
134(6) . . .
125(6) . . .
117(6) . . .
125(6) . . .
112(6) . . .
105(6) . . .
129(6) . . .
141(6) . . .
125(6) . . .
109(6) . . .
119(6) . . .
128(6) . . .
128(6) . . .
111(5) . . .
123(6) . . .
131(6) . . .
122(6) . . .
123(6) . . .
128(6) . . .
122(6) . . .
125(6) . . .
126(6) . . .
122(6) . . .
118(6) . . .
132(6) . . .
120(6) . . .
117(6) . . .
119(6) . . .
124(6) . . .
114(6) . . .
106(6) . . .
116(6) . . .
113(6) . . .
115(6) . . .
121(6) . . .
130(6) . . .
125(6) . . .
113(6) . . .
130(6) . . .
135(6) . . .
122(6) . . .
126(6) . . .
117(6) . . .
122(6) . . .
136(6) . . .
129(6) . . .
119(6) . . .
124(6) . . .
121(6) . . .
127(6) . . .
139(6) . . .
135(6) . . .
121(6) . . .
131(6) . . .
121(6) . . .
116(6) . . .
120(6) . . .
132(6) . . .
144(7) . . .
121(6) . . .
131(6) . . .
136(6) . . .
139(6) . . .
124(6) . . .
121(6) . . .
124(6) . . .
130(6) . . .
136(6) . . .
117(6) . . .
126(7) . . .
121(6) . . .
113(6) . . .
124(6) . . .
114(6) . . .
117(6) . . .
121(6) . . .
113(5) . . .
124(6) . . .
112(6) . . .
113(6) . . .
126(6) . . .
135(6) . . .
133(6) . . .
133(6) . . .
112(6) . . .
115(6) . . .
116(6) . . .
139(6) . . .
115(6) . . .
126(6) . . .
134(6) . . .
118(6) . . .
125(6) . . .
122(6) . . .
123(6) . . .
128(6) . . .
133(6) . . .
123(6) . . .
106(5) . . .
113(5) . . .
144(6) . . .
113(6) . . .
130(6) . . .
126(6) . . .
144(6) . . .
134(6) . . .
126(6) . . .
120(6) . . .
128(6) . . .
127(6) . . .
120(6) . . .
123(6) . . .
127(6) . . .
127(6) . . .
130(6) . . .
132(6) . . .
141(6) . . .
121(6) . . .
129(6) . . .
131(6) . . .
128(6) . . .
109(6) . . .
128(6) . . .
137(7) . . .
128(6) . . .
135(6) . . .
126(6) . . .
121(6) . . .
127(6) . . .
130(6) . . .
137(6) . . .
118(6) . . .
120(6) . . .
118(6) . . .
134(6) . . .
120(6) . . .
129(6) . . .
131(6) . . .
128(6) . . .
137(6) . . .
122(6) . . .
142(6) . . .
133(6) . . .
113(6) . . .
124(6) . . .
122(6) . . .
134(6) . . .
139(6) . . .
133(6) . . .
144(6) . . .
128(6) . . .
132(6) . . .
124(6) . . .
147(7) . . .
129(6) . . .
126(6) . . .
141(7) . . .
129(6) . . .
125(6) . . .
124(6) . . .
129(6) . . .
122(6) . . .
135(6) . . .
124(6) . . .
131(6) . . .
130(6) . . .
150(7) . . .
130(6) . . .
121(6) . . .
128(6) . . .
134(6) . . .
129(6) . . .
120(6) . . .
127(6) . . .
111(6) . . .
120(6) . . .
133(6) . . .
127(6) . . .
137(6) . . .
121(6) . . .
114(6) . . .
144(7) . . .
123(6) . . .
141(7) . . .
119(6) . . .
141(6) . . .
151(7) . . .
138(6) . . .
120(6) . . .
119(6) . . .
140(6) . . .
137(6) . . .
127(6) . . .
129(6) . . .
119(6) . . .
133(6) . . .
157(7) . . .
158(7) . . .
128(6) . . .
123(6) . . .
121(6) . . .
142(7) . . .
138(6) . . .
128(6) . . .
137(6) . . .
147(7) . . .
124(6) . . .
128(6) . . .
130(6) . . .
140(6) . . .
143(6) . . .
143(7) . . .
132(6) . . .
135(6) . . .
122(6) . . .
141(6) . . .
152(7) . . .
133(6) . . .
120(6) . . .
136(6) . . .
116(6) . . .
138(7) . . .
133(6) . . .
137(6) . . .
138(6) . . .
142(6) . . .
145(7) . . .
130(6) . . .
128(6) . . .
133(6) . . .
132(6) . . .
132(6) . . .
146(6) . . .
130(6) . . .
116(6) . . .
124(6) . . .
121(6) . . .
149(7) . . .
119(6) . . .
123(6) . . .
135(6) . . .
131(6) . . .
126(6) . . .
138(6) . . .
121(6) . . .
129(6) . . .
114(6) . . .
132(6) . . .
127(6) . . .
131(6) . . .
122(6) . . .
115(6) . . .
115(6) . . .
116(6) . . .
129(6) . . .
122(6) . . .
119(6) . . .
134(6) . . .
119(6) . . .
121(6) . . .
126(6) . . .
130(6) . . .
123(6) . . .
133(6) . . .
135(6) . . .
125(6) . . .
121(6) . . .
125(6) . . .
121(6) . . .
114(6) . . .
120(6) . . .
135(6) . . .
146(6) . . .
123(6) . . .
146(7) . . .
129(6) . . .
124(6) . . .
115(6) . . .
133(6) . . .
124(6) . . .
126(6) . . .
136(6) . . .
145(6) . . .
143(6) . . .
129(6) . . .
135(6) . . .
118(6) . . .
115(6) . . .
129(6) . . .
148(7) . . .
134(6) . . .
108(5) . . .
145(6) . . .
130(6) . . .
148(7) . . .
149(7) . . .
126(6) . . .
126(6) . . .
127(6) . . .
125(6) . . .
127(6) . . .
125(6) . . .
118(6) . . .
131(6) . . .
129(6) . . .
137(6) . . .
132(6) . . .
141(6) . . .
132(6) . . .
140(7) . . .
153(7) . . .
147(6) . . .
131(6) . . .
132(6) . . .
137(6) . . .
133(6) . . .
137(6) . . .
134(6) . . .
137(6) . . .
136(7) . . .
139(6) . . .
132(6) . . .
131(6) . . .
116(6) . . .
130(6) . . .
127(6) . . .
122(6) . . .
140(6) . . .
144(7) . . .
146(7) . . .
143(6) . . .
135(6) . . .
131(6) . . .
128(6) . . .
125(6) . . .
134(6) . . .
140(6) . . .
135(6) . . .
131(6) . . .
120(6) . . .
132(6) . . .
132(6) . . .
133(6) . . .
137(6) . . .
138(6) . . .
152(7) . . .
112(5) . . .
142(6) . . .
128(6) . . .
146(7) . . .
118(6) . . .
139(6) . . .
131(6) . . .
138(6) . . .
126(6) . . .
128(6) . . .
113(5) . . .
132(6) . . .
130(7) . . .
131(6) . . .
139(6) . . .
117(6) . . .
119(6) . . .
133(7) . . .
130(6) . . .
125(6) . . .
107(5) . . .
146(7) . . .
125(6) . . .
133(6) . . .
125(6) . . .
122(6) . . .
130(6) . . .
135(6) . . .
138(6) . . .
136(6) . . .
126(6) . . .
136(6) . . .
138(7) . . .
129(6) . . .
120(6) . . .
123(6) . . .
124(6) . . .
127(6) . . .
114(6) . . .
113(6) . . .
123(6) . . .
129(6) . . .
132(6) . . .
134(6) . . .
136(6) . . .
133(6) . . .
123(6) . . .
130(6) . . .
130(6) . . .
146(6) . . .
138(6) . . .
144(7) . . .
136(6) . . .
119(6) . . .
135(6) . . .
117(6) . . .
125(6) . . .
127(6) . . .
129(6) . . .
141(6) . . .
135(6) . . .
123(6) . . .
122(6) . . .
133(6) . . .
132(6) . . .
146(6) . . .
139(7) . . .
119(6) . . .
144(6) . . .
134(6) . . .
124(6) . . .
133(6) . . .
138(6) . . .
118(6) . . .
132(6) . . .
128(6) . . .
130(6) . . .
121(6) . . .
125(6) . . .
117(6) . . .
123(6) . . .
137(7) . . .
137(6) . . .
122(6) . . .
124(6) . . .
138(6) . . .
120(6) . . .
126(6) . . .
111(5) . . .
116(6) . . .
124(6) . . .
130(6) . . .
130(6) . . .
138(6) . . .
139(6) . . .
130(6) . . .
152(7) . . .
140(6) . . .
125(6) . . .
121(6) . . .
129(6) . . .
133(6) . . .
125(6) . . .
108(5) . . .
123(6) . . .
133(7) . . .
128(6) . . .
129(6) . . .
122(6) . . .
119(6) . . .
122(6) . . .
124(6) . . .
126(6) . . .
113(6) . . .
125(6) . . .
114(6) . . .
138(6) . . .
119(6) . . .
129(6) . . .
126(6) . . .
118(6) . . .
128(6) . . .
119(6) . . .
125(6) . . .
141(6) . . .
138(7) . . .
122(6) . . .
122(6) . . .
114(6) . . .
113(6) . . .
131(6) . . .
123(6) . . .
129(6) . . .
127(6) . . .
111(5) . . .
124(6) . . .
125(6) . . .
119(6) . . .
116(6) . . .
130(6) . . .
114(6) . . .
138(6) . . .
113(6) . . .
122(6) . . .
149(7) . . .
123(6) . . .
138(6) . . .
108(5) . . .
123(6) . . .
132(6) . . .
120(6) . . .
127(6) . . .
128(6) . . .
130(6) . . .
119(6) . . .
151(7) . . .
121(6) . . .
132(6) . . .
125(6) . . .
125(6) . . .
131(6) . . .
121(6) . . .
124(6) . . .
138(6) . . .
121(6) . . .
131(6) . . .
117(6) . . .
123(6) . . .
153(7) . . .
124(6) . . .
124(6) . . .
129(6) . . .
129(6) . . .
133(6) . . .
133(7) . . .
127(6) . . .
133(6) . . .
125(6) . . .
130(6) . . .
137(6) . . .
142(6) . . .
122(6) . . .
112(5) . . .
128(6) . . .
107(6) . . .
110(6) . . .
155(7) . . .
122(6) . . .
116(6) . . .
122(6) . . .
145(7) . . .
135(6) . . .
123(6) . . .
132(6) . . .
127(6) . . .
134(6) . . .
131(6) . . .
123(6) . . .
117(6) . . .
132(6) . . .
136(6) . . .
131(6) . . .
122(6) . . .
138(7) . . .
116(6) . . .
127(6) . . .
123(6) . . .
102(5) . . .
124(6) . . .
118(6) . . .
122(6) . . .
117(6) . . .
119(6) . . .
125(6) . . .
133(6) . . .
149(6) . . .
119(6) . . .
134(6) . . .
128(6) . . .
126(6) . . .
158(7) . . .
129(6) . . .
130(6) . . .
128(6) . . .
125(6) . . .
124(6) . . .
149(6) . . .
121(6) . . .
115(6) . . .
115(6) . . .
112(5) . . .
116(6) . . .
128(6) . . .
117(6) . . .
129(6) . . .
131(6) . . .
124(6) . . .
126(6) . . .
130(6) . . .
126(6) . . .
138(6) . . .
124(6) . . .
115(6) . . .
123(6) . . .
120(6) . . .
104(5) . . .
115(6) . . .
112(6) . . .
124(6) . . .
130(6) . . .
122(6) . . .
139(6) . . .
116(6) . . .
136(6) . . .
138(6) . . .
131(6) . . .
121(6) . . .
133(6) . . .
135(6) . . .
128(6) . . .
130(6) . . .
123(6) . . .
129(6) . . .
140(6) . . .
136(6) . . .
132(6) . . .
118(6) . . .
134(6) . . .
129(6) . . .
141(6) . . .
117(6) . . .
147(7) . . .
132(6) . . .
143(6) . . .
134(6) . . .
137(6) . . .
129(6) . . .
134(6) . . .
142(7) . . .
123(6) . . .
127(6) . . .
112(6) . . .
117(6) . . .
120(6) . . .
121(6) . . .
124(6) . . .
128(6) . . .
126(6) . . .
124(6) . . .
119(6) . . .
122(6) . . .
132(6) . . .
132(6) . . .
127(6) . . .
151(6) . . .
138(6) . . .
129(6) . . .
120(6) . . .
116(6) . . .
125(6) . . .
132(6) . . .
114(6) . . .
115(6) . . .
114(6) . . .
114(6) . . .
112(6) . . .
122(6) . . .
133(6) . . .
139(6) . . .
129(6) . . .
127(6) . . .
132(6) . . .
128(6) . . .
121(6) . . .
124(6) . . .
129(6) . . .
121(6) . . .
120(6) . . .
135(6) . . .
120(6) . . .
128(6) . . .
150(7) . . .
119(6) . . .
128(6) . . .
124(6) . . .
126(6) . . .
133(7) . . .
121(6) . . .
123(6) . . .
130(6) . . .
129(6) . . .
136(6) . . .
132(6) . . .
144(6) . . .
133(6) . . .
129(6) . . .
132(6) . . .
154(7) . . .
144(6) . . .
125(6) . . .
128(6) . . .
132(6) . . .
134(6) . . .
132(6) . . .
137(6) . . .
131(6) . . .
134(6) . . .
124(6) . . .
118(6) . . .
135(6) . . .
134(6) . . .
121(6) . . .
117(6) . . .
130(6) . . .
136(6) . . .
116(6) . . .
122(6) . . .
121(6) . . .
132(6) . . .
137(6) . . .
151(7) . . .
124(6) . . .
118(6) . . .
155(6) . . .
137(6) . . .
122(6) . . .
105(5) . . .
125(6) . . .
124(6) . . .
137(6) . . .
127(7) . . .
136(7) . . .
119(6) . . .
123(6) . . .
146(7) . . .
114(5) . . .
108(5) . . .
125(6) . . .
109(6) . . .
116(6) . . .
120(6) . . .
130(6) . . .
132(6) . . .
119(6) . . .
121(6) . . .
112(6) . . .
111(6) . . .
127(6) . . .
125(6) . . .
131(6) . . .
127(6) . . .
122(6) . . .
112(6) . . .
113(6) . . .
115(6) . . .
115(6) . . .
130(6) . . .
124(6) . . .
128(6) . . .
130(6) . . .
120(6) . . .
111(6) . . .
111(6) . . .
117(6) . . .
122(6) . . .
115(6) . . .
122(6) . . .
121(6) . . .
118(6) . . .
128(6) . . .
122(6) . . .
132(6) . . .
121(6) . . .
117(6) . . .
118(6) . . .
118(6) . . .
119(6) . . .
123(6) . . .
126(6) . . .
123(6) . . .
132(6) . . .
123(6) . . .
128(6) . . .
111(5) . . .
115(6) . . .
102(5) . . .
115(6) . . .
118(6) . . .
100(5) . . .
120(6) . . .
112(6) . . .
125(6) . . .
119(6) . . .
127(6) . . .
123(6) . . .
136(6) . . .
131(6) . . .
123(6) . . .
117(6) . . .
114(6) . . .
118(6) . . .
115(6) . . .
132(6) . . .
102(5) . . .
105(6) . . .
118(6) . . .
107(5) . . .
103(5) . . .
115(6) . . .
121(6) . . .
127(6) . . .
120(6) . . .
110(5) . . .
124(6) . . .
104(6) . . .
119(6) . . .
123(6) . . .
128(6) . . .
110(5) . . .
105(6) . . .
112(6) . . .
123(6) . . .
122(6) . . .
115(6) . . .
110(6) . . .
118(6) . . .
119(6) . . .
132(6) . . .
123(6) . . .
122(6) . . .
107(5) . . .
107(6) . . .
116(6) . . .
107(5) . . .
122(6) . . .
106(6) . . .
116(6) . . .
99(5) . . .
113(6) . . .
117(6) . . .
126(6) . . .
111(6) . . .
109(5) . . .
130(6) . . .
125(6) . . .
116(6) . . .
122(6) . . .
112(6) . . .
114(6) . . .
119(6) . . .
119(6) . . .
107(6) . . .
119(6) . . .
112(6) . . .
116(6) . . .
118(6) . . .
115(6) . . .
114(6) . . .
115(6) . . .
114(6) . . .
117(6) . . .
126(6) . . .
142(6) . . .
124(6) . . .
125(6) . . .
119(6) . . .
122(6) . . .
124(6) . . .
123(6) . . .
127(6) . . .
133(6) . . .
107(5) . . .
131(6) . . .
132(6) . . .
114(6) . . .
127(6) . . .
115(6) . . .
127(6) . . .
119(6) . . .
118(6) . . .
117(6) . . .
119(6) . . .
126(6) . . .
128(6) . . .
120(6) . . .
107(6) . . .
118(6) . . .
117(6) . . .
124(6) . . .
131(6) . . .
112(6) . . .
131(6) . . .
112(6) . . .
126(6) . . .
135(7) . . .
119(6) . . .
134(6) . . .
122(6) . . .
125(6) . . .
116(6) . . .
108(6) . . .
115(6) . . .
124(6) . . .
113(6) . . .
118(6) . . .
126(6) . . .
111(5) . . .
109(6) . . .
120(6) . . .
114(6) . . .
115(6) . . .
125(6) . . .
122(6) . . .
115(6) . . .
129(6) . . .
128(6) . . .
116(6) . . .
121(6) . . .
135(6) . . .
138(7) . . .
127(6) . . .
128(6) . . .
103(6) . . .
111(6) . . .
122(6) . . .
122(6) . . .
114(6) . . .
119(6) . . .
127(6) . . .
113(6) . . .
124(6) . . .
111(5) . . .
124(6) . . .
127(6) . . .
124(6) . . .
109(5) . . .
147(6) . . .
118(6) . . .
136(7) . . .
121(6) . . .
120(6) . . .
115(6) . . .
132(6) . . .
129(6) . . .
125(6) . . .
124(6) . . .
136(6) . . .
119(6) . . .
115(6) . . .
101(5) . . .
125(6) . . .
115(6) . . .
122(6) . . .
121(6) . . .
108(5) . . .
134(6) . . .
133(6) . . .
120(6) . . .
130(6) . . .
137(6) . . .
104(5) . . .
123(6) . . .
116(6) . . .
133(6) . . .
137(6) . . .
129(6) . . .
115(6) . . .
123(6) . . .
121(6) . . .
114(6) . . .
115(6) . . .
111(6) . . .
104(6) . . .
115(6) . . .
120(6) . . .
135(6) . . .
110(5) . . .
125(6) . . .
112(6) . . .
127(6) . . .
122(6) . . .
140(6) . . .
127(6) . . .
116(6) . . .
122(6) . . .
120(6) . . .
127(6) . . .
115(6) . . .
124(6) . . .
119(6) . . .
118(6) . . .
124(6) . . .
126(6) . . .
128(6) . . .
116(6) . . .
118(6) . . .
111(6) . . .
108(6) . . .
127(6) . . .
130(6) . . .
121(6) . . .
103(5) . . .
137(6) . . .
135(6) . . .
117(6) . . .
100(5) . . .
118(6) . . .
122(6) . . .
113(6) . . .
119(6) . . .
134(6) . . .
115(6) . . .
116(6) . . .
125(6) . . .
113(6) . . .
121(6) . . .
116(6) . . .
133(6) . . .
125(6) . . .
144(6) . . .
113(6) . . .
106(5) . . .
125(6) . . .
120(6) . . .
129(6) . . .
119(6) . . .
137(7) . . .
131(6) . . .
122(6) . . .
130(6) . . .
118(6) . . .
127(6) . . .
111(6) . . .
121(6) . . .
120(6) . . .
136(6) . . .
151(7) . . .
119(6) . . .
123(6) . . .
122(6) . . .
124(6) . . .
118(6) . . .
107(6) . . .
127(6) . . .
110(5) . . .
126(6) . . .
127(6) . . .
121(6) . . .
116(6) . . .
116(6) . . .
110(5) . . .
115(6) . . .
143(7) . . .
122(6) . . .
133(6) . . .
106(6) . . .
119(6) . . .
117(6) . . .
121(6) . . .
132(6) . . .
117(6) . . .
106(6) . . .
120(6) . . .
137(6) . . .
124(6) . . .
104(5) . . .
122(6) . . .
111(6) . . .
101(5) . . .
124(6) . . .
119(6) . . .
112(6) . . .
117(6) . . .
113(6) . . .
125(6) . . .
122(6) . . .
128(6) . . .
118(6) . . .
116(6) . . .
111(6) . . .
117(6) . . .
115(6) . . .
110(5) . . .
124(6) . . .
116(6) . . .
113(6) . . .
135(6) . . .
130(6) . . .
125(6) . . .
121(6) . . .
114(6) . . .
120(6) . . .
111(5) . . .
120(6) . . .
121(6) . . .
108(6) . . .
110(6) . . .
134(6) . . .
126(6) . . .
126(6) . . .
123(6) . . .
117(6) . . .
120(6) . . .
136(6) . . .
124(6) . . .
117(6) . . .
107(5) . . .
91(5) . . .
122(6) . . .
121(6) . . .
121(6) . . .
126(6) . . .
132(6) . . .
119(6) . . .
125(6) . . .
121(6) . . .
114(6) . . .
132(6) . . .
134(6) . . .
119(6) . . .
115(6) . . .
115(6) . . .
114(6) . . .
132(6) . . .
108(6) . . .
121(6) . . .
139(6) . . .
118(6) . . .
124(6) . . .
126(6) . . .
136(6) . . .
115(6) . . .
129(6) . . .
104(6) . . .
108(6) . . .
111(6) . . .
109(5) . . .
128(6) . . .
117(6) . . .
131(6) . . .
127(6) . . .
123(6) . . .
119(6) . . .
127(6) . . .
119(6) . . .
124(6) . . .
132(6) . . .
118(6) . . .
104(5) . . .
121(6) . . .
132(6) . . .
108(5) . . .
112(6) . . .
117(6) . . .
107(6) . . .
130(6) . . .
131(6) . . .
120(6) . . .
120(6) . . .
102(6) . . .
113(6) . . .
115(6) . . .
119(6) . . .
119(6) . . .
114(6) . . .
131(6) . . .
131(6) . . .
113(6) . . .
115(6) . . .
118(6) . . .
111(6) . . .
123(6) . . .
106(6) . . .
120(6) . . .
123(6) . . .
107(5) . . .
129(6) . . .
119(6) . . .
108(6) . . .
133(7) . . .
121(6) . . .
118(6) . . .
128(6) . . .
123(6) . . .
120(6) . . .
128(6) . . .
113(6) . . .
115(6) . . .
124(6) . . .
110(6) . . .
111(5) . . .
116(6) . . .
109(6) . . .
107(6) . . .
127(6) . . .
136(6) . . .
122(6) . . .
123(6) . . .
126(6) . . .
123(6) . . .
125(6) . . .
110(6) . . .
126(6) . . .
127(6) . . .
121(6) . . .
113(6) . . .
129(6) . . .
113(6) . . .
105(5) . . .
130(6) . . .
113(6) . . .
104(5) . . .
113(6) . . .
126(6) . . .
124(6) . . .
133(6) . . .
127(6) . . .
130(6) . . .
130(6) . . .
121(6) . . .
121(6) . . .
105(5) . . .
128(6) . . .
110(6) . . .
119(6) . . .
121(6) . . .
116(6) . . .
121(6) . . .
122(6) . . .
123(6) . . .
126(6) . . .
129(6) . . .
121(6) . . .
118(6) . . .
114(6) . . .
115(6) . . .
118(6) . . .
128(7) . . .
117(6) . . .
131(6) . . .
119(6) . . .
119(6) . . .
131(6) . . .
121(6) . . .
122(6) . . .
109(6) . . .
127(6) . . .
121(6) . . .
106(6) . . .
109(5) . . .
124(6) . . .
129(6) . . .
120(6) . . .
128(6) . . .
116(6) . . .
124(6) . . .
116(6) . . .
108(6) . . .
114(6) . . .
113(6) . . .
123(6) . . .
119(6) . . .
114(6) . . .
106(5) . . .
119(6) . . .
125(6) . . .
92(5) . . .
121(6) . . .
123(6) . . .
128(6) . . .
123(6) . . .
122(6) . . .
114(6) . . .
116(6) . . .
119(6) . . .
130(6) . . .
127(6) . . .
126(6) . . .
128(6) . . .
115(6) . . .
133(6) . . .
116(6) . . .
119(6) . . .
121(6) . . .
119(6) . . .
125(6) . . .
128(6) . . .
109(6) . . .
132(6) . . .
111(6) . . .
129(6) . . .
126(6) . . .
104(5) . . .
119(6) . . .
111(5) . . .
115(6) . . .
123(6) . . .
118(6) . . .
128(6) . . .
118(6) . . .
120(6) . . .
129(6) . . .
119(6) . . .
105(5) . . .
110(6) . . .
125(6) . . .
136(6) . . .
113(6) . . .
108(5) . . .
124(6) . . .
136(7) . . .
100(6) . . .
116(6) . . .
118(6) . . .
139(6) . . .
126(6) . . .
114(6) . . .
110(5) . . .
138(6) . . .
114(6) . . .
126(6) . . .
109(6) . . .
122(6) . . .
124(6) . . .
120(6) . . .
109(5) . . .
120(6) . . .
118(6) . . .
141(6) . . .
119(6) . . .
127(6) . . .
111(6) . . .
119(6) . . .
121(6) . . .
121(6) . . .
115(6) . . .
122(6) . . .
122(6) . . .
135(6) . . .
131(6) . . .
109(6) . . .
124(6) . . .
129(6) . . .
115(6) . . .
111(6) . . .
123(6) . . .
110(6) . . .
124(6) . . .
129(6) . . .
144(6) . . .
150(7) . . .
127(6) . . .
124(6) . . .
108(5) . . .
131(6) . . .
129(6) . . .
122(6) . . .
123(6) . . .
127(6) . . .
122(6) . . .
124(6) . . .
116(6) . . .
122(6) . . .
126(6) . . .
123(6) . . .
137(6) . . .
129(6) . . .
133(6) . . .
116(6) . . .
118(6) . . .
112(6) . . .
111(6) . . .
109(5) . . .
128(6) . . .
112(6) . . .
116(6) . . .
121(6) . . .
114(6) . . .
124(6) . . .
132(6) . . .
118(6) . . .
119(6) . . .
111(5) . . .
113(6) . . .
126(6) . . .
118(6) . . .
123(6) . . .
110(5) . . .
110(6) . . .
115(6) . . .
119(6) . . .
129(6) . . .
119(6) . . .
130(6) . . .
124(6) . . .
107(6) . . .
120(6) . . .
111(6) . . .
113(6) . . .
122(6) . . .
109(6) . . .
120(6) . . .
126(6) . . .
122(6) . . .
132(6) . . .
125(6) . . .
117(6) . . .
134(6) . . .
116(6) . . .
113(6) . . .
130(6) . . .
125(6) . . .
124(6) . . .
121(6) . . .
107(6) . . .
112(6) . . .
127(6) . . .
112(6) . . .
125(6) . . .
121(6) . . .
116(6) . . .
120(6) . . .
126(6) . . .
112(6) . . .
114(6) . . .
130(6) . . .
126(6) . . .
119(6) . . .
125(6) . . .
102(5) . . .
121(6) . . .
122(6) . . .
119(6) . . .
126(6) . . .
120(6) . . .
124(6) . . .
121(6) . . .
135(6) . . .
119(6) . . .
122(6) . . .
126(6) . . .
116(6) . . .
115(6) . . .
136(7) . . .
120(6) . . .
115(6) . . .
129(6) . . .
119(6) . . .
125(6) . . .
137(6) . . .
120(6) . . .
123(6) . . .
119(6) . . .
134(7) . . .
116(6) . . .
129(6) . . .
120(6) . . .
127(6) . . .
123(6) . . .
125(6) . . .
107(5) . . .
127(6) . . .
123(6) . . .
130(6) . . .
130(6) . . .
124(6) . . .
129(6) . . .
122(6) . . .
127(6) . . .
123(6) . . .
130(6) . . .
133(6) . . .
141(7) . . .
137(6) . . .
120(6) . . .
137(6) . . .
127(6) . . .
130(6) . . .
137(6) . . .
125(6) . . .
136(6) . . .
142(6) . . .
137(6) . . .
123(6) . . .
128(6) . . .
133(6) . . .
127(6) . . .
134(6) . . .
139(6) . . .
140(6) . . .
125(6) . . .
122(6) . . .
120(6) . . .
117(6) . . .
140(6) . . .
120(6) . . .
115(6) . . .
116(6) . . .
143(6) . . .
121(6) . . .
117(6) . . .
138(6) . . .
124(6) . . .
129(6) . . .
135(6) . . .
133(6) . . .
145(7) . . .
111(6) . . .
108(5) . . .
136(6) . . .
122(6) . . .
123(6) . . .
122(6) . . .
119(6) . . .
125(6) . . .
133(6) . . .
120(6) . . .
121(6) . . .
142(6) . . .
115(6) . . .
119(6) . . .
124(6) . . .
125(6) . . .
121(6) . . .
113(6) . . .
125(6) . . .
121(6) . . .
132(6) . . .
123(6) . . .
130(6) . . .
113(6) . . .
110(6) . . .
122(6) . . .
123(6) . . .
128(6) . . .
120(6) . . .
115(6) . . .
118(6) . . .
130(6) . . .
130(6) . . .
139(7) . . .
121(6) . . .
122(6) . . .
135(6) . . .
142(6) . . .
134(6) . . .
119(6) . . .
105(5) . . .
115(6) . . .
129(6) . . .
115(6) . . .
118(6) . . .
122(6) . . .
118(6) . . .
134(6) . . .
135(6) . . .
135(6) . . .
119(6) . . .
111(5) . . .
120(6) . . .
135(6) . . .
119(6) . . .
125(6) . . .
136(6) . . .
153(7) . . .
124(6) . . .
132(6) . . .
120(6) . . .
115(6) . . .
115(6) . . .
123(6) . . .
133(6) . . .
116(6) . . .
138(6) . . .
123(6) . . .
136(6) . . .
125(6) . . .
139(6) . . .
118(6) . . .
106(6) . . .
110(6) . . .
119(6) . . .
120(6) . . .
122(6) . . .
120(6) . . .
127(6) . . .
130(6) . . .
119(6) . . .
137(6) . . .
131(6) . . .
131(6) . . .
126(6) . . .
123(6) . . .
125(6) . . .
128(6) . . .
127(6) . . .
124(6) . . .
126(6) . . .
115(6) . . .
115(6) . . .
129(6) . . .
116(6) . . .
134(6) . . .
130(6) . . .
137(6) . . .
129(6) . . .
127(6) . . .
129(6) . . .
123(6) . . .
136(6) . . .
125(6) . . .
113(6) . . .
129(6) . . .
139(7) . . .
134(6) . . .
133(6) . . .
146(6) . . .
140(6) . . .
137(6) . . .
128(6) . . .
126(6) . . .
105(5) . . .
136(6) . . .
137(6) . . .
127(6) . . .
114(6) . . .
120(6) . . .
114(6) . . .
115(6) . . .
114(6) . . .
108(6) . . .
117(6) . . .
125(6) . . .
129(6) . . .
123(6) . . .
118(6) . . .
129(6) . . .
125(6) . . .
125(6) . . .
125(6) . . .
121(6) . . .
131(6) . . .
126(6) . . .
125(6) . . .
118(6) . . .
117(6) . . .
128(6) . . .
118(6) . . .
121(6) . . .
120(6) . . .
128(6) . . .
115(6) . . .
109(5) . . .
114(6) . . .
130(6) . . .
118(6) . . .
128(6) . . .
126(6) . . .
131(6) . . .
112(6) . . .
122(6) . . .
135(6) . . .
129(6) . . .
133(6) . . .
109(6) . . .
120(6) . . .
121(6) . . .
129(6) . . .
132(6) . . .
123(6) . . .
125(6) . . .
133(6) . . .
143(7) . . .
119(6) . . .
119(6) . . .
133(6) . . .
119(6) . . .
117(6) . . .
124(6) . . .
123(6) . . .
123(6) . . .
138(6) . . .
117(6) . . .
115(6) . . .
142(6) . . .
139(6) . . .
132(6) . . .
123(6) . . .
136(7) . . .
110(6) . . .
114(6) . . .
124(6) . . .
132(6) . . .
123(6) . . .
131(6) . . .
123(6) . . .
128(6) . . .
124(6) . . .
111(6) . . .
125(6) . . .
115(6) . . .
129(6) . . .
125(6) . . .
120(6) . . .
114(6) . . .
131(6) . . .
119(6) . . .
141(6) . . .
133(6) . . .
107(6) . . .
106(5) . . .
120(6) . . .
120(6) . . .
122(6) . . .
113(6) . . .
120(6) . . .
115(6) . . .
112(6) . . .
120(6) . . .
120(6) . . .
134(6) . . .
132(6) . . .
124(6) . . .
126(6) . . .
126(6) . . .
127(6) . . .
117(6) . . .
124(6) . . .
135(6) . . .
121(6) . . .
123(6) . . .
105(5) . . .
117(6) . . .
122(6) . . .
122(6) . . .
115(6) . . .
123(6) . . .
116(6) . . .
129(6) . . .
130(6) . . .
124(6) . . .
118(6) . . .
132(6) . . .
132(6) . . .
117(6) . . .
118(6) . . .
109(6) . . .
109(6) . . .
131(6) . . .
126(6) . . .
112(6) . . .
125(6) . . .
138(7) . . .
112(6) . . .
110(6) . . .
123(6) . . .
133(6) . . .
122(6) . . .
118(6) . . .
114(6) . . .
128(6) . . .
118(6) . . .
131(6) . . .
114(6) . . .
123(6) . . .
107(5) . . .
114(6) . . .
115(6) . . .
124(6) . . .
109(5) . . .
121(6) . . .
134(6) . . .
138(6) . . .
117(6) . . .
115(6) . . .
135(6) . . .
120(6) . . .
110(6) . . .
127(6) . . .
119(6) . . .
127(6) . . .
132(6) . . .
133(6) . . .
131(6) . . .
123(6) . . .
112(6) . . .
106(6) . . .
120(6) . . .
133(6) . . .
106(5) . . .
137(6) . . .
132(6) . . .
111(6) . . .
125(6) . . .
124(6) . . .
127(6) . . .
128(6) . . .
123(6) . . .
125(6) . . .
115(6) . . .
124(6) . . .
124(6) . . .
127(6) . . .
122(6) . . .
123(6) . . .
108(5) . . .
127(6) . . .
139(6) . . .
126(6) . . .
118(6) . . .
128(6) . . .
117(6) . . .
123(6) . . .
131(6) . . .
120(6) . . .
129(6) . . .
120(6) . . .
121(6) . . .
113(5) . . .
110(5) . . .
106(6) . . .
111(6) . . .
127(6) . . .
131(6) . . .
123(6) . . .
116(6) . . .
125(6) . . .
124(6) . . .
127(6) . . .
140(6) . . .
131(6) . . .
127(6) . . .
119(6) . . .
134(6) . . .
115(6) . . .
119(6) . . .
134(6) . . .
121(6) . . .
131(6) . . .
110(5) . . .
124(6) . . .
129(6) . . .
129(6) . . .
122(6) . . .
132(6) . . .
143(7) . . .
133(6) . . .
123(6) . . .
123(6) . . .
125(6) . . .
120(6) . . .
135(6) . . .
133(6) . . .
118(6) . . .
118(6) . . .
126(6) . . .
116(6) . . .
123(6) . . .
126(6) . . .
126(6) . . .
113(6) . . .
122(6) . . .
126(6) . . .
131(6) . . .
127(6) . . .
111(6) . . .
125(6) . . .
132(6) . . .
138(6) . . .
147(7) . . .
115(6) . . .
126(6) . . .
116(6) . . .
115(6) . . .
122(6) . . .
119(6) . . .
115(6) . . .
119(6) . . .
115(6) . . .
143(7) . . .
111(5) . . .
117(6) . . .
105(5) . . .
116(6) . . .
134(7) . . .
114(6) . . .
119(6) . . .
126(6) . . .
119(6) . . .
117(6) . . .
128(6) . . .
126(6) . . .
124(6) . . .
111(6) . . .
134(7) . . .
131(6) . . .
129(6) . . .
128(6) . . .
139(6) . . .
114(6) . . .
126(6) . . .
130(6) . . .
111(5) . . .
127(6) . . .
131(6) . . .
123(6) . . .
123(6) . . .
122(6) . . .
104(5) . . .
128(6) . . .
123(6) . . .
131(6) . . .
124(6) . . .
116(6) . . .
107(6) . . .
133(6) . . .
127(6) . . .
136(6) . . .
131(6) . . .
119(6) . . .
124(6) . . .
124(6) . . .
119(6) . . .
127(6) . . .
119(6) . . .
124(6) . . .
114(6) . . .
128(6) . . .
125(6) . . .
131(6) . . .
119(6) . . .
129(6) . . .
118(6) . . .
114(6) . . .
123(6) . . .
126(6) . . .
129(6) . . .
143(7) . . .
113(6) . . .
120(6) . . .
116(6) . . .
118(6) . . .
130(6) . . .
126(6) . . .
112(5) . . .
122(6) . . .
120(6) . . .
124(6) . . .
113(6) . . .
131(6) . . .
134(6) . . .
120(6) . . .
123(6) . . .
123(6) . . .
130(6) . . .
123(6) . . .
126(6) . . .
122(6) . . .
114(6) . . .
122(6) . . .
126(6) . . .
121(6) . . .
122(6) . . .
114(6) . . .
121(6) . . .
134(6) . . .
133(6) . . .
133(6) . . .
131(6) . . .
122(6) . . .
121(6) . . .
117(6) . . .
135(6) . . .
121(6) . . .
124(6) . . .
113(6) . . .
114(6) . . .
124(6) . . .
118(6) . . .
134(6) . . .
134(6) . . .
136(6) . . .
146(7) . . .
124(6) . . .
142(6) . . .
138(6) . . .
103(5) . . .
116(6) . . .
132(6) . . .
121(6) . . .
118(6) . . .
133(6) . . .
134(6) . . .
143(6) . . .
122(6) . . .
122(6) . . .
113(6) . . .
115(6) . . .
124(6) . . .
122(6) . . .
105(5) . . .
130(6) . . .
115(6) . . .
115(6) . . .
132(6) . . .
120(6) . . .
121(6) . . .
124(6) . . .
104(6) . . .
126(6) . . .
121(6) . . .
115(6) . . .
110(6) . . .
133(6) . . .
114(6) . . .
115(6) . . .
113(5) . . .
132(6) . . .
138(6) . . .
112(6) . . .
117(6) . . .
112(6) . . .
122(6) . . .
123(6) . . .
111(5) . . .
123(6) . . .
126(6) . . .
118(6) . . .
124(6) . . .
124(6) . . .
133(6) . . .
127(6) . . .
129(6) . . .
112(6) . . .
111(5) . . .
109(6) . . .
118(6) . . .
120(6) . . .
115(6) . . .
128(6) . . .
121(6) . . .
108(6) . . .
119(6) . . .
127(6) . . .
131(6) . . .
117(6) . . .
130(6) . . .
123(6) . . .
117(6) . . .
112(5) . . .
114(6) . . .
111(6) . . .
113(6) . . .
140(6) . . .
131(6) . . .
116(6) . . .
138(7) . . .
120(6) . . .
126(6) . . .
112(6) . . .
124(6) . . .
137(6) . . .
133(6) . . .
126(6) . . .
135(6) . . .
116(6) . . .
127(6) . . .
127(6) . . .
129(6) . . .
117(6) . . .
124(6) . . .
117(6) . . .
113(6) . . .
122(6) . . .
126(6) . . .
120(6) . . .
131(6) . . .
131(6) . . .
117(6) . . .
106(6) . . .
123(6) . . .
118(6) . . .
126(6) . . .
137(6) . . .
120(6) . . .
133(7) . . .
144(7) . . .
120(6) . . .
122(6) . . .
129(6) . . .
127(6) . . .
128(6) . . .
109(6) . . .
123(6) . . .
124(6) . . .
126(6) . . .
131(6) . . .
127(6) . . .
109(5) . . .
128(6) . . .
121(6) . . .
134(6) . . .
127(6) . . .
119(6) . . .
127(6) . . .
117(6) . . .
101(5) . . .
121(6) . . .
121(6) . . .
108(6) . . .
115(6) . . .
126(6) . . .
113(6) . . .
126(6) . . .
120(6) . . .
113(6) . . .
123(6) . . .
126(6) . . .
128(6) . . .
118(6) . . .
119(6) . . .
126(6) . . .
122(6) . . .
131(6) . . .
125(6) . . .
134(6) . . .
121(6) . . .
111(5) . . .
131(6) . . .
126(6) . . .
138(6) . . .
118(6) . . .
107(5) . . .
118(6) . . .
130(6) . . .
132(6) . . .
127(6) . . .
118(6) . . .
131(6) . . .
131(7) . . .
138(6) . . .
143(6) . . .
135(6) . . .
122(6) . . .
117(6) . . .
128(6) . . .
119(6) . . .
116(6) . . .
125(6) . . .
141(7) . . .
122(6) . . .
134(6) . . .
146(6) . . .
127(6) . . .
122(6) . . .
118(6) . . .
125(6) . . .
131(6) . . .
126(6) . . .
129(6) . . .
136(6) . . .
130(6) . . .
113(6) . . .
133(7) . . .
137(7) . . .
121(6) . . .
121(6) . . .
129(6) . . .
113(6) . . .
127(6) . . .
117(6) . . .
139(6) . . .
126(6) . . .
114(6) . . .
133(6) . . .
104(5) . . .
136(6) . . .
124(6) . . .
125(6) . . .
123(6) . . .
134(6) . . .
123(6) . . .
117(6) . . .
113(6) . . .
120(6) . . .
124(6) . . .
110(5) . . .
131(6) . . .
136(7) . . .
121(6) . . .
121(6) . . .
113(6) . . .
109(5) . . .
127(6) . . .
118(6) . . .
120(6) . . .
116(6) . . .
128(6) . . .
123(6) . . .
115(6) . . .
128(6) . . .
131(6) . . .
119(6) . . .
130(6) . . .
139(6) . . .
124(6) . . .
140(6) . . .
125(6) . . .
114(6) . . .
113(6) . . .
108(5) . . .
113(6) . . .
121(6) . . .
124(6) . . .
120(6) . . .
125(6) . . .
114(6) . . .
113(6) . . .
112(6) . . .
118(6) . . .
120(6) . . .
122(6) . . .
124(6) . . .
132(6) . . .
111(6) . . .
124(6) . . .
120(6) . . .
130(6) . . .
112(6) . . .
119(6) . . .
127(6) . . .
121(6) . . .
125(6) . . .
124(6) . . .
113(6) . . .
111(5) . . .
121(6) . . .
118(6) . . .
102(5) . . .
116(6) . . .
119(6) . . .
128(6) . . .
125(6) . . .
118(6) . . .
127(6) . . .
124(6) . . .
130(6) . . .
129(6) . . .
126(6) . . .
116(6) . . .
120(6) . . .
125(6) . . .
131(6) . . .
126(6) . . .
121(6) . . .
117(6) . . .
122(6) . . .
124(6) . . .
111(6) . . .
140(6) . . .
112(5) . . .
122(6) . . .
119(6) . . .
122(6) . . .
145(6) . . .
136(6) . . .
115(6) . . .
112(6) . . .
112(6) . . .
131(6) . . .
122(6) . . .
103(5) . . .
122(6) . . .
110(5) . . .
110(5) . . .
133(6) . . .
129(6) . . .
121(6) . . .
114(6) . . .
129(6) . . .
141(6) . . .
121(6) . . .
121(6) . . .
122(6) . . .
119(6) . . .
107(5) . . .
106(6) . . .
118(6) . . .
125(6) . . .
126(6) . . .
129(6) . . .
124(6) . . .
126(6) . . .
118(6) . . .
127(6) . . .
121(6) . . .
103(6) . . .
125(6) . . .
130(6) . . .
119(6) . . .
115(6) . . .
134(6) . . .
113(6) . . .
131(6) . . .
105(5) . . .
119(6) . . .
130(6) . . .
131(6) . . .
103(5) . . .
111(6) . . .
135(6) . . .
116(6) . . .
125(6) . . .
117(6) . . .
107(5) . . .
116(6) . . .
129(6) . . .
121(6) . . .
116(6) . . .
114(6) . . .
126(6) . . .
119(6) . . .
127(6) . . .
118(6) . . .
134(6) . . .
123(6) . . .
109(6) . . .
127(6) . . .
124(6) . . .
120(6) . . .
115(6) . . .
118(6) . . .
130(6) . . .
126(6) . . .
114(6) . . .
108(6) . . .
120(6) . . .
106(5) . . .
105(5) . . .
116(6) . . .
116(6) . . .
136(6) . . .
133(6) . . .
108(5) . . .
116(6) . . .
117(6) . . .
119(6) . . .
129(6) . . .
134(6) . . .
111(6) . . .
115(6) . . .
110(6) . . .
116(6) . . .
124(6) . . .
120(6) . . .
119(6) . . .
120(6) . . .
131(6) . . .
128(6) . . .
113(6) . . .
131(6) . . .
114(6) . . .
117(6) . . .
109(6) . . .
124(6) . . .
119(6) . . .
125(6) . . .
119(6) . . .
139(6) . . .
120(6) . . .
124(6) . . .
124(6) . . .
123(6) . . .
119(6) . . .
133(6) . . .
127(6) . . .
120(6) . . .
120(6) . . .
136(6) . . .
127(6) . . .
111(6) . . .
126(6) . . .
124(6) . . .
107(5) . . .
127(6) . . .
124(6) . . .
134(6) . . .
107(5) . . .
116(6) . . .
117(6) . . .
121(6) . . .
117(6) . . .
119(6) . . .
103(5) . . .
117(6) . . .
127(6) . . .
107(5) . . .
126(6) . . .
124(6) . . .
120(6) . . .
116(6) . . .
136(6) . . .
123(6) . . .
113(6) . . .
116(6) . . .
119(6) . . .
126(6) . . .
115(6) . . .
119(6) . . .
118(6) . . .
108(6) . . .
131(6) . . .
122(6) . . .
126(6) . . .
128(6) . . .
126(6) . . .
126(6) . . .
118(6) . . .
121(6) . . .
115(6) . . .
121(6) . . .
108(6) . . .
122(6) . . .
113(6) . . .
102(5) . . .
121(6) . . .
111(5) . . .
119(6) . . .
123(6) . . .
132(6) . . .
101(5) . . .
115(6) . . .
120(6) . . .
140(7) . . .
119(6) . . .
123(6) . . .
112(5) . . .
116(6) . . .
119(6) . . .
138(6) . . .
126(6) . . .
134(6) . . .
119(6) . . .
113(6) . . .
111(6) . . .
121(6) . . .
127(6) . . .
125(6) . . .
105(6) . . .
111(6) . . .
122(6) . . .
109(6) . . .
115(6) . . .
121(6) . . .
110(6) . . .
120(6) . . .
118(6) . . .
112(6) . . .
106(6) . . .
127(6) . . .
114(6) . . .
118(6) . . .
117(6) . . .
115(6) . . .
126(6) . . .
105(5) . . .
108(5) . . .
130(6) . . .
133(6) . . .
125(6) . . .
117(6) . . .
121(6) . . .
117(6) . . .
124(6) . . .
112(6) . . .
105(5) . . .
122(6) . . .
120(6) . . .
123(6) . . .
110(5) . . .
118(6) . . .
112(6) . . .
120(6) . . .
109(6) . . .
119(6) . . .
132(6) . . .
119(6) . . .
112(6) . . .
119(6) . . .
118(6) . . .
138(6) . . .
126(6) . . .
114(6) . . .
125(6) . . .
119(6) . . .
119(6) . . .
126(6) . . .
133(6) . . .
125(6) . . .
122(6) . . .
122(6) . . .
113(6) . . .
129(6) . . .
121(6) . . .
127(6) . . .
105(5) . . .
116(6) . . .
135(6) . . .
123(6) . . .
121(6) . . .
122(6) . . .
108(5) . . .
110(6) . . .
114(6) . . .
116(6) . . .
136(6) . . .
121(6) . . .
126(6) . . .
129(6) . . .
127(6) . . .
113(5) . . .
130(6) . . .
136(6) . . .
116(6) . . .
124(6) . . .
129(6) . . .
120(6) . . .
124(6) . . .
123(6) . . .
116(6) . . .
126(6) . . .
118(6) . . .
126(6) . . .
108(5) . . .
120(6) . . .
134(6) . . .
121(6) . . .
119(6) . . .
123(6) . . .
117(6) . . .
124(6) . . .
124(6) . . .
115(6) . . .
120(6) . . .
111(5) . . .
117(6) . . .
111(6) . . .
123(6) . . .
133(6) . . .
125(6) . . .
116(6) . . .
124(6) . . .
130(6) . . .
121(6) . . .
105(5) . . .
110(6) . . .
107(6) . . .
110(6) . . .
112(5) . . .
113(6) . . .
114(6) . . .
113(6) . . .
107(5) . . .
111(5) . . .
104(5) . . .
120(6) . . .
107(6) . . .
126(6) . . .
109(5) . . .
125(6) . . .
112(6) . . .
119(6) . . .
117(6) . . .
121(6) . . .
122(6) . . .
121(6) . . .
131(6) . . .
131(6) . . .
138(6) . . .
118(6) . . .
145(7) . . .
133(6) . . .
121(6) . . .
106(5) . . .
110(6) . . .
121(6) . . .
115(6) . . .
115(6) . . .
122(6) . . .
114(6) . . .
113(6) . . .
113(6) . . .
109(5) . . .
124(6) . . .
107(6) . . .
126(6) . . .
121(6) . . .
131(6) . . .
131(6) . . .
123(6) . . .
124(6) . . .
128(6) . . .
125(6) . . .
140(6) . . .
125(6) . . .
120(6) . . .
120(6) . . .
120(6) . . .
123(6) . . .
123(6) . . .
118(6) . . .
132(6) . . .
135(6) . . .
129(6) . . .
115(6) . . .
119(6) . . .
111(6) . . .
134(6) . . .
125(6) . . .
117(6) . . .
105(6) . . .
119(6) . . .
122(6) . . .
120(6) . . .
109(5) . . .
122(6) . . .
123(6) . . .
121(6) . . .
127(6) . . .
116(6) . . .
117(6) . . .
117(6) . . .
118(6) . . .
118(6) . . .
117(6) . . .
128(6) . . .
132(6) . . .
122(6) . . .
124(6) . . .
117(6) . . .
114(6) . . .
117(6) . . .
127(6) . . .
138(6) . . .
129(6) . . .
138(6) . . .
120(6) . . .
98(5) . . .
113(6) . . .
122(6) . . .
121(6) . . .
112(5) . . .
118(6) . . .
112(6) . . .
115(6) . . .
115(6) . . .
105(5) . . .
116(6) . . .
108(5) . . .
117(6) . . .
119(6) . . .
133(6) . . .
118(6) . . .
106(5) . . .
128(6) . . .
107(6) . . .
116(6) . . .
104(5) . . .
128(6) . . .
129(6) . . .
131(6) . . .
116(6) . . .
111(5) . . .
110(6) . . .
126(6) . . .
129(6) . . .
112(6) . . .
119(6) . . .
116(6) . . .
123(6) . . .
125(6) . . .
109(5) . . .
112(6) . . .
132(6) . . .
125(6) . . .
125(6) . . .
115(6) . . .
120(6) . . .
105(5) . . .
116(6) . . .
111(5) . . .
129(6) . . .
116(6) . . .
118(6) . . .
139(6) . . .
126(6) . . .
131(6) . . .
109(5) . . .
107(6) . . .
114(6) . . .
128(6) . . .
112(6) . . .
117(6) . . .
112(6) . . .
109(6) . . .
113(6) . . .
120(6) . . .
119(6) . . .
125(6) . . .
106(5) . . .
119(6) . . .
121(6) . . .
112(6) . . .
115(6) . . .
116(6) . . .
116(6) . . .
113(6) . . .
124(6) . . .
108(5) . . .
132(6) . . .
103(5) . . .
113(6) . . .
124(6) . . .
131(6) . . .
118(6) . . .
100(5) . . .
124(6) . . .
128(6) . . .
110(6) . . .
116(6) . . .
104(5) . . .
111(6) . . .
127(6) . . .
121(6) . . .
113(6) . . .
125(6) . . .
113(6) . . .
115(6) . . .
129(6) . . .
117(6) . . .
122(6) . . .
122(6) . . .
115(6) . . .
111(6) . . .
132(6) . . .
138(6) . . .
118(6) . . .
112(6) . . .
115(6) . . .
133(6) . . .
118(6) . . .
118(6) . . .
129(6) . . .
115(6) . . .
120(6) . . .
113(5) . . .
118(6) . . .
125(6) . . .
113(6) . . .
122(6) . . .
107(6) . . .
115(6) . . .
115(6) . . .
120(6) . . .
142(6) . . .
127(6) . . .
127(6) . . .
122(6) . . .
115(6) . . .
126(6) . . .
113(6) . . .
122(6) . . .
121(6) . . .
120(6) . . .
121(6) . . .
127(6) . . .
121(6) . . .
128(6) . . .
118(6) . . .
123(6) . . .
123(6) . . .
127(6) . . .
139(6) . . .
123(6) . . .
139(6) . . .
123(6) . . .
121(6) . . .
116(6) . . .
110(6) . . .
110(5) . . .
113(6) . . .
124(6) . . .
118(6) . . .
117(6) . . .
113(6) . . .
128(6) . . .
112(6) . . .
104(5) . . .
108(5) . . .
118(6) . . .
124(6) . . .
118(6) . . .
125(6) . . .
120(6) . . .
110(5) . . .
126(6) . . .
128(6) . . .
132(6) . . .
129(6) . . .
122(6) . . .
116(6) . . .
111(6) . . .
111(6) . . .
110(5) . . .
117(6) . . .
112(6) . . .
106(6) . . .
123(6) . . .
102(5) . . .
104(6) . . .
113(6) . . .
104(5) . . .
118(6) . . .
133(6) . . .
124(6) . . .
122(6) . . .
118(6) . . .
96(5) . . .
115(6) . . .
109(6) . . .
114(6) . . .
120(6) . . .
120(6) . . .
116(6) . . .
122(6) . . .
104(5) . . .
111(6) . . .
126(6) . . .
122(6) . . .
114(6) . . .
105(6) . . .
112(6) . . .
111(5) . . .
113(6) . . .
133(6) . . .
124(6) . . .
129(6) . . .
122(6) . . .
112(6) . . .
122(6) . . .
122(6) . . .
125(6) . . .
128(6) . . .
112(6) . . .
107(6) . . .
117(6) . . .
108(5) . . .
132(6) . . .
130(6) . . .
145(7) . . .
127(6) . . .
131(6) . . .
126(6) . . .
113(6) . . .
119(6) . . .
121(6) . . .
108(6) . . .
107(5) . . .
126(6) . . .
115(6) . . .
119(6) . . .
123(6) . . .
124(6) . . .
117(6) . . .
119(6) . . .
104(6) . . .
111(5) . . .
115(6) . . .
108(6) . . .
115(6) . . .
105(6) . . .
141(6) . . .
142(6) . . .
117(6) . . .
115(6) . . .
121(6) . . .
123(6) . . .
117(6) . . .
122(6) . . .
113(6) . . .
123(6) . . .
122(6) . . .
119(6) . . .
123(6) . . .
112(6) . . .
107(6) . . .
103(5) . . .
121(6) . . .
123(6) . . .
117(6) . . .
133(6) . . .
116(6) . . .
125(6) . . .
121(6) . . .
117(6) . . .
122(6) . . .
107(5) . . .
125(6) . . .
121(6) . . .
126(7) . . .
113(6) . . .
124(6) . . .
113(6) . . .
115(6) . . .
116(6) . . .
117(6) . . .
120(6) . . .
119(6) . . .
141(7) . . .
122(6) . . .
124(6) . . .
126(6) . . .
110(6) . . .
103(5) . . .
114(6) . . .
119(6) . . .
110(5) . . .
101(5) . . .
115(6) . . .
118(6) . . .
121(6) . . .
129(6) . . .
113(6) . . .
131(7) . . .
123(6) . . .
112(6) . . .
124(6) . . .
113(6) . . .
124(6) . . .
105(5) . . .
118(6) . . .
103(5) . . .
111(6) . . .
115(6) . . .
120(6) . . .
120(6) . . .
110(5) . . .
120(6) . . .
109(6) . . .
123(6) . . .
104(5) . . .
110(5) . . .
111(6) . . .
114(6) . . .
116(6) . . .
104(5) . . .
115(6) . . .
117(6) . . .
123(6) . . .
119(6) . . .
120(6) . . .
128(6) . . .
120(6) . . .
118(6) . . .
127(6) . . .
116(6) . . .
122(6) . . .
101(5) . . .
120(6) . . .
116(6) . . .
99(5) . . .
117(6) . . .
133(6) . . .
128(6) . . .
121(6) . . .
125(6) . . .
115(6) . . .
97(5) . . .
125(6) . . .
120(6) . . .
122(6) . . .
125(6) . . .
127(6) . . .
104(5) . . .
114(6) . . .
115(6) . . .
103(5) . . .
103(6) . . .
119(6) . . .
114(6) . . .
115(6) . . .
125(6) . . .
121(6) . . .
113(6) . . .
110(6) . . .
109(5) . . .
119(6) . . .
123(6) . . .
127(6) . . .
122(6) . . .
123(6) . . .
114(6) . . .
113(6) . . .
111(6) . . .
115(6) . . .
123(6) . . .
121(6) . . .
110(6) . . .
110(6) . . .
113(6) . . .
117(6) . . .
109(6) . . .
124(6) . . .
112(6) . . .
97(5) . . .
132(6) . . .
114(6) . . .
122(6) . . .
112(6) . . .
114(6) . . .
109(6) . . .
112(6) . . .
116(6) . . .
113(6) . . .
89(5) . . .
118(6) . . .
108(6) . . .
107(5) . . .
115(6) . . .
118(6) . . .
109(6) . . .
116(6) . . .
117(6) . . .
126(6) . . .
129(6) . . .
115(6) . . .
118(6) . . .
118(6) . . .
119(6) . . .
118(6) . . .
112(6) . . .
109(6) . . .
118(6) . . .
113(6) . . .
125(6) . . .
103(5) . . .
115(6) . . .
104(5) . . .
116(6) . . .
116(6) . . .
110(6) . . .
111(6) . . .
97(5) . . .
120(6) . . .
114(6) . . .
119(6) . . .
109(6) . . .
116(6) . . .
104(5) . . .
104(5) . . .
122(6) . . .
102(5) . . .
122(6) . . .
109(5) . . .
118(6) . . .
133(6) . . .
107(6) . . .
108(6) . . .
108(5) . . .
95(5) . . .
110(6) . . .
105(6) . . .
113(6) . . .
132(6) . . .
131(6) . . .
121(6) . . .
117(6) . . .
120(6) . . .
112(6) . . .
98(5) . . .
122(6) . . .
127(6) . . .
119(6) . . .
122(6) . . .
121(6) . . .
131(6) . . .
117(6) . . .
110(6) . . .
119(6) . . .
115(6) . . .
115(6) . . .
135(7) . . .
98(5) . . .
110(5) . . .
126(6) . . .
116(6) . . .
116(6) . . .
109(5) . . .
111(5) . . .
116(6) . . .
116(6) . . .
123(6) . . .
114(6) . . .
109(5) . . .
116(6) . . .
111(6) . . .
110(6) . . .
111(5) . . .
127(6) . . .
116(6) . . .
105(6) . . .
106(5) . . .
108(5) . . .
110(5) . . .
128(6) . . .
101(6) . . .
114(6) . . .
121(6) . . .
121(6) . . .
117(6) . . .
105(6) . . .
109(6) . . .
115(6) . . .
109(5) . . .
111(6) . . .
111(6) . . .
110(6) . . .
110(5) . . .
105(6) . . .
106(6) . . .
119(6) . . .
121(6) . . .
117(6) . . .
120(6) . . .
117(6) . . .
106(5) . . .
127(6) . . .
131(6) . . .
117(6) . . .
117(6) . . .
127(6) . . .
133(6) . . .
118(6) . . .
109(6) . . .
106(6) . . .
102(5) . . .
121(6) . . .
117(6) . . .
113(6) . . .
104(5) . . .
112(6) . . .
117(6) . . .
123(6) . . .
106(5) . . .
115(6) . . .
106(6) . . .
113(6) . . .
109(5) . . .
110(6) . . .
111(6) . . .
110(6) . . .
119(6) . . .
111(5) . . .
113(6) . . .
110(6) . . .
106(6) . . .
116(6) . . .
114(6) . . .
111(6) . . .
108(6) . . .
115(6) . . .
113(5) . . .
116(6) . . .
112(6) . . .
119(6) . . .
107(6) . . .
114(6) . . .
104(5) . . .
107(6) . . .
104(5) . . .
115(6) . . .
115(6) . . .
103(6) . . .
114(6) . . .
112(6) . . .
106(5) . . .
106(5) . . .
103(5) . . .
104(5) . . .
114(6) . . .
129(6) . . .
108(5) . . .
115(6) . . .
117(6) . . .
117(6) . . .
122(6) . . .
106(5) . . .
133(6) . . .
125(6) . . .
118(6) . . .
120(6) . . .
129(6) . . .
119(6) . . .
109(6) . . .
108(6) . . .
109(5) . . .
114(6) . . .
122(6) . . .
105(6) . . .
106(6) . . .
106(5) . . .
132(6) . . .
116(6) . . .
126(6) . . .
120(6) . . .
114(6) . . .
128(6) . . .
111(6) . . .
119(6) . . .
118(6) . . .
114(6) . . .
116(6) . . .
110(5) . . .
123(6) . . .
116(6) . . .
110(5) . . .
115(6) . . .
106(5) . . .
115(6) . . .
117(6) . . .
111(5) . . .
112(6) . . .
125(6) . . .
121(6) . . .
108(5) . . .
114(6) . . .
110(6) . . .
111(6) . . .
124(6) . . .
120(6) . . .
108(5) . . .
105(5) . . .
106(6) . . .
115(6) . . .
107(5) . . .
94(5) . . .
131(6) . . .
115(6) . . .
113(6) . . .
96(5) . . .
106(5) . . .
122(6) . . .
119(6) . . .
117(6) . . .
98(5) . . .
111(5) . . .
118(6) . . .
113(6) . . .
119(6) . . .
126(6) . . .
121(6) . . .
121(6) . . .
118(6) . . .
95(5) . . .
106(5) . . .
110(5) . . .
120(6) . . .
107(6) . . .
103(6) . . .
107(5) . . .
122(6) . . .
124(6) . . .
103(6) . . .
99(5) . . .
109(5) . . .
126(6) . . .
125(6) . . .
110(6) . . .
109(6) . . .
113(6) . . .
107(6) . . .
112(6) . . .
115(6) . . .
115(6) . . .
107(5) . . .
116(6) . . .
104(5) . . .
109(6) . . .
114(6) . . .
104(5) . . .
116(6) . . .
110(6) . . .
110(6) . . .
107(5) . . .
115(6) . . .
117(6) . . .
119(6) . . .
120(6) . . .
102(5) . . .
96(5) . . .
103(5) . . .
108(6) . . .
106(6) . . .
109(5) . . .
110(5) . . .
103(5) . . .
120(6) . . .
113(6) . . .
92(5) . . .
112(5) . . .
114(6) . . .
111(6) . . .
101(5) . . .
104(5) . . .
118(6) . . .
104(5) . . .
112(6) . . .
103(5) . . .
107(5) . . .
120(6) . . .
111(5) . . .
111(6) . . .
116(6) . . .
118(6) . . .
120(6) . . .
119(6) . . .
97(5) . . .
123(6) . . .
117(6) . . .
111(6) . . .
109(6) . . .
119(6) . . .
114(6) . . .
101(5) . . .
126(6) . . .
112(6) . . .
102(5) . . .
111(5) . . .
111(5) . . .
108(6) . . .
109(6) . . .
121(6) . . .
116(6) . . .
112(6) . . .
113(6) . . .
119(6) . . .
108(5) . . .
104(5) . . .
106(5) . . .
107(6) . . .
115(6) . . .
121(6) . . .
108(5) . . .
122(6) . . .
136(6) . . .
108(6) . . .
83(5) . . .
109(5) . . .
109(5) . . .
108(6) . . .
112(6) . . .
107(5) . . .
109(5) . . .
114(6) . . .
118(6) . . .
95(5) . . .
121(6) . . .
108(5) . . .
111(6) . . .
115(6) . . .
98(5) . . .
109(6) . . .
113(6) . . .
107(5) . . .
114(6) . . .
113(6) . . .
112(6) . . .
109(5) . . .
98(5) . . .
104(6) . . .
91(5) . . .
125(6) . . .
115(6) . . .
122(6) . . .
103(5) . . .
121(6) . . .
112(6) . . .
96(5) . . .
113(6) . . .
117(6) . . .
108(6) . . .
109(6) . . .
124(6) . . .
120(6) . . .
95(5) . . .
105(6) . . .
107(5) . . .
117(6) . . .
121(6) . . .
123(6) . . .
125(6) . . .
119(6) . . .
117(6) . . .
101(5) . . .
100(5) . . .
118(6) . . .
108(5) . . .
117(6) . . .
113(6) . . .
129(6) . . .
112(6) . . .
114(6) . . .
113(6) . . .
130(6) . . .
110(6) . . .
109(6) . . .
106(5) . . .
128(6) . . .
122(6) . . .
113(6) . . .
121(6) . . .
123(6) . . .
98(5) . . .
107(6) . . .
96(5) . . .
120(6) . . .
117(6) . . .
106(5) . . .
125(6) . . .
131(6) . . .
124(6) . . .
117(6) . . .
114(6) . . .
113(6) . . .
106(6) . . .
112(6) . . .
107(5) . . .
101(5) . . .
110(6) . . .
122(6) . . .
115(6) . . .
95(5) . . .
110(6) . . .
117(6) . . .
107(6) . . .
100(5) . . .
119(6) . . .
116(6) . . .
121(6) . . .
103(5) . . .
110(5) . . .
94(5) . . .
94(5) . . .
122(6) . . .
118(6) . . .
109(5) . . .
112(6) . . .
112(6) . . .
114(6) . . .
116(6) . . .
110(5) . . .
110(6) . . .
112(6) . . .
109(6) . . .
107(6) . . .
123(6) . . .
117(6) . . .
119(6) . . .
112(6) . . .
115(6) . . .
103(5) . . .
116(6) . . .
112(6) . . .
100(5) . . .
122(6) . . .
106(5) . . .
97(5) . . .
102(6) . . .
110(6) . . .
110(6) . . .
108(5) . . .
117(6) . . .
99(5) . . .
110(6) . . .
103(5) . . .
108(5) . . .
113(6) . . .
124(6) . . .
114(6) . . .
114(6) . . .
113(5) . . .
106(6) . . .
113(6) . . .
104(5) . . .
103(5) . . .
106(5) . . .
106(6) . . .
116(6) . . .
112(6) . . .
118(6) . . .
110(5) . . .
120(6) . . .
119(6) . . .
111(6) . . .
100(5) . . .
110(5) . . .
115(6) . . .
116(6) . . .
105(5) . . .
111(5) . . .
117(6) . . .
106(5) . . .
114(6) . . .
111(6) . . .
93(5) . . .
108(5) . . .
95(5) . . .
105(6) . . .
108(5) . . .
118(6) . . .
112(6) . . .
112(6) . . .
118(6) . . .
99(5) . . .
114(6) . . .
117(6) . . .
120(6) . . .
112(6) . . .
122(6) . . .
110(5) . . .
116(6) . . .
113(6) . . .
121(6) . . .
108(5) . . .
107(5) . . .
105(6) . . .
111(6) . . .
124(6) . . .
113(6) . . .
105(5) . . .
107(5) . . .
106(5) . . .
102(5) . . .
112(6) . . .
111(5) . . .
118(6) . . .
118(6) . . .
102(5) . . .
116(6) . . .
113(6) . . .
98(5) . . .
102(6) . . .
122(6) . . .
109(5) . . .
115(6) . . .
108(6) . . .
125(6) . . .
115(6) . . .
110(5) . . .
111(6) . . .
105(5) . . .
112(6) . . .
106(5) . . .
116(6) . . .
116(6) . . .
129(6) . . .
105(6) . . .
111(6) . . .
115(6) . . .
111(6) . . .
107(6) . . .
96(5) . . .
121(6) . . .
110(5) . . .
113(5) . . .
115(6) . . .
112(6) . . .
116(6) . . .
102(5) . . .
104(5) . . .
115(6) . . .
104(5) . . .
104(5) . . .
97(5) . . .
101(6) . . .
100(5) . . .
110(6) . . .
122(6) . . .
102(5) . . .
94(5) . . .
119(6) . . .
109(6) . . .
118(6) . . .
112(5) . . .
114(6) . . .
103(6) . . .
115(6) . . .
118(6) . . .
106(5) . . .
114(6) . . .
91(5) . . .
99(5) . . .
100(5) . . .
108(5) . . .
119(6) . . .
107(6) . . .
114(6) . . .
106(5) . . .
99(5) . . .
109(6) . . .
113(6) . . .
112(6) . . .
102(5) . . .
118(6) . . .
103(5) . . .
106(6) . . .
102(5) . . .
105(5) . . .
113(6) . . .
127(6) . . .
109(6) . . .
107(6) . . .
107(5) . . .
113(6) . . .
118(6) . . .
105(6) . . .
114(6) . . .
115(6) . . .
104(5) . . .
109(6) . . .
104(5) . . .
98(5) . . .
104(5) . . .
115(6) . . .
93(5) . . .
105(5) . . .
114(6) . . .
111(5) . . .
114(6) . . .
110(6) . . .
111(6) . . .
114(6) . . .
95(5) . . .
115(6) . . .
119(6) . . .
109(6) . . .
126(6) . . .
118(6) . . .
102(5) . . .
111(6) . . .
118(6) . . .
122(6) . . .
104(5) . . .
111(6) . . .
102(6) . . .
116(6) . . .
109(5) . . .
112(5) . . .
97(5) . . .
91(5) . . .
103(5) . . .
116(6) . . .
106(5) . . .
108(6) . . .
112(6) . . .
117(6) . . .
109(5) . . .
100(5) . . .
119(6) . . .
110(6) . . .
110(5) . . .
125(6) . . .
110(6) . . .
113(6) . . .
112(6) . . .
106(5) . . .
96(5) . . .
98(5) . . .
101(6) . . .
125(6) . . .
126(6) . . .
111(5) . . .
124(6) . . .
103(5) . . .
101(5) . . .
107(6) . . .
98(5) . . .
109(6) . . .
109(6) . . .
114(6) . . .
115(6) . . .
100(5) . . .
111(6) . . .
115(6) . . .
115(6) . . .
100(5) . . .
92(5) . . .
104(6) . . .
98(5) . . .
104(5) . . .
108(5) . . .
114(6) . . .
100(5) . . .
123(6) . . .
117(6) . . .
101(5) . . .
125(6) . . .
112(6) . . .
117(6) . . .
123(6) . . .
100(5) . . .
121(6) . . .
112(6) . . .
97(5) . . .
100(5) . . .
104(5) . . .
106(5) . . .
111(6) . . .
110(6) . . .
106(6) . . .
114(6) . . .
105(6) . . .
105(6) . . .
114(6) . . .
111(5) . . .
99(5) . . .
92(5) . . .
113(6) . . .
109(6) . . .
120(6) . . .
105(5) . . .
107(6) . . .
104(5) . . .
116(6) . . .
104(5) . . .
116(6) . . .
115(6) . . .
112(6) . . .
112(6) . . .
100(5) . . .
108(5) . . .
116(6) . . .
98(6) . . .
109(6) . . .
107(5) . . .
96(5) . . .
100(5) . . .
106(5) . . .
109(5) . . .
111(5) . . .
118(6) . . .
112(6) . . .
99(5) . . .
115(6) . . .
108(5) . . .
103(5) . . .
90(5) . . .
110(6) . . .
105(5) . . .
102(5) . . .
103(5) . . .
111(6) . . .
101(5) . . .
111(6) . . .
116(6) . . .
114(6) . . .
105(5) . . .
101(5) . . .
116(6) . . .
91(5) . . .
112(6) . . .
106(5) . . .
108(6) . . .
98(5) . . .
112(5) . . .
115(6) . . .
92(5) . . .
108(6) . . .
115(6) . . .
104(5) . . .
100(5) . . .
97(5) . . .
108(6) . . .
119(6) . . .
106(5) . . .
108(6) . . .
104(5) . . .
129(6) . . .
109(6) . . .
120(6) . . .
103(5) . . .
97(5) . . .
110(6) . . .
126(6) . . .
99(5) . . .
94(5) . . .
115(6) . . .
118(6) . . .
111(5) . . .
110(5) . . .
102(5) . . .
118(6) . . .
118(6) . . .
103(5) . . .
94(5) . . .
97(5) . . .
105(6) . . .
120(6) . . .
111(5) . . .
109(5) . . .
121(6) . . .
115(6) . . .
119(6) . . .
98(5) . . .
111(6) . . .
103(5) . . .
113(6) . . .
106(5) . . .
107(5) . . .
120(6) . . .
114(6) . . .
115(5) . . .
120(6) . . .
112(6) . . .
110(6) . . .
91(5) . . .
125(6) . . .
118(6) . . .
104(5) . . .
106(6) . . .
106(6) . . .
112(6) . . .
107(6) . . .
110(5) . . .
95(5) . . .
99(5) . . .
115(6) . . .
113(6) . . .
100(5) . . .
105(6) . . .
105(6) . . .
109(6) . . .
105(5) . . .
121(6) . . .
109(6) . . .
111(6) . . .
122(6) . . .
105(5) . . .
113(6) . . .
106(6) . . .
114(6) . . .
110(6) . . .
112(6) . . .
100(5) . . .
100(5) . . .
105(6) . . .
115(6) . . .
95(5) . . .
92(5) . . .
100(5) . . .
111(6) . . .
112(6) . . .
113(6) . . .
115(6) . . .
105(6) . . .
111(6) . . .
107(6) . . .
106(5) . . .
100(5) . . .
98(5) . . .
111(6) . . .
124(6) . . .
122(6) . . .
115(6) . . .
103(5) . . .
108(6) . . .
96(5) . . .
110(5) . . .
111(6) . . .
102(5) . . .
113(6) . . .
104(6) . . .
95(5) . . .
112(6) . . .
102(5) . . .
103(5) . . .
108(5) . . .
103(5) . . .
104(5) . . .
105(6) . . .
116(6) . . .
107(5) . . .
117(6) . . .
99(5) . . .
110(6) . . .
108(6) . . .
119(6) . . .
97(5) . . .
118(6) . . .
105(6) . . .
110(6) . . .
117(6) . . .
121(6) . . .
110(6) . . .
113(6) . . .
113(6) . . .
105(5) . . .
103(5) . . .
106(6) . . .
121(6) . . .
107(5) . . .
105(5) . . .
110(6) . . .
96(5) . . .
104(5) . . .
107(6) . . .
95(5) . . .
97(5) . . .
110(6) . . .
98(6) . . .
94(5) . . .
101(5) . . .
117(6) . . .
112(6) . . .
111(6) . . .
104(5) . . .
93(5) . . .
106(6) . . .
101(5) . . .
114(6) . . .
106(5) . . .
115(6) . . .
115(6) . . .
119(6) . . .
114(6) . . .
91(5) . . .
100(5) . . .
102(5) . . .
96(5) . . .
99(5) . . .
113(6) . . .
104(5) . . .
106(6) . . .
118(6) . . .
117(6) . . .
102(5) . . .
101(5) . . .
113(6) . . .
93(5) . . .
90(5) . . .
104(5) . . .
111(5) . . .
116(6) . . .
103(6) . . .
113(6) . . .
107(5) . . .
122(6) . . .
111(6) . . .
112(6) . . .
100(5) . . .
101(5) . . .
95(5) . . .
100(5) . . .
104(6) . . .
107(6) . . .
118(6) . . .
113(6) . . .
107(6) . . .
109(6) . . .
126(6) . . .
108(5) . . .
93(5) . . .
111(6) . . .
111(6) . . .
109(6) . . .
87(5) . . .
107(5) . . .
98(5) . . .
104(6) . . .
106(5) . . .
93(5) . . .
94(5) . . .
94(5) . . .
104(6) . . .
105(5) . . .
98(5) . . .
99(5) . . .
111(6) . . .
101(5) . . .
100(5) . . .
104(5) . . .
106(6) . . .
96(5) . . .
114(6) . . .
101(5) . . .
119(6) . . .
114(6) . . .
104(6) . . .
101(6) . . .
118(6) . . .
101(5) . . .
110(6) . . .
111(6) . . .
107(6) . . .
102(5) . . .
96(5) . . .
111(6) . . .
87(5) . . .
99(5) . . .
113(6) . . .
98(5) . . .
108(6) . . .
104(5) . . .
112(6) . . .
109(5) . . .
106(5) . . .
103(5) . . .
107(6) . . .
111(6) . . .
113(6) . . .
103(5) . . .
108(6) . . .
111(6) . . .
107(6) . . .
81(5) . . .
102(6) . . .
93(5) . . .
105(6) . . .
112(6) . . .
102(5) . . .
105(5) . . .
122(6) . . .
109(6) . . .
113(6) . . .
94(5) . . .
101(6) . . .
94(5) . . .
95(5) . . .
100(5) . . .
114(5) . . .
109(6) . . .
118(6) . . .
109(6) . . .
88(5) . . .
115(6) . . .
108(6) . . .
113(6) . . .
106(5) . . .
104(5) . . .
116(6) . . .
113(6) . . .
108(6) . . .
111(6) . . .
98(5) . . .
119(6) . . .
108(5) . . .
102(6) . . .
102(5) . . .
107(5) . . .
113(5) . . .
118(6) . . .
111(6) . . .
117(6) . . .
97(5) . . .
99(5) . . .
104(6) . . .
91(5) . . .
92(5) . . .
114(5) . . .
118(6) . . .
96(5) . . .
109(6) . . .
101(5) . . .
99(5) . . .
97(5) . . .
112(6) . . .
109(6) . . .
97(5) . . .
100(5) . . .
95(5) . . .
114(6) . . .
102(6) . . .
109(6) . . .
114(6) . . .
108(6) . . .
100(5) . . .
101(6) . . .
100(5) . . .
102(5) . . .
111(6) . . .
98(5) . . .
101(5) . . .
103(5) . . .
104(5) . . .
101(6) . . .
100(6) . . .
112(6) . . .
109(5) . . .
117(6) . . .
104(6) . . .
91(5) . . .
108(6) . . .
93(5) . . .
99(5) . . .
105(6) . . .
104(6) . . .
111(6) . . .
98(5) . . .
105(5) . . .
103(5) . . .
113(6) . . .
101(5) . . .
104(5) . . .
98(5) . . .
103(5) . . .
107(6) . . .
108(6) . . .
110(6) . . .
101(5) . . .
101(5) . . .
120(6) . . .
110(6) . . .
94(5) . . .
96(5) . . .
114(6) . . .
107(6) . . .
104(5) . . .
106(5) . . .
105(6) . . .
122(6) . . .
96(5) . . .
108(6) . . .
117(6) . . .
113(6) . . .
101(5) . . .
93(5) . . .
97(5) . . .
104(5) . . .
118(6) . . .
117(6) . . .
110(6) . . .
107(5) . . .
101(5) . . .
88(5) . . .
120(6) . . .
94(5) . . .
111(6) . . .
112(5) . . .
100(6) . . .
104(6) . . .
105(5) . . .
106(5) . . .
100(5) . . .
104(6) . . .
90(5) . . .
110(6) . . .
116(6) . . .
107(5) . . .
100(5) . . .
98(5) . . .
106(5) . . .
103(5) . . .
109(5) . . .
109(6) . . .
113(6) . . .
106(6) . . .
102(5) . . .
104(5) . . .
107(6) . . .
91(5) . . .
113(6) . . .
99(5) . . .
98(5) . . .
103(5) . . .
99(5) . . .
117(6) . . .
108(5) . . .
113(6) . . .
92(5) . . .
97(5) . . .
110(6) . . .
118(6) . . .
111(6) . . .
91(5) . . .
91(5) . . .
107(5) . . .
96(5) . . .
100(5) . . .
117(6) . . .
107(6) . . .
95(5) . . .
90(5) . . .
97(5) . . .
93(5) . . .
100(6) . . .
98(5) . . .
98(5) . . .
113(6) . . .
101(6) . . .
104(5) . . .
109(5) . . .
114(6) . . .
103(5) . . .
98(6) . . .
105(6) . . .
98(5) . . .
106(5) . . .
98(5) . . .
97(6) . . .
95(5) . . .
99(5) . . .
92(5) . . .
91(5) . . .
109(6) . . .
108(6) . . .
99(5) . . .
119(6) . . .
93(5) . . .
100(6) . . .
96(5) . . .
101(5) . . .
99(5) . . .
102(5) . . .
105(6) . . .
86(5) . . .
88(5) . . .
111(6) . . .
77(5) . . .
102(6) . . .
100(5) . . .
87(5) . . .
117(6) . . .
108(6) . . .
101(5) . . .
100(5) . . .
101(5) . . .
100(5) . . .
107(6) . . .
108(6) . . .
109(5) . . .
106(5) . . .
103(5) . . .
104(6) . . .
111(6) . . .
114(6) . . .
100(5) . . .
99(5) . . .
114(6) . . .
96(5) . . .
98(5) . . .
90(5) . . .
108(6) . . .
97(5) . . .
94(5) . . .
101(5) . . .
111(6) . . .
110(6) . . .
106(6) . . .
109(6) . . .
113(6) . . .
114(6) . . .
115(6) . . .
111(6) . . .
106(5) . . .
98(5) . . .
102(5) . . .
101(6) . . .
99(5) . . .
111(6) . . .
101(5) . . .
99(5) . . .
114(6) . . .
109(6) . . .
96(5) . . .
97(5) . . .
102(5) . . .
120(6) . . .
103(5) . . .
119(6) . . .
110(5) . . .
101(5) . . .
112(6) . . .
101(5) . . .
110(5) . . .
107(5) . . .
93(5) . . .
98(5) . . .
95(5) . . .
105(5) . . .
95(5) . . .
94(5) . . .
109(6) . . .
93(5) . . .
94(5) . . .
102(5) . . .
91(5) . . .
100(6) . . .
104(6) . . .
101(5) . . .
105(5) . . .
104(6) . . .
97(5) . . .
100(5) . . .
103(5) . . .
110(5) . . .
98(5) . . .
99(6) . . .
106(6) . . .
107(5) . . .
102(5) . . .
104(5) . . .
102(6) . . .
110(6) . . .
99(5) . . .
97(5) . . .
106(5) . . .
109(6) . . .
114(6) . . .
106(5) . . .
110(6) . . .
111(6) . . .
107(6) . . .
107(6) . . .
119(6) . . .
101(5) . . .
102(6) . . .
118(6) . . .
97(5) . . .
110(5) . . .
86(5) . . .
106(6) . . .
110(6) . . .
101(5) . . .
117(6) . . .
98(5) . . .
102(6) . . .
102(5) . . .
98(5) . . .
99(5) . . .
109(6) . . .
108(6) . . .
106(5) . . .
99(5) . . .
93(5) . . .
93(5) . . .
96(5) . . .
104(5) . . .
107(5) . . .
115(6) . . .
104(6) . . .
98(5) . . .
98(5) . . .
98(5) . . .
99(5) . . .
97(5) . . .
99(5) . . .
119(6) . . .
131(6) . . .
112(5) . . .
113(6) . . .
125(6) . . .
101(5) . . .
111(6) . . .
101(5) . . .
106(5) . . .
100(5) . . .
94(5) . . .
112(6) . . .
109(5) . . .
93(5) . . .
95(5) . . .
104(6) . . .
106(5) . . .
102(5) . . .
115(6) . . .
98(5) . . .
98(5) . . .
108(5) . . .
101(5) . . .
106(6) . . .
106(6) . . .
115(6) . . .
93(5) . . .
102(5) . . .
105(5) . . .
118(6) . . .
96(5) . . .
94(5) . . .
91(5) . . .
97(5) . . .
109(6) . . .
100(5) . . .
110(5) . . .
102(5) . . .
98(5) . . .
110(6) . . .
101(5) . . .
113(6) . . .
115(6) . . .
126(6) . . .
108(5) . . .
117(6) . . .
99(5) . . .
97(5) . . .
94(5) . . .
98(5) . . .
97(5) . . .
127(6) . . .
112(6) . . .
97(6) . . .
117(6) . . .
103(5) . . .
84(5) . . .
98(5) . . .
109(6) . . .
96(5) . . .
96(5) . . .
96(5) . . .
99(5) . . .
88(5) . . .
89(5) . . .
111(5) . . .
94(5) . . .
101(5) . . .
107(6) . . .
92(5) . . .
104(5) . . .
111(6) . . .
113(6) . . .
104(6) . . .
108(6) . . .
95(5) . . .
93(5) . . .
97(5) . . .
104(5) . . .
93(5) . . .
96(5) . . .
98(5) . . .
111(6) . . .
106(6) . . .
103(5) . . .
85(5) . . .
105(5) . . .
110(6) . . .
89(5) . . .
106(5) . . .
112(5) . . .
98(5) . . .
102(6) . . .
102(5) . . .
106(5) . . .
84(5) . . .
90(5) . . .
95(5) . . .
98(5) . . .
90(5) . . .
95(5) . . .
104(6) . . .
99(6) . . .
100(5) . . .
111(5) . . .
96(5) . . .
97(5) . . .
95(6) . . .
91(5) . . .
87(5) . . .
96(5) . . .
102(5) . . .
110(6) . . .
112(6) . . .
94(5) . . .
104(5) . . .
107(5) . . .
94(5) . . .
104(6) . . .
88(5) . . .
92(5) . . .
101(6) . . .
100(6) . . .
95(5) . . .
99(5) . . .
97(5) . . .
95(5) . . .
86(5) . . .
95(5) . . .
99(5) . . .
100(6) . . .
101(5) . . .
111(6) . . .
101(5) . . .
93(5) . . .
103(5) . . .
89(5) . . .
80(5) . . .
101(5) . . .
103(5) . . .
98(5) . . .
100(5) . . .
110(6) . . .
103(5) . . .
111(6) . . .
100(5) . . .
95(6) . . .
100(5) . . .
91(5) . . .
96(5) . . .
93(5) . . .
94(6) . . .
87(5) . . .
91(5) . . .
105(5) . . .
108(6) . . .
96(5) . . .
99(5) . . .
106(5) . . .
107(5) . . .
94(5) . . .
94(5) . . .
96(5) . . .
88(5) . . .
95(5) . . .
95(5) . . .
99(6) . . .
104(6) . . .
98(5) . . .
109(6) . . .
96(5) . . .
105(6) . . .
97(6) . . .
108(5) . . .
85(5) . . .
86(5) . . .
104(5) . . .
103(5) . . .
93(5) . . .
105(5) . . .
101(5) . . .
95(5) . . .
104(6) . . .
95(5) . . .
96(5) . . .
88(5) . . .
104(6) . . .
91(5) . . .
108(5) . . .
93(5) . . .
97(6) . . .
91(5) . . .
105(5) . . .
104(5) . . .
102(5) . . .
93(5) . . .
85(5) . . .
104(5) . . .
105(5) . . .
85(5) . . .
102(6) . . .
92(5) . . .
113(6) . . .
89(5) . . .
101(5) . . .
108(6) . . .
97(5) . . .
96(5) . . .
108(5) . . .
109(6) . . .
96(6) . . .
108(5) . . .
93(5) . . .
91(5) . . .
106(5) . . .
101(6) . . .
98(5) . . .
96(5) . . .
92(5) . . .
86(5) . . .
98(6) . . .
105(6) . . .
100(5) . . .
108(6) . . .
111(6) . . .
86(5) . . .
103(5) . . .
91(5) . . .
100(5) . . .
95(5) . . .
104(5) . . .
108(6) . . .
104(5) . . .
99(5) . . .
109(6) . . .
107(6) . . .
92(5) . . .
103(5) . . .
95(5) . . .
107(6) . . .
99(5) . . .
88(5) . . .
100(5) . . .
100(5) . . .
104(6) . . .
105(6) . . .
94(5) . . .
97(5) . . .
104(5) . . .
95(5) . . .
110(6) . . .
103(5) . . .
93(5) . . .
101(5) . . .
88(5) . . .
100(5) . . .
106(5) . . .
95(5) . . .
93(5) . . .
92(5) . . .
97(5) . . .
103(5) . . .
97(5) . . .
111(6) . . .
110(6) . . .
93(5) . . .
97(5) . . .
104(5) . . .
92(5) . . .
83(5) . . .
85(5) . . .
97(5) . . .
96(5) . . .
92(5) . . .
97(5) . . .
98(5) . . .
85(5) . . .
95(5) . . .
85(5) . . .
88(5) . . .
103(5) . . .
107(5) . . .
109(6) . . .
104(5) . . .
108(6) . . .
101(5) . . .
104(5) . . .
92(5) . . .
102(6) . . .
105(6) . . .
100(5) . . .
104(5) . . .
103(6) . . .
95(5) . . .
91(5) . . .
98(5) . . .
98(5) . . .
94(5) . . .
105(6) . . .
107(5) . . .
100(5) . . .
98(5) . . .
103(5) . . .
94(5) . . .
92(5) . . .
108(5) . . .
89(5) . . .
100(5) . . .
99(5) . . .
101(5) . . .
106(5) . . .
106(5) . . .
92(5) . . .
86(5) . . .
97(5) . . .
110(5) . . .
114(6) . . .
99(5) . . .
87(5) . . .
101(5) . . .
99(5) . . .
100(5) . . .
101(5) . . .
87(5) . . .
99(5) . . .
109(5) . . .
100(6) . . .
106(6) . . .
101(5) . . .
97(5) . . .
99(5) . . .
98(5) . . .
97(5) . . .
91(5) . . .
101(5) . . .
99(5) . . .
97(5) . . .
96(6) . . .
98(5) . . .
113(6) . . .
99(5) . . .
92(5) . . .
112(6) . . .
90(5) . . .
90(5) . . .
85(5) . . .
92(5) . . .
100(6) . . .
107(6) . . .
99(5) . . .
115(6) . . .
97(5) . . .
104(6) . . .
104(6) . . .
90(5) . . .
94(5) . . .
95(5) . . .
105(6) . . .
95(5) . . .
87(5) . . .
98(5) . . .
105(6) . . .
86(5) . . .
94(5) . . .
91(5) . . .
82(5) . . .
102(5) . . .
95(5) . . .
96(5) . . .
104(5) . . .
110(6) . . .
105(6) . . .
100(5) . . .
101(6) . . .
98(5) . . .
91(5) . . .
102(6) . . .
91(5) . . .
101(5) . . .
90(5) . . .
104(5) . . .
101(5) . . .
91(5) . . .
101(5) . . .
101(5) . . .
108(6) . . .
98(5) . . .
85(5) . . .
106(5) . . .
98(5) . . .
92(5) . . .
94(5) . . .
89(5) . . .
96(5) . . .
112(6) . . .
103(5) . . .
101(6) . . .
96(5) . . .
104(5) . . .
93(5) . . .
95(5) . . .
101(6) . . .
85(5) . . .
96(5) . . .
111(5) . . .
103(6) . . .
98(5) . . .
101(5) . . .
89(5) . . .
99(5) . . .
93(5) . . .
96(5) . . .
93(5) . . .
94(5) . . .
104(5) . . .
101(6) . . .
104(6) . . .
96(5) . . .
101(5) . . .
89(5) . . .
97(5) . . .
97(5) . . .
98(5) . . .
101(5) . . .
97(5) . . .
97(5) . . .
105(6) . . .
101(5) . . .
106(5) . . .
94(5) . . .
101(5) . . .
99(5) . . .
97(5) . . .
92(5) . . .
116(6) . . .
111(6) . . .
96(5) . . .
95(5) . . .
95(5) . . .
91(5) . . .
100(5) . . .
107(5) . . .
100(5) . . .
92(5) . . .
93(5) . . .
98(5) . . .
93(5) . . .
118(6) . . .
99(5) . . .
102(6) . . .
105(6) . . .
103(5) . . .
95(5) . . .
103(5) . . .
78(5) . . .
86(5) . . .
92(5) . . .
104(5) . . .
101(5) . . .
104(5) . . .
97(5) . . .
82(5) . . .
103(5) . . .
97(5) . . .
103(6) . . .
91(5) . . .
77(5) . . .
82(5) . . .
92(5) . . .
96(5) . . .
84(5) . . .
95(5) . . .
97(5) . . .
104(5) . . .
88(5) . . .
99(5) . . .
94(5) . . .
103(5) . . .
91(5) . . .
96(5) . . .
94(5) . . .
107(6) . . .
105(5) . . .
90(5) . . .
98(5) . . .
91(5) . . .
83(5) . . .
98(5) . . .
101(6) . . .
103(5) . . .
104(5) . . .
97(5) . . .
92(5) . . .
93(5) . . .
105(6) . . .
97(5) . . .
91(5) . . .
96(5) . . .
87(5) . . .
91(5) . . .
104(5) . . .
100(5) . . .
86(5) . . .
83(5) . . .
101(6) . . .
93(5) . . .
108(5) . . .
104(5) . . .
109(6) . . .
105(6) . . .
88(5) . . .
99(5) . . .
79(5) . . .
95(6) . . .
100(5) . . .
91(5) . . .
95(5) . . .
105(5) . . .
96(5) . . .
90(5) . . .
86(5) . . .
91(5) . . .
97(5) . . .
95(5) . . .
90(5) . . .
95(6) . . .
106(5) . . .
91(5) . . .
97(5) . . .
91(5) . . .
90(5) . . .
95(5) . . .
97(5) . . .
97(5) . . .
106(6) . . .
100(5) . . .
95(5) . . .
77(5) . . .
83(5) . . .
94(5) . . .
104(5) . . .
99(5) . . .
90(5) . . .
106(6) . . .
100(5) . . .
91(5) . . .
97(5) . . .
76(5) . . .
104(5) . . .
101(5) . . .
93(5) . . .
110(5) . . .
96(5) . . .
110(6) . . .
86(5) . . .
100(5) . . .
85(5) . . .
75(5) . . .
80(5) . . .
91(5) . . .
98(5) . . .
104(5) . . .
100(5) . . .
91(5) . . .
96(5) . . .
91(5) . . .
100(5) . . .
103(5) . . .
80(5) . . .
82(5) . . .
93(5) . . .
92(5) . . .
98(5) . . .
98(5) . . .
99(5) . . .
107(5) . . .
95(5) . . .
99(5) . . .
89(5) . . .
108(6) . . .
98(5) . . .
100(5) . . .
87(5) . . .
93(5) . . .
101(5) . . .
93(5) . . .
96(5) . . .
96(5) . . .
81(5) . . .
96(5) . . .
98(5) . . .
86(5) . . .
90(5) . . .
87(5) . . .
97(5) . . .
102(5) . . .
92(5) . . .
92(5) . . .
93(5) . . .
97(5) . . .
95(5) . . .
102(6) . . .
87(5) . . .
86(5) . . .
101(5) . . .
82(5) . . .
90(5) . . .
95(6) . . .
95(5) . . .
94(5) . . .
104(5) . . .
96(5) . . .
92(5) . . .
99(5) . . .
89(5) . . .
98(5) . . .
95(5) . . .
98(5) . . .
95(5) . . .
103(5) . . .
98(5) . . .
89(5) . . .
96(5) . . .
96(5) . . .
95(5) . . .
111(6) . . .
99(5) . . .
97(5) . . .
115(6) . . .
103(5) . . .
81(5) . . .
90(5) . . .
112(6) . . .
101(5) . . .
116(6) . . .
108(6) . . .
92(5) . . .
100(5) . . .
91(5) . . .
96(5) . . .
116(6) . . .
102(5) . . .
96(5) . . .
116(6) . . .
92(5) . . .
100(5) . . .
94(5) . . .
91(5) . . .
90(5) . . .
98(5) . . .
100(5) . . .
102(5) . . .
113(6) . . .
104(5) . . .
103(5) . . .
101(5) . . .
100(5) . . .
103(5) . . .
106(5) . . .
93(5) . . .
101(5) . . .
92(5) . . .
97(6) . . .
90(5) . . .
85(5) . . .
100(6) . . .
86(5) . . .
86(5) . . .
102(5) . . .
96(5) . . .
94(5) . . .
104(5) . . .
98(5) . . .
95(5) . . .
102(5) . . .
115(6) . . .
104(6) . . .
106(6) . . .
98(5) . . .
97(5) . . .
97(5) . . .
96(5) . . .
94(5) . . .
102(5) . . .
118(6) . . .
96(5) . . .
97(6) . . .
96(5) . . .
88(5) . . .
83(5) . . .
88(5) . . .
95(5) . . .
93(5) . . .
97(5) . . .
92(5) . . .
76(5) . . .
78(5) . . .
105(5) . . .
99(5) . . .
103(6) . . .
93(5) . . .
101(5) . . .
89(5) . . .
86(5) . . .
87(5) . . .
82(5) . . .
92(5) . . .
100(5) . . .
88(5) . . .
107(6) . . .
96(5) . . .
91(5) . . .
91(5) . . .
90(5) . . .
93(5) . . .
89(5) . . .
101(6) . . .
99(5) . . .
83(5) . . .
88(5) . . .
79(5) . . .
93(5) . . .
81(5) . . .
86(5) . . .
81(5) . . .
93(5) . . .
109(6) . . .
91(5) . . .
88(5) . . .
93(5) . . .
89(5) . . .
85(5) . . .
91(5) . . .
95(5) . . .
99(5) . . .
97(5) . . .
83(5) . . .
103(5) . . .
97(5) . . .
93(5) . . .
94(5) . . .
98(5) . . .
92(5) . . .
104(5) . . .
92(5) . . .
100(5) . . .
93(5) . . .
82(5) . . .
98(5) . . .
99(6) . . .
92(5) . . .
95(5) . . .
95(5) . . .
94(5) . . .
99(5) . . .
95(5) . . .
85(5) . . .
97(5) . . .
95(5) . . .
86(5) . . .
96(5) . . .
98(5) . . .
94(5) . . .
103(5) . . .
95(5) . . .
88(5) . . .
93(5) . . .
102(5) . . .
95(5) . . .
92(5) . . .
98(5) . . .
90(5) . . .
89(5) . . .
88(5) . . .
98(5) . . .
89(5) . . .
88(5) . . .
91(5) . . .
97(5) . . .
88(5) . . .
94(5) . . .
103(5) . . .
83(5) . . .
90(5) . . .
84(5) . . .
93(5) . . .
94(5) . . .
107(6) . . .
110(6) . . .
97(5) . . .
92(5) . . .
107(5) . . .
89(5) . . .
95(5) . . .
87(5) . . .
88(5) . . .
101(5) . . .
83(5) . . .
80(5) . . .
99(6) . . .
90(5) . . .
95(5) . . .
86(5) . . .
93(5) . . .
97(5) . . .
91(5) . . .
96(5) . . .
94(5) . . .
103(5) . . .
97(5) . . .
96(5) . . .
89(5) . . .
96(5) . . .
89(5) . . .
96(5) . . .
84(5) . . .
91(5) . . .
93(5) . . .
85(5) . . .
91(5) . . .
96(5) . . .
93(5) . . .
88(5) . . .
100(6) . . .
95(5) . . .
98(5) . . .
87(5) . . .
89(5) . . .
72(4) . . .
92(5) . . .
101(5) . . .
98(5) . . .
96(5) . . .
90(5) . . .
78(5) . . .
91(5) . . .
93(5) . . .
90(5) . . .
101(5) . . .
96(5) . . .
93(5) . . .
105(6) . . .
98(5) . . .
99(5) . . .
91(5) . . .
89(5) . . .
77(5) . . .
83(5) . . .
89(5) . . .
85(5) . . .
99(5) . . .
94(5) . . .
97(6) . . .
102(5) . . .
104(5) . . .
100(5) . . .
101(6) . . .
85(5) . . .
90(5) . . .
91(5) . . .
92(5) . . .
87(5) . . .
87(5) . . .
90(5) . . .
97(5) . . .
84(5) . . .
105(5) . . .
86(5) . . .
90(5) . . .
95(5) . . .
88(5) . . .
94(5) . . .
93(5) . . .
83(5) . . .
79(5) . . .
99(5) . . .
93(5) . . .
88(5) . . .
92(5) . . .
88(5) . . .
92(5) . . .
95(5) . . .
99(5) . . .
128(6) . . .
101(5) . . .
94(5) . . .
98(5) . . .
89(5) . . .
85(5) . . .
86(5) . . .
90(5) . . .
94(5) . . .
98(5) . . .
100(5) . . .
87(5) . . .
87(5) . . .
101(6) . . .
94(5) . . .
81(5) . . .
73(4) . . .
96(5) . . .
95(5) . . .
97(5) . . .
104(5) . . .
98(5) . . .
85(5) . . .
83(5) . . .
95(5) . . .
87(5) . . .
93(5) . . .
87(5) . . .
98(6) . . .
84(5) . . .
90(5) . . .
98(5) . . .
89(5) . . .
96(6) . . .
90(5) . . .
81(5) . . .
97(5) . . .
83(5) . . .
94(5) . . .
100(5) . . .
90(5) . . .
104(5) . . .
89(5) . . .
85(5) . . .
93(5) . . .
89(5) . . .
90(5) . . .
96(5) . . .
99(5) . . .
82(5) . . .
90(5) . . .
95(5) . . .
106(6) . . .
92(5) . . .
88(5) . . .
89(5) . . .
102(5) . . .
89(5) . . .
86(5) . . .
87(5) . . .
89(5) . . .
85(5) . . .
94(5) . . .
99(5) . . .
93(5) . . .
79(5) . . .
89(5) . . .
96(6) . . .
98(5) . . .
88(5) . . .
85(5) . . .
99(5) . . .
92(5) . . .
90(5) . . .
89(5) . . .
93(5) . . .
90(5) . . .
90(5) . . .
90(5) . . .
91(5) . . .
92(5) . . .
103(5) . . .
95(5) . . .
92(5) . . .
93(5) . . .
97(5) . . .
99(5) . . .
100(6) . . .
90(5) . . .
72(4) . . .
93(5) . . .
102(5) . . .
96(5) . . .
87(5) . . .
94(5) . . .
100(5) . . .
94(5) . . .
84(5) . . .
87(5) . . .
103(5) . . .
97(5) . . .
84(5) . . .
90(5) . . .
88(5) . . .
89(5) . . .
81(5) . . .
85(5) . . .
95(5) . . .
85(5) . . .
90(5) . . .
92(5) . . .
94(5) . . .
87(5) . . .
91(5) . . .
96(5) . . .
91(5) . . .
94(6) . . .
95(5) . . .
103(5) . . .
80(5) . . .
88(5) . . .
86(5) . . .
95(5) . . .
89(5) . . .
78(5) . . .
110(6) . . .
98(6) . . .
92(5) . . .
79(5) . . .
90(5) . . .
88(5) . . .
93(5) . . .
99(5) . . .
92(5) . . .
93(5) . . .
85(5) . . .
92(5) . . .
96(5) . . .
89(5) . . .
86(5) . . .
80(5) . . .
70(5) . . .
88(5) . . .
93(5) . . .
100(5) . . .
99(5) . . .
86(5) . . .
93(5) . . .
91(5) . . .
99(5) . . .
88(5) . . .
97(5) . . .
84(5) . . .
93(5) . . .
96(5) . . .
83(5) . . .
93(5) . . .
88(5) . . .
96(5) . . .
90(5) . . .
99(5) . . .
86(5) . . .
80(5) . . .
82(5) . . .
86(5) . . .
85(5) . . .
89(5) . . .
90(5) . . .
102(5) . . .
100(5) . . .
76(5) . . .
95(5) . . .
88(5) . . .
86(5) . . .
90(5) . . .
91(5) . . .
104(6) . . .
81(5) . . .
82(5) . . .
80(5) . . .
90(5) . . .
91(5) . . .
86(5) . . .
94(5) . . .
97(5) . . .
82(5) . . .
90(5) . . .
85(5) . . .
94(5) . . .
84(5) . . .
83(5) . . .
100(5) . . .
74(4) . . .
81(5) . . .
81(5) . . .
88(5) . . .
92(5) . . .
90(5) . . .
91(5) . . .
85(5) . . .
99(5) . . .
101(5) . . .
96(5) . . .
84(5) . . .
79(5) . . .
75(5) . . .
82(5) . . .
71(4) . . .
87(5) . . .
91(5) . . .
94(5) . . .
90(5) . . .
86(5) . . .
90(5) . . .
102(6) . . .
91(5) . . .
97(5) . . .
76(5) . . .
90(5) . . .
98(6) . . .
77(5) . . .
93(5) . . .
79(5) . . .
103(5) . . .
85(5) . . .
82(5) . . .
96(5) . . .
87(5) . . .
103(5) . . .
87(5) . . .
99(5) . . .
83(5) . . .
90(5) . . .
90(5) . . .
86(5) . . .
86(5) . . .
90(5) . . .
97(5) . . .
91(5) . . .
98(6) . . .
90(5) . . .
82(5) . . .
77(5) . . .
92(5) . . .
90(5) . . .
83(5) . . .
75(4) . . .
91(5) . . .
93(5) . . .
91(5) . . .
89(5) . . .
97(5) . . .
98(5) . . .
94(5) . . .
106(6) . . .
83(5) . . .
87(5) . . .
83(5) . . .
88(5) . . .
86(5) . . .
89(5) . . .
90(5) . . .
93(5) . . .
93(5) . . .
85(5) . . .
98(5) . . .
86(5) . . .
83(5) . . .
101(6) . . .
87(5) . . .
80(5) . . .
103(5) . . .
84(5) . . .
97(6) . . .
90(5) . . .
93(5) . . .
91(5) . . .
89(5) . . .
80(5) . . .
84(5) . . .
89(5) . . .
80(5) . . .
88(5) . . .
112(6) . . .
91(5) . . .
98(5) . . .
83(5) . . .
85(5) . . .
85(5) . . .
92(5) . . .
93(5) . . .
75(4) . . .
92(5) . . .
84(5) . . .
97(5) . . .
89(5) . . .
94(5) . . .
87(5) . . .
80(5) . . .
81(5) . . .
71(4) . . .
92(5) . . .
94(5) . . .
95(5) . . .
92(5) . . .
95(5) . . .
80(5) . . .
89(5) . . .
87(5) . . .
91(5) . . .
80(5) . . .
83(5) . . .
89(5) . . .
75(5) . . .
81(5) . . .
94(5) . . .
84(5) . . .
91(5) . . .
83(5) . . .
84(5) . . .
91(5) . . .
87(5) . . .
82(5) . . .
89(5) . . .
101(5) . . .
88(5) . . .
92(5) . . .
88(5) . . .
100(5) . . .
82(5) . . .
91(5) . . .
85(5) . . .
90(5) . . .
92(5) . . .
93(5) . . .
93(5) . . .
83(5) . . .
78(5) . . .
101(5) . . .
97(5) . . .
90(5) . . .
96(5) . . .
80(5) . . .
103(5) . . .
94(5) . . .
87(5) . . .
88(5) . . .
88(5) . . .
86(5) . . .
72(4) . . .
85(5) . . .
82(5) . . .
87(5) . . .
82(5) . . .
104(5) . . .
102(6) . . .
91(5) . . .
92(5) . . .
87(5) . . .
91(5) . . .
83(5) . . .
97(5) . . .
85(5) . . .
98(5) . . .
90(5) . . .
102(5) . . .
91(5) . . .
88(5) . . .
94(5) . . .
86(5) . . .
83(5) . . .
92(5) . . .
97(5) . . .
92(5) . . .
79(5) . . .
86(5) . . .
82(5) . . .
93(5) . . .
88(5) . . .
98(5) . . .
98(5) . . .
84(5) . . .
90(5) . . .
91(5) . . .
83(5) . . .
94(5) . . .
85(5) . . .
96(5) . . .
89(5) . . .
95(5) . . .
91(5) . . .
92(5) . . .
79(5) . . .
89(5) . . .
86(5) . . .
83(5) . . .
83(5) . . .
101(5) . . .
91(5) . . .
82(5) . . .
78(5) . . .
99(6) . . .
98(5) . . .
101(5) . . .
96(5) . . .
78(5) . . .
81(5) . . .
77(5) . . .
91(5) . . .
87(5) . . .
95(5) . . .
90(5) . . .
90(5) . . .
94(5) . . .
85(5) . . .
95(5) . . .
98(5) . . .
92(5) . . .
89(5) . . .
113(6) . . .
103(6) . . .
85(5) . . .
98(5) . . .
84(5) . . .
81(5) . . .
94(6) . . .
88(5) . . .
96(5) . . .
94(5) . . .
88(5) . . .
82(5) . . .
83(5) . . .
92(5) . . .
83(5) . . .
88(5) . . .
76(5) . . .
88(5) . . .
86(5) . . .
88(5) . . .
92(5) . . .
91(5) . . .
94(5) . . .
104(5) . . .
82(5) . . .
89(5) . . .
83(5) . . .
93(5) . . .
87(5) . . .
83(5) . . .
92(5) . . .
98(5) . . .
84(5) . . .
99(5) . . .
102(6) . . .
94(5) . . .
89(5) . . .
81(5) . . .
74(5) . . .
83(5) . . .
93(5) . . .
74(4) . . .
85(5) . . .
91(5) . . .
83(5) . . .
97(5) . . .
93(5) . . .
95(5) . . .
82(5) . . .
80(5) . . .
73(5) . . .
80(5) . . .
79(5) . . .
86(5) . . .
86(5) . . .
75(5) . . .
87(5) . . .
93(5) . . .
87(5) . . .
86(5) . . .
81(5) . . .
89(5) . . .
73(5) . . .
77(5) . . .
92(5) . . .
85(5) . . .
78(5) . . .
82(5) . . .
94(5) . . .
99(5) . . .
91(5) . . .
81(5) . . .
87(5) . . .
86(5) . . .
85(5) . . .
95(5) . . .
88(5) . . .
95(5) . . .
98(5) . . .
79(5) . . .
94(5) . . .
91(5) . . .
90(5) . . .
97(5) . . .
82(5) . . .
91(5) . . .
87(5) . . .
88(5) . . .
93(5) . . .
81(5) . . .
91(5) . . .
84(5) . . .
85(5) . . .
85(5) . . .
80(5) . . .
90(5) . . .
97(5) . . .
94(5) . . .
99(5) . . .
93(5) . . .
82(5) . . .
78(5) . . .
95(5) . . .
93(5) . . .
87(5) . . .
88(5) . . .
93(5) . . .
80(5) . . .
84(5) . . .
93(6) . . .
93(5) . . .
91(5) . . .
85(5) . . .
88(5) . . .
90(5) . . .
77(5) . . .
79(5) . . .
89(5) . . .
94(5) . . .
90(5) . . .
76(5) . . .
89(5) . . .
100(5) . . .
84(5) . . .
76(5) . . .
79(5) . . .
91(5) . . .
90(5) . . .
95(5) . . .
91(5) . . .
100(5) . . .
86(5) . . .
85(5) . . .
80(5) . . .
87(5) . . .
80(5) . . .
81(5) . . .
86(5) . . .
87(5) . . .
86(5) . . .
93(5) . . .
84(5) . . .
84(5) . . .
81(5) . . .
84(5) . . .
85(5) . . .
89(5) . . .
89(5) . . .
81(5) . . .
92(5) . . .
83(5) . . .
92(5) . . .
83(5) . . .
95(5) . . .
84(5) . . .
100(5) . . .
88(5) . . .
86(5) . . .
89(5) . . .
96(5) . . .
89(5) . . .
84(5) . . .
84(5) . . .
85(5) . . .
88(5) . . .
110(5) . . .
84(5) . . .
84(5) . . .
96(5) . . .
93(5) . . .
97(5) . . .
86(5) . . .
99(5) . . .
79(5) . . .
82(5) . . .
82(5) . . .
80(5) . . .
79(5) . . .
86(5) . . .
83(5) . . .
87(5) . . .
88(5) . . .
88(5) . . .
84(5) . . .
84(5) . . .
91(5) . . .
87(5) . . .
101(5) . . .
94(5) . . .
83(5) . . .
89(5) . . .
84(5) . . .
105(6) . . .
72(5) . . .
72(5) . . .
77(5) . . .
78(5) . . .
80(5) . . .
79(5) . . .
96(5) . . .
93(5) . . .
102(5) . . .
79(5) . . .
102(6) . . .
96(5) . . .
94(5) . . .
106(6) . . .
98(6) . . .
91(5) . . .
94(5) . . .
90(5) . . .
77(5) . . .
95(6) . . .
80(5) . . .
84(5) . . .
75(4) . . .
82(5) . . .
90(5) . . .
88(5) . . .
88(5) . . .
92(5) . . .
77(5) . . .
78(5) . . .
75(5) . . .
87(5) . . .
87(5) . . .
98(5) . . .
105(6) . . .
83(5) . . .
95(5) . . .
95(5) . . .
88(5) . . .
89(5) . . .
94(5) . . .
92(5) . . .
87(5) . . .
91(5) . . .
83(5) . . .
91(5) . . .
79(5) . . .
75(5) . . .
83(5) . . .
88(5) . . .
90(5) . . .
84(5) . . .
91(5) . . .
93(5) . . .
98(5) . . .
83(5) . . .
92(5) . . .
84(5) . . .
86(5) . . .
83(5) . . .
83(5) . . .
81(5) . . .
63(4) . . .
83(5) . . .
90(5) . . .
93(5) . . .
91(5) . . .
87(5) . . .
95(5) . . .
84(5) . . .
86(5) . . .
76(5) . . .
90(5) . . .
79(5) . . .
94(5) . . .
99(5) . . .
93(5) . . .
101(5) . . .
84(5) . . .
74(5) . . .
84(5) . . .
85(5) . . .
85(5) . . .
94(5) . . .
80(5) . . .
96(5) . . .
89(5) . . .
92(5) . . .
72(4) . . .
92(5) . . .
79(5) . . .
86(5) . . .
77(5) . . .
101(5) . . .
89(5) . . .
86(5) . . .
84(5) . . .
84(5) . . .
88(5) . . .
99(5) . . .
90(5) . . .
79(5) . . .
78(5) . . .
84(5) . . .
89(5) . . .
72(5) . . .
90(5) . . .
83(5) . . .
89(5) . . .
85(5) . . .
76(4) . . .
87(5) . . .
92(5) . . .
96(5) . . .
75(4) . . .
89(5) . . .
91(5) . . .
83(5) . . .
81(5) . . .
82(5) . . .
81(5) . . .
74(5) . . .
79(5) . . .
87(5) . . .
81(5) . . .
82(5) . . .
93(5) . . .
84(5) . . .
87(5) . . .
84(5) . . .
91(5) . . .
89(5) . . .
85(5) . . .
81(5) . . .
87(5) . . .
92(5) . . .
82(5) . . .
78(5) . . .
78(5) . . .
79(5) . . .
95(5) . . .
76(5) . . .
84(5) . . .
80(5) . . .
80(5) . . .
81(5) . . .
97(6) . . .
92(5) . . .
89(5) . . .
92(5) . . .
87(5) . . .
81(5) . . .
94(5) . . .
80(5) . . .
81(5) . . .
81(5) . . .
77(5) . . .
72(5) . . .
89(5) . . .
79(5) . . .
74(5) . . .
61(4) . . .
79(5) . . .
81(5) . . .
87(5) . . .
82(5) . . .
77(5) . . .
88(5) . . .
90(5) . . .
79(5) . . .
82(5) . . .
84(5) . . .
81(5) . . .
85(5) . . .
69(4) . . .
80(5) . . .
80(5) . . .
88(5) . . .
99(5) . . .
92(5) . . .
80(5) . . .
85(5) . . .
99(5) . . .
70(4) . . .
76(4) . . .
81(5) . . .
91(5) . . .
81(5) . . .
81(5) . . .
71(4) . . .
87(5) . . .
85(5) . . .
87(5) . . .
91(5) . . .
73(4) . . .
87(5) . . .
78(5) . . .
100(5) . . .
83(5) . . .
88(5) . . .
75(5) . . .
79(5) . . .
81(5) . . .
80(5) . . .
85(5) . . .
91(5) . . .
84(5) . . .
81(5) . . .
85(5) . . .
97(5) . . .
85(5) . . .
75(5) . . .
87(5) . . .
84(5) . . .
75(5) . . .
82(5) . . .
82(5) . . .
82(5) . . .
96(5) . . .
84(5) . . .
82(5) . . .
84(5) . . .
85(5) . . .
79(5) . . .
96(5) . . .
83(5) . . .
87(5) . . .
91(5) . . .
81(5) . . .
89(5) . . .
75(5) . . .
82(5) . . .
79(5) . . .
79(5) . . .
85(5) . . .
88(5) . . .
79(5) . . .
82(5) . . .
93(5) . . .
83(5) . . .
84(5) . . .
83(5) . . .
79(5) . . .
81(5) . . .
84(5) . . .
89(5) . . .
72(4) . . .
87(5) . . .
67(4) . . .
78(5) . . .
86(5) . . .
76(5) . . .
81(5) . . .
93(5) . . .
88(5) . . .
85(5) . . .
96(5) . . .
80(5) . . .
69(5) . . .
81(5) . . .
71(5) . . .
71(4) . . .
76(5) . . .
84(5) . . .
95(6) . . .
82(5) . . .
85(5) . . .
72(4) . . .
74(5) . . .
80(5) . . .
80(5) . . .
80(5) . . .
81(5) . . .
78(5) . . .
80(5) . . .
80(5) . . .
82(5) . . .
81(5) . . .
89(5) . . .
80(5) . . .
75(5) . . .
84(5) . . .
84(5) . . .
89(5) . . .
85(5) . . .
93(5) . . .
92(5) . . .
76(5) . . .
91(5) . . .
92(5) . . .
87(5) . . .
83(5) . . .
78(5) . . .
82(5) . . .
73(4) . . .
79(5) . . .
74(4) . . .
87(5) . . .
79(5) . . .
85(5) . . .
78(5) . . .
78(5) . . .
85(5) . . .
71(4) . . .
74(5) . . .
74(4) . . .
87(5) . . .
85(5) . . .
81(5) . . .
68(4) . . .
88(5) . . .
78(5) . . .
76(5) . . .
88(5) . . .
84(5) . . .
82(5) . . .
84(5) . . .
84(5) . . .
92(5) . . .
77(5) . . .
79(5) . . .
78(5) . . .
83(5) . . .
96(5) . . .
90(5) . . .
90(5) . . .
88(5) . . .
82(5) . . .
68(5) . . .
88(5) . . .
83(5) . . .
79(5) . . .
70(4) . . .
85(5) . . .
82(5) . . .
85(5) . . .
88(5) . . .
94(5) . . .
92(5) . . .
96(5) . . .
83(5) . . .
79(5) . . .
96(5) . . .
86(5) . . .
85(5) . . .
80(5) . . .
80(5) . . .
74(5) . . .
73(5) . . .
77(5) . . .
92(5) . . .
77(5) . . .
87(5) . . .
90(5) . . .
84(5) . . .
79(5) . . .
86(5) . . .
87(5) . . .
79(5) . . .
86(5) . . .
86(5) . . .
85(5) . . .
88(5) . . .
84(5) . . .
93(5) . . .
80(5) . . .
90(5) . . .
87(5) . . .
84(5) . . .
68(4) . . .
77(5) . . .
90(5) . . .
88(5) . . .
86(5) . . .
98(5) . . .
70(4) . . .
88(5) . . .
83(5) . . .
77(5) . . .
78(5) . . .
71(5) . . .
80(5) . . .
93(6) . . .
80(5) . . .
87(5) . . .
80(5) . . .
79(5) . . .
86(5) . . .
81(5) . . .
71(4) . . .
83(5) . . .
79(5) . . .
79(5) . . .
83(5) . . .
90(5) . . .
81(5) . . .
78(5) . . .
77(5) . . .
90(5) . . .
83(5) . . .
92(5) . . .
83(5) . . .
84(5) . . .
88(5) . . .
78(5) . . .
100(5) . . .
91(5) . . .
81(5) . . .
86(5) . . .
76(5) . . .
85(5) . . .
76(5) . . .
80(5) . . .
81(5) . . .
81(5) . . .
86(5) . . .
85(5) . . .
75(5) . . .
93(5) . . .
92(5) . . .
82(5) . . .
89(5) . . .
72(5) . . .
73(4) . . .
81(5) . . .
104(6) . . .
89(5) . . .
96(5) . . .
83(5) . . .
70(4) . . .
72(5) . . .
86(5) . . .
83(5) . . .
76(5) . . .
82(5) . . .
81(5) . . .
82(5) . . .
85(5) . . .
90(5) . . .
71(4) . . .
87(5) . . .
85(5) . . .
74(4) . . .
85(5) . . .
77(5) . . .
93(6) . . .
76(5) . . .
79(5) . . .
85(5) . . .
83(5) . . .
82(5) . . .
79(5) . . .
73(4) . . .
80(5) . . .
84(5) . . .
91(5) . . .
91(5) . . .
67(4) . . .
82(5) . . .
88(5) . . .
71(5) . . .
78(5) . . .
76(5) . . .
85(5) . . .
62(4) . . .
69(5) . . .
91(5) . . .
84(5) . . .
89(5) . . .
98(5) . . .
86(5) . . .
81(5) . . .
90(5) . . .
79(5) . . .
84(5) . . .
94(5) . . .
76(5) . . .
83(5) . . .
83(5) . . .
87(5) . . .
95(6) . . .
83(5) . . .
81(5) . . .
81(5) . . .
85(5) . . .
79(5) . . .
84(5) . . .
78(5) . . .
96(5) . . .
92(5) . . .
90(5) . . .
80(5) . . .
83(5) . . .
80(5) . . .
84(5) . . .
80(5) . . .
77(5) . . .
84(5) . . .
85(5) . . .
87(5) . . .
86(5) . . .
91(5) . . .
74(4) . . .
72(4) . . .
80(5) . . .
74(5) . . .
84(5) . . .
78(5) . . .
86(5) . . .
81(5) . . .
75(5) . . .
86(5) . . .
88(5) . . .
83(5) . . .
79(5) . . .
80(5) . . .
82(5) . . .
73(4) . . .
74(5) . . .
76(5) . . .
77(5) . . .
76(5) . . .
81(5) . . .
72(5) . . .
78(5) . . .
87(5) . . .
101(5) . . .
90(5) . . .
81(5) . . .
79(5) . . .
73(5) . . .
84(5) . . .
82(5) . . .
83(5) . . .
94(5) . . .
81(5) . . .
77(5) . . .
90(5) . . .
78(5) . . .
85(5) . . .
84(5) . . .
77(4) . . .
82(5) . . .
78(5) . . .
81(5) . . .
80(5) . . .
76(4) . . .
71(4) . . .
64(4) . . .
55(4) . . .
73(5) . . .
87(5) . . .
75(5) . . .
87(5) . . .
92(5) . . .
83(5) . . .
82(5) . . .
72(5) . . .
79(5) . . .
79(5) . . .
82(5) . . .
78(5) . . .
83(5) . . .
88(5) . . .
85(5) . . .
84(5) . . .
83(5) . . .
79(5) . . .
82(5) . . .
79(5) . . .
77(5) . . .
67(4) . . .
83(5) . . .
82(5) . . .
85(5) . . .
83(5) . . .
98(5) . . .
77(5) . . .
87(5) . . .
90(5) . . .
78(5) . . .
76(5) . . .
98(5) . . .
84(5) . . .
72(4) . . .
79(5) . . .
77(5) . . .
78(5) . . .
88(5) . . .
77(5) . . .
94(5) . . .
75(5) . . .
74(5) . . .
71(5) . . .
74(5) . . .
67(4) . . .
82(5) . . .
85(5) . . .
83(5) . . .
82(5) . . .
85(5) . . .
94(5) . . .
74(5) . . .
74(5) . . .
72(5) . . .
78(5) . . .
96(5) . . .
87(5) . . .
82(5) . . .
77(5) . . .
80(5) . . .
95(5) . . .
85(5) . . .
78(5) . . .
86(5) . . .
72(4) . . .
74(5) . . .
68(5) . . .
87(5) . . .
77(5) . . .
87(5) . . .
88(5) . . .
87(5) . . .
85(5) . . .
74(4) . . .
76(5) . . .
80(5) . . .
73(5) . . .
76(5) . . .
84(5) . . .
82(5) . . .
86(5) . . .
82(5) . . .
78(5) . . .
71(4) . . .
83(5) . . .
69(4) . . .
75(5) . . .
83(5) . . .
79(5) . . .
93(5) . . .
73(4) . . .
80(5) . . .
76(5) . . .
69(4) . . .
74(5) . . .
72(4) . . .
78(5) . . .
73(4) . . .
73(4) . . .
80(5) . . .
85(5) . . .
74(5) . . .
74(4) . . .
81(5) . . .
90(5) . . .
75(5) . . .
89(5) . . .
85(5) . . .
76(5) . . .
72(5) . . .
78(5) . . .
72(4) . . .
69(4) . . .
80(5) . . .
82(5) . . .
77(5) . . .
80(5) . . .
80(5) . . .
79(5) . . .
86(5) . . .
74(5) . . .
92(5) . . .
73(4) . . .
85(5) . . .
79(5) . . .
74(5) . . .
77(5) . . .
81(5) . . .
84(5) . . .
76(5) . . .
84(5) . . .
85(5) . . .
79(5) . . .
83(5) . . .
80(5) . . .
71(4) . . .
77(5) . . .
91(5) . . .
87(5) . . .
86(5) . . .
81(5) . . .
81(5) . . .
72(4) . . .
83(5) . . .
85(5) . . .
83(5) . . .
77(5) . . .
77(5) . . .
75(5) . . .
77(5) . . .
68(4) . . .
75(4) . . .
87(5) . . .
88(5) . . .
85(5) . . .
84(5) . . .
76(5) . . .
87(5) . . .
87(5) . . .
72(5) . . .
77(5) . . .
70(4) . . .
75(4) . . .
85(5) . . .
70(5) . . .
72(5) . . .
78(5) . . .
89(5) . . .
77(5) . . .
76(5) . . .
77(5) . . .
82(5) . . .
76(5) . . .
79(5) . . .
78(5) . . .
79(5) . . .
83(5) . . .
78(5) . . .
78(5) . . .
98(6) . . .
78(5) . . .
83(5) . . .
76(5) . . .
66(4) . . .
72(5) . . .
87(5) . . .
78(5) . . .
67(4) . . .
70(5) . . .
81(5) . . .
80(5) . . .
79(5) . . .
79(5) . . .
79(5) . . .
86(5) . . .
91(5) . . .
87(5) . . .
75(5) . . .
80(5) . . .
78(5) . . .
91(5) . . .
68(4) . . .
85(5) . . .
76(5) . . .
72(5) . . .
84(5) . . .
88(5) . . .
72(5) . . .
83(5) . . .
82(5) . . .
78(5) . . .
71(4) . . .
79(5) . . .
85(5) . . .
95(5) . . .
71(4) . . .
82(5) . . .
87(5) . . .
77(5) . . .
80(5) . . .
72(4) . . .
64(4) . . .
72(4) . . .
72(5) . . .
80(5) . . .
78(5) . . .
81(5) . . .
70(4) . . .
71(5) . . .
75(5) . . .
84(5) . . .
87(5) . . .
94(5) . . .
83(5) . . .
80(5) . . .
81(5) . . .
68(4) . . .
82(5) . . .
75(5) . . .
76(5) . . .
61(4) . . .
72(4) . . .
91(5) . . .
75(5) . . .
89(5) . . .
84(5) . . .
87(5) . . .
78(5) . . .
72(4) . . .
78(5) . . .
76(5) . . .
67(4) . . .
87(5) . . .
78(5) . . .
73(5) . . .
85(5) . . .
77(5) . . .
73(5) . . .
81(5) . . .
71(4) . . .
59(4) . . .
76(5) . . .
74(5) . . .
74(5) . . .
88(5) . . .
72(4) . . .
81(5) . . .
82(5) . . .
83(5) . . .
92(5) . . .
76(5) . . .
66(5) . . .
78(5) . . .
81(5) . . .
76(4) . . .
77(5) . . .
81(5) . . .
89(5) . . .
87(5) . . .
74(4) . . .
77(5) . . .
78(5) . . .
81(5) . . .
78(5) . . .
72(4) . . .
77(5) . . .
74(5) . . .
83(5) . . .
86(5) . . .
78(5) . . .
79(5) . . .
69(4) . . .
84(5) . . .
84(5) . . .
83(5) . . .
82(5) . . .
78(5) . . .
85(5) . . .
90(5) . . .
73(5) . . .
87(5) . . .
68(4) . . .
74(5) . . .
81(5) . . .
77(5) . . .
71(5) . . .
79(5) . . .
86(5) . . .
82(5) . . .
75(5) . . .
77(5) . . .
77(5) . . .
79(5) . . .
78(5) . . .
64(4) . . .
83(5) . . .
76(5) . . .
75(5) . . .
70(4) . . .
78(5) . . .
86(5) . . .
84(5) . . .
75(5) . . .
83(5) . . .
73(4) . . .
81(5) . . .
81(5) . . .
79(5) . . .
80(5) . . .
82(5) . . .
83(5) . . .
72(5) . . .
75(5) . . .
83(5) . . .
78(5) . . .
79(5) . . .
83(5) . . .
69(5) . . .
73(4) . . .
69(4) . . .
66(4) . . .
75(5) . . .
71(5) . . .
69(4) . . .
69(4) . . .
76(5) . . .
81(5) . . .
71(4) . . .
62(4) . . .
77(5) . . .
80(5) . . .
83(5) . . .
86(5) . . .
77(5) . . .
85(5) . . .
71(5) . . .
78(5) . . .
75(4) . . .
71(4) . . .
80(5) . . .
77(5) . . .
82(5) . . .
76(5) . . .
75(5) . . .
76(5) . . .
74(5) . . .
77(5) . . .
72(5) . . .
73(4) . . .
67(4) . . .
66(4) . . .
77(5) . . .
75(5) . . .
85(5) . . .
84(5) . . .
81(5) . . .
77(5) . . .
72(4) . . .
78(5) . . .
78(5) . . .
64(4) . . .
77(5) . . .
79(5) . . .
73(5) . . .
78(5) . . .
65(4) . . .
74(5) . . .
73(4) . . .
66(4) . . .
90(5) . . .
81(5) . . .
65(5) . . .
73(4) . . .
80(5) . . .
86(5) . . .
91(5) . . .
99(5) . . .
72(4) . . .
73(5) . . .
78(5) . . .
75(5) . . .
71(4) . . .
64(4) . . .
75(5) . . .
77(5) . . .
59(4) . . .
74(4) . . .
68(4) . . .
75(5) . . .
61(4) . . .
80(5) . . .
82(5) . . .
76(5) . . .
85(5) . . .
82(5) . . .
75(5) . . .
70(4) . . .
77(5) . . .
79(5) . . .
92(5) . . .
77(5) . . .
83(5) . . .
77(5) . . .
80(5) . . .
71(5) . . .
74(4) . . .
74(4) . . .
71(4) . . .
69(4) . . .
81(5) . . .
76(5) . . .
70(4) . . .
75(5) . . .
65(4) . . .
66(5) . . .
79(5) . . .
83(5) . . .
92(5) . . .
85(5) . . .
76(5) . . .
75(5) . . .
83(5) . . .
73(4) . . .
88(5) . . .
74(5) . . .
73(5) . . .
76(5) . . .
69(5) . . .
68(5) . . .
71(5) . . .
88(5) . . .
78(5) . . .
96(5) . . .
81(5) . . .
88(5) . . .
81(5) . . .
71(4) . . .
77(5) . . .
75(5) . . .
70(4) . . .
79(5) . . .
72(4) . . .
64(4) . . .
85(5) . . .
69(5) . . .
76(5) . . .
77(5) . . .
74(4) . . .
78(5) . . .
88(5) . . .
78(5) . . .
73(4) . . .
71(4) . . .
64(4) . . .
73(5) . . .
68(4) . . .
67(4) . . .
80(5) . . .
81(5) . . .
84(5) . . .
74(4) . . .
83(5) . . .
76(5) . . .
83(5) . . .
95(5) . . .
82(5) . . .
88(5) . . .
65(4) . . .
84(5) . . .
79(5) . . .
69(4) . . .
78(5) . . .
83(5) . . .
80(5) . . .
66(4) . . .
73(4) . . .
79(5) . . .
77(5) . . .
72(5) . . .
81(5) . . .
86(5) . . .
77(5) . . .
73(5) . . .
72(5) . . .
75(5) . . .
75(5) . . .
58(4) . . .
68(5) . . .
77(5) . . .
56(4) . . .
75(5) . . .
74(5) . . .
73(5) . . .
74(5) . . .
87(5) . . .
91(5) . . .
79(5) . . .
86(5) . . .
73(5) . . .
67(4) . . .
75(4) . . .
78(5) . . .
76(5) . . .
77(5) . . .
80(5) . . .
78(5) . . .
86(5) . . .
74(5) . . .
69(5) . . .
76(5) . . .
78(5) . . .
72(4) . . .
75(5) . . .
73(4) . . .
60(4) . . .
83(5) . . .
71(4) . . .
75(5) . . .
80(5) . . .
79(5) . . .
85(5) . . .
71(4) . . .
73(5) . . .
80(5) . . .
75(4) . . .
72(4) . . .
71(4) . . .
68(5) . . .
78(5) . . .
72(4) . . .
76(5) . . .
73(4) . . .
76(5) . . .
68(4) . . .
71(4) . . .
79(5) . . .
75(5) . . .
85(5) . . .
75(5) . . .
77(5) . . .
67(5) . . .
75(5) . . .
77(5) . . .
69(4) . . .
74(4) . . .
75(5) . . .
72(5) . . .
66(4) . . .
85(5) . . .
79(5) . . .
73(4) . . .
77(5) . . .
78(5) . . .
63(4) . . .
70(4) . . .
82(5) . . .
74(5) . . .
67(4) . . .
70(4) . . .
71(4) . . .
80(5) . . .
71(5) . . .
74(4) . . .
65(4) . . .
79(5) . . .
78(5) . . .
85(5) . . .
79(5) . . .
81(5) . . .
79(5) . . .
70(4) . . .
66(4) . . .
73(5) . . .
79(5) . . .
89(5) . . .
75(5) . . .
80(5) . . .
74(5) . . .
64(4) . . .
83(5) . . .
73(5) . . .
71(5) . . .
77(5) . . .
80(5) . . .
81(5) . . .
77(5) . . .
77(5) . . .
72(4) . . .
87(5) . . .
83(5) . . .
84(5) . . .
74(5) . . .
93(5) . . .
79(5) . . .
86(5) . . .
80(5) . . .
63(4) . . .
72(4) . . .
66(4) . . .
76(5) . . .
71(5) . . .
81(5) . . .
79(5) . . .
73(4) . . .
81(5) . . .
79(5) . . .
78(5) . . .
66(4) . . .
65(4) . . .
75(5) . . .
80(5) . . .
73(5) . . .
82(5) . . .
72(4) . . .
72(5) . . .
69(5) . . .
78(5) . . .
72(4) . . .
75(5) . . .
83(5) . . .
62(4) . . .
67(4) . . .
72(4) . . .
86(5) . . .
65(4) . . .
67(4) . . .
66(4) . . .
78(5) . . .
74(4) . . .
78(4) . . .
83(5) . . .
76(5) . . .
68(4) . . .
71(5) . . .
74(5) . . .
77(5) . . .
82(5) . . .
84(5) . . .
80(5) . . .
65(4) . . .
79(5) . . .
74(4) . . .
73(4) . . .
62(4) . . .
75(5) . . .
71(5) . . .
75(5) . . .
75(5) . . .
74(4) . . .
76(5) . . .
60(4) . . .
70(4) . . .
74(4) . . .
83(5) . . .
84(5) . . .
75(5) . . .
76(5) . . .
64(4) . . .
76(5) . . .
83(5) . . .
77(5) . . .
81(5) . . .
79(5) . . .
79(5) . . .
64(4) . . .
72(5) . . .
73(4) . . .
68(4) . . .
78(5) . . .
79(5) . . .
74(4) . . .
78(5) . . .
76(5) . . .
77(5) . . .
76(5) . . .
86(5) . . .
76(5) . . .
78(5) . . .
79(5) . . .
71(5) . . .
78(5) . . .
72(4) . . .
76(5) . . .
79(5) . . .
79(5) . . .
78(5) . . .
80(5) . . .
67(4) . . .
65(4) . . .
66(4) . . .
76(5) . . .
67(4) . . .
78(5) . . .
76(5) . . .
66(4) . . .
65(4) . . .
77(5) . . .
86(5) . . .
69(4) . . .
77(5) . . .
81(5) . . .
75(5) . . .
80(5) . . .
70(5) . . .
74(5) . . .
71(4) . . .
68(4) . . .
73(5) . . .
83(5) . . .
68(4) . . .
77(5) . . .
85(5) . . .
69(4) . . .
67(5) . . .
68(4) . . .
74(4) . . .
63(4) . . .
70(4) . . .
74(5) . . .
85(5) . . .
65(4) . . .
66(4) . . .
79(5) . . .
79(5) . . .
76(5) . . .
85(5) . . .
73(5) . . .
75(5) . . .
76(5) . . .
70(5) . . .
68(4) . . .
76(5) . . .
74(5) . . .
73(5) . . .
79(5) . . .
71(4) . . .
73(5) . . .
78(5) . . .
78(5) . . .
91(5) . . .
65(4) . . .
76(5) . . .
63(4) . . .
77(5) . . .
71(4) . . .
80(5) . . .
73(5) . . .
73(5) . . .
76(5) . . .
85(5) . . .
73(4) . . .
56(4) . . .
76(5) . . .
73(5) . . .
86(5) . . .
56(4) . . .
80(5) . . .
73(5) . . .
81(5) . . .
84(5) . . .
84(5) . . .
69(4) . . .
82(5) . . .
77(5) . . .
75(5) . . .
85(5) . . .
73(4) . . .
81(5) . . .
83(5) . . .
68(4) . . .
68(4) . . .
61(4) . . .
77(5) . . .
63(4) . . .
85(5) . . .
74(4) . . .
80(5) . . .
95(5) . . .
83(5) . . .
68(4) . . .
74(5) . . .
71(5) . . .
60(4) . . .
77(5) . . .
75(4) . . .
77(5) . . .
77(5) . . .
76(5) . . .
76(5) . . .
67(4) . . .
79(5) . . .
81(5) . . .
92(5) . . .
69(4) . . .
78(5) . . .
65(4) . . .
72(5) . . .
84(5) . . .
74(4) . . .
79(5) . . .
73(4) . . .
90(5) . . .
72(5) . . .
66(4) . . .
78(5) . . .
70(4) . . .
81(5) . . .
73(5) . . .
72(5) . . .
84(5) . . .
96(5) . . .
76(5) . . .
78(5) . . .
85(5) . . .
81(5) . . .
68(4) . . .
70(4) . . .
72(4) . . .
85(5) . . .
66(4) . . .
92(5) . . .
78(5) . . .
77(5) . . .
68(4) . . .
70(4) . . .
68(5) . . .
71(5) . . .
73(5) . . .
68(4) . . .
66(4) . . .
71(5) . . .
77(5) . . .
74(5) . . .
62(4) . . .
79(5) . . .
76(5) . . .
72(5) . . .
71(4) . . .
88(5) . . .
93(5) . . .
80(5) . . .
74(5) . . .
79(5) . . .
72(4) . . .
75(5) . . .
80(5) . . .
62(4) . . .
79(5) . . .
74(5) . . .
78(5) . . .
83(5) . . .
78(5) . . .
86(5) . . .
85(5) . . .
67(4) . . .
70(5) . . .
76(5) . . .
84(5) . . .
70(4) . . .
69(4) . . .
73(5) . . .
79(5) . . .
73(4) . . .
58(4) . . .
83(5) . . .
83(5) . . .
73(5) . . .
70(4) . . .
74(5) . . .
78(5) . . .
68(4) . . .
79(5) . . .
73(4) . . .
78(5) . . .
73(5) . . .
86(5) . . .
85(5) . . .
72(4) . . .
61(4) . . .
68(4) . . .
73(5) . . .
73(5) . . .
79(5) . . .
74(5) . . .
75(5) . . .
75(5) . . .
80(5) . . .
77(5) . . .
76(5) . . .
64(4) . . .
75(5) . . .
77(5) . . .
81(5) . . .
69(4) . . .
68(4) . . .
72(4) . . .
84(5) . . .
66(4) . . .
72(5) . . .
69(4) . . .
77(5) . . .
63(4) . . .
62(4) . . .
66(5) . . .
66(5) . . .
70(4) . . .
74(5) . . .
93(5) . . .
82(5) . . .
75(5) . . .
72(5) . . .
75(4) . . .
71(4) . . .
80(5) . . .
71(4) . . .
89(5) . . .
73(4) . . .
87(5) . . .
72(4) . . .
73(5) . . .
67(4) . . .
63(4) . . .
68(4) . . .
69(5) . . .
68(4) . . .
74(4) . . .
78(5) . . .
79(5) . . .
67(5) . . .
73(5) . . .
60(4) . . .
73(4) . . .
74(5) . . .
71(5) . . .
71(5) . . .
68(4) . . .
71(4) . . .
57(4) . . .
69(5) . . .
75(5) . . .
79(5) . . .
81(5) . . .
74(5) . . .
80(5) . . .
76(5) . . .
70(4) . . .
65(4) . . .
70(4) . . .
79(5) . . .
78(5) . . .
67(4) . . .
66(4) . . .
72(5) . . .
80(5) . . .
64(4) . . .
67(4) . . .
68(4) . . .
70(4) . . .
79(5) . . .
67(4) . . .
71(4) . . .
76(5) . . .
75(5) . . .
82(5) . . .
75(5) . . .
61(4) . . .
71(4) . . .
70(4) . . .
80(5) . . .
77(5) . . .
70(4) . . .
78(5) . . .
83(5) . . .
68(4) . . .
66(4) . . .
68(4) . . .
78(5) . . .
70(4) . . .
70(4) . . .
67(4) . . .
64(4) . . .
72(5) . . .
77(5) . . .
80(5) . . .
76(5) . . .
76(4) . . .
61(4) . . .
64(4) . . .
73(5) . . .
67(4) . . .
66(4) . . .
64(4) . . .
69(5) . . .
73(5) . . .
69(4) . . .
73(4) . . .
68(4) . . .
78(5) . . .
73(4) . . .
73(4) . . .
66(4) . . .
75(5) . . .
79(5) . . .
78(5) . . .
69(4) . . .
65(4) . . .
63(4) . . .
70(5) . . .
71(5) . . .
71(5) . . .
62(4) . . .
70(4) . . .
72(5) . . .
87(5) . . .
73(4) . . .
75(5) . . .
74(5) . . .
69(5) . . .
78(5) . . .
69(4) . . .
77(5) . . .
65(4) . . .
63(4) . . .
74(5) . . .
65(4) . . .
67(4) . . .
74(5) . . .
73(5) . . .
67(4) . . .
65(4) . . .
72(5) . . .
73(5) . . .
72(5) . . .
76(5) . . .
76(5) . . .
74(5) . . .
75(5) . . .
78(5) . . .
72(4) . . .
86(5) . . .
79(5) . . .
80(5) . . .
69(4) . . .
71(4) . . .
80(5) . . .
74(5) . . .
76(5) . . .
70(5) . . .
73(4) . . .
70(4) . . .
76(5) . . .
78(5) . . .
79(5) . . .
67(4) . . .
72(4) . . .
81(5) . . .
70(5) . . .
72(4) . . .
84(5) . . .
76(5) . . .
75(5) . . .
73(5) . . .
75(5) . . .
73(4) . . .
77(5) . . .
76(5) . . .
67(5) . . .
68(4) . . .
68(4) . . .
68(4) . . .
70(5) . . .
73(5) . . .
82(5) . . .
71(4) . . .
61(4) . . .
68(4) . . .
71(5) . . .
65(4) . . .
69(4) . . .
73(5) . . .
67(5) . . .
66(4) . . .
76(5) . . .
66(4) . . .
78(5) . . .
80(5) . . .
71(5) . . .
74(4) . . .
57(4) . . .
72(5) . . .
82(5) . . .
75(5) . . .
73(4) . . .
66(4) . . .
71(5) . . .
76(5) . . .
80(5) . . .
83(5) . . .
76(5) . . .
74(5) . . .
76(5) . . .
87(5) . . .
85(5) . . .
81(5) . . .
77(5) . . .
63(4) . . .
61(4) . . .
72(4) . . .
68(4) . . .
79(5) . . .
58(4) . . .
72(5) . . .
63(4) . . .
79(5) . . .
69(4) . . .
70(5) . . .
69(4) . . .
65(4) . . .
81(5) . . .
72(4) . . .
66(4) . . .
67(4) . . .
77(5) . . .
65(4) . . .
70(4) . . .
75(5) . . .
71(5) . . .
77(5) . . .
82(5) . . .
70(5) . . .
77(5) . . .
77(5) . . .
72(4) . . .
61(4) . . .
76(5) . . .
73(5) . . .
72(5) . . .
74(4) . . .
72(5) . . .
67(4) . . .
60(4) . . .
69(4) . . .
66(4) . . .
71(5) . . .
69(5) . . .
70(4) . . .
75(5) . . .
88(5) . . .
68(4) . . .
74(5) . . .
72(5) . . .
70(4) . . .
76(5) . . .
76(5) . . .
77(5) . . .
77(5) . . .
68(4) . . .
63(4) . . .
75(5) . . .
77(5) . . .
65(4) . . .
72(4) . . .
65(4) . . .
67(4) . . .
62(4) . . .
61(4) . . .
67(4) . . .
70(4) . . .
63(4) . . .
74(5) . . .
71(5) . . .
75(5) . . .
72(4) . . .
69(4) . . .
65(4) . . .
76(5) . . .
70(4) . . .
67(4) . . .
75(5) . . .
69(5) . . .
66(4) . . .
76(5) . . .
69(4) . . .
61(4) . . .
58(4) . . .
63(4) . . .
64(4) . . .
65(4) . . .
67(4) . . .
73(5) . . .
61(4) . . .
71(4) . . .
66(4) . . .
69(5) . . .
62(4) . . .
68(4) . . .
70(4) . . .
71(5) . . .
74(5) . . .
75(5) . . .
62(4) . . .
66(4) . . .
72(4) . . .
76(5) . . .
82(5) . . .
71(4) . . .
64(4) . . .
59(4) . . .
62(5) . . .
65(4) . . .
74(5) . . .
78(5) . . .
77(5) . . .
73(5) . . .
71(5) . . .
70(4) . . .
62(4) . . .
72(5) . . .
64(4) . . .
68(4) . . .
66(4) . . .
55(4) . . .
72(5) . . .
77(5) . . .
76(5) . . .
66(4) . . .
87(5) . . .
69(4) . . .
76(5) . . .
65(4) . . .
59(4) . . .
67(5) . . .
71(5) . . .
71(5) . . .
59(4) . . .
69(4) . . .
70(5) . . .
69(5) . . .
76(5) . . .
66(4) . . .
72(5) . . .
90(5) . . .
66(4) . . .
69(4) . . .
67(4) . . .
66(4) . . .
71(4) . . .
69(5) . . .
71(5) . . .
57(4) . . .
64(4) . . .
65(4) . . .
71(5) . . .
84(5) . . .
75(4) . . .
84(5) . . .
67(4) . . .
72(5) . . .
80(5) . . .
56(4) . . .
72(5) . . .
62(4) . . .
79(5) . . .
80(5) . . .
70(4) . . .
64(4) . . .
62(4) . . .
66(5) . . .
69(5) . . .
65(4) . . .
68(4) . . .
72(4) . . .
77(5) . . .
70(4) . . .
92(5) . . .
72(4) . . .
71(5) . . .
72(5) . . .
76(5) . . .
76(5) . . .
67(5) . . .
64(4) . . .
67(4) . . .
74(4) . . .
76(5) . . .
76(5) . . .
73(5) . . .
58(4) . . .
66(4) . . .
76(5) . . .
69(5) . . .
70(5) . . .
80(5) . . .
75(5) . . .
66(4) . . .
76(5) . . .
66(4) . . .
76(5) . . .
81(5) . . .
63(4) . . .
68(4) . . .
80(5) . . .
74(5) . . .
74(4) . . .
78(5) . . .
66(4) . . .
87(5) . . .
75(5) . . .
72(4) . . .
74(4) . . .
69(4) . . .
76(5) . . .
76(5) . . .
73(4) . . .
65(4) . . .
71(5) . . .
62(4) . . .
65(4) . . .
65(4) . . .
63(4) . . .
55(4) . . .
71(5) . . .
74(5) . . .
71(4) . . .
75(5) . . .
83(5) . . .
60(4) . . .
62(4) . . .
66(4) . . .
55(4) . . .
60(4) . . .
67(5) . . .
68(4) . . .
68(4) . . .
61(4) . . .
77(5) . . .
81(5) . . .
65(4) . . .
70(4) . . .
60(4) . . .
72(5) . . .
70(4) . . .
62(4) . . .
65(4) . . .
71(4) . . .
78(5) . . .
83(5) . . .
76(5) . . .
80(5) . . .
73(5) . . .
72(5) . . .
78(5) . . .
70(4) . . .
71(4) . . .
74(5) . . .
59(4) . . .
79(5) . . .
80(5) . . .
65(4) . . .
65(4) . . .
73(5) . . .
76(5) . . .
72(4) . . .
73(4) . . .
72(5) . . .
76(5) . . .
71(4) . . .
81(5) . . .
69(4) . . .
76(5) . . .
78(5) . . .
79(5) . . .
68(4) . . .
77(5) . . .
76(5) . . .
67(4) . . .
56(4) . . .
73(4) . . .
71(4) . . .
68(5) . . .
69(4) . . .
84(5) . . .
76(5) . . .
67(4) . . .
72(5) . . .
61(4) . . .
55(4) . . .
76(5) . . .
85(5) . . .
81(5) . . .
74(5) . . .
64(4) . . .
68(4) . . .
70(4) . . .
76(5) . . .
58(4) . . .
75(4) . . .
73(4) . . .
67(4) . . .
78(5) . . .
65(4) . . .
72(4) . . .
66(4) . . .
64(4) . . .
59(4) . . .
77(5) . . .
66(4) . . .
70(4) . . .
74(5) . . .
59(4) . . .
64(4) . . .
78(5) . . .
57(4) . . .
71(5) . . .
70(5) . . .
61(4) . . .
65(4) . . .
63(4) . . .
66(4) . . .
71(5) . . .
74(5) . . .
71(4) . . .
71(4) . . .
63(4) . . .
70(5) . . .
67(4) . . .
73(4) . . .
66(4) . . .
67(4) . . .
68(4) . . .
83(5) . . .
79(5) . . .
51(4) . . .
71(5) . . .
76(5) . . .
59(4) . . .
73(4) . . .
79(5) . . .
60(4) . . .
69(4) . . .
75(5) . . .
54(4) . . .
71(5) . . .
68(5) . . .
65(4) . . .
70(5) . . .
58(4) . . .
66(4) . . .
73(5) . . .
67(5) . . .
75(5) . . .
62(4) . . .
71(5) . . .
68(5) . . .
74(5) . . .
63(4) . . .
68(4) . . .
75(5) . . .
70(4) . . .
70(5) . . .
70(4) . . .
67(4) . . .
62(4) . . .
63(4) . . .
71(5) . . .
60(4) . . .
78(5) . . .
77(5) . . .
71(5) . . .
82(5) . . .
79(5) . . .
68(4) . . .
64(4) . . .
67(5) . . .
75(5) . . .
70(4) . . .
71(5) . . .
67(4) . . .
73(5) . . .
71(5) . . .
73(4) . . .
80(5) . . .
76(5) . . .
73(5) . . .
74(5) . . .
74(4) . . .
66(4) . . .
69(5) . . .
62(4) . . .
66(5) . . .
71(4) . . .
67(4) . . .
75(5) . . .
79(5) . . .
70(4) . . .
87(5) . . .
65(4) . . .
70(5) . . .
70(4) . . .
68(4) . . .
79(5) . . .
72(5) . . .
67(4) . . .
65(4) . . .
67(4) . . .
74(4) . . .
72(5) . . .
71(5) . . .
69(4) . . .
67(4) . . .
76(5) . . .
67(4) . . .
75(5) . . .
73(5) . . .
71(4) . . .
64(4) . . .
79(5) . . .
76(5) . . .
68(5) . . .
80(5) . . .
69(4) . . .
65(5) . . .
59(4) . . .
60(4) . . .
73(4) . . .
61(4) . . .
62(4) . . .
58(4) . . .
60(4) . . .
59(4) . . .
54(4) . . .
71(5) . . .
81(5) . . .
72(4) . . .
75(5) . . .
62(4) . . .
67(5) . . .
68(5) . . .
65(4) . . .
75(5) . . .
70(5) . . .
68(4) . . .
61(4) . . .
56(4) . . .
59(4) . . .
64(4) . . .
63(5) . . .
64(4) . . .
60(4) . . .
82(5) . . .
73(4) . . .
77(5) . . .
73(5) . . .
63(4) . . .
67(4) . . .
68(4) . . .
67(4) . . .
63(4) . . .
64(4) . . .
62(4) . . .
81(5) . . .
74(5) . . .
66(4) . . .
68(4) . . .
65(4) . . .
75(5) . . .
61(4) . . .
63(4) . . .
70(4) . . .
83(5) . . .
79(5) . . .
67(4) . . .
74(5) . . .
67(4) . . .
69(4) . . .
68(4) . . .
68(5) . . .
65(4) . . .
65(4) . . .
64(4) . . .
61(4) . . .
79(5) . . .
65(4) . . .
54(4) . . .
66(5) . . .
64(4) . . .
63(4) . . .
80(5) . . .
74(4) . . .
77(5) . . .
66(4) . . .
71(5) . . .
59(4) . . .
57(4) . . .
65(4) . . .
66(5) . . .
73(5) . . .
63(4) . . .
53(4) . . .
77(5) . . .
74(5) . . .
71(4) . . .
79(5) . . .
83(5) . . .
76(5) . . .
72(5) . . .
72(5) . . .
70(4) . . .
63(4) . . .
72(5) . . .
62(4) . . .
68(5) . . .
64(4) . . .
60(4) . . .
64(4) . . .
70(5) . . .
65(4) . . .
73(4) . . .
69(4) . . .
73(5) . . .
72(5) . . .
77(5) . . .
67(4) . . .
48(4) . . .
67(4) . . .
70(5) . . .
66(4) . . .
63(4) . . .
66(5) . . .
65(4) . . .
65(4) . . .
72(5) . . .
67(4) . . .
80(5) . . .
65(4) . . .
72(5) . . .
65(4) . . .
74(4) . . .
72(5) . . .
64(4) . . .
63(4) . . .
63(4) . . .
71(4) . . .
80(5) . . .
64(4) . . .
67(5) . . .
62(4) . . .
62(4) . . .
64(4) . . .
66(5) . . .
57(4) . . .
55(4) . . .
77(5) . . .
68(5) . . .
66(4) . . .
63(4) . . .
72(4) . . .
70(4) . . .
73(5) . . .
58(4) . . .
67(4) . . .
63(4) . . .
62(4) . . .
69(4) . . .
75(5) . . .
67(4) . . .
73(4) . . .
72(4) . . .
69(5) . . .
60(4) . . .
69(5) . . .
60(4) . . .
59(4) . . .
64(4) . . .
72(5) . . .
68(4) . . .
69(4) . . .
71(5) . . .
66(4) . . .
62(4) . . .
66(4) . . .
67(4) . . .
58(4) . . .
56(4) . . .
72(5) . . .
69(5) . . .
71(4) . . .
70(5) . . .
52(4) . . .
66(4) . . .
71(4) . . .
73(4) . . .
68(4) . . .
75(5) . . .
57(4) . . .
67(4) . . .
66(4) . . .
59(4) . . .
72(5) . . .
55(4) . . .
69(4) . . .
68(4) . . .
77(5) . . .
67(5) . . .
62(4) . . .
75(4) . . .
67(4) . . .
61(4) . . .
74(5) . . .
71(5) . . .
64(4) . . .
65(4) . . .
58(4) . . .
71(5) . . .
71(4) . . .
70(4) . . .
65(4) . . .
64(4) . . .
73(5) . . .
61(4) . . .
62(4) . . .
66(4) . . .
52(4) . . .
72(5) . . .
70(4) . . .
65(4) . . .
77(5) . . .
76(5) . . .
75(5) . . .
73(4) . . .
62(4) . . .
68(4) . . .
78(5) . . .
67(5) . . .
71(5) . . .
73(4) . . .
80(5) . . .
71(5) . . .
59(4) . . .
71(5) . . .
64(4) . . .
61(4) . . .
60(4) . . .
63(4) . . .
66(4) . . .
63(4) . . .
69(4) . . .
60(4) . . .
60(4) . . .
73(5) . . .
71(4) . . .
68(4) . . .
70(5) . . .
69(5) . . .
62(4) . . .
65(4) . . .
68(5) . . .
64(4) . . .
65(4) . . .
59(4) . . .
65(4) . . .
79(5) . . .
66(5) . . .
64(4) . . .
66(4) . . .
75(5) . . .
66(4) . . .
74(5) . . .
74(5) . . .
78(5) . . .
78(5) . . .
64(4) . . .
60(4) . . .
56(4) . . .
65(4) . . .
75(5) . . .
63(4) . . .
65(5) . . .
56(4) . . .
68(4) . . .
62(4) . . .
71(5) . . .
69(5) . . .
69(4) . . .
65(4) . . .
68(5) . . .
54(4) . . .
62(4) . . .
60(4) . . .
58(4) . . .
70(4) . . .
68(4) . . .
70(5) . . .
63(4) . . .
80(5) . . .
71(5) . . .
60(4) . . .
77(5) . . .
67(4) . . .
60(4) . . .
55(4) . . .
68(5) . . .
62(4) . . .
74(5) . . .
78(5) . . .
70(5) . . .
69(5) . . .
69(4) . . .
59(4) . . .
61(4) . . .
70(4) . . .
67(4) . . .
71(4) . . .
75(4) . . .
61(4) . . .
53(4) . . .
65(5) . . .
72(5) . . .
70(4) . . .
64(4) . . .
48(4) . . .
58(4) . . .
71(5) . . .
65(4) . . .
62(4) . . .
70(5) . . .
63(4) . . .
55(4) . . .
62(4) . . .
67(4) . . .
58(4) . . .
62(4) . . .
77(5) . . .
69(4) . . .
59(4) . . .
65(5) . . .
78(5) . . .
70(5) . . .
56(4) . . .
65(4) . . .
56(4) . . .
61(4) . . .
78(5) . . .
65(4) . . .
51(4) . . .
58(4) . . .
61(4) . . .
77(5) . . .
66(4) . . .
71(5) . . .
74(5) . . .
66(4) . . .
60(4) . . .
70(4) . . .
64(4) . . .
68(5) . . .
67(4) . . .
66(4) . . .
73(4) . . .
74(5) . . .
68(4) . . .
66(4) . . .
61(4) . . .
53(4) . . .
59(4) . . .
68(4) . . .
72(5) . . .
66(4) . . .
62(4) . . .
54(4) . . .
67(4) . . .
68(5) . . .
52(4) . . .
62(4) . . .
76(5) . . .
62(5) . . .
71(5) . . .
73(4) . . .
62(4) . . .
66(5) . . .
62(4) . . .
68(4) . . .
69(4) . . .
57(4) . . .
63(4) . . .
67(4) . . .
73(4) . . .
62(4) . . .
69(4) . . .
59(4) . . .
63(4) . . .
65(4) . . .
62(4) . . .
63(4) . . .
66(5) . . .
82(5) . . .
67(4) . . .
70(4) . . .
67(4) . . .
69(5) . . .
63(4) . . .
65(4) . . .
55(4) . . .
51(4) . . .
63(4) . . .
71(5) . . .
64(4) . . .
76(5) . . .
75(5) . . .
71(5) . . .
61(4) . . .
74(4) . . .
67(4) . . .
59(4) . . .
72(5) . . .
65(4) . . .
57(4) . . .
65(4) . . .
68(4) . . .
64(5) . . .
54(4) . . .
57(4) . . .
55(4) . . .
60(4) . . .
63(4) . . .
61(4) . . .
63(4) . . .
59(4) . . .
72(4) . . .
56(4) . . .
60(4) . . .
57(4) . . .
54(4) . . .
67(5) . . .
55(4) . . .
59(4) . . .
74(4) . . .
63(4) . . .
64(4) . . .
58(4) . . .
56(4) . . .
73(4) . . .
74(5) . . .
60(4) . . .
63(4) . . .
66(4) . . .
65(4) . . .
66(5) . . .
64(4) . . .
73(5) . . .
70(4) . . .
53(4) . . .
75(5) . . .
70(5) . . .
59(4) . . .
62(4) . . .
71(4) . . .
68(4) . . .
63(4) . . .
70(4) . . .
66(4) . . .
55(4) . . .
51(4) . . .
69(5) . . .
60(4) . . .
70(4) . . .
61(4) . . .
54(4) . . .
62(5) . . .
67(4) . . .
69(4) . . .
81(5) . . .
79(5) . . .
70(4) . . .
63(5) . . .
60(4) . . .
56(4) . . .
63(4) . . .
56(4) . . .
72(5) . . .
78(5) . . .
63(4) . . .
63(4) . . .
70(5) . . .
53(4) . . .
72(4) . . .
61(4) . . .
59(4) . . .
60(4) . . .
68(4) . . .
67(4) . . .
70(4) . . .
66(4) . . .
60(4) . . .
61(4) . . .
62(4) . . .
64(4) . . .
71(5) . . .
66(4) . . .
62(4) . . .
66(4) . . .
63(4) . . .
68(5) . . .
67(4) . . .
68(4) . . .
64(4) . . .
56(4) . . .
63(4) . . .
67(4) . . .
59(4) . . .
68(4) . . .
69(5) . . .
58(4) . . .
49(4) . . .
59(4) . . .
72(5) . . .
59(4) . . .
71(5) . . .
69(5) . . .
77(5) . . .
70(4) . . .
58(4) . . .
64(4) . . .
73(5) . . .
55(4) . . .
69(4) . . .
58(4) . . .
52(4) . . .
62(4) . . .
64(4) . . .
69(4) . . .
70(5) . . .
62(4) . . .
58(4) . . .
60(4) . . .
67(5) . . .
67(4) . . .
66(4) . . .
77(5) . . .
63(4) . . .
62(4) . . .
63(5) . . .
63(4) . . .
73(4) . . .
65(4) . . .
69(5) . . .
64(4) . . .
71(4) . . .
57(4) . . .
57(4) . . .
55(4) . . .
65(5) . . .
66(4) . . .
63(4) . . .
62(4) . . .
59(4) . . .
62(5) . . .
58(4) . . .
61(4) . . .
53(4) . . .
65(5) . . .
65(4) . . .
82(5) . . .
71(4) . . .
69(4) . . .
60(4) . . .
52(4) . . .
57(4) . . .
54(4) . . .
66(4) . . .
52(4) . . .
70(5) . . .
62(4) . . .
66(4) . . .
76(5) . . .
55(4) . . .
68(5) . . .
68(4) . . .
57(4) . . .
82(5) . . .
65(4) . . .
68(4) . . .
68(4) . . .
64(4) . . .
70(4) . . .
71(5) . . .
63(4) . . .
70(5) . . .
66(4) . . .
65(4) . . .
78(5) . . .
61(4) . . .
60(4) . . .
60(4) . . .
69(5) . . .
64(4) . . .
57(4) . . .
68(4) . . .
59(4) . . .
64(4) . . .
66(5) . . .
64(4) . . .
60(4) . . .
67(4) . . .
58(4) . . .
56(4) . . .
59(4) . . .
57(4) . . .
74(4) . . .
52(4) . . .
62(5) . . .
60(4) . . .
64(4) . . .
61(4) . . .
60(4) . . .
60(4) . . .
75(5) . . .
56(4) . . .
58(4) . . .
59(4) . . .
77(5) . . .
78(5) . . .
55(4) . . .
60(4) . . .
66(4) . . .
83(5) . . .
72(5) . . .
61(4) . . .
76(5) . . .
66(5) . . .
61(4) . . .
72(5) . . .
60(4) . . .
65(4) . . .
59(4) . . .
71(5) . . .
64(4) . . .
61(4) . . .
64(4) . . .
66(4) . . .
64(4) . . .
64(4) . . .
68(4) . . .
60(4) . . .
60(4) . . .
68(4) . . .
58(4) . . .
64(4) . . .
70(4) . . .
63(4) . . .
75(5) . . .
74(5) . . .
68(4) . . .
58(4) . . .
63(4) . . .
59(4) . . .
64(4) . . .
58(4) . . .
68(5) . . .
55(4) . . .
57(4) . . .
63(4) . . .
64(4) . . .
73(5) . . .
59(4) . . .
54(4) . . .
61(4) . . .
62(4) . . .
65(4) . . .
54(4) . . .
60(4) . . .
58(4) . . .
65(4) . . .
59(4) . . .
63(4) . . .
61(4) . . .
73(4) . . .
70(4) . . .
72(5) . . .
63(5) . . .
69(5) . . .
70(4) . . .
82(5) . . .
64(4) . . .
58(4) . . .
54(4) . . .
66(4) . . .
69(5) . . .
62(4) . . .
72(5) . . .
56(4) . . .
73(4) . . .
73(5) . . .
69(5) . . .
57(4) . . .
55(4) . . .
68(4) . . .
62(4) . . .
66(4) . . .
65(4) . . .
74(4) . . .
70(4) . . .
69(4) . . .
58(4) . . .
65(5) . . .
66(4) . . .
69(4) . . .
66(4) . . .
56(4) . . .
61(4) . . .
60(4) . . .
62(4) . . .
57(4) . . .
68(5) . . .
61(4) . . .
63(4) . . .
64(4) . . .
67(4) . . .
57(4) . . .
58(4) . . .
57(4) . . .
63(4) . . .
73(5) . . .
60(4) . . .
57(4) . . .
66(4) . . .
61(4) . . .
71(5) . . .
66(5) . . .
60(4) . . .
69(4) . . .
59(4) . . .
65(4) . . .
56(4) . . .
59(4) . . .
80(5) . . .
65(4) . . .
68(4) . . .
64(4) . . .
63(4) . . .
62(4) . . .
63(4) . . .
68(5) . . .
52(4) . . .
67(4) . . .
68(4) . . .
68(4) . . .
74(5) . . .
67(4) . . .
72(4) . . .
67(4) . . .
63(4) . . .
60(4) . . .
62(4) . . .
51(4) . . .
61(4) . . .
68(4) . . .
66(5) . . .
75(5) . . .
68(4) . . .
69(4) . . .
67(4) . . .
61(4) . . .
63(4) . . .
68(4) . . .
58(4) . . .
74(5) . . .
68(4) . . .
73(5) . . .
78(5) . . .
70(4) . . .
61(4) . . .
63(4) . . .
59(4) . . .
67(4) . . .
65(4) . . .
65(4) . . .
65(4) . . .
77(5) . . .
69(4) . . .
74(5) . . .
64(4) . . .
64(4) . . .
63(5) . . .
60(4) . . .
55(4) . . .
71(5) . . .
74(5) . . .
65(4) . . .
66(4) . . .
66(4) . . .
77(5) . . .
58(4) . . .
61(4) . . .
62(4) . . .
65(4) . . .
67(5) . . .
66(5) . . .
68(5) . . .
67(4) . . .
64(4) . . .
72(5) . . .
52(4) . . .
68(4) . . .
67(4) . . .
66(4) . . .
58(4) . . .
54(4) . . .
70(4) . . .
61(4) . . .
63(4) . . .
70(5) . . .
65(4) . . .
54(4) . . .
57(4) . . .
60(4) . . .
70(5) . . .
61(4) . . .
75(5) . . .
66(4) . . .
72(5) . . .
68(5) . . .
64(4) . . .
64(4) . . .
53(4) . . .
60(4) . . .
74(5) . . .
60(4) . . .
68(4) . . .
59(4) . . .
76(5) . . .
61(4) . . .
58(4) . . .
65(4) . . .
51(4) . . .
61(4) . . .
65(4) . . .
61(4) . . .
60(4) . . .
67(4) . . .
77(5) . . .
62(4) . . .
68(4) . . .
65(4) . . .
55(4) . . .
60(4) . . .
70(5) . . .
60(4) . . .
52(4) . . .
66(4) . . .
60(4) . . .
56(4) . . .
62(4) . . .
63(4) . . .
66(4) . . .
65(4) . . .
73(5) . . .
67(4) . . .
66(4) . . .
55(4) . . .
53(4) . . .
71(5) . . .
61(4) . . .
53(4) . . .
55(4) . . .
62(5) . . .
72(5) . . .
67(4) . . .
66(4) . . .
57(4) . . .
66(5) . . .
57(4) . . .
67(4) . . .
67(4) . . .
50(4) . . .
61(4) . . .
69(5) . . .
68(4) . . .
64(4) . . .
59(4) . . .
58(4) . . .
59(4) . . .
62(4) . . .
61(4) . . .
72(5) . . .
58(4) . . .
65(4) . . .
59(4) . . .
64(4) . . .
58(4) . . .
60(4) . . .
52(4) . . .
62(4) . . .
69(4) . . .
60(4) . . .
64(4) . . .
67(4) . . .
54(4) . . .
59(4) . . .
59(4) . . .
59(4) . . .
60(4) . . .
61(4) . . .
68(4) . . .
69(5) . . .
66(4) . . .
61(4) . . .
62(4) . . .
65(4) . . .
55(4) . . .
59(4) . . .
61(4) . . .
63(4) . . .
57(4) . . .
58(4) . . .
74(5) . . .
74(5) . . .
53(4) . . .
65(4) . . .
63(4) . . .
70(4) . . .
77(5) . . .
65(4) . . .
62(4) . . .
69(5) . . .
66(4) . . .
67(4) . . .
61(4) . . .
60(4) . . .
68(5) . . .
66(4) . . .
59(4) . . .
68(4) . . .
75(5) . . .
70(4) . . .
58(4) . . .
62(4) . . .
65(4) . . .
68(4) . . .
60(4) . . .
51(4) . . .
60(4) . . .
54(4) . . .
62(4) . . .
58(4) . . .
74(4) . . .
74(4) . . .
65(4) . . .
63(4) . . .
66(4) . . .
59(4) . . .
67(4) . . .
68(4) . . .
69(5) . . .
54(4) . . .
58(4) . . .
65(4) . . .
68(4) . . .
67(4) . . .
74(5) . . .
60(4) . . .
61(4) . . .
57(4) . . .
62(4) . . .
58(4) . . .
65(4) . . .
54(4) . . .
74(5) . . .
62(5) . . .
66(4) . . .
58(4) . . .
56(4) . . .
71(5) . . .
53(4) . . .
74(5) . . .
77(5) . . .
67(4) . . .
84(5) . . .
65(4) . . .
50(4) . . .
47(4) . . .
53(4) . . .
70(5) . . .
66(4) . . .
60(4) . . .
52(4) . . .
53(4) . . .
61(4) . . .
59(4) . . .
65(4) . . .
59(4) . . .
49(4) . . .
54(4) . . .
65(4) . . .
65(4) . . .
64(4) . . .
60(4) . . .
67(5) . . .
63(4) . . .
62(4) . . .
67(4) . . .
65(4) . . .
67(4) . . .
66(4) . . .
59(4) . . .
62(4) . . .
58(4) . . .
61(4) . . .
63(4) . . .
61(4) . . .
65(4) . . .
56(4) . . .
57(4) . . .
66(4) . . .
74(5) . . .
64(4) . . .
72(5) . . .
60(4) . . .
58(4) . . .
60(4) . . .
77(5) . . .
63(4) . . .
65(4) . . .
70(4) . . .
63(4) . . .
64(4) . . .
56(4) . . .
63(5) . . .
54(4) . . .
68(4) . . .
63(4) . . .
55(4) . . .
61(4) . . .
65(5) . . .
59(4) . . .
61(4) . . .
64(4) . . .
62(4) . . .
61(4) . . .
59(4) . . .
61(4) . . .
56(4) . . .
66(4) . . .
61(4) . . .
67(4) . . .
57(4) . . .
56(4) . . .
53(4) . . .
64(4) . . .
71(4) . . .
67(4) . . .
71(5) . . .
60(4) . . .
68(4) . . .
70(4) . . .
64(4) . . .
71(5) . . .
68(4) . . .
63(4) . . .
66(4) . . .
57(4) . . .
60(4) . . .
51(4) . . .
56(4) . . .
58(4) . . .
62(4) . . .
64(4) . . .
58(4) . . .
56(4) . . .
57(4) . . .
68(5) . . .
64(5) . . .
61(4) . . .
57(4) . . .
69(4) . . .
69(5) . . .
62(4) . . .
70(5) . . .
67(4) . . .
63(4) . . .
76(5) . . .
67(5) . . .
60(4) . . .
57(4) . . .
67(4) . . .
67(5) . . .
62(4) . . .
61(4) . . .
63(4) . . .
55(4) . . .
51(4) . . .
56(4) . . .
54(4) . . .
66(4) . . .
62(4) . . .
58(4) . . .
63(4) . . .
53(4) . . .
56(4) . . .
56(4) . . .
63(4) . . .
70(4) . . .
55(4) . . .
65(4) . . .
58(4) . . .
71(5) . . .
70(5) . . .
66(4) . . .
65(4) . . .
61(4) . . .
64(4) . . .
67(4) . . .
64(4) . . .
63(4) . . .
59(4) . . .
69(5) . . .
60(4) . . .
58(4) . . .
69(4) . . .
72(5) . . .
57(4) . . .
63(4) . . .
64(4) . . .
68(4) . . .
65(4) . . .
72(5) . . .
70(5) . . .
63(4) . . .
74(5) . . .
68(5) . . .
50(4) . . .
69(4) . . .
65(4) . . .
63(4) . . .
61(4) . . .
70(5) . . .
55(4) . . .
65(4) . . .
61(4) . . .
69(5) . . .
50(4) . . .
67(4) . . .
60(4) . . .
52(4) . . .
57(4) . . .
58(4) . . .
63(4) . . .
58(4) . . .
60(4) . . .
48(4) . . .
72(5) . . .
66(4) . . .
63(4) . . .
57(4) . . .
58(4) . . .
59(4) . . .
59(4) . . .
62(4) . . .
64(4) . . .
65(4) . . .
54(4) . . .
62(4) . . .
70(4) . . .
68(4) . . .
57(4) . . .
63(4) . . .
60(4) . . .
63(4) . . .
56(4) . . .
60(4) . . .
64(4) . . .
62(4) . . .
56(4) . . .
57(4) . . .
67(5) . . .
59(4) . . .
62(4) . . .
61(4) . . .
66(5) . . .
73(5) . . .
69(4) . . .
65(4) . . .
62(4) . . .
72(5) . . .
67(5) . . .
58(4) . . .
65(4) . . .
61(4) . . .
65(4) . . .
61(4) . . .
47(4) . . .
71(4) . . .
57(4) . . .
55(4) . . .
58(4) . . .
52(4) . . .
66(4) . . .
57(4) . . .
54(4) . . .
71(5) . . .
67(4) . . .
64(4) . . .
75(5) . . .
53(4) . . .
64(4) . . .
60(4) . . .
67(4) . . .
68(4) . . .
61(4) . . .
68(4) . . .
64(4) . . .
57(4) . . .
68(4) . . .
63(4) . . .
60(4) . . .
58(4) . . .
61(4) . . .
70(5) . . .
65(5) . . .
62(4) . . .
62(4) . . .
48(4) . . .
61(4) . . .
55(4) . . .
57(4) . . .
54(4) . . .
63(4) . . .
60(4) . . .
59(4) . . .
58(4) . . .
50(4) . . .
59(4) . . .
71(4) . . .
65(4) . . .
69(4) . . .
59(4) . . .
56(4) . . .
47(4) . . .
67(5) . . .
66(4) . . .
58(4) . . .
60(4) . . .
59(4) . . .
69(4) . . .
67(4) . . .
53(4) . . .
61(4) . . .
59(4) . . .
58(4) . . .
63(4) . . .
67(4) . . .
64(4) . . .
54(4) . . .
67(4) . . .
68(4) . . .
55(4) . . .
68(5) . . .
54(4) . . .
64(4) . . .
56(4) . . .
62(4) . . .
61(4) . . .
62(5) . . .
61(4) . . .
70(4) . . .
59(4) . . .
67(4) . . .
57(4) . . .
62(4) . . .
64(4) . . .
64(4) . . .
63(4) . . .
58(4) . . .
56(4) . . .
61(4) . . .
65(4) . . .
56(4) . . .
62(4) . . .
55(4) . . .
58(4) . . .
61(4) . . .
64(4) . . .
69(4) . . .
58(4) . . .
57(4) . . .
60(4) . . .
63(4) . . .
58(4) . . .
53(4) . . .
59(4) . . .
53(4) . . .
60(4) . . .
59(4) . . .
56(4) . . .
61(4) . . .
52(4) . . .
64(4) . . .
71(5) . . .
70(4) . . .
61(4) . . .
51(4) . . .
53(4) . . .
57(4) . . .
59(4) . . .
65(4) . . .
78(5) . . .
48(4) . . .
57(4) . . .
63(4) . . .
66(4) . . .
68(4) . . .
71(5) . . .
63(4) . . .
60(4) . . .
61(4) . . .
59(4) . . .
58(4) . . .
50(4) . . .
67(4) . . .
62(4) . . .
53(4) . . .
59(4) . . .
53(4) . . .
68(4) . . .
51(4) . . .
66(5) . . .
64(4) . . .
68(5) . . .
56(4) . . .
65(4) . . .
57(4) . . .
62(4) . . .
63(4) . . .
59(4) . . .
59(4) . . .
74(5) . . .
64(4) . . .
52(4) . . .
65(4) . . .
61(4) . . .
62(4) . . .
56(4) . . .
57(4) . . .
59(4) . . .
57(4) . . .
73(5) . . .
60(4) . . .
65(4) . . .
64(4) . . .
62(4) . . .
66(5) . . .
50(4) . . .
51(4) . . .
55(4) . . .
65(4) . . .
66(4) . . .
70(5) . . .
55(4) . . .
56(4) . . .
63(4) . . .
56(4) . . .
61(4) . . .
60(4) . . .
61(4) . . .
65(4) . . .
57(4) . . .
67(5) . . .
54(4) . . .
64(4) . . .
55(4) . . .
55(4) . . .
60(4) . . .
60(4) . . .
61(4) . . .
64(4) . . .
48(4) . . .
65(5) . . .
62(4) . . .
63(4) . . .
79(5) . . .
63(4) . . .
67(4) . . .
67(4) . . .
65(4) . . .
62(5) . . .
58(4) . . .
64(4) . . .
61(4) . . .
71(4) . . .
59(4) . . .
49(4) . . .
72(5) . . .
74(4) . . .
67(4) . . .
59(4) . . .
66(4) . . .
60(4) . . .
51(4) . . .
53(4) . . .
62(4) . . .
55(4) . . .
57(4) . . .
50(4) . . .
55(4) . . .
56(4) . . .
71(5) . . .
67(4) . . .
70(4) . . .
51(4) . . .
47(4) . . .
54(4) . . .
61(4) . . .
65(4) . . .
54(4) . . .
66(5) . . .
61(4) . . .
61(4) . . .
56(4) . . .
56(4) . . .
54(4) . . .
63(4) . . .
53(4) . . .
61(4) . . .
68(4) . . .
48(4) . . .
63(4) . . .
63(4) . . .
63(4) . . .
60(4) . . .
53(4) . . .
58(4) . . .
56(4) . . .
60(4) . . .
70(5) . . .
72(5) . . .
61(4) . . .
57(4) . . .
57(4) . . .
66(4) . . .
64(5) . . .
58(4) . . .
61(4) . . .
53(4) . . .
67(4) . . .
69(5) . . .
64(4) . . .
58(4) . . .
60(4) . . .
64(4) . . .
57(4) . . .
68(4) . . .
65(4) . . .
60(4) . . .
71(5) . . .
59(4) . . .
58(4) . . .
57(4) . . .
55(4) . . .
63(4) . . .
62(4) . . .
62(4) . . .
60(4) . . .
53(4) . . .
59(4) . . .
67(4) . . .
68(4) . . .
59(4) . . .
59(4) . . .
59(4) . . .
66(4) . . .
63(4) . . .
58(4) . . .
65(4) . . .
63(4) . . .
52(4) . . .
51(4) . . .
67(4) . . .
52(4) . . .
54(4) . . .
53(4) . . .
58(4) . . .
61(4) . . .
59(4) . . .
59(4) . . .
61(4) . . .
62(4) . . .
65(4) . . .
55(4) . . .
68(5) . . .
65(4) . . .
62(4) . . .
55(4) . . .
62(4) . . .
68(4) . . .
70(5) . . .
63(4) . . .
54(4) . . .
62(4) . . .
54(4) . . .
55(4) . . .
58(4) . . .
68(4) . . .
68(5) . . .
61(4) . . .
65(4) . . .
53(4) . . .
57(4) . . .
48(4) . . .
56(4) . . .
63(4) . . .
75(4) . . .
60(4) . . .
58(4) . . .
51(4) . . .
63(4) . . .
67(4) . . .
68(5) . . .
53(4) . . .
59(4) . . .
68(4) . . .
65(4) . . .
63(4) . . .
62(4) . . .
54(4) . . .
56(4) . . .
52(4) . . .
60(4) . . .
62(5) . . .
63(4) . . .
62(4) . . .
68(4) . . .
56(4) . . .
61(4) . . .
52(4) . . .
64(4) . . .
53(4) . . .
52(4) . . .
59(4) . . .
59(4) . . .
60(4) . . .
62(4) . . .
68(5) . . .
52(4) . . .
69(4) . . .
63(4) . . .
59(4) . . .
67(5) . . .
58(4) . . .
54(4) . . .
61(4) . . .
60(4) . . .
63(4) . . .
68(4) . . .
66(4) . . .
68(4) . . .
58(4) . . .
75(5) . . .
63(4) . . .
57(4) . . .
51(4) . . .
57(4) . . .
59(4) . . .
64(4) . . .
66(4) . . .
54(4) . . .
61(4) . . .
74(5) . . .
73(5) . . .
55(4) . . .
60(4) . . .
63(4) . . .
61(4) . . .
54(4) . . .
61(4) . . .
64(4) . . .
63(4) . . .
63(5) . . .
56(4) . . .
60(4) . . .
56(4) . . .
57(4) . . .
38.9(33) . . .
65(4) . . .
61(4) . . .
67(4) . . .
59(4) . . .
60(4) . . .
53(4) . . .
50(4) . . .
64(4) . . .
67(4) . . .
60(4) . . .
58(4) . . .
65(4) . . .
62(4) . . .
58(4) . . .
57(4) . . .
59(4) . . .
54(4) . . .
62(4) . . .
60(4) . . .
66(4) . . .
63(4) . . .
59(4) . . .
62(4) . . .
65(4) . . .
59(4) . . .
70(4) . . .
62(4) . . .
60(4) . . .
62(4) . . .
69(5) . . .
69(4) . . .
61(4) . . .
61(4) . . .
55(4) . . .
55(4) . . .
55(4) . . .
63(4) . . .
58(4) . . .
49(4) . . .
58(4) . . .
63(4) . . .
46.5(35) . . .
55(4) . . .
55(4) . . .
70(5) . . .
64(4) . . .
51(4) . . .
55(4) . . .
67(5) . . .
79(5) . . .
64(4) . . .
51(4) . . .
55(4) . . .
72(5) . . .
67(5) . . .
63(4) . . .
64(4) . . .
58(4) . . .
56(4) . . .
54(4) . . .
68(4) . . .
63(4) . . .
57(4) . . .
58(4) . . .
65(4) . . .
45.5(35) . . .
50(4) . . .
62(4) . . .
63(4) . . .
65(4) . . .
49(4) . . .
73(5) . . .
63(4) . . .
64(4) . . .
55(4) . . .
55(4) . . .
63(4) . . .
57(4) . . .
67(4) . . .
58(4) . . .
72(4) . . .
58(4) . . .
58(4) . . .
68(4) . . .
69(4) . . .
65(4) . . .
50(4) . . .
53(4) . . .
54(4) . . .
57(4) . . .
49(4) . . .
48(4) . . .
58(4) . . .
65(4) . . .
68(4) . . .
61(4) . . .
58(4) . . .
60(4) . . .
58(4) . . .
68(4) . . .
65(4) . . .
64(4) . . .
61(4) . . .
74(5) . . .
61(4) . . .
63(4) . . .
60(4) . . .
61(4) . . .
56(4) . . .
55(4) . . .
63(4) . . .
68(4) . . .
60(4) . . .
67(4) . . .
70(4) . . .
60(4) . . .
74(5) . . .
62(4) . . .
59(4) . . .
56(4) . . .
54(4) . . .
47(4) . . .
56(4) . . .
57(4) . . .
54(4) . . .
51(4) . . .
62(4) . . .
54(4) . . .
64(4) . . .
66(4) . . .
52(4) . . .
61(4) . . .
62(4) . . .
61(4) . . .
49(4) . . .
52(4) . . .
54(4) . . .
61(4) . . .
65(4) . . .
61(4) . . .
58(4) . . .
59(4) . . .
62(4) . . .
56(4) . . .
56(4) . . .
59(4) . . .
57(4) . . .
56(4) . . .
62(4) . . .
66(4) . . .
67(4) . . .
67(5) . . .
51(4) . . .
63(4) . . .
58(4) . . .
55(4) . . .
56(4) . . .
53(4) . . .
55(4) . . .
43.2(34) . . .
56(4) . . .
66(4) . . .
68(4) . . .
59(4) . . .
60(4) . . .
64(4) . . .
61(4) . . .
61(4) . . .
70(4) . . .
55(4) . . .
60(4) . . .
62(4) . . .
64(4) . . .
54(4) . . .
54(4) . . .
59(4) . . .
55(4) . . .
57(4) . . .
56(4) . . .
71(5) . . .
61(4) . . .
67(4) . . .
55(4) . . .
52(4) . . .
62(4) . . .
75(5) . . .
61(4) . . .
59(4) . . .
52(4) . . .
62(4) . . .
70(5) . . .
64(4) . . .
67(4) . . .
58(4) . . .
55(4) . . .
60(4) . . .
61(4) . . .
52(4) . . .
58(4) . . .
56(4) . . .
47(4) . . .
64(4) . . .
63(4) . . .
60(4) . . .
63(4) . . .
57(4) . . .
60(4) . . .
45(4) . . .
56(4) . . .
55(4) . . .
48(4) . . .
60(4) . . .
59(4) . . .
61(4) . . .
66(4) . . .
54(4) . . .
58(4) . . .
60(4) . . .
64(4) . . .
59(4) . . .
53(4) . . .
58(4) . . .
58(4) . . .
66(4) . . .
58(4) . . .
55(4) . . .
64(4) . . .
50(4) . . .
56(4) . . .
60(4) . . .
56(4) . . .
51(4) . . .
64(4) . . .
47(4) . . .
62(4) . . .
56(4) . . .
65(4) . . .
65(4) . . .
63(4) . . .
68(5) . . .
66(4) . . .
64(4) . . .
70(4) . . .
54(4) . . .
53(4) . . .
65(4) . . .
75(4) . . .
69(4) . . .
60(4) . . .
62(4) . . .
53(4) . . .
65(4) . . .
58(4) . . .
56(4) . . .
59(4) . . .
65(4) . . .
49(4) . . .
63(4) . . .
51(4) . . .
59(4) . . .
59(4) . . .
60(4) . . .
61(4) . . .
63(4) . . .
56(4) . . .
62(4) . . .
64(4) . . .
55(4) . . .
53(4) . . .
52(4) . . .
57(4) . . .
57(4) . . .
52(4) . . .
57(4) . . .
64(4) . . .
63(4) . . .
64(4) . . .
60(4) . . .
48(4) . . .
55(4) . . .
59(4) . . .
77(5) . . .
65(4) . . .
72(5) . . .
57(4) . . .
66(4) . . .
59(4) . . .
54(4) . . .
58(4) . . .
64(4) . . .
59(4) . . .
60(4) . . .
46(4) . . .
56(4) . . .
54(4) . . .
58(4) . . .
59(4) . . .
59(4) . . .
61(4) . . .
54(4) . . .
77(5) . . .
75(4) . . .
59(4) . . .
50(4) . . .
54(4) . . .
56(4) . . .
49(4) . . .
53(4) . . .
53(4) . . .
60(4) . . .
67(4) . . .
59(4) . . .
68(5) . . .
63(4) . . .
59(4) . . .
55(4) . . .
67(4) . . .
58(4) . . .
55(4) . . .
59(4) . . .
63(4) . . .
54(4) . . .
57(4) . . .
52(4) . . .
62(4) . . .
68(4) . . .
65(4) . . .
50(4) . . .
53(4) . . .
50(4) . . .
58(4) . . .
63(4) . . .
57(4) . . .
61(4) . . .
50(4) . . .
64(4) . . .
67(4) . . .
64(4) . . .
61(4) . . .
55(4) . . .
63(4) . . .
58(4) . . .
63(5) . . .
71(5) . . .
54(4) . . .
53(4) . . .
56(4) . . .
59(4) . . .
59(4) . . .
57(4) . . .
59(4) . . .
57(4) . . .
66(5) . . .
49(4) . . .
64(4) . . .
56(4) . . .
65(5) . . .
55(4) . . .
58(4) . . .
62(4) . . .
63(4) . . .
57(4) . . .
56(4) . . .
51(4) . . .
68(4) . . .
57(4) . . .
59(4) . . .
57(4) . . .
56(4) . . .
51(4) . . .
68(4) . . .
63(4) . . .
61(4) . . .
59(4) . . .
56(4) . . .
56(4) . . .
48(4) . . .
70(5) . . .
64(4) . . .
62(4) . . .
60(4) . . .
49(4) . . .
53(4) . . .
61(4) . . .
70(4) . . .
52(4) . . .
58(4) . . .
57(4) . . .
65(4) . . .
73(5) . . .
50(4) . . .
53(4) . . .
60(4) . . .
60(4) . . .
58(4) . . .
62(4) . . .
64(4) . . .
61(4) . . .
58(4) . . .
74(5) . . .
62(4) . . .
67(5) . . .
64(4) . . .
63(4) . . .
53(4) . . .
47(4) . . .
53(4) . . .
64(5) . . .
65(4) . . .
60(4) . . .
56(4) . . .
66(5) . . .
59(4) . . .
58(4) . . .
57(4) . . .
63(5) . . .
59(4) . . .
56(4) . . .
54(4) . . .
61(4) . . .
54(4) . . .
51(4) . . .
68(4) . . .
63(4) . . .
62(4) . . .
70(5) . . .
53(4) . . .
54(4) . . .
62(4) . . .
57(4) . . .
59(4) . . .
64(4) . . .
61(4) . . .
59(4) . . .
61(4) . . .
67(4) . . .
50(4) . . .
49(4) . . .
59(4) . . .
58(4) . . .
67(5) . . .
58(4) . . .
52(4) . . .
63(4) . . .
60(4) . . .
60(5) . . .
53(4) . . .
68(4) . . .
66(4) . . .
60(4) . . .
56(4) . . .
61(4) . . .
69(4) . . .
68(4) . . .
50(4) . . .
57(4) . . .
60(4) . . .
59(4) . . .
57(4) . . .
66(4) . . .
60(4) . . .
55(4) . . .
62(4) . . .
58(4) . . .
67(4) . . .
59(4) . . .
63(4) . . .
55(4) . . .
49(4) . . .
63(4) . . .
63(4) . . .
60(4) . . .
50(4) . . .
62(4) . . .
56(4) . . .
57(4) . . .
63(4) . . .
63(4) . . .
59(4) . . .
66(5) . . .
61(4) . . .
54(4) . . .
59(4) . . .
67(4) . . .
64(5) . . .
59(4) . . .
59(4) . . .
53(4) . . .
53(4) . . .
56(4) . . .
58(4) . . .
57(4) . . .
52(4) . . .
51(4) . . .
60(4) . . .
45(4) . . .
53(4) . . .
73(4) . . .
55(4) . . .
53(4) . . .
52(4) . . .
59(4) . . .
75(5) . . .
70(5) . . .
54(4) . . .
60(4) . . .
57(4) . . .
54(4) . . .
56(4) . . .
45(4) . . .
60(4) . . .
56(4) . . .
58(4) . . .
64(4) . . .
58(4) . . .
73(5) . . .
52(4) . . .
48(4) . . .
56(4) . . .
57(4) . . .
50(4) . . .
65(4) . . .
59(4) . . .
57(4) . . .
58(4) . . .
53(4) . . .
65(4) . . .
64(4) . . .
59(4) . . .
65(4) . . .
59(4) . . .
58(4) . . .
57(4) . . .
68(5) . . .
47(4) . . .
50(4) . . .
63(4) . . .
62(4) . . .
58(4) . . .
60(4) . . .
63(4) . . .
55(4) . . .
70(5) . . .
46(4) . . .
39(4) . . .
52(4) . . .
44(4) . . .
54(4) . . .
58(4) . . .
58(4) . . .
65(4) . . .
61(4) . . .
59(4) . . .
57(4) . . .
61(4) . . .
62(4) . . .
51(4) . . .
53(4) . . .
53(4) . . .
69(4) . . .
59(4) . . .
52(4) . . .
60(4) . . .
67(5) . . .
61(4) . . .
55(4) . . .
54(4) . . .
59(4) . . .
63(4) . . .
56(4) . . .
49(4) . . .
56(4) . . .
64(4) . . .
61(4) . . .
47(4) . . .
59(4) . . .
62(4) . . .
66(4) . . .
57(4) . . .
63(4) . . .
58(4) . . .
50(4) . . .
63(5) . . .
60(4) . . .
57(4) . . .
55(4) . . .
67(4) . . .
53(4) . . .
47(4) . . .
62(4) . . .
64(4) . . .
54(4) . . .
54(4) . . .
59(4) . . .
61(4) . . .
60(4) . . .
53(4) . . .
56(4) . . .
62(4) . . .
55(4) . . .
66(4) . . .
68(4) . . .
70(5) . . .
68(4) . . .
52(4) . . .
67(4) . . .
66(4) . . .
60(4) . . .
63(5) . . .
72(4) . . .
57(4) . . .
59(4) . . .
56(4) . . .
60(4) . . .
61(4) . . .
65(4) . . .
60(4) . . .
57(4) . . .
66(4) . . .
57(4) . . .
67(4) . . .
56(4) . . .
53(4) . . .
48(4) . . .
59(4) . . .
62(4) . . .
64(4) . . .
66(5) . . .
53(4) . . .
49(4) . . .
51(4) . . .
49(4) . . .
64(4) . . .
45(4) . . .
51(4) . . .
55(4) . . .
50(4) . . .
51(4) . . .
65(4) . . .
60(4) . . .
52(4) . . .
58(4) . . .
55(4) . . .
58(4) . . .
61(4) . . .
55(4) . . .
63(5) . . .
62(4) . . .
61(4) . . .
62(4) . . .
55(4) . . .
55(4) . . .
51(4) . . .
47(4) . . .
66(4) . . .
56(4) . . .
55(4) . . .
57(4) . . .
58(4) . . .
48(4) . . .
58(4) . . .
65(4) . . .
60(4) . . .
53(4) . . .
54(4) . . .
60(4) . . .
60(4) . . .
58(4) . . .
67(4) . . .
58(4) . . .
69(5) . . .
61(4) . . .
55(4) . . .
65(4) . . .
62(4) . . .
59(4) . . .
60(4) . . .
56(4) . . .
48(4) . . .
56(4) . . .
46(4) . . .
57(4) . . .
74(5) . . .
55(4) . . .
63(4) . . .
54(4) . . .
52(4) . . .
54(4) . . .
54(4) . . .
69(5) . . .
56(4) . . .
70(4) . . .
60(4) . . .
50(4) . . .
57(4) . . .
58(4) . . .
56(4) . . .
69(4) . . .
53(4) . . .
49(4) . . .
50(4) . . .
68(4) . . .
58(4) . . .
60(4) . . .
54(4) . . .
54(4) . . .
59(4) . . .
54(4) . . .
63(4) . . .
53(4) . . .
57(4) . . .
53(4) . . .
56(4) . . .
61(4) . . .
66(5) . . .
61(4) . . .
62(4) . . .
58(4) . . .
57(4) . . .
55(4) . . .
59(4) . . .
63(4) . . .
64(4) . . .
56(4) . . .
55(4) . . .
57(4) . . .
62(4) . . .
50(4) . . .
58(4) . . .
58(4) . . .
50(4) . . .
62(4) . . .
58(4) . . .
57(4) . . .
52(4) . . .
50(4) . . .
61(4) . . .
47(4) . . .
65(5) . . .
52(4) . . .
59(4) . . .
55(4) . . .
67(4) . . .
69(4) . . .
59(4) . . .
61(4) . . .
59(4) . . .
66(4) . . .
55(4) . . .
60(4) . . .
56(4) . . .
50(4) . . .
55(4) . . .
70(4) . . .
53(4) . . .
61(4) . . .
50(4) . . .
55(4) . . .
64(4) . . .
61(4) . . .
53(4) . . .
56(4) . . .
60(4) . . .
53(4) . . .
58(4) . . .
52(4) . . .
54(4) . . .
48(4) . . .
66(4) . . .
53(4) . . .
60(4) . . .
64(4) . . .
59(4) . . .
53(4) . . .
67(5) . . .
60(4) . . .
62(4) . . .
52(4) . . .
47(4) . . .
61(4) . . .
60(4) . . .
54(4) . . .
59(4) . . .
59(4) . . .
48(4) . . .
60(4) . . .
53(4) . . .
57(4) . . .
62(5) . . .
63(4) . . .
51(4) . . .
62(4) . . .
57(4) . . .
56(4) . . .
62(4) . . .
56(4) . . .
58(4) . . .
63(4) . . .
64(5) . . .
54(4) . . .
68(4) . . .
58(4) . . .
52(4) . . .
59(4) . . .
60(4) . . .
56(4) . . .
62(4) . . .
57(4) . . .
56(4) . . .
58(4) . . .
61(4) . . .
67(4) . . .
52(4) . . .
57(4) . . .
57(4) . . .
60(4) . . .
55(4) . . .
58(4) . . .
60(4) . . .
53(4) . . .
47(4) . . .
57(4) . . .
57(4) . . .
55(4) . . .
57(4) . . .
65(4) . . .
62(4) . . .
68(4) . . .
55(4) . . .
56(4) . . .
57(4) . . .
73(5) . . .
63(4) . . .
62(4) . . .
54(4) . . .
61(4) . . .
52(4) . . .
67(5) . . .
55(4) . . .
68(4) . . .
60(4) . . .
59(4) . . .
59(4) . . .
59(4) . . .
53(4) . . .
54(4) . . .
68(4) . . .
56(4) . . .
60(4) . . .
60(4) . . .
62(4) . . .
58(4) . . .
55(4) . . .
59(4) . . .
56(4) . . .
58(4) . . .
46(4) . . .
48(4) . . .
55(4) . . .
59(4) . . .
60(4) . . .
59(4) . . .
54(4) . . .
63(4) . . .
54(4) . . .
52(4) . . .
51(4) . . .
64(4) . . .
61(4) . . .
66(4) . . .
57(4) . . .
65(5) . . .
58(4) . . .
54(4) . . .
59(4) . . .
60(4) . . .
73(5) . . .
68(5) . . .
60(4) . . .
55(4) . . .
55(4) . . .
55(4) . . .
59(4) . . .
53(4) . . .
51(4) . . .
59(4) . . .
61(4) . . .
56(4) . . .
56(4) . . .
59(4) . . .
51(4) . . .
63(5) . . .
63(4) . . .
63(4) . . .
48(4) . . .
54(4) . . .
57(4) . . .
47(4) . . .
43.5(34) . . .
57(4) . . .
62(4) . . .
67(5) . . .
61(4) . . .
53(4) . . .
53(4) . . .
61(4) . . .
60(4) . . .
58(4) . . .
52(4) . . .
66(4) . . .
50(4) . . .
57(4) . . .
71(5) . . .
50(4) . . .
56(4) . . .
50(4) . . .
66(5) . . .
51(4) . . .
52(4) . . .
46(4) . . .
59(4) . . .
58(4) . . .
54(4) . . .
52(4) . . .
59(4) . . .
64(4) . . .
63(4) . . .
57(4) . . .
52(4) . . .
50(4) . . .
54(4) . . .
44(4) . . .
48(4) . . .
52(4) . . .
45(4) . . .
44(4) . . .
49(4) . . .
53(4) . . .
41.1(33) . . .
56(4) . . .
55(4) . . .
65(4) . . .
72(5) . . .
56(4) . . .
68(4) . . .
53(4) . . .
54(4) . . .
58(4) . . .
62(4) . . .
53(4) . . .
59(4) . . .
67(5) . . .
53(4) . . .
54(4) . . .
68(4) . . .
57(4) . . .
56(4) . . .
55(4) . . .
62(4) . . .
65(4) . . .
66(4) . . .
63(4) . . .
66(4) . . .
58(4) . . .
57(4) . . .
50(4) . . .
61(4) . . .
55(4) . . .
58(4) . . .
64(4) . . .
66(4) . . .
52(4) . . .
58(4) . . .
60(4) . . .
61(4) . . .
51(4) . . .
64(4) . . .
65(4) . . .
61(4) . . .
59(4) . . .
67(4) . . .
58(4) . . .
51(4) . . .
61(4) . . .
63(4) . . .
58(4) . . .
55(4) . . .
61(4) . . .
59(4) . . .
60(4) . . .
57(4) . . .
52(4) . . .
52(4) . . .
51(4) . . .
55(4) . . .
61(4) . . .
60(4) . . .
62(4) . . .
63(4) . . .
59(4) . . .
66(5) . . .
59(4) . . .
59(4) . . .
56(4) . . .
58(4) . . .
56(4) . . .
59(4) . . .
57(4) . . .
60(4) . . .
50(4) . . .
49(4) . . .
62(4) . . .
62(4) . . .
56(4) . . .
49(4) . . .
62(4) . . .
57(4) . . .
55(4) . . .
59(4) . . .
47(4) . . .
64(4) . . .
59(4) . . .
55(4) . . .
51(4) . . .
66(4) . . .
65(4) . . .
55(4) . . .
64(4) . . .
51(4) . . .
60(4) . . .
49(4) . . .
58(4) . . .
68(5) . . .
63(5) . . .
60(4) . . .
67(4) . . .
61(4) . . .
59(4) . . .
60(4) . . .
61(4) . . .
60(4) . . .
62(4) . . .
62(4) . . .
62(5) . . .
55(4) . . .
59(4) . . .
58(4) . . .
67(4) . . .
60(4) . . .
57(4) . . .
56(4) . . .
51(4) . . .
59(4) . . .
63(4) . . .
63(4) . . .
52(4) . . .
59(4) . . .
58(4) . . .
59(4) . . .
49(4) . . .
52(4) . . .
60(4) . . .
57(4) . . .
53(4) . . .
57(4) . . .
56(4) . . .
61(4) . . .
59(4) . . .
60(4) . . .
46(4) . . .
58(4) . . .
52(4) . . .
49(4) . . .
45(4) . . .
57(4) . . .
55(4) . . .
54(4) . . .
53(4) . . .
60(4) . . .
52(4) . . .
57(4) . . .
53(4) . . .
52(4) . . .
50(4) . . .
47(4) . . .
51(4) . . .
58(4) . . .
68(5) . . .
55(4) . . .
58(4) . . .
57(4) . . .
53(4) . . .
60(4) . . .
63(4) . . .
61(4) . . .
57(4) . . .
56(4) . . .
57(4) . . .
57(4) . . .
65(4) . . .
58(4) . . .
57(4) . . .
58(4) . . .
62(4) . . .
55(4) . . .
53(4) . . .
61(4) . . .
55(4) . . .
54(4) . . .
53(4) . . .
70(4) . . .
57(4) . . .
65(4) . . .
60(4) . . .
60(4) . . .
56(4) . . .
63(4) . . .
58(4) . . .
64(4) . . .
57(4) . . .
52(4) . . .
58(4) . . .
53(4) . . .
58(4) . . .
53(4) . . .
57(4) . . .
55(4) . . .
63(4) . . .
58(4) . . .
52(4) . . .
62(4) . . .
59(4) . . .
52(4) . . .
57(4) . . .
60(4) . . .
60(4) . . .
59(4) . . .
54(4) . . .
53(4) . . .
53(4) . . .
52(4) . . .
52(4) . . .
51(4) . . .
58(4) . . .
54(4) . . .
51(4) . . .
57(4) . . .
63(4) . . .
59(4) . . .
52(4) . . .
62(4) . . .
58(4) . . .
57(4) . . .
49(4) . . .
52(4) . . .
53(4) . . .
55(4) . . .
45.2(35) . . .
69(4) . . .
70(4) . . .
54(4) . . .
57(4) . . .
53(4) . . .
55(4) . . .
60(4) . . .
58(4) . . .
64(4) . . .
49(4) . . .
47(4) . . .
63(4) . . .
50(4) . . .
53(4) . . .
51(4) . . .
50(4) . . .
53(4) . . .
51(4) . . .
47(4) . . .
56(4) . . .
46(4) . . .
56(4) . . .
59(4) . . .
50(4) . . .
62(4) . . .
66(4) . . .
52(4) . . .
71(5) . . .
57(4) . . .
49(4) . . .
64(4) . . .
57(4) . . .
59(4) . . .
50(4) . . .
51(4) . . .
53(4) . . .
60(4) . . .
59(4) . . .
64(4) . . .
63(4) . . .
65(4) . . .
46.4(35) . . .
62(4) . . .
52(4) . . .
63(4) . . .
65(4) . . .
56(4) . . .
55(4) . . .
47(4) . . .
57(4) . . .
53(4) . . .
52(4) . . .
56(4) . . .
56(4) . . .
45(4) . . .
46.8(35) . . .
59(4) . . .
55(4) . . .
54(4) . . .
71(4) . . .
53(4) . . .
52(4) . . .
56(4) . . .
60(4) . . .
54(4) . . .
56(4) . . .
53(4) . . .
59(4) . . .
59(4) . . .
62(4) . . .
52(4) . . .
60(4) . . .
58(4) . . .
49(4) . . .
50(4) . . .
58(4) . . .
66(4) . . .
57(4) . . .
59(4) . . .
54(4) . . .
59(4) . . .
63(4) . . .
62(4) . . .
63(4) . . .
53(4) . . .
51(4) . . .
59(4) . . .
57(4) . . .
67(4) . . .
57(4) . . .
55(4) . . .
57(4) . . .
56(4) . . .
44.4(35) . . .
57(4) . . .
50(4) . . .
57(4) . . .
49(4) . . .
40(4) . . .
55(4) . . .
59(4) . . .
53(4) . . .
48(4) . . .
53(4) . . .
59(4) . . .
61(4) . . .
52(4) . . .
48(4) . . .
49(4) . . .
56(4) . . .
61(4) . . .
59(4) . . .
61(4) . . .
59(4) . . .
60(4) . . .
57(4) . . .
61(4) . . .
54(4) . . .
61(4) . . .
53(4) . . .
59(4) . . .
59(4) . . .
61(4) . . .
62(4) . . .
48(4) . . .
53(4) . . .
64(4) . . .
58(4) . . .
55(4) . . .
50(4) . . .
50(4) . . .
45.9(35) . . .
61(4) . . .
56(4) . . .
60(4) . . .
56(4) . . .
66(4) . . .
64(4) . . .
63(4) . . .
64(4) . . .
52(4) . . .
55(4) . . .
61(4) . . .
55(4) . . .
54(4) . . .
50(4) . . .
64(4) . . .
66(4) . . .
53(4) . . .
56(4) . . .
58(4) . . .
50(4) . . .
41.2(33) . . .
57(4) . . .
55(4) . . .
57(4) . . .
53(4) . . .
50(4) . . .
54(4) . . .
56(4) . . .
64(4) . . .
48(4) . . .
59(4) . . .
57(4) . . .
59(4) . . .
53(4) . . .
54(4) . . .
61(5) . . .
57(4) . . .
60(4) . . .
67(4) . . .
68(4) . . .
65(5) . . .
58(4) . . .
60(4) . . .
58(4) . . .
57(4) . . .
55(4) . . .
51(4) . . .
54(4) . . .
56(4) . . .
63(4) . . .
57(4) . . .
54(4) . . .
56(4) . . .
59(4) . . .
58(4) . . .
64(5) . . .
55(4) . . .
60(4) . . .
57(4) . . .
60(4) . . .
45.3(35) . . .
57(4) . . .
55(4) . . .
54(4) . . .
52(4) . . .
54(4) . . .
54(4) . . .
61(4) . . .
50(4) . . .
57(4) . . .
58(4) . . .
64(4) . . .
62(4) . . .
59(4) . . .
47(4) . . .
60(4) . . .
59(4) . . .
45.0(35) . . .
51(4) . . .
55(4) . . .
56(4) . . .
53(4) . . .
54(4) . . .
54(4) . . .
54(4) . . .
48(4) . . .
57(4) . . .
57(4) . . .
58(4) . . .
46(4) . . .
58(4) . . .
51(4) . . .
56(4) . . .
51(4) . . .
65(5) . . .
51(4) . . .
56(4) . . .
59(4) . . .
55(4) . . .
58(4) . . .
55(4) . . .
57(4) . . .
66(4) . . .
62(4) . . .
52(4) . . .
56(4) . . .
48(4) . . .
67(4) . . .
63(4) . . .
55(4) . . .
53(4) . . .
44.4(34) . . .
59(4) . . .
44(4) . . .
50(4) . . .
60(4) . . .
59(4) . . .
46(4) . . .
55(4) . . .
60(4) . . .
58(4) . . .
57(4) . . .
44.4(34) . . .
44.7(35) . . .
55(4) . . .
55(4) . . .
51(4) . . .
55(4) . . .
59(4) . . .
57(4) . . .
56(4) . . .
61(4) . . .
49(4) . . .
53(4) . . .
66(4) . . .
53(4) . . .
50(4) . . .
58(4) . . .
55(4) . . .
62(4) . . .
59(4) . . .
50(4) . . .
59(4) . . .
60(4) . . .
58(4) . . .
54(4) . . .
54(4) . . .
61(4) . . .
47(4) . . .
55(4) . . .
51(4) . . .
64(4) . . .
43.2(34) . . .
56(4) . . .
60(4) . . .
57(4) . . .
59(4) . . .
48(4) . . .
58(4) . . .
71(4) . . .
51(4) . . .
50(4) . . .
42.9(33) . . .
50(4) . . .
53(4) . . .
57(4) . . .
44.5(34) . . .
56(4) . . .
48(4) . . .
59(4) . . .
52(4) . . .
54(4) . . .
52(4) . . .
60(4) . . .
56(4) . . .
56(4) . . .
42.9(34) . . .
52(4) . . .
56(4) . . .
58(4) . . .
73(4) . . .
58(4) . . .
60(4) . . .
52(4) . . .
54(4) . . .
54(4) . . .
56(4) . . .
44(4) . . .
66(4) . . .
56(4) . . .
64(4) . . .
61(4) . . .
65(4) . . .
61(4) . . .
53(4) . . .
54(4) . . .
52(4) . . .
65(5) . . .
57(4) . . .
49(4) . . .
49(4) . . .
47(4) . . .
65(5) . . .
62(4) . . .
59(4) . . .
62(4) . . .
55(4) . . .
55(4) . . .
68(4) . . .
57(4) . . .
52(4) . . .
51(4) . . .
49(4) . . .
61(4) . . .
48(4) . . .
43(4) . . .
60(4) . . .
53(4) . . .
43(4) . . .
53(4) . . .
60(4) . . .
53(4) . . .
53(4) . . .
51(4) . . .
52(4) . . .
59(4) . . .
54(4) . . .
53(4) . . .
61(4) . . .
46(4) . . .
52(4) . . .
55(4) . . .
56(4) . . .
54(4) . . .
64(4) . . .
64(4) . . .
58(4) . . .
48(4) . . .
56(4) . . .
63(4) . . .
58(4) . . .
55(4) . . .
56(4) . . .
63(4) . . .
61(4) . . .
45(4) . . .
50(4) . . .
43.4(35) . . .
46(4) . . .
51(4) . . .
58(4) . . .
50(4) . . .
54(4) . . .
55(4) . . .
62(4) . . .
56(4) . . .
62(4) . . .
54(4) . . .
51(4) . . .
59(4) . . .
51(4) . . .
54(4) . . .
60(4) . . .
68(4) . . .
58(4) . . .
50(4) . . .
55(4) . . .
52(4) . . .
56(4) . . .
52(4) . . .
50(4) . . .
61(4) . . .
56(4) . . .
50(4) . . .
70(5) . . .
52(4) . . .
57(4) . . .
50(4) . . .
48(4) . . .
60(4) . . .
50(4) . . .
60(4) . . .
55(4) . . .
57(4) . . .
48(4) . . .
52(4) . . .
46(4) . . .
41.8(35) . . .
59(4) . . .
68(4) . . .
54(4) . . .
55(4) . . .
69(4) . . .
55(4) . . .
57(4) . . .
67(4) . . .
62(4) . . .
58(4) . . .
50(4) . . .
61(4) . . .
58(4) . . .
50(4) . . .
57(4) . . .
56(4) . . .
56(4) . . .
48(4) . . .
53(4) . . .
55(4) . . .
52(4) . . .
51(4) . . .
60(4) . . .
65(4) . . .
60(4) . . .
48(4) . . .
61(4) . . .
53(4) . . .
55(4) . . .
56(4) . . .
60(4) . . .
55(4) . . .
59(4) . . .
56(4) . . .
60(4) . . .
52(4) . . .
52(4) . . .
67(5) . . .
58(4) . . .
56(4) . . .
58(4) . . .
56(4) . . .
54(4) . . .
58(4) . . .
50(4) . . .
60(4) . . .
65(4) . . .
62(4) . . .
66(4) . . .
47(4) . . .
57(4) . . .
52(4) . . .
53(4) . . .
61(4) . . .
59(4) . . .
63(4) . . .
63(4) . . .
55(4) . . .
69(4) . . .
50(4) . . .
52(4) . . .
48(4) . . .
56(4) . . .
60(4) . . .
60(4) . . .
54(4) . . .
50(4) . . .
61(4) . . .
45.5(35) . . .
51(4) . . .
50(4) . . .
62(4) . . .
52(4) . . .
62(4) . . .
56(4) . . .
51(4) . . .
52(4) . . .
59(4) . . .
53(4) . . .
51(4) . . .
61(4) . . .
53(4) . . .
59(4) . . .
51(4) . . .
54(4) . . .
65(4) . . .
55(4) . . .
58(4) . . .
61(4) . . .
59(4) . . .
51(4) . . .
52(4) . . .
50(4) . . .
55(4) . . .
55(4) . . .
49(4) . . .
54(4) . . .
52(4) . . .
59(4) . . .
58(4) . . .
58(4) . . .
64(5) . . .
59(4) . . .
55(4) . . .
56(4) . . .
52(4) . . .
59(4) . . .
58(4) . . .
63(4) . . .
50(4) . . .
50(4) . . .
60(4) . . .
54(4) . . .
62(4) . . .
62(4) . . .
51(4) . . .
42.6(34) . . .
59(4) . . .
53(4) . . .
57(4) . . .
47(4) . . .
53(4) . . .
66(4) . . .
64(4) . . .
55(4) . . .
66(5) . . .
59(4) . . .
54(4) . . .
57(4) . . .
48(4) . . .
60(4) . . .
56(4) . . .
58(4) . . .
62(4) . . .
53(4) . . .
55(4) . . .
53(4) . . .
53(4) . . .
49(4) . . .
51(4) . . .
44(4) . . .
50(4) . . .
46.0(35) . . .
54(4) . . .
54(4) . . .
50(4) . . .
57(4) . . .
52(4) . . .
43(4) . . .
55(4) . . .
57(4) . . .
49(4) . . .
57(4) . . .
61(4) . . .
55(4) . . .
54(4) . . .
43.7(35) . . .
62(4) . . .
50(4) . . .
51(4) . . .
56(4) . . .
50(4) . . .
49(4) . . .
63(4) . . .
56(4) . . .
70(5) . . .
51(4) . . .
54(4) . . .
56(4) . . .
49(4) . . .
48(4) . . .
57(4) . . .
53(4) . . .
54(4) . . .
50(4) . . .
55(4) . . .
51(4) . . .
49(4) . . .
58(4) . . .
54(4) . . .
53(4) . . .
52(4) . . .
47(4) . . .
54(4) . . .
60(4) . . .
62(4) . . .
41.5(34) . . .
48(4) . . .
53(4) . . .
55(4) . . .
57(4) . . .
59(4) . . .
45(4) . . .
50(4) . . .
60(4) . . .
52(4) . . .
57(4) . . .
58(4) . . .
59(4) . . .
52(4) . . .
57(4) . . .
50(4) . . .
58(4) . . .
54(4) . . .
58(4) . . .
54(4) . . .
53(4) . . .
50(4) . . .
54(4) . . .
52(4) . . .
53(4) . . .
53(4) . . .
60(4) . . .
60(4) . . .
51(4) . . .
61(4) . . .
55(4) . . .
48(4) . . .
44(4) . . .
55(4) . . .
33.5(31) . . .
57(4) . . .
58(4) . . .
58(4) . . .
59(4) . . .
46.0(35) . . .
49(4) . . .
46(4) . . .
55(4) . . .
46(4) . . .
55(4) . . .
48(4) . . .
56(4) . . .
52(4) . . .
59(4) . . .
53(4) . . .
55(4) . . .
65(4) . . .
68(4) . . .
63(4) . . .
56(4) . . .
67(4) . . .
55(4) . . .
53(4) . . .
62(4) . . .
54(4) . . .
49(4) . . .
58(4) . . .
58(4) . . .
48(4) . . .
60(4) . . .
54(4) . . .
47(4) . . .
41.4(35) . . .
58(4) . . .
47(4) . . .
53(4) . . .
58(4) . . .
56(4) . . .
51(4) . . .
56(4) . . .
66(4) . . .
57(4) . . .
51(4) . . .
66(4) . . .
53(4) . . .
69(5) . . .
56(4) . . .
60(4) . . .
60(4) . . .
53(4) . . .
65(4) . . .
51(4) . . .
59(4) . . .
49(4) . . .
46(4) . . .
54(4) . . .
58(4) . . .
51(4) . . .
55(4) . . .
60(4) . . .
55(4) . . .
59(4) . . .
40.8(33) . . .
50(4) . . .
47(4) . . .
53(4) . . .
57(4) . . .
62(4) . . .
65(4) . . .
51(4) . . .
57(4) . . .
55(4) . . .
60(4) . . .
49(4) . . .
61(4) . . .
49(4) . . .
56(4) . . .
58(4) . . .
55(4) . . .
63(4) . . .
52(4) . . .
51(4) . . .
50(4) . . .
44.5(34) . . .
48(4) . . .
56(4) . . .
62(4) . . .
57(4) . . .
59(4) . . .
77(5) . . .
55(4) . . .
52(4) . . .
47(4) . . .
55(4) . . .
49(4) . . .
55(4) . . .
51(4) . . .
46(4) . . .
50(4) . . .
55(4) . . .
47(4) . . .
45(4) . . .
60(4) . . .
60(4) . . .
60(4) . . .
56(4) . . .
55(4) . . .
49(4) . . .
56(4) . . .
53(4) . . .
44.1(35) . . .
50(4) . . .
52(4) . . .
55(4) . . .
64(4) . . .
59(4) . . .
63(4) . . .
49(4) . . .
48(4) . . .
51(4) . . .
60(4) . . .
56(4) . . .
54(4) . . .
57(4) . . .
52(4) . . .
62(4) . . .
51(4) . . .
57(4) . . .
54(4) . . .
55(4) . . .
54(4) . . .
61(4) . . .
64(4) . . .
60(4) . . .
64(4) . . .
57(4) . . .
45.0(35) . . .
47(4) . . .
49(4) . . .
48(4) . . .
50(4) . . .
39.2(33) . . .
53(4) . . .
48(4) . . .
49(4) . . .
50(4) . . .
46(4) . . .
56(4) . . .
55(4) . . .
66(4) . . .
63(4) . . .
59(4) . . .
46(4) . . .
45(4) . . .
54(4) . . .
50(4) . . .
52(4) . . .
60(4) . . .
56(4) . . .
63(4) . . .
54(4) . . .
59(4) . . .
60(4) . . .
53(4) . . .
55(4) . . .
69(5) . . .
53(4) . . .
52(4) . . .
63(4) . . .
52(4) . . .
45(4) . . .
52(4) . . .
55(4) . . .
60(4) . . .
54(4) . . .
49(4) . . .
53(4) . . .
52(4) . . .
51(4) . . .
57(4) . . .
48(4) . . .
57(4) . . .
53(4) . . .
51(4) . . .
53(4) . . .
54(4) . . .
52(4) . . .
53(4) . . .
46(4) . . .
50(4) . . .
52(4) . . .
58(4) . . .
57(4) . . .
64(4) . . .
56(4) . . .
55(4) . . .
53(4) . . .
53(4) . . .
54(4) . . .
55(4) . . .
50(4) . . .
57(4) . . .
48(4) . . .
53(4) . . .
47(4) . . .
55(4) . . .
62(4) . . .
50(4) . . .
59(4) . . .
63(4) . . .
61(4) . . .
53(4) . . .
60(4) . . .
48(4) . . .
49(4) . . .
43.5(34) . . .
52(4) . . .
46(4) . . .
63(5) . . .
64(4) . . .
45(4) . . .
48(4) . . .
54(4) . . .
58(4) . . .
57(4) . . .
45(4) . . .
60(4) . . .
57(4) . . .
55(4) . . .
50(4) . . .
58(4) . . .
58(4) . . .
51(4) . . .
44(4) . . .
43.3(34) . . .
50(4) . . .
53(4) . . .
51(4) . . .
53(4) . . .
55(4) . . .
62(4) . . .
55(4) . . .
49(4) . . .
56(4) . . .
50(4) . . .
61(4) . . .
54(4) . . .
58(4) . . .
42.0(33) . . .
52(4) . . .
59(4) . . .
40.6(34) . . .
49(4) . . .
55(4) . . .
52(4) . . .
55(4) . . .
51(4) . . .
53(4) . . .
56(4) . . .
45.2(35) . . .
56(4) . . .
49(4) . . .
45(4) . . .
52(4) . . .
47(4) . . .
49(4) . . .
61(4) . . .
55(4) . . .
58(4) . . .
56(4) . . .
52(4) . . .
61(4) . . .
62(4) . . .
51(4) . . .
44.8(35) . . .
49(4) . . .
55(4) . . .
52(4) . . .
57(4) . . .
48(4) . . .
54(4) . . .
51(4) . . .
51(4) . . .
53(4) . . .
50(4) . . .
55(4) . . .
68(5) . . .
48(4) . . .
49(4) . . .
54(4) . . .
52(4) . . .
57(4) . . .
55(4) . . .
49(4) . . .
49(4) . . .
68(5) . . .
60(4) . . .
54(4) . . .
57(4) . . .
56(4) . . .
50(4) . . .
44(4) . . .
58(4) . . .
61(4) . . .
51(4) . . .
51(4) . . .
55(4) . . .
46(4) . . .
52(4) . . .
48(4) . . .
43(4) . . .
46(4) . . .
54(4) . . .
55(4) . . .
49(4) . . .
49(4) . . .
42(4) . . .
50(4) . . .
46.9(35) . . .
50(4) . . .
54(4) . . .
55(4) . . .
49(4) . . .
56(4) . . .
65(4) . . .
55(4) . . .
59(4) . . .
46(4) . . .
55(4) . . .
48(4) . . .
48(4) . . .
47(4) . . .
52(4) . . .
65(4) . . .
54(4) . . .
68(4) . . .
56(4) . . .
54(4) . . .
60(4) . . .
57(4) . . .
57(4) . . .
54(4) . . .
55(4) . . .
49(4) . . .
53(4) . . .
54(4) . . .
49(4) . . .
57(4) . . .
51(4) . . .
46(4) . . .
53(4) . . .
48(4) . . .
51(4) . . .
55(4) . . .
50(4) . . .
50(4) . . .
60(4) . . .
59(4) . . .
47(4) . . .
48(4) . . .
56(4) . . .
59(4) . . .
54(4) . . .
42.2(33) . . .
60(4) . . .
57(4) . . .
50(4) . . .
52(4) . . .
53(4) . . .
47(4) . . .
46(4) . . .
58(4) . . .
52(4) . . .
55(4) . . .
46(4) . . .
54(4) . . .
60(4) . . .
53(4) . . .
55(4) . . .
54(4) . . .
54(4) . . .
54(4) . . .
58(4) . . .
49(4) . . .
51(4) . . .
47(4) . . .
49(4) . . .
64(4) . . .
60(4) . . .
50(4) . . .
55(4) . . .
55(4) . . .
57(4) . . .
47(4) . . .
42.4(35) . . .
51(4) . . .
54(4) . . .
51(4) . . .
55(4) . . .
56(4) . . .
58(4) . . .
48(4) . . .
42.5(34) . . .
38.6(33) . . .
40(4) . . .
56(4) . . .
54(4) . . .
48(4) . . .
59(4) . . .
59(4) . . .
57(4) . . .
49(4) . . .
50(4) . . .
50(4) . . .
55(4) . . .
60(4) . . .
52(4) . . .
51(4) . . .
48(4) . . .
58(4) . . .
46(4) . . .
51(4) . . .
45.7(35) . . .
45(4) . . .
45(4) . . .
55(4) . . .
46(4) . . .
45(4) . . .
56(4) . . .
53(4) . . .
55(4) . . .
68(4) . . .
55(4) . . .
56(4) . . .
48(4) . . .
48(4) . . .
52(4) . . .
54(4) . . .
56(4) . . .
55(4) . . .
62(4) . . .
50(4) . . .
49(4) . . .
42.5(35) . . .
55(4) . . .
53(4) . . .
60(4) . . .
55(4) . . .
55(4) . . .
53(4) . . .
54(4) . . .
48(4) . . .
45.5(35) . . .
55(4) . . .
52(4) . . .
63(4) . . .
66(4) . . .
54(4) . . .
59(4) . . .
58(4) . . .
58(4) . . .
57(4) . . .
57(4) . . .
56(4) . . .
62(4) . . .
49(4) . . .
47(4) . . .
57(4) . . .
56(4) . . .
58(4) . . .
47(4) . . .
51(4) . . .
58(4) . . .
53(4) . . .
47(4) . . .
61(4) . . .
51(4) . . .
56(4) . . .
62(5) . . .
47(4) . . .
53(4) . . .
43.3(34) . . .
49(4) . . .
49(4) . . .
48(4) . . .
59(4) . . .
52(4) . . .
43.4(34) . . .
55(4) . . .
52(4) . . .
56(4) . . .
61(4) . . .
55(4) . . .
51(4) . . .
49(4) . . .
48(4) . . .
45(4) . . .
47(4) . . .
51(4) . . .
41.1(34) . . .
51(4) . . .
47(4) . . .
51(4) . . .
57(4) . . .
50(4) . . .
55(4) . . .
54(4) . . .
58(4) . . .
56(4) . . .
52(4) . . .
48(4) . . .
51(4) . . .
51(4) . . .
53(4) . . .
53(4) . . .
57(4) . . .
49(4) . . .
53(4) . . .
50(4) . . .
48(4) . . .
46(4) . . .
50(4) . . .
51(4) . . .
51(4) . . .
52(4) . . .
50(4) . . .
54(4) . . .
50(4) . . .
52(4) . . .
60(4) . . .
46.4(35) . . .
53(4) . . .
41.8(34) . . .
52(4) . . .
59(4) . . .
45(4) . . .
53(4) . . .
46(4) . . .
47(4) . . .
51(4) . . .
49(4) . . .
59(4) . . .
56(4) . . .
54(4) . . .
51(4) . . .
50(4) . . .
49(4) . . .
41.2(35) . . .
46(4) . . .
49(4) . . .
45(4) . . .
53(4) . . .
60(4) . . .
53(4) . . .
60(4) . . .
56(4) . . .
60(4) . . .
46(4) . . .
44.0(34) . . .
57(4) . . .
50(4) . . .
48(4) . . .
51(4) . . .
44.3(35) . . .
49(4) . . .
57(4) . . .
60(4) . . .
58(4) . . .
62(4) . . .
53(4) . . .
45(4) . . .
47(4) . . .
49(4) . . .
52(4) . . .
59(4) . . .
50(4) . . .
49(4) . . .
53(4) . . .
53(4) . . .
48(4) . . .
49(4) . . .
49(4) . . .
53(4) . . .
48(4) . . .
56(4) . . .
61(4) . . .
61(5) . . .
45(4) . . .
46(4) . . .
48(4) . . .
50(4) . . .
50(4) . . .
51(4) . . .
43.8(34) . . .
47(4) . . .
47(4) . . .
57(4) . . .
52(4) . . .
53(4) . . .
47(4) . . .
40.5(35) . . .
54(4) . . .
51(4) . . .
57(4) . . .
47(4) . . .
60(4) . . .
50(4) . . .
53(4) . . .
53(4) . . .
59(4) . . .
51(4) . . .
54(4) . . .
50(4) . . .
55(4) . . .
50(4) . . .
51(4) . . .
51(4) . . .
51(4) . . .
50(4) . . .
58(4) . . .
51(4) . . .
51(4) . . .
49(4) . . .
61(4) . . .
51(4) . . .
49(4) . . .
44.4(35) . . .
56(4) . . .
51(4) . . .
52(4) . . .
70(5) . . .
54(4) . . .
50(4) . . .
50(4) . . .
47(4) . . .
53(4) . . .
44.8(35) . . .
50(4) . . .
44(4) . . .
57(4) . . .
54(4) . . .
44.2(35) . . .
54(4) . . .
58(4) . . .
59(4) . . .
56(4) . . .
48(4) . . .
45(4) . . .
52(4) . . .
46(4) . . .
52(4) . . .
47(4) . . .
60(4) . . .
57(4) . . .
50(4) . . .
47(4) . . .
53(4) . . .
56(4) . . .
60(4) . . .
49(4) . . .
58(4) . . .
48(4) . . .
53(4) . . .
56(4) . . .
54(4) . . .
44.3(35) . . .
48(4) . . .
47(4) . . .
48(4) . . .
47(4) . . .
54(4) . . .
60(4) . . .
62(4) . . .
55(4) . . .
54(4) . . .
50(4) . . .
49(4) . . .
55(4) . . .
52(4) . . .
56(4) . . .
53(4) . . .
55(4) . . .
60(5) . . .
54(4) . . .
51(4) . . .
50(4) . . .
56(4) . . .
48(4) . . .
48(4) . . .
52(4) . . .
58(4) . . .
60(4) . . .
54(4) . . .
42.8(34) . . .
51(4) . . .
50(4) . . .
53(4) . . .
46(4) . . .
45(4) . . .
51(4) . . .
48(4) . . .
58(4) . . .
57(4) . . .
55(4) . . .
56(4) . . .
64(4) . . .
54(4) . . .
49(4) . . .
41(4) . . .
45(4) . . .
55(4) . . .
44.5(35) . . .
43(4) . . .
45(4) . . .
56(4) . . .
43.5(34) . . .
39.6(34) . . .
51(4) . . .
54(4) . . .
49(4) . . .
45(4) . . .
49(4) . . .
48(4) . . .
45(4) . . .
50(4) . . .
56(4) . . .
55(4) . . .
55(4) . . .
57(4) . . .
51(4) . . .
40.8(33) . . .
48(4) . . .
48(4) . . .
55(4) . . .
59(4) . . .
57(4) . . .
47(4) . . .
46(4) . . .
58(4) . . .
48(4) . . .
51(4) . . .
49(4) . . .
48(4) . . .
51(4) . . .
52(4) . . .
54(4) . . .
45(4) . . .
54(4) . . .
53(4) . . .
56(4) . . .
63(4) . . .
49(4) . . .
54(4) . . .
48(4) . . .
61(4) . . .
50(4) . . .
47(4) . . .
51(4) . . .
48(4) . . .
50(4) . . .
51(4) . . .
58(4) . . .
50(4) . . .
53(4) . . .
50(4) . . .
44(4) . . .
46(4) . . .
45(4) . . .
45(4) . . .
44.8(35) . . .
44(4) . . .
55(4) . . .
41(4) . . .
44(4) . . .
51(4) . . .
48(4) . . .
48(4) . . .
49(4) . . .
54(4) . . .
53(4) . . .
42.5(34) . . .
54(4) . . .
51(4) . . .
51(4) . . .
53(4) . . .
40.3(33) . . .
50(4) . . .
54(4) . . .
47(4) . . .
42.7(34) . . .
50(4) . . .
45(4) . . .
60(4) . . .
56(4) . . .
53(4) . . .
46(4) . . .
48(4) . . .
64(4) . . .
56(4) . . .
55(4) . . .
49(4) . . .
59(4) . . .
51(4) . . .
47(4) . . .
47(4) . . .
46(4) . . .
53(4) . . .
59(4) . . .
51(4) . . .
45(4) . . .
48(4) . . .
46(4) . . .
48(4) . . .
54(4) . . .
48(4) . . .
56(4) . . .
56(4) . . .
46(4) . . .
57(4) . . .
60(4) . . .
47(4) . . .
53(4) . . .
55(4) . . .
48(4) . . .
54(4) . . .
54(4) . . .
45(4) . . .
47(4) . . .
42.5(33) . . .
62(4) . . .
62(4) . . .
51(4) . . .
64(4) . . .
52(4) . . .
58(4) . . .
49(4) . . .
56(4) . . .
52(4) . . .
52(4) . . .
48(4) . . .
46(4) . . .
51(4) . . .
45.4(35) . . .
56(4) . . .
48(4) . . .
47(4) . . .
53(4) . . .
54(4) . . .
67(4) . . .
55(4) . . .
41.7(34) . . .
48(4) . . .
49(4) . . .
59(4) . . .
56(4) . . .
62(5) . . .
50(4) . . .
44(4) . . .
48(4) . . .
63(4) . . .
50(4) . . .
53(4) . . .
50(4) . . .
57(4) . . .
57(4) . . .
51(4) . . .
56(4) . . .
50(4) . . .
46(4) . . .
50(4) . . .
51(4) . . .
56(4) . . .
52(4) . . .
44.1(35) . . .
51(4) . . .
53(4) . . .
50(4) . . .
52(4) . . .
45(4) . . .
58(4) . . .
44(4) . . .
45(4) . . .
51(4) . . .
59(4) . . .
48(4) . . .
51(4) . . .
52(4) . . .
50(4) . . .
42.7(34) . . .
52(4) . . .
48(4) . . .
57(4) . . .
47(4) . . .
55(4) . . .
58(4) . . .
52(4) . . .
39.8(32) . . .
70(4) . . .
46(4) . . .
44(4) . . .
53(4) . . .
56(4) . . .
53(4) . . .
41.6(34) . . .
49(4) . . .
54(4) . . .
42.8(34) . . .
58(4) . . .
49(4) . . .
43(4) . . .
48(4) . . .
54(4) . . .
50(4) . . .
44.5(34) . . .
50(4) . . .
56(4) . . .
47(4) . . .
56(4) . . .
50(4) . . .
66(5) . . .
52(4) . . .
47(4) . . .
61(4) . . .
49(4) . . .
52(4) . . .
53(4) . . .
49(4) . . .
51(4) . . .
58(4) . . .
55(4) . . .
50(4) . . .
55(4) . . .
51(4) . . .
38.7(33) . . .
57(4) . . .
54(4) . . .
48(4) . . .
54(4) . . .
49(4) . . .
52(4) . . .
54(4) . . .
60(4) . . .
57(4) . . .
51(4) . . .
46(4) . . .
52(4) . . .
48(4) . . .
51(4) . . .
43(4) . . .
52(4) . . .
60(4) . . .
42.3(34) . . .
55(4) . . .
53(4) . . .
44.2(35) . . .
39.0(33) . . .
42.6(34) . . .
45(4) . . .
47(4) . . .
47(4) . . .
41.4(33) . . .
55(4) . . .
48(4) . . .
45.8(35) . . .
57(4) . . .
52(4) . . .
50(4) . . .
50(4) . . .
60(5) . . .
55(4) . . .
51(4) . . .
54(4) . . .
55(4) . . .
54(4) . . .
56(4) . . .
50(4) . . .
51(4) . . .
44.6(35) . . .
49(4) . . .
44.7(35) . . .
57(4) . . .
54(4) . . .
42.4(34) . . .
58(4) . . .
42.4(34) . . .
45(4) . . .
48(4) . . .
45(4) . . .
56(4) . . .
48(4) . . .
49(4) . . .
55(4) . . .
59(4) . . .
57(4) . . .
54(4) . . .
43.7(34) . . .
54(4) . . .
46(4) . . .
45(4) . . .
47(4) . . .
45(4) . . .
47(4) . . .
61(4) . . .
67(4) . . .
53(4) . . .
48(4) . . .
63(4) . . .
59(4) . . .
53(4) . . .
40.8(33) . . .
42.8(34) . . .
55(4) . . .
40(4) . . .
49(4) . . .
51(4) . . .
41.0(33) . . .
51(4) . . .
45(4) . . .
43.0(34) . . .
54(4) . . .
48(4) . . .
46(4) . . .
55(4) . . .
57(4) . . .
54(4) . . .
56(4) . . .
40.3(33) . . .
47(4) . . .
50(4) . . .
53(4) . . .
56(4) . . .
42.6(34) . . .
60(4) . . .
49(4) . . .
51(4) . . .
40.8(35) . . .
36.3(33) . . .
49(4) . . .
44.4(34) . . .
39.2(33) . . .
42.0(34) . . .
53(4) . . .
47(4) . . .
52(4) . . .
57(4) . . .
45(4) . . .
54(4) . . .
59(4) . . .
53(4) . . .
45.1(35) . . .
52(4) . . .
55(4) . . .
53(4) . . .
50(4) . . .
43.4(34) . . .
51(4) . . .
47(4) . . .
45(4) . . .
58(4) . . .
54(4) . . .
51(4) . . .
39.6(34) . . .
48(4) . . .
48(4) . . .
48(4) . . .
46(4) . . .
44(4) . . .
44(4) . . .
50(4) . . .
52(4) . . .
55(4) . . .
54(4) . . .
45(4) . . .
47(4) . . .
51(4) . . .
48(4) . . .
49(4) . . .
41.0(34) . . .
47(4) . . .
63(4) . . .
55(4) . . .
46(4) . . .
46(4) . . .
60(4) . . .
51(4) . . .
51(4) . . .
43.7(35) . . .
47(4) . . .
48(4) . . .
47(4) . . .
45(4) . . .
50(4) . . .
53(4) . . .
53(4) . . .
49(4) . . .
49(4) . . .
63(4) . . .
41.9(33) . . .
44.3(35) . . .
53(4) . . .
46(4) . . .
45.3(35) . . .
47(4) . . .
45(4) . . .
52(4) . . .
43.7(33) . . .
51(4) . . .
50(4) . . .
54(4) . . .
51(4) . . .
43(4) . . .
43(4) . . .
44.7(35) . . .
55(4) . . .
55(4) . . .
48(4) . . .
46(4) . . .
53(4) . . .
47(4) . . .
51(4) . . .
47(4) . . .
51(4) . . .
53(4) . . .
45(4) . . .
57(4) . . .
62(5) . . .
54(4) . . .
47(4) . . .
52(4) . . .
47(4) . . .
59(4) . . .
41.3(33) . . .
50(4) . . .
58(4) . . .
51(4) . . .
40(4) . . .
39(4) . . .
49(4) . . .
40.6(33) . . .
48(4) . . .
50(4) . . .
48(4) . . .
51(4) . . .
50(4) . . .
49(4) . . .
47(4) . . .
61(4) . . .
54(4) . . .
49(4) . . .
59(5) . . .
52(4) . . .
56(4) . . .
43.1(34) . . .
44.0(34) . . .
49(4) . . .
51(4) . . .
52(4) . . .
44.5(34) . . .
48(4) . . .
45(4) . . .
48(4) . . .
49(4) . . .
52(4) . . .
47(4) . . .
58(4) . . .
44(4) . . .
36.8(31) . . .
43.4(34) . . .
50(4) . . .
48(4) . . .
46(4) . . .
41.8(34) . . .
51(4) . . .
50(4) . . .
49(4) . . .
53(4) . . .
51(4) . . .
50(4) . . .
48(4) . . .
41(4) . . .
45(4) . . .
49(4) . . .
56(4) . . .
46(4) . . .
60(4) . . .
52(4) . . .
60(4) . . .
51(4) . . .
47(4) . . .
45.0(34) . . .
49(4) . . .
47(4) . . .
47(4) . . .
50(4) . . .
50(4) . . .
50(4) . . .
48(4) . . .
38.3(32) . . .
54(4) . . .
47(4) . . .
53(4) . . .
42.6(34) . . .
53(4) . . .
48(4) . . .
42.2(35) . . .
38.3(33) . . .
42.7(34) . . .
43.5(34) . . .
52(4) . . .
58(4) . . .
50(4) . . .
45.3(35) . . .
52(4) . . .
48(4) . . .
58(4) . . .
46(4) . . .
51(4) . . .
48(4) . . .
44(4) . . .
52(4) . . .
53(4) . . .
48(4) . . .
53(4) . . .
45(4) . . .
52(4) . . .
49(4) . . .
43.6(35) . . .
49(4) . . .
36.4(34) . . .
51(4) . . .
52(4) . . .
37.5(32) . . .
48(4) . . .
51(4) . . .
61(4) . . .
51(4) . . .
49(4) . . .
46(4) . . .
48(4) . . .
46(4) . . .
42.2(34) . . .
50(4) . . .
59(4) . . .
52(4) . . .
47(4) . . .
42.6(34) . . .
48(4) . . .
55(4) . . .
50(4) . . .
60(4) . . .
53(4) . . .
48(4) . . .
54(4) . . .
45(4) . . .
51(4) . . .
46(4) . . .
47(4) . . .
52(4) . . .
42.8(35) . . .
50(4) . . .
49(4) . . .
42(4) . . .
34.5(32) . . .
48(4) . . .
43.7(34) . . .
48(4) . . .
44(4) . . .
47(4) . . .
37.9(32) . . .
44(4) . . .
45(4) . . .
53(4) . . .
63(4) . . .
52(4) . . .
46(4) . . .
47(4) . . .
57(4) . . .
53(4) . . .
66(5) . . .
53(4) . . .
55(4) . . .
45(4) . . .
49(4) . . .
57(4) . . .
49(4) . . .
47(4) . . .
46(4) . . .
40.0(34) . . .
52(4) . . .
52(4) . . .
52(4) . . .
49(4) . . .
47(4) . . .
49(4) . . .
39.9(33) . . .
48(4) . . .
44(4) . . .
49(4) . . .
51(4) . . .
42.5(33) . . .
43(4) . . .
46(4) . . .
56(4) . . .
58(4) . . .
45.5(35) . . .
43.9(35) . . .
61(5) . . .
48(4) . . .
45.0(34) . . .
61(4) . . .
49(4) . . .
48(4) . . .
38(4) . . .
51(4) . . .
63(4) . . .
54(4) . . .
44(4) . . .
40.0(33) . . .
56(4) . . .
49(4) . . .
53(4) . . .
41(4) . . .
52(4) . . .
58(4) . . .
61(4) . . .
58(4) . . .
49(4) . . .
62(4) . . .
57(4) . . .
50(4) . . .
46(4) . . .
51(4) . . .
39.8(34) . . .
55(4) . . .
50(4) . . .
46(4) . . .
55(4) . . .
39.4(33) . . .
45.2(35) . . .
51(4) . . .
45(4) . . .
48(4) . . .
51(4) . . .
62(4) . . .
52(4) . . .
44(4) . . .
47(4) . . .
52(4) . . .
50(4) . . .
49(4) . . .
48(4) . . .
45(4) . . .
40.5(33) . . .
53(4) . . .
47(4) . . .
45(4) . . .
53(4) . . .
50(4) . . .
40.9(33) . . .
44(4) . . .
36.6(33) . . .
41.6(35) . . .
50(4) . . .
48(4) . . .
44(4) . . .
46(4) . . .
48(4) . . .
63(4) . . .
55(4) . . .
48(4) . . .
54(4) . . .
57(4) . . .
65(4) . . .
50(4) . . .
46(4) . . .
64(4) . . .
49(4) . . .
42.9(34) . . .
54(4) . . .
42(4) . . .
54(4) . . .
46(4) . . .
47(4) . . .
42.0(35) . . .
49(4) . . .
47(4) . . .
51(4) . . .
42.3(34) . . .
45(4) . . .
43(4) . . .
53(4) . . .
51(4) . . .
48(4) . . .
53(4) . . .
54(4) . . .
52(4) . . .
47(4) . . .
39.2(33) . . .
50(4) . . .
50(4) . . .
53(4) . . .
50(4) . . .
52(4) . . .
40.0(33) . . .
40.3(35) . . .
42(4) . . .
44.0(34) . . .
53(4) . . .
55(4) . . .
49(4) . . .
52(4) . . .
53(4) . . .
48(4) . . .
50(4) . . .
46(4) . . .
49(4) . . .
42.9(34) . . .
41.4(35) . . .
55(4) . . .
48(4) . . .
51(4) . . .
48(4) . . .
59(4) . . .
54(4) . . .
45(4) . . .
44(4) . . .
59(4) . . .
51(4) . . .
43.3(35) . . .
44(4) . . .
57(4) . . .
50(4) . . .
46(4) . . .
52(4) . . .
43.8(35) . . .
48(4) . . .
50(4) . . .
50(4) . . .
54(4) . . .
55(4) . . .
49(4) . . .
49(4) . . .
51(4) . . .
43(4) . . .
44(4) . . .
49(4) . . .
53(4) . . .
45(4) . . .
50(4) . . .
49(4) . . .
44(4) . . .
41.7(33) . . .
36.5(32) . . .
44(4) . . .
50(4) . . .
51(4) . . .
46(4) . . .
51(4) . . .
61(4) . . .
56(4) . . .
53(4) . . .
47(4) . . .
54(4) . . .
47(4) . . .
50(4) . . .
47(4) . . .
50(4) . . .
47(4) . . .
45(4) . . .
57(4) . . .
48(4) . . .
41.8(34) . . .
38.0(31) . . .
51(4) . . .
45(4) . . .
42.8(34) . . .
40.2(33) . . .
50(4) . . .
58(4) . . .
46(4) . . .
51(4) . . .
48(4) . . .
51(4) . . .
52(4) . . .
46(4) . . .
55(4) . . .
51(4) . . .
42.4(34) . . .
41.9(33) . . .
50(4) . . .
38.9(32) . . .
51(4) . . .
47(4) . . .
40.3(33) . . .
50(4) . . .
44.7(35) . . .
54(4) . . .
52(4) . . .
43(4) . . .
41.7(33) . . .
43.7(34) . . .
47(4) . . .
51(4) . . .
43.8(35) . . .
50(4) . . .
47(4) . . .
60(4) . . .
43(4) . . .
53(4) . . .
39.0(32) . . .
47(4) . . .
43.9(35) . . .
51(4) . . .
40.4(33) . . .
42.4(35) . . .
45.5(35) . . .
49(4) . . .
45(4) . . .
48(4) . . .
43.2(35) . . .
44(4) . . .
39.0(33) . . .
57(4) . . .
46(4) . . .
52(4) . . .
53(4) . . .
43.3(35) . . .
44.0(35) . . .
55(4) . . .
48(4) . . .
45(4) . . .
50(4) . . .
49(4) . . .
52(4) . . .
44.6(34) . . .
49(4) . . .
41.2(34) . . .
44(4) . . .
48(4) . . .
42.9(34) . . .
52(4) . . .
43(4) . . .
46(4) . . .
41.9(34) . . .
42.0(34) . . .
53(4) . . .
59(4) . . .
44.4(35) . . .
48(4) . . .
46(4) . . .
40.3(33) . . .
53(4) . . .
52(4) . . .
53(4) . . .
59(4) . . .
53(4) . . .
46(4) . . .
48(4) . . .
52(4) . . .
53(4) . . .
52(4) . . .
43(4) . . .
45(4) . . .
53(4) . . .
46(4) . . .
48(4) . . .
48(4) . . .
45(4) . . .
46(4) . . .
39.4(32) . . .
51(4) . . .
42(4) . . .
51(4) . . .
49(4) . . .
47(4) . . .
50(4) . . .
61(5) . . .
43.5(34) . . .
39.1(32) . . .
51(4) . . .
45(4) . . .
47(4) . . .
41.1(34) . . .
49(4) . . .
49(4) . . .
50(4) . . .
49(4) . . .
45(4) . . .
51(4) . . .
51(4) . . .
49(4) . . .
47(4) . . .
45(4) . . .
49(4) . . .
46(4) . . .
56(4) . . .
50(4) . . .
57(4) . . .
56(4) . . .
55(4) . . .
45(4) . . .
46(4) . . .
46.5(35) . . .
50(4) . . .
43.2(35) . . .
57(4) . . .
47(4) . . .
45(4) . . .
44.5(35) . . .
51(4) . . .
54(4) . . .
46(4) . . .
52(4) . . .
41.7(33) . . .
46(4) . . .
58(4) . . .
60(4) . . .
50(4) . . .
51(4) . . .
36.9(33) . . .
41(4) . . .
44(4) . . .
55(4) . . .
49(4) . . .
42.0(35) . . .
45(4) . . .
45(4) . . .
43.2(34) . . .
51(4) . . .
53(4) . . .
49(4) . . .
51(4) . . .
56(4) . . .
48(4) . . .
47(4) . . .
52(4) . . .
53(4) . . .
43.0(34) . . .
54(4) . . .
44(4) . . .
42.3(34) . . .
54(4) . . .
40.6(33) . . .
47(4) . . .
51(4) . . .
50(4) . . .
46(4) . . .
44.0(35) . . .
50(4) . . .
54(4) . . .
53(4) . . .
41.4(34) . . .
46(4) . . .
54(4) . . .
50(4) . . .
58(4) . . .
43.8(34) . . .
43.5(34) . . .
51(4) . . .
44(4) . . .
50(4) . . .
47(4) . . .
51(4) . . .
60(4) . . .
54(4) . . .
52(4) . . .
54(4) . . .
44.6(34) . . .
42.1(33) . . .
52(4) . . .
51(4) . . .
37.9(32) . . .
35.8(33) . . .
38.9(34) . . .
43(4) . . .
47(4) . . .
49(4) . . .
40.7(33) . . .
46(4) . . .
49(4) . . .
48(4) . . .
53(4) . . .
47(4) . . .
40.4(33) . . .
50(4) . . .
51(4) . . .
47(4) . . .
46(4) . . .
49(4) . . .
48(4) . . .
48(4) . . .
40.7(33) . . .
50(4) . . .
43(4) . . .
46(4) . . .
43.5(34) . . .
49(4) . . .
43.4(35) . . .
60(4) . . .
47(4) . . .
51(4) . . .
52(4) . . .
58(4) . . .
48(4) . . .
53(4) . . .
52(4) . . .
50(4) . . .
40.3(33) . . .
46(4) . . .
52(4) . . .
50(4) . . .
51(4) . . .
51(4) . . .
46(4) . . .
37.7(32) . . .
64(5) . . .
41.5(34) . . .
40.7(34) . . .
42(4) . . .
47(4) . . .
49(4) . . .
53(4) . . .
41.1(34) . . .
42.8(35) . . .
46(4) . . .
49(4) . . .
54(4) . . .
57(4) . . .
51(4) . . .
50(4) . . .
59(4) . . .
53(4) . . .
52(4) . . .
44(4) . . .
47(4) . . .
47(4) . . .
50(4) . . .
50(4) . . .
52(4) . . .
54(4) . . .
62(4) . . .
47(4) . . .
52(4) . . .
53(4) . . .
55(4) . . .
41.2(34) . . .
51(4) . . .
37.5(34) . . .
51(4) . . .
48(4) . . .
40.9(33) . . .
54(4) . . .
61(4) . . .
44(4) . . .
52(4) . . .
48(4) . . .
47(4) . . .
47(4) . . .
51(4) . . .
54(4) . . .
48(4) . . .
51(4) . . .
52(4) . . .
41.7(34) . . .
43.7(34) . . .
42.9(34) . . .
46(4) . . .
48(4) . . .
55(4) . . .
48(4) . . .
42.8(34) . . .
45(4) . . .
55(4) . . .
54(4) . . .
42.6(34) . . .
50(4) . . .
52(4) . . .
51(4) . . .
53(4) . . .
58(4) . . .
45(4) . . .
45(4) . . .
46(4) . . .
48(4) . . .
48(4) . . .
46(4) . . .
41.8(35) . . .
42(4) . . .
43(4) . . .
52(4) . . .
56(4) . . .
46(4) . . .
47(4) . . .
46(4) . . .
42.9(34) . . .
49(4) . . .
48(4) . . .
43(4) . . .
44(4) . . .
47(4) . . .
37.2(33) . . .
47(4) . . .
58(4) . . .
43.2(34) . . .
46(4) . . .
46(4) . . .
41(4) . . .
48(4) . . .
46(4) . . .
44.9(35) . . .
39.9(33) . . .
51(4) . . .
47(4) . . .
49(4) . . .
49(4) . . .
50(4) . . .
47(4) . . .
41.5(34) . . .
47(4) . . .
43.1(34) . . .
56(4) . . .
42(4) . . .
53(4) . . .
49(4) . . .
50(4) . . .
40.8(34) . . .
53(4) . . .
52(4) . . .
45.0(35) . . .
43(4) . . .
54(4) . . .
44(4) . . .
46(4) . . .
51(4) . . .
48(4) . . .
47(4) . . .
50(4) . . .
54(4) . . .
62(4) . . .
40.2(34) . . .
52(4) . . .
47(4) . . .
39.2(33) . . .
39.6(33) . . .
46(4) . . .
38.9(34) . . .
56(4) . . .
58(4) . . .
45.6(35) . . .
45(4) . . .
43(4) . . .
40(4) . . .
40.5(34) . . .
49(4) . . .
50(4) . . .
55(4) . . .
50(4) . . .
49(4) . . .
54(4) . . .
50(4) . . .
48(4) . . .
44(4) . . .
43.0(34) . . .
41.9(34) . . .
43.6(35) . . .
53(4) . . .
55(4) . . .
57(4) . . .
45.6(35) . . .
42.1(34) . . .
48(4) . . .
50(4) . . .
46(4) . . .
50(4) . . .
46(4) . . .
52(4) . . .
49(4) . . .
45.9(35) . . .
46(4) . . .
55(4) . . .
50(4) . . .
44.7(34) . . .
46(4) . . .
47(4) . . .
51(4) . . .
47(4) . . .
47(4) . . .
52(4) . . .
43.7(35) . . .
46(4) . . .
47(4) . . .
60(4) . . .
44.8(35) . . .
47(4) . . .
44(4) . . .
54(4) . . .
43.8(35) . . .
52(4) . . .
54(4) . . .
45(4) . . .
52(4) . . .
52(4) . . .
50(4) . . .
52(4) . . .
54(4) . . .
42(4) . . .
38.5(33) . . .
44.3(35) . . .
49(4) . . .
44(4) . . .
52(4) . . .
44.5(35) . . .
50(4) . . .
54(4) . . .
57(4) . . .
36.6(32) . . .
51(4) . . .
38.0(33) . . .
50(4) . . .
60(5) . . .
35.7(31) . . .
44.7(34) . . .
41.7(34) . . .
46(4) . . .
44(4) . . .
52(4) . . .
39.8(33) . . .
50(4) . . .
46(4) . . .
37.4(32) . . .
57(4) . . .
43.2(34) . . .
40.9(34) . . .
50(4) . . .
46(4) . . .
58(4) . . .
49(4) . . .
50(4) . . .
50(4) . . .
46(4) . . .
51(4) . . .
47(4) . . .
46(4) . . .
38.5(33) . . .
51(4) . . .
43.9(34) . . .
50(4) . . .
47(4) . . .
45(4) . . .
43(4) . . .
51(4) . . .
54(4) . . .
45(4) . . .
41.3(34) . . .
52(4) . . .
41.4(33) . . .
54(4) . . .
58(4) . . .
53(4) . . .
54(4) . . .
56(4) . . .
48(4) . . .
56(4) . . .
42.3(34) . . .
48(4) . . .
49(4) . . .
55(4) . . .
47(4) . . .
39.9(33) . . .
51(4) . . .
41.1(33) . . .
42.2(34) . . .
47(4) . . .
42.6(35) . . .
43(4) . . .
38.1(32) . . .
39.8(33) . . .
50(4) . . .
46(4) . . .
53(4) . . .
48(4) . . .
52(4) . . .
44.6(35) . . .
45(4) . . .
52(4) . . .
50(4) . . .
35.6(31) . . .
49(4) . . .
67(5) . . .
52(4) . . .
44.3(34) . . .
49(4) . . .
49(4) . . .
48(4) . . .
50(4) . . .
47(4) . . .
51(4) . . .
47(4) . . .
49(4) . . .
54(4) . . .
54(4) . . .
45(4) . . .
51(4) . . .
40.8(35) . . .
39.0(32) . . .
50(4) . . .
48(4) . . .
43(4) . . .
45(4) . . .
38.8(33) . . .
48(4) . . .
48(4) . . .
52(4) . . .
42.1(35) . . .
41.9(34) . . .
51(4) . . .
50(4) . . .
51(4) . . .
47(4) . . .
48(4) . . .
51(4) . . .
55(4) . . .
48(4) . . .
47(4) . . .
45(4) . . .
39.6(33) . . .
51(4) . . .
37.4(33) . . .
45(4) . . .
47(4) . . .
49(4) . . .
43.1(35) . . .
52(4) . . .
54(4) . . .
58(4) . . .
51(4) . . .
49(4) . . .
42.7(33) . . .
38.3(32) . . .
55(4) . . .
58(4) . . .
49(4) . . .
58(4) . . .
40.1(34) . . .
53(4) . . .
45(4) . . .
48(4) . . .
49(4) . . .
51(4) . . .
48(4) . . .
47(4) . . .
52(4) . . .
48(4) . . .
46(4) . . .
49(4) . . .
58(4) . . .
45(4) . . .
51(4) . . .
51(4) . . .
42.8(34) . . .
45(4) . . .
54(4) . . .
55(4) . . .
46(4) . . .
56(4) . . .
55(4) . . .
47(4) . . .
48(4) . . .
42.9(34) . . .
41.5(34) . . .
48(4) . . .
47(4) . . .
42.4(34) . . .
42.6(33) . . .
44(4) . . .
39.2(33) . . .
53(4) . . .
56(4) . . .
51(4) . . .
43.0(34) . . .
41.5(33) . . .
49(4) . . .
42.8(34) . . .
51(4) . . .
54(4) . . .
45(4) . . .
47(4) . . .
46(4) . . .
40.3(33) . . .
44.5(35) . . .
56(4) . . .
47(4) . . .
44(4) . . .
50(4) . . .
43.3(35) . . .
44(4) . . .
44(4) . . .
47(4) . . .
46.3(35) . . .
52(4) . . .
43(4) . . .
46(4) . . .
50(4) . . .
48(4) . . .
56(4) . . .
54(4) . . .
47(4) . . .
56(4) . . .
57(4) . . .
50(4) . . .
37.2(35) . . .
47(4) . . .
41.5(34) . . .
47(4) . . .
39.3(35) . . .
45(4) . . .
44(4) . . .
43.5(34) . . .
52(4) . . .
46.1(35) . . .
44(4) . . .
47(4) . . .
49(4) . . .
53(4) . . .
36.0(32) . . .
48(4) . . .
51(4) . . .
52(4) . . .
50(4) . . .
46(4) . . .
51(4) . . .
56(4) . . .
55(4) . . .
54(4) . . .
53(4) . . .
49(4) . . .
43.1(35) . . .
45(4) . . .
46(4) . . .
47(4) . . .
51(4) . . .
45(4) . . .
49(4) . . .
46(4) . . .
49(4) . . .
50(4) . . .
48(4) . . .
57(4) . . .
49(4) . . .
43.9(33) . . .
46(4) . . .
51(4) . . .
48(4) . . .
42.4(34) . . .
52(4) . . .
49(4) . . .
49(4) . . .
49(4) . . .
38.1(34) . . .
47(4) . . .
44.8(34) . . .
37.9(33) . . .
37.9(32) . . .
41.5(33) . . .
51(4) . . .
49(4) . . .
46(4) . . .
40.5(34) . . .
36.3(31) . . .
43.6(35) . . .
44.4(35) . . .
54(4) . . .
42.1(34) . . .
45(4) . . .
37.8(32) . . .
46(4) . . .
43.5(34) . . .
48(4) . . .
54(4) . . .
51(4) . . .
48(4) . . .
43.4(34) . . .
43.5(35) . . .
48(4) . . .
42(4) . . .
48(4) . . .
45(4) . . .
53(4) . . .
50(4) . . .
41.7(35) . . .
49(4) . . .
44.7(35) . . .
44.1(34) . . .
57(4) . . .
49(4) . . .
45(4) . . .
48(4) . . .
46(4) . . .
39.1(35) . . .
36.0(31) . . .
43(4) . . .
40.8(33) . . .
37.0(33) . . .
53(4) . . .
55(4) . . .
41(4) . . .
44.2(35) . . .
47(4) . . .
55(4) . . .
38.9(33) . . .
51(4) . . .
47(4) . . .
46(4) . . .
47(4) . . .
40.0(34) . . .
52(4) . . .
53(4) . . .
50(4) . . .
47(4) . . .
48(4) . . .
43.8(35) . . .
51(4) . . .
52(4) . . .
41(4) . . .
47(4) . . .
59(4) . . .
52(4) . . .
44.2(35) . . .
50(4) . . .
50(4) . . .
49(4) . . .
51(4) . . .
48(4) . . .
52(4) . . .
48(4) . . .
50(4) . . .
50(4) . . .
51(4) . . .
59(4) . . .
40.9(33) . . .
47(4) . . .
45(4) . . .
43(4) . . .
46(4) . . .
51(4) . . .
55(4) . . .
46(4) . . .
52(4) . . .
47(4) . . .
35.3(31) . . .
54(4) . . .
48(4) . . .
54(4) . . .
53(4) . . .
58(4) . . .
53(4) . . .
41.7(35) . . .
52(4) . . .
43(4) . . .
42.8(35) . . .
39.5(33) . . .
43.8(35) . . .
47(4) . . .
53(4) . . .
56(4) . . .
55(4) . . .
57(4) . . .
61(5) . . .
49(4) . . .
38.7(32) . . .
52(4) . . .
50(4) . . .
52(4) . . .
45(4) . . .
49(4) . . .
46(4) . . .
54(4) . . .
51(4) . . .
44(4) . . .
40.0(33) . . .
46(4) . . .
47(4) . . .
51(4) . . .
47(4) . . .
45.0(35) . . .
43.5(35) . . .
45(4) . . .
45(4) . . .
39.8(33) . . .
47(4) . . .
50(4) . . .
56(4) . . .
45(4) . . .
56(4) . . .
37.7(32) . . .
45(4) . . .
51(4) . . .
44(4) . . .
53(4) . . .
53(4) . . .
53(4) . . .
43(4) . . .
47(4) . . .
41.4(34) . . .
48(4) . . .
51(4) . . .
63(5) . . .
56(4) . . .
46(4) . . .
32.1(29) . . .
48(4) . . .
54(4) . . .
46(4) . . .
44.5(34) . . .
52(4) . . .
37.9(34) . . .
36.7(33) . . .
49(4) . . .
39.0(32) . . .
48(4) . . .
46(4) . . .
37.3(33) . . .
49(4) . . .
48(4) . . .
43.2(35) . . .
51(4) . . .
54(4) . . .
42(4) . . .
48(4) . . .
43.4(35) . . .
48(4) . . .
58(4) . . .
55(4) . . .
53(4) . . .
37.9(32) . . .
50(4) . . .
50(4) . . .
44(4) . . .
36.0(31) . . .
47(4) . . .
47(4) . . .
50(4) . . .
49(4) . . .
52(4) . . .
44(4) . . .
42.8(35) . . .
45(4) . . .
48(4) . . .
46(4) . . .
45(4) . . .
49(4) . . .
45(4) . . .
53(4) . . .
60(4) . . .
45(4) . . .
40.7(33) . . .
46(4) . . .
42.1(34) . . .
47(4) . . .
56(4) . . .
41.9(35) . . .
52(4) . . .
38.8(32) . . .
37.5(31) . . .
39.7(33) . . .
50(4) . . .
40.0(33) . . .
35.4(31) . . .
35.8(31) . . .
44(4) . . .
51(4) . . .
36.2(32) . . .
41.1(33) . . .
51(4) . . .
43.1(35) . . .
54(4) . . .
52(4) . . .
48(4) . . .
47(4) . . .
52(4) . . .
55(4) . . .
54(4) . . .
47(4) . . .
53(4) . . .
44(4) . . .
47(4) . . .
42.5(34) . . .
41.7(34) . . .
46(4) . . .
50(4) . . .
54(4) . . .
43.5(35) . . .
53(4) . . .
47(4) . . .
44(4) . . .
44(4) . . .
44(4) . . .
48(4) . . .
52(4) . . .
49(4) . . .
41.9(34) . . .
52(4) . . .
48(4) . . .
50(4) . . .
42.8(35) . . .
55(4) . . .
41.7(33) . . .
48(4) . . .
37.5(32) . . .
48(4) . . .
54(4) . . .
49(4) . . .
42.8(34) . . .
46(4) . . .
41(4) . . .
38.9(34) . . .
55(4) . . .
51(4) . . .
54(4) . . .
46(4) . . .
44(4) . . .
42.0(33) . . .
42.2(34) . . .
45(4) . . .
52(4) . . .
45(4) . . .
40.4(33) . . .
40.8(33) . . .
47(4) . . .
52(4) . . .
50(4) . . .
43.9(35) . . .
47(4) . . .
43.6(35) . . .
48(4) . . .
40.4(34) . . .
51(4) . . .
50(4) . . .
50(4) . . .
47(4) . . .
58(4) . . .
54(4) . . .
44(4) . . .
46(4) . . .
47(4) . . .
49(4) . . .
48(4) . . .
49(4) . . .
50(4) . . .
45(4) . . .
43.5(35) . . .
40.6(34) . . .
46(4) . . .
40.9(34) . . .
50(4) . . .
48(4) . . .
49(4) . . .
49(4) . . .
45(4) . . .
42.8(35) . . .
43.8(34) . . .
49(4) . . .
50(4) . . .
53(4) . . .
52(4) . . .
58(4) . . .
48(4) . . .
55(4) . . .
49(4) . . .
47(4) . . .
51(4) . . .
41.5(33) . . .
48(4) . . .
37.6(34) . . .
45(4) . . .
48(4) . . .
47(4) . . .
37.2(31) . . .
46(4) . . .
56(4) . . .
45(4) . . .
48(4) . . .
38.6(32) . . .
59(4) . . .
44(4) . . .
41.9(34) . . .
46(4) . . .
46(4) . . .
50(4) . . .
41.9(34) . . .
44.5(35) . . .
53(4) . . .
47(4) . . .
47(4) . . .
42.9(35) . . .
46(4) . . .
46(4) . . .
42(4) . . .
42(4) . . .
48(4) . . .
48(4) . . .
52(4) . . .
46(4) . . .
48(4) . . .
55(4) . . .
44.9(35) . . .
39.9(33) . . .
38.7(34) . . .
53(4) . . .
54(4) . . .
48(4) . . .
49(4) . . .
50(4) . . .
51(4) . . .
43.2(34) . . .
40.9(35) . . .
39.8(35) . . .
54(4) . . .
53(4) . . .
44.0(34) . . .
46.5(35) . . .
43.8(35) . . .
58(5) . . .
44(4) . . .
48(4) . . .
39.8(33) . . .
43.4(34) . . .
47(4) . . .
53(4) . . .
43.2(34) . . .
56(4) . . .
57(4) . . .
49(4) . . .
44(4) . . .
43.1(34) . . .
46(4) . . .
41.2(33) . . .
50(4) . . .
40.5(34) . . .
46(4) . . .
51(4) . . .
43(4) . . .
42(4) . . .
45(4) . . .
49(4) . . .
54(4) . . .
41.3(34) . . .
46(4) . . .
50(4) . . .
51(4) . . .
43(4) . . .
35.0(34) . . .
37.3(34) . . .
41.2(35) . . .
54(4) . . .
54(4) . . .
51(4) . . .
42.5(35) . . .
39.2(34) . . .
49(4) . . .
50(4) . . .
41.2(34) . . .
55(4) . . .
50(4) . . .
56(4) . . .
57(4) . . .
47(4) . . .
44(4) . . .
49(4) . . .
44.4(34) . . .
50(4) . . .
51(4) . . .
42.7(34) . . .
44.3(34) . . .
43.8(35) . . .
54(4) . . .
52(4) . . .
49(4) . . .
53(4) . . .
43.1(34) . . .
43(4) . . .
50(4) . . .
52(4) . . .
50(4) . . .
51(4) . . .
49(4) . . .
51(4) . . .
50(4) . . .
44.3(35) . . .
40.4(34) . . .
41(4) . . .
46(4) . . .
43(4) . . .
51(4) . . .
51(4) . . .
44(4) . . .
46(4) . . .
55(4) . . .
43.2(34) . . .
38.1(32) . . .
59(5) . . .
40.5(32) . . .
52(4) . . .
40.6(34) . . .
38.1(32) . . .
46(4) . . .
32.8(32) . . .
49(4) . . .
50(4) . . .
56(4) . . .
48(4) . . .
46(4) . . .
47(4) . . .
41.8(34) . . .
44(4) . . .
52(4) . . .
52(4) . . .
45(4) . . .
40.5(33) . . .
58(4) . . .
48(4) . . .
45(4) . . .
51(4) . . .
60(4) . . .
36.2(31) . . .
45(4) . . .
49(4) . . .
46(4) . . .
38.2(32) . . .
53(4) . . .
47(4) . . .
52(4) . . .
51(4) . . .
40.7(34) . . .
46(4) . . .
49(4) . . .
49(4) . . .
43.7(34) . . .
53(4) . . .
46(4) . . .
54(4) . . .
37.9(32) . . .
49(4) . . .
47(4) . . .
36.8(31) . . .
58(4) . . .
48(4) . . .
44.5(35) . . .
42.5(34) . . .
42(4) . . .
45(4) . . .
46(4) . . .
40.9(34) . . .
45(4) . . .
47(4) . . .
52(4) . . .
51(4) . . .
42.7(34) . . .
48(4) . . .
42(4) . . .
43(4) . . .
47(4) . . .
49(4) . . .
40.3(34) . . .
45(4) . . .
49(4) . . .
43.6(34) . . .
45(4) . . .
43.6(35) . . .
44(4) . . .
48(4) . . .
54(4) . . .
49(4) . . .
42.7(34) . . .
40.6(34) . . .
45(4) . . .
50(4) . . .
52(4) . . .
51(4) . . .
47(4) . . .
53(4) . . .
53(4) . . .
42.7(35) . . .
44(4) . . .
48(4) . . .
38.3(33) . . .
42.7(34) . . .
39.2(32) . . .
53(4) . . .
48(4) . . .
49(4) . . .
44.7(35) . . .
49(4) . . .
56(4) . . .
46(4) . . .
48(4) . . .
43.1(34) . . .
43(4) . . .
43(4) . . .
40.9(35) . . .
38.9(35) . . .
45(4) . . .
41(4) . . .
44(4) . . .
46(4) . . .
40.4(33) . . .
39.9(33) . . .
35.0(33) . . .
47(4) . . .
43.8(34) . . .
45(4) . . .
38.6(32) . . .
43(4) . . .
54(4) . . .
49(4) . . .
42.5(34) . . .
45.0(35) . . .
44(4) . . .
47(4) . . .
63(4) . . .
45(4) . . .
40.7(33) . . .
39.4(34) . . .
42.2(35) . . .
38.1(32) . . .
47(4) . . .
42.8(35) . . .
37.0(32) . . .
42(4) . . .
39(4) . . .
53(4) . . .
49(4) . . .
42(4) . . .
43(4) . . .
43.4(34) . . .
49(4) . . .
52(4) . . .
52(4) . . .
49(4) . . .
46(4) . . .
53(4) . . .
51(4) . . .
43.5(35) . . .
46(4) . . .
47(4) . . .
46(4) . . .
39.8(33) . . .
52(4) . . .
52(4) . . .
48(4) . . .
39.0(32) . . .
44.4(35) . . .
47(4) . . .
42(4) . . .
48(4) . . .
47(4) . . .
45(4) . . .
52(4) . . .
45(4) . . .
49(4) . . .
48(4) . . .
44(4) . . .
38(4) . . .
37.8(32) . . .
43.8(34) . . .
39.0(33) . . .
44.4(35) . . .
48(4) . . .
46(4) . . .
51(4) . . .
37.4(31) . . .
46(4) . . .
40.1(35) . . .
46(4) . . .
42.3(34) . . .
49(4) . . .
45(4) . . .
43(4) . . .
40.8(34) . . .
47(4) . . .
45(4) . . .
52(4) . . .
41.4(34) . . .
41(4) . . .
45(4) . . .
48(4) . . .
51(4) . . .
52(4) . . .
43(4) . . .
43.5(34) . . .
47(4) . . .
50(4) . . .
46(4) . . .
51(4) . . .
41.2(33) . . .
41.5(34) . . .
42(4) . . .
46(4) . . .
42(4) . . .
47(4) . . .
42.0(34) . . .
43(4) . . .
46(4) . . .
44(4) . . .
50(4) . . .
43(4) . . .
42(4) . . .
35.6(31) . . .
50(4) . . .
43.0(34) . . .
48(4) . . .
48(4) . . .
53(4) . . .
44.7(35) . . .
43.3(34) . . .
42(4) . . .
39(4) . . .
54(4) . . .
46(4) . . .
48(4) . . .
48(4) . . .
48(4) . . .
46(4) . . .
46(4) . . .
50(4) . . .
43(4) . . .
36.4(32) . . .
51(4) . . .
47(4) . . .
44.0(35) . . .
43(4) . . .
45(4) . . .
56(4) . . .
46.7(35) . . .
42.5(34) . . .
51(4) . . .
43(4) . . .
40(4) . . .
37.3(32) . . .
41.5(33) . . .
41.0(34) . . .
45(4) . . .
47(4) . . .
48(4) . . .
52(4) . . .
46(4) . . .
54(4) . . .
58(4) . . .
51(4) . . .
44(4) . . .
28.2(28) . . .
41.0(34) . . .
47(4) . . .
48(4) . . .
45(4) . . .
53(4) . . .
48(4) . . .
50(4) . . .
45.6(35) . . .
49(4) . . .
48(4) . . .
51(4) . . .
53(4) . . .
42.0(34) . . .
34.9(32) . . .
44(4) . . .
45(4) . . .
49(4) . . .
46(4) . . .
57(4) . . .
46(4) . . .
43.6(35) . . .
54(4) . . .
35.8(31) . . .
50(4) . . .
43(4) . . .
46(4) . . .
42.4(35) . . .
44(4) . . .
43(4) . . .
55(4) . . .
48(4) . . .
46(4) . . .
56(4) . . .
52(4) . . .
47(4) . . .
54(4) . . .
41.7(34) . . .
41.9(34) . . .
43(4) . . .
39.9(34) . . .
41.8(35) . . .
35.8(31) . . .
38.1(33) . . .
48(4) . . .
58(4) . . .
49(4) . . .
45.5(35) . . .
50(4) . . .
40.7(34) . . .
46(4) . . .
47(4) . . .
52(4) . . .
40.3(33) . . .
48(4) . . .
45(4) . . .
46(4) . . .
43.0(34) . . .
40.5(33) . . .
46(4) . . .
49(4) . . .
43.3(35) . . .
46(4) . . .
54(4) . . .
44(4) . . .
48(4) . . .
46(4) . . .
47(4) . . .
46(4) . . .
43(4) . . .
46(4) . . .
50(4) . . .
45(4) . . .
42.7(35) . . .
52(4) . . .
39.8(33) . . .
33.3(30) . . .
40.6(34) . . .
49(4) . . .
46(4) . . .
60(4) . . .
51(4) . . .
51(4) . . .
38.0(32) . . .
51(4) . . .
46(4) . . .
45.2(35) . . .
45(4) . . .
49(4) . . .
40.4(33) . . .
46(4) . . .
40.5(33) . . .
48(4) . . .
50(4) . . .
42.0(33) . . .
48(4) . . .
47(4) . . .
49(4) . . .
41.3(35) . . .
45(4) . . .
52(4) . . .
46(4) . . .
49(4) . . .
41.6(33) . . .
41.8(33) . . .
51(4) . . .
47(4) . . .
37.7(32) . . .
46(4) . . .
44(4) . . .
40.2(34) . . .
44.5(35) . . .
40.5(33) . . .
51(4) . . .
50(4) . . .
41(4) . . .
47(4) . . .
46.4(35) . . .
52(4) . . .
50(4) . . .
44.6(34) . . .
46(4) . . .
51(4) . . .
51(4) . . .
47(4) . . .
49(4) . . .
51(4) . . .
42.8(35) . . .
42(4) . . .
40.4(34) . . .
60(4) . . .
57(4) . . .
50(4) . . .
50(4) . . .
42(4) . . .
49(4) . . .
52(4) . . .
49(4) . . .
44(4) . . .
43.3(35) . . .
43.2(34) . . .
47(4) . . .
58(4) . . .
48(4) . . .
56(4) . . .
50(4) . . .
40.9(34) . . .
43.2(34) . . .
50(4) . . .
38.8(32) . . .
42.3(34) . . .
43.7(34) . . .
39.8(33) . . .
49(4) . . .
35.2(31) . . .
44.1(34) . . .
46(4) . . .
43(4) . . .
40.1(34) . . .
39.8(32) . . .
40.2(33) . . .
42.7(35) . . .
48(4) . . .
45(4) . . .
51(4) . . .
44.3(35) . . .
42.1(34) . . .
49(4) . . .
44.9(35) . . .
47.0(35) . . .
57(4) . . .
42.9(34) . . .
40.9(35) . . .
48(4) . . .
51(4) . . .
46(4) . . .
51(4) . . .
46(4) . . .
46(4) . . .
44.2(34) . . .
38.0(33) . . .
42(4) . . .
45.2(35) . . .
60(4) . . .
40.5(33) . . .
44(4) . . .
50(4) . . .
52(4) . . .
51(4) . . .
48(4) . . .
48(4) . . .
58(4) . . .
56(4) . . .
48(4) . . .
58(4) . . .
51(4) . . .
48(4) . . .
54(4) . . .
45(4) . . .
48(4) . . .
46(4) . . .
54(4) . . .
53(4) . . .
54(4) . . .
53(4) . . .
49(4) . . .
45(4) . . .
46(4) . . .
48(4) . . .
51(4) . . .
50(4) . . .
41.2(32) . . .
50(4) . . .
48(4) . . .
46(4) . . .
43.4(34) . . .
47(4) . . .
46(4) . . .
50(4) . . .
46(4) . . .
43.1(35) . . .
47(4) . . .
44(4) . . .
45(4) . . .
45.1(35) . . .
49(4) . . .
44(4) . . .
48(4) . . .
58(4) . . .
46(4) . . .
37.9(32) . . .
37.1(34) . . .
40.3(34) . . .
40.2(33) . . .
45.6(35) . . .
48(4) . . .
43(4) . . .
45(4) . . .
41.1(33) . . .
46(4) . . .
50(4) . . .
38.0(33) . . .
44(4) . . .
35.5(31) . . .
44.5(35) . . .
46(4) . . .
49(4) . . .
49(4) . . .
43.0(34) . . .
46(4) . . .
40(4) . . .
44(4) . . .
38.8(34) . . .
57(4) . . .
55(4) . . .
47(4) . . .
48(4) . . .
47(4) . . .
41.1(34) . . .
44(4) . . .
54(4) . . .
52(4) . . .
43.0(35) . . .
44.2(34) . . .
41.9(33) . . .
39(4) . . .
44(4) . . .
38.7(32) . . .
42.1(34) . . .
46(4) . . .
47(4) . . .
66(4) . . .
51(4) . . .
51(4) . . .
44.9(35) . . .
51(4) . . .
38.2(35) . . .
46(4) . . .
46.0(35) . . .
45.2(35) . . .
39.5(33) . . .
42.8(34) . . .
49(4) . . .
52(4) . . .
40.9(34) . . .
49(4) . . .
44.6(35) . . .
37.7(32) . . .
40.9(34) . . .
38.5(33) . . .
48(4) . . .
49(4) . . .
44.1(34) . . .
49(4) . . .
45.0(35) . . .
54(4) . . .
43.0(35) . . .
39.8(33) . . .
41.6(34) . . .
50(4) . . .
49(4) . . .
42.2(34) . . .
53(4) . . .
48(4) . . .
50(4) . . .
48(4) . . .
46.5(35) . . .
64(4) . . .
57(4) . . .
39.7(34) . . .
41.7(34) . . .
43.3(34) . . .
41.1(33) . . .
40.2(33) . . .
45(4) . . .
43.2(35) . . .
49(4) . . .
49(4) . . .
42.2(35) . . .
38.1(35) . . .
47(4) . . .
44.5(34) . . .
44.2(35) . . .
50(4) . . .
41.1(35) . . .
49(4) . . .
53(4) . . .
44.7(34) . . .
53(4) . . .
50(4) . . .
57(4) . . .
52(4) . . .
43.5(34) . . .
49(4) . . .
45(4) . . .
44(4) . . .
43.1(34) . . .
43.7(35) . . .
44.5(35) . . .
51(4) . . .
47(4) . . .
52(4) . . .
44(4) . . .
47(4) . . .
51(4) . . .
46(4) . . .
39.9(33) . . .
49(4) . . .
38.6(33) . . .
46(4) . . .
40.6(34) . . .
44.8(35) . . .
48(4) . . .
48(4) . . .
52(4) . . .
46(4) . . .
39.7(33) . . .
36.4(34) . . .
49(4) . . .
54(4) . . .
45.8(35) . . .
47(4) . . .
44(4) . . .
46(4) . . .
41.5(35) . . .
41.4(34) . . .
50(4) . . .
45(4) . . .
40(4) . . .
42(4) . . .
40.3(33) . . .
38.3(32) . . .
34.6(30) . . .
46(4) . . .
38.6(34) . . .
50(4) . . .
41.0(34) . . .
45(4) . . .
43(4) . . .
37.8(34) . . .
47(4) . . .
52(4) . . .
48(4) . . .
45(4) . . .
43.1(35) . . .
37.7(32) . . .
48(4) . . .
41.2(34) . . .
41(4) . . .
46(4) . . .
51(4) . . .
40.9(34) . . .
46(4) . . .
40.5(34) . . .
41.8(35) . . .
44(4) . . .
43.9(35) . . .
37.9(33) . . .
45(4) . . .
47(4) . . .
42.6(35) . . .
41.8(34) . . .
54(4) . . .
39.6(34) . . .
47(4) . . .
56(4) . . .
52(4) . . .
39.1(33) . . .
58(4) . . .
45(4) . . .
47(4) . . .
49(4) . . .
43(4) . . .
42.5(34) . . .
37.3(32) . . .
41.6(33) . . .
46(4) . . .
49(4) . . .
43(4) . . .
43.0(34) . . .
46(4) . . .
43(4) . . .
40.6(35) . . .
43(4) . . .
49(4) . . .
43.8(35) . . .
55(4) . . .
48(4) . . .
60(4) . . .
50(4) . . .
32.1(30) . . .
48(4) . . .
47(4) . . .
38.0(32) . . .
36.6(32) . . .
43.3(34) . . .
39.3(35) . . .
41.1(35) . . .
48(4) . . .
38.0(32) . . .
49(4) . . .
51(4) . . .
56(4) . . .
50(4) . . .
40.7(33) . . .
57(4) . . .
43(4) . . .
46(4) . . .
43(4) . . .
45.0(35) . . .
51(4) . . .
53(4) . . .
54(4) . . .
47(4) . . .
43.5(34) . . .
46(4) . . .
45(4) . . .
44(4) . . .
57(4) . . .
48(4) . . .
43.1(34) . . .
49(4) . . .
41(4) . . .
47(4) . . .
39.8(33) . . .
45(4) . . .
43(4) . . .
38(4) . . .
40.3(34) . . .
49(4) . . .
46(4) . . .
42.3(35) . . .
45(4) . . .
51(4) . . .
49(4) . . .
46(4) . . .
48(4) . . .
41.5(33) . . .
50(4) . . .
41.5(34) . . .
44(4) . . .
52(4) . . .
51(4) . . .
46.7(35) . . .
40.7(34) . . .
44(4) . . .
44(4) . . .
40(4) . . .
40.8(33) . . .
42.4(34) . . .
48(4) . . .
50(4) . . .
47(4) . . .
44.4(35) . . .
47(4) . . .
43.1(35) . . .
48(4) . . .
48(4) . . .
43.3(34) . . .
47(4) . . .
42(4) . . .
38.1(33) . . .
56(4) . . .
43.1(34) . . .
46(4) . . .
46(4) . . .
43.0(35) . . .
37.9(32) . . .
39.9(33) . . .
54(4) . . .
48(4) . . .
46(4) . . .
49(4) . . .
48(4) . . .
47(4) . . .
46(4) . . .
39.5(34) . . .
43.9(34) . . .
39.6(32) . . .
43.4(35) . . .
55(4) . . .
51(4) . . .
42.8(35) . . .
47(4) . . .
45(4) . . .
43(4) . . .
48(4) . . .
50(4) . . .
43(4) . . .
48(4) . . .
45(4) . . .
44.3(35) . . .
48(4) . . .
49(4) . . .
41.3(32) . . .
50(4) . . .
44(4) . . .
46(4) . . .
42.0(33) . . .
36.8(30) . . .
43.8(33) . . .
50(4) . . .
46(4) . . .
49(4) . . .
44.3(35) . . .
49(4) . . .
41.5(34) . . .
44(4) . . .
49(4) . . .
49(4) . . .
50(4) . . .
40.6(33) . . .
39.9(33) . . .
49(4) . . .
44.8(35) . . .
49(4) . . .
54(4) . . .
50(4) . . .
34.3(31) . . .
38.8(34) . . .
43(4) . . .
50(4) . . .
49(4) . . .
43(4) . . .
44(4) . . .
39.0(32) . . .
57(4) . . .
58(4) . . .
40.2(33) . . .
35.8(31) . . .
46(4) . . .
36.0(31) . . .
42.9(34) . . .
49(4) . . .
39.7(34) . . .
40.8(34) . . .
42.4(34) . . .
41.1(34) . . .
49(4) . . .
36.1(34) . . .
44(4) . . .
46(4) . . .
43.3(34) . . .
50(4) . . .
50(4) . . .
52(4) . . .
31.7(30) . . .
50(4) . . .
44.7(35) . . .
44(4) . . .
49(4) . . .
52(4) . . .
36.7(32) . . .
50(4) . . .
47(4) . . .
48(4) . . .
49(4) . . .
39.2(32) . . .
44.7(35) . . .
49(4) . . .
43(4) . . .
49(4) . . .
43(4) . . .
40.6(35) . . .
50(4) . . .
51(4) . . .
40.8(34) . . .
43(4) . . .
39(4) . . .
49(4) . . .
36.3(32) . . .
45.6(35) . . .
42.8(35) . . .
42.3(35) . . .
42(4) . . .
41(4) . . .
41.8(35) . . .
31.0(32) . . .
42(4) . . .
51(4) . . .
52(4) . . .
51(4) . . .
40(4) . . .
46(4) . . .
48(4) . . .
49(4) . . .
53(4) . . .
43(4) . . .
42(4) . . .
49(4) . . .
42.5(34) . . .
49(4) . . .
42.0(34) . . .
51(4) . . .
44(4) . . .
46(4) . . .
43.7(34) . . .
52(4) . . .
49(4) . . .
42(4) . . .
47(4) . . .
44.7(35) . . .
39(4) . . .
45(4) . . .
47(4) . . .
36.4(32) . . .
38.8(35) . . .
37.3(32) . . .
48(4) . . .
48(4) . . .
43.7(35) . . .
57(4) . . .
60(4) . . .
45(4) . . .
40.4(34) . . .
50(4) . . .
49(4) . . .
41(4) . . .
45(4) . . .
46(4) . . .
44.2(35) . . .
42.0(34) . . .
40(4) . . .
39.3(35) . . .
41.7(34) . . .
54(4) . . .
46(4) . . .
48(4) . . .
43.8(35) . . .
52(4) . . .
54(4) . . .
44(4) . . .
48(4) . . .
37.8(33) . . .
42.8(34) . . .
48(4) . . .
50(4) . . .
49(4) . . .
51(4) . . .
41.8(34) . . .
39.5(33) . . .
43(4) . . .
46(4) . . .
45(4) . . .
47(4) . . .
41.6(33) . . .
34.1(31) . . .
40(4) . . .
35.3(32) . . .
41.7(33) . . .
40.9(34) . . .
47(4) . . .
44(4) . . .
40.8(34) . . .
35.5(31) . . .
48(4) . . .
45(4) . . .
49(4) . . .
40.0(33) . . .
52(4) . . .
40.4(34) . . .
41.6(35) . . .
50(4) . . .
54(4) . . .
48(4) . . .
46(4) . . .
46(4) . . .
49(4) . . .
45(4) . . .
37.5(32) . . .
45(4) . . .
42.7(35) . . .
38.7(32) . . .
44.3(34) . . .
52(4) . . .
43(4) . . .
45(4) . . .
39.0(34) . . .
48(4) . . .
44.2(34) . . .
46(4) . . .
40.7(35) . . .
54(4) . . .
46.0(35) . . .
44.6(35) . . .
43.0(35) . . .
42.0(35) . . .
54(4) . . .
43.6(34) . . .
43.5(34) . . .
39.5(34) . . .
43(4) . . .
47(4) . . .
47(4) . . .
52(4) . . .
46(4) . . .
47(4) . . .
45(4) . . .
53(4) . . .
36.8(32) . . .
45(4) . . .
50(4) . . .
44(4) . . .
39.7(33) . . .
41.3(33) . . .
50(4) . . .
38.9(32) . . .
47(4) . . .
41.5(33) . . .
44(4) . . .
47(4) . . .
42(4) . . .
38.9(33) . . .
45(4) . . .
47(4) . . .
41.3(33) . . .
36.5(31) . . .
45.1(35) . . .
50(4) . . .
42.5(34) . . .
44(4) . . .
40.7(33) . . .
39.6(33) . . .
41.6(34) . . .
49(4) . . .
51(4) . . .
50(4) . . .
47(4) . . .
40.0(33) . . .
40.6(34) . . .
52(4) . . .
57(4) . . .
38.6(32) . . .
34.6(31) . . .
42.5(35) . . .
44(4) . . .
35.9(32) . . .
42.3(35) . . .
41.7(34) . . .
46(4) . . .
36.1(34) . . .
45(4) . . .
49(4) . . .
51(4) . . .
47(4) . . .
47(4) . . .
47(4) . . .
38.1(32) . . .
45.0(34) . . .
47(4) . . .
47(4) . . .
49(4) . . .
50(4) . . .
44(4) . . .
39.8(34) . . .
49(4) . . .
55(4) . . .
39.3(33) . . .
38.8(33) . . .
43(4) . . .
46(4) . . .
44(4) . . .
54(4) . . .
44.1(35) . . .
46(4) . . .
40.8(35) . . .
47(4) . . .
46(4) . . .
45(4) . . .
57(4) . . .
47(4) . . .
43.4(34) . . .
48(4) . . .
46(4) . . .
44(4) . . .
44(4) . . .
38.6(32) . . .
41.6(33) . . .
41.4(34) . . .
46(4) . . .
46(4) . . .
39.8(33) . . .
43.3(34) . . .
41.8(35) . . .
44(4) . . .
47(4) . . .
45(4) . . .
46.2(35) . . .
39.0(35) . . .
53(4) . . .
49(4) . . .
54(4) . . .
43.6(34) . . .
41.9(34) . . .
49(4) . . .
46(4) . . .
52(4) . . .
45.8(35) . . .
47(4) . . .
43(4) . . .
49(4) . . .
45(4) . . .
40.6(34) . . .
56(4) . . .
56(4) . . .
45(4) . . .
60(4) . . .
48(4) . . .
46(4) . . .
41.7(34) . . .
42.7(35) . . .
46(4) . . .
47(4) . . .
50(4) . . .
46(4) . . .
41.8(35) . . .
43.6(34) . . .
41.6(34) . . .
42.2(34) . . .
52(4) . . .
56(4) . . .
39.0(33) . . .
41(4) . . .
52(4) . . .
48(4) . . .
41.3(34) . . .
35.7(32) . . .
38.0(33) . . .
36.1(34) . . .
49(4) . . .
48(4) . . .
42.5(34) . . .
39.9(34) . . .
43(4) . . .
40.7(34) . . .
45.3(35) . . .
50(4) . . .
55(4) . . .
55(4) . . .
55(4) . . .
48(4) . . .
46(4) . . .
53(4) . . .
45(4) . . .
47(4) . . .
43.8(34) . . .
44.9(35) . . .
50(4) . . .
40.7(33) . . .
42.8(35) . . .
41.7(33) . . .
46(4) . . .
59(4) . . .
47.5(34) . . .
46(4) . . .
40.4(33) . . .
45(4) . . .
44(4) . . .
45(4) . . .
47(4) . . .
35.4(31) . . .
46(4) . . .
42(4) . . .
53(4) . . .
45(4) . . .
46(4) . . .
38.2(32) . . .
47(4) . . .
37.4(32) . . .
57(4) . . .
53(4) . . .
51(4) . . .
49(4) . . .
46(4) . . .
56(4) . . .
43.3(34) . . .
35.8(31) . . .
48(4) . . .
50(4) . . .
45(4) . . .
54(4) . . .
43.8(35) . . .
47(4) . . .
54(4) . . .
48(4) . . .
43.5(35) . . .
34.7(30) . . .
47(4) . . .
47(4) . . .
41.8(34) . . .
49(4) . . .
50(4) . . .
41(4) . . .
42(4) . . .
45.1(35) . . .
44(4) . . .
43(4) . . .
51(4) . . .
44(4) . . .
42.8(35) . . .
43(4) . . .
47(4) . . .
48(4) . . .
54(4) . . .
41.7(33) . . .
45(4) . . .
46(4) . . .
51(4) . . .
44.5(34) . . .
52(4) . . .
45(4) . . .
44(4) . . .
41(4) . . .
47(4) . . .
38.6(33) . . .
39.3(34) . . .
49(4) . . .
48(4) . . .
46(4) . . .
51(4) . . .
49(4) . . .
39(4) . . .
41(4) . . .
46(4) . . .
46(4) . . .
38.8(33) . . .
37.6(35) . . .
37.2(33) . . .
51(4) . . .
45.2(35) . . .
50(4) . . .
43(4) . . .
50(4) . . .
41.0(33) . . .
43.3(34) . . .
48(4) . . .
54(4) . . .
41.8(34) . . .
48(4) . . .
38.7(32) . . .
45.3(35) . . .
52(4) . . .
46(4) . . .
42.1(33) . . .
47(4) . . .
42(4) . . .
49(4) . . .
48(4) . . .
42.2(34) . . .
50(4) . . .
48(4) . . .
41(4) . . .
40.8(33) . . .
41.7(33) . . .
42.1(33) . . .
43.8(35) . . .
35.3(30) . . .
51(4) . . .
43.2(34) . . .
49(4) . . .
40.0(32) . . .
52(4) . . .
48(4) . . .
51(4) . . .
45(4) . . .
49(4) . . .
70(4) . . .
50(4) . . .
52(4) . . .
48(4) . . .
49(4) . . .
39.0(32) . . .
49(4) . . .
49(4) . . .
53(4) . . .
45(4) . . .
49(4) . . .
54(4) . . .
58(4) . . .
44.8(35) . . .
52(4) . . .
45(4) . . .
49(4) . . .
50(4) . . .
54(4) . . .
45(4) . . .
52(4) . . .
57(4) . . .
45.8(35) . . .
47(4) . . .
49(4) . . .
47(4) . . .
50(4) . . .
50(4) . . .
50(4) . . .
47(4) . . .
49(4) . . .
42.2(34) . . .
46(4) . . .
49(4) . . .
48(4) . . .
50(4) . . .
46(4) . . .
42.6(34) . . .
42.1(35) . . .
44(4) . . .
48(4) . . .
48(4) . . .
49(4) . . .
44(4) . . .
50(4) . . .
41.0(34) . . .
42.3(34) . . .
44(4) . . .
35.8(32) . . .
41.8(35) . . .
40.5(34) . . .
52(4) . . .
50(4) . . .
47(4) . . .
39.0(32) . . .
42.1(34) . . .
46(4) . . .
55(4) . . .
51(4) . . .
42.9(35) . . .
48(4) . . .
38.4(32) . . .
47(4) . . .
52(4) . . .
51(4) . . .
46(4) . . .
42.3(34) . . .
49(4) . . .
46(4) . . .
44(4) . . .
50(4) . . .
42.8(34) . . .
49(4) . . .
44.1(35) . . .
49(4) . . .
44.0(34) . . .
43.1(34) . . .
43.2(35) . . .
60(4) . . .
49(4) . . .
42.8(34) . . .
47(4) . . .
46(4) . . .
44(4) . . .
51(4) . . .
51(4) . . .
44.1(34) . . .
50(4) . . .
48(4) . . .
47(4) . . .
48(4) . . .
49(4) . . .
50(4) . . .
57(4) . . .
49(4) . . .
52(4) . . .
46(4) . . .
44(4) . . .
48(4) . . .
50(4) . . .
49(4) . . .
35.9(31) . . .
40.2(34) . . .
51(4) . . .
44(4) . . .
37.8(32) . . .
42(4) . . .
40.4(34) . . .
47(4) . . .
46(4) . . .
47(4) . . .
40(4) . . .
54(4) . . .
56(4) . . .
51(4) . . .
50(4) . . .
45(4) . . .
45(4) . . .
52(4) . . .
52(4) . . .
50(4) . . .
47(4) . . .
51(4) . . .
54(4) . . .
39.1(33) . . .
50(4) . . .
47(4) . . .
50(4) . . .
47(4) . . .
47(4) . . .
50(4) . . .
45(4) . . .
50(4) . . .
54(4) . . .
43.6(35) . . .
33.7(31) . . .
42(4) . . .
48(4) . . .
50(4) . . .
40.2(33) . . .
41.8(34) . . .
40.7(33) . . .
46(4) . . .
40.0(33) . . .
40.9(33) . . .
40.7(34) . . .
45(4) . . .
39(4) . . .
36.8(32) . . .
37.6(32) . . .
44(4) . . .
47(4) . . .
44(4) . . .
36.3(31) . . .
48(4) . . .
50(4) . . .
54(4) . . .
48(4) . . .
49(4) . . .
51(4) . . .
41(4) . . .
40.2(34) . . .
43(4) . . .
37.9(32) . . .
51(4) . . .
51(4) . . .
41(4) . . .
51(4) . . .
45.5(35) . . .
47(4) . . .
57(4) . . .
46(4) . . .
49(4) . . .
45(4) . . .
49(4) . . .
37.4(32) . . .
45(4) . . .
42.2(34) . . .
45(4) . . .
45(4) . . .
44(4) . . .
41.8(34) . . .
45(4) . . .
47(4) . . .
36.8(32) . . .
43(4) . . .
48(4) . . .
50(4) . . .
48(4) . . .
56(4) . . .
52(4) . . .
38.8(33) . . .
40.0(34) . . .
47(4) . . .
53(4) . . .
41.5(34) . . .
50(4) . . .
45(4) . . .
44.5(34) . . .
47(4) . . .
33.2(30) . . .
49(4) . . .
51(4) . . .
48(4) . . .
54(4) . . .
46(4) . . .
55(4) . . .
45(4) . . .
46(4) . . .
51(4) . . .
45(4) . . .
56(4) . . .
47.1(35) . . .
45(4) . . .
47(4) . . .
55(4) . . .
52(4) . . .
42.6(34) . . .
42.2(34) . . .
54(4) . . .
49(4) . . .
43.5(35) . . .
44.9(35) . . .
56(4) . . .
51(4) . . .
52(4) . . .
53(4) . . .
53(4) . . .
39.9(33) . . .
52(4) . . .
50(4) . . .
49(4) . . .
46.6(35) . . .
46(4) . . .
49(4) . . .
49(4) . . .
49(4) . . .
49(4) . . .
50(4) . . .
44(4) . . .
44(4) . . .
47(4) . . .
42.9(34) . . .
47(4) . . .
40(4) . . .
47(4) . . .
45(4) . . .
49(4) . . .
43(4) . . .
45(4) . . .
43.5(35) . . .
46(4) . . .
38.4(32) . . .
45(4) . . .
45(4) . . .
47(4) . . .
52(4) . . .
40.5(33) . . .
43.6(35) . . .
44(4) . . .
39.0(34) . . .
43(4) . . .
39.2(33) . . .
40.9(35) . . .
44(4) . . .
50(4) . . .
51(4) . . .
48(4) . . .
48(4) . . .
45(4) . . .
48(4) . . .
47(4) . . .
39.7(32) . . .
49(4) . . .
44(4) . . .
50(4) . . .
40.7(33) . . .
47(4) . . .
40(4) . . .
37(4) . . .
50(4) . . .
61(4) . . .
44.0(34) . . .
51(4) . . .
41.1(34) . . .
44.3(35) . . .
54(4) . . .
44.3(35) . . .
52(4) . . .
47(4) . . .
45(4) . . .
54(4) . . .
36.1(30) . . .
47(4) . . .
45(4) . . .
38.9(32) . . .
42.8(34) . . .
41.5(34) . . .
45(4) . . .
34.5(32) . . .
38.3(33) . . .
48(4) . . .
40.3(35) . . .
42.8(35) . . .
52(4) . . .
44.0(34) . . .
53(4) . . .
50(4) . . .
39(4) . . .
41.0(34) . . .
48(4) . . .
53(4) . . .
47(4) . . .
37(4) . . .
40.4(34) . . .
42.3(33) . . .
54(4) . . .
39.8(33) . . .
37.5(34) . . .
44(4) . . .
50(4) . . .
40.3(33) . . .
48(4) . . .
45(4) . . .
43.5(35) . . .
43.4(33) . . .
37.2(32) . . .
38.4(32) . . .
45(4) . . .
45(4) . . .
47(4) . . .
50(4) . . .
46(4) . . .
48(4) . . .
51(4) . . .
55(4) . . .
48(4) . . .
46(4) . . .
52(4) . . .
50(4) . . .
50(4) . . .
44(4) . . .
47(4) . . .
46(4) . . .
47(4) . . .
47(4) . . .
48(4) . . .
47(4) . . .
51(4) . . .
48(4) . . .
43.5(34) . . .
45(4) . . .
38.1(33) . . .
44(4) . . .
40(4) . . .
45.0(35) . . .
43(4) . . .
58(4) . . .
52(4) . . .
46(4) . . .
42.9(35) . . .
47(4) . . .
46(4) . . .
41.6(33) . . .
39.5(33) . . .
40.0(33) . . .
43.9(35) . . .
54(4) . . .
49(4) . . .
48(4) . . .
44.3(34) . . .
44(4) . . .
44(4) . . .
36.6(33) . . .
37.0(32) . . .
57(4) . . .
43.6(34) . . .
44(4) . . .
38.1(33) . . .
53(4) . . .
47(4) . . .
48(4) . . .
51(4) . . .
48(4) . . .
42.2(34) . . .
45.5(35) . . .
36.9(32) . . .
51(4) . . .
47(4) . . .
50(4) . . .
42.6(34) . . .
46(4) . . .
43.9(35) . . .
43(4) . . .
42.0(34) . . .
48(4) . . .
44(4) . . .
48(4) . . .
38.9(33) . . .
45(4) . . .
50(4) . . .
50(4) . . .
49(4) . . .
40.5(33) . . .
53(4) . . .
45(4) . . .
51(4) . . .
52(4) . . .
43.5(34) . . .
54(4) . . .
49(4) . . .
41(4) . . .
42(4) . . .
44.3(35) . . .
54(4) . . .
49(4) . . .
46(4) . . .
39.2(32) . . .
39.3(32) . . .
56(4) . . .
48(4) . . .
45(4) . . .
40(4) . . .
39.5(33) . . .
48(4) . . .
36.9(32) . . .
56(4) . . .
44(4) . . .
53(4) . . .
54(4) . . .
39.7(33) . . .
40.2(33) . . .
45(4) . . .
47(4) . . .
42.9(34) . . .
41.1(35) . . .
44(4) . . .
29.6(29) . . .
36.1(31) . . .
32.7(30) . . .
41.9(35) . . .
49(4) . . .
46(4) . . .
49(4) . . .
48(4) . . .
47(4) . . .
50(4) . . .
47(4) . . .
55(4) . . .
55(4) . . .
56(4) . . .
55(4) . . .
36.8(32) . . .
44.6(35) . . .
43.9(35) . . .
50(4) . . .
44(4) . . .
54(4) . . .
48(4) . . .
55(4) . . .
58(4) . . .
49(4) . . .
42.2(34) . . .
40.0(33) . . .
43(4) . . .
49(4) . . .
47(4) . . .
45.2(35) . . .
48(4) . . .
51(4) . . .
44(4) . . .
41.5(34) . . .
36.0(31) . . .
39.3(32) . . .
53(4) . . .
47(4) . . .
38.6(33) . . .
57(4) . . .
46(4) . . .
37.9(32) . . .
50(4) . . .
41(4) . . .
36.1(32) . . .
43.7(34) . . .
39.5(33) . . .
39.4(34) . . .
50(4) . . .
46(4) . . .
49(4) . . .
42.5(35) . . .
40.8(34) . . .
48(4) . . .
46(4) . . .
44(4) . . .
44(4) . . .
45(4) . . .
50(4) . . .
38.9(33) . . .
40.0(35) . . .
42(4) . . .
40(4) . . .
38.6(34) . . .
48(4) . . .
47(4) . . .
54(4) . . .
48(4) . . .
42.8(35) . . .
45.8(35) . . .
41.2(34) . . .
53(4) . . .
45(4) . . .
41.6(34) . . .
39.6(33) . . .
52(4) . . .
53(4) . . .
50(4) . . .
41.2(35) . . .
52(4) . . .
57(4) . . .
48(4) . . .
46(4) . . .
41.8(34) . . .
45.2(35) . . .
41.4(34) . . .
34.5(33) . . .
45(4) . . .
43.6(34) . . .
42.2(33) . . .
48(4) . . .
51(4) . . .
52(4) . . .
56(4) . . .
47(4) . . .
46(4) . . .
43(4) . . .
54(4) . . .
59(4) . . .
42.8(34) . . .
50(4) . . .
47(4) . . .
48(4) . . .
43.9(34) . . .
40.4(34) . . .
48(4) . . .
44(4) . . .
45(4) . . .
39.4(33) . . .
38.6(34) . . .
37.4(34) . . .
49(4) . . .
52(4) . . .
40.4(33) . . .
44(4) . . .
44(4) . . .
42(4) . . .
36.1(32) . . .
47(4) . . .
40.7(34) . . .
49(4) . . .
53(4) . . .
39.4(33) . . .
40.3(33) . . .
36.8(31) . . .
45(4) . . .
40.5(33) . . .
49(4) . . .
54(4) . . .
48(4) . . .
47(4) . . .
41.0(34) . . .
40.4(33) . . .
48(4) . . .
55(4) . . .
55(4) . . .
48(4) . . .
43.3(34) . . .
42.3(34) . . .
38.8(35) . . .
48(4) . . .
48(4) . . .
38.0(32) . . .
53(4) . . .
52(4) . . .
39.6(34) . . .
42(4) . . .
44.4(35) . . .
48(4) . . .
54(4) . . .
47(4) . . .
50(4) . . .
36.8(32) . . .
37.8(32) . . .
45(4) . . .
51(4) . . .
51(4) . . .
47(4) . . .
48(4) . . .
40.2(33) . . .
44(4) . . .
43(4) . . .
53(4) . . .
44(4) . . .
38.8(34) . . .
37.5(32) . . .
42.2(34) . . .
53(4) . . .
43.1(34) . . .
44(4) . . .
38.5(33) . . .
53(4) . . .
53(4) . . .
37.8(34) . . .
46(4) . . .
43(4) . . .
46(4) . . .
38.7(32) . . .
45(4) . . .
31.6(32) . . .
45(4) . . .
51(4) . . .
47(4) . . .
57(4) . . .
50(4) . . .
40.4(34) . . .
44.4(35) . . .
42.2(34) . . .
58(4) . . .
50(4) . . .
38.4(34) . . .
51(4) . . .
49(4) . . .
46(4) . . .
47(4) . . .
49(4) . . .
49(4) . . .
42.1(33) . . .
48(4) . . .
52(4) . . .
46(4) . . .
43.2(35) . . .
45.6(35) . . .
42(4) . . .
42.0(35) . . .
50(4) . . .
51(4) . . .
44(4) . . .
41.7(34) . . .
51(4) . . .
57(4) . . .
49(4) . . .
44(4) . . .
42(4) . . .
46(4) . . .
52(4) . . .
48(4) . . .
48(4) . . .
43(4) . . .
37.9(32) . . .
41.1(34) . . .
48(4) . . .
44(4) . . .
44.2(35) . . .
47(4) . . .
36.6(32) . . .
45.4(35) . . .
47(4) . . .
37.9(34) . . .
33.6(31) . . .
56(4) . . .
49(4) . . .
50(4) . . .
47(4) . . .
55(4) . . .
42.7(34) . . .
48(4) . . .
50(4) . . .
47(4) . . .
44(4) . . .
46(4) . . .
42.3(35) . . .
46(4) . . .
38.1(34) . . .
47(4) . . .
47(4) . . .
46(4) . . .
49(4) . . .
37.0(35) . . .
49(4) . . .
44(4) . . .
46(4) . . .
50(4) . . .
54(4) . . .
49(4) . . .
44.7(35) . . .
39.9(34) . . .
50(4) . . .
44.4(35) . . .
39.0(32) . . .
45(4) . . .
40.5(33) . . .
40.4(35) . . .
45(4) . . .
55(4) . . .
50(4) . . .
50(4) . . .
48(4) . . .
50(4) . . .
51(4) . . .
48(4) . . .
55(4) . . .
53(4) . . .
38.0(32) . . .
54(4) . . .
45(4) . . .
43(4) . . .
36.8(33) . . .
42(4) . . .
40.8(33) . . .
44(4) . . .
42.3(33) . . .
43(4) . . .
36.1(32) . . .
40.0(34) . . .
49(4) . . .
47(4) . . .
46(4) . . .
51(4) . . .
43.3(34) . . .
53(4) . . .
52(4) . . .
36.7(34) . . .
43(4) . . .
49(4) . . .
44.4(35) . . .
47(4) . . .
44(4) . . .
41.0(34) . . .
46(4) . . .
38.8(32) . . .
47(4) . . .
46(4) . . .
40.4(34) . . .
42.6(34) . . .
57(4) . . .
51(4) . . .
44(4) . . .
40.9(34) . . .
39.6(33) . . .
48(4) . . .
37.6(33) . . .
39.3(34) . . .
53(4) . . .
57(4) . . .
48(4) . . .
61(4) . . .
55(4) . . .
40.2(33) . . .
49(4) . . .
44(4) . . .
49(4) . . .
42(4) . . .
44(4) . . .
40.9(33) . . .
47(4) . . .
43(4) . . .
43.9(35) . . .
40.5(33) . . .
45.1(35) . . .
41.6(34) . . .
41(4) . . .
46(4) . . .
46(4) . . .
41.9(34) . . .
41(4) . . .
43(4) . . .
37.5(34) . . .
47(4) . . .
51(4) . . .
56(4) . . .
55(4) . . .
48(4) . . .
46(4) . . .
57(4) . . .
51(4) . . .
43.2(34) . . .
45(4) . . .
53(4) . . .
47(4) . . .
46(4) . . .
51(4) . . .
46(4) . . .
52(4) . . .
52(4) . . .
42(4) . . .
46(4) . . .
51(4) . . .
48(4) . . .
50(4) . . .
45(4) . . .
47(4) . . .
51(4) . . .
45(4) . . .
45(4) . . .
44(4) . . .
42.7(35) . . .
43(4) . . .
39.8(33) . . .
45(4) . . .
43.3(35) . . .
40.0(33) . . .
38.8(34) . . .
37.6(32) . . .
43.4(35) . . .
47(4) . . .
35.3(30) . . .
44(4) . . .
44.5(35) . . .
43(4) . . .
45(4) . . .
45.3(34) . . .
44.5(34) . . .
44.0(34) . . .
48(4) . . .
47(4) . . .
44(4) . . .
43.0(35) . . .
39.2(33) . . .
38.4(34) . . .
48(4) . . .
56(4) . . .
50(4) . . .
50(4) . . .
45(4) . . .
50(4) . . .
50(4) . . .
45(4) . . .
43.5(34) . . .
45(4) . . .
43(4) . . .
44(4) . . .
48(4) . . .
45(4) . . .
52(4) . . .
44(4) . . .
44.4(34) . . .
42.9(34) . . .
36.7(33) . . .
49(4) . . .
38.2(33) . . .
40.6(33) . . .
56(4) . . .
51(4) . . .
44(4) . . .
51(4) . . .
35.5(32) . . .
43.3(34) . . .
43(4) . . .
36.8(32) . . .
42(4) . . .
36.9(32) . . .
39.9(33) . . .
37.0(32) . . .
42(4) . . .
48(4) . . .
43.6(34) . . .
57(4) . . .
45(4) . . .
44(4) . . .
34.3(31) . . .
46(4) . . .
43.1(34) . . .
46(4) . . .
48(4) . . .
57(4) . . .
44.1(35) . . .
54(4) . . .
42.9(34) . . .
43(4) . . .
46(4) . . .
44.0(35) . . .
41.8(33) . . .
41.6(34) . . .
54(4) . . .
47(4) . . .
40.9(33) . . .
38.8(32) . . .
39.7(33) . . .
43(4) . . .
38.5(34) . . .
43.2(35) . . .
41.7(33) . . .
44(4) . . .
43(4) . . .
39.2(35) . . .
41.5(34) . . .
39.6(33) . . .
45(4) . . .
49(4) . . .
43(4) . . .
42.0(34) . . .
47(4) . . .
42.8(35) . . .
49(4) . . .
53(4) . . .
55(4) . . .
40.3(34) . . .
48(4) . . .
49(4) . . .
51(4) . . .
50(4) . . .
45(4) . . .
41.5(35) . . .
42.8(35) . . .
49(4) . . .
44.6(34) . . .
35.1(31) . . .
51(4) . . .
50(4) . . .
52(4) . . .
41.1(33) . . .
59(4) . . .
45(4) . . .
46(4) . . .
49(4) . . .
43(4) . . .
45(4) . . .
45(4) . . .
45(4) . . .
44.1(34) . . .
55(4) . . .
43.4(35) . . .
47(4) . . .
49(4) . . .
42.3(33) . . .
46(4) . . .
38.3(33) . . .
46(4) . . .
49(4) . . .
43.9(35) . . .
45.5(35) . . .
53(4) . . .
46(4) . . .
49(4) . . .
43.8(34) . . .
55(4) . . .
42.3(34) . . .
41(4) . . .
44(4) . . .
50(4) . . .
42.4(34) . . .
47(4) . . .
42.5(34) . . .
45(4) . . .
53(4) . . .
53(4) . . .
46(4) . . .
43(4) . . .
26.3(27) . . .
37.3(32) . . .
45(4) . . .
37.7(33) . . .
38.5(34) . . .
46(4) . . .
42.9(34) . . .
41(4) . . .
37.7(34) . . .
48(4) . . .
38.0(32) . . .
37.5(32) . . .
39.8(34) . . .
50(4) . . .
51(4) . . .
62(4) . . .
41.5(35) . . .
40.4(35) . . .
50(4) . . .
51(4) . . .
46(4) . . .
39.8(32) . . .
40.3(33) . . .
40.0(33) . . .
38.9(34) . . .
56(4) . . .
48(4) . . .
42.3(34) . . .
46(4) . . .
42.0(34) . . .
39.7(32) . . .
43(4) . . .
46(4) . . .
45(4) . . .
51(4) . . .
38.9(32) . . .
42.6(34) . . .
41.9(35) . . .
48(4) . . .
51(4) . . .
37.3(32) . . .
49(4) . . .
39.9(34) . . .
49(4) . . .
46(4) . . .
50(4) . . .
51(4) . . .
46(4) . . .
42(4) . . .
44(4) . . .
45(4) . . .
48(4) . . .
50(4) . . .
36.9(32) . . .
53(4) . . .
61(4) . . .
54(4) . . .
44(4) . . .
34.5(31) . . .
44.6(35) . . .
47(4) . . .
38.0(33) . . .
32.6(31) . . .
40.4(34) . . .
38.2(33) . . .
48(4) . . .
52(4) . . .
48(4) . . .
54(4) . . .
43.9(34) . . .
55(4) . . .
58(4) . . .
49(4) . . .
42.9(35) . . .
56(4) . . .
46(4) . . .
40.4(33) . . .
51(4) . . .
50(4) . . .
52(4) . . .
45(4) . . .
38.5(31) . . .
47(4) . . .
42.8(35) . . .
47(4) . . .
48(4) . . .
48(4) . . .
44(4) . . .
45(4) . . .
42.8(35) . . .
34.8(31) . . .
47(4) . . .
47(4) . . .
46(4) . . .
46(4) . . .
44(4) . . .
40(4) . . .
40(4) . . .
41.2(34) . . .
41.4(34) . . .
44(4) . . .
50(4) . . .
42.8(35) . . .
36.6(31) . . .
40.8(33) . . .
38.2(34) . . .
42(4) . . .
52(4) . . .
46(4) . . .
46(4) . . .
48(4) . . .
52(4) . . .
50(4) . . .
50(4) . . .
41.1(33) . . .
43(4) . . .
49(4) . . .
57(4) . . .
52(4) . . .
46(4) . . .
41.6(34) . . .
48(4) . . .
53(4) . . .
50(4) . . .
39.1(32) . . .
49(4) . . .
54(4) . . .
49(4) . . .
43.5(35) . . .
42.3(34) . . .
43(4) . . .
43(4) . . .
44(4) . . .
49(4) . . .
34.4(30) . . .
49(4) . . .
49(4) . . .
46(4) . . .
51(4) . . .
44.1(34) . . .
37.9(34) . . .
44(4) . . .
47(4) . . .
38.0(32) . . .
51(4) . . .
56(4) . . .
45(4) . . .
42.0(34) . . .
43.6(35) . . .
41.7(34) . . .
47(4) . . .
40.0(34) . . .
36.5(33) . . .
37.1(32) . . .
44(4) . . .
46(4) . . .
46(4) . . .
40.1(35) . . .
43.6(34) . . .
47(4) . . .
48(4) . . .
47(4) . . .
48(4) . . .
45.2(34) . . .
49(4) . . .
49(4) . . .
44(4) . . .
47(4) . . .
40.9(34) . . .
43(4) . . .
36(4) . . .
37.4(34) . . .
41.2(34) . . .
52(4) . . .
40.4(34) . . .
41(4) . . .
36.5(32) . . .
41.0(33) . . .
41.0(34) . . .
49(4) . . .
41.4(34) . . .
53(4) . . .
52(4) . . .
48(4) . . .
46(4) . . .
40.6(33) . . .
46(4) . . .
54(4) . . .
47(4) . . .
47(4) . . .
52(4) . . .
40.9(35) . . .
48(4) . . .
47(4) . . .
40.5(34) . . .
34.8(31) . . .
41(4) . . .
55(4) . . .
48(4) . . .
38.3(33) . . .
47(4) . . .
37.2(33) . . .
43.4(35) . . .
54(4) . . .
45(4) . . .
39.9(32) . . .
43.6(34) . . .
46.5(35) . . .
42.3(34) . . .
38.0(32) . . .
36.7(32) . . .
40.6(34) . . .
37.8(31) . . .
45(4) . . .
41(4) . . .
39.2(34) . . .
43.5(34) . . .
48(4) . . .
48(4) . . .
49(4) . . .
41.5(33) . . .
51(4) . . .
54(4) . . .
39.2(32) . . .
46(4) . . .
46(4) . . .
50(4) . . .
46(4) . . .
48(4) . . .
48(4) . . .
46(4) . . .
44.1(35) . . .
44.3(35) . . .
47(4) . . .
39(4) . . .
39.2(33) . . .
44.3(35) . . .
41.6(33) . . .
39.9(34) . . .
39.0(32) . . .
54(4) . . .
40.2(33) . . .
53(4) . . .
47(4) . . .
45(4) . . .
41.6(34) . . .
40.1(33) . . .
41.9(35) . . .
49(4) . . .
47(4) . . .
48(4) . . .
44.6(35) . . .
51(4) . . .
45(4) . . .
48(4) . . .
42.0(34) . . .
50(4) . . .
46(4) . . .
47(4) . . .
51(4) . . .
41.5(35) . . .
42.5(34) . . .
48(4) . . .
42(4) . . .
46(4) . . .
41.1(34) . . .
39.4(33) . . .
45(4) . . .
43(4) . . .
41(4) . . .
39.7(33) . . .
51(4) . . .
43.9(34) . . .
42.7(34) . . .
51(4) . . .
41.3(34) . . .
49(4) . . .
49(4) . . .
50(4) . . .
42.7(34) . . .
39.2(33) . . .
33.3(30) . . .
37.8(33) . . .
39.2(35) . . .
56(4) . . .
37.0(32) . . .
44(4) . . .
46(4) . . .
46(4) . . .
45(4) . . .
42.5(34) . . .
37.2(32) . . .
47(4) . . .
47(4) . . .
40.2(33) . . .
48(4) . . .
51(4) . . .
43(4) . . .
46(4) . . .
41.5(35) . . .
49(4) . . .
44(4) . . .
41(4) . . .
50(4) . . .
54(4) . . .
49(4) . . .
52(4) . . .
45(4) . . .
45(4) . . .
47(4) . . .
51(4) . . .
47(4) . . .
47(4) . . .
39.3(32) . . .
39.8(33) . . .
40.0(33) . . .
50(4) . . .
53(4) . . .
49(4) . . .
43.9(34) . . .
42.8(34) . . .
52(4) . . .
53(4) . . .
46(4) . . .
50(4) . . .
48(4) . . .
49(4) . . .
50(4) . . .
42.8(34) . . .
35.4(30) . . .
44(4) . . .
37.4(32) . . .
47(4) . . .
51(4) . . .
54(4) . . .
48(4) . . .
48(4) . . .
48(4) . . .
38.0(34) . . .
40.2(33) . . .
48(4) . . .
41(4) . . .
39.8(35) . . .
37.0(33) . . .
53(4) . . .
42.5(35) . . .
46(4) . . .
39.1(33) . . .
40.4(34) . . .
38.4(32) . . .
49(4) . . .
46(4) . . .
40.0(34) . . .
49(4) . . .
39.7(33) . . .
45(4) . . .
50(4) . . .
49(4) . . .
32.5(30) . . .
36.8(32) . . .
49(4) . . .
40(4) . . .
43(4) . . .
42.8(34) . . .
53(4) . . .
44(4) . . .
38.7(33) . . .
39.6(33) . . .
55(4) . . .
36.8(32) . . .
43(4) . . .
36.6(34) . . .
37.9(33) . . .
41.1(33) . . .
41.0(33) . . .
49(4) . . .
30.3(30) . . .
49(4) . . .
46(4) . . .
45.1(35) . . .
46(4) . . .
45(4) . . .
50(4) . . .
40.0(33) . . .
46(4) . . .
49(4) . . .
44(4) . . .
44(4) . . .
44.3(34) . . .
44(4) . . .
47(4) . . .
36.2(34) . . .
33.7(32) . . .
49(4) . . .
58(4) . . .
47(4) . . .
44(4) . . .
49(4) . . .
48(4) . . .
61(4) . . .
50(4) . . .
45(4) . . .
47(4) . . .
46(4) . . .
44(4) . . .
52(4) . . .
44.5(35) . . .
56(4) . . .
35.5(31) . . .
38.8(33) . . .
47(4) . . .
47(4) . . .
55(4) . . .
45.0(35) . . .
39.8(33) . . .
45(4) . . .
41.0(34) . . .
46(4) . . .
45.6(35) . . .
45.2(35) . . .
36.9(34) . . .
42.8(35) . . .
43.5(34) . . .
44.6(35) . . .
52(4) . . .
54(4) . . .
45(4) . . .
40.3(33) . . .
41(4) . . .
43.9(35) . . .
46(4) . . .
45.6(35) . . .
47(4) . . .
46(4) . . .
49(4) . . .
43(4) . . .
39.5(34) . . .
44.2(35) . . .
41.7(34) . . .
43(4) . . .
51(4) . . .
44(4) . . .
40.7(33) . . .
48(4) . . .
56(4) . . .
47(4) . . .
48(4) . . .
49(4) . . .
52(4) . . .
42(4) . . .
39.0(35) . . .
48(4) . . .
48(4) . . .
54(4) . . .
47(4) . . .
49(4) . . .
46(4) . . .
54(4) . . .
52(4) . . .
48(4) . . .
52(4) . . .
43.9(34) . . .
34.5(31) . . .
47(4) . . .
41.7(34) . . .
41.6(35) . . .
48(4) . . .
51(4) . . .
48(4) . . .
52(4) . . .
42.0(34) . . .
50(4) . . .
50(4) . . .
36.9(31) . . .
42(4) . . .
36.4(33) . . .
38.2(33) . . .
42.0(34) . . .
48(4) . . .
57(4) . . .
55(4) . . .
39.7(33) . . .
49(4) . . .
48(4) . . .
40.1(35) . . .
42(4) . . .
48(4) . . .
47(4) . . .
37.3(31) . . .
46(4) . . .
37.5(33) . . .
43.9(34) . . .
44(4) . . .
45(4) . . .
46(4) . . .
53(4) . . .
42.1(34) . . .
48(4) . . .
50(4) . . .
44(4) . . .
35.3(32) . . .
46.7(35) . . .
52(4) . . .
46(4) . . .
36.7(32) . . .
50(4) . . .
52(4) . . .
44(4) . . .
48(4) . . .
53(4) . . .
40.1(33) . . .
44.6(35) . . .
48(4) . . .
45(4) . . .
44(4) . . .
44(4) . . .
42.0(34) . . .
43(4) . . .
42(4) . . .
48(4) . . .
47(4) . . .
42.8(35) . . .
42.2(34) . . .
50(4) . . .
44.0(34) . . .
46(4) . . .
52(4) . . .
49(4) . . .
54(4) . . .
53(4) . . .
46(4) . . .
55(4) . . .
55(4) . . .
42(4) . . .
45(4) . . .
39.4(33) . . .
44(4) . . .
55(4) . . .
44(4) . . .
40.3(32) . . .
57(4) . . .
47(4) . . .
44(4) . . .
49(4) . . .
44(4) . . .
54(4) . . .
53(4) . . .
52(4) . . .
54(4) . . .
42(4) . . .
44.5(34) . . .
48(4) . . .
40.5(34) . . .
48(4) . . .
53(4) . . .
46(4) . . .
39.8(34) . . .
39.9(34) . . .
43(4) . . .
48(4) . . .
43.3(34) . . .
44(4) . . .
38.8(34) . . .
52(4) . . .
44.0(34) . . .
47(4) . . .
39.7(33) . . .
47(4) . . .
38.8(32) . . .
47(4) . . .
39.8(33) . . .
44(4) . . .
37.2(32) . . .
45(4) . . .
37.3(32) . . .
44.6(35) . . .
39.3(34) . . .
34.3(32) . . .
49(4) . . .
50(4) . . .
46(4) . . .
36.2(31) . . .
40.4(35) . . .
39.2(34) . . .
42.8(34) . . .
49(4) . . .
52(4) . . .
49(4) . . .
46(4) . . .
40.6(33) . . .
39.3(32) . . .
36.4(31) . . .
43(4) . . .
46(4) . . .
51(4) . . .
43.3(35) . . .
47(4) . . .
37.1(33) . . .
34.9(32) . . .
43.7(34) . . .
47(4) . . .
40.1(34) . . .
53(4) . . .
47(4) . . .
54(4) . . .
42.7(35) . . .
39.1(35) . . .
44(4) . . .
51(4) . . .
43.2(34) . . .
57(4) . . .
40(4) . . .
34.9(31) . . .
41.7(34) . . .
48(4) . . .
45(4) . . .
40.3(35) . . .
44(4) . . .
47(4) . . .
46.3(35) . . .
53(4) . . .
42.9(35) . . .
43.9(35) . . .
55(4) . . .
41.5(33) . . .
48(4) . . .
41.4(35) . . .
40.2(33) . . .
51(4) . . .
47(4) . . .
54(4) . . .
45(4) . . .
38.1(34) . . .
37.6(32) . . .
47(4) . . .
41.8(34) . . .
56(4) . . .
41.6(34) . . .
36.1(31) . . .
44(4) . . .
40.2(33) . . .
47(4) . . .
41.9(34) . . .
43.3(34) . . .
32.0(29) . . .
46(4) . . .
47(4) . . .
41.6(34) . . .
40.5(34) . . .
45(4) . . .
47(4) . . .
35.1(32) . . .
45(4) . . .
38.5(33) . . .
48(4) . . .
41.8(35) . . .
44(4) . . .
46(4) . . .
39.2(33) . . .
47(4) . . .
44(4) . . .
44(4) . . .
49(4) . . .
47(4) . . .
55(4) . . .
50(4) . . .
43.2(34) . . .
47(4) . . .
53(4) . . .
51(4) . . .
45(4) . . .
39.3(33) . . .
56(4) . . .
49(4) . . .
46(4) . . .
56(4) . . .
47(4) . . .
42.3(34) . . .
37.0(32) . . .
43(4) . . .
42(4) . . .
47(4) . . .
43.1(33) . . .
54(4) . . .
39.5(33) . . .
46(4) . . .
41.6(33) . . .
53(4) . . .
49(4) . . .
36.8(32) . . .
47(4) . . .
46(4) . . .
42.9(34) . . .
37.9(32) . . .
44(4) . . .
44(4) . . .
47(4) . . .
44.5(35) . . .
34.3(32) . . .
39.1(35) . . .
42(4) . . .
43.9(34) . . .
46(4) . . .
50(4) . . .
42.2(35) . . .
47(4) . . .
47(4) . . .
52(4) . . .
56(4) . . .
47(4) . . .
38.5(33) . . .
44.0(35) . . .
42.6(33) . . .
46(4) . . .
45(4) . . .
45(4) . . .
46(4) . . .
57(4) . . .
43.2(34) . . .
41.0(33) . . .
52(4) . . .
51(4) . . .
43(4) . . .
42(4) . . .
47(4) . . .
45(4) . . .
43.0(34) . . .
42.8(33) . . .
49(4) . . .
46(4) . . .
45(4) . . .
52(4) . . .
45.0(34) . . .
61(4) . . .
51(4) . . .
43(4) . . .
39.6(33) . . .
39.0(32) . . .
50(4) . . .
45.3(35) . . .
44(4) . . .
45.2(35) . . .
38.5(35) . . .
40.3(34) . . .
39.8(33) . . .
42(4) . . .
47(4) . . .
44(4) . . .
48(4) . . .
43.0(34) . . .
41.5(34) . . .
48(4) . . .
44(4) . . .
45(4) . . .
53(4) . . .
45.3(35) . . .
37.1(32) . . .
43(4) . . .
43(4) . . .
38.5(34) . . .
43.2(34) . . .
47(4) . . .
44(4) . . .
36.1(31) . . .
49(4) . . .
51(4) . . .
54(4) . . .
47(4) . . .
50(4) . . .
43.9(34) . . .
43.4(34) . . .
43.6(35) . . .
40.3(33) . . .
46(4) . . .
51(4) . . .
52(4) . . .
57(4) . . .
43.6(33) . . .
49(4) . . .
39.5(33) . . .
47(4) . . .
48(4) . . .
62(4) . . .
43.0(35) . . .
41.0(35) . . .
39.6(33) . . .
54(4) . . .
55(4) . . .
46(4) . . .
37.7(34) . . .
45.5(35) . . .
39.3(33) . . .
38.0(33) . . .
37.5(34) . . .
36.9(32) . . .
52(4) . . .
44.0(35) . . .
43(4) . . .
43(4) . . .
40.2(35) . . .
42.2(34) . . .
46(4) . . .
49(4) . . .
48(4) . . .
57(4) . . .
51(4) . . .
45(4) . . .
41.2(35) . . .
47(4) . . .
49(4) . . .
47(4) . . .
47(4) . . .
45(4) . . .
38.5(34) . . .
38.7(32) . . .
40.0(34) . . .
41(4) . . .
31.8(30) . . .
44(4) . . .
45.0(35) . . .
33.6(31) . . .
47(4) . . .
41.6(33) . . .
42.3(34) . . .
46(4) . . .
44.0(35) . . .
49(4) . . .
52(4) . . .
48(4) . . .
45.1(35) . . .
40.4(33) . . .
44.0(35) . . .
49(4) . . .
47(4) . . .
37.1(32) . . .
38.7(32) . . .
43.8(35) . . .
52(4) . . .
52(4) . . .
37.3(32) . . .
45(4) . . .
43(4) . . .
40(4) . . .
41.7(34) . . .
49(4) . . .
47(4) . . .
37.4(35) . . .
44(4) . . .
40.6(35) . . .
42.3(34) . . .
46(4) . . .
47(4) . . .
44(4) . . .
30.6(29) . . .
38.2(32) . . .
37.0(33) . . .
50(4) . . .
47(4) . . .
38.6(33) . . .
40.5(33) . . .
44(4) . . .
50(4) . . .
40.5(34) . . .
41.2(33) . . .
39.4(33) . . .
47(4) . . .
38.4(33) . . .
35.4(31) . . .
37.1(31) . . .
39.2(34) . . .
39.8(33) . . .
45(4) . . .
49(4) . . .
41.3(34) . . .
48(4) . . .
47(4) . . .
45(4) . . .
44(4) . . .
49(4) . . .
52(4) . . .
47(4) . . .
37.1(33) . . .
43.4(35) . . .
50(4) . . .
45(4) . . .
45(4) . . .
44(4) . . .
43(4) . . .
56(4) . . .
52(4) . . .
35.2(31) . . .
37.3(34) . . .
41.7(34) . . .
42.2(34) . . .
50(4) . . .
50(4) . . .
50(4) . . .
42.6(34) . . .
44.8(35) . . .
42.9(34) . . .
42.0(35) . . .
48(4) . . .
47(4) . . .
53(4) . . .
41.4(34) . . .
45(4) . . .
43.5(35) . . .
48(4) . . .
43.3(34) . . .
49(4) . . .
45(4) . . .
40.0(35) . . .
41.4(34) . . .
45.3(35) . . .
36.2(34) . . .
43(4) . . .
51(4) . . .
43.2(34) . . .
49(4) . . .
44.6(34) . . .
55(4) . . .
52(4) . . .
50(4) . . .
39.1(32) . . .
47(4) . . .
44(4) . . .
48(4) . . .
44.3(34) . . .
44(4) . . .
45(4) . . .
38.7(33) . . .
49(4) . . .
43.0(34) . . .
51(4) . . .
61(4) . . .
48(4) . . .
40.7(33) . . .
45(4) . . .
44.2(34) . . .
49(4) . . .
46(4) . . .
47(4) . . .
46(4) . . .
45.8(35) . . .
48(4) . . .
50(4) . . .
34.8(31) . . .
46(4) . . .
51(4) . . .
41.1(35) . . .
51(4) . . .
45.6(35) . . .
48(4) . . .
43.7(35) . . .
42(4) . . .
45(4) . . .
49(4) . . .
46(4) . . .
41(4) . . .
35.5(32) . . .
37.2(32) . . .
53(4) . . .
39.5(32) . . .
39.1(33) . . .
46(4) . . .
41.5(33) . . .
47(4) . . .
48(4) . . .
50(4) . . .
35.1(31) . . .
48(4) . . .
49(4) . . .
49(4) . . .
44(4) . . .
48(4) . . .
38.0(32) . . .
43.7(34) . . .
52(4) . . .
47(4) . . .
43(4) . . .
46(4) . . .
46(4) . . .
41.3(33) . . .
52(4) . . .
49(4) . . .
43(4) . . .
52(4) . . .
53(4) . . .
52(4) . . .
45(4) . . .
40.5(33) . . .
46.2(35) . . .
45.2(35) . . .
48(4) . . .
51(4) . . .
44(4) . . .
40.2(33) . . .
52(4) . . .
56(4) . . .
50(4) . . .
52(4) . . .
41.3(34) . . .
54(4) . . .
55(4) . . .
44.0(34) . . .
49(4) . . .
54(4) . . .
38.3(34) . . .
48(4) . . .
46(4) . . .
46(4) . . .
48(4) . . .
54(4) . . .
44(4) . . .
49(4) . . .
36.7(31) . . .
45(4) . . .
44(4) . . .
55(4) . . .
45(4) . . .
44.2(34) . . .
35.5(32) . . .
38.5(34) . . .
49(4) . . .
40.9(34) . . .
48(4) . . .
39.0(33) . . .
47(4) . . .
53(4) . . .
43.6(35) . . .
45(4) . . .
45.2(34) . . .
45.6(35) . . .
44(4) . . .
50(4) . . .
45.6(35) . . .
47(4) . . .
47(4) . . .
40.1(33) . . .
46(4) . . .
42.2(34) . . .
41(4) . . .
43(4) . . .
39.5(32) . . .
45(4) . . .
44.0(34) . . .
55(4) . . .
52(4) . . .
47(4) . . .
47(4) . . .
45(4) . . .
50(4) . . .
36.5(32) . . .
47(4) . . .
49(4) . . .
49(4) . . .
38.6(34) . . .
45(4) . . .
48(4) . . .
40.6(33) . . .
42.2(34) . . .
42.1(35) . . .
44(4) . . .
39.9(35) . . .
41.2(35) . . .
44.7(35) . . .
43.5(35) . . .
53(4) . . .
45(4) . . .
52(4) . . .
47(4) . . .
45(4) . . .
39.3(34) . . .
43(4) . . .
43.1(34) . . .
41.2(34) . . .
44.0(35) . . .
51(4) . . .
42.3(34) . . .
50(4) . . .
48(4) . . .
39.8(33) . . .
49(4) . . .
43.3(34) . . .
48(4) . . .
47(4) . . .
40.3(33) . . .
38.7(33) . . .
46(4) . . .
41.4(34) . . .
41.9(35) . . .
41.6(35) . . .
40.9(34) . . .
42.5(34) . . .
60(4) . . .
46(4) . . .
56(4) . . .
41.2(33) . . .
41.7(34) . . .
47(4) . . .
51(4) . . .
47(4) . . .
47(4) . . .
40.9(34) . . .
39.8(33) . . .
46(4) . . .
47(4) . . .
39.0(34) . . .
52(4) . . .
47(4) . . .
48(4) . . .
49(4) . . .
50(4) . . .
42.8(34) . . .
50(4) . . .
44(4) . . .
34.5(32) . . .
51(4) . . .
39.0(32) . . .
40.6(33) . . .
42(4) . . .
39(4) . . .
41.5(34) . . .
38.9(32) . . .
48(4) . . .
44(4) . . .
41.6(34) . . .
59(4) . . .
48(4) . . .
42.1(34) . . .
45(4) . . .
41(4) . . .
45(4) . . .
52(4) . . .
43.1(34) . . .
43(4) . . .
42(4) . . .
38(4) . . .
46(4) . . .
42.2(34) . . .
51(4) . . .
46(4) . . .
55(4) . . .
49(4) . . .
53(4) . . .
48(4) . . .
47(4) . . .
49(4) . . .
47(4) . . .
39.9(34) . . .
42.4(35) . . .
56(4) . . .
50(4) . . .
46(4) . . .
41.4(34) . . .
38.9(32) . . .
49(4) . . .
45(4) . . .
48(4) . . .
45(4) . . .
45(4) . . .
53(4) . . .
44(4) . . .
32.3(30) . . .
40.5(34) . . .
42(4) . . .
39(4) . . .
53(4) . . .
49(4) . . .
46(4) . . .
52(4) . . .
39.1(33) . . .
43.6(34) . . .
46(4) . . .
46(4) . . .
46(4) . . .
51(4) . . .
48(4) . . .
50(4) . . .
49(4) . . .
41(4) . . .
40(4) . . .
44.8(35) . . .
40.5(33) . . .
38.1(33) . . .
47(4) . . .
36.1(33) . . .
38.2(32) . . .
39.1(33) . . .
41.0(35) . . .
41.7(35) . . .
45(4) . . .
46(4) . . .
49(4) . . .
38.7(32) . . .
45(4) . . .
42(4) . . .
37.5(32) . . .
38.5(34) . . .
39.5(34) . . .
49(4) . . .
47(4) . . .
48(4) . . .
44.1(35) . . .
45(4) . . .
44(4) . . .
43.6(35) . . .
46(4) . . .
37.5(32) . . .
38.4(32) . . .
45(4) . . .
41(4) . . .
50(4) . . .
44(4) . . .
43(4) . . .
38.7(34) . . .
35.3(31) . . .
47(4) . . .
42.4(34) . . .
39.4(34) . . .
37.7(32) . . .
47(4) . . .
37.0(32) . . .
51(4) . . .
48(4) . . .
43.0(35) . . .
41.1(33) . . .
42.2(34) . . .
37.4(34) . . .
48(4) . . .
41.4(35) . . .
38.7(34) . . .
48(4) . . .
43(4) . . .
47(4) . . .
42.7(35) . . .
49(4) . . .
33.5(30) . . .
49(4) . . .
52(4) . . .
49(4) . . .
40.5(33) . . .
44(4) . . .
39.6(34) . . .
38.0(33) . . .
40(4) . . .
42.5(34) . . .
41.3(33) . . .
53(4) . . .
42(4) . . .
42.0(35) . . .
50(4) . . .
46(4) . . .
34.7(31) . . .
43.6(35) . . .
54(4) . . .
50(4) . . .
46(4) . . .
48(4) . . .
47(4) . . .
46(4) . . .
46(4) . . .
47(4) . . .
43(4) . . .
36.7(33) . . .
37.8(31) . . .
37.2(32) . . .
40.1(33) . . .
50(4) . . .
46(4) . . .
35.9(32) . . .
33.0(30) . . .
49(4) . . .
45(4) . . .
38.4(32) . . .
39.3(32) . . .
56(4) . . .
41.2(33) . . .
46(4) . . .
49(4) . . .
47(4) . . .
38.7(32) . . .
33.8(32) . . .
43(4) . . .
47(4) . . .
50(4) . . .
39.6(33) . . .
39.6(34) . . .
44(4) . . .
56(4) . . .
49(4) . . .
46(4) . . .
40.3(33) . . .
37.0(32) . . .
40(4) . . .
44.3(34) . . .
40.8(34) . . .
50(4) . . .
40.4(34) . . .
43.1(35) . . .
49(4) . . .
51(4) . . .
42(4) . . .
45(4) . . .
40.6(34) . . .
42.8(35) . . .
43(4) . . .
38.2(33) . . .
46(4) . . .
45(4) . . .
42.6(34) . . .
45(4) . . .
34.4(30) . . .
40.8(34) . . .
40.8(33) . . .
40.4(33) . . .
48(4) . . .
49(4) . . .
48(4) . . .
46(4) . . .
44.6(35) . . .
45(4) . . .
44(4) . . .
39(4) . . .
41.9(33) . . .
47(4) . . .
42(4) . . .
43(4) . . .
43.5(33) . . .
41.3(33) . . .
38.0(32) . . .
37.3(32) . . .
46(4) . . .
43(4) . . .
47(4) . . .
55(4) . . .
48(4) . . .
42(4) . . .
41(4) . . .
44.8(35) . . .
46(4) . . .
42.4(35) . . .
47(4) . . .
48(4) . . .
49(4) . . .
38.3(32) . . .
44(4) . . .
35.2(32) . . .
49(4) . . .
49(4) . . .
36.3(32) . . .
51(4) . . .
47(4) . . .
50(4) . . .
42.9(34) . . .
36.0(31) . . .
43(4) . . .
46(4) . . .
43.1(35) . . .
40.4(34) . . .
54(4) . . .
39(4) . . .
48(4) . . .
37.8(32) . . .
46(4) . . .
33.4(30) . . .
40.1(35) . . .
35.6(30) . . .
51(4) . . .
52(4) . . .
47(4) . . .
53(4) . . .
49(4) . . .
43.0(34) . . .
48(4) . . .
41.7(35) . . .
35.6(32) . . .
44(4) . . .
46(4) . . .
32.4(30) . . .
42(4) . . .
48(4) . . .
40.5(33) . . .
40.9(33) . . .
40.5(34) . . .
49(4) . . .
40.1(34) . . .
47(4) . . .
35.9(31) . . .
40.3(33) . . .
44.3(35) . . .
54(4) . . .
38.0(33) . . .
42.7(35) . . .
42.8(34) . . .
39.7(33) . . .
43(4) . . .
38.8(33) . . .
49(4) . . .
49(4) . . .
53(4) . . .
40.8(34) . . .
43.3(35) . . .
45.1(35) . . .
55(4) . . .
47(4) . . .
42(4) . . .
46(4) . . .
43.7(34) . . .
40.2(34) . . .
41.2(34) . . .
40.0(33) . . .
37.6(32) . . .
38.9(32) . . .
43(4) . . .
45(4) . . .
47(4) . . .
47(4) . . .
41.3(33) . . .
50(4) . . .
48(4) . . .
47(4) . . .
40.7(33) . . .
48(4) . . .
45(4) . . .
47(4) . . .
43(4) . . .
41.3(34) . . .
47(4) . . .
45(4) . . .
43(4) . . .
46(4) . . .
45(4) . . .
40.4(33) . . .
46(4) . . .
43(4) . . .
41(4) . . .
42.0(34) . . .
35.8(31) . . .
45(4) . . .
41(4) . . .
42(4) . . .
50(4) . . .
39.8(33) . . .
30.6(29) . . .
46(4) . . .
42.3(34) . . .
44.6(35) . . .
43.5(34) . . .
43(4) . . .
33.5(32) . . .
42.6(35) . . .
41.2(33) . . .
47(4) . . .
39.7(33) . . .
40.2(34) . . .
44(4) . . .
49(4) . . .
47(4) . . .
52(4) . . .
51(4) . . .
49(4) . . .
47(4) . . .
47(4) . . .
58(4) . . .
40.9(33) . . .
48(4) . . .
41.8(34) . . .
43(4) . . .
38(4) . . .
45(4) . . .
51(4) . . .
36.3(32) . . .
37.2(33) . . .
44(4) . . .
45(4) . . .
38.5(32) . . .
37.3(32) . . .
42(4) . . .
42.7(34) . . .
50(4) . . .
56(4) . . .
37.2(32) . . .
37.3(33) . . .
45(4) . . .
37.3(31) . . .
45(4) . . .
48(4) . . .
41(4) . . .
48(4) . . .
50(4) . . .
59(4) . . .
46(4) . . .
36.3(32) . . .
38.9(34) . . .
45(4) . . .
44.8(35) . . .
40(4) . . .
46(4) . . .
51(4) . . .
53(4) . . .
44.1(35) . . .
43.4(34) . . .
55(4) . . .
53(4) . . .
46(4) . . .
44.0(34) . . .
53(4) . . .
49(4) . . .
47(4) . . .
47(4) . . .
39.8(33) . . .
37.9(33) . . .
43(4) . . .
45(4) . . .
41.3(34) . . .
41.8(33) . . .
48(4) . . .
39(4) . . .
39.0(34) . . .
42.4(34) . . .
37.3(31) . . .
41.0(34) . . .
34.9(33) . . .
39.1(34) . . .
42.4(34) . . .
45.2(35) . . .
35.9(32) . . .
37.4(34) . . .
43.4(34) . . .
54(4) . . .
47(4) . . .
45(4) . . .
49(4) . . .
46(4) . . .
39.7(33) . . .
51(4) . . .
57(4) . . .
34.3(33) . . .
42(4) . . .
54(4) . . .
47(4) . . .
45(4) . . .
41.9(35) . . .
40.1(33) . . .
43.1(34) . . .
36.0(31) . . .
38.1(33) . . .
46(4) . . .
37.0(33) . . .
43.8(35) . . .
41.1(33) . . .
42(4) . . .
51(4) . . .
42.5(35) . . .
39.9(33) . . .
37.7(32) . . .
49(4) . . .
38.9(34) . . .
39.3(32) . . .
48(4) . . .
48(4) . . .
39.6(34) . . .
43(4) . . .
50(4) . . .
48(4) . . .
43.9(34) . . .
44(4) . . .
36.6(33) . . .
43(4) . . .
46.4(35) . . .
44(4) . . .
42(4) . . .
45(4) . . .
41.5(33) . . .
41.7(35) . . .
48(4) . . .
48(4) . . .
46(4) . . .
47(4) . . .
38.4(32) . . .
42.8(35) . . .
55(4) . . .
50(4) . . .
59(4) . . .
40.5(34) . . .
56(4) . . .
49(4) . . .
38.4(33) . . .
48(4) . . .
37.3(32) . . .
36.8(34) . . .
31.8(32) . . .
49(4) . . .
52(4) . . .
40.6(33) . . .
37.6(33) . . .
44(4) . . .
47(4) . . .
44.3(34) . . .
45.9(35) . . .
53(4) . . .
49(4) . . .
49(4) . . .
50(4) . . .
52(4) . . .
45(4) . . .
53(4) . . .
54(4) . . .
42.2(34) . . .
35.3(30) . . .
44(4) . . .
42(4) . . .
44(4) . . .
44.4(35) . . .
34.2(30) . . .
37.4(33) . . .
42(4) . . .
44(4) . . .
41.8(34) . . .
44(4) . . .
52(4) . . .
45(4) . . .
41.0(35) . . .
43.2(34) . . .
45(4) . . .
44(4) . . .
41.2(35) . . .
43.6(35) . . .
49(4) . . .
47(4) . . .
32.9(31) . . .
43(4) . . .
37.2(32) . . .
39.7(33) . . .
49(4) . . .
47(4) . . .
40.5(34) . . .
49(4) . . .
50(4) . . .
50(4) . . .
55(4) . . .
47(4) . . .
49(4) . . .
46(4) . . .
44(4) . . .
39.4(34) . . .
52(4) . . .
47(4) . . .
44(4) . . .
48(4) . . .
42(4) . . .
41.5(34) . . .
44.2(34) . . .
40.5(34) . . .
51(4) . . .
48(4) . . .
43.2(35) . . .
45.2(35) . . .
46(4) . . .
44.8(34) . . .
58(4) . . .
49(4) . . .
44.2(35) . . .
43(4) . . .
44(4) . . .
41.1(34) . . .
39.7(33) . . .
51(4) . . .
40.9(33) . . .
54(4) . . .
39.0(34) . . .
43.4(34) . . .
48(4) . . .
37.0(32) . . .
43(4) . . .
36.5(32) . . .
44(4) . . .
45.6(35) . . .
46(4) . . .
55(4) . . .
43.3(34) . . .
39.5(33) . . .
51(4) . . .
50(4) . . .
41(4) . . .
41.5(34) . . .
42.4(34) . . .
41.1(33) . . .
42.4(34) . . .
37.6(31) . . .
38.0(32) . . .
42.9(35) . . .
38.0(31) . . .
41.6(34) . . .
46(4) . . .
51(4) . . .
45(4) . . .
41(4) . . .
37.6(32) . . .
46(4) . . .
40.8(33) . . .
39.7(33) . . .
39.6(34) . . .
41(4) . . .
41.8(33) . . .
46(4) . . .
46(4) . . .
57(4) . . .
43(4) . . .
42.1(35) . . .
42.2(34) . . .
50(4) . . .
40.5(35) . . .
41.9(34) . . .
48(4) . . .
39.2(32) . . .
43.1(34) . . .
45(4) . . .
43(4) . . .
43(4) . . .
49(4) . . .
37.9(32) . . .
51(4) . . .
46(4) . . .
38.1(33) . . .
42.6(34) . . .
53(4) . . .
40.8(35) . . .
46(4) . . .
43(4) . . .
39.8(33) . . .
42.2(34) . . .
49(4) . . .
33.9(32) . . .
44(4) . . .
40.8(34) . . .
42.1(34) . . .
39.5(34) . . .
36.9(33) . . .
44(4) . . .
49(4) . . .
47(4) . . .
44(4) . . .
48(4) . . .
47(4) . . .
41.0(33) . . .
41.0(33) . . .
51(4) . . .
44(4) . . .
33.0(31) . . .
42.1(34) . . .
49(4) . . .
44(4) . . .
36.6(31) . . .
41.2(34) . . .
28.7(28) . . .
40.8(33) . . .
42.1(35) . . .
49(4) . . .
48(4) . . .
37.9(33) . . .
44(4) . . .
40(4) . . .
44(4) . . .
47(4) . . .
44.3(34) . . .
39.6(33) . . .
39.7(34) . . .
44(4) . . .
40.4(34) . . .
50(4) . . .
43.2(35) . . .
50(4) . . .
52(4) . . .
40.7(33) . . .
43.4(34) . . .
41.5(34) . . .
38(4) . . .
45(4) . . .
40.5(33) . . .
50(4) . . .
48(4) . . .
48(4) . . .
44(4) . . .
43.0(34) . . .
44.3(34) . . .
40.2(33) . . .
55(4) . . .
46(4) . . .
43.1(34) . . .
42.9(34) . . .
35.8(32) . . .
33.1(30) . . .
46(4) . . .
40.6(33) . . .
40.4(34) . . .
39.4(33) . . .
45(4) . . .
42.7(35) . . .
44.0(35) . . .
39.5(33) . . .
37.2(34) . . .
44(4) . . .
42(4) . . .
37.5(32) . . .
36.1(34) . . .
39.1(34) . . .
47(4) . . .
46(4) . . .
39.0(32) . . .
45(4) . . .
50(4) . . .
49(4) . . .
40.3(33) . . .
56(4) . . .
44(4) . . .
44.4(35) . . .
52(4) . . .
41.9(34) . . .
48(4) . . .
52(4) . . .
46(4) . . .
36.9(32) . . .
41.1(34) . . .
40.5(33) . . .
41.8(35) . . .
46(4) . . .
47(4) . . .
45.5(35) . . .
50(4) . . .
44(4) . . .
33.1(31) . . .
37.7(35) . . .
43.4(35) . . .
44.8(34) . . .
41.5(34) . . .
43(4) . . .
47(4) . . .
43.5(35) . . .
37.9(32) . . .
43.8(35) . . .
41.8(34) . . .
47(4) . . .
44.4(35) . . .
41(4) . . .
37.8(32) . . .
43(4) . . .
45(4) . . .
43.8(35) . . .
46(4) . . .
40.9(33) . . .
46(4) . . .
55(4) . . .
51(4) . . .
42.6(35) . . .
38.7(32) . . .
37.7(35) . . .
37.6(33) . . .
49(4) . . .
42.8(34) . . .
46(4) . . .
46(4) . . .
39.8(33) . . .
39.1(32) . . .
43(4) . . .
50(4) . . .
48(4) . . .
50(4) . . .
38.5(32) . . .
34.5(31) . . .
44(4) . . .
44(4) . . .
35.6(31) . . .
48(4) . . .
45(4) . . .
45(4) . . .
39.7(33) . . .
30.4(29) . . .
43.2(34) . . .
38.2(32) . . .
51(4) . . .
52(4) . . .
48(4) . . .
47(4) . . .
50(4) . . .
45(4) . . .
34.1(30) . . .
39.6(33) . . .
36.1(31) . . .
46(4) . . .
49(4) . . .
51(4) . . .
41.8(34) . . .
37.0(32) . . .
46(4) . . .
52(4) . . .
50(4) . . .
42.7(35) . . .
40.1(34) . . .
44(4) . . .
44(4) . . .
37.8(33) . . .
44.9(35) . . .
36.3(32) . . .
40.3(34) . . .
51(4) . . .
46(4) . . .
49(4) . . .
36.3(31) . . .
37.7(33) . . .
47(4) . . .
45.9(35) . . .
44.3(35) . . .
51(4) . . .
38.7(35) . . .
40(4) . . .
46(4) . . .
42.8(34) . . .
45(4) . . .
37.5(32) . . .
54(4) . . .
46(4) . . .
49(4) . . .
45(4) . . .
46(4) . . .
52(4) . . .
44.1(34) . . .
42.9(34) . . .
38(4) . . .
46(4) . . .
42.0(34) . . .
46.7(35) . . .
48(4) . . .
42(4) . . .
39(4) . . .
45(4) . . .
37.2(32) . . .
42.0(34) . . .
42.2(34) . . .
46(4) . . .
51(4) . . .
34.3(31) . . .
38.4(33) . . .
36.7(33) . . .
44(4) . . .
46(4) . . .
57(4) . . .
46(4) . . .
29.8(29) . . .
36.6(34) . . .
36.3(33) . . .
39.7(33) . . .
40.3(35) . . .
33.6(32) . . .
36.8(32) . . .
44(4) . . .
40.6(34) . . .
47(4) . . .
46(4) . . .
44(4) . . .
45(4) . . .
39.5(33) . . .
45(4) . . .
40.4(34) . . .
41(4) . . .
39.7(33) . . .
37.8(32) . . .
38.5(33) . . .
48(4) . . .
39.4(32) . . .
43.6(35) . . .
39.2(33) . . .
40.0(34) . . .
34.0(32) . . .
46(4) . . .
44.3(35) . . .
39.6(32) . . .
46(4) . . .
48(4) . . .
37.7(31) . . .
36.2(31) . . .
48(4) . . .
43(4) . . .
33.8(31) . . .
40.7(34) . . .
46(4) . . .
39.1(33) . . .
41.4(34) . . .
48(4) . . .
47(4) . . .
42.0(34) . . .
48(4) . . .
51(4) . . .
35.9(32) . . .
42(4) . . .
42.9(34) . . .
39.4(33) . . .
33.3(32) . . .
46(4) . . .
40.1(33) . . .
39.4(33) . . .
46(4) . . .
40.5(34) . . .
44(4) . . .
48(4) . . .
47(4) . . .
46(4) . . .
35.5(33) . . .
34.9(32) . . .
43(4) . . .
38.0(32) . . .
42(4) . . .
32.7(32) . . .
43.5(34) . . .
53(4) . . .
45(4) . . .
51(4) . . .
41.5(34) . . .
46(4) . . .
36.1(31) . . .
45.2(35) . . .
38.4(33) . . .
41.0(34) . . .
42.2(34) . . .
43(4) . . .
43(4) . . .
41.7(35) . . .
40.6(33) . . .
42.2(35) . . .
48(4) . . .
50(4) . . .
44(4) . . .
32.0(28) . . .
44(4) . . .
46(4) . . .
42.5(34) . . .
39.1(33) . . .
44(4) . . .
38.7(32) . . .
37.1(31) . . .
40.4(33) . . .
38.6(33) . . .
38.4(33) . . .
50(4) . . .
42.0(33) . . .
44(4) . . .
45(4) . . .
47(4) . . .
48(4) . . .
46(4) . . .
52(4) . . .
41.3(33) . . .
35.5(33) . . .
36.9(32) . . .
44.8(35) . . .
36.0(31) . . .
42.7(35) . . .
45(4) . . .
46(4) . . .
45.6(35) . . .
44(4) . . .
44(4) . . .
38.4(33) . . .
37.8(33) . . .
35.7(32) . . .
36.9(32) . . .
45(4) . . .
50(4) . . .
46(4) . . .
44.3(35) . . .
33.9(32) . . .
40.3(35) . . .
42(4) . . .
46(4) . . .
43.8(34) . . .
44.9(35) . . .
53(4) . . .
40.1(33) . . .
43.0(34) . . .
38.1(33) . . .
37.6(33) . . .
38.8(35) . . .
43.2(34) . . .
44(4) . . .
37.3(32) . . .
34.3(31) . . .
35.4(31) . . .
40.0(34) . . .
50(4) . . .
40.5(33) . . .
35.6(31) . . .
37(4) . . .
33.0(31) . . .
39.3(32) . . .
47(4) . . .
48(4) . . .
43(4) . . .
47(4) . . .
44.4(35) . . .
48(4) . . .
39.7(33) . . .
40(4) . . .
42(4) . . .
44.4(35) . . .
56(4) . . .
49(4) . . .
56(4) . . .
47(4) . . .
42.7(34) . . .
41.7(34) . . .
46(4) . . .
39.2(34) . . .
39.9(33) . . .
54(4) . . .
37.6(32) . . .
45(4) . . .
37.0(32) . . .
51(4) . . .
42.7(34) . . .
37.6(32) . . .
45(4) . . .
42(4) . . .
38.3(32) . . .
47(4) . . .
57(4) . . .
44(4) . . .
46(4) . . .
36.3(32) . . .
33.9(31) . . .
46(4) . . .
47(4) . . .
43.0(35) . . .
48(4) . . .
44.7(35) . . .
43(4) . . .
38(4) . . .
35.9(31) . . .
39.5(32) . . .
41.0(33) . . .
43.9(35) . . .
42(4) . . .
43.1(35) . . .
32.8(29) . . .
49(4) . . .
45(4) . . .
48(4) . . .
48(4) . . .
39.1(33) . . .
37.8(34) . . .
46(4) . . .
48(4) . . .
43.1(35) . . .
40.1(33) . . .
35.6(31) . . .
37.8(32) . . .
50(4) . . .
43.5(34) . . .
49(4) . . .
46(4) . . .
41.3(35) . . .
36.6(32) . . .
35.7(32) . . .
43.6(34) . . .
37.6(33) . . .
47(4) . . .
45(4) . . .
47(4) . . .
37.0(32) . . .
57(4) . . .
49(4) . . .
52(4) . . .
49(4) . . .
52(4) . . .
35.8(34) . . .
41(4) . . .
40(4) . . .
40.3(34) . . .
43.1(35) . . .
28.9(30) . . .
35.3(33) . . .
47(4) . . .
49(4) . . .
48(4) . . .
44.0(35) . . .
55(4) . . .
53(4) . . .
52(4) . . .
51(4) . . .
39.3(33) . . .
45(4) . . .
44(4) . . .
48(4) . . .
48(4) . . .
44(4) . . .
43(4) . . .
45(4) . . .
39.7(32) . . .
43.4(35) . . .
37.4(33) . . .
44(4) . . .
46(4) . . .
39.9(33) . . .
31.5(31) . . .
39(4) . . .
38.1(35) . . .
42(4) . . .
41.3(34) . . .
43(4) . . .
41(4) . . .
40.9(34) . . .
42.8(34) . . .
40.1(33) . . .
46(4) . . .
41.5(34) . . .
41.8(33) . . .
47(4) . . .
37.9(32) . . .
41.3(34) . . .
51(4) . . .
48(4) . . .
49(4) . . .
37.9(32) . . .
48(4) . . .
49(4) . . .
38.6(33) . . .
38.8(32) . . .
41.5(34) . . .
52(4) . . .
42(4) . . .
40(4) . . .
50(4) . . .
45.1(35) . . .
46(4) . . .
46(4) . . .
44(4) . . .
44.3(35) . . .
44.4(35) . . .
33.9(30) . . .
40.5(34) . . .
40.5(35) . . .
42.5(34) . . .
48(4) . . .
48(4) . . .
36.1(33) . . .
42.3(34) . . .
40.8(33) . . .
47(4) . . .
40(4) . . .
45(4) . . .
48(4) . . .
39.8(33) . . .
44.8(34) . . .
36.6(32) . . .
34.8(32) . . .
45(4) . . .
42.2(34) . . .
44.2(35) . . .
45(4) . . .
37.8(32) . . .
45(4) . . .
44.6(35) . . .
46(4) . . .
43(4) . . .
37.1(34) . . .
45(4) . . .
40.3(33) . . .
49(4) . . .
51(4) . . .
39.8(35) . . .
41.9(34) . . .
39.3(33) . . .
48(4) . . .
47(4) . . .
53(4) . . .
46.0(35) . . .
40.7(33) . . .
37.4(32) . . .
44(4) . . .
46(4) . . .
39.2(32) . . .
43.8(34) . . .
43.0(35) . . .
44(4) . . .
39(4) . . .
38.2(32) . . .
50(4) . . .
55(4) . . .
40.1(35) . . .
40.2(35) . . .
53(4) . . .
45.8(35) . . .
43.1(35) . . .
41.0(34) . . .
41.3(34) . . .
45.4(35) . . .
36.5(32) . . .
39.1(33) . . .
49(4) . . .
40.5(35) . . .
30.7(29) . . .
42.0(34) . . .
41(4) . . .
42(4) . . .
52(4) . . .
40.0(33) . . .
40.8(34) . . .
46(4) . . .
39(4) . . .
39.9(34) . . .
42.0(34) . . .
36.8(32) . . .
36.9(33) . . .
34.6(31) . . .
42.2(35) . . .
48(4) . . .
51(4) . . .
39.7(33) . . .
48(4) . . .
42(4) . . .
30.0(28) . . .
40.1(34) . . .
37.5(32) . . .
36.4(31) . . .
39.0(32) . . .
41.7(34) . . .
36.6(31) . . .
43.3(35) . . .
43.1(34) . . .
45.2(35) . . .
42.8(35) . . .
37.1(33) . . .
46(4) . . .
52(4) . . .
35.2(31) . . .
33.0(30) . . .
49(4) . . .
35.1(32) . . .
40(4) . . .
39.1(32) . . .
38.2(32) . . .
42(4) . . .
45(4) . . .
40.3(34) . . .
40.0(34) . . .
45.8(35) . . .
44(4) . . .
45(4) . . .
45(4) . . .
42.3(34) . . .
37.7(32) . . .
48(4) . . .
32.6(32) . . .
38.7(34) . . .
43.0(34) . . .
35.5(31) . . .
46(4) . . .
40.6(34) . . .
49(4) . . .
40.6(33) . . .
36.0(33) . . .
37.5(32) . . .
44(4) . . .
30.8(29) . . .
46(4) . . .
48(4) . . .
45(4) . . .
41.0(33) . . .
44.1(34) . . .
38.7(33) . . .
44(4) . . .
46(4) . . .
38.3(33) . . .
43.8(34) . . .
45.3(35) . . .
43.0(34) . . .
44(4) . . .
38.9(34) . . .
44.7(34) . . .
42.3(34) . . .
37.4(34) . . .
30.4(30) . . .
38.4(34) . . .
48(4) . . .
48(4) . . .
48(4) . . .
33.6(32) . . .
33.1(32) . . .
44.0(35) . . .
44.8(35) . . .
39.2(33) . . .
42(4) . . .
39.7(35) . . .
35.8(31) . . .
47(4) . . .
44(4) . . .
44.5(35) . . .
44(4) . . .
53(4) . . .
43.2(35) . . .
45(4) . . .
41.6(35) . . .
39.5(35) . . .
43.0(34) . . .
40.1(34) . . .
42(4) . . .
41.9(35) . . .
47(4) . . .
38.0(33) . . .
37.3(33) . . .
35.4(31) . . .
39.5(34) . . .
44(4) . . .
41.7(34) . . .
47(4) . . .
48(4) . . .
39.8(34) . . .
37.8(33) . . .
39.3(32) . . .
42.0(34) . . .
45(4) . . .
36.9(33) . . .
40.7(35) . . .
40.9(33) . . .
41.8(34) . . .
41.3(35) . . .
37.5(32) . . .
44.4(34) . . .
50(4) . . .
39.0(34) . . .
45(4) . . .
44(4) . . .
44(4) . . .
54(4) . . .
44.9(34) . . .
43(4) . . .
46(4) . . .
50(4) . . .
45.8(35) . . .
50(4) . . .
45(4) . . .
48(4) . . .
47(4) . . .
47(4) . . .
49(4) . . .
36.3(32) . . .
38.7(33) . . .
41.1(33) . . .
41.7(33) . . .
46(4) . . .
42(4) . . .
44.2(35) . . .
40.4(33) . . .
48(4) . . .
35.7(31) . . .
47(4) . . .
41.9(35) . . .
36.7(32) . . .
40.2(34) . . .
44(4) . . .
43(4) . . .
45(4) . . .
50(4) . . .
37.0(31) . . .
38.4(32) . . .
41.3(33) . . .
51(4) . . .
48(4) . . .
40(4) . . .
39.2(34) . . .
44(4) . . .
43.3(35) . . .
43.8(35) . . .
39.3(33) . . .
39(4) . . .
47(4) . . .
39.5(33) . . .
46(4) . . .
40.0(33) . . .
48(4) . . .
49(4) . . .
39.5(33) . . .
37.7(32) . . .
52(4) . . .
38.0(32) . . .
33.7(30) . . .
43.0(35) . . .
33.6(31) . . .
45(4) . . .
38.1(35) . . .
42(4) . . .
43.8(34) . . .
43(4) . . .
38.2(32) . . .
42.0(34) . . .
39.0(33) . . .
37.2(32) . . .
50(4) . . .
37.2(33) . . .
37.3(33) . . .
45(4) . . .
44.5(35) . . .
41.1(34) . . .
45(4) . . .
40(4) . . .
41.9(35) . . .
38.7(33) . . .
37.8(32) . . .
41(4) . . .
30.7(29) . . .
41.8(34) . . .
45(4) . . .
52(4) . . .
46(4) . . .
41.5(35) . . .
45(4) . . .
42.2(33) . . .
38.0(33) . . .
45(4) . . .
33.4(31) . . .
45(4) . . .
31.0(29) . . .
53(4) . . .
46(4) . . .
51(4) . . .
38.0(32) . . .
36.2(31) . . .
35.2(31) . . .
44(4) . . .
38.3(33) . . .
47(4) . . .
43.3(34) . . .
36.2(31) . . .
37.7(35) . . .
43(4) . . .
39.9(34) . . .
44.2(34) . . .
42.0(33) . . .
34.4(31) . . .
42(4) . . .
37.5(32) . . .
45(4) . . .
33.2(31) . . .
42(4) . . .
38.9(33) . . .
39.1(33) . . .
42.4(34) . . .
43.5(34) . . .
46(4) . . .
47(4) . . .
42.8(34) . . .
41(4) . . .
44(4) . . .
42.7(35) . . .
46(4) . . .
42.5(34) . . .
46(4) . . .
49(4) . . .
44.3(35) . . .
45(4) . . .
41.6(34) . . .
33.7(30) . . .
45(4) . . .
40.1(34) . . .
46(4) . . .
46(4) . . .
43.0(35) . . .
44(4) . . .
44(4) . . .
40.5(34) . . .
51(4) . . .
37.2(32) . . .
45(4) . . .
57(4) . . .
44(4) . . .
41.2(33) . . .
46(4) . . .
38(4) . . .
37.3(33) . . .
39.4(33) . . .
37.9(33) . . .
47(4) . . .
41.8(34) . . .
46(4) . . .
35.8(32) . . .
41.2(34) . . .
47(4) . . .
44(4) . . .
45(4) . . .
41.6(33) . . .
40.7(34) . . .
38(4) . . .
37.1(32) . . .
36.3(32) . . .
44.7(35) . . .
46(4) . . .
45(4) . . .
44.5(35) . . .
47(4) . . .
44.1(35) . . .
44.0(35) . . .
38.0(33) . . .
36.9(34) . . .
37.9(32) . . .
48(4) . . .
43(4) . . .
36.7(31) . . .
36.5(33) . . .
36.0(33) . . .
40.9(33) . . .
39.7(35) . . .
41(4) . . .
42.5(34) . . .
49(4) . . .
42.1(34) . . .
41(4) . . .
50(4) . . .
39.4(34) . . .
40.2(33) . . .
46(4) . . .
48(4) . . .
38.0(34) . . .
39.0(33) . . .
45(4) . . .
41.8(33) . . .
46(4) . . .
43(4) . . .
47(4) . . .
48(4) . . .
43.5(34) . . .
33.4(31) . . .
39(4) . . .
44(4) . . .
34.3(30) . . .
38.0(32) . . .
50(4) . . .
37(4) . . .
37.5(35) . . .
45(4) . . .
52(4) . . .
41.2(33) . . .
40.0(34) . . .
39.1(33) . . .
41.2(34) . . .
39.3(34) . . .
34.2(30) . . .
37.8(34) . . .
45(4) . . .
40.6(34) . . .
46(4) . . .
57(4) . . .
38.1(34) . . .
34.3(30) . . .
39.8(34) . . .
32.9(31) . . .
40.3(35) . . .
37.7(33) . . .
45(4) . . .
41.8(34) . . .
46(4) . . .
45(4) . . .
45(4) . . .
31.3(31) . . .
41.8(34) . . .
36.3(33) . . .
38(4) . . .
29.1(29) . . .
35.4(32) . . .
31.9(29) . . .
37.7(33) . . .
38.5(33) . . .
38.0(33) . . .
40.9(34) . . .
48(4) . . .
46(4) . . .
44(4) . . .
43(4) . . .
32.3(30) . . .
52(4) . . .
41.0(34) . . .
41(4) . . .
34.8(31) . . .
38.6(33) . . .
46(4) . . .
42.4(35) . . .
41(4) . . .
34.3(31) . . .
35.8(31) . . .
41.3(34) . . .
43(4) . . .
36.1(33) . . .
38.8(33) . . .
46(4) . . .
39.8(33) . . .
44(4) . . .
40.4(35) . . .
36.5(32) . . .
45(4) . . .
42.4(34) . . .
41.2(35) . . .
37.3(33) . . .
40(4) . . .
44.6(34) . . .
48(4) . . .
48(4) . . .
39.7(33) . . .
52(4) . . .
40.7(33) . . .
43(4) . . .
35.9(33) . . .
41.9(35) . . .
41.0(33) . . .
44.0(34) . . .
39.4(34) . . .
32.3(29) . . .
36.8(32) . . .
49(4) . . .
42.5(34) . . .
37.6(32) . . .
38.5(35) . . .
40.7(35) . . .
46(4) . . .
36.5(32) . . .
44(4) . . .
41(4) . . .
33.3(30) . . .
40.9(35) . . .
41.7(35) . . .
40.2(34) . . .
44(4) . . .
31.9(30) . . .
38.1(32) . . .
42.6(34) . . .
44(4) . . .
40(4) . . .
36.3(31) . . .
45.0(35) . . .
36.2(32) . . .
38.3(34) . . .
34.8(33) . . .
39.7(32) . . .
51(4) . . .
43.5(34) . . .
45(4) . . .
38.2(35) . . .
37(4) . . .
39.0(33) . . .
42.1(34) . . .
44(4) . . .
47(4) . . .
44(4) . . .
40.0(32) . . .
34.4(31) . . .
49(4) . . .
39.0(35) . . .
41(4) . . .
53(4) . . .
45(4) . . .
38.2(33) . . .
43(4) . . .
28.8(28) . . .
35.5(31) . . .
39.6(34) . . .
39.5(34) . . .
39.1(35) . . .
35.4(33) . . .
48(4) . . .
44(4) . . .
51(4) . . .
41.2(34) . . .
47(4) . . .
43.7(34) . . .
41.0(34) . . .
46(4) . . .
44(4) . . .
41.7(33) . . .
38.6(33) . . .
45(4) . . .
39.6(34) . . .
34.0(30) . . .
49(4) . . .
40.1(33) . . .
41.8(34) . . .
45(4) . . .
43.1(34) . . .
41.1(33) . . .
46(4) . . .
40.3(33) . . .
45(4) . . .
42.2(35) . . .
37.0(32) . . .
33.1(30) . . .
47(4) . . .
36.2(34) . . .
43(4) . . .
45(4) . . .
35.9(31) . . .
39.3(35) . . .
31.3(30) . . .
21.9(24) . . .
35.6(31) . . .
35.2(31) . . .
46(4) . . .
42.0(34) . . .
40.1(33) . . .
36.0(32) . . .
22.4(24) . . .
37.3(34) . . .
47(4) . . .
39.4(33) . . .
42.9(34) . . .
50(4) . . .
34.4(33) . . .
34.6(31) . . .
46(4) . . .
28.1(28) . . .
36.0(32) . . .
39.2(34) . . .
37.9(32) . . .
34.0(30) . . .
45(4) . . .
38.3(33) . . .
35.8(32) . . .
37.1(34) . . .
53(4) . . .
43.3(35) . . .
42.0(35) . . .
43(4) . . .
47(4) . . .
37.3(33) . . .
44.7(35) . . .
33.8(30) . . .
45(4) . . .
32.9(30) . . .
46(4) . . .
40.9(33) . . .
51(4) . . .
39.6(35) . . .
41.8(34) . . .
44.4(35) . . .
40.7(34) . . .
36.8(33) . . .
44(4) . . .
46(4) . . .
38.2(33) . . .
38.5(33) . . .
35.7(32) . . .
34.3(31) . . .
38.9(33) . . .
51(4) . . .
47(4) . . .
41.4(34) . . .
45(4) . . .
40.0(33) . . .
40.9(33) . . .
32.9(29) . . .
46(4) . . .
48(4) . . .
33.8(31) . . .
38.1(33) . . .
47(4) . . .
40.5(35) . . .
44(4) . . .
35.4(31) . . .
32.8(30) . . .
43(4) . . .
47(4) . . .
44(4) . . .
37.3(32) . . .
39.7(33) . . .
38.0(33) . . .
39.8(34) . . .
47(4) . . .
42.0(35) . . .
41.7(34) . . .
38.6(33) . . .
43(4) . . .
44(4) . . .
32.0(30) . . .
37.3(32) . . .
49(4) . . .
41(4) . . .
47(4) . . .
52(4) . . .
31.8(29) . . .
47(4) . . .
47(4) . . .
40.0(34) . . .
42.3(34) . . .
54(4) . . .
41(4) . . .
40(4) . . .
44(4) . . .
41.9(34) . . .
36.5(31) . . .
39.8(33) . . .
42.2(35) . . .
42.3(34) . . .
51(4) . . .
35.7(31) . . .
42.2(35) . . .
42(4) . . .
39.9(34) . . .
48(4) . . .
39.7(33) . . .
44(4) . . .
43(4) . . .
40.4(34) . . .
44.1(35) . . .
44.3(35) . . .
33.1(32) . . .
41(4) . . .
35.3(31) . . .
37.1(32) . . .
40.8(34) . . .
41.4(35) . . .
45(4) . . .
37.8(33) . . .
43.9(35) . . .
42.4(34) . . .
37.7(34) . . .
35.1(31) . . .
37.8(33) . . .
42.9(34) . . .
46(4) . . .
49(4) . . .
50(4) . . .
47(4) . . .
42.6(34) . . .
34.2(31) . . .
44(4) . . .
39.9(33) . . .
39.9(33) . . .
43.8(35) . . .
47(4) . . .
39.0(35) . . .
34.4(31) . . .
33.3(30) . . .
40.3(33) . . .
39.2(33) . . .
49(4) . . .
42.4(34) . . .
44.9(35) . . .
44.5(34) . . .
36.6(31) . . .
48(4) . . .
38.7(34) . . .
44(4) . . .
41.9(34) . . .
45(4) . . .
37.9(33) . . .
49(4) . . .
42.3(33) . . .
44.2(35) . . .
38.1(32) . . .
43(4) . . .
43(4) . . .
33.8(30) . . .
35.4(33) . . .
45(4) . . .
33.3(30) . . .
39.5(33) . . .
38.3(33) . . .
50(4) . . .
38.5(33) . . .
42(4) . . .
43.7(35) . . .
36.4(31) . . .
42(4) . . .
32.3(30) . . .
41.5(34) . . .
37.8(32) . . .
36.3(32) . . .
37.2(32) . . .
35.3(31) . . .
36.4(32) . . .
45(4) . . .
38.6(32) . . .
44(4) . . .
35.6(30) . . .
42(4) . . .
47(4) . . .
44.3(35) . . .
45(4) . . .
34.0(32) . . .
39.2(32) . . .
40.3(33) . . .
46(4) . . .
42.9(35) . . .
41(4) . . .
42(4) . . .
43.6(35) . . .
45.4(34) . . .
38.8(33) . . .
35.4(32) . . .
37.0(31) . . .
38.1(32) . . .
43.6(34) . . .
40.6(34) . . .
39.6(35) . . .
44(4) . . .
49(4) . . .
36.3(31) . . .
37.1(33) . . .
41.5(34) . . .
42(4) . . .
40.6(33) . . .
41.9(34) . . .
31.2(29) . . .
44(4) . . .
55(4) . . .
42.8(34) . . .
30.9(29) . . .
42(4) . . .
43(4) . . .
38.6(33) . . .
48(4) . . .
47(4) . . .
33.2(30) . . .
44(4) . . .
42(4) . . .
34.8(31) . . .
40.0(35) . . .
36.7(32) . . .
47(4) . . .
31.8(29) . . .
34.8(31) . . .
33.4(30) . . .
45(4) . . .
43.8(34) . . .
42.7(34) . . .
46(4) . . .
35.6(32) . . .
33.5(34) . . .
40(4) . . .
39.7(33) . . .
38.6(32) . . .
38.3(33) . . .
38.6(34) . . .
41.6(35) . . .
35.9(31) . . .
36.7(31) . . .
42(4) . . .
48(4) . . .
55(4) . . .
37.5(32) . . .
38.3(33) . . .
41.8(35) . . .
37.7(34) . . .
47(4) . . .
38.2(32) . . .
38.3(32) . . .
31.7(33) . . .
31.1(30) . . .
42.0(34) . . .
37.1(32) . . .
36.4(32) . . .
30.6(29) . . .
38.8(34) . . .
39.2(33) . . .
37.5(32) . . .
38.5(34) . . .
43(4) . . .
39.6(35) . . .
32.4(30) . . .
31.7(30) . . .
41.6(35) . . .
41(4) . . .
30.1(29) . . .
37.1(33) . . .
30.3(29) . . .
42.1(34) . . .
39.8(34) . . .
35.8(31) . . .
49(4) . . .
39.9(33) . . .
47(4) . . .
32.3(32) . . .
42(4) . . .
35.0(32) . . .
37.1(32) . . .
43(4) . . .
35.2(33) . . .
38.0(35) . . .
43(4) . . .
44.9(35) . . .
49(4) . . .
42(4) . . .
48(4) . . .
45(4) . . .
45.0(35) . . .
49(4) . . .
38.4(34) . . .
41.6(34) . . .
38.8(32) . . .
45(4) . . .
39.1(34) . . .
37.3(35) . . .
44(4) . . .
48(4) . . .
39.4(32) . . .
50(4) . . .
37.8(32) . . .
35.6(32) . . .
46(4) . . .
46(4) . . .
32.3(32) . . .
36.1(34) . . .
40.1(34) . . .
35.6(31) . . .
46(4) . . .
49(4) . . .
41.5(33) . . .
43(4) . . .
39.1(33) . . .
41.5(33) . . .
55(4) . . .
42(4) . . .
35.3(31) . . .
41.4(33) . . .
41(4) . . .
33.6(31) . . .
47(4) . . .
45(4) . . .
44.0(35) . . .
42(4) . . .
43(4) . . .
40.4(34) . . .
43.1(35) . . .
32.0(29) . . .
36.1(33) . . .
41(4) . . .
36.1(32) . . .
39.2(33) . . .
44.6(35) . . .
49(4) . . .
41.3(35) . . .
46(4) . . .
46(4) . . .
31.8(29) . . .
39.3(35) . . .
33.8(32) . . .
45(4) . . .
43.9(34) . . .
46(4) . . .
41.1(35) . . .
30.0(31) . . .
43(4) . . .
42.5(34) . . .
36.8(32) . . .
40(4) . . .
37.9(35) . . .
32.9(34) . . .
36.0(31) . . .
30.6(29) . . .
47(4) . . .
35.4(33) . . .
49(4) . . .
49(4) . . .
44.7(35) . . .
40.3(34) . . .
38.0(32) . . .
32.0(33) . . .
34.1(31) . . .
46(4) . . .
44(4) . . .
46(4) . . .
52(4) . . .
35.1(31) . . .
30.5(29) . . .
37.3(33) . . .
37.8(34) . . .
40.8(35) . . .
47(4) . . .
41(4) . . .
34.2(31) . . .
47(4) . . .
36.8(31) . . .
46(4) . . .
46(4) . . .
42(4) . . .
34.3(31) . . .
36.7(32) . . .
35.5(31) . . .
42(4) . . .
40(4) . . .
45(4) . . .
43.0(34) . . .
38.9(33) . . .
41.2(34) . . .
42(4) . . .
40.4(35) . . .
44.8(35) . . .
52(4) . . .
44(4) . . .
38(4) . . .
41(4) . . .
34.8(31) . . .
51(4) . . .
48(4) . . .
39.6(33) . . .
42.2(34) . . .
44.3(35) . . .
48(4) . . .
49(4) . . .
44(4) . . .
35.9(32) . . .
34.8(31) . . .
48(4) . . .
32.2(30) . . .
36.5(33) . . .
34.7(32) . . .
47.3(35) . . .
48(4) . . .
40.0(33) . . .
44(4) . . .
41.1(34) . . .
42.4(34) . . .
30.8(29) . . .
41(4) . . .
39.2(33) . . .
40.4(33) . . .
35.3(31) . . .
39.9(34) . . .
48(4) . . .
40.8(34) . . .
41.8(35) . . .
33.7(30) . . .
38.2(33) . . .
42(4) . . .
35.5(31) . . .
41.1(34) . . .
46(4) . . .
40.2(34) . . .
38(4) . . .
33.7(32) . . .
31.4(29) . . .
32.2(29) . . .
37.5(32) . . .
40(4) . . .
38.0(33) . . .
31.9(29) . . .
43.3(35) . . .
39.8(34) . . .
40(4) . . .
29.0(28) . . .
37.6(32) . . .
43(4) . . .
39(4) . . .
37(4) . . .
40.2(34) . . .
41.8(34) . . .
37.4(31) . . .
41.9(33) . . .
41.5(34) . . .
45(4) . . .
36.5(32) . . .
36.5(33) . . .
36.2(35) . . .
40.3(35) . . .
40.9(34) . . .
40.9(34) . . .
41.0(33) . . .
42(4) . . .
36.5(32) . . .
34.5(30) . . .
38.4(32) . . .
37.5(32) . . .
39.3(34) . . .
47(4) . . .
34.4(30) . . .
38.9(33) . . .
39.2(34) . . .
35.4(31) . . .
36.6(31) . . .
43.5(34) . . .
41.5(35) . . .
36.3(31) . . .
46(4) . . .
39.7(33) . . .
44.3(34) . . .
40.8(34) . . .
37.8(33) . . .
43(4) . . .
43.3(35) . . .
36.6(32) . . .
39.9(32) . . .
39.3(34) . . .
38.9(34) . . .
37.5(32) . . .
39.8(33) . . .
40.6(33) . . .
40(4) . . .
41(4) . . .
31.5(30) . . .
33.5(31) . . .
47(4) . . .
42.5(35) . . .
48(4) . . .
46(4) . . .
47(4) . . .
35.3(31) . . .
48(4) . . .
42.6(35) . . .
40.1(35) . . .
42.0(34) . . .
48(4) . . .
38.1(33) . . .
48(4) . . .
46(4) . . .
41.1(33) . . .
35.0(31) . . .
46(4) . . .
39.4(33) . . .
40.9(34) . . .
35.0(32) . . .
40.1(35) . . .
42.9(35) . . .
48(4) . . .
38.2(33) . . .
39.0(32) . . .
37.3(34) . . .
43(4) . . .
35.3(30) . . .
38.9(34) . . .
39.8(32) . . .
41(4) . . .
42(4) . . .
43(4) . . .
40.8(33) . . .
38.3(32) . . .
32.9(31) . . .
32.3(33) . . .
42(4) . . .
38.2(33) . . .
48(4) . . .
37.9(33) . . .
37.7(34) . . .
38.0(32) . . .
45.0(35) . . .
41.2(34) . . .
42(4) . . .
43(4) . . .
38.5(34) . . .
32.9(30) . . .
41.8(34) . . .
29.7(30) . . .
37.8(34) . . .
34.6(32) . . .
37.0(32) . . .
40.8(33) . . .
41.0(35) . . .
37.9(33) . . .
35.0(31) . . .
46(4) . . .
47(4) . . .
45.7(35) . . .
49(4) . . .
38.1(33) . . .
36.8(31) . . .
36.0(31) . . .
46(4) . . .
46(4) . . .
37.5(33) . . .
37.5(32) . . .
38.0(32) . . .
43(4) . . .
45(4) . . .
37.3(31) . . .
47(4) . . .
50(4) . . .
38.3(34) . . .
32.7(31) . . .
41(4) . . .
32.1(30) . . .
44(4) . . .
41(4) . . .
46(4) . . .
40.8(34) . . .
45.2(35) . . .
41.1(34) . . .
46(4) . . .
31.7(29) . . .
41.5(33) . . .
41.1(34) . . .
36.8(32) . . .
44(4) . . .
28.8(29) . . .
39.9(34) . . .
40.7(33) . . .
36.9(33) . . .
46(4) . . .
31.6(29) . . .
41.7(34) . . .
44.0(35) . . .
39.4(34) . . .
31.2(30) . . .
37.3(33) . . .
44(4) . . .
36.1(32) . . .
34.8(31) . . .
46(4) . . .
39.5(34) . . .
40.9(33) . . .
37.5(34) . . .
34.6(33) . . .
37.7(34) . . .
43.4(35) . . .
40.5(33) . . .
36.3(33) . . .
38.7(34) . . .
39.7(35) . . .
36.8(34) . . .
42.0(34) . . .
33.5(31) . . .
40.4(35) . . .
40.2(34) . . .
33.5(30) . . .
37.0(32) . . .
46(4) . . .
41.5(34) . . .
47(4) . . .
41.1(34) . . .
37.6(32) . . .
41.5(34) . . .
37.9(34) . . .
40.4(35) . . .
39.8(33) . . .
48(4) . . .
39.6(33) . . .
35.8(31) . . .
36.3(33) . . .
35.3(31) . . .
35.9(32) . . .
41.7(35) . . .
33.4(30) . . .
46(4) . . .
41.0(34) . . .
32.5(30) . . .
33.0(30) . . .
38.0(35) . . .
40.9(34) . . .
40.2(33) . . .
45(4) . . .
38.6(32) . . .
45(4) . . .
47(4) . . .
35.0(31) . . .
39.7(34) . . .
40(4) . . .
27.9(28) . . .
36.4(32) . . .
37.5(31) . . .
32.3(30) . . .
52(4) . . .
37.4(34) . . .
31.3(30) . . .
41.4(34) . . .
33.6(30) . . .
41(4) . . .
39(4) . . .
38.2(33) . . .
44.0(34) . . .
42.0(34) . . .
36.3(31) . . .
45(4) . . .
34.0(31) . . .
40.6(34) . . .
44.4(35) . . .
40.7(35) . . .
41(4) . . .
35.3(32) . . .
38.8(32) . . .
42.3(35) . . .
29.5(28) . . .
41.0(34) . . .
31.8(29) . . .
33.2(30) . . .
34.5(32) . . .
35.6(32) . . .
30.9(29) . . .
35.9(32) . . .
45(4) . . .
39.8(33) . . .
39.4(33) . . .
41.4(34) . . .
33.4(30) . . .
44.0(35) . . .
36.2(33) . . .
37.3(35) . . .
51(4) . . .
43.7(35) . . .
38.8(32) . . .
37.6(33) . . .
29.9(30) . . .
40(4) . . .
37.7(32) . . .
30.4(29) . . .
41.2(35) . . .
40.7(35) . . .
43.0(35) . . .
31.9(30) . . .
41.0(33) . . .
36.1(32) . . .
44(4) . . .
46(4) . . .
42.8(34) . . .
36.1(31) . . .
41(4) . . .
36.6(31) . . .
40.4(35) . . .
33.6(30) . . .
40.8(33) . . .
37.5(33) . . .
40.3(35) . . .
38.6(35) . . .
32.9(30) . . .
36.5(32) . . .
42(4) . . .
42(4) . . .
39.8(35) . . .
37.3(32) . . .
41.1(34) . . .
39.0(34) . . .
50(4) . . .
38.1(33) . . .
35.9(31) . . .
43.3(34) . . .
52(4) . . .
39.7(34) . . .
36.0(31) . . .
40.2(33) . . .
35.2(32) . . .
31.3(31) . . .
44(4) . . .
47(4) . . .
44.0(34) . . .
35.8(31) . . .
41(4) . . .
40.5(34) . . .
34.9(31) . . .
42.0(35) . . .
41.3(34) . . .
36.5(33) . . .
32.9(30) . . .
49(4) . . .
36.0(32) . . .
44(4) . . .
44(4) . . .
34.4(31) . . .
35.4(32) . . .
43.5(34) . . .
47(4) . . .
37.3(33) . . .
40.4(34) . . .
39.2(33) . . .
40.8(33) . . .
40.2(35) . . .
30.6(30) . . .
31.2(30) . . .
36.8(32) . . .
45(4) . . .
37.9(32) . . .
40.9(34) . . .
40.7(34) . . .
39.2(33) . . .
35.7(32) . . .
35.8(34) . . .
35.5(32) . . .
42.1(34) . . .
38.4(32) . . .
30.4(29) . . .
39(4) . . .
37.9(34) . . .
39.4(33) . . .
36.6(32) . . .
36.0(32) . . .
44(4) . . .
44(4) . . .
32.7(30) . . .
37.7(32) . . .
35.9(31) . . .
38.2(32) . . .
43(4) . . .
42(4) . . .
42.4(34) . . .
41.3(34) . . .
36.2(32) . . .
40.4(35) . . .
37.6(32) . . .
42.7(34) . . .
39.0(34) . . .
38(4) . . .
46(4) . . .
44(4) . . .
36.9(32) . . .
38.5(34) . . .
40(4) . . .
36.6(32) . . .
41.5(34) . . .
36.3(32) . . .
37.8(33) . . .
46(4) . . .
44(4) . . .
39.2(33) . . .
39.7(34) . . .
41.2(35) . . .
33.4(31) . . .
34.2(31) . . .
36.4(32) . . .
36.2(33) . . .
39.3(33) . . .
38.6(33) . . .
42(4) . . .
40.6(33) . . .
31.4(29) . . .
38.4(34) . . .
46(4) . . .
50(4) . . .
40.5(33) . . .
43(4) . . .
37.3(33) . . .
41(4) . . .
43(4) . . .
39.9(33) . . .
34.8(32) . . .
39.6(35) . . .
42(4) . . .
41.6(34) . . .
31.9(30) . . .
46(4) . . .
43(4) . . .
44(4) . . .
40.2(33) . . .
48(4) . . .
46(4) . . .
41(4) . . .
40.8(35) . . .
41.2(35) . . .
45(4) . . .
44(4) . . .
42(4) . . .
37.5(32) . . .
41.7(34) . . .
35.3(31) . . .
50(4) . . .
43(4) . . .
39.5(34) . . .
45(4) . . .
35.6(31) . . .
31.3(29) . . .
36.7(32) . . .
37.0(34) . . .
33.2(30) . . .
41.9(35) . . .
36.4(32) . . .
39.6(34) . . .
37.8(32) . . .
37.3(32) . . .
41.3(35) . . .
38.8(35) . . .
36.4(34) . . .
41(4) . . .
41.9(34) . . .
36.9(32) . . .
43(4) . . .
38.5(33) . . .
37.6(32) . . .
37.0(32) . . .
38(4) . . .
36.1(33) . . .
37.9(34) . . .
46(4) . . .
32.5(30) . . .
45(4) . . .
34.2(32) . . .
36.8(33) . . .
39.8(33) . . .
42.6(34) . . .
31.7(30) . . .
38.0(34) . . .
40.8(34) . . .
43.9(35) . . .
39.8(33) . . .
43(4) . . .
47(4) . . .
40.4(34) . . .
37.5(32) . . .
39.2(33) . . .
40.3(33) . . .
49(4) . . .
36.2(33) . . .
39.2(33) . . .
40.8(33) . . .
37.4(32) . . .
37.2(34) . . .
40.4(35) . . .
31.0(30) . . .
31.3(29) . . .
33.8(32) . . .
35.5(33) . . .
43(4) . . .
39.1(33) . . .
23.6(25) . . .
38.2(33) . . .
43(4) . . .
43(4) . . .
33.3(30) . . .
42.5(34) . . .
40.1(35) . . .
40.8(35) . . .
38.0(33) . . .
35.2(32) . . .
38.2(32) . . .
36.2(32) . . .
37.3(35) . . .
34.6(32) . . .
39.2(33) . . .
40.5(35) . . .
42.9(35) . . .
41.9(34) . . .
38.2(33) . . .
39.1(32) . . .
48(4) . . .
45(4) . . .
37.3(34) . . .
35.0(32) . . .
38.3(32) . . .
37.2(34) . . .
33.8(33) . . .
32.1(29) . . .
39.8(34) . . .
38.2(32) . . .
57(4) . . .
48(4) . . .
33.4(31) . . .
37.5(33) . . .
35.4(30) . . .
44(4) . . .
44(4) . . .
46(4) . . .
34.5(30) . . .
46(4) . . .
42(4) . . .
32.6(32) . . .
39.8(35) . . .
34.5(33) . . .
34.2(30) . . .
42(4) . . .
44(4) . . .
43(4) . . .
39.8(32) . . .
46(4) . . .
44(4) . . .
43(4) . . .
41(4) . . .
45(4) . . .
48(4) . . .
33.2(30) . . .
31.3(30) . . .
41.1(34) . . .
48(4) . . .
34.4(31) . . .
36.5(32) . . .
29.4(30) . . .
39(4) . . .
32.9(30) . . .
46(4) . . .
42.3(34) . . .
39.5(33) . . .
41(4) . . .
38.1(33) . . .
36.5(33) . . .
42(4) . . .
41.5(35) . . .
34.4(30) . . .
41.9(34) . . .
35.4(31) . . .
36.0(33) . . .
36.6(34) . . .
37.6(32) . . .
43.6(35) . . .
39.5(34) . . .
33.6(31) . . .
34.3(31) . . .
37.9(33) . . .
36.5(31) . . .
36.1(33) . . .
36.5(33) . . .
42.0(34) . . .
35.7(31) . . .
40.6(34) . . .
36.0(32) . . .
39(4) . . .
38.5(34) . . .
37.7(32) . . .
39.7(33) . . .
41.2(35) . . .
32.7(31) . . .
38.1(33) . . .
42.5(34) . . .
46(4) . . .
51(4) . . .
38.1(33) . . .
40.6(35) . . .
37.0(31) . . .
52(4) . . .
40.5(33) . . .
40.3(35) . . .
35.7(32) . . .
35.0(31) . . .
40.6(34) . . .
32.9(30) . . .
39(4) . . .
34.9(32) . . .
32.9(30) . . .
45(4) . . .
39.6(34) . . .
41(4) . . .
46(4) . . .
33.1(30) . . .
43(4) . . .
43(4) . . .
38.2(34) . . .
42.5(35) . . .
45.4(35) . . .
46(4) . . .
31.5(29) . . .
43(4) . . .
39.5(33) . . .
35.3(31) . . .
52(4) . . .
50(4) . . .
41.6(34) . . .
40.4(34) . . .
29.6(28) . . .
41.0(34) . . .
35.7(32) . . .
40.8(33) . . .
43.2(34) . . .
39.5(32) . . .
42(4) . . .
39(4) . . .
40(4) . . .
40.9(33) . . .
36.2(32) . . .
35.6(33) . . .
34.4(34) . . .
26.7(26) . . .
36.1(31) . . .
38.3(33) . . .
42(4) . . .
41(4) . . .
45(4) . . .
32.0(29) . . .
38.4(33) . . .
41.8(34) . . .
36.2(31) . . .
38.2(35) . . .
41.6(34) . . .
37.0(32) . . .
47(4) . . .
34.8(31) . . .
34.9(33) . . .
34.9(31) . . .
38(4) . . .
33.3(32) . . .
37.5(34) . . .
40.8(34) . . .
41.5(34) . . .
38.9(33) . . .
35.1(31) . . .
40(4) . . .
37.1(33) . . .
39.1(32) . . .
39.5(33) . . .
40.2(35) . . .
35.6(33) . . .
38.9(33) . . .
35.1(31) . . .
40.0(34) . . .
47(4) . . .
36.1(32) . . .
39.3(34) . . .
43.7(35) . . .
38.8(34) . . .
35.6(32) . . .
42(4) . . .
39.9(33) . . .
47(4) . . .
41.5(35) . . .
34.0(33) . . .
34.0(32) . . .
42.5(34) . . .
40.1(33) . . .
32.2(30) . . .
33.0(34) . . .
41(4) . . .
46(4) . . .
41.0(34) . . .
33.5(31) . . .
36(4) . . .
33.9(33) . . .
43(4) . . .
37.9(33) . . .
27.9(27) . . .
37.3(34) . . .
37.6(33) . . .
37.6(32) . . .
42.4(34) . . .
38.5(33) . . .
33.8(31) . . .
41.8(35) . . .
45(4) . . .
40.9(34) . . .
37.9(32) . . .
40.1(34) . . .
41(4) . . .
43.3(34) . . .
40(4) . . .
35.9(32) . . .
35.2(32) . . .
36.7(33) . . .
38.3(32) . . .
28.4(28) . . .
35.8(33) . . .
37.5(33) . . .
35.4(31) . . .
34.1(31) . . .
41.8(34) . . .
33.1(31) . . .
39.7(35) . . .
40.3(34) . . .
33.7(31) . . .
43.6(35) . . .
37.4(33) . . .
44(4) . . .
38.9(33) . . .
34.5(31) . . .
32.2(31) . . .
34.0(32) . . .
37.5(34) . . .
40.4(33) . . .
46(4) . . .
47(4) . . .
38.3(33) . . .
33.9(31) . . .
25.1(27) . . .
32.0(30) . . .
33.4(31) . . .
30.6(31) . . .
29.9(29) . . .
40.8(33) . . .
41.5(33) . . .
28.2(27) . . .
36.3(35) . . .
34.9(33) . . .
33.0(30) . . .
35.5(33) . . .
34.9(30) . . .
36.9(33) . . .
35.2(31) . . .
44.4(35) . . .
42.9(35) . . .
42(4) . . .
37.7(33) . . .
41.2(35) . . .
41.6(34) . . .
35.4(31) . . .
41(4) . . .
32.9(32) . . .
36.1(32) . . .
37.9(32) . . .
35.3(32) . . .
35.9(33) . . .
32.9(31) . . .
33.1(30) . . .
42.4(34) . . .
54(4) . . .
38.4(33) . . .
29.6(30) . . .
43(4) . . .
38.5(33) . . .
42(4) . . .
33.9(31) . . .
39.4(33) . . .
33.9(30) . . .
32.5(29) . . .
39(4) . . .
38.5(35) . . .
34.8(32) . . .
38.7(32) . . .
45(4) . . .
37.6(32) . . .
42(4) . . .
37.3(32) . . .
34.8(30) . . .
40.7(33) . . .
33.4(31) . . .
40(4) . . .
36.9(33) . . .
33.5(31) . . .
29.4(28) . . .
40.0(34) . . .
33.7(33) . . .
30.1(29) . . .
37.3(32) . . .
30.1(28) . . .
42.5(35) . . .
34.7(31) . . .
40.1(34) . . .
29.0(28) . . .
38.6(32) . . .
46(4) . . .
39.2(34) . . .
42(4) . . .
45(4) . . .
41.1(34) . . .
37.6(33) . . .
40.6(35) . . .
42(4) . . .
44.8(35) . . .
33.7(30) . . .
41(4) . . .
38.8(33) . . .
34.5(31) . . .
31.0(29) . . .
34.0(34) . . .
37.4(34) . . .
47(4) . . .
30.7(29) . . .
39.1(33) . . .
45(4) . . .
46(4) . . .
45.0(34) . . .
41.6(33) . . .
41.3(33) . . .
46(4) . . .
37.9(34) . . .
37.7(33) . . .
36.5(32) . . .
33.9(30) . . .
36.8(33) . . .
44(4) . . .
45(4) . . .
34.1(31) . . .
34.9(32) . . .
35.3(33) . . .
33.7(34) . . .
36.0(32) . . .
39.8(33) . . .
40.9(33) . . .
35.2(32) . . .
37.5(34) . . .
31.2(30) . . .
45.3(35) . . .
33.5(30) . . .
50(4) . . .
44(4) . . .
37(4) . . .
39.3(34) . . .
38.9(33) . . .
33.3(32) . . .
35.1(33) . . .
43(4) . . .
29.4(28) . . .
38.5(33) . . .
41(4) . . .
40.0(34) . . .
36.3(33) . . .
46(4) . . .
40.7(34) . . .
30.9(28) . . .
39.1(33) . . .
33.3(30) . . .
40.5(34) . . .
45(4) . . .
32.8(30) . . .
39.1(34) . . .
41.1(35) . . .
40.9(33) . . .
39.1(35) . . .
36.3(32) . . .
40.4(33) . . .
39.9(33) . . .
39.6(33) . . .
41(4) . . .
28.9(30) . . .
25.7(26) . . .
37.5(32) . . .
41.0(34) . . .
43.3(34) . . .
36.4(34) . . .
34.5(31) . . .
38.8(33) . . .
37.2(34) . . .
35.7(33) . . .
34.5(32) . . .
45(4) . . .
40.5(33) . . .
23.7(25) . . .
35.2(32) . . .
47(4) . . .
34.5(32) . . .
37.9(32) . . .
30.9(28) . . .
40.8(35) . . .
54(4) . . .
32.8(29) . . .
44.9(35) . . .
37.1(32) . . .
33.7(32) . . .
26.7(27) . . .
40.0(34) . . .
43.2(34) . . .
44.1(34) . . .
31.7(29) . . .
46(4) . . .
38.3(33) . . .
41.4(34) . . .
37.9(34) . . .
29.4(29) . . .
34.1(31) . . .
37.8(34) . . .
37.8(32) . . .
42.1(34) . . .
30.1(28) . . .
42(4) . . .
41.2(33) . . .
46(4) . . .
46(4) . . .
40.3(34) . . .
35.4(32) . . .
33.0(31) . . .
37.2(32) . . .
35.5(33) . . .
33.2(31) . . .
37.5(34) . . .
40.5(35) . . .
38.1(32) . . .
32.6(31) . . .
37.3(34) . . .
32.5(31) . . .
44.5(35) . . .
34.5(31) . . .
34.8(31) . . .
32.1(32) . . .
30.0(29) . . .
39.7(33) . . .
42.8(34) . . .
37.7(33) . . .
35.8(33) . . .
30.3(29) . . .
35.3(31) . . .
31.4(30) . . .
35.9(34) . . .
44(4) . . .
41.3(34) . . .
37.1(31) . . .
36.9(31) . . .
36.8(32) . . .
31.4(29) . . .
34.4(32) . . .
40.5(33) . . .
35.8(32) . . .
36.9(33) . . .
42(4) . . .
33.6(31) . . .
35.9(31) . . .
46(4) . . .
47(4) . . .
40.6(35) . . .
30.0(29) . . .
36.9(32) . . .
32.8(32) . . .
29.7(28) . . .
38.3(33) . . .
37.7(34) . . .
49(4) . . .
42.1(34) . . .
30.8(28) . . .
42(4) . . .
38.9(34) . . .
32.8(30) . . .
44(4) . . .
38(4) . . .
29.4(28) . . .
34.9(31) . . .
39.0(32) . . .
45(4) . . .
44(4) . . .
36.8(33) . . .
41.5(34) . . .
31.9(29) . . .
40.2(33) . . .
38.0(34) . . .
39.7(34) . . .
44.7(35) . . .
39.9(32) . . .
35.8(32) . . .
28.2(28) . . .
39.8(33) . . .
42.1(34) . . .
37.7(33) . . .
34.7(32) . . .
36.1(34) . . .
43.5(34) . . .
45(4) . . .
39.5(32) . . .
39.8(33) . . .
42(4) . . .
42.0(35) . . .
37.7(32) . . .
35.7(31) . . .
33.8(31) . . .
39.2(33) . . .
43(4) . . .
34.2(31) . . .
32.4(30) . . .
38.9(33) . . .
30.5(28) . . .
36.6(33) . . .
37.8(32) . . .
37.4(31) . . .
41.8(34) . . .
33.6(29) . . .
36.4(33) . . .
39.7(33) . . .
35.6(31) . . .
36.4(32) . . .
38(4) . . .
29.1(29) . . .
27.6(28) . . .
37.8(34) . . .
35.3(33) . . .
36.1(33) . . .
40.8(33) . . .
42.8(34) . . .
39.2(33) . . .
44(4) . . .
42.6(35) . . .
41.4(33) . . .
38.8(33) . . .
34.7(31) . . .
36.5(33) . . .
37.3(32) . . .
38.1(32) . . .
42.3(34) . . .
37.4(32) . . .
33.1(31) . . .
40.3(35) . . .
34.7(31) . . .
30.1(29) . . .
38(4) . . .
39.4(34) . . .
30.2(30) . . .
40.0(34) . . .
40.0(33) . . .
40.8(33) . . .
40.0(34) . . .
39.5(34) . . .
42.6(34) . . .
28.8(28) . . .
30.2(30) . . .
33.0(32) . . .
39.4(34) . . .
35.9(32) . . .
27.2(28) . . .
38.8(34) . . .
35.2(33) . . .
36.8(33) . . .
41.7(34) . . .
36.5(31) . . .
37.4(33) . . .
32.7(32) . . .
33.4(30) . . .
45(4) . . .
34.5(30) . . .
35.8(33) . . .
36.3(33) . . .
49(4) . . .
38.8(33) . . .
37.1(33) . . .
31.3(30) . . .
33.3(31) . . .
43(4) . . .
29.9(28) . . .
31.6(30) . . .
36.7(32) . . .
38.8(34) . . .
31.9(29) . . .
30.7(29) . . .
36.6(32) . . .
34.8(32) . . .
45(4) . . .
46(4) . . .
38.0(32) . . .
38.2(33) . . .
32.9(30) . . .
36.6(31) . . .
45(4) . . .
39.9(32) . . .
40.8(33) . . .
42(4) . . .
37.1(34) . . .
36.8(32) . . .
41.8(34) . . .
32.7(29) . . .
36.5(33) . . .
42(4) . . .
39.2(32) . . .
44(4) . . .
35.4(32) . . .
36.6(31) . . .
45(4) . . .
43.5(35) . . .
34.2(31) . . .
42(4) . . .
40.2(34) . . .
45(4) . . .
35.5(30) . . .
36.7(32) . . .
39.1(34) . . .
38.2(34) . . .
39.0(34) . . .
35.9(31) . . .
39.2(33) . . .
33.8(32) . . .
30.2(30) . . .
37.9(33) . . .
34.2(30) . . .
33.7(31) . . .
37.8(33) . . .
34.6(30) . . .
41.7(33) . . .
38.0(32) . . .
38.4(33) . . .
36.5(32) . . .
33.8(30) . . .
38.4(33) . . .
35.6(31) . . .
37.2(35) . . .
36.7(34) . . .
37.8(34) . . .
29.1(28) . . .
36.0(32) . . .
38.3(34) . . .
39(4) . . .
29.2(29) . . .
36.5(31) . . .
33.0(29) . . .
43(4) . . .
39(4) . . .
37.4(34) . . .
35.5(31) . . .
35.3(31) . . .
37.3(32) . . .
41.4(34) . . .
46(4) . . .
39.9(33) . . .
38.1(32) . . .
32.3(30) . . .
28.0(28) . . .
49(4) . . .
36.5(32) . . .
31.8(29) . . .
39.7(34) . . .
33.9(31) . . .
37.4(33) . . .
37.5(32) . . .
36.6(32) . . .
41.2(34) . . .
34.2(31) . . .
39.3(34) . . .
38.1(33) . . .
45(4) . . .
41.2(35) . . .
44(4) . . .
33.5(30) . . .
34.3(31) . . .
36.7(32) . . .
37.8(34) . . .
39.7(34) . . .
41(4) . . .
50(4) . . .
41.1(34) . . .
37.7(33) . . .
34.3(31) . . .
24.7(25) . . .
42.2(34) . . .
45(4) . . .
40(4) . . .
34.1(30) . . .
35.4(32) . . .
38.8(33) . . .
40.7(34) . . .
42(4) . . .
31.7(29) . . .
42.7(34) . . .
36.2(33) . . .
42(4) . . .
43(4) . . .
36.5(31) . . .
45.7(35) . . .
44.5(35) . . .
41.5(35) . . .
29.8(29) . . .
39.1(34) . . .
46(4) . . .
36.0(31) . . .
37.5(33) . . .
34.5(33) . . .
35.5(31) . . .
30.8(29) . . .
40.1(34) . . .
36.8(34) . . .
32.1(31) . . .
35.1(31) . . .
27.8(28) . . .
36.5(32) . . .
39.0(33) . . .
39.1(34) . . .
44(4) . . .
34.2(31) . . .
37.6(33) . . .
38.6(34) . . .
31.6(29) . . .
30.9(29) . . .
33.2(30) . . .
34.8(31) . . .
27.5(28) . . .
35.0(31) . . .
45.4(35) . . .
43.3(35) . . .
34.4(31) . . .
33.2(31) . . .
29.2(29) . . .
31.3(30) . . .
32.7(30) . . .
41.1(34) . . .
36.5(34) . . .
38.7(34) . . .
45(4) . . .
29.5(29) . . .
32.8(31) . . .
41(4) . . .
39.1(33) . . .
39.5(34) . . .
37.3(32) . . .
45(4) . . .
45(4) . . .
33.3(31) . . .
40.1(33) . . .
43.0(34) . . .
47(4) . . .
38.1(35) . . .
41(4) . . .
44.2(35) . . .
41.9(35) . . .
39(4) . . .
39.0(33) . . .
40.3(34) . . .
35.6(32) . . .
40.0(32) . . .
34.0(30) . . .
39.2(35) . . .
38.9(33) . . .
38.7(33) . . .
37.0(33) . . .
36.0(32) . . .
37.9(33) . . .
47(4) . . .
39.4(33) . . .
34.7(32) . . .
43(4) . . .
41.8(35) . . .
34.8(31) . . .
42.0(33) . . .
39.0(32) . . .
35.8(33) . . .
33.7(32) . . .
37.8(33) . . .
32.6(30) . . .
35.7(32) . . .
36.4(34) . . .
35.9(34) . . .
32.8(32) . . .
36.8(32) . . .
36.0(32) . . .
34.0(31) . . .
45(4) . . .
47(4) . . .
40.6(34) . . .
41(4) . . .
40(4) . . .
40.1(34) . . .
35.2(32) . . .
36.4(31) . . .
43(4) . . .
42(4) . . .
27.6(27) . . .
36.5(32) . . .
30.3(28) . . .
44(4) . . .
36.3(33) . . .
39.3(33) . . .
36.3(32) . . .
33.3(30) . . .
37.2(34) . . .
42(4) . . .
41(4) . . .
34.6(31) . . .
40.6(33) . . .
40.3(33) . . .
40(4) . . .
35.7(32) . . .
38.9(32) . . .
41.2(33) . . .
47(4) . . .
31.0(29) . . .
35.6(32) . . .
43.0(34) . . .
43(4) . . .
41(4) . . .
34.8(31) . . .
36.5(33) . . .
30.1(28) . . .
37.7(33) . . .
35.2(33) . . .
36.7(32) . . .
38.7(33) . . .
33.6(31) . . .
40(4) . . .
38.9(32) . . .
40.2(33) . . .
45.0(35) . . .
47(4) . . .
33.5(33) . . .
29.2(31) . . .
41(4) . . .
35.8(32) . . .
29.8(29) . . .
40.1(34) . . .
40.2(35) . . .
34.0(32) . . .
41.7(35) . . .
38.8(32) . . .
36.1(32) . . .
39(4) . . .
43(4) . . .
42(4) . . .
36.2(32) . . .
31.8(30) . . .
28.9(28) . . .
44(4) . . .
34.9(31) . . .
36.0(32) . . .
47(4) . . .
36.7(33) . . .
34.6(31) . . .
39.0(33) . . .
37.8(33) . . .
36(4) . . .
35(4) . . .
37.7(35) . . .
45(4) . . .
38.5(34) . . .
32.6(32) . . .
39.0(33) . . .
46(4) . . .
38.4(33) . . .
33.0(30) . . .
35.9(33) . . .
36.3(33) . . .
33.7(30) . . .
47(4) . . .
39.3(33) . . .
38.9(34) . . .
36.0(33) . . .
33.8(31) . . .
35.4(31) . . .
41.6(35) . . .
30.3(30) . . .
36.3(33) . . .
39.6(33) . . .
39.6(33) . . .
34.3(33) . . .
37(4) . . .
35.7(31) . . .
36.5(32) . . .
34.9(30) . . .
42(4) . . .
31.3(32) . . .
34.0(31) . . .
48(4) . . .
38.7(33) . . .
40.6(35) . . .
38.1(34) . . .
40.3(35) . . .
41.7(34) . . .
31.0(29) . . .
32.3(31) . . .
32.9(31) . . .
37.5(32) . . .
42.5(34) . . .
37.5(31) . . .
44.1(35) . . .
43(4) . . .
34.6(31) . . .
41.9(35) . . .
41(4) . . .
36.0(33) . . .
42(4) . . .
36.1(32) . . .
32.4(29) . . .
37.2(32) . . .
30.3(31) . . .
27.1(29) . . .
29.6(29) . . .
35.6(31) . . .
21.6(25) . . .
30.3(30) . . .
37.7(34) . . .
44(4) . . .
38.2(33) . . .
32.3(31) . . .
35.0(32) . . .
29.4(28) . . .
30.6(30) . . .
31.2(29) . . .
39.2(34) . . .
43(4) . . .
40.6(34) . . .
38.2(32) . . .
36.5(31) . . .
39.4(34) . . .
35.9(33) . . .
32.7(31) . . .
35.0(31) . . .
32.6(30) . . .
30.3(28) . . .
40(4) . . .
39.0(35) . . .
30.5(30) . . .
43.5(34) . . .
36.3(32) . . .
25.3(27) . . .
40(4) . . .
35.3(33) . . .
44.7(34) . . .
28.4(28) . . .
35.2(34) . . .
28.9(28) . . .
34.3(30) . . .
38.7(34) . . .
33.9(31) . . .
42(4) . . .
36.1(35) . . .
41.5(34) . . .
40.8(33) . . .
35.0(32) . . .
37(4) . . .
41(4) . . .
37.4(32) . . .
29.8(29) . . .
32.5(31) . . .
36.8(34) . . .
34.9(31) . . .
42.7(34) . . .
39.6(33) . . .
34.5(32) . . .
34.0(33) . . .
36.4(32) . . .
32.8(30) . . .
35.5(32) . . .
33.2(32) . . .
32.5(31) . . .
34.1(31) . . .
36.6(32) . . .
36.2(32) . . .
32.8(31) . . .
34.3(33) . . .
39.2(33) . . .
38.9(33) . . .
30.6(31) . . .
33.2(30) . . .
39.0(33) . . .
40.9(33) . . .
36.5(33) . . .
28.2(29) . . .
31.1(31) . . .
43(4) . . .
33.0(31) . . .
32.8(30) . . .
31.8(30) . . .
39.7(35) . . .
32.3(30) . . .
33.2(30) . . .
43.0(34) . . .
30.7(29) . . .
42(4) . . .
41(4) . . .
27.3(28) . . .
35.4(31) . . .
36.6(32) . . .
28.0(29) . . .
46(4) . . .
31.9(30) . . .
35.7(31) . . .
32.7(33) . . .
39(4) . . .
31.3(29) . . .
37.9(32) . . .
42.0(33) . . .
43.3(34) . . .
48(4) . . .
37.9(32) . . .
35.0(31) . . .
35.0(31) . . .
37.5(33) . . .
42(4) . . .
31.8(32) . . .
29.4(28) . . .
34.5(31) . . .
39.4(33) . . .
44(4) . . .
42.3(34) . . .
30.1(29) . . .
41.3(35) . . .
30.6(30) . . .
32.0(31) . . .
36.0(32) . . .
27.9(27) . . .
20.6(24) . . .
40(4) . . .
41.0(34) . . .
43.6(34) . . .
35.8(32) . . .
38.1(33) . . .
32.0(30) . . .
27.9(28) . . .
24.6(26) . . .
27.5(27) . . .
37.6(32) . . .
35.8(34) . . .
38.8(35) . . .
34.9(31) . . .
38.2(32) . . .
31.6(30) . . .
31.8(33) . . .
36.6(34) . . .
35.9(31) . . .
28.2(28) . . .
26.8(28) . . .
33.8(32) . . .
39.8(34) . . .
32.1(30) . . .
37.7(32) . . .
32.8(31) . . .
37.6(32) . . .
42(4) . . .
29.2(28) . . .
26.0(27) . . .
40(4) . . .
37.9(34) . . .
39.5(35) . . .
35.7(32) . . .
39.8(34) . . .
45(4) . . .
33.1(30) . . .
39.7(34) . . .
36.2(31) . . .
31.8(31) . . .
41(4) . . .
28.8(27) . . .
40.0(33) . . .
34.2(31) . . .
37.3(34) . . .
40.3(34) . . .
38.3(33) . . .
32.2(31) . . .
31.0(29) . . .
37.1(34) . . .
34.5(33) . . .
40.5(34) . . .
41.3(33) . . .
31.1(29) . . .
35.4(32) . . .
40.8(35) . . .
43(4) . . .
37.1(31) . . .
34.2(31) . . .
29.0(29) . . .
31.3(31) . . .
38.1(34) . . .
40.0(34) . . .
47(4) . . .
42(4) . . .
39.9(35) . . .
33.2(30) . . .
28.6(27) . . .
37.0(32) . . .
37.1(33) . . .
42(4) . . .
38.7(34) . . .
44(4) . . .
34.8(30) . . .
34.6(31) . . .
30.6(28) . . .
36.0(32) . . .
29.9(29) . . .
44.1(34) . . .
46(4) . . .
38.6(34) . . .
30.7(29) . . .
35.9(31) . . .
40.0(33) . . .
35.4(32) . . .
34.4(32) . . .
27.0(28) . . .
25.0(27) . . .
34.5(30) . . .
39.0(34) . . .
41.6(35) . . .
39.7(33) . . .
35.3(31) . . .
33.2(30) . . .
31.7(29) . . .
38.5(34) . . .
33.3(30) . . .
41.0(34) . . .
32.0(31) . . .
30.8(29) . . .
48(4) . . .
33.8(30) . . .
38.0(33) . . .
36.0(32) . . .
37.3(33) . . .
39(4) . . .
35.7(32) . . .
34.0(30) . . .
29.5(31) . . .
30.2(32) . . .
39.6(34) . . .
35.2(31) . . .
30.8(29) . . .
37.7(32) . . .
35.7(33) . . .
34.3(31) . . .
39.0(33) . . .
31.1(29) . . .
34.8(32) . . .
40(4) . . .
35.3(32) . . .
37.6(31) . . .
35.3(32) . . .
40(4) . . .
40(4) . . .
35.6(31) . . .
34.2(31) . . .
38.5(33) . . .
38.7(35) . . .
34.9(34) . . .
31.3(30) . . .
33.9(30) . . .
29.8(28) . . .
32.1(31) . . .
31.1(30) . . .
34.3(31) . . .
39.9(33) . . .
33.0(30) . . .
38.0(34) . . .
33.0(30) . . .
34.1(30) . . .
45.0(35) . . .
43(4) . . .
38.5(32) . . .
33.4(30) . . .
40.3(34) . . .
27.4(28) . . .
35.0(31) . . .
42(4) . . .
41.3(35) . . .
33.9(30) . . .
49(4) . . .
33.0(30) . . .
39.0(35) . . .
44(4) . . .
44(4) . . .
29.8(29) . . .
36.6(32) . . .
32.4(32) . . .
41(4) . . .
38.9(32) . . .
42.5(34) . . .
32.9(30) . . .
32.9(31) . . .
32.9(31) . . .
36.6(32) . . .
29.6(28) . . .
37.2(33) . . .
34.3(33) . . .
34.8(33) . . .
32.1(29) . . .
32.1(29) . . .
28.5(30) . . .
32.8(31) . . .
39.8(33) . . .
37.2(32) . . .
34.2(30) . . .
29.9(30) . . .
38.5(34) . . .
38.2(33) . . .
36.7(31) . . .
42.0(34) . . .
34.7(30) . . .
38.0(32) . . .
37.0(33) . . .
34.2(30) . . .
32.5(30) . . .
25.9(28) . . .
30.3(31) . . .
30.2(29) . . .
35.0(31) . . .
30.8(29) . . .
32.6(31) . . .
30.7(30) . . .
31.0(30) . . .
33.0(30) . . .
35.0(31) . . .
33.2(30) . . .
41(4) . . .
29.8(29) . . .
36.3(32) . . .
33.2(32) . . .
37.5(35) . . .
46(4) . . .
50(4) . . .
34.2(30) . . .
29.3(28) . . .
38.4(33) . . .
35.7(32) . . .
32.1(30) . . .
43.5(34) . . .
41.2(34) . . .
33.0(31) . . .
35.6(32) . . .
26.8(27) . . .
35.6(31) . . .
38.4(34) . . .
39(4) . . .
40.2(34) . . .
41.5(35) . . .
25.5(26) . . .
28.8(29) . . .
45(4) . . .
35.5(33) . . .
31.0(30) . . .
31.2(29) . . .
34.6(33) . . .
36.0(33) . . .
39.8(33) . . .
34.7(31) . . .
43.0(34) . . .
32.5(30) . . .
30.6(30) . . .
38.5(34) . . .
44.2(34) . . .
40.7(33) . . .
41.3(34) . . .
36.1(32) . . .
24.6(26) . . .
36.7(32) . . .
28.8(28) . . .
34.3(32) . . .
39(4) . . .
40(4) . . .
34.6(31) . . .
40.6(33) . . .
30.9(30) . . .
32.4(33) . . .
33.2(32) . . .
35.7(31) . . .
27.3(28) . . .
36.8(34) . . .
35.9(33) . . .
36.0(31) . . .
38.6(32) . . .
30.1(28) . . .
28.7(30) . . .
30.7(30) . . .
35.9(31) . . .
38.5(33) . . .
25.7(28) . . .
37(4) . . .
38.3(34) . . .
27.9(28) . . .
33.7(31) . . .
28.7(27) . . .
27.4(27) . . .
35.1(32) . . .
37.5(32) . . .
37.4(32) . . .
35.8(33) . . .
36.8(33) . . .
40.2(34) . . .
39.8(33) . . .
36.2(31) . . .
33.8(32) . . .
32.9(31) . . .
41(4) . . .
29.7(29) . . .
34.3(31) . . .
39.1(34) . . .
45(4) . . .
32.5(30) . . .
35.5(31) . . .
46(4) . . .
35.4(32) . . .
37.0(34) . . .
34.4(33) . . .
35.3(31) . . .
34.8(31) . . .
40(4) . . .
30.0(29) . . .
36.9(33) . . .
30.0(29) . . .
32.6(31) . . .
32.2(33) . . .
29.1(31) . . .
29.8(29) . . .
37.9(32) . . .
35.6(31) . . .
32.0(30) . . .
34.5(33) . . .
38.8(34) . . .
44.5(35) . . .
33.9(32) . . .
37.0(34) . . .
41.1(35) . . .
30.7(28) . . .
34.2(31) . . .
32.1(31) . . .
37.2(32) . . .
37.2(31) . . .
36.9(32) . . .
35.2(31) . . .
35.9(35) . . .
38(4) . . .
24.8(28) . . .
22.8(24) . . .
36.9(32) . . .
38.4(34) . . .
38.3(34) . . .
37.5(34) . . .
38.9(32) . . .
42.4(34) . . .
33.8(30) . . .
33.3(31) . . .
41(4) . . .
41.7(34) . . .
35.7(31) . . .
36.6(32) . . .
37.5(35) . . .
35.8(32) . . .
26.2(27) . . .
35.1(31) . . .
33.3(29) . . .
37.4(34) . . .
37.5(32) . . .
46(4) . . .
33.9(31) . . .
36.5(33) . . .
38.7(35) . . .
28.3(28) . . .
38.0(32) . . .
33.3(32) . . .
43(4) . . .
33.0(31) . . .
27.2(28) . . .
35.0(31) . . .
35.0(32) . . .
29.9(28) . . .
40(4) . . .
35.0(33) . . .
31.4(29) . . .
34.5(31) . . .
38.6(34) . . .
33.0(31) . . .
39.7(34) . . .
34.4(30) . . .
33.8(31) . . .
43(4) . . .
33.5(32) . . .
32.0(31) . . .
34.7(31) . . .
35.4(32) . . .
33.6(33) . . .
27.2(30) . . .
29.3(30) . . .
31.8(31) . . .
38.3(32) . . .
42.2(35) . . .
44(4) . . .
32.3(30) . . .
35.3(31) . . .
27.6(28) . . .
32.4(29) . . .
43.9(35) . . .
32.1(29) . . .
37.1(31) . . .
35.5(31) . . .
40(4) . . .
39.1(33) . . .
36.7(32) . . .
38.1(33) . . .
32.9(29) . . .
37.0(34) . . .
39.5(34) . . .
38.9(33) . . .
35.4(31) . . .
34.4(32) . . .
33.0(31) . . .
37.7(33) . . .
34.8(31) . . .
37.4(32) . . .
30.7(30) . . .
36.2(34) . . .
36.6(32) . . .
32.2(29) . . .
37.8(33) . . .
32.5(31) . . .
35.7(32) . . .
37.8(34) . . .
39.2(32) . . .
36.2(34) . . .
36.0(34) . . .
36.0(35) . . .
31.2(29) . . .
37.5(32) . . .
39.4(34) . . .
32.1(32) . . .
35.0(34) . . .
31.6(30) . . .
28.9(29) . . .
28.9(31) . . .
36.1(33) . . .
40.0(35) . . .
32.4(29) . . .
30.7(29) . . .
34.5(31) . . .
43(4) . . .
35.5(31) . . .
38.2(32) . . .
32.8(30) . . .
39.4(33) . . .
39(4) . . .
25.1(26) . . .
35.8(31) . . .
34.1(30) . . .
28.8(28) . . .
35(4) . . .
29.3(29) . . .
34.5(30) . . .
46(4) . . .
32.8(31) . . .
28.9(31) . . .
39(4) . . .
32.8(30) . . .
36.3(31) . . .
33.9(32) . . .
36.9(34) . . .
31.4(30) . . .
33.7(30) . . .
52(4) . . .
38.3(34) . . .
36.3(33) . . .
35.8(31) . . .
35.5(31) . . .
42.3(34) . . .
33.7(31) . . .
42(4) . . .
31.2(29) . . .
40.5(33) . . .
41.6(34) . . .
31.9(30) . . .
34.8(34) . . .
41.2(34) . . .
34.3(32) . . .
41(4) . . .
40(4) . . .
36.2(33) . . .
41.3(33) . . .
31.0(30) . . .
43.6(35) . . .
36.5(34) . . .
36.9(32) . . .
37.0(32) . . .
41.2(33) . . .
42(4) . . .
32.7(33) . . .
35.0(32) . . .
35.7(31) . . .
39.3(32) . . .
33.1(30) . . .
38.9(34) . . .
40.3(33) . . .
34.6(30) . . .
35.8(31) . . .
31.7(29) . . .
29.8(29) . . .
36.5(32) . . .
31.4(29) . . .
33.4(31) . . .
34.5(32) . . .
27.9(29) . . .
27.5(31) . . .
31.7(30) . . .
33.2(31) . . .
38.5(33) . . .
36.3(34) . . .
29.0(31) . . .
27.8(27) . . .
32.5(29) . . .
39.5(33) . . .
39.7(35) . . .
32.7(31) . . .
30.0(29) . . .
32.9(30) . . .
36.1(32) . . .
38.0(33) . . .
47(4) . . .
37.0(32) . . .
32.7(30) . . .
37.6(34) . . .
36.2(34) . . .
28.6(27) . . .
39.7(33) . . .
33.5(33) . . .
30.9(30) . . .
33.2(32) . . .
33.2(31) . . .
33.4(31) . . .
37.5(35) . . .
35.8(34) . . .
36.3(34) . . .
32.3(30) . . .
31.5(29) . . .
46(4) . . .
34.0(31) . . .
31.7(29) . . .
35.9(32) . . .
37.1(32) . . .
36.3(32) . . .
44(4) . . .
31.9(29) . . .
38.3(32) . . .
39.9(33) . . .
44(4) . . .
36.3(33) . . .
46(4) . . .
29.7(29) . . .
25.9(27) . . .
32.2(30) . . .
39.4(35) . . .
33.0(31) . . .
30.5(29) . . .
43(4) . . .
29.8(27) . . .
36.8(32) . . .
37.0(32) . . .
39.2(33) . . .
33.5(31) . . .
29.0(30) . . .
45(4) . . .
31.7(29) . . .
39.0(33) . . .
32.2(31) . . .
38.5(35) . . .
45(4) . . .
37.4(35) . . .
33.4(30) . . .
37.0(35) . . .
33.0(33) . . .
29.7(31) . . .
31.6(31) . . .
34.6(30) . . .
37.6(33) . . .
31.3(30) . . .
33.8(31) . . .
35.5(31) . . .
26.0(27) . . .
31.4(30) . . .
35.2(32) . . .
36.8(32) . . .
38.4(32) . . .
41.6(33) . . .
31.8(31) . . .
31.2(30) . . .
41(4) . . .
38.8(32) . . .
36.4(31) . . .
34.4(30) . . .
29.5(30) . . .
35.9(32) . . .
28.4(28) . . .
33.3(30) . . .
41.5(34) . . .
35.2(31) . . .
44(4) . . .
42.2(34) . . .
30.2(29) . . .
34.2(30) . . .
33.5(31) . . .
34.9(31) . . .
29.0(28) . . .
36.3(31) . . .
38.0(34) . . .
35.2(32) . . .
40.6(34) . . .
43.5(34) . . .
35.8(31) . . .
29.2(29) . . .
30.6(30) . . .
39.3(33) . . .
37.2(32) . . .
29.0(30) . . .
34.8(32) . . .
34.9(32) . . .
36.7(32) . . .
31.4(29) . . .
28.7(30) . . .
29.0(29) . . .
34.1(34) . . .
34.5(32) . . .
34.5(31) . . .
27.2(28) . . .
28.0(30) . . .
27.6(27) . . .
30.3(29) . . .
37.4(32) . . .
32.3(30) . . .
33.5(33) . . .
29.5(30) . . .
40(4) . . .
40.7(33) . . .
39.0(35) . . .
34.3(33) . . .
40(4) . . .
39.2(32) . . .
33.1(30) . . .
39.6(33) . . .
46(4) . . .
31.1(29) . . .
23.5(25) . . .
26.9(28) . . .
30.9(31) . . .
38.0(33) . . .
33.5(31) . . .
41.8(33) . . .
37.8(33) . . .
32.5(32) . . .
33.3(34) . . .
43(4) . . .
31.7(30) . . .
36.9(32) . . .
28.1(28) . . .
35.6(34) . . .
34.8(32) . . .
32.6(30) . . .
29.5(31) . . .
33.1(32) . . .
35.5(33) . . .
31.5(29) . . .
32.4(30) . . .
38.4(35) . . .
36.1(32) . . .
34.5(30) . . .
36.4(32) . . .
45.4(35) . . .
35.9(31) . . .
28.3(28) . . .
31.7(30) . . .
40.3(34) . . .
50(4) . . .
34.1(31) . . .
44(4) . . .
36.2(32) . . .
34.1(31) . . .
35.7(31) . . .
33.1(31) . . .
36.8(34) . . .
35.3(33) . . .
33.1(30) . . .
33.7(31) . . .
28.0(28) . . .
36.9(35) . . .
40(4) . . .
32.6(30) . . .
34.2(30) . . .
36.8(33) . . .
37.3(35) . . .
35.0(33) . . .
38.1(32) . . .
26.1(27) . . .
36.4(33) . . .
33.7(35) . . .
22.0(24) . . .
36.1(31) . . .
35.0(31) . . .
35.7(32) . . .
42(4) . . .
32.0(30) . . .
44(4) . . .
31.6(29) . . .
41.0(35) . . .
32.0(31) . . .
34.7(32) . . .
31.4(29) . . .
42.8(34) . . .
44(4) . . .
37.0(34) . . .
33.7(31) . . .
37.3(32) . . .
36.2(32) . . .
26.8(28) . . .
30.8(30) . . .
38.7(33) . . .
39.9(33) . . .
36.2(31) . . .
37.7(34) . . .
29.9(30) . . .
28.0(28) . . .
28.9(28) . . .
30.2(30) . . .
35.2(33) . . .
32.3(31) . . .
29.1(28) . . .
30.7(29) . . .
34.9(32) . . .
32.5(31) . . .
37.7(35) . . .
28.8(28) . . .
32.9(30) . . .
38.2(35) . . .
33.5(31) . . .
34.5(32) . . .
32.8(29) . . .
42.0(34) . . .
37.8(33) . . .
39(4) . . .
34.2(31) . . .
30.1(29) . . .
37.4(32) . . .
41(4) . . .
39(4) . . .
40.6(34) . . .
34.1(30) . . .
39.2(32) . . .
36.3(31) . . .
33.5(31) . . .
28.1(28) . . .
41.2(33) . . .
31.9(31) . . .
33.5(32) . . .
33.8(33) . . .
30.0(29) . . .
31.6(29) . . .
35.7(31) . . .
43(4) . . .
33.5(31) . . .
32.0(29) . . .
28.5(28) . . .
30.9(30) . . .
36.6(33) . . .
41.9(34) . . .
35.7(31) . . .
36.7(32) . . .
35.7(32) . . .
36.7(33) . . .
36.6(33) . . .
28.9(28) . . .
41.4(33) . . .
33.8(30) . . .
31.7(31) . . .
22.1(24) . . .
39.4(33) . . .
38.2(32) . . .
35.8(31) . . .
32.2(30) . . .
35.4(34) . . .
32.9(30) . . .
40.5(33) . . .
35.3(32) . . .
35.3(32) . . .
38.9(33) . . .
26.9(27) . . .
33.3(30) . . .
37.8(34) . . .
38.3(33) . . .
31.3(29) . . .
39.6(32) . . .
42.3(35) . . .
39.6(34) . . .
30.8(30) . . .
43(4) . . .
38.4(33) . . .
36.7(33) . . .
34.7(32) . . .
33.8(31) . . .
33.3(31) . . .
36.2(31) . . .
29.2(28) . . .
39.8(33) . . .
29.1(29) . . .
28.5(29) . . .
35.5(32) . . .
30.4(28) . . .
37.0(33) . . .
36.4(32) . . .
37.5(32) . . .
46(4) . . .
38.4(32) . . .
33.1(31) . . .
27.3(28) . . .
40.2(35) . . .
35.0(31) . . .
29.6(30) . . .
34.2(31) . . .
47(4) . . .
33.7(31) . . .
31.0(29) . . .
24.8(26) . . .
32.7(30) . . .
38.4(34) . . .
34.9(32) . . .
40.8(33) . . .
37.5(32) . . .
40(4) . . .
36.1(34) . . .
38.7(34) . . .
26.6(27) . . .
38.3(33) . . .
33.6(31) . . .
38(4) . . .
30.8(29) . . .
43.3(35) . . .
37.4(32) . . .
31.7(31) . . .
23.5(26) . . .
36.8(31) . . .
35.8(31) . . .
35.6(32) . . .
33.4(33) . . .
33.5(31) . . .
37.2(32) . . .
31.6(30) . . .
33.5(32) . . .
32.9(31) . . .
32.5(31) . . .
28.7(28) . . .
35.0(31) . . .
35.4(32) . . .
33.8(32) . . .
24.2(26) . . .
36.6(32) . . .
40.4(33) . . .
29.6(29) . . .
33.5(32) . . .
28.9(29) . . .
29.7(30) . . .
39.1(33) . . .
39.9(34) . . .
35.0(32) . . .
27.5(27) . . .
26.4(27) . . .
34.4(31) . . .
31.4(29) . . .
45(4) . . .
38.6(32) . . .
36.5(32) . . .
33.6(31) . . .
47(4) . . .
43(4) . . .
38.3(33) . . .
36.0(32) . . .
32.9(30) . . .
36.8(35) . . .
28.9(28) . . .
35.7(31) . . .
37.7(32) . . .
39.8(34) . . .
38.9(33) . . .
32.9(31) . . .
33.4(30) . . .
41.3(34) . . .
25.8(27) . . .
28.6(29) . . .
33.1(30) . . .
33.6(32) . . .
34.9(31) . . .
37.2(33) . . .
39.1(34) . . .
42(4) . . .
38.5(32) . . .
35.7(31) . . .
31.1(30) . . .
41(4) . . .
30.5(29) . . .
32.6(30) . . .
37.0(31) . . .
40.3(34) . . .
43(4) . . .
34.4(31) . . .
33.5(30) . . .
34.6(31) . . .
35.6(31) . . .
40.9(34) . . .
31.5(30) . . .
28.7(28) . . .
40.0(33) . . .
31.6(28) . . .
42(4) . . .
33.8(31) . . .
33.6(30) . . .
35.5(32) . . .
41(4) . . .
32.7(31) . . .
32.2(33) . . .
31.7(29) . . .
32.6(30) . . .
34.9(30) . . .
34.5(31) . . .
26.7(27) . . .
32.2(29) . . .
30.3(30) . . .
37.5(34) . . .
39.2(33) . . .
43.5(34) . . .
44.0(34) . . .
36.5(34) . . .
38(4) . . .
31.2(30) . . .
39.6(33) . . .
31.3(29) . . .
32.1(30) . . .
40(4) . . .
32.4(30) . . .
34.5(32) . . .
28.7(28) . . .
29.4(31) . . .
31.8(32) . . .
32.5(30) . . .
36.3(31) . . .
41.2(33) . . .
36.7(32) . . .
32.2(32) . . .
33.1(30) . . .
34.1(30) . . .
36.7(31) . . .
38.7(34) . . .
33.7(32) . . .
33.7(31) . . .
33.0(30) . . .
39.2(33) . . .
34.4(31) . . .
26.0(28) . . .
29.7(30) . . .
39.5(33) . . .
34.8(31) . . .
34.6(31) . . .
37.0(34) . . .
24.7(26) . . .
33.4(30) . . .
36.0(32) . . .
34.1(32) . . .
41(4) . . .
39.2(33) . . .
28.4(28) . . .
35.6(34) . . .
22.6(25) . . .
32.2(31) . . .
35.6(33) . . .
29.7(29) . . .
32.2(30) . . .
35.7(32) . . .
41(4) . . .
36.9(34) . . .
27.2(28) . . .
36.9(34) . . .
35.5(33) . . .
36.5(32) . . .
39.4(33) . . .
40.6(33) . . .
33.7(33) . . .
36.4(34) . . .
32.8(33) . . .
27.8(28) . . .
33.7(30) . . .
36.3(32) . . .
42(4) . . .
35.8(33) . . .
34.4(31) . . .
37.8(32) . . .
39.0(33) . . .
45(4) . . .
35.1(30) . . .
26.1(26) . . .
25.7(28) . . .
31.5(29) . . .
38(4) . . .
29.4(30) . . .
31.2(29) . . .
24.4(25) . . .
37.2(32) . . .
40.3(33) . . .
30.6(29) . . .
33.4(30) . . .
35.6(31) . . .
36.5(33) . . .
33.6(32) . . .
22.8(25) . . .
27.1(27) . . .
31.0(29) . . .
38.5(34) . . .
36.9(33) . . .
39.6(34) . . .
36.0(31) . . .
29.2(29) . . .
39(4) . . .
37.4(34) . . .
33.0(32) . . .
26.5(27) . . .
29.7(28) . . .
38.1(33) . . .
40.6(35) . . .
31.1(29) . . .
41.0(34) . . .
29.7(29) . . .
33.2(32) . . .
33.7(30) . . .
37.4(31) . . .
33.5(31) . . .
40.5(34) . . .
37.7(34) . . .
31.6(31) . . .
35.7(32) . . .
44.2(35) . . .
30.5(30) . . .
29.9(28) . . .
31.5(30) . . .
32.9(30) . . .
39.2(33) . . .
44(4) . . .
24.0(26) . . .
30.4(30) . . .
36.2(32) . . .
33.7(30) . . .
31.8(29) . . .
28.8(30) . . .
35.6(34) . . .
33.1(29) . . .
38.7(33) . . .
36.9(32) . . .
33.0(30) . . .
42(4) . . .
39.8(33) . . .
30.6(29) . . .
33.7(30) . . .
31.5(30) . . .
38.4(33) . . .
36.2(31) . . .
35.2(32) . . .
30.6(30) . . .
33.8(32) . . .
39.9(34) . . .
34.4(31) . . .
31.0(31) . . .
29.8(29) . . .
27.6(29) . . .
33.2(30) . . .
36.1(32) . . .
30.0(29) . . .
36.9(35) . . .
31.4(31) . . .
36.7(34) . . .
32.7(29) . . .
32.4(30) . . .
27.9(27) . . .
36.8(34) . . .
41.4(33) . . .
34.6(31) . . .
29.6(29) . . .
30.9(31) . . .
30.2(30) . . .
38.8(33) . . .
34.9(31) . . .
36.1(33) . . .
33.8(33) . . .
34.8(31) . . .
40.6(33) . . .
47(4) . . .
31.6(30) . . .
38.6(32) . . .
36.3(31) . . .
39.9(33) . . .
34.6(30) . . .
32.2(31) . . .
33.0(33) . . .
29.4(29) . . .
36.1(32) . . .
30.5(30) . . .
35.7(33) . . .
36.2(31) . . .
29.7(28) . . .
28.4(27) . . .
39.0(33) . . .
32.1(29) . . .
31.8(30) . . .
36.5(34) . . .
32.8(30) . . .
24.1(26) . . .
43(4) . . .
32.4(30) . . .
24.1(25) . . .
36.7(31) . . .
35.6(31) . . .
32.0(30) . . .
33.5(33) . . .
34.5(34) . . .
35.3(31) . . .
41.1(34) . . .
38.2(34) . . .
42(4) . . .
40(4) . . .
32.3(29) . . .
35.2(32) . . .
24.9(28) . . .
35.7(35) . . .
35.5(32) . . .
36.6(32) . . .
27.1(27) . . .
40(4) . . .
25.2(27) . . .
30.2(29) . . .
25.9(27) . . .
33.5(31) . . .
29.3(30) . . .
32.7(30) . . .
34.1(31) . . .
28.7(28) . . .
32.4(29) . . .
30.1(31) . . .
34.7(32) . . .
34.6(31) . . .
31.1(29) . . .
34.6(33) . . .
32.0(33) . . .
38.0(34) . . .
33.0(30) . . .
31.7(29) . . .
29.9(30) . . .
35.4(35) . . .
32.3(30) . . .
33.7(30) . . .
31.9(29) . . .
36.6(34) . . .
39(4) . . .
35.7(33) . . .
36.9(32) . . .
31.2(30) . . .
29.9(30) . . .
30.4(30) . . .
40(4) . . .
35.7(31) . . .
28.2(30) . . .
35.5(33) . . .
33.5(30) . . .
32.1(29) . . .
33.4(31) . . .
38.5(33) . . .
41.0(35) . . .
40.5(34) . . .
34.0(30) . . .
32.2(30) . . .
33.4(31) . . .
33.0(32) . . .
33.9(32) . . .
41(4) . . .
39.1(33) . . .
32.8(30) . . .
37.2(34) . . .
39.8(34) . . .
33.1(32) . . .
32.2(30) . . .
31.8(29) . . .
34.5(33) . . .
39(4) . . .
31.4(30) . . .
28.7(28) . . .
25.4(27) . . .
38.9(35) . . .
31.9(30) . . .
31.6(29) . . .
45(4) . . .
31.3(30) . . .
27.5(28) . . .
30.1(29) . . .
35.4(31) . . .
35.2(31) . . .
28.0(30) . . .
31.5(32) . . .
29.2(28) . . .
38.6(33) . . .
31.6(29) . . .
34.0(32) . . .
35.7(31) . . .
36.0(32) . . .
31.9(30) . . .
35.1(31) . . .
29.3(30) . . .
33.0(33) . . .
38.9(34) . . .
37.9(33) . . .
25.2(26) . . .
31.4(30) . . .
35.2(32) . . .
35.9(33) . . .
39.9(33) . . .
33.1(30) . . .
24.1(26) . . .
37.8(35) . . .
36.3(34) . . .
38.7(32) . . .
36.7(32) . . .
40.4(35) . . .
33.6(32) . . .
33.7(30) . . .
28.2(28) . . .
35.9(33) . . .
27.0(27) . . .
40.8(35) . . .
35.8(31) . . .
29.8(29) . . .
34.9(32) . . .
31.9(31) . . .
34.5(31) . . .
32.9(32) . . .
33.9(30) . . .
28.3(28) . . .
38(4) . . .
30.4(29) . . .
35.7(32) . . .
39.6(33) . . .
31.9(32) . . .
30.4(31) . . .
22.4(25) . . .
26.0(26) . . .
30.9(29) . . .
31.2(32) . . .
29.7(30) . . .
35.0(32) . . .
33.3(30) . . .
38.7(33) . . .
34.5(31) . . .
36.2(33) . . .
36.1(32) . . .
29.8(29) . . .
33.2(30) . . .
35.4(32) . . .
37.6(35) . . .
35.6(31) . . .
34.2(30) . . .
34.5(31) . . .
33.0(30) . . .
35.3(31) . . .
33.8(33) . . .
26.1(27) . . .
29.5(30) . . .
36.2(34) . . .
35.8(34) . . .
30.6(31) . . .
37.0(32) . . .
36(4) . . .
36.6(34) . . .
41(4) . . .
38.7(33) . . .
36.1(31) . . .
29.2(28) . . .
35.0(31) . . .
36.4(33) . . .
33.0(30) . . .
32.0(30) . . .
36.3(32) . . .
40(4) . . .
36.3(32) . . .
32.4(29) . . .
32.9(30) . . .
42(4) . . .
30.4(31) . . .
32.3(33) . . .
22.9(25) . . .
35.6(31) . . .
31.3(29) . . .
35.0(33) . . .
27.8(30) . . .
30.2(29) . . .
34.7(31) . . .
36.4(34) . . .
32.9(30) . . .
31.8(31) . . .
33.0(30) . . .
31.9(30) . . .
27.1(27) . . .
36.1(33) . . .
31.2(30) . . .
31.4(29) . . .
31.1(30) . . .
37.5(34) . . .
41(4) . . .
34.3(33) . . .
31.0(30) . . .
34.5(32) . . .
36.2(32) . . .
30.9(29) . . .
34.8(33) . . .
31.0(29) . . .
28.1(27) . . .
31.5(31) . . .
34.4(32) . . .
33.2(31) . . .
32.5(30) . . .
26.3(27) . . .
34.8(32) . . .
30.4(30) . . .
31.7(29) . . .
36.6(31) . . .
38.2(34) . . .
28.3(28) . . .
32.0(31) . . .
36.9(32) . . .
34.7(30) . . .
31.9(32) . . .
33.0(31) . . .
35.2(31) . . .
38.0(32) . . .
36.2(32) . . .
29.5(29) . . .
40(4) . . .
29.8(29) . . .
33.9(31) . . .
29.0(29) . . .
32.7(31) . . .
41(4) . . .
43.3(35) . . .
38.7(33) . . .
34.9(30) . . .
37.5(34) . . .
39(4) . . .
33.1(31) . . .
29.3(28) . . .
29.2(29) . . .
31.4(29) . . .
30.6(30) . . .
31.2(31) . . .
30.5(29) . . .
34.5(32) . . .
35.8(32) . . .
30.4(32) . . .
29.6(29) . . .
37.5(33) . . .
34.5(30) . . .
33.3(32) . . .
39(4) . . .
24.3(26) . . .
30.4(29) . . .
38.8(32) . . .
38(4) . . .
36.1(34) . . .
30.1(29) . . .
34.9(30) . . .
29.2(28) . . .
26.8(29) . . .
30.8(30) . . .
34.4(31) . . .
30.3(29) . . .
33.8(30) . . .
37.4(32) . . .
33.9(30) . . .
48(4) . . .
27.6(28) . . .
36.2(34) . . .
26.0(26) . . .
37.3(34) . . .
33.4(31) . . .
30.7(29) . . .
28.1(30) . . .
37.5(33) . . .
36.0(31) . . .
30.9(29) . . .
36.4(32) . . .
32.0(31) . . .
35.0(32) . . .
36.8(33) . . .
37.3(32) . . .
33.2(30) . . .
23.1(28) . . .
29.5(32) . . .
32.5(30) . . .
34.3(30) . . .
41.7(34) . . .
35.1(32) . . .
34.6(32) . . .
34.0(32) . . .
36.9(31) . . .
33.1(31) . . .
34.9(33) . . .
36.2(33) . . .
35.7(33) . . .
38.2(32) . . .
36.0(31) . . .
41.7(35) . . .
32.2(30) . . .
29.5(28) . . .
36.8(32) . . .
29.3(28) . . .
35.0(31) . . .
38.5(35) . . .
31.9(31) . . .
36.1(31) . . .
35.1(31) . . .
37(4) . . .
29.3(28) . . .
33.8(30) . . .
40.5(34) . . .
34.5(32) . . .
30.5(30) . . .
33.9(33) . . .
31.4(29) . . .
38.5(32) . . .
34.9(33) . . .
28.4(29) . . .
33.5(32) . . .
37.6(32) . . .
34.4(30) . . .
33.7(31) . . .
31.2(32) . . .
27.3(29) . . .
35.3(31) . . .
28.9(28) . . .
26.6(28) . . .
34.4(32) . . .
30.6(28) . . .
36.8(32) . . .
36.2(32) . . .
29.5(31) . . .
36(4) . . .
30.5(29) . . .
34.7(31) . . .
26.6(27) . . .
27.5(28) . . .
33.1(33) . . .
39.6(33) . . .
33.4(30) . . .
35.0(33) . . .
33.2(30) . . .
32.5(32) . . .
33.4(32) . . .
46(4) . . .
28.8(28) . . .
31.7(30) . . .
37.3(33) . . .
38.0(32) . . .
35.9(31) . . .
41.3(35) . . .
38.2(34) . . .
29.0(28) . . .
38.4(35) . . .
37.3(32) . . .
36.5(33) . . .
31.6(32) . . .
31.0(32) . . .
33.7(32) . . .
33.1(30) . . .
34.3(31) . . .
34.7(32) . . .
38.7(33) . . .
35.5(33) . . .
44.7(35) . . .
37.5(33) . . .
31.5(31) . . .
36.4(32) . . .
38.8(35) . . .
37.4(32) . . .
31.0(30) . . .
30.1(29) . . .
29.9(29) . . .
31.7(29) . . .
32.0(29) . . .
37(4) . . .
29.8(31) . . .
30.4(30) . . .
40.6(33) . . .
31.4(29) . . .
30.6(29) . . .
43(4) . . .
28.0(27) . . .
38.7(33) . . .
31.8(29) . . .
32.5(30) . . .
34.1(32) . . .
40.1(34) . . .
37.8(32) . . .
42.1(35) . . .
38.8(33) . . .
38.2(33) . . .
30.2(30) . . .
38.7(32) . . .
38.2(34) . . .
32.8(30) . . .
34.3(33) . . .
29.8(30) . . .
38.4(33) . . .
23.7(26) . . .
38(4) . . .
29.5(29) . . .
38.5(33) . . .
33.3(30) . . .
34.8(31) . . .
28.6(29) . . .
24.3(27) . . .
32.7(30) . . .
29.5(29) . . .
35.4(31) . . .
45(4) . . .
31.6(30) . . .
32.7(31) . . .
30.9(29) . . .
38.3(33) . . .
32.8(30) . . .
25.0(26) . . .
35.6(32) . . .
36.0(32) . . .
37.1(35) . . .
31.9(30) . . .
41(4) . . .
27.5(27) . . .
37.7(32) . . .
34.2(32) . . .
31.8(30) . . .
30.1(29) . . .
32.6(29) . . .
38.9(34) . . .
22.4(26) . . .
21.3(26) . . .
24.6(26) . . .
28.9(28) . . .
31.7(29) . . .
28.5(28) . . .
34.7(34) . . .
22.5(24) . . .
33.7(30) . . .
36.9(32) . . .
39.9(34) . . .
35.6(35) . . .
29.6(29) . . .
36.0(32) . . .
30.3(29) . . .
32.1(30) . . .
38.8(33) . . .
42(4) . . .
37.3(32) . . .
33.5(32) . . .
26.5(28) . . .
37.4(35) . . .
36.1(32) . . .
33.9(31) . . .
26.8(27) . . .
30.1(29) . . .
37.6(34) . . .
31.5(29) . . .
29.4(28) . . .
29.2(28) . . .
30.5(30) . . .
32.3(30) . . .
31.8(32) . . .
31.2(29) . . .
27.9(28) . . .
31.4(30) . . .
32.6(30) . . .
37.1(33) . . .
37.3(32) . . .
39.0(35) . . .
27.8(29) . . .
37(4) . . .
43(4) . . .
40.7(34) . . .
38.6(33) . . .
38.3(32) . . .
38.7(33) . . .
34.5(31) . . .
36.8(32) . . .
27.9(28) . . .
28.8(30) . . .
30.5(29) . . .
32.8(30) . . .
29.4(28) . . .
27.8(29) . . .
33.2(32) . . .
31.8(30) . . .
30.2(29) . . .
26.1(27) . . .
23.8(25) . . .
32.3(32) . . .
36.7(33) . . .
39.0(32) . . .
33.8(31) . . .
31.6(32) . . .
35(4) . . .
27.4(29) . . .
29.3(28) . . .
30.1(29) . . .
32.5(29) . . .
38.9(34) . . .
36.6(32) . . .
34.3(30) . . .
25.5(26) . . .
34.8(32) . . .
35.7(33) . . .
30.0(29) . . .
32.6(30) . . .
35.8(31) . . .
28.8(28) . . .
29.4(31) . . .
27.8(28) . . .
25.3(26) . . .
29.6(30) . . .
34.2(34) . . .
30.7(31) . . .
31.0(30) . . .
31.1(29) . . .
29.8(28) . . .
29.0(29) . . .
34.8(33) . . .
39.0(32) . . .
36.0(31) . . .
29.6(29) . . .
32.5(32) . . .
29.0(29) . . .
29.9(29) . . .
29.4(28) . . .
33.3(30) . . .
35.9(30) . . .
24.6(25) . . .
31.3(30) . . .
34.1(30) . . .
44(4) . . .
43(4) . . .
36.0(33) . . .
34.5(32) . . .
32.8(30) . . .
31.9(31) . . .
25.9(26) . . .
32.4(30) . . .
31.3(29) . . .
36.6(32) . . .
33.0(33) . . .
27.8(27) . . .
31.3(29) . . .
30.6(30) . . .
30.3(29) . . .
30.6(30) . . .
34.6(33) . . .
31.7(33) . . .
24.9(26) . . .
24.0(26) . . .
27.6(28) . . .
38.2(34) . . .
31.6(29) . . .
33.4(30) . . .
38.3(34) . . .
29.6(29) . . .
38.9(34) . . .
38.7(33) . . .
25.0(26) . . .
41.2(34) . . .
35.3(33) . . .
37.1(33) . . .
29.5(30) . . .
33.0(30) . . .
40.1(33) . . .
28.2(29) . . .
32.3(30) . . .
32.8(30) . . .
28.4(28) . . .
33.4(32) . . .
38.8(34) . . .
31.4(31) . . .
31.7(29) . . .
34.4(31) . . .
31.7(30) . . .
33.7(34) . . .
23.9(26) . . .
26.8(27) . . .
37.2(32) . . .
36.8(32) . . .
39.0(35) . . .
33.2(32) . . .
32.9(30) . . .
24.8(26) . . .
36.5(35) . . .
35.0(33) . . .
30.5(29) . . .
32.3(29) . . .
41.1(34) . . .
33.4(30) . . .
33.8(33) . . .
35.6(31) . . .
43.9(35) . . .
39.0(33) . . .
30.3(30) . . .
35.3(34) . . .
37.6(32) . . .
36.0(31) . . .
33.9(30) . . .
37.0(32) . . .
31.5(32) . . .
28.0(29) . . .
32.4(30) . . .
30.1(29) . . .
32.5(34) . . .
29.7(29) . . .
42.3(35) . . .
29.3(29) . . .
27.5(28) . . .
26.6(27) . . .
31.2(30) . . .
38.9(35) . . .
33.9(30) . . .
33.4(32) . . .
29.1(29) . . .
34.8(33) . . .
33.0(30) . . .
32.9(30) . . .
44(4) . . .
30.6(30) . . .
35.5(33) . . .
28.7(28) . . .
25.3(26) . . .
28.8(29) . . .
30.9(31) . . .
30.4(32) . . .
30.0(30) . . .
22.3(25) . . .
32.8(34) . . .
29.2(30) . . .
38.3(34) . . .
32.1(29) . . .
32.5(30) . . .
29.3(30) . . .
40.0(35) . . .
36.3(31) . . .
31.6(29) . . .
36.7(33) . . .
37.4(32) . . .
39.2(34) . . .
35.6(34) . . .
31.8(29) . . .
31.2(29) . . .
27.0(27) . . .
25.0(27) . . .
29.6(29) . . .
33.4(30) . . .
34.3(31) . . .
30.2(29) . . .
31.3(33) . . .
22.5(26) . . .
38.3(33) . . .
32.8(30) . . .
30.1(29) . . .
37.9(33) . . .
41.2(35) . . .
31.0(29) . . .
36.6(32) . . .
27.6(29) . . .
23.6(26) . . .
31.8(30) . . .
31.5(29) . . .
25.2(26) . . .
47(4) . . .
40.0(34) . . .
38.5(33) . . .
31.6(30) . . .
26.5(29) . . .
25.1(26) . . .
34.0(32) . . .
35.5(31) . . .
31.7(30) . . .
37.7(33) . . .
35.0(34) . . .
26.5(27) . . .
27.8(28) . . .
35.1(31) . . .
30.8(29) . . .
33.3(31) . . .
32.4(31) . . .
45(4) . . .
35.5(33) . . .
38.0(34) . . .
39(4) . . .
33.9(33) . . .
34.2(31) . . .
28.4(28) . . .
37.9(34) . . .
30.3(32) . . .
32.5(30) . . .
42.2(34) . . .
33.9(31) . . .
34.3(32) . . .
28.3(29) . . .
28.5(28) . . .
29.5(29) . . .
30.2(28) . . .
30.8(31) . . .
31.7(32) . . .
31.1(29) . . .
33.7(30) . . .
33.0(30) . . .
34.6(31) . . .
32.0(31) . . .
31.2(29) . . .
36.8(31) . . .
25.6(27) . . .
28.3(29) . . .
31.0(30) . . .
29.4(28) . . .
29.8(29) . . .
30.0(28) . . .
37.3(35) . . .
23.4(26) . . .
36.2(32) . . .
34.2(30) . . .
31.6(29) . . .
28.7(28) . . .
28.4(27) . . .
29.4(28) . . .
35.3(31) . . .
31.7(31) . . .
31.2(32) . . .
21.0(24) . . .
28.1(28) . . .
42.5(35) . . .
36.2(33) . . .
33.1(33) . . .
33.1(32) . . .
29.7(29) . . .
33.1(30) . . .
28.2(28) . . .
35.6(35) . . .
28.1(29) . . .
27.0(27) . . .
30.3(29) . . .
31.3(30) . . .
23.9(25) . . .
35.4(32) . . .
41.2(33) . . .
33.1(30) . . .
35.9(32) . . .
34.5(31) . . .
44(4) . . .
34.4(31) . . .
29.2(29) . . .
35.8(34) . . .
27.3(26) . . .
38.1(32) . . .
35.7(31) . . .
35.7(31) . . .
29.1(29) . . .
26.2(28) . . .
31.8(30) . . .
40.5(33) . . .
32.0(29) . . .
32.9(31) . . .
34.1(33) . . .
32.3(32) . . .
32.0(29) . . .
32.1(32) . . .
28.8(28) . . .
39(4) . . .
30.6(29) . . .
40.5(33) . . .
32.6(31) . . .
28.3(28) . . .
40.0(34) . . .
42(4) . . .
27.4(28) . . .
30.7(29) . . .
33.7(31) . . .
30.9(29) . . .
31.7(31) . . .
33.1(30) . . .
41.0(34) . . .
36.7(32) . . .
39(4) . . .
36.2(31) . . .
37.5(32) . . .
36.6(32) . . .
31.2(32) . . .
30.8(30) . . .
33.2(30) . . .
31.4(29) . . .
26.9(27) . . .
29.0(29) . . .
29.2(29) . . .
32.5(29) . . .
38.8(32) . . .
34.5(31) . . .
32.5(32) . . .
31.1(30) . . .
40.6(34) . . .
41.0(33) . . .
34.3(33) . . .
25.5(27) . . .
39.3(32) . . .
34.1(31) . . .
29.7(29) . . .
36.4(31) . . .
35.1(34) . . .
27.8(29) . . .
26.7(27) . . .
29.6(28) . . .
34.0(31) . . .
39.6(34) . . .
33.1(32) . . .
31.8(29) . . .
34.0(30) . . .
31.8(30) . . .
33.9(34) . . .
34.3(30) . . .
33.5(30) . . .
21.7(25) . . .
33.9(34) . . .
27.6(28) . . .
36.1(31) . . .
36.6(33) . . .
34.9(31) . . .
33.0(30) . . .
31.8(30) . . .
26.7(27) . . .
27.8(27) . . .
22.9(25) . . .
37.4(34) . . .
32.0(31) . . .
32.0(31) . . .
28.5(27) . . .
28.5(29) . . .
30.7(31) . . .
28.8(29) . . .
33.8(31) . . .
28.9(28) . . .
39.7(34) . . .
32.1(31) . . .
29.4(30) . . .
27.5(28) . . .
39.7(34) . . .
33.9(31) . . .
28.9(27) . . .
35.8(34) . . .
33.0(29) . . .
34.8(31) . . .
32.2(31) . . .
36.0(33) . . .
33.1(30) . . .
28.1(28) . . .
32.3(29) . . .
34.9(31) . . .
31.2(31) . . .
33.7(33) . . .
31.3(30) . . .
24.0(25) . . .
33.2(32) . . .
29.1(29) . . .
39(4) . . .
35.8(31) . . .
36.7(32) . . .
32.3(30) . . .
30.3(30) . . .
34.1(32) . . .
29.0(28) . . .
30.5(29) . . .
31.0(29) . . .
31.5(31) . . .
30.7(29) . . .
30.8(29) . . .
25.8(28) . . .
32.8(34) . . .
27.8(30) . . .
24.9(27) . . .
33.5(31) . . .
36.8(34) . . .
28.2(30) . . .
35.0(31) . . .
36.4(33) . . .
30.0(28) . . .
41.6(35) . . .
30.5(30) . . .
35.0(32) . . .
33.3(30) . . .
34.4(32) . . .
39(4) . . .
33.2(32) . . .
32.0(30) . . .
37.0(32) . . .
36.0(31) . . .
30.7(30) . . .
34.1(34) . . .
31.8(31) . . .
28.1(28) . . .
29.6(29) . . .
29.3(29) . . .
22.3(27) . . .
26.9(28) . . .
32.4(30) . . .
30.4(29) . . .
32.7(32) . . .
30.9(32) . . .
33.5(33) . . .
38.8(32) . . .
26.4(27) . . .
31.3(30) . . .
39.1(34) . . .
32.2(30) . . .
28.5(28) . . .
30.8(30) . . .
37.0(33) . . .
33.0(30) . . .
32.9(30) . . .
30.2(28) . . .
35.9(33) . . .
34.1(31) . . .
33.8(31) . . .
45(4) . . .
35.1(31) . . .
41.6(35) . . .
32.9(31) . . .
31.6(29) . . .
34.1(32) . . .
32.7(30) . . .
31.3(34) . . .
32.9(32) . . .
33.8(31) . . .
38.0(32) . . .
40.6(33) . . .
30.4(30) . . .
28.8(30) . . .
31.0(31) . . .
26.5(27) . . .
29.6(29) . . .
32.3(30) . . .
25.5(26) . . .
30.8(29) . . .
32.9(30) . . .
34.3(31) . . .
31.6(31) . . .
31.7(31) . . .
39.5(35) . . .
32.7(30) . . .
28.5(27) . . .
37.4(33) . . .
30.6(31) . . .
36.7(32) . . .
38.5(32) . . .
28.2(27) . . .
23.8(25) . . .
37(4) . . .
29.4(30) . . .
27.8(28) . . .
27.2(27) . . .
32.9(33) . . .
28.9(30) . . .
33.1(32) . . .
30.0(29) . . .
25.9(26) . . .
33.7(31) . . .
28.1(28) . . .
38(4) . . .
40.5(33) . . .
32.9(30) . . .
28.3(29) . . .
34.0(32) . . .
37.1(32) . . .
30.7(29) . . .
32.2(31) . . .
26.3(25) . . .
34.2(31) . . .
31.7(29) . . .
34.3(30) . . .
24.9(26) . . .
30.1(31) . . .
29.3(29) . . .
39.0(33) . . .
32.1(30) . . .
34.0(31) . . .
35.8(33) . . .
36.3(34) . . .
33.0(30) . . .
31.0(29) . . .
34.8(31) . . .
35.7(34) . . .
30.3(32) . . .
29.0(28) . . .
27.3(27) . . .
31.9(32) . . .
37(4) . . .
26.8(27) . . .
29.6(28) . . .
25.6(27) . . .
31.6(30) . . .
33.8(32) . . .
26.2(27) . . .
26.2(26) . . .
26.5(26) . . .
31.5(29) . . .
31.0(30) . . .
37.0(33) . . .
28.6(28) . . .
29.1(28) . . .
32.7(31) . . .
30.8(31) . . .
28.9(29) . . .
35.3(31) . . .
37.1(32) . . .
28.3(27) . . .
35.1(32) . . .
30.4(32) . . .
38.1(32) . . .
31.2(29) . . .
29.6(29) . . .
26.3(30) . . .
29.3(30) . . .
30.5(29) . . .
36.9(33) . . .
35.1(30) . . .
33.6(30) . . .
29.9(29) . . .
37.3(32) . . .
35.5(31) . . .
32.7(34) . . .
37.7(34) . . .
35.5(32) . . .
30.9(29) . . .
25.8(29) . . .
35.3(35) . . .
35.8(33) . . .
29.2(29) . . .
31.4(29) . . .
31.0(31) . . .
32.2(31) . . .
32.0(31) . . .
31.0(29) . . .
35.0(31) . . .
29.8(29) . . .
39(4) . . .
36.8(32) . . .
28.9(27) . . .
34.0(31) . . .
25.3(27) . . .
30.8(31) . . .
33.6(30) . . .
37.1(32) . . .
25.6(26) . . .
31.6(30) . . .
32.7(32) . . .
42(4) . . .
34.9(30) . . .
37.1(32) . . .
25.5(28) . . .
29.2(32) . . .
30.0(29) . . .
33.1(30) . . .
25.9(26) . . .
27.6(28) . . .
30.0(31) . . .
30.0(31) . . .
32.8(30) . . .
41.1(34) . . .
29.0(28) . . .
31.6(31) . . .
27.8(29) . . .
33.9(31) . . .
30.2(30) . . .
25.8(27) . . .
32.9(32) . . .
34.3(30) . . .
25.2(26) . . .
28.9(29) . . .
34.5(31) . . .
40.5(35) . . .
34.3(30) . . .
33.3(30) . . .
33.2(32) . . .
34.2(31) . . .
28.2(28) . . .
27.3(27) . . .
32.4(30) . . .
29.4(29) . . .
38(4) . . .
32.8(30) . . .
33.5(30) . . .
36.7(32) . . .
36.4(32) . . .
32.6(31) . . .
23.9(26) . . .
24.8(26) . . .
27.0(27) . . .
32.7(33) . . .
29.9(31) . . .
26.6(28) . . .
29.1(28) . . .
34.0(31) . . .
28.9(29) . . .
35.5(34) . . .
33.5(31) . . .
34.4(31) . . .
31.2(29) . . .
32.9(30) . . .
25.5(27) . . .
25.9(28) . . .
29.0(28) . . .
37.2(32) . . .
34.1(32) . . .
37.8(35) . . .
33.9(31) . . .
25.0(26) . . .
28.5(28) . . .
39(4) . . .
29.9(30) . . .
30.1(29) . . .
44(4) . . .
27.1(27) . . .
35.5(33) . . .
31.0(30) . . .
34.4(31) . . .
36.8(32) . . .
33.2(32) . . .
29.1(30) . . .
34.7(32) . . .
26.4(28) . . .
31.6(29) . . .
36(4) . . .
25.6(27) . . .
34.8(33) . . .
27.3(28) . . .
35.4(31) . . .
33.3(33) . . .
25.6(26) . . .
25.1(26) . . .
26.8(27) . . .
30.3(29) . . .
34.4(31) . . .
30.7(29) . . .
30.4(30) . . .
33.7(30) . . .
29.0(28) . . .
28.0(28) . . .
31.2(30) . . .
41.1(34) . . .
32.5(30) . . .
29.3(29) . . .
37.5(34) . . .
35.5(35) . . .
31.4(29) . . .
34.0(30) . . .
25.9(26) . . .
28.8(29) . . .
29.8(29) . . .
35.1(32) . . .
29.5(28) . . .
28.6(28) . . .
28.9(30) . . .
30.5(31) . . .
30.6(30) . . .
29.8(28) . . .
34.8(30) . . .
34.2(32) . . .
26.2(28) . . .
29.5(28) . . .
38.1(33) . . .
27.6(28) . . .
30.2(31) . . .
32.9(32) . . .
39.2(33) . . .
30.1(29) . . .
39.9(35) . . .
48(4) . . .
33.7(31) . . .
28.2(28) . . .
29.7(29) . . .
30.0(31) . . .
37.0(35) . . .
42.2(35) . . .
35.4(31) . . .
23.3(26) . . .
36.4(31) . . .
30.0(29) . . .
36.2(33) . . .
41.3(34) . . .
31.9(29) . . .
33.5(31) . . .
28.1(31) . . .
32.2(30) . . .
38.5(33) . . .
27.0(27) . . .
36.6(33) . . .
27.4(30) . . .
26.1(32) . . .
29.6(30) . . .
32.2(29) . . .
36.4(32) . . .
32.0(31) . . .
32.4(32) . . .
29.2(29) . . .
26.9(28) . . .
30.4(29) . . .
34.8(33) . . .
32.7(31) . . .
35.1(31) . . .
32.6(31) . . .
31.8(31) . . .
38.5(35) . . .
28.5(29) . . .
35.3(31) . . .
31.8(29) . . .
31.1(30) . . .
31.1(31) . . .
39.7(35) . . .
31.9(30) . . .
34.5(30) . . .
35.1(31) . . .
31.9(31) . . .
31.2(32) . . .
37.6(32) . . .
36.0(32) . . .
27.4(28) . . .
26.0(29) . . .
30.1(29) . . .
36.1(32) . . .
32.8(30) . . .
38.0(34) . . .
29.9(29) . . .
28.0(28) . . .
36.4(32) . . .
30.0(31) . . .
33.8(32) . . .
32.2(31) . . .
34.7(31) . . .
34.4(31) . . .
32.0(32) . . .
26.7(29) . . .
31.4(30) . . .
26.2(26) . . .
29.4(29) . . .
32.1(30) . . .
30.6(33) . . .
24.1(26) . . .
31.8(29) . . .
32.2(30) . . .
29.5(29) . . .
30.2(31) . . .
31.2(30) . . .
30.3(29) . . .
34.8(30) . . .
30.9(30) . . .
34.5(32) . . .
28.8(28) . . .
32.9(29) . . .
32.6(31) . . .
37.2(33) . . .
35.4(33) . . .
23.0(27) . . .
36.8(31) . . .
30.1(29) . . .
38.0(35) . . .
28.9(28) . . .
36.7(32) . . .
38.7(32) . . .
26.3(27) . . .
32.0(30) . . .
28.1(28) . . .
32.9(30) . . .
30.8(29) . . .
39.2(33) . . .
34.3(31) . . .
27.3(29) . . .
31.9(32) . . .
28.8(28) . . .
31.1(30) . . .
25.6(27) . . .
41(4) . . .
25.1(25) . . .
36.3(32) . . .
34.9(32) . . .
27.4(28) . . .
29.2(29) . . .
35.2(31) . . .
32.5(30) . . .
28.7(29) . . .
29.0(30) . . .
29.5(30) . . .
31.8(30) . . .
39.3(32) . . .
36.9(34) . . .
25.6(27) . . .
30.5(30) . . .
27.5(27) . . .
31.9(29) . . .
28.8(28) . . .
33.3(31) . . .
36.6(32) . . .
31.4(30) . . .
31.3(29) . . .
28.2(27) . . .
37.2(34) . . .
27.0(26) . . .
28.8(30) . . .
29.8(29) . . .
26.1(27) . . .
30.7(32) . . .
28.8(29) . . .
28.4(28) . . .
35.3(31) . . .
40(4) . . .
34.7(33) . . .
30.2(29) . . .
33.5(31) . . .
34.5(32) . . .
27.1(27) . . .
27.5(30) . . .
31.3(31) . . .
31.3(30) . . .
29.6(28) . . .
26.4(26) . . .
33.8(31) . . .
31.7(30) . . .
31.6(29) . . .
37.7(33) . . .
26.0(26) . . .
31.8(30) . . .
34.5(31) . . .
37.3(32) . . .
37.9(33) . . .
28.1(28) . . .
25.0(28) . . .
30.3(31) . . .
36.5(31) . . .
31.6(30) . . .
30.0(28) . . .
24.5(25) . . .
29.1(28) . . .
31.8(29) . . .
29.2(28) . . .
27.9(28) . . .
30.7(32) . . .
29.5(28) . . .
33.0(31) . . .
41(4) . . .
35.9(34) . . .
31.6(30) . . .
32.4(30) . . .
29.9(28) . . .
30.2(30) . . .
23.6(26) . . .
27.3(28) . . .
35.6(30) . . .
34.1(31) . . .
29.1(28) . . .
35.2(31) . . .
37.6(32) . . .
27.0(27) . . .
26.8(27) . . .
37.1(33) . . .
28.9(28) . . .
36.3(32) . . .
38.8(32) . . .
33.4(31) . . .
33.1(31) . . .
28.7(29) . . .
34.8(32) . . .
32.2(30) . . .
34.7(31) . . .
28.0(30) . . .
25.5(28) . . .
25.6(27) . . .
30.0(28) . . .
26.2(27) . . .
28.3(30) . . .
32.8(34) . . .
31.2(30) . . .
35.3(32) . . .
33.0(30) . . .
31.0(31) . . .
30.0(31) . . .
27.5(28) . . .
30.3(29) . . .
38.8(34) . . .
39.0(33) . . .
30.1(30) . . .
28.0(29) . . .
30.4(29) . . .
34.0(31) . . .
23.4(28) . . .
29.6(31) . . .
29.5(29) . . .
34.2(30) . . .
30.9(30) . . .
38(4) . . .
28.4(28) . . .
29.7(30) . . .
29.8(28) . . .
32.0(30) . . .
27.7(29) . . .
30.7(30) . . .
32.1(30) . . .
29.5(28) . . .
27.4(28) . . .
36.2(35) . . .
37.0(33) . . .
40.3(33) . . .
30.6(29) . . .
28.4(28) . . .
41(4) . . .
38.5(34) . . .
28.7(28) . . .
31.0(30) . . .
35.7(32) . . .
34.4(32) . . .
34.4(32) . . .
30.9(29) . . .
27.3(27) . . .
35.2(34) . . .
28.8(30) . . .
30.7(29) . . .
30.4(29) . . .
38.7(35) . . .
33.8(32) . . .
24.1(25) . . .
24.2(26) . . .
37.7(33) . . .
38.2(33) . . .
33.4(33) . . .
26.8(27) . . .
32.4(30) . . .
35.0(31) . . .
31.9(30) . . .
24.0(25) . . .
25.1(27) . . .
29.8(30) . . .
29.1(28) . . .
32.3(29) . . .
31.0(30) . . .
25.8(27) . . .
28.0(28) . . .
29.0(28) . . .
38.2(33) . . .
28.4(31) . . .
34.1(31) . . .
27.7(28) . . .
31.7(29) . . .
30.2(31) . . .
30.0(32) . . .
33.6(33) . . .
28.0(28) . . .
37.6(32) . . .
34.3(32) . . .
34(4) . . .
27.5(27) . . .
37.4(32) . . .
32.8(29) . . .
44(4) . . .
35.4(31) . . .
33.9(31) . . .
35.1(31) . . .
26.1(27) . . .
30.9(29) . . .
33.6(30) . . .
28.2(28) . . .
35.1(31) . . .
35.1(33) . . .
30.7(30) . . .
30.5(31) . . .
33.7(32) . . .
26.4(27) . . .
31.5(29) . . .
27.8(28) . . .
24.0(26) . . .
27.3(27) . . .
37.7(32) . . .
38.5(33) . . .
40(4) . . .
33.3(32) . . .
28.2(28) . . .
31.9(30) . . .
32.4(31) . . .
21.3(25) . . .
31.7(32) . . .
36.1(32) . . .
30.8(29) . . .
29.8(30) . . .
27.1(29) . . .
40(4) . . .
31.7(30) . . .
36.7(31) . . .
32.7(33) . . .
34.5(32) . . .
31.7(30) . . .
27.5(28) . . .
39.3(33) . . .
35.5(33) . . .
24.1(27) . . .
37.7(33) . . .
28.6(28) . . .
29.9(28) . . .
29.1(30) . . .
21.9(24) . . .
31.2(29) . . .
28.6(28) . . .
25.3(28) . . .
29.8(32) . . .
33.3(33) . . .
36.9(33) . . .
31.6(29) . . .
28.4(28) . . .
26.2(29) . . .
26.7(29) . . .
29.0(30) . . .
36.8(32) . . .
34.3(31) . . .
26.1(26) . . .
28.8(28) . . .
37.1(34) . . .
30.1(28) . . .
31.0(29) . . .
27.4(28) . . .
39(4) . . .
36.2(33) . . .
29.7(28) . . .
31.7(30) . . .
27.1(28) . . .
33.3(31) . . .
33.1(30) . . .
33.6(30) . . .
39.0(32) . . .
34.8(33) . . .
34.1(32) . . .
34.0(31) . . .
32.9(30) . . .
33.7(31) . . .
33.4(33) . . .
32.1(30) . . .
43.2(35) . . .
30.9(29) . . .
29.0(31) . . .
33.4(33) . . .
37.2(32) . . .
36.0(33) . . .
28.0(27) . . .
35.3(32) . . .
39(4) . . .
38.6(33) . . .
31.1(29) . . .
38.0(32) . . .
26.4(26) . . .
35.6(31) . . .
35.8(33) . . .
25.6(27) . . .
33.8(30) . . .
39.8(34) . . .
30.4(30) . . .
34.0(31) . . .
37.6(32) . . .
29.6(28) . . .
32.2(31) . . .
35(4) . . .
29.0(29) . . .
33.0(30) . . .
32.6(30) . . .
32.2(31) . . .
30.4(31) . . .
33.1(32) . . .
40.8(33) . . .
32.2(31) . . .
27.6(28) . . .
32.2(32) . . .
27.4(27) . . .
29.1(28) . . .
33.3(31) . . .
29.5(30) . . .
33.3(32) . . .
33.3(30) . . .
34.0(31) . . .
35.8(33) . . .
36.2(34) . . .
31.2(29) . . .
33.0(31) . . .
34.8(31) . . .
41.3(33) . . .
39.9(33) . . .
40.6(35) . . .
31.5(30) . . .
32.4(30) . . .
34.6(33) . . .
30.8(33) . . .
28.3(28) . . .
28.3(28) . . .
37.3(31) . . .
38.3(33) . . .
33.3(32) . . .
30.6(30) . . .
31.6(30) . . .
41.0(33) . . .
25.0(26) . . .
30.5(32) . . .
30.5(29) . . .
33.5(31) . . .
32.9(30) . . .
28.9(29) . . .
25.2(26) . . .
37.7(33) . . .
38.2(32) . . .
34.8(30) . . .
25.7(26) . . .
40(4) . . .
41.5(34) . . .
35.1(31) . . .
42(4) . . .
37.6(35) . . .
29.8(30) . . .
31.8(33) . . .
30.4(29) . . .
31.6(29) . . .
30.5(30) . . .
32.7(31) . . .
43.2(35) . . .
36.0(32) . . .
30.6(29) . . .
30.4(32) . . .
31.7(30) . . .
35.4(32) . . .
36.2(32) . . .
28.9(28) . . .
24.5(25) . . .
36.8(34) . . .
28.4(27) . . .
29.5(28) . . .
32.3(30) . . .
35.8(34) . . .
34.7(31) . . .
30.2(29) . . .
35.3(31) . . .
35.4(33) . . .
39.6(34) . . .
35.5(34) . . .
32.1(31) . . .
22.7(25) . . .
32.5(32) . . .
34.2(32) . . .
42(4) . . .
28.9(28) . . .
36.5(31) . . .
35.1(32) . . .
27.4(28) . . .
32.6(31) . . .
32.6(29) . . .
34.4(31) . . .
23.8(25) . . .
34.0(34) . . .
30.2(29) . . .
33.6(30) . . .
28.3(28) . . .
29.9(31) . . .
28.4(28) . . .
26.6(27) . . .
30.7(29) . . .
35.3(31) . . .
36.9(32) . . .
45(4) . . .
29.9(29) . . .
44.5(35) . . .
33.8(31) . . .
30.6(31) . . .
33.4(31) . . .
28.9(28) . . .
35.4(31) . . .
27.7(28) . . .
38.8(35) . . .
35.3(33) . . .
27.9(29) . . .
24.0(25) . . .
33.9(31) . . .
29.7(30) . . .
42.0(35) . . .
29.2(28) . . .
27.2(27) . . .
37.9(34) . . .
34.5(35) . . .
29.7(31) . . .
42.2(35) . . .
26.1(27) . . .
28.3(30) . . .
29.1(30) . . .
39.8(34) . . .
28.0(28) . . .
30.4(29) . . .
31.5(30) . . .
38(4) . . .
29.2(29) . . .
37.1(31) . . .
40.8(34) . . .
38.9(34) . . .
31.1(31) . . .
32.3(30) . . .
30.3(28) . . .
36.1(31) . . .
34.8(34) . . .
32.3(33) . . .
30.3(29) . . .
33.9(30) . . .
33.3(30) . . .
34.6(30) . . .
37.3(33) . . .
35.6(31) . . .
27.3(27) . . .
29.3(29) . . .
29.0(29) . . .
34.9(34) . . .
33.5(31) . . .
29.3(28) . . .
32.3(31) . . .
38.3(33) . . .
35.8(30) . . .
32.5(30) . . .
32.2(30) . . .
25.6(26) . . .
35.6(34) . . .
36.3(34) . . .
28.2(28) . . .
26.5(27) . . .
30.2(30) . . .
32.1(32) . . .
41(4) . . .
32.3(31) . . .
37.3(32) . . .
29.0(29) . . .
30.5(32) . . .
30.2(30) . . .
23.5(25) . . .
33.0(31) . . .
27.8(28) . . .
27.5(29) . . .
34.7(33) . . .
28.8(29) . . .
35.8(31) . . .
31.5(30) . . .
28.5(29) . . .
34.6(32) . . .
33.8(30) . . .
33.1(30) . . .
36.1(33) . . .
34.5(33) . . .
28.5(29) . . .
24.3(26) . . .
24.0(26) . . .
34.2(30) . . .
45(4) . . .
34.1(31) . . .
27.2(27) . . .
31.7(30) . . .
28.4(29) . . .
34.8(33) . . .
37.3(33) . . .
34.4(30) . . .
35.1(32) . . .
33.1(31) . . .
29.3(28) . . .
35.4(31) . . .
31.2(29) . . .
25.4(27) . . .
36.5(34) . . .
37.0(32) . . .
37.3(33) . . .
34.6(31) . . .
32.7(31) . . .
40.6(34) . . .
33.8(31) . . .
33.9(34) . . .
40.9(34) . . .
35.6(31) . . .
31.1(32) . . .
30.1(30) . . .
28.6(27) . . .
34.9(32) . . .
28.5(28) . . .
25.1(26) . . .
31.0(30) . . .
29.1(29) . . .
36.5(31) . . .
36(4) . . .
35.7(34) . . .
26.9(26) . . .
36.5(31) . . .
32.2(30) . . .
31.4(30) . . .
28.8(28) . . .
45(4) . . .
38.3(33) . . .
31.9(29) . . .
29.4(29) . . .
32.0(31) . . .
35.3(31) . . .
31.2(29) . . .
26.8(27) . . .
34.0(31) . . .
33.1(31) . . .
34.4(31) . . .
34.3(31) . . .
41.4(33) . . .
28.9(29) . . .
35.3(35) . . .
33.4(31) . . .
27.8(27) . . .
40.1(33) . . .
30.8(30) . . .
27.1(29) . . .
28.7(29) . . .
26.3(26) . . .
33.7(30) . . .
35.0(34) . . .
36.3(34) . . .
34.1(31) . . .
31.2(29) . . .
37.1(33) . . .
35.2(31) . . .
31.0(28) . . .
30.3(29) . . .
27.5(28) . . .
28.0(27) . . .
36.9(33) . . .
28.8(29) . . .
31.6(29) . . .
27.9(28) . . .
33.8(32) . . .
33.9(32) . . .
24.2(27) . . .
32.1(30) . . .
26.8(27) . . .
29.1(29) . . .
33.1(33) . . .
31.2(32) . . .
28.3(29) . . .
35.0(31) . . .
33.3(30) . . .
34.8(32) . . .
40.7(34) . . .
41.8(33) . . .
30.8(28) . . .
28.5(29) . . .
23.8(27) . . .
25.8(26) . . .
34.0(30) . . .
28.6(27) . . .
28.6(29) . . .
25.3(27) . . .
28.1(28) . . .
32.5(30) . . .
30.8(29) . . .
30.1(29) . . .
23.2(27) . . .
24.8(28) . . .
38.9(32) . . .
25.5(27) . . .
27.1(28) . . .
30.6(31) . . .
36.0(32) . . .
27.7(28) . . .
25.9(26) . . .
31.5(31) . . .
28.2(29) . . .
30.4(30) . . .
26.4(28) . . .
32.9(30) . . .
31.5(31) . . .
28.8(28) . . .
35.8(32) . . .
33.7(31) . . .
27.9(27) . . .
35.2(32) . . .
26.5(28) . . .
33.9(32) . . .
28.3(28) . . .
31.3(29) . . .
31.3(30) . . .
33.5(32) . . .
34.2(31) . . .
29.2(28) . . .
29.1(28) . . .
33.1(31) . . .
32.8(30) . . .
27.7(27) . . .
33.5(31) . . .
25.9(27) . . .
30.3(31) . . .
26.5(27) . . .
35.7(31) . . .
36.0(31) . . .
24.6(26) . . .
38.2(34) . . .
39.5(33) . . .
31.0(29) . . .
27.9(27) . . .
29.9(29) . . .
27.2(29) . . .
26.9(26) . . .
33.4(31) . . .
28.8(27) . . .
24.5(26) . . .
28.9(29) . . .
30.2(31) . . .
28.4(27) . . .
26.4(28) . . .
33.9(33) . . .
32.9(31) . . .
38.0(32) . . .
30.2(29) . . .
17.0(21) . . .
28.8(28) . . .
30.9(31) . . .
28.7(29) . . .
35.7(31) . . .
36.6(31) . . .
33.6(30) . . .
33.2(31) . . .
35.3(34) . . .
31.3(29) . . .
37.8(33) . . .
28.9(28) . . .
33.4(34) . . .
36.8(33) . . .
34.2(30) . . .
29.6(28) . . .
30.7(31) . . .
31.9(30) . . .
32.3(30) . . .
32.0(29) . . .
33.0(31) . . .
37(4) . . .
22.9(26) . . .
26.9(28) . . .
37.5(32) . . .
26.5(27) . . .
32.2(33) . . .
31.9(32) . . .
24.8(26) . . .
42.2(35) . . .
33.3(30) . . .
45(4) . . .
33.1(30) . . .
29.4(28) . . .
23.4(25) . . .
30.6(30) . . .
26.5(29) . . .
31.5(31) . . .
31.7(31) . . .
26.2(27) . . .
35.1(32) . . .
35.4(35) . . .
29.6(31) . . .
28.8(27) . . .
30.8(30) . . .
27.9(28) . . .
27.0(30) . . .
24.4(26) . . .
32.0(30) . . .
23.9(26) . . .
24.7(26) . . .
30.9(29) . . .
32.0(30) . . .
27.8(27) . . .
31.7(31) . . .
30.8(30) . . .
32.7(33) . . .
23.6(26) . . .
27.3(29) . . .
32.5(30) . . .
32.2(32) . . .
29.2(30) . . .
34.1(32) . . .
30.5(30) . . .
29.9(30) . . .
34.7(32) . . .
30.0(30) . . .
31.1(31) . . .
24.7(26) . . .
28.2(30) . . .
27.9(27) . . .
34.6(35) . . .
33.7(30) . . .
28.1(28) . . .
31.5(33) . . .
23.7(27) . . .
33.7(32) . . .
34.3(31) . . .
24.9(26) . . .
29.7(32) . . .
36.8(34) . . .
30.6(32) . . .
22.9(25) . . .
25.0(26) . . .
26.8(28) . . .
33.5(32) . . .
28.9(29) . . .
26.5(26) . . .
31.8(29) . . .
32.3(30) . . .
27.4(29) . . .
30.0(29) . . .
35.5(31) . . .
32.2(30) . . .
30.9(28) . . .
37.0(35) . . .
32.1(30) . . .
27.6(27) . . .
26.8(27) . . .
22.1(24) . . .
34.5(32) . . .
30.5(32) . . .
31.8(30) . . .
29.1(28) . . .
33.8(31) . . .
30.9(30) . . .
25.4(26) . . .
32.9(30) . . .
29.5(30) . . .
28.8(29) . . .
29.5(30) . . .
33.9(31) . . .
31.8(29) . . .
34.3(32) . . .
38.8(34) . . .
32.3(30) . . .
26.9(27) . . .
30.8(29) . . .
22.4(25) . . .
31.0(31) . . .
42(4) . . .
25.1(26) . . .
35.4(31) . . .
25.1(26) . . .
30.8(30) . . .
44(4) . . .
45(4) . . .
30.8(29) . . .
31.5(30) . . .
33.2(30) . . .
40.9(34) . . .
27.4(27) . . .
35.0(31) . . .
36.5(32) . . .
29.9(30) . . .
28.3(28) . . .
30.4(29) . . .
41.1(33) . . .
35.6(32) . . .
29.7(31) . . .
38.1(32) . . .
40.2(33) . . .
27.0(27) . . .
26.2(29) . . .
30.8(33) . . .
31.8(31) . . .
41.8(33) . . .
33.0(30) . . .
27.9(31) . . .
28.4(30) . . .
24.9(26) . . .
29.5(29) . . .
32.2(31) . . .
26.2(28) . . .
31.2(30) . . .
29.6(29) . . .
32.1(29) . . .
46(4) . . .
44(4) . . .
28.4(29) . . .
27.6(28) . . .
25.3(26) . . .
38.8(34) . . .
34.3(31) . . .
32.3(32) . . .
37.7(32) . . .
31.0(29) . . .
39.8(34) . . .
28.9(29) . . .
31.7(31) . . .
34.0(30) . . .
31.8(30) . . .
24.7(26) . . .
28.7(31) . . .
28.9(30) . . .
30.4(29) . . .
38.9(33) . . .
30.8(30) . . .
32.6(32) . . .
27.7(28) . . .
33.2(31) . . .
33.2(30) . . .
30.7(29) . . .
34.6(33) . . .
24.4(25) . . .
32.0(29) . . .
32.1(29) . . .
31.7(30) . . .
37(4) . . .
28.8(29) . . .
27.7(27) . . .
31.4(29) . . .
22.2(24) . . .
35.3(34) . . .
34.3(34) . . .
25.6(27) . . .
28.9(28) . . .
35.2(32) . . .
27.1(28) . . .
31.1(30) . . .
32.5(30) . . .
41.8(33) . . .
34.7(31) . . .
27.5(29) . . .
29.0(29) . . .
30.9(29) . . .
32.1(30) . . .
30.0(29) . . .
27.1(28) . . .
34.3(31) . . .
31.6(30) . . .
34.9(35) . . .
31.0(30) . . .
26.7(28) . . .
34.3(31) . . .
31.3(29) . . .
23.2(25) . . .
31.0(30) . . .
37.0(33) . . .
38.4(33) . . .
34.0(31) . . .
34.7(32) . . .
33.3(31) . . .
31.6(31) . . .
29.1(32) . . .
28.3(28) . . .
27.8(28) . . .
29.2(28) . . .
33.6(32) . . .
38.2(34) . . .
35.2(31) . . .
32.8(31) . . .
31.5(30) . . .
35.6(31) . . .
38.0(32) . . .
31.9(29) . . .
34.6(34) . . .
36.5(35) . . .
35.7(33) . . .
32.2(29) . . .
33.4(30) . . .
33.6(31) . . .
25.9(29) . . .
27.5(27) . . .
35.4(32) . . .
24.2(26) . . .
26.2(29) . . .
36(4) . . .
24.5(28) . . .
29.6(28) . . .
37.3(33) . . .
25.9(27) . . .
29.9(30) . . .
31.5(30) . . .
31.0(29) . . .
32.0(30) . . .
44(4) . . .
36.3(34) . . .
39.7(34) . . .
27.2(27) . . .
35.9(33) . . .
32.1(31) . . .
34.4(31) . . .
30.0(29) . . .
33.2(30) . . .
33.7(31) . . .
31.9(31) . . .
30.8(32) . . .
23.5(29) . . .
31.8(30) . . .
30.5(30) . . .
33.3(30) . . .
28.0(27) . . .
25.0(26) . . .
28.6(28) . . .
30.2(29) . . .
37.7(34) . . .
28.9(28) . . .
28.1(28) . . .
30.8(29) . . .
33.5(34) . . .
30.9(30) . . .
38(4) . . .
19.7(24) . . .
37.2(32) . . .
24.4(26) . . .
26.6(29) . . .
27.7(27) . . .
33.3(30) . . .
30.7(29) . . .
30.7(29) . . .
33.4(32) . . .
32.6(30) . . .
31.5(30) . . .
35.2(32) . . .
32.5(31) . . .
42(4) . . .
33.3(31) . . .
27.5(27) . . .
30.0(29) . . .
23.7(26) . . .
32.9(32) . . .
26.7(29) . . .
23.0(25) . . .
22.6(25) . . .
27.1(29) . . .
20.0(24) . . .
26.8(27) . . .
37.5(32) . . .
28.0(30) . . .
27.8(29) . . .
31.6(31) . . .
31.6(31) . . .
29.7(29) . . .
32.0(32) . . .
31.8(31) . . .
32.7(30) . . .
33.8(32) . . .
36.0(31) . . .
29.0(29) . . .
34.9(32) . . .
29.0(28) . . .
26.6(28) . . .
30.5(29) . . .
32.5(29) . . .
32.7(32) . . .
32.6(34) . . .
33.0(31) . . .
30.8(29) . . .
35.0(32) . . .
35.7(34) . . .
39.9(34) . . .
37.7(33) . . .
34.7(32) . . .
35.2(35) . . .
24.2(28) . . .
32.2(32) . . .
35.6(32) . . .
28.1(27) . . .
30.3(29) . . .
28.3(31) . . .
37.8(35) . . .
26.3(27) . . .
36.6(33) . . .
28.6(29) . . .
34.3(32) . . .
35.9(31) . . .
30.4(29) . . .
34.3(30) . . .
32.3(30) . . .
26.9(30) . . .
26.4(31) . . .
27.6(27) . . .
27.8(28) . . .
27.1(27) . . .
31.2(30) . . .
28.5(28) . . .
23.5(25) . . .
32.2(31) . . .
32.4(30) . . .
36.9(33) . . .
32.7(30) . . .
31.2(29) . . .
23.4(25) . . .
30.4(31) . . .
33.3(31) . . .
29.9(28) . . .
31.0(29) . . .
35.6(31) . . .
34.2(30) . . .
35.0(32) . . .
35.2(31) . . .
39.0(33) . . .
29.7(28) . . .
32.3(29) . . .
33.5(31) . . .
31.0(29) . . .
32.4(29) . . .
35.0(32) . . .
34.9(33) . . .
34.2(31) . . .
39.3(33) . . .
28.0(28) . . .
30.5(30) . . .
32.2(31) . . .
37.7(34) . . .
27.6(28) . . .
33.0(30) . . .
35.8(32) . . .
38.0(33) . . .
32.3(31) . . .
31.3(29) . . .
28.5(28) . . .
29.6(28) . . .
28.4(30) . . .
27.8(29) . . .
25.1(27) . . .
28.5(28) . . .
33.1(31) . . .
24.1(27) . . .
27.4(28) . . .
33.3(31) . . .
26.8(27) . . .
31.5(30) . . .
30.7(31) . . .
35.0(33) . . .
31.8(29) . . .
31.8(30) . . .
29.2(31) . . .
21.1(24) . . .
31.5(31) . . .
31.6(30) . . .
35.1(31) . . .
31.0(29) . . .
27.5(28) . . .
32.1(30) . . .
36.1(31) . . .
32.4(31) . . .
29.7(30) . . .
26.8(27) . . .
32.5(31) . . .
35.7(31) . . .
34.1(32) . . .
28.8(30) . . .
30.2(30) . . .
22.4(25) . . .
29.7(29) . . .
26.0(26) . . .
30.1(30) . . .
25.0(26) . . .
28.0(28) . . .
36.5(31) . . .
37.7(33) . . .
33.4(31) . . .
35.9(31) . . .
33.0(31) . . .
22.7(25) . . .
33.8(32) . . .
32.6(30) . . .
32.7(30) . . .
32.0(30) . . .
31.1(29) . . .
39.8(33) . . .
33.8(31) . . .
39(4) . . .
24.8(26) . . .
26.2(27) . . .
31.2(30) . . .
34.0(33) . . .
29.5(28) . . .
24.0(25) . . .
23.0(25) . . .
31.9(30) . . .
33.6(32) . . .
30.3(29) . . .
32.7(30) . . .
32.3(30) . . .
31.0(30) . . .
26.4(29) . . .
26.6(27) . . .
30.5(28) . . .
28.9(30) . . .
31.9(29) . . .
32.5(30) . . .
28.3(28) . . .
34.6(31) . . .
28.0(27) . . .
31.1(31) . . .
22.2(24) . . .
35.6(32) . . .
30.3(29) . . .
27.6(28) . . .
37.0(34) . . .
29.6(28) . . .
26.8(27) . . .
31.9(30) . . .
29.8(31) . . .
37.8(34) . . .
31.4(31) . . .
29.3(29) . . .
31.3(29) . . .
32.8(32) . . .
35.7(33) . . .
31.4(30) . . .
37.2(32) . . .
36.2(32) . . .
35.5(30) . . .
33.8(30) . . .
31.9(30) . . .
30.8(29) . . .
32.2(30) . . .
27.6(30) . . .
36.0(34) . . .
34.6(31) . . .
32.8(30) . . .
34.0(30) . . .
37.7(31) . . .
35.5(31) . . .
32.1(31) . . .
32.7(30) . . .
27.0(28) . . .
27.3(27) . . .
29.9(31) . . .
26.0(26) . . .
26.9(26) . . .
29.8(28) . . .
33.3(33) . . .
26.8(28) . . .
30.7(30) . . .
24.6(26) . . .
28.2(27) . . .
29.7(31) . . .
34.0(32) . . .
26.0(28) . . .
34.7(31) . . .
32.0(31) . . .
23.7(28) . . .
25.6(26) . . .
26.5(28) . . .
29.5(29) . . .
32.9(31) . . .
30.9(30) . . .
33.1(32) . . .
28.9(28) . . .
46(4) . . .
30.9(31) . . .
31.7(32) . . .
31.8(31) . . .
31.9(30) . . .
32.9(30) . . .
42(4) . . .
30.9(30) . . .
33.5(31) . . .
22.9(25) . . .
28.9(28) . . .
27.9(27) . . .
35.8(33) . . .
32.0(29) . . .
23.3(25) . . .
31.5(29) . . .
31.6(33) . . .
27.1(31) . . .
23.7(27) . . .
34.9(32) . . .
27.9(27) . . .
30.2(29) . . .
29.3(29) . . .
34.5(31) . . .
31.2(29) . . .
33.0(32) . . .
24.6(27) . . .
30.0(31) . . .
35.0(33) . . .
26.5(27) . . .
35.3(32) . . .
27.2(28) . . .
31.8(33) . . .
28.9(28) . . .
31.7(29) . . .
25.7(28) . . .
27.8(28) . . .
26.3(28) . . .
33.3(31) . . .
29.8(28) . . .
26.8(28) . . .
32.8(32) . . .
36.4(34) . . .
37.2(32) . . .
34.1(31) . . .
31.4(30) . . .
27.0(29) . . .
35.4(35) . . .
27.8(28) . . .
27.7(28) . . .
33.8(33) . . .
31.9(32) . . .
31.5(29) . . .
29.6(29) . . .
21.7(25) . . .
24.5(26) . . .
28.8(29) . . .
30.9(31) . . .
20.4(24) . . .
28.4(28) . . .
37.5(34) . . .
36.2(33) . . .
30.5(29) . . .
27.9(28) . . .
31.0(30) . . .
35.7(32) . . .
33.9(32) . . .
27.0(27) . . .
29.5(28) . . .
31.2(29) . . .
24.8(26) . . .
30.6(33) . . .
29.3(31) . . .
34.7(30) . . .
34.9(32) . . .
29.5(29) . . .
30.1(32) . . .
37.2(34) . . .
31.5(29) . . .
31.8(30) . . .
32.9(32) . . .
29.5(31) . . .
27.9(28) . . .
34.3(31) . . .
28.5(28) . . .
26.6(28) . . .
33.8(34) . . .
27.6(29) . . .
22.8(25) . . .
25.2(26) . . .
28.5(28) . . .
28.8(29) . . .
28.5(28) . . .
31.4(30) . . .
33.5(32) . . .
26.5(27) . . .
30.5(31) . . .
36.3(32) . . .
35.7(31) . . .
29.4(29) . . .
33.2(32) . . .
30.4(28) . . .
29.8(30) . . .
25.4(27) . . .
25.6(26) . . .
27.2(27) . . .
34.4(32) . . .
29.6(28) . . .
37.7(32) . . .
30.7(30) . . .
29.2(29) . . .
26.3(26) . . .
26.3(27) . . .
34.7(32) . . .
28.9(29) . . .
28.9(31) . . .
29.2(29) . . .
37.4(32) . . .
29.9(30) . . .
21.4(24) . . .
26.9(30) . . .
27.7(28) . . .
29.1(28) . . .
23.9(27) . . .
25.6(28) . . .
29.8(30) . . .
31.4(30) . . .
29.2(28) . . .
26.5(28) . . .
27.0(31) . . .
30.3(31) . . .
30.0(29) . . .
28.5(28) . . .
25.4(27) . . .
24.5(26) . . .
27.8(30) . . .
29.4(30) . . .
29.4(28) . . .
34.4(31) . . .
23.0(25) . . .
25.3(28) . . .
30.6(30) . . .
27.7(28) . . .
32.6(30) . . .
39.0(35) . . .
30.2(31) . . .
29.0(29) . . .
30.2(29) . . .
29.8(30) . . .
28.5(28) . . .
41(4) . . .
38.7(33) . . .
29.4(29) . . .
30.1(29) . . .
41(4) . . .
36.0(33) . . .
27.0(28) . . .
26.1(27) . . .
36.1(31) . . .
41(4) . . .
29.8(32) . . .
25.6(26) . . .
32.2(30) . . .
41.0(35) . . .
34.8(33) . . .
25.0(27) . . .
36.4(33) . . .
31.9(29) . . .
38.4(33) . . .
40.5(35) . . .
33.2(30) . . .
23.2(25) . . .
28.6(27) . . .
26.9(27) . . .
35.4(34) . . .
25.5(27) . . .
29.3(29) . . .
30.4(28) . . .
35.4(31) . . .
40.2(34) . . .
27.4(28) . . .
24.9(27) . . .
26.9(27) . . .
32.6(31) . . .
24.8(27) . . .
25.1(27) . . .
24.5(26) . . .
27.6(29) . . .
22.9(26) . . .
34.5(35) . . .
29.5(30) . . .
28.1(28) . . .
38.7(32) . . .
34.0(32) . . .
33.2(33) . . .
28.4(29) . . .
29.6(29) . . .
29.1(29) . . .
31.5(31) . . .
35.3(32) . . .
31.4(31) . . .
33.2(30) . . .
31.3(31) . . .
32.5(30) . . .
32.6(30) . . .
31.7(29) . . .
33.6(31) . . .
30.0(31) . . .
31.6(32) . . .
30.5(31) . . .
34.1(31) . . .
28.4(28) . . .
30.0(30) . . .
30.8(32) . . .
28.0(29) . . .
35.4(30) . . .
38.5(34) . . .
37.2(35) . . .
35.3(32) . . .
33.0(30) . . .
24.6(26) . . .
27.9(28) . . .
28.0(29) . . .
26.9(31) . . .
28.3(28) . . .
37.7(32) . . .
29.3(28) . . .
25.1(26) . . .
29.2(30) . . .
32.7(31) . . .
35.2(31) . . .
31.1(29) . . .
28.4(29) . . .
25.5(27) . . .
33.8(34) . . .
27.7(27) . . .
24.3(25) . . .
30.4(29) . . .
28.6(28) . . .
39.9(33) . . .
28.8(28) . . .
26.9(28) . . .
27.6(29) . . .
33.7(32) . . .
34.2(31) . . .
26.9(27) . . .
29.1(29) . . .
26.8(30) . . .
31.5(31) . . .
35.2(32) . . .
30.1(28) . . .
31.2(29) . . .
38(4) . . .
25.0(25) . . .
25.0(27) . . .
36.4(31) . . .
28.1(30) . . .
37(4) . . .
30.5(29) . . .
35.6(31) . . .
29.2(28) . . .
27.9(28) . . .
34.2(34) . . .
27.2(27) . . .
28.5(29) . . .
29.8(28) . . .
29.9(29) . . .
29.6(29) . . .
31.7(30) . . .
32.2(29) . . .
30.9(29) . . .
34.4(32) . . .
29.5(31) . . .
34.3(31) . . .
30.0(29) . . .
36.8(32) . . .
30.7(29) . . .
31.3(32) . . .
29.2(31) . . .
22.8(26) . . .
29.4(29) . . .
33.9(31) . . .
34.4(32) . . .
37.6(33) . . .
25.4(26) . . .
27.0(29) . . .
28.9(29) . . .
34.0(34) . . .
33.9(33) . . .
25.6(28) . . .
35.7(31) . . .
25.1(27) . . .
27.9(28) . . .
35.2(32) . . .
31.1(29) . . .
30.8(29) . . .
28.5(29) . . .
22.9(25) . . .
30.5(30) . . .
35.9(31) . . .
27.1(28) . . .
30.6(31) . . .
41(4) . . .
32.6(30) . . .
39.2(33) . . .
32.8(31) . . .
29.3(31) . . .
30.7(31) . . .
32.6(30) . . .
32.4(30) . . .
34.8(32) . . .
34.5(33) . . .
37.4(35) . . .
29.8(30) . . .
33.9(31) . . .
31.6(30) . . .
30.0(32) . . .
29.9(29) . . .
34.7(31) . . .
31.7(29) . . .
23.3(25) . . .
27.2(30) . . .
29.9(32) . . .
32.0(29) . . .
37.9(32) . . .
35.9(33) . . .
35.6(34) . . .
32.4(31) . . .
32.0(30) . . .
32.2(31) . . .
28.4(28) . . .
27.8(30) . . .
27.9(28) . . .
33.6(30) . . .
28.1(29) . . .
29.1(31) . . .
25.9(28) . . .
27.1(29) . . .
30.3(30) . . .
24.8(26) . . .
46(4) . . .
34.7(31) . . .
26.1(27) . . .
35.3(31) . . .
33.6(30) . . .
31.2(31) . . .
33.1(31) . . .
28.0(29) . . .
29.9(29) . . .
24.6(25) . . .
33.9(33) . . .
24.8(27) . . .
28.0(28) . . .
28.3(28) . . .
21.6(25) . . .
24.9(30) . . .
28.0(28) . . .
35.5(32) . . .
28.5(28) . . .
29.5(29) . . .
34.6(33) . . .
32.5(30) . . .
31.6(29) . . .
32.3(30) . . .
27.9(27) . . .
33.3(33) . . .
27.5(28) . . .
35.7(31) . . .
23.4(25) . . .
29.1(28) . . .
28.7(29) . . .
29.0(29) . . .
27.5(27) . . .
30.4(28) . . .
34.5(31) . . .
27.4(29) . . .
28.4(28) . . .
32.8(30) . . .
29.3(28) . . .
26.6(27) . . .
26.1(28) . . .
30.3(30) . . .
26.2(27) . . .
28.4(28) . . .
41(4) . . .
30.3(30) . . .
34.3(33) . . .
29.7(28) . . .
35.9(33) . . .
33.8(31) . . .
37.4(35) . . .
25.4(27) . . .
35.2(31) . . .
29.5(28) . . .
27.8(29) . . .
25.2(27) . . .
28.9(28) . . .
30.0(28) . . .
24.9(27) . . .
30.7(29) . . .
34.7(32) . . .
34.9(32) . . .
31.9(30) . . .
27.6(29) . . .
31.7(30) . . .
38.3(34) . . .
30.5(29) . . .
25.5(26) . . .
28.1(29) . . .
28.2(29) . . .
31.5(30) . . .
33.9(30) . . .
32.2(30) . . .
33.7(31) . . .
37.8(35) . . .
25.9(27) . . .
27.9(27) . . .
27.2(28) . . .
26.1(28) . . .
32.7(32) . . .
26.3(27) . . .
33.2(32) . . .
36.3(31) . . .
30.4(32) . . .
24.5(27) . . .
33.3(32) . . .
33.6(30) . . .
29.6(29) . . .
36.3(32) . . .
32.9(31) . . .
27.7(28) . . .
24.7(26) . . .
38.7(32) . . .
33.0(31) . . .
28.2(28) . . .
33.5(31) . . .
41.5(34) . . .
34.4(31) . . .
33.7(32) . . .
33.6(32) . . .
28.9(28) . . .
27.0(27) . . .
33.7(31) . . .
29.9(28) . . .
27.8(28) . . .
23.4(26) . . .
24.2(25) . . .
28.4(28) . . .
31.2(30) . . .
35.8(32) . . .
30.1(29) . . .
31.3(29) . . .
34.0(32) . . .
30.6(29) . . .
37.0(32) . . .
38.9(33) . . .
30.8(29) . . .
28.5(29) . . .
25.8(28) . . .
27.8(29) . . .
26.9(28) . . .
33.1(30) . . .
27.0(27) . . .
34.2(34) . . .
24.6(26) . . .
30.6(29) . . .
35.7(31) . . .
29.2(28) . . .
40(4) . . .
33.2(30) . . .
38.3(32) . . .
35.8(32) . . .
24.6(26) . . .
34(4) . . .
33.9(34) . . .
34.9(31) . . .
24.9(26) . . .
28.0(33) . . .
35(4) . . .
35.9(33) . . .
28.4(27) . . .
32.8(31) . . .
27.5(28) . . .
29.3(29) . . .
32.4(31) . . .
37.9(33) . . .
25.5(28) . . .
27.1(29) . . .
26.5(28) . . .
27.6(28) . . .
31.6(29) . . .
27.4(27) . . .
29.1(30) . . .
30.8(31) . . .
35.7(32) . . .
39.3(33) . . .
36.6(34) . . .
35.1(33) . . .
24.0(26) . . .
28.7(29) . . .
31.2(29) . . .
38.8(33) . . .
34.3(33) . . .
30.2(30) . . .
33.8(31) . . .
31.2(29) . . .
31.9(30) . . .
29.6(30) . . .
33.9(32) . . .
22.2(24) . . .
29.9(28) . . .
27.7(29) . . .
31.2(31) . . .
32.2(34) . . .
34.5(32) . . .
28.4(28) . . .
29.1(28) . . .
27.0(30) . . .
25.0(27) . . .
27.2(27) . . .
24.8(26) . . .
31.6(29) . . .
32.2(30) . . .
33.5(31) . . .
30.0(29) . . .
35.0(30) . . .
36.3(32) . . .
31.9(31) . . .
29.6(29) . . .
36.9(32) . . .
25.9(28) . . .
30.8(29) . . .
33.9(30) . . .
27.6(28) . . .
27.3(27) . . .
27.9(27) . . .
35(4) . . .
19.6(23) . . .
36.8(33) . . .
29.3(29) . . .
21.8(24) . . .
26.0(28) . . .
32.2(31) . . .
34.7(31) . . .
27.5(28) . . .
31.2(31) . . .
27.8(28) . . .
26.2(27) . . .
24.5(26) . . .
25.8(26) . . .
23.8(27) . . .
27.6(29) . . .
30.6(32) . . .
30.1(29) . . .
27.6(28) . . .
35.4(33) . . .
33.9(33) . . .
28.4(28) . . .
40.2(34) . . .
24.1(26) . . .
24.6(27) . . .
27.7(30) . . .
27.7(28) . . .
27.8(28) . . .
40.0(33) . . .
34.1(31) . . .
23.1(24) . . .
29.7(28) . . .
34.9(31) . . .
32.7(31) . . .
23.7(26) . . .
31.8(32) . . .
32.5(32) . . .
34.4(31) . . .
30.5(28) . . .
27.2(31) . . .
27.5(30) . . .
27.1(27) . . .
27.7(27) . . .
27.0(29) . . .
29.5(29) . . .
30.5(30) . . .
30.3(31) . . .
32.3(31) . . .
28.5(27) . . .
27.1(27) . . .
33.5(34) . . .
32.6(32) . . .
24.1(25) . . .
33.3(32) . . .
24.9(28) . . .
33.7(33) . . .
31.4(30) . . .
31.4(29) . . .
26.8(29) . . .
29.4(30) . . .
28.6(28) . . .
23.7(27) . . .
34.0(31) . . .
27.1(27) . . .
24.1(26) . . .
26.3(27) . . .
30.1(29) . . .
31.5(29) . . .
34.6(31) . . .
33.8(33) . . .
29.4(29) . . .
28.2(29) . . .
32.3(29) . . .
26.0(28) . . .
34.5(33) . . .
37.0(32) . . .
32.5(32) . . .
26.6(27) . . .
30.4(30) . . .
32.0(33) . . .
27.9(28) . . .
26.7(28) . . .
32.9(30) . . .
28.8(29) . . .
36(4) . . .
29.6(29) . . .
26.0(26) . . .
27.4(28) . . .
31.7(30) . . .
34.0(33) . . .
29.8(30) . . .
36.8(31) . . .
34.0(33) . . .
22.8(26) . . .
29.1(30) . . .
37.3(33) . . .
36.3(32) . . .
27.6(27) . . .
23.7(25) . . .
30.1(31) . . .
32.2(30) . . .
24.6(26) . . .
26.0(28) . . .
24.9(27) . . .
31.5(32) . . .
35.4(32) . . .
35.3(31) . . .
26.5(27) . . .
30.1(29) . . .
34.3(33) . . .
26.0(26) . . .
25.8(27) . . .
15.1(20) . . .
28.0(29) . . .
29.3(29) . . .
27.4(29) . . .
33.2(30) . . .
24.8(26) . . .
24.8(28) . . .
25.0(29) . . .
28.5(29) . . .
25.6(26) . . .
32.5(33) . . .
35.2(33) . . .
33.2(31) . . .
28.1(28) . . .
27.2(27) . . .
24.2(25) . . .
26.4(30) . . .
32.3(31) . . .
33.4(30) . . .
36.0(31) . . .
31.7(31) . . .
33.4(31) . . .
38.2(32) . . .
29.7(29) . . .
26.0(27) . . .
29.0(29) . . .
34.2(34) . . .
39.9(33) . . .
31.8(29) . . .
36.6(32) . . .
24.0(26) . . .
32.9(34) . . .
26.1(27) . . .
23.1(25) . . .
32.3(30) . . .
23.4(25) . . .
34.8(33) . . .
33.7(32) . . .
25.9(27) . . .
28.4(28) . . .
20.3(23) . . .
28.6(30) . . .
35.3(33) . . .
28.6(28) . . .
24.4(25) . . .
30.3(31) . . .
28.5(28) . . .
33.7(31) . . .
23.0(25) . . .
28.9(31) . . .
25.9(27) . . .
27.6(28) . . .
30.2(29) . . .
33.5(30) . . .
34.3(31) . . .
27.3(29) . . .
33.3(32) . . .
31.6(29) . . .
29.0(28) . . .
28.4(29) . . .
30.0(30) . . .
27.4(28) . . .
31.8(30) . . .
31.4(29) . . .
34.0(32) . . .
33.5(32) . . .
32.1(29) . . .
36.6(32) . . .
29.2(29) . . .
39.2(34) . . .
29.0(30) . . .
25.9(27) . . .
21.2(25) . . .
35.6(31) . . .
31.0(30) . . .
26.1(26) . . .
37.2(33) . . .
34.3(31) . . .
35.5(32) . . .
33.9(31) . . .
23.7(27) . . .
28.0(28) . . .
28.5(28) . . .
33.3(30) . . .
28.0(29) . . .
23.0(26) . . .
24.0(25) . . .
28.9(28) . . .
33.1(32) . . .
35.5(35) . . .
23.8(26) . . .
29.0(30) . . .
34.8(31) . . .
29.9(29) . . .
33.5(31) . . .
32.1(29) . . .
32.1(30) . . .
31.9(30) . . .
34.7(31) . . .
25.9(27) . . .
24.3(29) . . .
29.5(30) . . .
27.3(27) . . .
33.0(31) . . .
28.0(29) . . .
34.3(31) . . .
33.0(30) . . .
30.2(29) . . .
32.1(31) . . .
34.9(32) . . .
26.1(27) . . .
30.2(31) . . .
32.6(31) . . .
37.2(34) . . .
26.2(29) . . .
30.6(32) . . .
28.2(28) . . .
33.6(30) . . .
29.3(30) . . .
31.1(32) . . .
35.8(33) . . .
29.7(28) . . .
25.8(26) . . .
27.5(29) . . .
25.6(27) . . .
30.5(31) . . .
23.1(26) . . .
24.3(26) . . .
22.3(26) . . .
19.3(25) . . .
26.3(28) . . .
30.2(28) . . .
35.2(33) . . .
29.6(29) . . .
24.6(29) . . .
25.6(27) . . .
29.8(28) . . .
27.1(27) . . .
35.8(33) . . .
34.0(32) . . .
24.6(26) . . .
34.9(32) . . .
26.0(27) . . .
36.1(35) . . .
31.4(30) . . .
29.9(31) . . .
20.5(23) . . .
31.1(30) . . .
36.4(33) . . .
33.8(31) . . .
30.2(29) . . .
36.9(32) . . .
35.2(32) . . .
29.3(30) . . .
29.0(31) . . .
33.1(31) . . .
37.0(32) . . .
35.7(32) . . .
31.6(31) . . .
30.2(30) . . .
25.4(27) . . .
32.5(30) . . .
35.8(34) . . .
31.7(32) . . .
34.9(33) . . .
29.9(30) . . .
35.9(31) . . .
31.5(33) . . .
25.5(28) . . .
31.6(31) . . .
33.1(30) . . .
29.4(28) . . .
31.8(32) . . .
28.5(30) . . .
33.2(32) . . .
37.3(32) . . .
31.9(29) . . .
23.0(27) . . .
37(4) . . .
39.9(35) . . .
29.6(28) . . .
26.1(26) . . .
35.9(33) . . .
29.2(32) . . .
24.6(27) . . .
32.7(30) . . .
35.5(31) . . .
35.0(31) . . .
27.6(28) . . .
30.0(29) . . .
29.4(28) . . .
23.4(25) . . .
30.8(31) . . .
30.1(31) . . .
28.0(27) . . .
29.8(29) . . .
28.3(27) . . .
29.7(28) . . .
27.2(27) . . .
32.2(30) . . .
30.3(28) . . .
30.3(29) . . .
33.3(33) . . .
25.6(28) . . .
23.8(25) . . .
27.2(27) . . .
22.5(25) . . .
27.5(28) . . .
33.2(32) . . .
23.9(25) . . .
27.7(28) . . .
34.8(31) . . .
35.1(32) . . .
30.0(30) . . .
23.7(26) . . .
30.1(28) . . .
35.3(32) . . .
32.7(31) . . .
28.7(29) . . .
36.2(32) . . .
34.3(30) . . .
37.3(31) . . .
36.0(32) . . .
36.8(32) . . .
35.4(31) . . .
32.0(30) . . .
30.0(29) . . .
34.9(32) . . .
31.8(31) . . .
30.3(29) . . .
26.7(28) . . .
21.4(24) . . .
38.5(34) . . .
29.7(28) . . .
31.9(29) . . .
35.8(33) . . .
28.3(27) . . .
35.9(32) . . .
30.3(28) . . .
30.0(28) . . .
27.4(30) . . .
23.6(27) . . .
26.5(30) . . .
27.3(28) . . .
25.2(26) . . .
29.6(29) . . .
28.5(28) . . .
37.1(34) . . .
31.9(30) . . .
26.4(27) . . .
29.8(29) . . .
23.0(27) . . .
30.7(31) . . .
33.7(31) . . .
24.6(26) . . .
32.9(30) . . .
36.8(32) . . .
29.7(29) . . .
28.6(28) . . .
25.4(27) . . .
28.2(28) . . .
33.5(32) . . .
35.9(35) . . .
29.0(28) . . .
27.9(27) . . .
36.7(33) . . .
33.8(32) . . .
29.5(28) . . .
22.2(24) . . .
33.8(30) . . .
31.8(30) . . .
30.2(32) . . .
33.9(32) . . .
32.5(30) . . .
35.9(32) . . .
25.6(27) . . .
36.4(33) . . .
30.0(28) . . .
34.6(30) . . .
34.2(30) . . .
24.0(25) . . .
29.2(30) . . .
30.5(30) . . .
26.9(27) . . .
28.8(28) . . .
28.2(28) . . .
29.0(31) . . .
27.9(28) . . .
30.2(30) . . .
26.7(27) . . .
33.0(31) . . .
29.4(30) . . .
27.5(30) . . .
27.4(27) . . .
37.4(33) . . .
34.4(32) . . .
32.7(31) . . .
33.3(31) . . .
37.2(31) . . .
40.1(35) . . .
32.3(30) . . .
30.5(29) . . .
28.8(29) . . .
32.5(29) . . .
25.6(26) . . .
33.5(31) . . .
26.0(27) . . .
29.9(29) . . .
35.7(31) . . .
26.9(27) . . .
34.2(32) . . .
31.8(32) . . .
27.0(27) . . .
34.3(30) . . .
31.5(32) . . .
28.6(29) . . .
30.1(29) . . .
31.8(30) . . .
32.0(30) . . .
27.4(28) . . .
28.5(31) . . .
28.9(29) . . .
30.1(28) . . .
32.7(31) . . .
30.3(29) . . .
33.6(33) . . .
26.6(27) . . .
29.5(28) . . .
33.7(30) . . .
35.0(31) . . .
31.2(31) . . .
31.0(31) . . .
24.4(26) . . .
24.1(25) . . .
30.2(29) . . .
26.1(27) . . .
32.6(32) . . .
26.5(27) . . .
37.9(32) . . .
32.7(29) . . .
32.7(30) . . .
31.9(30) . . .
33.3(31) . . .
31.7(29) . . .
30.2(29) . . .
42(4) . . .
31.8(30) . . .
30.1(29) . . .
36.4(31) . . .
23.6(25) . . .
23.4(24) . . .
32.9(30) . . .
27.9(28) . . .
31.9(31) . . .
27.8(28) . . .
33.3(31) . . .
31.7(29) . . .
32.9(30) . . .
31.7(31) . . .
33.3(31) . . .
28.1(30) . . .
36.5(32) . . .
34.8(31) . . .
40.6(35) . . .
25.7(26) . . .
26.8(27) . . .
23.4(24) . . .
31.0(30) . . .
32.8(30) . . .
36.1(33) . . .
32.8(30) . . .
31.0(29) . . .
25.4(26) . . .
22.5(26) . . .
31.0(33) . . .
34.9(32) . . .
35.5(32) . . .
33.8(30) . . .
41(4) . . .
33.3(31) . . .
31.6(30) . . .
34.7(31) . . .
28.3(27) . . .
31.7(30) . . .
26.3(26) . . .
32.9(31) . . .
25.2(26) . . .
28.9(28) . . .
22.5(25) . . .
33.1(33) . . .
39.9(34) . . .
33.9(31) . . .
39(4) . . .
23.4(27) . . .
31.5(32) . . .
29.1(29) . . .
33.2(30) . . .
23.6(26) . . .
29.5(31) . . .
35.9(35) . . .
34.1(33) . . .
28.6(28) . . .
31.4(29) . . .
44(4) . . .
30.2(29) . . .
30.4(30) . . .
27.1(27) . . .
34.5(32) . . .
30.9(30) . . .
30.8(32) . . .
27.5(31) . . .
30.5(29) . . .
23.9(26) . . .
24.1(28) . . .
36.1(32) . . .
29.5(28) . . .
27.4(28) . . .
30.4(33) . . .
27.6(31) . . .
23.8(26) . . .
31.3(29) . . .
29.3(28) . . .
21.6(25) . . .
23.4(26) . . .
31.6(30) . . .
33.3(30) . . .
28.4(28) . . .
32.9(31) . . .
32.4(33) . . .
23.2(25) . . .
25.0(26) . . .
22.0(24) . . .
22.0(24) . . .
34.4(34) . . .
27.4(29) . . .
26.4(26) . . .
32.6(30) . . .
34.0(31) . . .
35.3(33) . . .
31.6(30) . . .
32.5(31) . . .
33.8(30) . . .
28.3(30) . . .
29.5(30) . . .
27.2(28) . . .
37.5(32) . . .
31.2(31) . . .
32.9(30) . . .
34.9(30) . . .
31.6(31) . . .
33.7(30) . . .
22.2(25) . . .
30.1(30) . . .
32.0(31) . . .
24.5(26) . . .
20.1(24) . . .
21.2(24) . . .
33.2(31) . . .
28.5(27) . . .
33.0(30) . . .
35.3(31) . . .
28.8(29) . . .
30.8(30) . . .
27.8(28) . . .
29.1(28) . . .
33.4(30) . . .
29.4(28) . . .
34.4(33) . . .
33.5(34) . . .
27.9(28) . . .
27.3(28) . . .
27.7(28) . . .
28.9(32) . . .
24.8(27) . . .
36.6(33) . . .
19.0(22) . . .
30.0(32) . . .
28.9(30) . . .
36.7(34) . . .
27.7(27) . . .
27.4(27) . . .
24.7(26) . . .
31.2(33) . . .
31.2(29) . . .
33.2(30) . . .
30.9(29) . . .
27.7(28) . . .
31.9(31) . . .
33.5(31) . . .
28.0(27) . . .
23.3(26) . . .
32.8(31) . . .
31.2(30) . . .
31.0(30) . . .
27.5(27) . . .
32.8(30) . . .
26.1(26) . . .
30.8(31) . . .
35.4(32) . . .
29.1(30) . . .
25.4(26) . . .
32.8(32) . . .
34.7(33) . . .
34.5(32) . . .
24.2(26) . . .
27.5(27) . . .
30.3(30) . . .
30.8(31) . . .
31.8(30) . . .
32.6(30) . . .
35(4) . . .
22.5(24) . . .
37.4(34) . . .
33.2(31) . . .
30.7(29) . . .
29.9(30) . . .
20.9(27) . . .
29.7(31) . . .
43(4) . . .
26.4(27) . . .
23.4(25) . . .
32.7(32) . . .
33.7(33) . . .
26.2(26) . . .
30.0(29) . . .
31.2(33) . . .
26.6(31) . . .
22.7(27) . . .
29.2(29) . . .
36.5(31) . . .
30.6(30) . . .
26.9(31) . . .
34.5(33) . . .
30.4(29) . . .
25.9(26) . . .
29.9(29) . . .
23.4(26) . . .
25.7(27) . . .
33.5(31) . . .
32.5(30) . . .
33.0(30) . . .
32.6(31) . . .
32.6(31) . . .
36.4(32) . . .
32.9(30) . . .
34.9(32) . . .
26.5(28) . . .
24.4(25) . . .
31.0(29) . . .
37.5(32) . . .
31.1(30) . . .
23.0(28) . . .
26.4(29) . . .
32.0(30) . . .
26.4(27) . . .
29.3(30) . . .
27.6(29) . . .
31.6(30) . . .
24.7(27) . . .
33.2(32) . . .
28.0(29) . . .
33.6(34) . . .
34.9(32) . . .
37.4(31) . . .
23.3(27) . . .
29.0(29) . . .
38.3(34) . . .
39.4(34) . . .
35.3(31) . . .
37(4) . . .
24.0(28) . . .
28.4(29) . . .
28.7(28) . . .
29.2(28) . . .
18.6(23) . . .
27.5(31) . . .
29.2(29) . . .
31.0(29) . . .
23.8(26) . . .
35.7(34) . . .
28.0(29) . . .
30.5(31) . . .
27.1(27) . . .
23.9(25) . . .
29.5(29) . . .
25.6(27) . . .
26.0(27) . . .
28.5(28) . . .
33.5(30) . . .
35.8(33) . . .
34.0(35) . . .
30.9(32) . . .
28.5(27) . . .
26.6(27) . . .
27.0(28) . . .
37.5(35) . . .
33.5(31) . . .
31.8(30) . . .
28.9(29) . . .
27.8(27) . . .
31.3(31) . . .
25.1(26) . . .
32.0(30) . . .
36.3(33) . . .
28.7(29) . . .
29.0(29) . . .
34.4(31) . . .
24.5(26) . . .
29.9(32) . . .
22.5(25) . . .
35.5(33) . . .
31.7(31) . . .
26.6(27) . . .
32.9(30) . . .
29.9(30) . . .
30.0(30) . . .
31.8(30) . . .
25.8(26) . . .
31.2(33) . . .
27.8(32) . . .
22.7(25) . . .
28.0(28) . . .
26.3(27) . . .
28.8(30) . . .
30.9(29) . . .
39.0(34) . . .
27.7(28) . . .
29.5(28) . . .
32.8(30) . . .
26.4(27) . . .
28.6(28) . . .
30.4(28) . . .
39.6(33) . . .
42(4) . . .
27.3(28) . . .
27.8(28) . . .
23.6(25) . . .
27.6(28) . . .
22.5(29) . . .
28.8(30) . . .
32.0(30) . . .
33.3(30) . . .
29.5(29) . . .
25.7(28) . . .
29.5(30) . . .
32.9(30) . . .
22.4(25) . . .
35.8(31) . . .
32.2(32) . . .
32.9(31) . . .
32.6(30) . . .
31.7(29) . . .
38.9(32) . . .
36.3(32) . . .
36.3(35) . . .
26.8(27) . . .
27.6(27) . . .
26.7(27) . . .
21.2(25) . . .
33.7(31) . . .
26.1(26) . . .
33.3(30) . . .
39(4) . . .
35.2(33) . . .
28.3(28) . . .
32.0(31) . . .
30.6(29) . . .
33.1(31) . . .
28.9(30) . . .
34.6(32) . . .
34.3(32) . . .
30.5(29) . . .
24.5(28) . . .
25.6(31) . . .
27.0(28) . . .
34.9(31) . . .
30.5(28) . . .
31.5(30) . . .
35.8(34) . . .
28.9(28) . . .
30.8(29) . . .
34.3(30) . . .
25.8(26) . . .
27.5(29) . . .
32.5(30) . . .
33.0(30) . . .
27.6(29) . . .
30.8(29) . . .
35.6(33) . . .
25.7(26) . . .
25.2(26) . . .
27.7(30) . . .
28.6(30) . . .
25.0(26) . . .
33.7(30) . . .
31.7(29) . . .
33.1(32) . . .
27.4(27) . . .
26.2(29) . . .
30.5(32) . . .
27.6(27) . . .
30.6(29) . . .
33.9(35) . . .
33.0(34) . . .
30.5(29) . . .
31.3(29) . . .
20.7(24) . . .
39(4) . . .
28.1(29) . . .
26.8(29) . . .
31.7(30) . . .
31.7(31) . . .
21.3(25) . . .
27.6(30) . . .
28.3(28) . . .
32.2(30) . . .
25.8(27) . . .
31.1(30) . . .
30.9(29) . . .
26.3(28) . . .
23.6(25) . . .
28.1(28) . . .
27.9(29) . . .
29.8(29) . . .
30.8(30) . . .
26.3(27) . . .
32.1(34) . . .
31.0(34) . . .
27.1(29) . . .
30.7(29) . . .
29.3(29) . . .
29.6(29) . . .
29.1(31) . . .
31.2(29) . . .
35.8(32) . . .
26.3(27) . . .
25.3(29) . . .
28.6(30) . . .
37.8(34) . . .
24.7(26) . . .
29.4(28) . . .
29.6(29) . . .
30.2(32) . . .
28.3(29) . . .
35.0(31) . . .
26.0(26) . . .
26.4(28) . . .
27.9(29) . . .
22.1(24) . . .
28.4(27) . . .
31.0(29) . . .
22.8(24) . . .
32.4(32) . . .
31.7(31) . . .
35.1(31) . . .
31.6(29) . . .
28.5(31) . . .
35.8(33) . . .
29.2(28) . . .
24.8(27) . . .
26.9(27) . . .
34(4) . . .
30.2(30) . . .
27.5(27) . . .
36.5(31) . . .
28.0(28) . . .
27.4(28) . . .
30.9(31) . . .
35.2(31) . . .
28.6(28) . . .
30.7(30) . . .
28.4(28) . . .
30.9(30) . . .
27.5(28) . . .
27.1(28) . . .
26.3(27) . . .
33.6(34) . . .
25.5(28) . . .
27.6(28) . . .
32.5(31) . . .
33.4(30) . . .
36.2(33) . . .
30.7(29) . . .
25.2(27) . . .
19.7(24) . . .
32.0(31) . . .
36.0(33) . . .
41(4) . . .
29.3(28) . . .
25.4(27) . . .
28.3(28) . . .
33.4(34) . . .
30.5(29) . . .
27.6(28) . . .
23.6(25) . . .
31.1(31) . . .
25.5(26) . . .
30.9(29) . . .
27.0(27) . . .
25.1(28) . . .
28.5(29) . . .
33.1(31) . . .
36.8(35) . . .
34.7(31) . . .
27.0(28) . . .
25.4(28) . . .
24.6(28) . . .
31.4(29) . . .
30.3(29) . . .
30.2(29) . . .
36.6(34) . . .
24.2(25) . . .
30.2(28) . . .
29.9(29) . . .
27.0(29) . . .
25.5(29) . . .
25.8(29) . . .
34.3(32) . . .
38.1(32) . . .
29.7(29) . . .
31.1(33) . . .
28.3(29) . . .
24.9(27) . . .
28.5(28) . . .
31.9(30) . . .
22.9(25) . . .
22.5(25) . . .
29.6(29) . . .
34.2(31) . . .
31.9(31) . . .
32.4(31) . . .
30.7(28) . . .
30.5(29) . . .
27.7(28) . . .
30.3(31) . . .
30.8(31) . . .
24.1(27) . . .
32.9(30) . . .
29.1(29) . . .
33.9(33) . . .
25.9(27) . . .
25.8(27) . . .
30.1(28) . . .
25.7(27) . . .
32.2(29) . . .
35.5(31) . . .
30.1(31) . . .
30.1(29) . . .
27.6(28) . . .
28.3(30) . . .
26.8(29) . . .
27.1(27) . . .
34.1(30) . . .
32.7(30) . . .
31.4(31) . . .
31.2(31) . . .
30.8(29) . . .
33.6(30) . . .
30.9(31) . . .
27.3(27) . . .
32.3(33) . . .
28.3(28) . . .
29.5(28) . . .
33.2(31) . . .
32.5(32) . . .
27.0(28) . . .
31.9(30) . . .
23.4(25) . . .
26.6(27) . . .
26.0(27) . . .
30.6(29) . . .
34.0(31) . . .
27.4(27) . . .
26.2(30) . . .
29.0(31) . . .
35.6(34) . . .
32.1(30) . . .
27.2(27) . . .
30.4(29) . . .
30.5(31) . . .
32.2(30) . . .
30.4(29) . . .
30.9(30) . . .
38(4) . . .
24.5(27) . . .
22.2(25) . . .
29.0(28) . . .
29.9(28) . . .
35.2(32) . . .
36.0(33) . . .
30.9(29) . . .
27.5(27) . . .
33.0(31) . . .
30.6(29) . . .
31.4(30) . . .
24.3(27) . . .
26.1(26) . . .
20.7(25) . . .
32.7(31) . . .
26.4(28) . . .
27.8(28) . . .
30.5(29) . . .
29.6(29) . . .
25.6(29) . . .
27.1(28) . . .
29.7(28) . . .
27.6(27) . . .
32.1(32) . . .
36.3(34) . . .
20.0(24) . . .
27.8(28) . . .
30.5(29) . . .
29.8(29) . . .
26.8(29) . . .
26.8(29) . . .
25.0(27) . . .
36.5(32) . . .
29.6(29) . . .
24.7(26) . . .
28.4(28) . . .
28.7(28) . . .
28.0(28) . . .
25.3(28) . . .
31.2(32) . . .
30.5(33) . . .
27.5(27) . . .
32.6(31) . . .
26.3(27) . . .
28.4(31) . . .
34.0(33) . . .
26.3(27) . . .
32.4(30) . . .
30.8(30) . . .
32.2(32) . . .
28.7(29) . . .
23.4(26) . . .
32.0(30) . . .
28.3(28) . . .
31.3(31) . . .
30.5(31) . . .
26.2(27) . . .
27.7(27) . . .
33.1(31) . . .
26.0(26) . . .
32.0(30) . . .
32.8(29) . . .
21.5(25) . . .
23.4(26) . . .
28.1(29) . . .
31.4(30) . . .
29.5(28) . . .
34.6(31) . . .
33.3(30) . . .
26.6(28) . . .
35(4) . . .
32.3(30) . . .
33.1(31) . . .
32.4(32) . . .
30.4(33) . . .
31.3(31) . . .
29.4(29) . . .
25.4(28) . . .
32.4(32) . . .
29.5(31) . . .
34.0(31) . . .
28.4(28) . . .
24.5(26) . . .
32.6(32) . . .
27.2(30) . . .
32.0(30) . . .
26.2(28) . . .
30.4(29) . . .
25.3(26) . . .
29.5(30) . . .
32.5(30) . . .
27.9(27) . . .
31.5(32) . . .
23.0(27) . . .
26.5(27) . . .
31.3(29) . . .
35.6(31) . . .
23.2(25) . . .
30.9(32) . . .
26.9(31) . . .
30.0(28) . . .
25.6(26) . . .
22.8(26) . . .
33.8(33) . . .
31.0(30) . . .
33.4(30) . . .
21.1(24) . . .
25.7(26) . . .
33.3(33) . . .
28.3(33) . . .
26.2(27) . . .
26.2(26) . . .
31.5(30) . . .
32.4(31) . . .
28.9(31) . . .
20.4(25) . . .
31.6(30) . . .
36.8(32) . . .
34.2(31) . . .
30.0(29) . . .
28.5(28) . . .
31.8(31) . . .
32.3(32) . . .
28.3(30) . . .
27.2(29) . . .
39.7(33) . . .
38.8(33) . . .
28.2(27) . . .
33.2(31) . . .
31.4(33) . . .
29.3(29) . . .
27.6(28) . . .
38(4) . . .
24.5(26) . . .
26.1(27) . . .
33.9(31) . . .
25.2(27) . . .
26.5(30) . . .
31.2(30) . . .
24.8(26) . . .
26.6(27) . . .
29.7(29) . . .
33.4(31) . . .
30.7(31) . . .
27.9(28) . . .
28.9(28) . . .
24.5(27) . . .
26.3(29) . . .
30.7(30) . . .
27.2(27) . . .
30.5(29) . . .
35.4(32) . . .
32.0(32) . . .
32.7(31) . . .
26.8(27) . . .
27.3(27) . . .
33.5(30) . . .
33.7(32) . . .
31.3(29) . . .
23.5(26) . . .
26.2(26) . . .
21.2(23) . . .
25.2(28) . . .
35.3(33) . . .
30.3(29) . . .
28.2(29) . . .
31.4(30) . . .
38.2(34) . . .
33.5(33) . . .
32.1(30) . . .
25.6(26) . . .
36(4) . . .
26.1(27) . . .
26.4(27) . . .
28.8(28) . . .
27.8(29) . . .
26.8(27) . . .
33.1(32) . . .
30.1(30) . . .
31.5(29) . . .
33.4(31) . . .
34.4(32) . . .
35.2(33) . . .
24.0(26) . . .
25.5(27) . . .
31.0(29) . . .
34.5(32) . . .
27.9(29) . . .
28.6(28) . . .
25.6(27) . . .
28.9(31) . . .
28.4(31) . . .
31.1(29) . . .
32.4(30) . . .
29.9(29) . . .
26.0(26) . . .
28.4(30) . . .
19.8(24) . . .
30.0(29) . . .
26.2(26) . . .
30.8(29) . . .
37.3(34) . . .
26.6(27) . . .
27.5(28) . . .
28.0(28) . . .
22.6(26) . . .
27.1(29) . . .
30.3(29) . . .
31.4(29) . . .
31.0(29) . . .
35.2(33) . . .
34.0(32) . . .
24.6(26) . . .
26.9(27) . . .
23.7(26) . . .
26.9(29) . . .
25.7(29) . . .
23.1(25) . . .
32.9(31) . . .
34.7(31) . . .
34.0(31) . . .
34.1(31) . . .
28.9(29) . . .
24.7(26) . . .
31.3(31) . . .
43(4) . . .
28.8(28) . . .
22.5(24) . . .
27.4(27) . . .
33.2(31) . . .
35.5(33) . . .
29.2(28) . . .
31.4(29) . . .
26.7(27) . . .
33.5(32) . . .
34.1(32) . . .
25.4(27) . . .
30.5(30) . . .
26.1(26) . . .
29.4(29) . . .
23.5(25) . . .
34.0(31) . . .
30.1(29) . . .
31.0(30) . . .
30.7(29) . . .
41(4) . . .
30.0(30) . . .
28.4(29) . . .
30.4(29) . . .
29.5(29) . . .
30.0(30) . . .
29.4(29) . . .
30.1(28) . . .
31.3(29) . . .
30.4(29) . . .
29.6(31) . . .
25.5(30) . . .
20.4(24) . . .
26.8(27) . . .
30.2(29) . . .
35.6(32) . . .
33.8(30) . . .
37.4(31) . . .
24.2(26) . . .
30.7(32) . . .
33.8(33) . . .
31.7(30) . . .
24.3(26) . . .
35.1(32) . . .
28.2(29) . . .
26.0(28) . . .
30.8(32) . . .
25.6(28) . . .
32.7(31) . . .
28.3(29) . . .
28.5(29) . . .
23.1(26) . . .
19.8(24) . . .
31.6(29) . . .
26.9(26) . . .
30.3(29) . . .
36.6(31) . . .
31.8(31) . . .
29.4(29) . . .
31.4(31) . . .
28.0(28) . . .
38.1(32) . . .
32.6(30) . . .
18.9(22) . . .
27.3(28) . . .
25.6(27) . . .
26.4(27) . . .
23.5(25) . . .
21.0(24) . . .
33.8(32) . . .
32.0(29) . . .
28.4(28) . . .
23.5(25) . . .
21.4(27) . . .
39(4) . . .
30.4(31) . . .
30.8(31) . . .
26.1(26) . . .
27.3(30) . . .
34(4) . . .
38(4) . . .
21.3(24) . . .
28.0(28) . . .
30.5(31) . . .
29.3(30) . . .
37.9(32) . . .
31.3(29) . . .
30.5(30) . . .
27.3(29) . . .
27.1(28) . . .
37.2(33) . . .
32.0(30) . . .
32.9(30) . . .
32.8(30) . . .
32.8(31) . . .
31.0(32) . . .
30.5(29) . . .
36.3(32) . . .
37.3(34) . . .
24.5(26) . . .
30.0(30) . . .
27.4(28) . . .
27.0(30) . . .
27.7(30) . . .
30.9(31) . . .
31.5(29) . . .
34.4(30) . . .
33.0(30) . . .
28.5(28) . . .
29.4(28) . . .
31.9(31) . . .
35.8(32) . . .
26.3(27) . . .
32.3(33) . . .
30.7(28) . . .
30.8(29) . . .
31.4(29) . . .
35.9(34) . . .
28.3(30) . . .
42(4) . . .
32.7(30) . . .
29.5(28) . . .
29.3(29) . . .
24.1(27) . . .
30.1(28) . . .
26.9(27) . . .
34.5(31) . . .
32.5(31) . . .
26.6(30) . . .
34.8(32) . . .
28.6(28) . . .
27.7(27) . . .
28.5(29) . . .
37.4(35) . . .
29.1(28) . . .
29.5(28) . . .
28.4(28) . . .
29.5(30) . . .
32.9(33) . . .
32.1(33) . . .
31.2(29) . . .
33.6(31) . . .
28.7(31) . . .
26.9(30) . . .
30.6(33) . . .
30.5(28) . . .
27.6(27) . . .
25.8(27) . . .
32.5(32) . . .
24.0(26) . . .
21.6(26) . . .
32.7(31) . . .
27.8(28) . . .
27.1(28) . . .
27.4(28) . . .
33.5(30) . . .
29.7(29) . . .
30.5(31) . . .
31.3(31) . . .
29.4(28) . . .
25.8(27) . . .
25.6(27) . . .
37(4) . . .
26.5(27) . . .
34.1(32) . . .
30.1(29) . . .
29.8(28) . . .
29.3(30) . . .
24.1(26) . . .
26.1(26) . . .
27.5(27) . . .
29.5(29) . . .
33.3(33) . . .
23.8(26) . . .
24.6(26) . . .
28.4(28) . . .
18.5(22) . . .
32.3(32) . . .
32.0(30) . . .
27.5(27) . . .
34.3(31) . . .
33.8(31) . . .
27.4(31) . . .
22.0(26) . . .
25.8(26) . . .
31.1(31) . . .
23.8(25) . . .
26.5(28) . . .
28.0(30) . . .
31.3(29) . . .
27.5(28) . . .
27.3(28) . . .
33.5(34) . . .
32.5(31) . . .
31.9(30) . . .
39.1(34) . . .
24.5(25) . . .
34.8(32) . . .
25.9(26) . . .
24.8(26) . . .
30.0(30) . . .
30.1(29) . . .
32.3(31) . . .
27.2(28) . . .
30.9(29) . . .
25.0(27) . . .
30.5(33) . . .
26.7(29) . . .
32.7(30) . . .
39.1(33) . . .
31.8(30) . . .
30.1(30) . . .
36.2(35) . . .
23.9(26) . . .
20.6(24) . . .
24.4(28) . . .
32.4(33) . . .
21.7(23) . . .
34.0(31) . . .
27.4(27) . . .
30.5(31) . . .
26.9(31) . . .
30.8(31) . . .
28.5(28) . . .
28.7(28) . . .
24.4(26) . . .
28.2(30) . . .
30.4(31) . . .
32.0(30) . . .
36.0(31) . . .
28.4(27) . . .
32.6(33) . . .
26.9(28) . . .
32.3(30) . . .
31.6(29) . . .
28.0(29) . . .
26.6(28) . . .
33.7(32) . . .
22.3(24) . . .
20.6(24) . . .
30.9(33) . . .
28.7(29) . . .
25.2(28) . . .
27.0(27) . . .
32.2(32) . . .
20.9(23) . . .
29.1(29) . . .
28.2(28) . . .
29.2(27) . . .
28.6(28) . . .
30.8(29) . . .
29.3(28) . . .
32.1(30) . . .
26.3(26) . . .
31.0(30) . . .
35.1(33) . . .
30.7(30) . . .
36.2(33) . . .
26.6(27) . . .
37.8(35) . . .
39(4) . . .
36.5(32) . . .
34.3(31) . . .
28.8(28) . . .
24.7(28) . . .
23.8(27) . . .
24.0(26) . . .
29.6(29) . . .
27.8(28) . . .
23.7(25) . . .
37.9(34) . . .
32.8(32) . . .
33.6(31) . . .
33.4(30) . . .
22.2(24) . . .
30.6(31) . . .
29.7(29) . . .
37.6(32) . . .
33.9(30) . . .
22.2(24) . . .
31.5(31) . . .
28.9(28) . . .
24.2(26) . . .
31.2(29) . . .
27.8(29) . . .
20.1(24) . . .
29.9(31) . . .
29.9(29) . . .
27.5(29) . . .
26.6(27) . . .
19.2(22) . . .
29.3(29) . . .
22.8(26) . . .
34.3(30) . . .
27.7(28) . . .
29.0(31) . . .
28.5(29) . . .
22.5(25) . . .
31.0(30) . . .
30.4(28) . . .
37.1(33) . . .
33.3(30) . . .
34.3(30) . . .
29.4(29) . . .
38.2(33) . . .
40.3(35) . . .
22.8(26) . . .
21.2(24) . . .
31.6(32) . . .
33.3(32) . . .
34.8(31) . . .
28.7(28) . . .
35.8(31) . . .
32.2(30) . . .
31.4(31) . . .
33.7(32) . . .
25.9(27) . . .
29.0(28) . . .
33.1(30) . . .
25.8(28) . . .
27.6(30) . . .
25.8(27) . . .
29.7(28) . . .
23.3(26) . . .
33.5(35) . . .
26.5(27) . . .
26.6(27) . . .
27.8(27) . . .
28.1(29) . . .
25.1(28) . . .
33.6(32) . . .
32.4(30) . . .
31.9(29) . . .
29.8(29) . . .
30.5(31) . . .
29.5(31) . . .
35.3(31) . . .
30.9(29) . . .
35.4(32) . . .
27.0(27) . . .
33.4(32) . . .
25.3(27) . . .
34.5(32) . . .
26.7(26) . . .
28.0(29) . . .
25.6(28) . . .
26.1(27) . . .
33.6(30) . . .
32.1(32) . . .
25.3(26) . . .
27.3(27) . . .
29.7(28) . . .
33.5(33) . . .
24.1(26) . . .
29.3(30) . . .
27.2(27) . . .
37.0(31) . . .
35.6(33) . . .
28.9(31) . . .
34.1(33) . . .
27.5(27) . . .
31.8(29) . . .
32.4(30) . . .
28.0(29) . . .
23.5(25) . . .
29.9(28) . . .
30.6(29) . . .
30.0(29) . . .
29.2(29) . . .
27.2(29) . . .
30.5(30) . . .
25.7(26) . . .
20.6(25) . . .
28.9(31) . . .
33.0(31) . . .
27.8(28) . . .
30.9(29) . . .
31.9(30) . . .
35.9(33) . . .
35.5(33) . . .
25.1(26) . . .
28.5(28) . . .
30.1(29) . . .
28.3(30) . . .
28.0(30) . . .
26.5(28) . . .
24.2(25) . . .
30.5(32) . . .
33.7(33) . . .
31.4(30) . . .
26.5(27) . . .
29.7(31) . . .
28.8(29) . . .
28.8(29) . . .
23.6(26) . . .
33.3(29) . . .
32.9(30) . . .
28.9(29) . . .
26.9(28) . . .
28.3(30) . . .
32.7(30) . . .
20.9(24) . . .
30.3(31) . . .
31.6(30) . . .
27.0(29) . . .
20.5(24) . . .
37(4) . . .
27.8(29) . . .
38(4) . . .
26.8(28) . . .
35.2(31) . . .
30.1(30) . . .
26.2(27) . . .
29.8(28) . . .
35.6(35) . . .
25.5(26) . . .
35.3(32) . . .
35.0(32) . . .
33.2(31) . . .
30.6(29) . . .
28.7(28) . . .
35.5(33) . . .
27.4(30) . . .
31.8(31) . . .
28.4(28) . . .
22.6(24) . . .
30.7(29) . . .
32.9(30) . . .
25.4(28) . . .
22.1(24) . . .
31.5(29) . . .
26.2(27) . . .
24.0(26) . . .
27.8(27) . . .
32.3(29) . . .
31.0(29) . . .
25.3(25) . . .
30.1(30) . . .
30.0(29) . . .
33.4(30) . . .
30.9(30) . . .
30.3(29) . . .
30.1(31) . . .
25.7(27) . . .
33.8(30) . . .
28.1(29) . . .
27.9(29) . . .
25.1(27) . . .
35.2(33) . . .
24.8(26) . . .
32.8(31) . . .
34.9(31) . . .
41(4) . . .
32.3(30) . . .
29.9(28) . . .
22.3(26) . . .
24.3(28) . . .
26.0(28) . . .
25.0(28) . . .
26.8(27) . . .
19.6(23) . . .
24.1(28) . . .
36.9(35) . . .
36.1(32) . . .
31.5(29) . . .
32.9(31) . . .
29.6(28) . . .
37.3(32) . . .
36.0(31) . . .
35.4(31) . . .
39.5(35) . . .
31.7(30) . . .
22.7(25) . . .
27.9(27) . . .
28.9(28) . . .
30.2(30) . . .
38(4) . . .
23.5(25) . . .
25.6(27) . . .
28.1(28) . . .
30.7(29) . . .
33.8(31) . . .
29.4(29) . . .
23.2(25) . . .
21.9(25) . . .
25.6(28) . . .
28.8(31) . . .
24.3(26) . . .
33.9(31) . . .
28.7(28) . . .
22.7(26) . . .
30.0(32) . . .
24.3(25) . . .
24.7(26) . . .
28.9(29) . . .
32.3(30) . . .
25.6(29) . . .
25.0(26) . . .
33.7(30) . . .
34.0(31) . . .
29.9(30) . . .
24.2(26) . . .
26.5(26) . . .
29.9(28) . . .
28.8(28) . . .
18.7(25) . . .
26.6(30) . . .
27.2(27) . . .
26.2(27) . . .
28.8(28) . . .
28.2(29) . . .
27.9(28) . . .
34.2(30) . . .
26.4(27) . . .
38(4) . . .
28.0(27) . . .
31.2(30) . . .
28.2(28) . . .
30.4(29) . . .
22.4(27) . . .
23.2(27) . . .
21.6(26) . . .
25.0(26) . . .
26.3(27) . . .
25.0(26) . . .
30.1(34) . . .
33.2(32) . . .
36.1(32) . . .
26.8(27) . . .
30.2(29) . . .
28.5(29) . . .
32.0(32) . . .
22.0(24) . . .
31.7(29) . . .
26.3(27) . . .
29.9(32) . . .
30.6(32) . . .
27.8(27) . . .
28.5(28) . . .
29.0(28) . . .
30.3(31) . . .
32.3(30) . . .
27.3(28) . . .
31.3(30) . . .
26.7(31) . . .
22.6(25) . . .
31.4(30) . . .
26.7(27) . . .
35.8(32) . . .
32.2(31) . . .
31.7(30) . . .
30.2(29) . . .
24.6(26) . . .
23.6(26) . . .
25.1(27) . . .
29.3(31) . . .
25.4(28) . . .
31.5(29) . . .
34.5(32) . . .
29.0(29) . . .
35.5(32) . . .
39.3(35) . . .
27.0(27) . . .
25.4(28) . . .
21.1(25) . . .
28.0(28) . . .
31.4(30) . . .
28.0(28) . . .
30.0(30) . . .
15.9(20) . . .
25.3(27) . . .
24.3(26) . . .
25.7(27) . . .
26.9(27) . . .
30.5(32) . . .
30.5(30) . . .
27.8(28) . . .
35.5(31) . . .
28.9(28) . . .
27.7(29) . . .
27.9(29) . . .
25.0(26) . . .
28.1(28) . . .
32.3(32) . . .
28.8(28) . . .
30.6(28) . . .
30.9(29) . . .
33.4(31) . . .
29.6(31) . . .
23.0(27) . . .
35.5(32) . . .
32.3(30) . . .
27.1(27) . . .
21.7(24) . . .
33.7(33) . . .
27.0(30) . . .
24.8(26) . . .
31.6(30) . . .
26.9(29) . . .
32.9(33) . . .
27.7(31) . . .
21.6(24) . . .
18.3(24) . . .
30.4(30) . . .
30.0(30) . . .
24.4(28) . . .
28.8(28) . . .
26.2(27) . . .
29.8(30) . . .
29.1(30) . . .
28.5(29) . . .
27.9(27) . . .
29.2(31) . . .
35(4) . . .
34.2(32) . . .
39.2(32) . . .
33.0(31) . . .
26.9(28) . . .
27.0(27) . . .
39(4) . . .
31.9(29) . . .
33.9(31) . . .
22.3(25) . . .
23.0(27) . . .
23.5(26) . . .
25.0(27) . . .
36.6(33) . . .
25.6(27) . . .
30.6(31) . . .
34.5(30) . . .
31.7(29) . . .
27.0(27) . . .
26.4(27) . . .
26.5(29) . . .
24.3(27) . . .
26.6(27) . . .
27.8(28) . . .
29.6(31) . . .
24.1(26) . . .
35.2(32) . . .
30.1(28) . . .
23.5(25) . . .
39(4) . . .
30.0(29) . . .
27.5(28) . . .
28.3(28) . . .
27.1(27) . . .
24.6(26) . . .
24.6(26) . . .
23.7(26) . . .
26.1(27) . . .
26.0(29) . . .
33.6(33) . . .
34.2(32) . . .
28.6(29) . . .
33.2(29) . . .
26.9(27) . . .
33.9(34) . . .
33.1(32) . . .
27.7(29) . . .
27.6(28) . . .
28.0(29) . . .
27.9(28) . . .
26.4(28) . . .
21.6(25) . . .
32.8(30) . . .
24.7(27) . . .
24.5(26) . . .
30.8(32) . . .
30.0(30) . . .
25.4(27) . . .
24.4(26) . . .
26.3(28) . . .
21.9(25) . . .
22.5(25) . . .
29.3(29) . . .
26.4(27) . . .
30.8(30) . . .
25.4(27) . . .
34.3(31) . . .
32.6(29) . . .
30.8(30) . . .
28.9(30) . . .
23.7(27) . . .
32.1(30) . . .
29.1(29) . . .
23.3(28) . . .
27.2(29) . . .
29.3(28) . . .
26.5(27) . . .
24.8(26) . . .
28.6(28) . . .
29.7(31) . . .
34.0(35) . . .
33.3(30) . . .
28.9(28) . . .
30.9(31) . . .
28.3(27) . . .
37.6(32) . . .
34.7(31) . . .
32.3(31) . . .
33.4(32) . . .
29.1(29) . . .
35.2(34) . . .
24.2(26) . . .
27.6(30) . . .
36.5(33) . . .
31.8(29) . . .
28.4(27) . . .
36.4(31) . . .
26.9(28) . . .
29.1(30) . . .
30.1(31) . . .
30.7(31) . . .
32.4(29) . . .
28.7(28) . . .
31.7(30) . . .
36.1(33) . . .
33.9(31) . . .
34.0(31) . . .
23.1(27) . . .
28.9(34) . . .
22.5(24) . . .
31.3(29) . . .
30.1(29) . . .
39.0(34) . . .
32.3(31) . . .
31.8(32) . . .
26.7(27) . . .
25.5(26) . . .
27.0(28) . . .
27.4(30) . . .
28.0(28) . . .
30.8(29) . . .
17.9(23) . . .
33.5(34) . . .
23.6(24) . . .
31.5(31) . . .
30.5(29) . . .
27.6(29) . . .
29.8(30) . . .
28.2(30) . . .
26.9(27) . . .
44.0(34) . . .
28.6(29) . . .
29.9(29) . . .
27.5(28) . . .
30.4(29) . . .
30.6(29) . . .
23.9(26) . . .
27.9(28) . . .
24.9(28) . . .
26.4(28) . . .
30.8(29) . . .
31.0(29) . . .
29.5(33) . . .
31.4(32) . . .
22.6(25) . . .
30.7(29) . . .
32.6(31) . . .
25.8(29) . . .
27.3(31) . . .
26.6(28) . . .
30.8(29) . . .
27.9(28) . . .
29.3(29) . . .
30.5(28) . . .
30.1(28) . . .
27.5(28) . . .
28.5(28) . . .
42.1(35) . . .
34.0(30) . . .
37.4(32) . . .
21.3(24) . . .
28.8(31) . . .
32.0(32) . . .
29.7(30) . . .
27.4(27) . . .
24.2(25) . . .
27.2(28) . . .
30.5(31) . . .
24.3(26) . . .
30.1(29) . . .
26.6(26) . . .
26.8(29) . . .
23.5(28) . . .
21.0(24) . . .
25.2(27) . . .
26.0(27) . . .
24.2(26) . . .
32.6(33) . . .
25.4(27) . . .
25.4(26) . . .
29.8(30) . . .
18.5(25) . . .
28.4(31) . . .
29.3(30) . . .
40.0(33) . . .
30.0(30) . . .
25.7(28) . . .
26.0(28) . . .
37.5(32) . . .
38.6(32) . . .
30.7(29) . . .
33.0(31) . . .
22.6(25) . . .
22.6(26) . . .
23.2(25) . . .
21.3(24) . . .
28.5(30) . . .
37.9(34) . . .
29.7(29) . . .
23.9(26) . . .
31.7(32) . . .
33.0(31) . . .
33.8(31) . . .
29.8(29) . . .
30.3(29) . . .
33.0(31) . . .
26.8(28) . . .
24.1(26) . . .
27.2(27) . . .
24.8(26) . . .
31.3(29) . . .
28.4(30) . . .
34.3(33) . . .
22.4(24) . . .
34.1(31) . . .
31.0(31) . . .
30.6(32) . . .
31.3(30) . . .
34.7(30) . . .
24.4(26) . . .
31.5(30) . . .
32.3(33) . . .
26.1(29) . . .
22.2(24) . . .
21.7(24) . . .
29.4(30) . . .
24.2(25) . . .
31.5(30) . . .
30.3(29) . . .
26.8(28) . . .
23.6(27) . . .
25.9(28) . . .
32.5(34) . . .
21.3(25) . . .
20.0(23) . . .
35.5(32) . . .
32.2(31) . . .
34.2(32) . . .
27.4(28) . . .
34.2(31) . . .
29.7(28) . . .
29.5(29) . . .
25.6(26) . . .
28.1(28) . . .
30.9(30) . . .
30.0(31) . . .
28.6(32) . . .
29.9(30) . . .
37.0(32) . . .
31.9(31) . . .
24.7(27) . . .
31.7(31) . . .
29.0(28) . . .
28.6(28) . . .
27.5(28) . . .
35.5(34) . . .
28.9(30) . . .
24.1(26) . . .
30.2(29) . . .
33.5(31) . . .
31.5(32) . . .
28.1(27) . . .
26.9(27) . . .
26.3(26) . . .
26.4(29) . . .
28.2(31) . . .
25.3(27) . . .
31.9(31) . . .
24.3(26) . . .
25.2(27) . . .
28.2(30) . . .
37.2(32) . . .
28.7(28) . . .
31.7(29) . . .
31.3(31) . . .
34.6(34) . . .
31.0(30) . . .
22.5(25) . . .
23.1(25) . . .
31.7(30) . . .
27.0(28) . . .
25.5(27) . . .
31.4(29) . . .
36.3(32) . . .
27.0(27) . . .
25.1(26) . . .
24.2(26) . . .
29.5(29) . . .
29.2(29) . . .
27.1(30) . . .
19.9(24) . . .
27.4(28) . . .
23.6(25) . . .
25.8(28) . . .
19.8(24) . . .
35(4) . . .
30.5(29) . . .
29.2(28) . . .
33.4(30) . . .
28.3(30) . . .
25.8(29) . . .
39.4(34) . . .
25.2(26) . . .
32.4(31) . . .
31.5(31) . . .
30.4(31) . . .
30.2(28) . . .
33.9(31) . . .
27.1(27) . . .
37.9(33) . . .
33.9(31) . . .
21.8(24) . . .
33.5(30) . . .
30.2(30) . . .
27.1(29) . . .
36.5(33) . . .
32.6(29) . . .
26.1(27) . . .
24.8(27) . . .
25.3(27) . . .
23.3(25) . . .
30.7(29) . . .
30.5(29) . . .
22.9(26) . . .
26.3(30) . . .
25.6(27) . . .
27.7(27) . . .
29.3(28) . . .
31.6(31) . . .
29.9(32) . . .
30.9(29) . . .
28.2(28) . . .
28.5(28) . . .
27.1(29) . . .
30.0(31) . . .
30.8(30) . . .
23.8(26) . . .
27.8(27) . . .
28.4(29) . . .
26.5(29) . . .
23.8(26) . . .
24.3(26) . . .
31.1(29) . . .
28.3(30) . . .
31.9(32) . . .
25.5(27) . . .
30.4(29) . . .
29.5(29) . . .
29.7(28) . . .
31.9(31) . . .
34.8(32) . . .
30.4(29) . . .
35.5(32) . . .
35.5(34) . . .
28.4(28) . . .
29.8(29) . . .
28.5(28) . . .
26.6(27) . . .
27.2(27) . . .
30.5(31) . . .
24.6(28) . . .
25.7(27) . . .
29.0(30) . . .
21.3(25) . . .
29.2(30) . . .
25.3(26) . . .
30.1(28) . . .
37.6(33) . . .
30.0(29) . . .
31.5(30) . . .
34.2(31) . . .
26.0(26) . . .
31.5(29) . . .
27.1(28) . . .
28.4(29) . . .
37.3(32) . . .
31.9(30) . . .
29.1(31) . . .
26.5(27) . . .
30.6(29) . . .
28.2(29) . . .
38.3(33) . . .
35.7(33) . . .
29.9(30) . . .
25.3(28) . . .
26.8(27) . . .
30.9(29) . . .
25.8(28) . . .
24.8(27) . . .
25.2(26) . . .
32.9(30) . . .
29.2(29) . . .
25.1(27) . . .
30.0(29) . . .
28.7(27) . . .
30.0(29) . . .
31.7(30) . . .
31.7(30) . . .
24.7(26) . . .
28.9(29) . . .
26.5(27) . . .
31.9(30) . . .
30.2(30) . . .
25.4(27) . . .
21.8(25) . . .
24.5(26) . . .
28.0(28) . . .
28.4(31) . . .
26.7(28) . . .
26.1(30) . . .
31.6(28) . . .
26.7(29) . . .
32.9(33) . . .
36.7(33) . . .
24.2(26) . . .
25.1(26) . . .
33.8(32) . . .
31.8(31) . . .
25.0(27) . . .
25.3(26) . . .
27.6(28) . . .
30.8(33) . . .
29.0(30) . . .
31.5(29) . . .
33.7(30) . . .
33.6(30) . . .
32.2(31) . . .
30.0(29) . . .
36.1(34) . . .
34.0(31) . . .
25.5(27) . . .
23.4(26) . . .
24.0(27) . . .
33.0(31) . . .
29.0(28) . . .
26.7(28) . . .
27.7(28) . . .
31.4(32) . . .
26.1(27) . . .
28.2(28) . . .
27.8(29) . . .
27.6(28) . . .
32.3(31) . . .
26.5(27) . . .
31.2(29) . . .
27.0(29) . . .
18.0(24) . . .
28.2(32) . . .
29.0(30) . . .
27.5(28) . . .
32.7(32) . . .
25.9(27) . . .
24.9(27) . . .
28.1(27) . . .
32.8(31) . . .
24.4(27) . . .
33.5(33) . . .
29.5(28) . . .
31.9(29) . . .
22.9(25) . . .
24.8(27) . . .
21.0(25) . . .
28.9(31) . . .
24.9(26) . . .
31.0(29) . . .
33.8(31) . . .
25.1(27) . . .
27.9(29) . . .
34.0(30) . . .
28.0(27) . . .
32.5(31) . . .
26.7(28) . . .
32.4(32) . . .
24.3(26) . . .
29.1(28) . . .
29.4(28) . . .
28.0(28) . . .
31.8(30) . . .
18.8(24) . . .
27.7(28) . . .
29.5(30) . . .
26.5(27) . . .
31.7(31) . . .
25.2(28) . . .
27.1(28) . . .
36.6(34) . . .
27.6(29) . . .
21.9(24) . . .
20.1(24) . . .
25.0(26) . . .
29.1(29) . . .
31.1(32) . . .
26.7(31) . . .
22.9(25) . . .
35.7(31) . . .
29.4(31) . . .
26.7(28) . . .
28.1(29) . . .
28.7(28) . . .
32.9(31) . . .
33.3(32) . . .
32.7(32) . . .
28.6(28) . . .
25.7(27) . . .
35.9(33) . . .
31.2(30) . . .
36.3(33) . . .
31.7(31) . . .
37.4(32) . . .
29.2(30) . . .
24.3(29) . . .
22.6(27) . . .
24.6(26) . . .
37.3(32) . . .
22.1(25) . . .
44(4) . . .
26.9(28) . . .
26.9(28) . . .
22.6(25) . . .
23.5(26) . . .
27.5(31) . . .
33.6(31) . . .
23.8(26) . . .
27.7(28) . . .
29.0(29) . . .
27.6(30) . . .
29.4(29) . . .
31.8(30) . . .
23.8(25) . . .
26.0(27) . . .
31.1(31) . . .
22.7(25) . . .
22.4(24) . . .
24.0(27) . . .
34.3(32) . . .
28.5(29) . . .
31.3(33) . . .
33.6(30) . . .
25.1(27) . . .
30.2(29) . . .
24.9(26) . . .
29.8(30) . . .
30.4(28) . . .
29.8(29) . . .
27.5(30) . . .
34.9(33) . . .
33.7(31) . . .
35.0(31) . . .
31.0(29) . . .
28.7(29) . . .
29.5(29) . . .
31.5(29) . . .
33.5(30) . . .
23.3(25) . . .
26.1(28) . . .
30.3(28) . . .
31.2(30) . . .
27.8(27) . . .
31.7(32) . . .
36(4) . . .
36.7(33) . . .
29.6(28) . . .
27.8(27) . . .
28.4(28) . . .
27.8(30) . . .
21.4(24) . . .
28.8(28) . . .
34.1(30) . . .
28.8(28) . . .
28.9(30) . . .
22.0(24) . . .
23.7(26) . . .
24.6(26) . . .
28.9(28) . . .
26.5(29) . . .
22.8(26) . . .
29.6(28) . . .
32.1(29) . . .
25.5(26) . . .
30.8(30) . . .
32.2(32) . . .
32.5(30) . . .
29.5(29) . . .
26.2(29) . . .
27.4(29) . . .
24.7(28) . . .
31.6(30) . . .
30.0(29) . . .
24.9(27) . . .
28.5(31) . . .
27.4(28) . . .
28.8(28) . . .
22.7(26) . . .
29.3(30) . . .
30.1(30) . . .
35.9(31) . . .
27.4(27) . . .
26.8(28) . . .
35.2(35) . . .
30.2(31) . . .
23.0(25) . . .
26.5(27) . . .
18.1(22) . . .
27.9(29) . . .
37.0(33) . . .
25.7(26) . . .
29.8(28) . . .
24.0(26) . . .
29.9(30) . . .
29.3(30) . . .
34.3(30) . . .
38.9(33) . . .
27.5(30) . . .
20.1(25) . . .
26.2(29) . . .
29.5(28) . . .
24.0(25) . . .
29.8(28) . . .
30.9(31) . . .
29.0(29) . . .
29.9(28) . . .
25.9(26) . . .
21.5(24) . . .
21.0(25) . . .
32.2(30) . . .
36.4(32) . . .
28.0(28) . . .
29.0(29) . . .
24.5(26) . . .
34.8(32) . . .
28.3(28) . . .
33.7(31) . . .
24.3(26) . . .
30.7(30) . . .
28.1(28) . . .
33.8(30) . . .
30.9(29) . . .
26.8(30) . . .
33.2(34) . . .
27.8(28) . . .
27.4(27) . . .
27.1(27) . . .
28.4(28) . . .
34.8(33) . . .
29.4(28) . . .
23.1(25) . . .
22.7(26) . . .
22.2(26) . . .
38(4) . . .
36.1(32) . . .
28.5(28) . . .
33.9(30) . . .
33.4(33) . . .
30.2(29) . . .
26.2(26) . . .
28.2(28) . . .
23.9(28) . . .
25.4(28) . . .
32.0(30) . . .
34.9(31) . . .
28.7(28) . . .
37.0(34) . . .
23.9(27) . . .
29.2(29) . . .
35.0(31) . . .
33.9(31) . . .
34.3(32) . . .
21.4(23) . . .
28.1(28) . . .
24.0(26) . . .
32.9(30) . . .
25.7(28) . . .
35.7(33) . . .
27.7(28) . . .
31.4(29) . . .
23.6(25) . . .
23.3(26) . . .
28.0(30) . . .
27.8(28) . . .
24.2(26) . . .
30.4(29) . . .
30.0(29) . . .
32.5(32) . . .
31.7(33) . . .
24.5(26) . . .
24.0(26) . . .
29.5(31) . . .
27.2(30) . . .
28.8(29) . . .
34.0(31) . . .
36.8(32) . . .
23.6(25) . . .
30.4(31) . . .
22.9(27) . . .
29.5(28) . . .
26.9(29) . . .
24.8(26) . . .
30.5(30) . . .
28.4(28) . . .
28.1(28) . . .
33.2(32) . . .
24.5(27) . . .
28.1(29) . . .
31.1(30) . . .
23.1(25) . . .
36.0(34) . . .
35.6(34) . . .
30.1(30) . . .
31.8(30) . . .
30.7(28) . . .
27.8(28) . . .
32.2(32) . . .
32.4(30) . . .
26.4(27) . . .
32.0(29) . . .
30.6(31) . . .
22.1(25) . . .
32.3(30) . . .
30.3(29) . . .
22.1(24) . . .
29.2(30) . . .
24.9(27) . . .
26.3(28) . . .
30.6(29) . . .
38.2(32) . . .
30.4(30) . . .
32.2(32) . . .
27.1(27) . . .
37.2(32) . . .
29.2(28) . . .
36.3(34) . . .
25.5(27) . . .
23.1(25) . . .
29.7(29) . . .
28.4(28) . . .
18.2(22) . . .
28.2(29) . . .
30.1(30) . . .
29.0(28) . . .
31.3(31) . . .
30.8(31) . . .
23.8(25) . . .
27.9(30) . . .
28.1(28) . . .
25.7(27) . . .
26.7(29) . . .
27.5(27) . . .
24.9(26) . . .
27.8(28) . . .
22.9(25) . . .
40(4) . . .
37.6(34) . . .
27.3(28) . . .
27.2(27) . . .
25.4(26) . . .
28.8(30) . . .
34.2(33) . . .
23.1(26) . . .
29.7(28) . . .
30.0(30) . . .
30.6(30) . . .
31.0(29) . . .
27.7(27) . . .
25.3(26) . . .
28.2(29) . . .
29.2(30) . . .
36.1(32) . . .
34.1(30) . . .
32.6(30) . . .
31.7(29) . . .
33.7(33) . . .
30.0(30) . . .
34.2(31) . . .
34.0(31) . . .
34.9(31) . . .
24.6(26) . . .
26.2(28) . . .
30.4(30) . . .
33.6(30) . . .
31.4(31) . . .
27.4(30) . . .
27.9(29) . . .
31.9(29) . . .
29.2(28) . . .
23.5(25) . . .
26.2(29) . . .
23.8(25) . . .
23.5(25) . . .
26.8(27) . . .
30.7(28) . . .
30.4(30) . . .
27.2(29) . . .
23.9(26) . . .
30.1(29) . . .
29.7(28) . . .
37(4) . . .
23.3(27) . . .
34.3(30) . . .
21.6(25) . . .
26.4(28) . . .
34.3(30) . . .
33.3(30) . . .
27.1(28) . . .
27.0(27) . . .
25.8(29) . . .
28.5(28) . . .
30.4(28) . . .
32.6(30) . . .
37.8(32) . . .
36.4(31) . . .
28.8(28) . . .
40.8(34) . . .
28.3(28) . . .
29.5(28) . . .
21.8(25) . . .
29.6(30) . . .
23.3(26) . . .
32.4(30) . . .
28.4(29) . . .
29.3(31) . . .
28.2(29) . . .
30.8(29) . . .
26.0(27) . . .
27.7(28) . . .
26.8(28) . . .
31.4(30) . . .
27.2(28) . . .
35.6(32) . . .
25.9(27) . . .
25.8(29) . . .
32.5(33) . . .
27.0(27) . . .
28.5(28) . . .
25.9(27) . . .
30.2(30) . . .
32.3(30) . . .
21.8(25) . . .
25.3(27) . . .
32.3(30) . . .
34.7(32) . . .
27.1(28) . . .
27.1(27) . . .
26.4(29) . . .
27.4(28) . . .
30.1(29) . . .
33.3(30) . . .
27.8(28) . . .
25.7(27) . . .
30.3(29) . . .
23.6(26) . . .
34.3(32) . . .
27.1(28) . . .
28.9(30) . . .
26.7(28) . . .
27.4(29) . . .
26.8(29) . . .
29.3(28) . . .
30.8(31) . . .
29.1(30) . . .
27.2(29) . . .
24.9(27) . . .
31.8(29) . . .
34.4(32) . . .
24.1(28) . . .
28.7(29) . . .
30.6(28) . . .
32.4(30) . . .
24.8(26) . . .
25.8(29) . . .
25.4(30) . . .
25.8(27) . . .
27.0(27) . . .
25.0(26) . . .
28.8(32) . . .
35.9(34) . . .
30.5(29) . . .
28.9(28) . . .
31.2(30) . . .
28.4(30) . . .
22.8(25) . . .
25.6(26) . . .
19.1(23) . . .
32.9(32) . . .
39(4) . . .
29.0(28) . . .
30.6(29) . . .
34.6(31) . . .
33.7(31) . . .
26.9(29) . . .
30.9(31) . . .
26.1(27) . . .
32.5(30) . . .
23.5(26) . . .
33.0(32) . . .
33.0(30) . . .
27.3(27) . . .
35.4(32) . . .
27.4(29) . . .
29.7(30) . . .
30.6(29) . . .
24.8(26) . . .
26.4(27) . . .
30.1(32) . . .
21.8(24) . . .
26.5(27) . . .
29.3(28) . . .
31.4(31) . . .
26.1(28) . . .
35.0(32) . . .
27.2(27) . . .
30.0(29) . . .
29.4(29) . . .
22.8(27) . . .
32.4(32) . . .
25.4(26) . . .
31.2(29) . . .
32.2(30) . . .
26.8(30) . . .
29.6(30) . . .
27.8(28) . . .
22.6(26) . . .
29.7(30) . . .
32.3(31) . . .
31.7(30) . . .
30.4(29) . . .
32.5(30) . . .
27.3(30) . . .
24.9(29) . . .
24.5(27) . . .
29.7(28) . . .
33.7(31) . . .
23.7(26) . . .
31.5(33) . . .
31.8(32) . . .
29.4(28) . . .
27.6(27) . . .
20.2(23) . . .
18.3(22) . . .
31.1(29) . . .
33.3(30) . . .
31.8(30) . . .
24.3(26) . . .
29.1(29) . . .
28.6(28) . . .
31.4(29) . . .
45(4) . . .
26.1(27) . . .
23.7(27) . . .
26.2(28) . . .
32.2(30) . . .
31.8(30) . . .
34.9(34) . . .
23.2(25) . . .
27.2(27) . . .
30.0(30) . . .
32.1(30) . . .
29.1(28) . . .
35.3(32) . . .
34.7(31) . . .
30.4(28) . . .
34.2(32) . . .
30.2(31) . . .
28.0(28) . . .
32.1(29) . . .
23.9(26) . . .
31.2(30) . . .
23.4(27) . . .
34.4(35) . . .
31.0(29) . . .
29.5(28) . . .
39.2(34) . . .
23.9(27) . . .
28.0(30) . . .
30.8(30) . . .
27.4(27) . . .
21.5(25) . . .
25.8(30) . . .
28.0(31) . . .
30.3(29) . . .
27.2(27) . . .
32.7(30) . . .
29.6(30) . . .
26.3(28) . . .
30.9(29) . . .
28.2(28) . . .
29.0(29) . . .
28.6(30) . . .
29.8(30) . . .
28.6(28) . . .
35.7(31) . . .
30.8(30) . . .
26.0(27) . . .
26.8(27) . . .
27.6(28) . . .
26.9(27) . . .
33.5(33) . . .
35.7(33) . . .
26.2(28) . . .
29.3(28) . . .
33.0(32) . . .
33.8(31) . . .
30.7(30) . . .
31.3(30) . . .
27.3(27) . . .
38.9(35) . . .
29.6(29) . . .
26.0(27) . . .
28.6(28) . . .
30.3(28) . . .
29.0(29) . . .
24.8(25) . . .
30.7(29) . . .
30.5(29) . . .
32.6(30) . . .
37.1(34) . . .
22.9(26) . . .
27.1(27) . . .
29.3(28) . . .
30.9(29) . . .
27.1(27) . . .
29.4(29) . . .
29.4(30) . . .
26.5(27) . . .
26.3(26) . . .
26.8(28) . . .
25.2(27) . . .
30.6(31) . . .
29.2(29) . . .
30.2(29) . . .
31.2(30) . . .
25.6(26) . . .
29.0(28) . . .
29.0(28) . . .
28.9(29) . . .
30.4(29) . . .
25.5(26) . . .
26.7(28) . . .
24.5(26) . . .
21.6(24) . . .
24.4(27) . . .
28.4(29) . . .
31.0(30) . . .
28.5(29) . . .
28.5(28) . . .
32.3(32) . . .
26.3(27) . . .
20.8(24) . . .
25.7(27) . . .
31.2(30) . . .
27.4(27) . . .
29.4(28) . . .
30.8(31) . . .
26.9(27) . . .
24.5(27) . . .
26.1(30) . . .
32.4(30) . . .
30.8(30) . . .
23.5(26) . . .
33.8(31) . . .
36.9(34) . . .
25.9(26) . . .
22.0(25) . . .
25.5(27) . . .
29.2(30) . . .
34.5(33) . . .
31.7(29) . . .
30.4(29) . . .
31.4(29) . . .
27.2(26) . . .
21.8(25) . . .
31.9(32) . . .
22.9(25) . . .
30.0(28) . . .
33.6(31) . . .
34.2(32) . . .
28.8(29) . . .
28.9(28) . . .
30.1(30) . . .
30.4(31) . . .
24.8(30) . . .
26.6(29) . . .
29.4(28) . . .
23.4(28) . . .
23.2(25) . . .
27.7(28) . . .
30.8(31) . . .
28.5(29) . . .
38.2(33) . . .
34.0(32) . . .
37.1(33) . . .
30.5(29) . . .
34.6(30) . . .
34.9(30) . . .
26.7(27) . . .
25.5(29) . . .
25.2(26) . . .
26.7(27) . . .
24.6(27) . . .
30.0(29) . . .
31.1(30) . . .
28.4(28) . . .
28.9(28) . . .
33.3(32) . . .
29.8(29) . . .
28.0(28) . . .
29.8(29) . . .
26.8(27) . . .
31.5(31) . . .
28.3(28) . . .
23.7(26) . . .
27.5(28) . . .
32.2(30) . . .
32.8(33) . . .
29.7(32) . . .
26.5(28) . . .
27.6(28) . . .
23.4(25) . . .
34.1(31) . . .
30.1(30) . . .
29.0(30) . . .
29.0(29) . . .
24.9(26) . . .
31.2(31) . . .
29.5(32) . . .
29.8(30) . . .
33.5(30) . . .
36.4(32) . . .
23.9(28) . . .
27.0(31) . . .
29.3(30) . . .
27.5(28) . . .
23.4(26) . . .
31.1(31) . . .
31.3(32) . . .
24.8(25) . . .
26.7(27) . . .
27.0(27) . . .
32.4(31) . . .
27.8(29) . . .
34.5(32) . . .
30.1(29) . . .
20.5(24) . . .
27.0(29) . . .
29.5(30) . . .
33.6(32) . . .
34.9(31) . . .
41(4) . . .
25.6(29) . . .
31.0(32) . . .
25.4(27) . . .
32.3(30) . . .
32.5(30) . . .
35.7(35) . . .
27.4(27) . . .
32.7(30) . . .
29.9(29) . . .
23.7(25) . . .
34.0(32) . . .
27.2(27) . . .
32.9(31) . . .
27.4(28) . . .
29.1(29) . . .
32.3(33) . . .
24.2(26) . . .
27.4(27) . . .
29.3(29) . . .
23.8(27) . . .
26.2(27) . . .
30.5(32) . . .
25.7(27) . . .
24.7(26) . . .
27.3(30) . . .
25.7(29) . . .
24.9(27) . . .
31.9(29) . . .
25.6(26) . . .
30.8(30) . . .
27.3(28) . . .
29.9(30) . . .
31.8(29) . . .
24.8(26) . . .
22.9(27) . . .
27.6(31) . . .
28.6(31) . . .
28.0(28) . . .
30.5(28) . . .
33.5(31) . . .
25.0(27) . . .
38.0(34) . . .
42.2(35) . . .
38.0(33) . . .
34.8(33) . . .
32.0(31) . . .
31.4(30) . . .
35.7(32) . . .
19.8(24) . . .
23.6(27) . . .
28.2(31) . . .
24.5(27) . . .
20.4(24) . . .
31.0(31) . . .
24.6(27) . . .
27.2(29) . . .
31.0(29) . . .
35.5(31) . . .
29.1(29) . . .
25.0(29) . . .
26.7(29) . . .
28.1(28) . . .
31.3(30) . . .
26.9(28) . . .
26.7(28) . . .
22.2(25) . . .
26.9(27) . . .
27.1(28) . . .
27.6(28) . . .
34.4(33) . . .
28.7(29) . . .
30.1(29) . . .
22.7(24) . . .
29.3(31) . . .
31.8(33) . . .
30.5(30) . . .
22.2(25) . . .
19.5(23) . . .
26.1(30) . . .
34.5(34) . . .
21.2(24) . . .
24.7(27) . . .
34.1(31) . . .
31.6(31) . . .
24.8(27) . . .
30.7(28) . . .
26.3(27) . . .
38.1(33) . . .
36.3(32) . . .
29.4(27) . . .
28.8(31) . . .
26.3(26) . . .
24.2(25) . . .
30.8(30) . . .
30.1(32) . . .
26.5(28) . . .
28.5(27) . . .
35.4(31) . . .
37.9(33) . . .
25.8(27) . . .
30.6(30) . . .
30.8(29) . . .
30.6(30) . . .
29.5(28) . . .
34.5(32) . . .
33.1(32) . . .
33.7(30) . . .
30.3(29) . . .
24.9(27) . . .
24.8(26) . . .
31.5(29) . . .
29.6(28) . . .
26.7(29) . . .
30.0(31) . . .
31.8(31) . . .
25.4(27) . . .
29.8(29) . . .
30.9(29) . . .
25.2(27) . . .
29.3(29) . . .
24.2(25) . . .
27.6(28) . . .
31.2(30) . . .
19.4(24) . . .
24.0(27) . . .
35.6(31) . . .
37.0(31) . . .
28.9(27) . . .
29.7(30) . . .
23.3(25) . . .
28.4(29) . . .
25.7(26) . . .
25.3(26) . . .
24.6(28) . . .
39(4) . . .
38.3(33) . . .
34.5(31) . . .
30.7(31) . . .
25.3(27) . . .
34.3(30) . . .
28.6(28) . . .
24.5(26) . . .
29.8(28) . . .
26.5(27) . . .
31.1(30) . . .
22.4(25) . . .
24.8(28) . . .
28.3(31) . . .
26.5(30) . . .
24.4(26) . . .
30.2(28) . . .
29.4(30) . . .
28.8(30) . . .
41(4) . . .
34.9(32) . . .
26.8(27) . . .
29.7(30) . . .
24.4(27) . . .
22.8(25) . . .
26.0(27) . . .
32.4(30) . . .
31.8(30) . . .
25.0(26) . . .
21.3(24) . . .
24.5(25) . . .
32.2(30) . . .
23.3(25) . . .
19.6(22) . . .
30.8(30) . . .
26.6(27) . . .
27.8(29) . . .
29.1(31) . . .
24.8(28) . . .
26.7(31) . . .
26.9(27) . . .
25.6(26) . . .
27.5(28) . . .
25.8(28) . . .
26.4(27) . . .
32.4(29) . . .
31.5(31) . . .
32.4(32) . . .
27.0(29) . . .
34.6(32) . . .
24.2(27) . . .
27.3(27) . . .
32.3(32) . . .
25.6(27) . . .
30.1(29) . . .
29.3(28) . . .
29.8(29) . . .
24.3(26) . . .
29.6(30) . . .
32.3(31) . . .
27.1(29) . . .
28.6(28) . . .
25.1(26) . . .
32.3(31) . . .
28.6(28) . . .
22.9(26) . . .
26.3(29) . . .
24.3(26) . . .
23.0(28) . . .
26.7(28) . . .
29.5(29) . . .
29.1(28) . . .
29.6(29) . . .
29.4(29) . . .
30.3(30) . . .
24.8(26) . . .
22.3(25) . . .
34(4) . . .
24.1(27) . . .
21.0(25) . . .
25.0(26) . . .
27.2(28) . . .
30.9(32) . . .
26.6(27) . . .
35.0(31) . . .
29.2(28) . . .
25.7(27) . . .
22.2(27) . . .
31.8(31) . . .
26.1(26) . . .
32.2(29) . . .
24.6(26) . . .
25.9(28) . . .
34.1(32) . . .
27.0(27) . . .
29.1(28) . . .
31.3(32) . . .
21.9(25) . . .
23.7(26) . . .
28.7(28) . . .
30.5(29) . . .
30.0(32) . . .
27.4(29) . . .
28.0(31) . . .
25.2(27) . . .
26.5(27) . . .
37.7(32) . . .
33.5(32) . . .
28.5(29) . . .
31.3(30) . . .
28.3(28) . . .
31.3(30) . . .
32.3(31) . . .
24.0(26) . . .
27.5(27) . . .
28.1(29) . . .
30.3(32) . . .
27.5(28) . . .
27.1(28) . . .
29.7(28) . . .
26.5(28) . . .
25.6(27) . . .
28.2(29) . . .
22.9(27) . . .
28.2(28) . . .
24.5(26) . . .
27.6(28) . . .
33.6(32) . . .
31.9(29) . . .
28.7(28) . . .
31.9(30) . . .
29.2(30) . . .
33.0(34) . . .
25.4(26) . . .
19.0(23) . . .
25.7(29) . . .
31.4(33) . . .
28.0(29) . . .
25.2(26) . . .
35.7(33) . . .
30.0(29) . . .
31.0(30) . . .
31.1(30) . . .
23.2(25) . . .
23.9(27) . . .
28.4(29) . . .
22.0(25) . . .
30.8(30) . . .
26.1(26) . . .
21.8(25) . . .
24.3(27) . . .
15.1(20) . . .
28.8(29) . . .
32.3(30) . . .
33.0(30) . . .
24.2(26) . . .
26.7(29) . . .
25.4(26) . . .
34.0(30) . . .
25.1(26) . . .
26.7(28) . . .
31.9(31) . . .
28.2(28) . . .
30.2(30) . . .
35.6(32) . . .
32.9(30) . . .
28.2(28) . . .
26.9(30) . . .
29.3(29) . . .
30.1(29) . . .
33.4(33) . . .
21.2(24) . . .
29.6(28) . . .
37.1(32) . . .
36.6(33) . . .
28.5(29) . . .
31.4(29) . . .
29.6(28) . . .
31.6(29) . . .
23.3(26) . . .
23.3(25) . . .
26.9(27) . . .
24.6(27) . . .
25.5(27) . . .
35.6(32) . . .
31.4(29) . . .
31.3(30) . . .
23.0(25) . . .
28.1(27) . . .
31.5(31) . . .
35.4(35) . . .
24.2(26) . . .
30.8(30) . . .
28.5(28) . . .
32.2(30) . . .
25.5(28) . . .
22.4(24) . . .
28.7(28) . . .
25.0(27) . . .
32.4(32) . . .
24.4(28) . . .
28.6(29) . . .
17.6(21) . . .
19.2(23) . . .
25.3(27) . . .
27.0(28) . . .
30.4(29) . . .
27.2(27) . . .
18.7(22) . . .
33.5(32) . . .
23.6(26) . . .
25.7(27) . . .
35.1(31) . . .
31.6(30) . . .
24.3(27) . . .
24.7(27) . . .
26.9(30) . . .
23.6(26) . . .
30.2(29) . . .
27.4(29) . . .
26.6(28) . . .
30.9(29) . . .
33.4(30) . . .
24.9(27) . . .
29.4(31) . . .
22.8(24) . . .
28.7(29) . . .
31.7(29) . . .
30.9(31) . . .
33.0(32) . . .
26.6(30) . . .
23.6(28) . . .
31.5(30) . . .
30.8(29) . . .
29.6(28) . . .
30.3(29) . . .
26.5(28) . . .
31.4(29) . . .
20.9(26) . . .
30.3(32) . . .
25.3(27) . . .
28.0(28) . . .
36.2(31) . . .
27.0(27) . . .
28.1(30) . . .
32.4(30) . . .
35.7(32) . . .
27.5(28) . . .
28.0(28) . . .
31.3(31) . . .
30.2(31) . . .
24.9(26) . . .
27.4(27) . . .
26.7(27) . . .
25.8(26) . . .
32.8(30) . . .
29.6(29) . . .
28.1(28) . . .
29.0(29) . . .
25.8(27) . . .
26.4(28) . . .
26.2(27) . . .
33.0(32) . . .
23.8(25) . . .
29.0(29) . . .
26.6(27) . . .
30.4(29) . . .
34.5(31) . . .
31.5(30) . . .
22.4(24) . . .
27.8(28) . . .
24.4(26) . . .
30.5(30) . . .
31.8(32) . . .
25.9(26) . . .
25.7(27) . . .
27.7(28) . . .
22.2(25) . . .
23.4(25) . . .
28.4(29) . . .
25.8(28) . . .
27.1(27) . . .
30.7(30) . . .
31.5(31) . . .
25.2(26) . . .
32.4(30) . . .
31.6(31) . . .
28.8(28) . . .
32.3(32) . . .
24.9(29) . . .
25.6(26) . . .
20.7(24) . . .
27.6(29) . . .
28.2(31) . . .
26.6(27) . . .
28.4(27) . . .
36.2(32) . . .
26.1(26) . . .
30.4(31) . . .
24.6(27) . . .
29.4(30) . . .
21.3(24) . . .
23.0(25) . . .
25.9(27) . . .
34.9(31) . . .
30.3(28) . . .
22.9(27) . . .
29.4(30) . . .
23.7(27) . . .
29.7(30) . . .
31.6(29) . . .
23.9(26) . . .
29.8(29) . . .
27.1(29) . . .
21.3(24) . . .
25.6(26) . . .
33.9(32) . . .
27.4(27) . . .
23.7(26) . . .
35.8(32) . . .
29.6(28) . . .
27.7(27) . . .
33.2(31) . . .
29.3(31) . . .
33.2(32) . . .
26.7(27) . . .
29.1(30) . . .
30.6(32) . . .
28.3(30) . . .
24.4(26) . . .
28.0(28) . . .
24.0(27) . . .
32.2(32) . . .
28.5(28) . . .
34.1(33) . . .
32.5(30) . . .
31.3(29) . . .
28.2(29) . . .
32.9(31) . . .
25.0(26) . . .
32.4(30) . . .
22.1(27) . . .
28.9(29) . . .
34.0(33) . . .
26.6(28) . . .
32.3(30) . . .
35.0(32) . . .
31.3(31) . . .
27.9(29) . . .
24.6(27) . . .
30.9(29) . . .
38.0(34) . . .
25.1(27) . . .
28.2(28) . . .
28.8(28) . . .
33.4(32) . . .
33.8(32) . . .
32.3(31) . . .
30.0(28) . . .
24.2(26) . . .
24.9(28) . . .
15.6(21) . . .
23.8(28) . . .
31.1(31) . . .
29.1(28) . . .
29.3(29) . . .
28.6(29) . . .
23.9(26) . . .
31.8(31) . . .
25.5(27) . . .
29.3(30) . . .
29.0(30) . . .
29.1(29) . . .
31.7(30) . . .
23.8(26) . . .
24.2(26) . . .
29.7(31) . . .
21.4(25) . . .
29.9(29) . . .
31.0(29) . . .
24.8(28) . . .
21.3(24) . . .
32.4(31) . . .
30.6(29) . . .
27.9(28) . . .
27.9(28) . . .
29.7(33) . . .
27.2(29) . . .
26.7(27) . . .
27.5(27) . . .
32.6(31) . . .
22.7(27) . . .
25.2(29) . . .
40.1(33) . . .
27.2(28) . . .
33.0(32) . . .
29.2(30) . . .
25.3(26) . . .
29.5(29) . . .
24.7(26) . . .
33.5(33) . . .
29.1(32) . . .
22.9(25) . . .
26.7(28) . . .
24.4(25) . . .
28.7(28) . . .
31.2(32) . . .
27.1(29) . . .
30.5(29) . . .
29.2(28) . . .
26.3(29) . . .
38.2(35) . . .
35.1(31) . . .
24.7(26) . . .
31.8(33) . . .
24.4(28) . . .
32.0(32) . . .
27.4(29) . . .
35.6(31) . . .
24.8(26) . . .
26.8(31) . . .
24.7(26) . . .
29.4(28) . . .
23.8(25) . . .
27.3(28) . . .
35.7(33) . . .
29.5(28) . . .
28.6(28) . . .
29.6(28) . . .
22.0(26) . . .
30.5(31) . . .
26.3(29) . . .
24.1(26) . . .
35.3(31) . . .
31.6(30) . . .
27.2(28) . . .
29.8(30) . . .
30.2(28) . . .
33.6(30) . . .
25.6(26) . . .
19.7(22) . . .
26.5(28) . . .
16.9(21) . . .
21.3(25) . . .
26.4(27) . . .
23.2(27) . . .
22.9(25) . . .
23.2(26) . . .
35.3(31) . . .
26.4(26) . . .
30.4(31) . . .
22.0(24) . . .
24.4(26) . . .
38.5(32) . . .
26.2(28) . . .
32.4(33) . . .
29.3(29) . . .
25.4(26) . . .
21.5(25) . . .
26.0(27) . . .
35.8(34) . . .
28.9(29) . . .
29.6(28) . . .
33.8(32) . . .
25.7(25) . . .
25.0(26) . . .
26.1(28) . . .
30.9(29) . . .
30.6(29) . . .
26.9(28) . . .
20.3(24) . . .
24.0(27) . . .
27.6(27) . . .
23.0(25) . . .
32.5(32) . . .
27.4(27) . . .
33.4(31) . . .
30.8(29) . . .
27.3(28) . . .
32.0(32) . . .
30.8(30) . . .
31.4(30) . . .
34.5(31) . . .
33.5(31) . . .
23.8(27) . . .
28.9(29) . . .
30.9(29) . . .
30.7(29) . . .
29.2(30) . . .
29.6(30) . . .
24.6(27) . . .
23.9(27) . . .
25.2(27) . . .
32.9(32) . . .
28.0(30) . . .
29.5(31) . . .
26.6(27) . . .
24.9(26) . . .
23.1(24) . . .
31.3(32) . . .
28.0(29) . . .
24.7(27) . . .
22.4(25) . . .
26.0(27) . . .
24.4(26) . . .
29.3(29) . . .
34.4(30) . . .
26.9(27) . . .
25.8(27) . . .
31.3(32) . . .
30.9(30) . . .
32.0(30) . . .
29.9(31) . . .
31.8(32) . . .
26.3(29) . . .
32.3(32) . . .
32.5(30) . . .
34.4(31) . . .
32.0(30) . . .
32.3(30) . . .
30.0(28) . . .
30.0(28) . . .
26.2(27) . . .
36.0(34) . . .
27.1(29) . . .
24.7(26) . . .
28.8(28) . . .
19.6(24) . . .
24.5(27) . . .
24.3(27) . . .
29.7(29) . . .
25.2(26) . . .
32.1(31) . . .
31.1(31) . . .
29.9(29) . . .
29.5(29) . . .
28.3(28) . . .
28.6(30) . . .
24.0(29) . . .
27.2(28) . . .
25.7(27) . . .
25.9(26) . . .
23.8(26) . . .
27.9(28) . . .
31.0(29) . . .
31.5(30) . . .
31.6(29) . . .
26.8(28) . . .
23.2(27) . . .
25.5(27) . . .
24.8(26) . . .
31.4(30) . . .
36.6(33) . . .
32.0(32) . . .
23.6(27) . . .
26.0(27) . . .
23.0(26) . . .
27.5(28) . . .
30.1(31) . . .
23.9(26) . . .
25.8(27) . . .
28.0(28) . . .
33.6(31) . . .
28.5(31) . . .
22.9(25) . . .
28.6(28) . . .
26.0(27) . . .
33.6(32) . . .
29.3(30) . . .
30.6(29) . . .
34.5(31) . . .
22.1(25) . . .
28.1(29) . . .
31.8(30) . . .
28.0(28) . . .
32.6(29) . . .
22.2(26) . . .
28.7(29) . . .
28.1(29) . . .
25.0(26) . . .
41.3(34) . . .
30.9(30) . . .
30.6(30) . . .
25.7(26) . . .
35.5(31) . . .
40.5(33) . . .
32.8(31) . . .
29.1(30) . . .
33.2(31) . . .
23.5(25) . . .
30.1(29) . . .
19.8(23) . . .
30.8(30) . . .
27.1(28) . . .
24.4(27) . . .
29.0(28) . . .
34.0(31) . . .
31.0(32) . . .
24.6(26) . . .
28.9(28) . . .
34.3(31) . . .
33.8(34) . . .
26.0(30) . . .
32.9(32) . . .
33.2(30) . . .
31.5(29) . . .
31.1(30) . . .
33.1(31) . . .
33.3(31) . . .
24.3(25) . . .
28.2(28) . . .
28.7(29) . . .
25.4(27) . . .
23.8(27) . . .
38.0(33) . . .
37.3(33) . . .
34.9(31) . . .
28.6(29) . . .
31.0(29) . . .
28.5(28) . . .
24.6(27) . . .
23.1(27) . . .
26.9(28) . . .
29.3(30) . . .
26.5(27) . . .
25.7(28) . . .
22.3(25) . . .
27.8(29) . . .
29.6(29) . . .
23.5(25) . . .
26.0(27) . . .
28.8(28) . . .
30.1(30) . . .
28.6(28) . . .
30.3(28) . . .
30.1(31) . . .
27.9(30) . . .
30.4(30) . . .
36.8(32) . . .
30.6(29) . . .
34.4(33) . . .
26.9(30) . . .
29.0(30) . . .
30.1(29) . . .
19.2(24) . . .
30.2(30) . . .
29.9(32) . . .
31.4(31) . . .
27.5(27) . . .
34.0(32) . . .
22.7(25) . . .
30.2(32) . . .
29.2(30) . . .
26.6(27) . . .
33.1(31) . . .
22.1(25) . . .
28.7(31) . . .
32.8(32) . . .
33.7(31) . . .
28.3(28) . . .
25.5(26) . . .
24.8(27) . . .
26.0(28) . . .
27.8(27) . . .
24.8(28) . . .
24.6(28) . . .
27.0(28) . . .
30.3(30) . . .
28.5(28) . . .
22.8(26) . . .
33.6(33) . . .
36.7(32) . . .
31.4(30) . . .
22.9(26) . . .
25.5(27) . . .
21.0(24) . . .
22.4(26) . . .
31.5(30) . . .
36.4(32) . . .
25.7(28) . . .
29.3(29) . . .
36.6(32) . . .
29.9(29) . . .
26.1(27) . . .
28.5(31) . . .
28.6(28) . . .
23.5(26) . . .
26.0(27) . . .
27.9(28) . . .
31.4(32) . . .
23.9(26) . . .
30.8(30) . . .
28.5(29) . . .
24.0(26) . . .
31.7(30) . . .
28.3(29) . . .
35.2(34) . . .
34.0(31) . . .
27.0(28) . . .
27.6(28) . . .
32.3(32) . . .
24.6(26) . . .
32.0(31) . . .
26.5(26) . . .
30.5(30) . . .
22.9(25) . . .
23.8(25) . . .
26.3(27) . . .
27.1(27) . . .
28.9(30) . . .
27.8(29) . . .
27.8(29) . . .
31.7(30) . . .
27.6(27) . . .
24.2(25) . . .
32.6(32) . . .
22.9(26) . . .
27.0(27) . . .
34.0(31) . . .
24.3(25) . . .
35.1(32) . . .
34.3(31) . . .
33.9(31) . . .
26.2(29) . . .
32.8(34) . . .
34.0(32) . . .
26.7(27) . . .
25.6(27) . . .
17.1(22) . . .
26.1(28) . . .
22.9(25) . . .
29.4(28) . . .
32.7(30) . . .
32.6(31) . . .
31.6(30) . . .
29.0(28) . . .
31.3(29) . . .
30.1(29) . . .
29.2(30) . . .
29.8(30) . . .
34.4(30) . . .
33.3(30) . . .
32.8(31) . . .
32.5(33) . . .
22.6(27) . . .
30.7(29) . . .
34.2(30) . . .
33.6(30) . . .
27.4(28) . . .
23.8(26) . . .
27.0(26) . . .
28.9(28) . . .
35.9(31) . . .
35.5(32) . . .
24.4(27) . . .
32.2(32) . . .
31.0(29) . . .
27.0(27) . . .
32.2(33) . . .
29.7(29) . . .
33.4(31) . . .
35.6(31) . . .
30.3(29) . . .
21.6(25) . . .
33.6(33) . . .
31.4(31) . . .
28.3(28) . . .
29.0(28) . . .
33.2(31) . . .
33.1(32) . . .
32.5(31) . . .
29.4(29) . . .
30.5(28) . . .
30.9(30) . . .
27.9(27) . . .
30.9(31) . . .
28.8(28) . . .
22.9(26) . . .
26.1(27) . . .
36.8(34) . . .
24.3(26) . . .
41.6(34) . . .
32.3(32) . . .
28.5(30) . . .
37.0(32) . . .
31.3(30) . . .
32.6(29) . . .
29.5(29) . . .
30.9(31) . . .
23.1(25) . . .
25.6(27) . . .
32.7(30) . . .
23.8(26) . . .
28.0(30) . . .
30.7(30) . . .
33.2(31) . . .
26.7(27) . . .
31.5(30) . . .
23.4(27) . . .
27.6(30) . . .
25.7(27) . . .
23.9(25) . . .
20.8(24) . . .
24.5(27) . . .
27.0(28) . . .
32.5(30) . . .
31.9(30) . . .
30.6(29) . . .
26.4(27) . . .
31.5(32) . . .
22.5(25) . . .
24.5(26) . . .
32.4(32) . . .
30.1(32) . . .
28.5(29) . . .
28.5(28) . . .
32.3(30) . . .
28.9(29) . . .
25.8(27) . . .
30.3(29) . . .
26.5(27) . . .
27.5(30) . . .
31.4(31) . . .
29.1(28) . . .
31.5(30) . . .
35.0(31) . . .
27.6(28) . . .
33.9(34) . . .
30.9(33) . . .
19.5(23) . . .
33.8(32) . . .
27.5(29) . . .
24.3(28) . . .
29.4(29) . . .
26.4(27) . . .
18.7(23) . . .
33.7(32) . . .
24.9(26) . . .
30.5(32) . . .
27.7(28) . . .
28.1(28) . . .
35.5(32) . . .
34.7(34) . . .
19.3(22) . . .
24.1(26) . . .
27.3(27) . . .
32.4(31) . . .
32.5(32) . . .
31.5(29) . . .
38.5(33) . . .
27.9(28) . . .
20.9(25) . . .
24.1(27) . . .
29.6(30) . . .
28.4(28) . . .
29.7(29) . . .
29.2(31) . . .
27.0(27) . . .
34.7(32) . . .
28.3(28) . . .
23.2(25) . . .
31.9(31) . . .
29.3(29) . . .
33.5(32) . . .
31.3(29) . . .
23.5(26) . . .
20.4(24) . . .
26.0(30) . . .
29.0(30) . . .
26.0(27) . . .
28.8(28) . . .
28.0(30) . . .
25.5(28) . . .
38(4) . . .
22.1(25) . . .
31.5(31) . . .
32.6(32) . . .
30.6(30) . . .
28.7(30) . . .
22.9(25) . . .
25.0(28) . . .
26.4(28) . . .
26.7(27) . . .
28.5(28) . . .
23.1(25) . . .
30.6(30) . . .
27.8(28) . . .
23.6(26) . . .
26.2(27) . . .
33.8(30) . . .
32.9(31) . . .
32.6(31) . . .
36.0(32) . . .
32.3(29) . . .
34.1(30) . . .
30.4(29) . . .
27.1(28) . . .
26.2(27) . . .
34.1(31) . . .
25.5(27) . . .
26.3(27) . . .
37(4) . . .
29.9(29) . . .
34.0(30) . . .
26.3(26) . . .
31.6(33) . . .
22.1(28) . . .
29.8(31) . . .
33.0(30) . . .
24.6(27) . . .
17.7(24) . . .
24.8(27) . . .
29.6(29) . . .
21.8(25) . . .
31.0(29) . . .
25.2(27) . . .
26.9(29) . . .
34.4(32) . . .
22.0(24) . . .
24.6(26) . . .
26.8(27) . . .
28.8(29) . . .
28.0(30) . . .
29.0(28) . . .
29.4(29) . . .
27.1(27) . . .
24.8(27) . . .
20.3(25) . . .
27.1(28) . . .
26.8(28) . . .
30.7(30) . . .
24.7(26) . . .
28.3(28) . . .
28.2(28) . . .
33.6(34) . . .
29.6(29) . . .
27.1(27) . . .
24.3(26) . . .
22.8(27) . . .
24.9(28) . . .
30.2(32) . . .
34.1(31) . . .
26.9(29) . . .
25.2(26) . . .
26.0(28) . . .
25.2(27) . . .
30.8(29) . . .
28.4(28) . . .
25.7(26) . . .
26.6(27) . . .
26.5(29) . . .
25.9(27) . . .
36.0(31) . . .
29.3(29) . . .
26.9(27) . . .
26.0(29) . . .
30.2(30) . . .
33.1(30) . . .
36.6(32) . . .
33.3(31) . . .
31.5(32) . . .
29.5(32) . . .
28.9(28) . . .
30.9(30) . . .
33.3(32) . . .
32.2(31) . . .
31.0(31) . . .
28.8(27) . . .
25.6(27) . . .
24.7(27) . . .
27.6(30) . . .
30.7(30) . . .
36.9(32) . . .
33.3(32) . . .
18.5(22) . . .
25.9(27) . . .
26.5(30) . . .
25.2(26) . . .
29.4(30) . . .
30.9(31) . . .
27.2(28) . . .
21.4(24) . . .
24.5(26) . . .
27.2(27) . . .
32.0(32) . . .
29.8(30) . . .
33.7(31) . . .
30.6(29) . . .
30.5(31) . . .
25.9(31) . . .
33.5(31) . . .
33.1(30) . . .
30.0(29) . . .
26.8(29) . . .
25.3(28) . . .
21.8(27) . . .
28.5(28) . . .
28.4(27) . . .
21.6(24) . . .
28.0(30) . . .
24.1(26) . . .
27.1(28) . . .
34.8(31) . . .
25.2(28) . . .
22.9(26) . . .
27.3(29) . . .
30.8(29) . . .
33.2(30) . . .
32.8(31) . . .
28.3(30) . . .
30.6(29) . . .
30.2(29) . . .
30.2(31) . . .
19.9(23) . . .
19.0(25) . . .
27.3(28) . . .
37.1(32) . . .
29.9(29) . . .
30.0(28) . . .
37.0(33) . . .
26.4(28) . . .
31.4(29) . . .
35.0(32) . . .
21.5(24) . . .
31.9(30) . . .
24.8(26) . . .
33.5(31) . . .
25.0(27) . . .
35.3(33) . . .
29.3(29) . . .
20.2(23) . . .
20.7(24) . . .
37.7(34) . . .
29.2(29) . . .
25.9(27) . . .
26.6(28) . . .
32.1(30) . . .
24.8(27) . . .
24.3(28) . . .
27.4(29) . . .
24.1(26) . . .
30.0(30) . . .
31.3(29) . . .
20.1(23) . . .
30.4(30) . . .
31.3(29) . . .
29.2(29) . . .
26.9(28) . . .
27.8(29) . . .
29.7(28) . . .
34.1(30) . . .
31.1(29) . . .
26.8(27) . . .
26.7(30) . . .
28.1(30) . . .
32.2(29) . . .
25.9(28) . . .
25.3(27) . . .
27.5(28) . . .
30.2(29) . . .
28.1(28) . . .
27.6(27) . . .
29.7(31) . . .
24.0(28) . . .
25.0(26) . . .
28.0(28) . . .
28.7(29) . . .
36(4) . . .
29.4(29) . . .
29.3(29) . . .
29.7(28) . . .
30.2(30) . . .
23.7(27) . . .
29.3(30) . . .
31.3(32) . . .
22.6(25) . . .
29.5(32) . . .
23.8(25) . . .
28.4(29) . . .
30.8(29) . . .
36.4(32) . . .
27.1(29) . . .
26.3(27) . . .
25.6(26) . . .
30.9(29) . . .
29.0(29) . . .
32.1(32) . . .
24.5(26) . . .
25.2(27) . . .
29.2(28) . . .
33.6(31) . . .
30.5(30) . . .
30.5(31) . . .
27.2(27) . . .
35.0(31) . . .
31.2(29) . . .
28.8(30) . . .
24.2(29) . . .
33.0(32) . . .
24.0(26) . . .
25.2(26) . . .
26.6(26) . . .
26.8(28) . . .
31.7(31) . . .
31.1(30) . . .
22.2(25) . . .
19.9(24) . . .
22.1(25) . . .
28.9(32) . . .
27.0(27) . . .
30.5(30) . . .
34.1(31) . . .
33.2(31) . . .
23.3(26) . . .
34.4(30) . . .
33.0(30) . . .
26.0(27) . . .
25.6(26) . . .
26.9(29) . . .
27.2(27) . . .
31.5(31) . . .
21.1(25) . . .
31.4(31) . . .
28.7(28) . . .
31.2(29) . . .
26.0(26) . . .
33.4(31) . . .
21.8(24) . . .
28.2(28) . . .
28.1(28) . . .
25.2(28) . . .
23.2(26) . . .
30.1(30) . . .
30.1(29) . . .
27.0(27) . . .
21.4(25) . . .
24.2(28) . . .
25.5(28) . . .
33.7(31) . . .
34.2(31) . . .
25.6(28) . . .
32.8(32) . . .
32.7(33) . . .
21.4(24) . . .
36.8(32) . . .
25.7(26) . . .
31.5(33) . . .
27.0(27) . . .
26.6(27) . . .
23.2(24) . . .
25.7(27) . . .
21.0(24) . . .
27.0(28) . . .
34.6(31) . . .
28.5(29) . . .
21.2(24) . . .
29.4(29) . . .
30.8(29) . . .
25.2(26) . . .
34.0(31) . . .
22.7(25) . . .
28.6(31) . . .
23.1(26) . . .
24.0(26) . . .
33.3(31) . . .
29.6(29) . . .
25.5(27) . . .
25.4(27) . . .
28.3(28) . . .
31.2(29) . . .
27.9(28) . . .
34.3(32) . . .
27.6(28) . . .
31.7(29) . . .
28.5(28) . . .
26.0(27) . . .
26.6(28) . . .
24.1(26) . . .
29.8(29) . . .
32.1(30) . . .
29.3(29) . . .
33.1(32) . . .
23.8(25) . . .
26.6(27) . . .
36.8(33) . . .
33.0(31) . . .
34.6(32) . . .
33.3(30) . . .
32.7(30) . . .
27.1(30) . . .
26.3(28) . . .
27.1(28) . . .
27.8(28) . . .
32.2(29) . . .
28.2(29) . . .
29.4(28) . . .
27.5(27) . . .
27.6(28) . . .
28.3(27) . . .
31.6(30) . . .
29.9(31) . . .
32.7(32) . . .
32.7(30) . . .
28.4(28) . . .
27.4(29) . . .
29.0(32) . . .
25.9(29) . . .
29.6(28) . . .
25.2(27) . . .
30.3(29) . . .
32.4(32) . . .
30.8(32) . . .
22.6(24) . . .
32.0(30) . . .
37.0(33) . . .
33.7(33) . . .
32.8(31) . . .
25.7(27) . . .
31.0(31) . . .
27.4(29) . . .
25.8(28) . . .
31.2(31) . . .
18.9(23) . . .
21.3(24) . . .
28.9(28) . . .
33.6(32) . . .
24.9(27) . . .
26.6(27) . . .
26.4(27) . . .
27.9(28) . . .
32.3(31) . . .
27.1(27) . . .
22.4(25) . . .
31.8(30) . . .
34.3(31) . . .
43(4) . . .
36.8(32) . . .
24.2(25) . . .
30.1(30) . . .
28.5(28) . . .
25.4(26) . . .
22.3(25) . . .
26.9(28) . . .
32.1(31) . . .
30.9(29) . . .
41(4) . . .
27.8(28) . . .
31.6(29) . . .
33.4(35) . . .
23.7(26) . . .
26.5(28) . . .
32.2(32) . . .
25.2(27) . . .
23.6(26) . . .
28.4(30) . . .
24.4(26) . . .
20.0(23) . . .
27.4(28) . . .
29.9(30) . . .
31.7(31) . . .
35.2(34) . . .
27.8(27) . . .
30.9(29) . . .
31.8(31) . . .
31.6(32) . . .
29.3(30) . . .
25.0(27) . . .
25.9(28) . . .
26.4(28) . . .
30.0(30) . . .
26.3(27) . . .
27.4(27) . . .
30.7(30) . . .
22.2(26) . . .
31.8(32) . . .
30.4(29) . . .
33.1(30) . . .
29.9(29) . . .
24.1(26) . . .
26.6(27) . . .
33.7(30) . . .
25.4(26) . . .
27.0(28) . . .
24.5(26) . . .
25.2(26) . . .
32.2(31) . . .
27.8(28) . . .
21.5(24) . . .
29.7(32) . . .
36.5(34) . . .
34.6(31) . . .
30.1(29) . . .
24.0(25) . . .
29.8(30) . . .
27.2(28) . . .
24.3(25) . . .
33.3(31) . . .
28.3(29) . . .
25.0(27) . . .
29.6(29) . . .
27.0(28) . . .
29.1(29) . . .
26.2(27) . . .
27.0(29) . . .
29.0(31) . . .
31.1(29) . . .
38.0(32) . . .
29.6(30) . . .
27.0(28) . . .
29.0(29) . . .
23.4(24) . . .
29.1(30) . . .
25.7(27) . . .
26.4(28) . . .
32.0(30) . . .
26.8(27) . . .
26.6(28) . . .
21.8(27) . . .
22.3(28) . . .
24.5(27) . . .
25.6(27) . . .
30.1(28) . . .
32.7(32) . . .
23.6(27) . . .
23.7(27) . . .
26.1(26) . . .
31.5(31) . . .
29.2(30) . . .
25.1(28) . . .
26.6(27) . . .
29.4(29) . . .
31.8(31) . . .
29.5(31) . . .
22.9(26) . . .
30.0(32) . . .
31.3(29) . . .
28.2(29) . . .
22.9(25) . . .
24.4(26) . . .
22.4(25) . . .
27.8(28) . . .
35.0(32) . . .
28.5(30) . . .
20.0(24) . . .
23.0(26) . . .
15.9(23) . . .
29.5(31) . . .
32.0(32) . . .
30.3(31) . . .
32.0(29) . . .
33.0(31) . . .
23.6(27) . . .
31.1(33) . . .
33.6(33) . . .
35.9(32) . . .
26.2(27) . . .
26.1(27) . . .
23.6(27) . . .
27.7(29) . . .
35.4(31) . . .
25.4(26) . . .
27.0(27) . . .
30.2(30) . . .
24.0(27) . . .
15.2(20) . . .
28.4(28) . . .
30.2(29) . . .
32.9(31) . . .
22.3(25) . . .
29.0(28) . . .
27.4(28) . . .
23.3(27) . . .
28.4(30) . . .
31.9(29) . . .
28.1(28) . . .
28.7(29) . . .
27.0(28) . . .
25.8(27) . . .
32.2(30) . . .
29.4(28) . . .
35.2(32) . . .
26.3(27) . . .
27.0(28) . . .
24.6(27) . . .
30.8(29) . . .
30.7(29) . . .
25.3(26) . . .
29.1(28) . . .
35.0(32) . . .
31.6(30) . . .
25.6(27) . . .
29.8(31) . . .
29.3(30) . . .
29.5(30) . . .
26.9(27) . . .
32.8(33) . . .
25.1(26) . . .
32.9(31) . . .
28.4(28) . . .
23.9(26) . . .
27.3(28) . . .
27.0(29) . . .
28.1(28) . . .
31.3(29) . . .
39.3(33) . . .
31.1(29) . . .
29.7(30) . . .
27.0(27) . . .
23.5(25) . . .
22.3(26) . . .
25.0(27) . . .
31.8(33) . . .
25.7(27) . . .
22.0(25) . . .
23.3(25) . . .
29.6(30) . . .
28.0(29) . . .
30.6(30) . . .
33.8(30) . . .
28.2(28) . . .
37.4(33) . . .
22.6(25) . . .
28.0(31) . . .
28.9(28) . . .
29.7(29) . . .
23.6(27) . . .
26.3(28) . . .
23.8(27) . . .
26.8(27) . . .
39.0(34) . . .
27.8(29) . . .
29.2(30) . . .
19.0(22) . . .
33.9(32) . . .
28.5(29) . . .
26.2(26) . . .
29.1(28) . . .
35.9(32) . . .
32.9(31) . . .
26.1(27) . . .
27.2(28) . . .
27.7(29) . . .
31.7(31) . . .
34.2(30) . . .
32.0(31) . . .
20.2(27) . . .
27.9(29) . . .
34.5(31) . . .
21.9(24) . . .
38.4(33) . . .
38(4) . . .
29.4(29) . . .
31.6(29) . . .
24.0(27) . . .
33.6(31) . . .
32.6(32) . . .
25.7(28) . . .
29.4(28) . . .
29.4(28) . . .
28.6(29) . . .
28.5(29) . . .
28.4(30) . . .
23.6(26) . . .
25.3(26) . . .
26.3(28) . . .
25.3(26) . . .
30.7(29) . . .
26.4(27) . . .
32.5(30) . . .
25.4(27) . . .
24.2(27) . . .
27.9(28) . . .
24.5(25) . . .
26.6(28) . . .
33.0(33) . . .
27.5(29) . . .
32.2(32) . . .
29.2(28) . . .
31.4(29) . . .
29.7(30) . . .
34.5(32) . . .
31.3(29) . . .
28.1(28) . . .
27.4(28) . . .
26.8(29) . . .
23.8(26) . . .
28.9(29) . . .
26.6(27) . . .
30.6(32) . . .
31.5(32) . . .
24.8(27) . . .
26.9(27) . . .
28.0(28) . . .
27.6(28) . . .
30.8(32) . . .
26.5(26) . . .
34.5(31) . . .
35.6(31) . . .
28.2(30) . . .
27.5(30) . . .
24.9(27) . . .
31.6(30) . . .
22.4(26) . . .
34.9(33) . . .
38.7(34) . . .
27.2(27) . . .
26.9(27) . . .
23.7(25) . . .
32.2(31) . . .
29.1(28) . . .
30.2(30) . . .
31.0(30) . . .
35.0(31) . . .
21.8(24) . . .
28.2(29) . . .
26.0(28) . . .
41.0(33) . . .
27.2(27) . . .
29.3(30) . . .
20.3(24) . . .
26.5(30) . . .
23.0(25) . . .
26.6(27) . . .
31.1(30) . . .
26.7(27) . . .
26.5(28) . . .
23.5(25) . . .
29.0(28) . . .
29.9(29) . . .
32.5(29) . . .
36.6(32) . . .
30.1(28) . . .
28.3(28) . . .
27.9(30) . . .
21.9(25) . . .
27.7(28) . . .
30.3(29) . . .
26.5(28) . . .
31.6(32) . . .
35.4(34) . . .
24.5(26) . . .
19.9(24) . . .
28.3(30) . . .
29.8(31) . . .
36.5(35) . . .
34.1(31) . . .
32.0(29) . . .
26.9(27) . . .
26.0(29) . . .
30.5(33) . . .
29.2(28) . . .
24.7(26) . . .
25.2(28) . . .
20.6(26) . . .
24.9(28) . . .
26.8(30) . . .
38.5(32) . . .
32.4(32) . . .
27.3(28) . . .
29.1(29) . . .
27.9(27) . . .
30.3(28) . . .
30.6(30) . . .
27.8(30) . . .
31.3(32) . . .
39.7(33) . . .
28.7(29) . . .
29.6(32) . . .
24.7(26) . . .
36.0(34) . . .
16.9(22) . . .
18.8(26) . . .
23.1(26) . . .
29.9(30) . . .
27.5(27) . . .
29.3(28) . . .
27.7(28) . . .
32.5(30) . . .
30.6(32) . . .
24.6(26) . . .
34.5(31) . . .
36.2(31) . . .
33.4(31) . . .
27.3(28) . . .
34.8(32) . . .
26.6(28) . . .
27.1(28) . . .
35.0(33) . . .
28.6(30) . . .
25.2(26) . . .
29.6(28) . . .
25.0(26) . . .
23.7(28) . . .
28.3(31) . . .
34.9(31) . . .
24.8(26) . . .
17.1(23) . . .
27.1(29) . . .
28.3(31) . . .
27.6(28) . . .
28.4(28) . . .
30.5(30) . . .
27.0(30) . . .
31.7(32) . . .
28.9(28) . . .
27.9(28) . . .
28.7(31) . . .
21.8(25) . . .
35.5(32) . . .
32.6(30) . . .
32.4(29) . . .
25.9(26) . . .
24.9(27) . . .
31.4(30) . . .
25.9(27) . . .
26.6(28) . . .
24.8(27) . . .
31.5(32) . . .
28.7(29) . . .
30.2(28) . . .
24.5(26) . . .
24.7(26) . . .
30.0(28) . . .
36.4(33) . . .
29.3(28) . . .
29.0(28) . . .
44(4) . . .
28.5(29) . . .
26.1(28) . . .
25.1(27) . . .
19.3(23) . . .
30.4(31) . . .
25.8(27) . . .
27.2(27) . . .
33.8(30) . . .
32.7(31) . . .
33.5(34) . . .
21.8(25) . . .
33.3(30) . . .
24.7(26) . . .
28.3(30) . . .
35.6(34) . . .
26.9(28) . . .
34.3(30) . . .
29.7(29) . . .
27.0(29) . . .
24.0(29) . . .
22.9(25) . . .
30.8(29) . . .
24.7(26) . . .
31.5(29) . . .
30.7(32) . . .
31.4(31) . . .
29.7(28) . . .
32.8(31) . . .
24.2(25) . . .
26.1(29) . . .
20.3(23) . . .
32.0(30) . . .
25.9(26) . . .
29.9(29) . . .
24.5(26) . . .
27.4(28) . . .
30.0(28) . . .
26.0(27) . . .
23.1(26) . . .
31.4(32) . . .
28.4(28) . . .
29.7(29) . . .
28.8(28) . . .
27.9(30) . . .
25.7(28) . . .
20.6(24) . . .
18.1(22) . . .
31.1(30) . . .
39.3(34) . . .
22.8(23) . . .
24.1(26) . . .
29.0(29) . . .
24.9(25) . . .
30.9(30) . . .
25.5(27) . . .
23.0(25) . . .
31.0(30) . . .
29.4(30) . . .
33.8(32) . . .
30.1(30) . . .
24.4(26) . . .
30.7(28) . . .
29.8(29) . . .
29.4(29) . . .
32.9(33) . . .
29.4(28) . . .
26.0(27) . . .
32.5(31) . . .
30.1(29) . . .
26.0(27) . . .
33.9(31) . . .
30.2(28) . . .
27.8(27) . . .
28.6(30) . . .
30.9(30) . . .
28.3(28) . . .
22.5(25) . . .
31.1(32) . . .
28.4(29) . . .
28.6(28) . . .
31.5(29) . . .
25.9(27) . . .
31.8(30) . . .
29.4(29) . . .
32.2(33) . . .
31.9(29) . . .
32.3(32) . . .
25.5(29) . . .
28.1(30) . . .
22.8(25) . . .
30.3(29) . . .
30.3(30) . . .
24.9(27) . . .
25.4(26) . . .
28.1(29) . . .
28.5(28) . . .
30.5(29) . . .
28.9(29) . . .
29.8(30) . . .
26.4(26) . . .
31.9(29) . . .
20.6(24) . . .
28.8(29) . . .
35.0(34) . . .
28.4(28) . . .
24.3(26) . . .
23.5(26) . . .
29.9(30) . . .
33.2(32) . . .
26.6(28) . . .
30.8(28) . . .
32.0(32) . . .
25.6(27) . . .
21.5(25) . . .
26.9(28) . . .
32.3(30) . . .
30.3(33) . . .
33.0(35) . . .
25.0(26) . . .
24.5(26) . . .
21.6(24) . . .
30.4(29) . . .
28.9(28) . . .
32.6(31) . . .
25.8(26) . . .
28.8(28) . . .
22.9(26) . . .
26.8(29) . . .
26.8(26) . . .
35.0(31) . . .
37.2(32) . . .
24.5(27) . . .
24.0(27) . . .
26.4(28) . . .
24.0(25) . . .
24.0(25) . . .
27.3(28) . . .
34.2(33) . . .
26.0(29) . . .
21.0(25) . . .
29.9(29) . . .
28.8(28) . . .
32.1(31) . . .
29.3(30) . . .
31.5(30) . . .
31.3(31) . . .
26.0(29) . . .
30.8(31) . . .
32.1(31) . . .
18.2(22) . . .
31.2(29) . . .
26.0(27) . . .
22.9(26) . . .
27.2(29) . . .
32.3(30) . . .
31.4(30) . . .
27.9(29) . . .
32.1(33) . . .
26.5(27) . . .
38.2(32) . . .
26.9(30) . . .
35.6(35) . . .
30.4(31) . . .
20.6(24) . . .
28.5(28) . . .
29.3(31) . . .
18.6(25) . . .
30.4(33) . . .
25.8(27) . . .
31.5(29) . . .
33.1(30) . . .
32.9(33) . . .
33.2(31) . . .
31.8(31) . . .
28.2(29) . . .
23.1(27) . . .
29.7(31) . . .
28.4(29) . . .
26.5(27) . . .
30.7(30) . . .
27.1(27) . . .
30.1(32) . . .
28.9(28) . . .
26.6(27) . . .
20.5(23) . . .
28.1(29) . . .
26.9(28) . . .
27.7(28) . . .
31.6(30) . . .
27.9(28) . . .
29.9(30) . . .
21.4(25) . . .
20.5(24) . . .
26.8(28) . . .
31.8(31) . . .
29.9(30) . . .
33.9(31) . . .
40.5(34) . . .
33.5(31) . . .
22.5(27) . . .
30.0(29) . . .
25.9(27) . . .
32.6(32) . . .
29.0(28) . . .
31.4(31) . . .
26.4(26) . . .
27.4(28) . . .
27.0(27) . . .
28.0(28) . . .
31.3(31) . . .
22.7(26) . . .
29.4(28) . . .
32.6(29) . . .
30.7(29) . . .
29.9(29) . . .
28.6(30) . . .
28.7(29) . . .
33.1(32) . . .
27.9(27) . . .
35.8(32) . . .
24.1(26) . . .
24.7(27) . . .
27.4(28) . . .
25.8(27) . . .
24.8(27) . . .
29.3(32) . . .
25.1(27) . . .
22.5(25) . . .
27.2(27) . . .
28.8(28) . . .
20.5(24) . . .
31.4(31) . . .
31.2(31) . . .
33.5(30) . . .
28.9(28) . . .
29.2(32) . . .
29.8(32) . . .
25.6(27) . . .
26.6(27) . . .
30.0(31) . . .
32.7(34) . . .
24.1(26) . . .
31.0(29) . . .
26.4(27) . . .
30.9(31) . . .
32.0(32) . . .
25.7(27) . . .
32.8(30) . . .
28.8(29) . . .
33.9(32) . . .
30.0(28) . . .
26.3(27) . . .
32.5(29) . . .
29.3(28) . . .
27.3(27) . . .
25.0(26) . . .
22.5(24) . . .
34.1(30) . . .
31.6(30) . . .
26.1(27) . . .
27.3(29) . . .
27.9(28) . . .
28.9(29) . . .
24.0(28) . . .
27.4(30) . . .
28.6(30) . . .
26.2(27) . . .
32.0(30) . . .
29.8(29) . . .
26.2(28) . . .
30.7(29) . . .
23.2(25) . . .
26.0(28) . . .
32.4(33) . . .
25.7(30) . . .
28.5(30) . . .
27.0(27) . . .
31.4(29) . . .
26.1(27) . . .
31(4) . . .
25.3(30) . . .
29.0(28) . . .
26.0(27) . . .
30.5(31) . . .
29.1(31) . . .
29.6(30) . . .
26.8(28) . . .
31.5(29) . . .
36.8(33) . . .
33.0(33) . . .
19.1(23) . . .
26.2(27) . . .
27.3(27) . . .
28.6(29) . . .
29.7(30) . . .
34.6(32) . . .
24.7(26) . . .
22.8(26) . . .
36.5(33) . . .
31.9(31) . . .
24.3(26) . . .
22.9(25) . . .
24.5(28) . . .
26.7(28) . . .
29.0(29) . . .
27.1(28) . . .
30.2(29) . . .
31.9(30) . . .
26.8(27) . . .
28.5(29) . . .
26.9(27) . . .
33.8(30) . . .
32.0(30) . . .
29.1(30) . . .
19.3(23) . . .
29.5(30) . . .
39.1(33) . . .
29.2(28) . . .
24.3(26) . . .
23.7(25) . . .
27.8(28) . . .
30.6(30) . . .
24.7(26) . . .
22.9(24) . . .
38.5(33) . . .
30.7(29) . . .
26.2(27) . . .
30.3(29) . . .
32.3(31) . . .
31.8(30) . . .
28.2(28) . . .
23.8(25) . . .
39.4(35) . . .
30.7(31) . . .
32.3(32) . . .
21.5(27) . . .
32.1(30) . . .
28.4(28) . . .
39(4) . . .
28.3(30) . . .
32.1(29) . . .
22.9(26) . . .
28.4(29) . . .
26.2(27) . . .
28.0(29) . . .
18.0(23) . . .
33.8(30) . . .
29.8(30) . . .
23.5(25) . . .
29.0(29) . . .
31.3(29) . . .
30.8(29) . . .
23.8(25) . . .
25.9(28) . . .
27.5(28) . . .
31.5(29) . . .
26.4(27) . . .
31.7(32) . . .
28.6(28) . . .
24.2(27) . . .
30.7(28) . . .
26.6(29) . . .
26.8(31) . . .
28.9(27) . . .
32.8(30) . . .
32.6(29) . . .
26.5(27) . . .
32.1(35) . . .
24.7(27) . . .
29.7(29) . . .
31.9(29) . . .
28.0(29) . . .
30.3(32) . . .
19.3(22) . . .
29.3(28) . . .
29.0(29) . . .
26.5(27) . . .
29.1(30) . . .
25.9(28) . . .
25.1(26) . . .
28.6(28) . . .
24.8(26) . . .
21.6(26) . . .
23.2(26) . . .
23.9(25) . . .
25.4(26) . . .
23.0(26) . . .
26.6(31) . . .
22.8(28) . . .
26.0(27) . . .
22.4(24) . . .
32.9(32) . . .
31.8(33) . . .
27.1(29) . . .
29.0(28) . . .
33.0(30) . . .
30.6(29) . . .
23.8(26) . . .
26.6(27) . . .
26.5(27) . . .
30.3(30) . . .
21.4(26) . . .
23.9(28) . . .
28.0(28) . . .
29.8(29) . . .
24.6(26) . . .
28.8(28) . . .
24.9(28) . . .
22.7(25) . . .
24.4(25) . . .
35.1(33) . . .
25.3(26) . . .
24.2(26) . . .
26.2(26) . . .
26.4(27) . . .
26.9(28) . . .
31.8(33) . . .
25.1(26) . . .
27.3(27) . . .
32.4(30) . . .
27.4(28) . . .
35.8(34) . . .
36.1(33) . . .
26.7(28) . . .
30.9(29) . . .
29.3(30) . . .
19.8(24) . . .
27.2(29) . . .
23.2(25) . . .
27.0(27) . . .
25.8(27) . . .
31.0(32) . . .
29.6(30) . . .
30.8(29) . . .
22.2(24) . . .
27.6(31) . . .
34.7(33) . . .
33.1(32) . . .
31.3(29) . . .
31.9(30) . . .
28.3(29) . . .
27.4(28) . . .
37.1(32) . . .
24.4(27) . . .
22.8(25) . . .
22.6(26) . . .
34.4(32) . . .
27.7(30) . . .
20.9(24) . . .
23.2(27) . . .
30.9(32) . . .
27.7(29) . . .
31.1(29) . . .
29.3(29) . . .
22.0(25) . . .
22.2(26) . . .
24.0(27) . . .
29.4(30) . . .
29.9(28) . . .
24.7(27) . . .
25.8(27) . . .
28.8(29) . . .
24.2(26) . . .
24.2(26) . . .
27.1(27) . . .
28.5(28) . . .
33.8(33) . . .
25.7(27) . . .
30.3(29) . . .
22.4(24) . . .
29.1(29) . . .
33.8(33) . . .
29.9(28) . . .
33.6(30) . . .
23.0(25) . . .
23.0(26) . . .
27.6(28) . . .
34.1(31) . . .
32.0(30) . . .
34.5(32) . . .
22.9(25) . . .
25.2(27) . . .
26.6(26) . . .
25.7(28) . . .
19.4(24) . . .
25.1(30) . . .
22.5(26) . . .
36.2(32) . . .
30.7(28) . . .
24.7(27) . . .
28.1(31) . . .
21.5(24) . . .
32.7(30) . . .
26.0(26) . . .
31.0(28) . . .
28.1(28) . . .
29.9(31) . . .
28.7(28) . . .
28.9(28) . . .
23.9(25) . . .
22.8(24) . . .
25.5(26) . . .
29.5(28) . . .
29.5(32) . . .
21.4(24) . . .
28.9(29) . . .
33.9(31) . . .
28.1(28) . . .
18.7(23) . . .
28.0(29) . . .
34.5(32) . . .
24.5(26) . . .
29.9(29) . . .
27.9(29) . . .
23.8(25) . . .
29.9(30) . . .
24.9(28) . . .
23.2(26) . . .
32.4(31) . . .
29.7(29) . . .
28.5(29) . . .
24.4(26) . . .
25.6(27) . . .
27.7(27) . . .
27.5(28) . . .
27.5(29) . . .
29.0(28) . . .
25.7(26) . . .
31.4(32) . . .
29.6(31) . . .
28.3(31) . . .
22.4(25) . . .
23.3(25) . . .
22.3(25) . . .
24.3(26) . . .
24.8(26) . . .
24.3(25) . . .
25.0(26) . . .
25.0(26) . . .
27.1(28) . . .
30.6(30) . . .
25.3(26) . . .
32.3(30) . . .
32.0(32) . . .
26.0(28) . . .
29.5(31) . . .
29.1(28) . . .
33.2(31) . . .
26.5(27) . . .
29.3(30) . . .
26.1(26) . . .
34.5(32) . . .
26.8(28) . . .
29.1(31) . . .
27.0(27) . . .
38.2(33) . . .
30.4(29) . . .
27.2(29) . . .
29.4(30) . . .
26.2(27) . . .
23.4(28) . . .
27.3(27) . . .
29.1(30) . . .
19.3(24) . . .
26.2(28) . . .
26.1(27) . . .
28.5(29) . . .
35.3(32) . . .
28.0(28) . . .
25.2(27) . . .
33.5(30) . . .
31.9(30) . . .
35.3(32) . . .
21.5(24) . . .
36.4(32) . . .
31.7(29) . . .
33.8(30) . . .
27.7(28) . . .
30.2(31) . . .
38.7(34) . . .
26.4(27) . . .
24.2(27) . . .
24.8(26) . . .
25.5(29) . . .
22.5(28) . . .
25.0(26) . . .
34.7(31) . . .
24.1(25) . . .
31.2(32) . . .
27.5(30) . . .
25.8(27) . . .
27.0(28) . . .
31.8(31) . . .
31.5(30) . . .
29.7(31) . . .
25.2(26) . . .
30.0(29) . . .
22.8(25) . . .
24.1(27) . . .
21.1(24) . . .
21.1(24) . . .
29.3(29) . . .
32.3(30) . . .
32.8(31) . . .
26.2(30) . . .
38.0(32) . . .
32.1(31) . . .
36.9(35) . . .
26.6(27) . . .
24.8(26) . . .
27.3(28) . . .
22.1(24) . . .
29.8(31) . . .
29.1(29) . . .
19.9(24) . . .
28.1(28) . . .
34.2(32) . . .
33.1(32) . . .
23.8(26) . . .
25.1(26) . . .
28.8(27) . . .
34.6(35) . . .
34.2(33) . . .
20.7(24) . . .
21.8(25) . . .
17.5(22) . . .
29.0(29) . . .
33.2(33) . . .
27.3(27) . . .
30.4(29) . . .
26.7(27) . . .
25.7(29) . . .
28.1(31) . . .
31.5(32) . . .
29.3(28) . . .
25.9(26) . . .
27.9(28) . . .
21.4(24) . . .
25.3(27) . . .
25.3(26) . . .
27.6(28) . . .
35.1(32) . . .
33.4(33) . . .
27.6(28) . . .
35.0(31) . . .
29.3(28) . . .
37.8(33) . . .
29.9(28) . . .
33.1(30) . . .
31.9(30) . . .
21.2(25) . . .
25.4(27) . . .
25.5(27) . . .
22.5(26) . . .
19.8(23) . . .
22.5(26) . . .
24.6(27) . . .
30.7(30) . . .
26.9(29) . . .
30.1(29) . . .
24.7(26) . . .
29.1(31) . . .
27.2(29) . . .
26.6(29) . . .
23.1(25) . . .
27.3(29) . . .
31.8(31) . . .
30.8(29) . . .
35.5(32) . . .
29.7(29) . . .
26.6(26) . . .
28.0(29) . . .
21.4(24) . . .
31.8(30) . . .
31.9(29) . . .
29.9(30) . . .
30.1(32) . . .
37.0(33) . . .
33.8(31) . . .
30.8(29) . . .
31.0(29) . . .
35.0(33) . . .
28.3(28) . . .
32.4(30) . . .
22.8(25) . . .
28.8(28) . . .
24.9(27) . . .
28.1(29) . . .
25.1(26) . . .
20.5(24) . . .
28.2(29) . . .
28.3(30) . . .
32.2(33) . . .
27.6(28) . . .
26.5(27) . . .
30.6(30) . . .
26.1(29) . . .
29.7(31) . . .
35.0(31) . . .
29.6(29) . . .
31.1(29) . . .
26.0(26) . . .
30.7(30) . . .
28.1(28) . . .
32.2(30) . . .
25.0(26) . . .
32.9(32) . . .
30.4(32) . . .
22.9(25) . . .
27.1(29) . . .
24.7(26) . . .
33.4(33) . . .
25.7(27) . . .
33.7(30) . . .
26.0(28) . . .
30.4(29) . . .
44(4) . . .
33.5(31) . . .
27.8(28) . . .
27.7(28) . . .
29.0(30) . . .
25.6(26) . . .
25.0(26) . . .
32.3(32) . . .
26.7(28) . . .
30.8(32) . . .
31.3(33) . . .
23.8(25) . . .
22.3(25) . . .
33.7(32) . . .
24.8(30) . . .
26.2(28) . . .
29.0(28) . . .
27.5(28) . . .
28.5(30) . . .
20.4(23) . . .
22.7(26) . . .
24.3(26) . . .
26.1(26) . . .
21.3(26) . . .
33.7(33) . . .
32.5(30) . . .
32.7(30) . . .
26.4(27) . . .
34.8(33) . . .
29.5(29) . . .
28.6(29) . . .
25.5(26) . . .
29.6(29) . . .
30.6(30) . . .
33.6(33) . . .
23.0(25) . . .
37.9(32) . . .
29.3(28) . . .
27.0(27) . . .
26.1(28) . . .
24.5(26) . . .
24.2(25) . . .
25.8(29) . . .
28.1(30) . . .
25.2(27) . . .
22.0(25) . . .
37.7(32) . . .
28.7(28) . . .
21.8(25) . . .
24.9(27) . . .
30.0(29) . . .
24.6(26) . . .
30.6(30) . . .
24.4(28) . . .
28.4(28) . . .
26.0(26) . . .
25.9(27) . . .
28.3(29) . . .
22.5(24) . . .
31.7(30) . . .
29.5(29) . . .
32.9(32) . . .
30.4(31) . . .
28.4(30) . . .
33.9(34) . . .
23.9(26) . . .
22.4(25) . . .
25.7(26) . . .
25.1(27) . . .
27.2(29) . . .
28.7(28) . . .
26.6(27) . . .
31.6(31) . . .
30.6(30) . . .
26.1(27) . . .
31.6(30) . . .
34.0(31) . . .
29.4(30) . . .
19.6(23) . . .
23.5(27) . . .
26.8(27) . . .
31.2(31) . . .
28.9(29) . . .
29.4(29) . . .
27.4(29) . . .
25.7(26) . . .
32.8(32) . . .
24.8(25) . . .
30.8(28) . . .
38.6(33) . . .
27.2(27) . . .
25.3(26) . . .
27.2(29) . . .
30.8(32) . . .
30.6(30) . . .
31.1(29) . . .
24.5(27) . . .
27.5(29) . . .
28.9(31) . . .
24.2(27) . . .
28.0(27) . . .
25.1(28) . . .
35.1(34) . . .
35.3(32) . . .
35.2(32) . . .
33.3(30) . . .
27.6(29) . . .
27.2(29) . . .
28.1(30) . . .
32.6(31) . . .
36.3(31) . . .
29.0(28) . . .
26.7(27) . . .
40.3(35) . . .
31.1(29) . . .
26.9(28) . . .
29.6(29) . . .
28.7(30) . . .
30.6(32) . . .
31.1(29) . . .
23.4(25) . . .
26.5(29) . . .
38(4) . . .
26.7(29) . . .
26.7(27) . . .
24.0(26) . . .
31.1(29) . . .
28.1(29) . . .
34.6(31) . . .
28.4(29) . . .
36.6(32) . . .
34.3(31) . . .
28.2(30) . . .
24.8(32) . . .
19.8(25) . . .
30.3(30) . . .
26.3(26) . . .
31.7(29) . . .
22.6(25) . . .
24.3(25) . . .
31.7(30) . . .
26.3(28) . . .
31.9(31) . . .
29.3(28) . . .
26.1(27) . . .
27.4(28) . . .
30.2(30) . . .
36.3(35) . . .
25.8(26) . . .
29.5(27) . . .
28.8(28) . . .
32.5(33) . . .
26.1(27) . . .
31.3(29) . . .
28.0(28) . . .
35(4) . . .
29.9(31) . . .
34.8(31) . . .
26.0(26) . . .
27.5(28) . . .
24.7(28) . . .
24.4(29) . . .
27.2(30) . . .
31.7(32) . . .
25.2(26) . . .
29.4(30) . . .
29.0(31) . . .
19.5(24) . . .
30.2(29) . . .
24.6(25) . . .
21.1(24) . . .
27.5(29) . . .
32.0(30) . . .
31.3(29) . . .
32.2(30) . . .
29.0(29) . . .
33.9(33) . . .
36.1(34) . . .
22.6(25) . . .
30.6(30) . . .
25.0(28) . . .
26.6(28) . . .
23.1(25) . . .
28.6(29) . . .
31.5(30) . . .
27.1(28) . . .
25.5(27) . . .
33.0(31) . . .
24.6(26) . . .
27.0(29) . . .
18.8(23) . . .
34.4(33) . . .
32.3(31) . . .
24.0(26) . . .
23.7(28) . . .
34.2(33) . . .
27.6(27) . . .
27.1(28) . . .
25.2(27) . . .
32.6(32) . . .
31.4(31) . . .
30.4(29) . . .
23.5(25) . . .
23.6(25) . . .
32.8(33) . . .
35.8(31) . . .
34.3(30) . . .
32.9(30) . . .
26.3(27) . . .
23.8(25) . . .
30.7(31) . . .
39.7(34) . . .
25.7(28) . . .
27.0(27) . . .
21.4(25) . . .
23.5(29) . . .
22.0(26) . . .
27.4(27) . . .
29.8(29) . . .
29.0(28) . . .
29.9(32) . . .
26.1(27) . . .
34.1(31) . . .
20.9(23) . . .
22.2(25) . . .
24.8(28) . . .
25.9(29) . . .
26.6(27) . . .
25.4(28) . . .
26.1(29) . . .
23.9(26) . . .
29.8(28) . . .
23.5(25) . . .
18.3(22) . . .
24.8(27) . . .
30.0(31) . . .
22.9(26) . . .
26.9(26) . . .
28.2(28) . . .
28.5(32) . . .
25.9(29) . . .
28.0(28) . . .
26.0(27) . . .
27.8(33) . . .
27.7(29) . . .
31.4(30) . . .
31.0(31) . . .
30.0(29) . . .
32.3(33) . . .
29.6(29) . . .
33.8(32) . . .
26.8(28) . . .
27.6(28) . . .
21.7(24) . . .
29.0(31) . . .
22.4(25) . . .
25.0(26) . . .
24.3(25) . . .
31.0(30) . . .
33.4(31) . . .
32.0(30) . . .
27.5(27) . . .
30.5(28) . . .
24.4(26) . . .
32.4(30) . . .
30.0(29) . . .
23.0(24) . . .
23.1(25) . . .
27.1(28) . . .
24.3(26) . . .
29.8(29) . . .
35.5(33) . . .
31.2(29) . . .
33.6(31) . . .
26.8(28) . . .
20.9(24) . . .
22.5(25) . . .
32.9(30) . . .
19.8(23) . . .
29.3(31) . . .
31.4(31) . . .
26.3(27) . . .
38.5(33) . . .
37.3(34) . . .
29.6(29) . . .
24.5(27) . . .
26.8(27) . . .
30.5(29) . . .
29.9(30) . . .
26.9(28) . . .
25.0(26) . . .
32.5(30) . . .
32.0(30) . . .
30.8(30) . . .
27.2(29) . . .
23.4(25) . . .
28.3(28) . . .
26.0(27) . . .
28.0(30) . . .
23.3(28) . . .
27.4(29) . . .
25.3(27) . . .
27.7(28) . . .
22.1(26) . . .
34.8(33) . . .
27.2(27) . . .
27.9(28) . . .
32.2(31) . . .
24.7(27) . . .
32.3(31) . . .
27.9(28) . . .
29.8(29) . . .
22.1(27) . . .
24.1(29) . . .
27.0(29) . . .
26.3(28) . . .
26.6(27) . . .
27.4(30) . . .
25.0(29) . . .
39.1(35) . . .
30.9(28) . . .
26.6(27) . . .
29.7(31) . . .
29.9(30) . . .
29.6(29) . . .
25.1(26) . . .
28.7(29) . . .
39.0(34) . . .
30.3(30) . . .
28.6(30) . . .
24.4(26) . . .
29.0(29) . . .
31.1(30) . . .
34.1(32) . . .
28.0(31) . . .
28.7(28) . . .
30.6(30) . . .
31.1(31) . . .
23.8(26) . . .
28.5(30) . . .
33.9(30) . . .
28.3(29) . . .
25.6(27) . . .
26.6(29) . . .
29.9(28) . . .
22.7(26) . . .
28.8(28) . . .
25.0(25) . . .
27.5(28) . . .
26.9(28) . . .
27.1(28) . . .
27.2(27) . . .
36(4) . . .
29.2(30) . . .
27.2(28) . . .
23.4(25) . . .
31.1(30) . . .
28.8(32) . . .
26.0(28) . . .
27.3(27) . . .
29.9(29) . . .
26.5(29) . . .
29.0(31) . . .
34.8(33) . . .
29.6(29) . . .
30.3(29) . . .
29.6(31) . . .
loop_
_refln_index_h
_refln_index_k
_refln_index_l
_refln_observed_status
_refln_F_squared_meas
_refln_F_squared_calc
_refln_phase_calc
_refln_d_spacing
_gsas_i100_meas
0 0 2 o 16.258 367.249 180.00 6.58336 0.04
0 2 0 o 1281.177 1464.578 180.00 8.19636 5.01
0 1 3 o 50.289 37.387 180.00 4.23958 0.11
1 0 1 o 12827.093 13349.656 0.00 5.87738 51.66
0 0 4 o 173.784 281.875 180.00 3.29168 0.11
0 2 2 o 32541.318 33025.082 0.00 5.13271 100.00
0 3 1 o 1398.795 1705.539 180.00 5.04689 4.16
0 4 0 o 3664.203 2117.632 0.00 4.09818 3.59
1 1 2 o 4532.774 3889.902 0.00 4.47325 21.17
1 0 3 o 302.285 236.898 180.00 3.64917 0.47
1 2 1 o 1650.541 1774.478 0.00 4.77632 8.79
0 2 4 o 990.676 630.768 0.00 3.05456 1.08
0 1 5 o 1385.799 1637.432 180.00 2.60001 1.10
1 1 4 o 105.079 51.282 0.00 2.89649 0.21
1 2 3 o 714.351 938.463 0.00 3.33370 1.86
1 0 5 o 408.740 551.412 180.00 2.44421 0.29
0 0 6 o 1819.271 2033.262 0.00 2.19445 0.52
0 3 3 o 12111.186 12793.368 0.00 3.42180 16.58
0 5 1 o 12.116 4.798 180.00 3.18140 0.01
1 4 1 o 734.115 810.031 180.00 3.36165 1.94
0 6 0 o 2310.154 2342.685 0.00 2.73212 1.01
0 4 2 o 2.670 7.668 0.00 3.47914 0.00
1 3 2 o 3656.505 3694.603 0.00 3.54117 10.72
0 2 6 o 979.159 944.878 180.00 2.11979 0.52
1 2 5 o 249.096 437.721 0.00 2.34228 0.32
1 1 6 o 983.785 945.217 180.00 2.06478 0.99
0 1 7 o 709.318 926.331 0.00 1.86870 0.29
0 3 5 o 0.000 118.000 0.00 2.37224 0.00
1 3 4 o 27.320 28.665 0.00 2.59095 0.04
2 0 2 o 808.867 473.357 0.00 2.93869 0.82
2 0 0 o 2053.851 1941.442 180.00 3.28403 1.30
1 0 7 o 924.217 1058.607 0.00 1.80827 0.36
2 1 1 o 797.539 826.970 180.00 3.12787 1.83
0 0 8 o 313.987 375.409 180.00 1.64584 0.05
2 2 0 o 94.676 52.422 0.00 3.04844 0.10
1 6 1 o 625.128 936.745 0.00 2.47752 0.90
0 4 4 o 9356.583 10822.747 0.00 2.56635 7.23
0 7 1 o 157.810 243.480 0.00 2.30563 0.10
2 1 3 o 1258.752 1291.702 0.00 2.59624 1.99
0 6 2 o 275.828 612.810 0.00 2.52344 0.21
1 5 2 o 2908.365 2973.501 180.00 2.67945 4.90
2 0 4 o 1492.260 1381.670 180.00 2.32486 0.95
0 3 7 o 1129.357 1152.973 0.00 1.77854 0.42
1 2 7 o 1190.627 1253.571 180.00 1.76581 0.88
2 2 2 o 2296.574 1994.083 180.00 2.76627 4.12
2 4 0 o 1929.154 2255.369 180.00 2.56272 1.49
2 3 1 o 735.941 667.862 0.00 2.75259 1.31
0 2 8 o 1194.089 1175.305 180.00 1.61363 0.37
1 3 6 o 1097.726 914.614 0.00 1.94503 0.98
0 8 0 o 320.218 308.886 0.00 2.04909 0.08
1 4 3 o 5188.753 5441.889 0.00 2.72533 9.04
2 1 5 o 350.387 322.384 180.00 2.03848 0.34
1 1 8 o 1102.237 1126.253 0.00 1.58896 0.66
0 1 9 o 1761.447 1409.326 0.00 1.45718 0.45
0 4 6 o 3555.185 3174.280 180.00 1.93456 1.57
2 2 4 o 98.445 193.362 0.00 2.23663 0.12
2 0 6 o 118.787 173.474 0.00 1.82459 0.05
1 4 5 o 198.068 173.250 180.00 2.09921 0.21
1 0 9 o 1469.259 1030.564 180.00 1.42797 0.36
2 5 1 o 0.000 0.041 180.00 2.28501 0.00
2 3 3 o 0.000 103.449 180.00 2.36937 0.00
0 5 3 o 296.682 490.786 180.00 2.62660 0.24
1 8 1 o 578.152 514.676 180.00 1.93487 0.51
2 6 0 o 2942.291 2559.019 180.00 2.10031 1.53
1 7 2 o 2951.822 2645.407 0.00 2.09153 3.04
0 0 10 o 2901.508 6552.004 180.00 1.31667 0.30
2 2 6 o 619.286 628.242 180.00 1.78099 0.47
1 3 8 o 75.012 70.315 0.00 1.53241 0.04
0 3 9 o 17.585 14.433 0.00 1.41320 0.00
2 4 2 o 3.909 249.520 180.00 2.38816 0.01
0 9 1 o 3438.563 3849.754 0.00 1.80423 1.33
1 2 9 o 54.600 44.302 180.00 1.40678 0.03
0 5 5 o 22092.932 21659.160 0.00 2.05308 10.98
2 3 5 o 1091.390 971.508 0.00 1.92300 0.95
0 2 10 o 6.299 7.962 0.00 1.30001 0.00
2 1 7 o 474.549 426.007 0.00 1.62416 0.30
0 8 2 o 1689.253 1464.702 180.00 1.95651 0.76
1 4 7 o 139.833 237.402 180.00 1.65438 0.09
1 1 10 o 15.047 14.871 0.00 1.28700 0.01
0 4 8 o 146.926 134.393 180.00 1.52728 0.04
2 0 8 o 473.318 398.691 180.00 1.47140 0.12
1 5 4 o 6275.753 6338.473 0.00 2.18998 7.09
1 6 3 o 5052.188 4998.104 180.00 2.18707 5.69
0 7 3 o 6877.616 6583.848 0.00 2.06610 3.46
2 2 8 o 2501.250 1780.484 0.00 1.44825 1.26
2 7 1 o 480.237 530.928 180.00 1.88701 0.40
2 4 4 o 956.245 918.984 180.00 2.02214 0.92
1 5 6 o 742.182 840.132 0.00 1.75717 0.54
2 1 9 o 696.330 1358.398 180.00 1.33195 0.30
0 10 0 o 8440.740 8314.347 180.00 1.63927 1.35
2 6 2 o 629.927 708.914 180.00 2.00095 0.60
2 3 7 o 1963.419 1939.700 180.00 1.56391 1.14
0 5 7 o 50.126 44.319 180.00 1.63152 0.02
1 3 10 o 0.580 0.515 0.00 1.25640 0.00
3 0 1 o 2716.879 2416.989 180.00 2.15970 1.49
2 8 0 o 1.069 1.459 180.00 1.73844 0.00
3 1 2 o 3025.160 3091.771 180.00 2.06100 3.03
2 4 6 o 2111.495 2872.405 0.00 1.66685 1.39
1 9 2 o 4.121 5.026 0.00 1.69594 0.00
3 0 3 o 4456.453 4080.283 0.00 1.95913 2.02
3 2 1 o 68.146 63.488 0.00 2.08842 0.07
1 10 1 o 268.564 264.579 180.00 1.57901 0.16
2 5 3 o 108.444 108.358 0.00 2.05122 0.11
1 4 9 o 0.432 0.478 0.00 1.34846 0.00
0 6 4 o 8327.748 7387.717 180.00 2.10231 4.34
0 4 10 o 153.405 134.236 180.00 1.25356 0.03
2 0 10 o 1492.660 2512.961 0.00 1.22211 0.27
0 10 2 o 1539.880 1554.806 0.00 1.59070 0.46
3 0 5 o 2242.128 2468.642 180.00 1.68351 0.75
3 1 4 o 3880.002 4111.562 0.00 1.81179 3.02
2 2 10 o 480.104 1063.001 180.00 1.20874 0.17
3 2 3 o 5151.362 4044.627 180.00 1.90545 4.42
1 8 3 o 273.364 279.203 0.00 1.78668 0.21
1 5 8 o 76.983 49.748 180.00 1.43535 0.04
0 9 3 o 66.293 72.636 180.00 1.68230 0.02
0 6 6 o 4192.830 6033.543 0.00 1.71090 1.46
3 4 1 o 1008.581 800.759 180.00 1.91063 0.87
2 9 1 o 45.122 47.905 180.00 1.58130 0.03
1 6 5 o 447.218 653.515 0.00 1.82163 0.35
0 5 9 o 3.555 5.014 0.00 1.33599 0.00
3 3 2 o 1108.483 825.882 0.00 1.94187 0.99
3 1 6 o 151.811 141.125 180.00 1.54303 0.09
0 11 1 o 7140.492 5021.634 180.00 1.48079 1.87
2 4 8 o 2207.801 1819.252 180.00 1.38484 1.02
2 3 9 o 1429.063 1700.544 0.00 1.29811 0.58
2 5 5 o 1977.288 2513.635 180.00 1.74088 1.42
2 8 2 o 95.426 105.951 180.00 1.68083 0.06
3 2 5 o 432.122 663.162 0.00 1.64908 0.28
3 0 7 o 261.672 182.949 180.00 1.42672 0.06
3 3 4 o 206.437 380.214 180.00 1.72926 0.15
0 6 8 o 394.419 332.009 180.00 1.40980 0.09
2 7 3 o 1461.814 1656.548 180.00 1.74879 1.06
1 6 7 o 517.629 313.629 0.00 1.50791 0.28
3 1 8 o 559.560 1019.902 180.00 1.31135 0.23
0 12 0 o 4269.066 4413.897 0.00 1.36606 0.48
3 6 1 o 1768.265 2096.590 180.00 1.69428 1.21
1 7 4 o 491.633 705.161 180.00 1.83242 0.39
2 10 0 o 24.660 22.243 0.00 1.46670 0.01
3 5 2 o 235.628 240.900 0.00 1.75484 0.17
3 3 6 o 72.939 36.630 0.00 1.49108 0.04
2 5 7 o 3751.020 3253.771 0.00 1.46114 1.92
3 2 7 o 191.341 154.463 0.00 1.40559 0.09
0 8 4 o 1066.592 1417.810 0.00 1.73957 0.38
2 6 4 o 1193.040 928.389 0.00 1.77058 0.89
1 11 2 o 111.201 83.851 180.00 1.41914 0.05
3 4 3 o 204.765 186.146 180.00 1.76754 0.15
1 10 3 o 28.188 16.153 180.00 1.49533 0.02
1 12 1 o 0.420 1.052 180.00 1.33059 0.00
0 7 5 o 1280.151 1394.811 180.00 1.74994 0.46
3 0 9 o 1244.580 2353.736 0.00 1.21639 0.22
1 6 9 o 258.194 229.592 180.00 1.26554 0.10
2 5 9 o 1950.059 1539.632 180.00 1.23751 0.72
0 12 2 o 2882.655 3631.782 180.00 1.33757 0.62
0 11 3 o 1581.207 1352.670 0.00 1.41112 0.38
3 4 5 o 3.424 3.431 180.00 1.55724 0.00
2 10 2 o 852.215 553.357 180.00 1.43160 0.42
3 3 8 o 0.023 0.018 180.00 1.27902 0.00
2 11 1 o 295.435 322.313 0.00 1.34991 0.13
2 6 6 o 3582.330 3133.326 180.00 1.51733 1.97
0 7 7 o 5586.555 5231.643 0.00 1.46649 1.44
3 8 1 o 0.142 0.080 0.00 1.48649 0.00
1 7 6 o 629.565 641.386 0.00 1.55571 0.36
3 7 2 o 2000.314 2140.602 180.00 1.55409 1.15
2 9 3 o 113.244 71.604 0.00 1.49727 0.06
0 13 1 o 4119.466 3711.645 0.00 1.25524 0.78
3 4 7 o 340.335 390.354 0.00 1.34741 0.15
1 9 4 o 423.223 447.250 0.00 1.54876 0.24
3 5 4 o 554.971 490.427 180.00 1.59323 0.34
0 10 4 o 137.464 130.966 180.00 1.46738 0.04
3 6 3 o 409.802 391.464 0.00 1.59211 0.25
1 7 8 o 137.225 557.240 0.00 1.31911 0.06
2 6 8 o 3009.200 3291.722 0.00 1.29547 1.22
0 7 9 o 123.576 89.167 0.00 1.24075 0.02
2 12 0 o 1011.045 876.432 180.00 1.26129 0.19
2 8 4 o 2753.875 2862.114 180.00 1.53723 1.55
4 2 0 o 355.587 277.080 180.00 1.61003 0.11
4 1 1 o 1302.674 1092.268 0.00 1.62140 0.81
4 0 2 o 172.533 150.331 180.00 1.59321 0.05
4 0 0 o 2484.758 2769.634 0.00 1.64202 0.40
3 5 6 o 291.548 201.773 180.00 1.40122 0.14
4 1 3 o 676.268 641.638 180.00 1.53118 0.38
4 3 1 o 947.943 1012.975 180.00 1.56145 0.55
2 7 5 o 2036.165 1812.788 0.00 1.54437 1.16
3 9 2 o 40.834 46.828 180.00 1.36957 0.02
1 13 2 o 6.160 11.748 180.00 1.21702 0.00
4 4 0 o 2003.659 2129.109 0.00 1.52422 0.56
4 0 4 o 1389.461 1385.466 0.00 1.46935 0.36
1 12 3 o 35.759 27.285 180.00 1.27936 0.01
4 2 2 o 2064.961 2115.052 0.00 1.56394 1.20
4 0 6 o 724.678 1595.984 180.00 1.31471 0.15
4 2 4 o 1252.123 856.713 180.00 1.44629 0.63
4 1 5 o 1959.552 1548.791 0.00 1.38833 0.91
1 8 5 o 809.227 857.204 180.00 1.57028 0.48
3 10 1 o 5.822 9.780 0.00 1.30574 0.00
0 8 6 o 2386.876 1804.938 180.00 1.49768 0.64
3 5 8 o 424.769 789.848 0.00 1.22094 0.15
2 12 2 o 1056.587 777.553 0.00 1.23876 0.39
2 7 7 o 3193.346 3449.615 180.00 1.33904 1.38
3 8 3 o 1180.118 1085.813 180.00 1.41605 0.57
2 11 3 o 1186.372 1313.991 180.00 1.29650 0.48
0 13 3 o 271.839 600.027 180.00 1.21195 0.05
1 11 4 o 2.802 11.244 180.00 1.32949 0.00
4 5 1 o 3157.333 2991.380 0.00 1.45913 1.61
4 4 2 o 2636.776 1579.525 180.00 1.48494 1.39
0 8 8 o 914.581 886.130 0.00 1.28318 0.18
0 9 5 o 2054.510 1517.709 0.00 1.49800 0.55
3 6 5 o 55.871 36.268 180.00 1.43326 0.03
4 3 3 o 3309.592 2488.173 0.00 1.48039 1.73
4 2 6 o 505.469 577.332 0.00 1.29812 0.21
1 8 7 o 143.345 128.357 0.00 1.35583 0.06
4 6 0 o 4826.157 4331.599 180.00 1.40739 1.15
4 1 7 o 667.794 645.652 180.00 1.23348 0.25
2 10 4 o 525.226 552.672 0.00 1.33972 0.23
0 12 4 o 10.928 9.247 0.00 1.26172 0.00
3 7 4 o 56.550 29.963 0.00 1.43849 0.03
4 3 5 o 172.361 193.613 180.00 1.35013 0.08
3 6 7 o 602.155 544.068 180.00 1.26467 0.23
4 6 2 o 1615.952 1638.623 0.00 1.37629 0.73
4 7 1 o 2635.010 2979.149 180.00 1.33750 1.13
4 4 4 o 1333.148 1047.116 0.00 1.38313 0.61
3 11 2 o 172.100 418.135 0.00 1.21092 0.06
4 8 0 o 2662.812 2314.370 0.00 1.28136 0.53
1 10 5 o 227.057 229.359 0.00 1.36143 0.10
3 10 3 o 624.857 583.395 180.00 1.25722 0.24
4 4 6 o 73.878 66.536 180.00 1.25187 0.03
4 5 3 o 777.670 640.388 180.00 1.39233 0.36
2 8 6 o 2767.244 2601.439 0.00 1.36267 1.23
0 11 5 o 407.393 445.767 0.00 1.29697 0.08
2 9 5 o 4205.562 3911.923 180.00 1.36290 1.88
0 9 7 o 28.643 49.806 180.00 1.30848 0.01
3 7 6 o 79.194 81.247 0.00 1.29247 0.03
3 9 4 o 155.160 165.897 180.00 1.28848 0.06
1 9 6 o 294.175 362.445 180.00 1.37068 0.13
4 9 1 o 842.031 1760.751 0.00 1.21439 0.30
4 8 2 o 2216.390 2070.415 180.00 1.25776 0.85
4 5 5 o 543.294 539.840 0.00 1.28234 0.22
4 7 3 o 936.519 949.676 0.00 1.28549 0.37
3 8 5 o 97.934 122.839 180.00 1.30079 0.04
4 6 4 o 293.235 306.672 180.00 1.29407 0.12
5 1 2 o 329.519 360.598 0.00 1.28426 0.13
5 2 1 o 611.672 590.559 0.00 1.29081 0.25
5 0 3 o 15.638 14.307 0.00 1.25845 0.00
5 0 1 o 1030.714 1970.029 0.00 1.30712 0.21
5 1 4 o 14.248 28.895 0.00 1.21668 0.01
2 9 7 o 60.243 133.156 0.00 1.21555 0.02
5 4 1 o 1.031 0.676 180.00 1.24531 0.00
5 2 3 o 383.770 258.418 0.00 1.24388 0.14
0 10 6 o 1.671 3.645 0.00 1.31330 0.00
5 3 2 o 568.535 572.382 0.00 1.25384 0.22
1 10 7 o 69.057 156.142 180.00 1.21450 0.02
1 11 6 o 41.265 105.406 0.00 1.21168 0.01
2 10 6 o 248.507 475.498 180.00 1.21941 0.09
