#------------------------------------------------------------------------------
#$Date: 2016-03-21 01:21:50 +0200 (Mon, 21 Mar 2016) $
#$Revision: 178377 $
#$URL: svn://www.crystallography.net/cod/cif/4/00/21/4002112.cif $
#------------------------------------------------------------------------------
#
# This file is available in the Crystallography Open Database (COD),
# http://www.crystallography.net/
#
# All data on this site have been placed in the public domain by the
# contributors.
#
data_4002112
loop_
_publ_author_name
'Nanthamathee, Chompoonoot'
'Ling, Sanliang'
'Slater, Ben'
'Attfield, Martin P.'
_publ_section_title
;
 Contradistinct Thermoresponsive Behavior of Isostructural MIL-53 Type
 Metal--Organic Frameworks by Modifying the Framework Inorganic Anion
;
_journal_name_full               'Chemistry of Materials'
_journal_page_first              141223143002002
_journal_paper_doi               10.1021/cm503311x
_journal_year                    2014
_chemical_formula_sum            'C8 Al O5'
_chemical_formula_weight         203.07
_chemical_name_systematic        ' ?'
_space_group_IT_number           74
_symmetry_cell_setting           orthorhombic
_symmetry_space_group_name_Hall  '-I 2b 2'
_symmetry_space_group_name_H-M   'I m m a'
_audit_creation_date             2014-08-28T12:20
_audit_creation_method           'from EXP file using GSAS2CIF'
_audit_update_record
' 2014-08-28T12:20  Initial CIF as created by GSAS2CIF'
_cell_angle_alpha                90.0
_cell_angle_beta                 90.0
_cell_angle_gamma                90.0
_cell_formula_units_Z            4
_cell_length_a                   6.62854(6)
_cell_length_b                   16.71205(18)
_cell_length_c                   12.85296(23)
_cell_volume                     1423.81(3)
_computing_structure_refinement  GSAS
_diffrn_radiation_polarisn_ratio 0.95
_diffrn_radiation_probe          x-ray
_diffrn_radiation_wavelength     0.825993
_exptl_absorpt_correction_T_max  1.00000
_exptl_absorpt_correction_T_min  1.00000
_exptl_absorpt_process_details
;   GSAS Absorption/surface roughness correction: function number 0
 No correction is applied.
;
_pd_block_id                     2014-08-28T12:20|500K|300k|i11
_pd_calc_method                  'Rietveld Refinement'
_pd_instr_location               ' ?'
_pd_meas_2theta_range_inc        0.003
_pd_meas_2theta_range_max        149.9955
_pd_meas_2theta_range_min        0.0015
_pd_meas_number_of_points        49999
_pd_phase_name                   300K
_pd_proc_2theta_range_inc        0.003
_pd_proc_2theta_range_max        150.00438
_pd_proc_2theta_range_min        0.010389
_pd_proc_info_datetime           2014-08-28T12:20:06
_pd_proc_info_excluded_regions   ' ?'
_pd_proc_ls_background_function
;   GSAS Background function number 1 with  2 terms.
 Shifted Chebyshev function of 1st kind
      1:    0.00000     2:    0.00000    
;
_pd_proc_ls_peak_cutoff          0.00010
_pd_proc_ls_profile_function
;
 CW Profile function number 4 with  18 terms
 Pseudovoigt profile coefficients as parameterized in
 P. Thompson, D.E. Cox & J.B. Hastings (1987). J. Appl. Cryst.,20,79-83.
 Asymmetry correction of L.W. Finger, D.E. Cox & A. P. Jephcoat (1994).
 J. Appl. Cryst.,27,892-900.
 Microstrain broadening by P.W. Stephens,  (1999). J. Appl. Cryst.,32,281-289.
 Peak tails are ignored  where the intensity is below 0.0001 times the peak
   Aniso. broadening axis   1.0   0.0   1.0
;
_pd_proc_ls_prof_R_factor        0.0365
_pd_proc_ls_prof_wR_expected     0.0227
_pd_proc_ls_prof_wR_factor       0.0493
_pd_proc_number_of_points        49999
_pd_spec_mounting                ' ?'
_refine_ls_goodness_of_fit_all   2.18
_refine_ls_matrix_type           full
_refine_ls_number_parameters     27
_refine_ls_number_restraints     0
_refine_ls_R_Fsqd_factor         0.23802
_refine_ls_shift/su_max          0.05
_refine_ls_shift/su_mean         0.01
_reflns_d_resolution_high        1.210
_reflns_d_resolution_low         8.356
_reflns_limit_h_max              5
_reflns_limit_h_min              0
_reflns_limit_k_max              13
_reflns_limit_k_min              0
_reflns_limit_l_max              10
_reflns_limit_l_min              0
_reflns_number_total             252
_cod_data_source_file            aloh500K.cif
_cod_data_source_block           500K_publ
_cod_depositor_comments
;
The following automatic conversions were performed:

'_geom_bond_publ_flag' value 'N' changed to 'n' according to
/home/saulius/struct/COD-crude-data--automatic-downloads/rss-feeds/ACS/lib/dictionaries/cif_core.dic
dictionary named 'cif_core.dic' version 2.4.2 from 2011-04-26 (18
times).

'_geom_angle_publ_flag' value 'N' changed to 'n' according
to
/home/saulius/struct/COD-crude-data--automatic-downloads/rss-feeds/ACS/lib/dictionaries/cif_core.dic
dictionary named 'cif_core.dic' version 2.4.2 from 2011-04-26 (24
times).

Automatic conversion script
Id: cif_fix_values 2935 2014-11-11 08:27:57Z andrius 
;
_cod_original_cell_volume        1423.806(32)
_cod_database_code               4002112
#BEGIN Tags that were not found in dictionaries:
_gsas_exptl_extinct_corr_t_min   1.00000
_gsas_exptl_extinct_corr_t_max   1.00000
#END Tags that were not found in dictionaries
loop_
_symmetry_equiv_pos_site_id
_symmetry_equiv_pos_as_xyz
1 +x,+y,+z
2 -x,+y,+z
3 +x,-y+1/2,+z
4 -x,-y+1/2,+z
-1 -x,-y,-z
-2 +x,-y,-z
-3 -x,+y+1/2,-z
-4 +x,+y+1/2,-z
101 +x+1/2,+y+1/2,+z+1/2
102 -x+1/2,+y+1/2,+z+1/2
103 +x+1/2,-y,+z+1/2
104 -x+1/2,-y,+z+1/2
-101 -x+1/2,-y+1/2,-z+1/2
-102 +x+1/2,-y+1/2,-z+1/2
-103 -x+1/2,+y,-z+1/2
-104 +x+1/2,+y,-z+1/2
loop_
_atom_site_type_symbol
_atom_site_label
_atom_site_fract_x
_atom_site_fract_y
_atom_site_fract_z
_atom_site_occupancy
_atom_site_thermal_displace_type
_atom_site_U_iso_or_equiv
_atom_site_symmetry_multiplicity
Al Al1 0.25 0.25 0.75 1.0 Uiso 0.0223(11) 4
O O2 0.0 0.25 0.6854(5) 1.0 Uiso 0.0214(9) 4
O O1 0.16496(33) 0.16866(15) 0.84287(23) 1.0 Uiso 0.0214(9) 16
C C3 -0.1903(5) 0.03598(32) 0.9682(4) 1.0 Uiso 0.0408(16) 16
C C2 0.0 0.0622(4) 0.9482(6) 1.0 Uiso 0.0408(16) 8
C C1 0.0 0.1358(4) 0.8722(6) 1.0 Uiso 0.0408(16) 8
loop_
_atom_type_symbol
_atom_type_number_in_cell
_atom_type_scat_dispersion_real
_atom_type_scat_dispersion_imag
_atom_type_scat_Cromer_Mann_a1
_atom_type_scat_Cromer_Mann_a2
_atom_type_scat_Cromer_Mann_a3
_atom_type_scat_Cromer_Mann_a4
_atom_type_scat_Cromer_Mann_b1
_atom_type_scat_Cromer_Mann_b2
_atom_type_scat_Cromer_Mann_b3
_atom_type_scat_Cromer_Mann_b4
_atom_type_scat_Cromer_Mann_c
_atom_type_scat_source
Al 4.0 0.000 0.000 6.42020 3.03870 1.90020 0.74260 1.59360 31.5472 1.96460
85.0886 1.11510 International_Tables_Vol_C
O 20.0 0.000 0.000 3.04850 13.2771 2.28680 5.70110 1.54630 0.32390 0.86700
32.9089 0.25080 International_Tables_Vol_C
C 32.0 0.000 0.000 2.31000 20.8439 1.02000 10.2075 1.58860 0.56870 0.86500
51.6512 0.21560 International_Tables_Vol_C
loop_
_geom_angle_atom_site_label_1
_geom_angle_atom_site_label_2
_geom_angle_atom_site_label_3
_geom_angle
_geom_angle_site_symmetry_1
_geom_angle_site_symmetry_3
_geom_angle_publ_flag
O2 Al1 O2 180.0 1_555 -101_546 n
O2 Al1 O1 90.93(13) 1_555 1_555 n
O2 Al1 O1 90.93(13) 1_555 3_555 n
O2 Al1 O1 89.07(13) 1_555 -101_566 n
O2 Al1 O1 89.07(13) 1_555 -103_566 n
O2 Al1 O1 89.07(13) -101_566 1_555 n
O2 Al1 O1 89.07(13) -101_566 3_555 n
O2 Al1 O1 90.93(13) -101_566 -101_566 n
O2 Al1 O1 90.93(13) -101_566 -103_566 n
O1 Al1 O1 91.68(19) 1_555 3_555 n
O1 Al1 O1 180.0 1_555 -101_566 n
O1 Al1 O1 88.32(19) 1_555 -103_566 n
O1 Al1 O1 88.32(19) 3_555 -101_566 n
O1 Al1 O1 180.0 3_555 -103_566 n
O1 Al1 O1 91.68(19) -101_566 -103_566 n
Al1 O2 Al1 126.78(32) 1_555 2_555 n
Al1 O1 C1 138.3(4) 1_555 1_555 n
C3 C3 C2 111.9(4) -2_557 1_555 n
C3 C2 C3 136.1(8) 1_555 2_555 n
C3 C2 C1 111.7(4) 1_555 1_555 n
C3 C2 C1 111.7(4) 2_555 1_555 n
O1 C1 O1 117.3(6) 1_555 2_555 n
O1 C1 C2 121.26(32) 1_555 1_555 n
O1 C1 C2 121.26(32) 2_555 1_555 n
loop_
_geom_bond_atom_site_label_1
_geom_bond_atom_site_label_2
_geom_bond_distance
_geom_bond_site_symmetry_2
_geom_bond_publ_flag
Al1 O2 1.8534(26) 1_555 n
Al1 O2 1.8534(26) -101_445 n
Al1 O1 1.8948(21) 1_555 n
Al1 O1 1.8948(21) 3_555 n
Al1 O1 1.8948(21) -101_445 n
Al1 O1 1.8948(21) -103_445 n
O2 Al1 1.8534(26) 1_555 n
O2 Al1 1.8534(26) 2_555 n
O1 Al1 1.8948(21) 1_555 n
O1 C1 1.280(4) 1_555 n
C3 C3 1.454(8) -2_557 n
C3 C2 1.3597(32) 1_555 n
C2 C3 1.3597(32) 1_555 n
C2 C3 1.3597(32) 2_555 n
C2 C1 1.571(7) 1_555 n
C1 O1 1.280(4) 1_555 n
C1 O1 1.280(4) 2_555 n
C1 C2 1.571(7) 1_555 n
loop_
_pd_meas_intensity_total
_pd_proc_ls_weight
_pd_proc_intensity_bkg_calc
_pd_calc_intensity_total
19.0(23) 0.0 0.00 .
19.8(23) 0.0 0.00 .
22.0(25) 0.0 0.00 .
16.0(20) 0.0 0.00 .
38.1(33) 0.0 0.00 .
123(6) 0.0 0.0 .
93(5) 0.0 0.0 .
671(15) 0.0 0.0 .
1276(19) 0.0 0.0 .
2465(26) 0.0 0.0 .
2707(27) 0.0 0.0 .
2765(28) 0.0 0.0 .
2837(29) 0.0 0.0 .
1023(17) 0.0 0.0 .
90(5) 0.0 0.0 .
56(4) 0.0 0.0 .
41.1(33) 0.0 0.00 .
34.4(30) 0.0 0.00 .
43(4) 0.0 0.0 .
48(4) 0.0 0.0 .
198(7) 0.0 0.0 .
340(10) 0.0 0.0 .
718(15) 0.0 0.0 .
906(16) 0.0 0.0 .
961(16) 0.0 0.0 .
1203(18) 0.0 0.0 .
1297(20) 0.0 0.0 .
1437(21) 0.0 0.0 .
1678(22) 0.0 0.0 .
1868(22) 0.0 0.0 .
1955(24) 0.0 0.0 .
2042(25) 0.0 0.0 .
1858(23) 0.0 0.0 .
1631(21) 0.0 0.0 .
1113(17) 0.0 0.0 .
597(14) 0.0 0.0 .
338(10) 0.0 0.0 .
230(8) 0.0 0.0 .
136(6) 0.0 0.0 .
75(5) 0.0 0.0 .
41.1(35) 0.0 0.00 .
34.9(32) 0.0 0.00 .
26.4(27) 0.0 0.00 .
30.2(29) 0.0 0.00 .
24.6(26) 0.0 0.00 .
33.8(32) 0.0 0.00 .
31.6(32) 0.0 0.00 .
30.8(31) 0.0 0.00 .
23.6(25) 0.0 0.00 .
33.5(30) 0.0 0.00 .
39.6(34) 0.0 0.00 .
27.9(30) 0.0 0.00 .
26.9(28) 0.0 0.00 .
30.0(29) 0.0 0.00 .
28.0(28) 0.0 0.00 .
29.8(28) 0.0 0.00 .
41(4) 0.0 0.0 .
34.9(34) 0.0 0.00 .
30.1(29) 0.0 0.00 .
31.2(30) 0.0 0.00 .
34.6(34) 0.0 0.00 .
35.9(32) 0.0 0.00 .
27.4(27) 0.0 0.00 .
34.3(32) 0.0 0.00 .
38.8(33) 0.0 0.00 .
44(4) 0.0 0.0 .
32.2(31) 0.0 0.00 .
28.2(30) 0.0 0.00 .
31.2(29) 0.0 0.00 .
31.5(30) 0.0 0.00 .
27.4(28) 0.0 0.00 .
27.7(29) 0.0 0.00 .
28.0(29) 0.0 0.00 .
32.8(30) 0.0 0.00 .
32.3(30) 0.0 0.00 .
21.7(25) 0.0 0.00 .
31.5(34) 0.0 0.00 .
35.5(32) 0.0 0.00 .
34.3(31) 0.0 0.00 .
33.7(31) 0.0 0.00 .
34.8(31) 0.0 0.00 .
37.2(35) 0.0 0.00 .
37.3(33) 0.0 0.00 .
33.2(30) 0.0 0.00 .
36.3(32) 0.0 0.00 .
44(4) 0.0 0.0 .
40(4) 0.0 0.0 .
38.0(32) 0.0 0.00 .
35.1(31) 0.0 0.00 .
40.9(34) 0.0 0.00 .
34.2(32) 0.0 0.00 .
35.2(32) 0.0 0.00 .
40.6(33) 0.0 0.00 .
34.6(31) 0.0 0.00 .
52(4) 0.0 0.0 .
58(4) 0.0 0.0 .
66(4) 0.0 0.0 .
77(5) 0.0 0.0 .
85(5) 0.0 0.0 .
99(5) 0.0 0.0 .
101(5) 0.0 0.0 .
115(6) 0.0 0.0 .
105(5) 0.0 0.0 .
119(6) 0.0 0.0 .
124(6) 0.0 0.0 .
146(7) 0.0 0.0 .
162(7) 0.0 0.0 .
160(7) 0.0 0.0 .
170(7) 0.0 0.0 .
183(7) 0.0 0.0 .
190(8) 0.0 0.0 .
204(8) 0.0 0.0 .
223(8) 0.0 0.0 .
211(8) 0.0 0.0 .
206(8) 0.0 0.0 .
230(8) 0.0 0.0 .
212(8) 0.0 0.0 .
269(8) 0.0 0.0 .
270(9) 0.0 0.0 .
266(9) 0.0 0.0 .
281(9) 0.0 0.0 .
311(10) 0.0 0.0 .
295(9) 0.0 0.0 .
319(9) 0.0 0.0 .
311(9) 0.0 0.0 .
311(10) 0.0 0.0 .
322(10) 0.0 0.0 .
332(9) 0.0 0.0 .
363(10) 0.0 0.0 .
374(11) 0.0 0.0 .
355(10) 0.0 0.0 .
374(10) 0.0 0.0 .
388(10) 0.0 0.0 .
366(10) 0.0 0.0 .
387(11) 0.0 0.0 .
427(11) 0.0 0.0 .
422(11) 0.0 0.0 .
434(11) 0.0 0.0 .
438(11) 0.0 0.0 .
464(12) 0.0 0.0 .
418(11) 0.0 0.0 .
505(12) 0.0 0.0 .
488(11) 0.0 0.0 .
486(12) 0.0 0.0 .
486(12) 0.0 0.0 .
505(12) 0.0 0.0 .
473(11) 0.0 0.0 .
471(11) 0.0 0.0 .
517(12) 0.0 0.0 .
455(12) 0.0 0.0 .
515(12) 0.0 0.0 .
520(12) 0.0 0.0 .
527(12) 0.0 0.0 .
519(12) 0.0 0.0 .
521(13) 0.0 0.0 .
522(12) 0.0 0.0 .
544(12) 0.0 0.0 .
515(12) 0.0 0.0 .
566(13) 0.0 0.0 .
551(13) 0.0 0.0 .
531(12) 0.0 0.0 .
522(12) 0.0 0.0 .
559(12) 0.0 0.0 .
551(13) 0.0 0.0 .
547(13) 0.0 0.0 .
548(13) 0.0 0.0 .
541(12) 0.0 0.0 .
577(13) 0.0 0.0 .
563(13) 0.0 0.0 .
604(13) 0.0 0.0 .
587(13) 0.0 0.0 .
604(13) 0.0 0.0 .
583(13) 0.0 0.0 .
585(13) 0.0 0.0 .
620(14) 0.0 0.0 .
615(13) 0.0 0.0 .
582(13) 0.0 0.0 .
636(13) 0.0 0.0 .
606(13) 0.0 0.0 .
602(13) 0.0 0.0 .
645(14) 0.0 0.0 .
605(13) 0.0 0.0 .
647(14) 0.0 0.0 .
602(13) 0.0 0.0 .
621(14) 0.0 0.0 .
633(13) 0.0 0.0 .
655(13) 0.0 0.0 .
651(14) 0.0 0.0 .
659(14) 0.0 0.0 .
639(14) 0.0 0.0 .
653(13) 0.0 0.0 .
632(13) 0.0 0.0 .
656(14) 0.0 0.0 .
668(14) 0.0 0.0 .
669(14) 0.0 0.0 .
651(13) 0.0 0.0 .
674(13) 0.0 0.0 .
664(14) 0.0 0.0 .
668(14) 0.0 0.0 .
675(14) 0.0 0.0 .
712(14) 0.0 0.0 .
704(14) 0.0 0.0 .
706(14) 0.0 0.0 .
699(15) 0.0 0.0 .
708(14) 0.0 0.0 .
691(14) 0.0 0.0 .
664(13) 0.0 0.0 .
743(15) 0.0 0.0 .
676(14) 0.0 0.0 .
692(14) 0.0 0.0 .
706(14) 0.0 0.0 .
713(14) 0.0 0.0 .
719(14) 0.0 0.0 .
693(14) 0.0 0.0 .
739(15) 0.0 0.0 .
758(14) 0.0 0.0 .
736(14) 0.0 0.0 .
718(14) 0.0 0.0 .
706(14) 0.0 0.0 .
729(14) 0.0 0.0 .
778(14) 0.0 0.0 .
772(15) 0.0 0.0 .
770(15) 0.0 0.0 .
780(15) 0.0 0.0 .
769(15) 0.0 0.0 .
773(14) 0.0 0.0 .
782(15) 0.0 0.0 .
760(15) 0.0 0.0 .
797(15) 0.0 0.0 .
812(15) 0.0 0.0 .
776(14) 0.0 0.0 .
845(16) 0.0 0.0 .
797(15) 0.0 0.0 .
836(16) 0.0 0.0 .
775(15) 0.0 0.0 .
749(14) 0.0 0.0 .
826(16) 0.0 0.0 .
837(16) 0.0 0.0 .
824(15) 0.0 0.0 .
836(15) 0.0 0.0 .
805(15) 0.0 0.0 .
801(15) 0.0 0.0 .
805(16) 0.0 0.0 .
807(15) 0.0 0.0 .
818(15) 0.0 0.0 .
855(15) 0.0 0.0 .
828(15) 0.0 0.0 .
860(16) 0.0 0.0 .
831(16) 0.0 0.0 .
821(15) 0.0 0.0 .
839(15) 0.0 0.0 .
864(16) 0.0 0.0 .
841(16) 0.0 0.0 .
804(15) 0.0 0.0 .
850(15) 0.0 0.0 .
860(15) 0.0 0.0 .
869(16) 0.0 0.0 .
849(16) 0.0 0.0 .
860(16) 0.0 0.0 .
872(15) 0.0 0.0 .
825(15) 0.0 0.0 .
836(15) 0.0 0.0 .
874(16) 0.0 0.0 .
883(16) 0.0 0.0 .
862(15) 0.0 0.0 .
911(16) 0.0 0.0 .
860(16) 0.0 0.0 .
891(17) 0.0 0.0 .
895(16) 0.0 0.0 .
841(15) 0.0 0.0 .
860(16) 0.0 0.0 .
874(16) 0.0 0.0 .
861(16) 0.0 0.0 .
858(16) 0.0 0.0 .
887(15) 0.0 0.0 .
889(16) 0.0 0.0 .
882(16) 0.0 0.0 .
889(16) 0.0 0.0 .
883(16) 0.0 0.0 .
894(15) 0.0 0.0 .
906(16) 0.0 0.0 .
881(16) 0.0 0.0 .
892(16) 0.0 0.0 .
891(16) 0.0 0.0 .
842(15) 0.0 0.0 .
914(16) 0.0 0.0 .
893(16) 0.0 0.0 .
856(16) 0.0 0.0 .
950(16) 0.0 0.0 .
948(16) 0.0 0.0 .
922(16) 0.0 0.0 .
944(17) 0.0 0.0 .
883(16) 0.0 0.0 .
909(16) 0.0 0.0 .
940(16) 0.0 0.0 .
949(17) 0.0 0.0 .
899(16) 0.0 0.0 .
924(16) 0.0 0.0 .
885(15) 0.0 0.0 .
910(16) 0.0 0.0 .
928(16) 0.0 0.0 .
952(17) 0.0 0.0 .
952(17) 0.0 0.0 .
983(16) 0.0 0.0 .
988(16) 0.0 0.0 .
919(16) 0.0 0.0 .
966(17) 0.0 0.0 .
971(17) 0.0 0.0 .
984(16) 0.0 0.0 .
938(16) 0.0 0.0 .
919(16) 0.0 0.0 .
952(17) 0.0 0.0 .
982(17) 0.0 0.0 .
964(16) 0.0 0.0 .
969(16) 0.0 0.0 .
974(17) 0.0 0.0 .
917(17) 0.0 0.0 .
928(17) 0.0 0.0 .
970(16) 0.0 0.0 .
947(16) 0.0 0.0 .
973(17) 0.0 0.0 .
965(17) 0.0 0.0 .
981(17) 0.0 0.0 .
969(16) 0.0 0.0 .
992(17) 0.0 0.0 .
977(17) 0.0 0.0 .
933(17) 0.0 0.0 .
936(16) 0.0 0.0 .
962(16) 0.0 0.0 .
1011(17) 0.0 0.0 .
1014(17) 0.0 0.0 .
990(17) 0.0 0.0 .
920(16) 0.0 0.0 .
932(16) 0.0 0.0 .
977(17) 0.0 0.0 .
987(17) 0.0 0.0 .
1002(17) 0.0 0.0 .
970(16) 0.0 0.0 .
946(16) 0.0 0.0 .
983(17) 0.0 0.0 .
977(17) 0.0 0.0 .
985(17) 0.0 0.0 .
1005(17) 0.0 0.0 .
963(16) 0.0 0.0 .
1004(17) 0.0 0.0 .
996(17) 0.0 0.0 .
1012(17) 0.0 0.0 .
978(16) 0.0 0.0 .
1028(17) 0.0 0.0 .
1007(17) 0.0 0.0 .
1036(18) 0.0 0.0 .
1048(17) 0.0 0.0 .
975(16) 0.0 0.0 .
1019(17) 0.0 0.0 .
1001(17) 0.0 0.0 .
1016(18) 0.0 0.0 .
1040(17) 0.0 0.0 .
1027(17) 0.0 0.0 .
1039(17) 0.0 0.0 .
1089(18) 0.0 0.0 .
1059(18) 0.0 0.0 .
1077(18) 0.0 0.0 .
1089(17) 0.0 0.0 .
1097(17) 0.0 0.0 .
1077(18) 0.0 0.0 .
1083(18) 0.0 0.0 .
1060(18) 0.0 0.0 .
1049(17) 0.0 0.0 .
1097(17) 0.0 0.0 .
1053(17) 0.0 0.0 .
1118(18) 0.0 0.0 .
1114(18) 0.0 0.0 .
1028(17) 0.0 0.0 .
1082(17) 0.0 0.0 .
1117(18) 0.0 0.0 .
1094(18) 0.0 0.0 .
1098(18) 0.0 0.0 .
1128(17) 0.0 0.0 .
1123(18) 0.0 0.0 .
1135(18) 0.0 0.0 .
1133(18) 0.0 0.0 .
1103(18) 0.0 0.0 .
1141(17) 0.0 0.0 .
1185(19) 0.0 0.0 .
1135(18) 0.0 0.0 .
1149(18) 0.0 0.0 .
1127(18) 0.0 0.0 .
1140(18) 0.0 0.0 .
1144(18) 0.0 0.0 .
1136(18) 0.0 0.0 .
1127(18) 0.0 0.0 .
1163(18) 0.0 0.0 .
1188(18) 0.0 0.0 .
1171(18) 0.0 0.0 .
1146(19) 0.0 0.0 .
1134(18) 0.0 0.0 .
1136(17) 0.0 0.0 .
1177(18) 0.0 0.0 .
1176(19) 0.0 0.0 .
1127(18) 0.0 0.0 .
1174(18) 0.0 0.0 .
1155(18) 0.0 0.0 .
1160(18) 0.0 0.0 .
1161(18) 0.0 0.0 .
1166(19) 0.0 0.0 .
1169(18) 0.0 0.0 .
1262(18) 0.0 0.0 .
1218(18) 0.0 0.0 .
1264(19) 0.0 0.0 .
1206(19) 0.0 0.0 .
1167(18) 0.0 0.0 .
1181(18) 0.0 0.0 .
1176(18) 0.0 0.0 .
1186(18) 0.0 0.0 .
1210(19) 0.0 0.0 .
1238(19) 0.0 0.0 .
1245(18) 0.0 0.0 .
1229(18) 0.0 0.0 .
1200(19) 0.0 0.0 .
1243(19) 0.0 0.0 .
1231(19) 0.0 0.0 .
1195(18) 0.0 0.0 .
1208(18) 0.0 0.0 .
1208(19) 0.0 0.0 .
1190(19) 0.0 0.0 .
1231(19) 0.0 0.0 .
1240(18) 0.0 0.0 .
1213(18) 0.0 0.0 .
1215(19) 0.0 0.0 .
1271(19) 0.0 0.0 .
1212(19) 0.0 0.0 .
1219(18) 0.0 0.0 .
1261(19) 0.0 0.0 .
1209(19) 0.0 0.0 .
1200(19) 0.0 0.0 .
1235(19) 0.0 0.0 .
1189(18) 0.0 0.0 .
1274(19) 0.0 0.0 .
1226(19) 0.0 0.0 .
1237(19) 0.0 0.0 .
1233(18) 0.0 0.0 .
1198(18) 0.0 0.0 .
1211(19) 0.0 0.0 .
1229(19) 0.0 0.0 .
1236(19) 0.0 0.0 .
1208(18) 0.0 0.0 .
1207(18) 0.0 0.0 .
1226(19) 0.0 0.0 .
1249(20) 0.0 0.0 .
1171(18) 0.0 0.0 .
1262(19) 0.0 0.0 .
1279(19) 0.0 0.0 .
1290(19) 0.0 0.0 .
1273(20) 0.0 0.0 .
1183(18) 0.0 0.0 .
1243(18) 0.0 0.0 .
1227(18) 0.0 0.0 .
1226(19) 0.0 0.0 .
1233(20) 0.0 0.0 .
1190(18) 0.0 0.0 .
1209(18) 0.0 0.0 .
1220(18) 0.0 0.0 .
1260(19) 0.0 0.0 .
1194(19) 0.0 0.0 .
1229(19) 0.0 0.0 .
1244(18) 0.0 0.0 .
1209(18) 0.0 0.0 .
1204(18) 0.0 0.0 .
1223(19) 0.0 0.0 .
1242(19) 0.0 0.0 .
1286(19) 0.0 0.0 .
1283(19) 0.0 0.0 .
1244(19) 0.0 0.0 .
1223(19) 0.0 0.0 .
1221(19) 0.0 0.0 .
1199(18) 0.0 0.0 .
1197(18) 0.0 0.0 .
1261(19) 0.0 0.0 .
1197(19) 0.0 0.0 .
1273(19) 0.0 0.0 .
1300(19) 0.0 0.0 .
1197(18) 0.0 0.0 .
1211(19) 0.0 0.0 .
1221(19) 0.0 0.0 .
1261(19) 0.0 0.0 .
1219(18) 0.0 0.0 .
1202(19) 0.0 0.0 .
1250(19) 0.0 0.0 .
1238(19) 0.0 0.0 .
1236(19) 0.0 0.0 .
1227(18) 0.0 0.0 .
1241(19) 0.0 0.0 .
1232(19) 0.0 0.0 .
1312(20) 0.0 0.0 .
1235(18) 0.0 0.0 .
1278(19) 0.0 0.0 .
1235(19) 0.0 0.0 .
1230(19) 0.0 0.0 .
1226(19) 0.0 0.0 .
1198(18) 0.0 0.0 .
1192(18) 0.0 0.0 .
1229(19) 0.0 0.0 .
1206(19) 0.0 0.0 .
1206(19) 0.0 0.0 .
1277(19) 0.0 0.0 .
1261(18) 0.0 0.0 .
1226(19) 0.0 0.0 .
1221(19) 0.0 0.0 .
1192(18) 0.0 0.0 .
1197(18) 0.0 0.0 .
1209(18) 0.0 0.0 .
1209(19) 0.0 0.0 .
1218(19) 0.0 0.0 .
1229(19) 0.0 0.0 .
1199(18) 0.0 0.0 .
1126(18) 0.0 0.0 .
1213(19) 0.0 0.0 .
1206(19) 0.0 0.0 .
1286(19) 0.0 0.0 .
1153(18) 0.0 0.0 .
1197(18) 0.0 0.0 .
1223(19) 0.0 0.0 .
1193(19) 0.0 0.0 .
1221(19) 0.0 0.0 .
1241(18) 0.0 0.0 .
1240(19) 0.0 0.0 .
1252(19) 0.0 0.0 .
1180(18) 0.0 0.0 .
1271(19) 0.0 0.0 .
1244(18) 0.0 0.0 .
1250(19) 0.0 0.0 .
1249(19) 0.0 0.0 .
1219(19) 0.0 0.0 .
1253(19) 0.0 0.0 .
1189(18) 0.0 0.0 .
1197(18) 0.0 0.0 .
1192(19) 0.0 0.0 .
1217(19) 0.0 0.0 .
1191(18) 0.0 0.0 .
1256(18) 0.0 0.0 .
1214(19) 0.0 0.0 .
1168(19) 0.0 0.0 .
1187(19) 0.0 0.0 .
1192(18) 0.0 0.0 .
1245(18) 0.0 0.0 .
1231(19) 0.0 0.0 .
1232(19) 0.0 0.0 .
1208(19) 0.0 0.0 .
1173(18) 0.0 0.0 .
1146(18) 0.0 0.0 .
1228(19) 0.0 0.0 .
1197(19) 0.0 0.0 .
1224(19) 0.0 0.0 .
1242(18) 0.0 0.0 .
1212(18) 0.0 0.0 .
1212(19) 0.0 0.0 .
1248(20) 0.0 0.0 .
1177(18) 0.0 0.0 .
1201(18) 0.0 0.0 .
1146(18) 0.0 0.0 .
1208(19) 0.0 0.0 .
1229(19) 0.0 0.0 .
1235(19) 0.0 0.0 .
1223(18) 0.0 0.0 .
1186(18) 0.0 0.0 .
1169(18) 0.0 0.0 .
1182(19) 0.0 0.0 .
1234(19) 0.0 0.0 .
1206(18) 0.0 0.0 .
1158(18) 0.0 0.0 .
1167(18) 0.0 0.0 .
1224(19) 0.0 0.0 .
1202(18) 0.0 0.0 .
1166(18) 0.0 0.0 .
1161(18) 0.0 0.0 .
1201(19) 0.0 0.0 .
1188(19) 0.0 0.0 .
1163(18) 0.0 0.0 .
1177(18) 0.0 0.0 .
1166(18) 0.0 0.0 .
1170(18) 0.0 0.0 .
1227(19) 0.0 0.0 .
1222(19) 0.0 0.0 .
1186(18) 0.0 0.0 .
1187(19) 0.0 0.0 .
1238(19) 0.0 0.0 .
1187(18) 0.0 0.0 .
1180(18) 0.0 0.0 .
1208(18) 0.0 0.0 .
1165(18) 0.0 0.0 .
1192(19) 0.0 0.0 .
1202(19) 0.0 0.0 .
1119(18) 0.0 0.0 .
1175(18) 0.0 0.0 .
1187(19) 0.0 0.0 .
1177(19) 0.0 0.0 .
1243(19) 0.0 0.0 .
1253(19) 0.0 0.0 .
1180(18) 0.0 0.0 .
1155(18) 0.0 0.0 .
1202(19) 0.0 0.0 .
1156(18) 0.0 0.0 .
1160(18) 0.0 0.0 .
1164(18) 0.0 0.0 .
1157(18) 0.0 0.0 .
1160(19) 0.0 0.0 .
1089(18) 0.0 0.0 .
1136(17) 0.0 0.0 .
1179(18) 0.0 0.0 .
1150(18) 0.0 0.0 .
1168(19) 0.0 0.0 .
1185(19) 0.0 0.0 .
1107(17) 0.0 0.0 .
1175(18) 0.0 0.0 .
1171(18) 0.0 0.0 .
1118(18) 0.0 0.0 .
1149(18) 0.0 0.0 .
1123(17) 0.0 0.0 .
1155(18) 0.0 0.0 .
1164(18) 0.0 0.0 .
1151(19) 0.0 0.0 .
1133(18) 0.0 0.0 .
1080(17) 0.0 0.0 .
1153(18) 0.0 0.0 .
1154(18) 0.0 0.0 .
1123(18) 0.0 0.0 .
1143(18) 0.0 0.0 .
1117(17) 0.0 0.0 .
1079(17) 0.0 0.0 .
1160(18) 0.0 0.0 .
1106(18) 0.0 0.0 .
1110(18) 0.0 0.0 .
1115(17) 0.0 0.0 .
1090(17) 0.0 0.0 .
1172(19) 0.0 0.0 .
1155(18) 0.0 0.0 .
1109(18) 0.0 0.0 .
1147(18) 0.0 0.0 .
1135(18) 0.0 0.0 .
1114(18) 0.0 0.0 .
1113(18) 0.0 0.0 .
1120(18) 0.0 0.0 .
1080(17) 0.0 0.0 .
1098(18) 0.0 0.0 .
1122(18) 0.0 0.0 .
1129(18) 0.0 0.0 .
1162(18) 0.0 0.0 .
1110(17) 0.0 0.0 .
1137(18) 0.0 0.0 .
1103(18) 0.0 0.0 .
1112(18) 0.0 0.0 .
1082(17) 0.0 0.0 .
1123(17) 0.0 0.0 .
1094(18) 0.0 0.0 .
1105(18) 0.0 0.0 .
1138(18) 0.0 0.0 .
1105(17) 0.0 0.0 .
1121(17) 0.0 0.0 .
1090(18) 0.0 0.0 .
1134(19) 0.0 0.0 .
1113(18) 0.0 0.0 .
1061(17) 0.0 0.0 .
1112(17) 0.0 0.0 .
1135(18) 0.0 0.0 .
1113(18) 0.0 0.0 .
1112(18) 0.0 0.0 .
1093(17) 0.0 0.0 .
1084(17) 0.0 0.0 .
1076(18) 0.0 0.0 .
1099(18) 0.0 0.0 .
1110(18) 0.0 0.0 .
1078(17) 0.0 0.0 .
1067(17) 0.0 0.0 .
1069(18) 0.0 0.0 .
1100(18) 0.0 0.0 .
1084(18) 0.0 0.0 .
1071(17) 0.0 0.0 .
1099(18) 0.0 0.0 .
1076(18) 0.0 0.0 .
1058(18) 0.0 0.0 .
1101(18) 0.0 0.0 .
1127(17) 0.0 0.0 .
1099(18) 0.0 0.0 .
1087(18) 0.0 0.0 .
1099(18) 0.0 0.0 .
1089(17) 0.0 0.0 .
1119(17) 0.0 0.0 .
1038(17) 0.0 0.0 .
1050(18) 0.0 0.0 .
1067(18) 0.0 0.0 .
1057(17) 0.0 0.0 .
1115(17) 0.0 0.0 .
1067(18) 0.0 0.0 .
1081(18) 0.0 0.0 .
1096(18) 0.0 0.0 .
1047(17) 0.0 0.0 .
1072(17) 0.0 0.0 .
1078(17) 0.0 0.0 .
1054(18) 0.0 0.0 .
1024(17) 0.0 0.0 .
1094(17) 0.0 0.0 .
1067(17) 0.0 0.0 .
1074(17) 0.0 0.0 .
1090(18) 0.0 0.0 .
1097(18) 0.0 0.0 .
1115(17) 0.0 0.0 .
1077(17) 0.0 0.0 .
1018(17) 0.0 0.0 .
1020(18) 0.0 0.0 .
1050(17) 0.0 0.0 .
1030(17) 0.0 0.0 .
1024(17) 0.0 0.0 .
1054(17) 0.0 0.0 .
1041(18) 0.0 0.0 .
1059(18) 0.0 0.0 .
1097(17) 0.0 0.0 .
1094(17) 0.0 0.0 .
1121(18) 0.0 0.0 .
1088(18) 0.0 0.0 .
1088(18) 0.0 0.0 .
1076(17) 0.0 0.0 .
1069(17) 0.0 0.0 .
1024(17) 0.0 0.0 .
1022(18) 0.0 0.0 .
1016(17) 0.0 0.0 .
1045(17) 0.0 0.0 .
1051(17) 0.0 0.0 .
1060(18) 0.0 0.0 .
1031(17) 0.0 0.0 .
1026(17) 0.0 0.0 .
1025(17) 0.0 0.0 .
1007(17) 0.0 0.0 .
1038(18) 0.0 0.0 .
964(17) 0.0 0.0 .
999(17) 0.0 0.0 .
1044(17) 0.0 0.0 .
1049(17) 0.0 0.0 .
1042(18) 0.0 0.0 .
975(17) 0.0 0.0 .
987(17) 0.0 0.0 .
997(16) 0.0 0.0 .
1050(18) 0.0 0.0 .
1001(17) 0.0 0.0 .
1014(17) 0.0 0.0 .
1002(17) 0.0 0.0 .
1015(16) 0.0 0.0 .
1026(17) 0.0 0.0 .
1077(18) 0.0 0.0 .
1037(17) 0.0 0.0 .
1011(17) 0.0 0.0 .
1043(17) 0.0 0.0 .
1017(17) 0.0 0.0 .
990(17) 0.0 0.0 .
1009(17) 0.0 0.0 .
1019(17) 0.0 0.0 .
990(16) 0.0 0.0 .
1038(17) 0.0 0.0 .
1047(18) 0.0 0.0 .
954(17) 0.0 0.0 .
1027(17) 0.0 0.0 .
998(16) 0.0 0.0 .
968(16) 0.0 0.0 .
1034(18) 0.0 0.0 .
990(17) 0.0 0.0 .
1039(17) 0.0 0.0 .
1006(17) 0.0 0.0 .
993(17) 0.0 0.0 .
1002(18) 0.0 0.0 .
1002(17) 0.0 0.0 .
994(16) 0.0 0.0 .
1065(17) 0.0 0.0 .
998(17) 0.0 0.0 .
1053(18) 0.0 0.0 .
1044(18) 0.0 0.0 .
961(16) 0.0 0.0 .
1018(17) 0.0 0.0 .
992(17) 0.0 0.0 .
1009(17) 0.0 0.0 .
1010(17) 0.0 0.0 .
948(16) 0.0 0.0 .
995(17) 0.0 0.0 .
967(17) 0.0 0.0 .
976(17) 0.0 0.0 .
954(16) 0.0 0.0 .
961(16) 0.0 0.0 .
988(17) 0.0 0.0 .
976(17) 0.0 0.0 .
965(17) 0.0 0.0 .
995(17) 0.0 0.0 .
984(16) 0.0 0.0 .
999(17) 0.0 0.0 .
1004(17) 0.0 0.0 .
1000(17) 0.0 0.0 .
992(16) 0.0 0.0 .
1001(16) 0.0 0.0 .
1000(17) 0.0 0.0 .
973(17) 0.0 0.0 .
955(16) 0.0 0.0 .
1022(17) 0.0 0.0 .
1004(16) 0.0 0.0 .
1000(17) 0.0 0.0 .
982(17) 0.0 0.0 .
936(16) 0.0 0.0 .
966(16) 0.0 0.0 .
963(16) 0.0 0.0 .
963(17) 0.0 0.0 .
967(17) 0.0 0.0 .
970(17) 0.0 0.0 .
985(16) 0.0 0.0 .
990(16) 0.0 0.0 .
990(17) 0.0 0.0 .
972(17) 0.0 0.0 .
966(17) 0.0 0.0 .
952(16) 0.0 0.0 .
950(16) 0.0 0.0 .
978(17) 0.0 0.0 .
985(17) 0.0 0.0 .
944(17) 0.0 0.0 .
976(16) 0.0 0.0 .
968(16) 0.0 0.0 .
953(17) 0.0 0.0 .
942(17) 0.0 0.0 .
979(17) 0.0 0.0 .
939(16) 0.0 0.0 .
926(16) 0.0 0.0 .
954(17) 0.0 0.0 .
943(17) 0.0 0.0 .
935(16) 0.0 0.0 .
936(16) 0.0 0.0 .
959(16) 0.0 0.0 .
941(16) 0.0 0.0 .
987(17) 0.0 0.0 .
964(17) 0.0 0.0 .
938(16) 0.0 0.0 .
954(17) 0.0 0.0 .
961(17) 0.0 0.0 .
947(17) 0.0 0.0 .
963(17) 0.0 0.0 .
941(16) 0.0 0.0 .
959(17) 0.0 0.0 .
934(17) 0.0 0.0 .
938(16) 0.0 0.0 .
948(16) 0.0 0.0 .
957(16) 0.0 0.0 .
933(17) 0.0 0.0 .
907(16) 0.0 0.0 .
891(16) 0.0 0.0 .
940(16) 0.0 0.0 .
958(16) 0.0 0.0 .
938(16) 0.0 0.0 .
944(17) 0.0 0.0 .
921(16) 0.0 0.0 .
907(16) 0.0 0.0 .
897(16) 0.0 0.0 .
941(17) 0.0 0.0 .
954(17) 0.0 0.0 .
947(17) 0.0 0.0 .
944(16) 0.0 0.0 .
903(16) 0.0 0.0 .
960(17) 0.0 0.0 .
889(17) 0.0 0.0 .
912(16) 0.0 0.0 .
956(16) 0.0 0.0 .
953(16) 0.0 0.0 .
965(16) 0.0 0.0 .
911(17) 0.0 0.0 .
903(16) 0.0 0.0 .
899(16) 0.0 0.0 .
944(16) 0.0 0.0 .
945(16) 0.0 0.0 .
929(17) 0.0 0.0 .
912(16) 0.0 0.0 .
919(16) 0.0 0.0 .
911(16) 0.0 0.0 .
919(16) 0.0 0.0 .
903(16) 0.0 0.0 .
894(16) 0.0 0.0 .
904(16) 0.0 0.0 .
903(16) 0.0 0.0 .
909(16) 0.0 0.0 .
896(16) 0.0 0.0 .
909(16) 0.0 0.0 .
935(16) 0.0 0.0 .
945(16) 0.0 0.0 .
929(17) 0.0 0.0 .
891(16) 0.0 0.0 .
910(16) 0.0 0.0 .
903(16) 0.0 0.0 .
906(16) 0.0 0.0 .
918(17) 0.0 0.0 .
895(16) 0.0 0.0 .
967(16) 0.0 0.0 .
895(16) 0.0 0.0 .
933(17) 0.0 0.0 .
943(17) 0.0 0.0 .
889(16) 0.0 0.0 .
955(16) 0.0 0.0 .
927(16) 0.0 0.0 .
852(16) 0.0 0.0 .
908(17) 0.0 0.0 .
919(16) 0.0 0.0 .
910(16) 0.0 0.0 .
885(15) 0.0 0.0 .
914(16) 0.0 0.0 .
907(17) 0.0 0.0 .
887(16) 0.0 0.0 .
883(16) 0.0 0.0 .
851(15) 0.0 0.0 .
905(16) 0.0 0.0 .
915(17) 0.0 0.0 .
930(16) 0.0 0.0 .
905(16) 0.0 0.0 .
887(16) 0.0 0.0 .
959(17) 0.0 0.0 .
910(17) 0.0 0.0 .
900(16) 0.0 0.0 .
888(15) 0.0 0.0 .
873(16) 0.0 0.0 .
907(16) 0.0 0.0 .
832(16) 0.0 0.0 .
852(16) 0.0 0.0 .
902(16) 0.0 0.0 .
887(16) 0.0 0.0 .
884(16) 0.0 0.0 .
944(17) 0.0 0.0 .
896(16) 0.0 0.0 .
884(15) 0.0 0.0 .
872(16) 0.0 0.0 .
893(16) 0.0 0.0 .
903(16) 0.0 0.0 .
869(16) 0.0 0.0 .
868(15) 0.0 0.0 .
872(16) 0.0 0.0 .
906(16) 0.0 0.0 .
866(16) 0.0 0.0 .
918(16) 0.0 0.0 .
909(16) 0.0 0.0 .
859(16) 0.0 0.0 .
885(16) 0.0 0.0 .
842(16) 0.0 0.0 .
884(16) 0.0 0.0 .
884(15) 0.0 0.0 .
836(16) 0.0 0.0 .
836(16) 0.0 0.0 .
872(16) 0.0 0.0 .
885(16) 0.0 0.0 .
906(16) 0.0 0.0 .
865(16) 0.0 0.0 .
893(16) 0.0 0.0 .
883(16) 0.0 0.0 .
863(15) 0.0 0.0 .
871(15) 0.0 0.0 .
864(16) 0.0 0.0 .
831(16) 0.0 0.0 .
876(16) 0.0 0.0 .
842(15) 0.0 0.0 .
885(16) 0.0 0.0 .
864(16) 0.0 0.0 .
899(17) 0.0 0.0 .
865(16) 0.0 0.0 .
838(15) 0.0 0.0 .
845(15) 0.0 0.0 .
863(16) 0.0 0.0 .
841(16) 0.0 0.0 .
857(16) 0.0 0.0 .
895(15) 0.0 0.0 .
882(16) 0.0 0.0 .
828(15) 0.0 0.0 .
849(16) 0.0 0.0 .
863(16) 0.0 0.0 .
835(15) 0.0 0.0 .
836(15) 0.0 0.0 .
843(16) 0.0 0.0 .
838(16) 0.0 0.0 .
865(16) 0.0 0.0 .
865(15) 0.0 0.0 .
853(15) 0.0 0.0 .
817(16) 0.0 0.0 .
847(16) 0.0 0.0 .
847(16) 0.0 0.0 .
835(15) 0.0 0.0 .
875(16) 0.0 0.0 .
836(16) 0.0 0.0 .
841(16) 0.0 0.0 .
887(16) 0.0 0.0 .
862(15) 0.0 0.0 .
848(16) 0.0 0.0 .
823(16) 0.0 0.0 .
848(16) 0.0 0.0 .
878(16) 0.0 0.0 .
840(15) 0.0 0.0 .
846(16) 0.0 0.0 .
824(16) 0.0 0.0 .
841(16) 0.0 0.0 .
840(15) 0.0 0.0 .
815(15) 0.0 0.0 .
835(16) 0.0 0.0 .
827(16) 0.0 0.0 .
800(15) 0.0 0.0 .
823(15) 0.0 0.0 .
838(15) 0.0 0.0 .
813(15) 0.0 0.0 .
811(16) 0.0 0.0 .
822(15) 0.0 0.0 .
858(15) 0.0 0.0 .
827(15) 0.0 0.0 .
871(16) 0.0 0.0 .
824(16) 0.0 0.0 .
807(15) 0.0 0.0 .
829(15) 0.0 0.0 .
855(15) 0.0 0.0 .
842(15) 0.0 0.0 .
808(16) 0.0 0.0 .
789(15) 0.0 0.0 .
802(15) 0.0 0.0 .
807(15) 0.0 0.0 .
787(15) 0.0 0.0 .
835(16) 0.0 0.0 .
818(15) 0.0 0.0 .
832(15) 0.0 0.0 .
836(15) 0.0 0.0 .
822(15) 0.0 0.0 .
786(15) 0.0 0.0 .
821(16) 0.0 0.0 .
805(15) 0.0 0.0 .
779(15) 0.0 0.0 .
800(15) 0.0 0.0 .
808(15) 0.0 0.0 .
780(15) 0.0 0.0 .
736(14) 0.0 0.0 .
776(15) 0.0 0.0 .
822(16) 0.0 0.0 .
768(15) 0.0 0.0 .
801(15) 0.0 0.0 .
783(14) 0.0 0.0 .
775(15) 0.0 0.0 .
805(15) 0.0 0.0 .
785(15) 0.0 0.0 .
752(14) 0.0 0.0 .
759(14) 0.0 0.0 .
806(15) 0.0 0.0 .
792(15) 0.0 0.0 .
776(15) 0.0 0.0 .
797(15) 0.0 0.0 .
775(14) 0.0 0.0 .
798(15) 0.0 0.0 .
778(15) 0.0 0.0 .
769(15) 0.0 0.0 .
769(15) 0.0 0.0 .
776(14) 0.0 0.0 .
809(15) 0.0 0.0 .
808(16) 0.0 0.0 .
730(14) 0.0 0.0 .
796(15) 0.0 0.0 .
786(15) 0.0 0.0 .
771(15) 0.0 0.0 .
770(16) 0.0 0.0 .
747(15) 0.0 0.0 .
784(15) 0.0 0.0 .
815(15) 0.0 0.0 .
792(15) 0.0 0.0 .
733(15) 0.0 0.0 .
767(15) 0.0 0.0 .
792(15) 0.0 0.0 .
782(15) 0.0 0.0 .
767(15) 0.0 0.0 .
777(15) 0.0 0.0 .
797(15) 0.0 0.0 .
756(14) 0.0 0.0 .
791(15) 0.0 0.0 .
754(15) 0.0 0.0 .
754(15) 0.0 0.0 .
733(14) 0.0 0.0 .
783(15) 0.0 0.0 .
754(14) 0.0 0.0 .
755(15) 0.0 0.0 .
762(15) 0.0 0.0 .
734(14) 0.0 0.0 .
742(14) 0.0 0.0 .
785(15) 0.0 0.0 .
783(15) 0.0 0.0 .
746(15) 0.0 0.0 .
751(15) 0.0 0.0 .
765(14) 0.0 0.0 .
724(14) 0.0 0.0 .
760(15) 0.0 0.0 .
771(15) 0.0 0.0 .
739(14) 0.0 0.0 .
762(14) 0.0 0.0 .
714(14) 0.0 0.0 .
756(15) 0.0 0.0 .
726(14) 0.0 0.0 .
734(14) 0.0 0.0 .
788(15) 0.0 0.0 .
746(15) 0.0 0.0 .
737(15) 0.0 0.0 .
742(15) 0.0 0.0 .
714(14) 0.0 0.0 .
766(14) 0.0 0.0 .
773(15) 0.0 0.0 .
759(15) 0.0 0.0 .
703(14) 0.0 0.0 .
753(14) 0.0 0.0 .
749(14) 0.0 0.0 .
704(14) 0.0 0.0 .
725(15) 0.0 0.0 .
759(15) 0.0 0.0 .
739(14) 0.0 0.0 .
761(14) 0.0 0.0 .
735(14) 0.0 0.0 .
701(15) 0.0 0.0 .
726(15) 0.0 0.0 .
751(14) 0.0 0.0 .
705(14) 0.0 0.0 .
728(14) 0.0 0.0 .
726(15) 0.0 0.0 .
742(15) 0.0 0.0 .
758(14) 0.0 0.0 .
710(14) 0.0 0.0 .
710(14) 0.0 0.0 .
731(15) 0.0 0.0 .
740(15) 0.0 0.0 .
731(14) 0.0 0.0 .
739(14) 0.0 0.0 .
754(15) 0.0 0.0 .
722(14) 0.0 0.0 .
719(14) 0.0 0.0 .
745(14) 0.0 0.0 .
762(15) 0.0 0.0 .
709(14) 0.0 0.0 .
727(15) 0.0 0.0 .
779(15) 0.0 0.0 .
711(14) 0.0 0.0 .
724(14) 0.0 0.0 .
729(15) 0.0 0.0 .
749(15) 0.0 0.0 .
705(14) 0.0 0.0 .
765(14) 0.0 0.0 .
734(15) 0.0 0.0 .
737(15) 0.0 0.0 .
756(15) 0.0 0.0 .
737(14) 0.0 0.0 .
768(14) 0.0 0.0 .
715(15) 0.0 0.0 .
691(15) 0.0 0.0 .
751(15) 0.0 0.0 .
708(14) 0.0 0.0 .
686(14) 0.0 0.0 .
744(15) 0.0 0.0 .
727(15) 0.0 0.0 .
761(15) 0.0 0.0 .
744(14) 0.0 0.0 .
721(14) 0.0 0.0 .
694(14) 0.0 0.0 .
702(15) 0.0 0.0 .
724(14) 0.0 0.0 .
730(14) 0.0 0.0 .
710(14) 0.0 0.0 .
723(14) 0.0 0.0 .
694(15) 0.0 0.0 .
727(14) 0.0 0.0 .
733(14) 0.0 0.0 .
687(14) 0.0 0.0 .
680(14) 0.0 0.0 .
719(15) 0.0 0.0 .
717(14) 0.0 0.0 .
708(14) 0.0 0.0 .
721(14) 0.0 0.0 .
675(14) 0.0 0.0 .
718(15) 0.0 0.0 .
711(14) 0.0 0.0 .
711(14) 0.0 0.0 .
728(14) 0.0 0.0 .
669(14) 0.0 0.0 .
684(14) 0.0 0.0 .
686(14) 0.0 0.0 .
710(14) 0.0 0.0 .
726(14) 0.0 0.0 .
699(14) 0.0 0.0 .
701(14) 0.0 0.0 .
684(14) 0.0 0.0 .
692(14) 0.0 0.0 .
747(14) 0.0 0.0 .
725(15) 0.0 0.0 .
707(14) 0.0 0.0 .
702(14) 0.0 0.0 .
701(14) 0.0 0.0 .
738(14) 0.0 0.0 .
718(15) 0.0 0.0 .
714(14) 0.0 0.0 .
705(14) 0.0 0.0 .
677(13) 0.0 0.0 .
684(14) 0.0 0.0 .
657(14) 0.0 0.0 .
686(14) 0.0 0.0 .
735(14) 0.0 0.0 .
699(14) 0.0 0.0 .
702(14) 0.0 0.0 .
697(14) 0.0 0.0 .
705(14) 0.0 0.0 .
690(14) 0.0 0.0 .
676(14) 0.0 0.0 .
688(14) 0.0 0.0 .
698(15) 0.0 0.0 .
731(15) 0.0 0.0 .
692(14) 0.0 0.0 .
671(13) 0.0 0.0 .
679(14) 0.0 0.0 .
685(15) 0.0 0.0 .
727(15) 0.0 0.0 .
721(14) 0.0 0.0 .
712(14) 0.0 0.0 .
687(14) 0.0 0.0 .
697(15) 0.0 0.0 .
677(14) 0.0 0.0 .
683(14) 0.0 0.0 .
700(14) 0.0 0.0 .
670(14) 0.0 0.0 .
684(14) 0.0 0.0 .
689(14) 0.0 0.0 .
680(13) 0.0 0.0 .
693(14) 0.0 0.0 .
684(14) 0.0 0.0 .
695(15) 0.0 0.0 .
679(14) 0.0 0.0 .
673(13) 0.0 0.0 .
684(14) 0.0 0.0 .
690(14) 0.0 0.0 .
678(14) 0.0 0.0 .
714(14) 0.0 0.0 .
682(14) 0.0 0.0 .
695(14) 0.0 0.0 .
694(14) 0.0 0.0 .
669(14) 0.0 0.0 .
661(14) 0.0 0.0 .
656(13) 0.0 0.0 .
673(14) 0.0 0.0 .
687(14) 0.0 0.0 .
668(14) 0.0 0.0 .
688(14) 0.0 0.0 .
636(13) 0.0 0.0 .
686(14) 0.0 0.0 .
675(14) 0.0 0.0 .
681(14) 0.0 0.0 .
679(14) 0.0 0.0 .
680(14) 0.0 0.0 .
685(14) 0.0 0.0 .
710(15) 0.0 0.0 .
694(14) 0.0 0.0 .
651(13) 0.0 0.0 .
693(14) 0.0 0.0 .
698(14) 0.0 0.0 .
672(14) 0.0 0.0 .
650(14) 0.0 0.0 .
646(13) 0.0 0.0 .
667(13) 0.0 0.0 .
682(14) 0.0 0.0 .
676(15) 0.0 0.0 .
664(14) 0.0 0.0 .
693(14) 0.0 0.0 .
686(14) 0.0 0.0 .
663(14) 0.0 0.0 .
687(15) 0.0 0.0 .
659(14) 0.0 0.0 .
682(14) 0.0 0.0 .
673(14) 0.0 0.0 .
644(14) 0.0 0.0 .
672(14) 0.0 0.0 .
678(14) 0.0 0.0 .
677(13) 0.0 0.0 .
646(13) 0.0 0.0 .
655(14) 0.0 0.0 .
656(14) 0.0 0.0 .
676(14) 0.0 0.0 .
655(13) 0.0 0.0 .
670(14) 0.0 0.0 .
643(14) 0.0 0.0 .
649(14) 0.0 0.0 .
675(14) 0.0 0.0 .
657(13) 0.0 0.0 .
665(14) 0.0 0.0 .
667(14) 0.0 0.0 .
622(13) 0.0 0.0 .
656(14) 0.0 0.0 .
669(13) 0.0 0.0 .
673(14) 0.0 0.0 .
674(14) 0.0 0.0 .
660(14) 0.0 0.0 .
686(14) 0.0 0.0 .
663(13) 0.0 0.0 .
645(14) 0.0 0.0 .
658(14) 0.0 0.0 .
671(14) 0.0 0.0 .
664(14) 0.0 0.0 .
660(13) 0.0 0.0 .
673(14) 0.0 0.0 .
663(14) 0.0 0.0 .
694(14) 0.0 0.0 .
648(13) 0.0 0.0 .
629(13) 0.0 0.0 .
690(14) 0.0 0.0 .
657(14) 0.0 0.0 .
647(14) 0.0 0.0 .
688(14) 0.0 0.0 .
673(13) 0.0 0.0 .
660(14) 0.0 0.0 .
674(14) 0.0 0.0 .
641(14) 0.0 0.0 .
629(13) 0.0 0.0 .
648(13) 0.0 0.0 .
635(13) 0.0 0.0 .
636(14) 0.0 0.0 .
647(14) 0.0 0.0 .
632(13) 0.0 0.0 .
609(13) 0.0 0.0 .
625(13) 0.0 0.0 .
611(13) 0.0 0.0 .
658(14) 0.0 0.0 .
664(13) 0.0 0.0 .
650(13) 0.0 0.0 .
657(14) 0.0 0.0 .
677(14) 0.0 0.0 .
670(14) 0.0 0.0 .
690(14) 0.0 0.0 .
643(13) 0.0 0.0 .
691(14) 0.0 0.0 .
661(14) 0.0 0.0 .
657(14) 0.0 0.0 .
601(13) 0.0 0.0 .
622(13) 0.0 0.0 .
649(14) 0.0 0.0 .
657(14) 0.0 0.0 .
673(14) 0.0 0.0 .
670(13) 0.0 0.0 .
654(13) 0.0 0.0 .
637(14) 0.0 0.0 .
640(14) 0.0 0.0 .
619(13) 0.0 0.0 .
691(14) 0.0 0.0 .
650(14) 0.0 0.0 .
664(14) 0.0 0.0 .
678(14) 0.0 0.0 .
663(14) 0.0 0.0 .
656(13) 0.0 0.0 .
621(13) 0.0 0.0 .
661(14) 0.0 0.0 .
677(14) 0.0 0.0 .
636(13) 0.0 0.0 .
661(13) 0.0 0.0 .
684(14) 0.0 0.0 .
679(14) 0.0 0.0 .
650(14) 0.0 0.0 .
639(13) 0.0 0.0 .
656(13) 0.0 0.0 .
626(13) 0.0 0.0 .
694(15) 0.0 0.0 .
700(14) 0.0 0.0 .
616(13) 0.0 0.0 .
637(13) 0.0 0.0 .
636(14) 0.0 0.0 .
641(14) 0.0 0.0 .
630(14) 0.0 0.0 .
621(13) 0.0 0.0 .
660(13) 0.0 0.0 .
635(14) 0.0 0.0 .
632(14) 0.0 0.0 .
628(13) 0.0 0.0 .
648(13) 0.0 0.0 .
632(13) 0.0 0.0 .
630(13) 0.0 0.0 .
637(14) 0.0 0.0 .
653(14) 0.0 0.0 .
647(13) 0.0 0.0 .
652(13) 0.0 0.0 .
635(14) 0.0 0.0 .
648(14) 0.0 0.0 .
642(14) 0.0 0.0 .
646(13) 0.0 0.0 .
638(13) 0.0 0.0 .
635(14) 0.0 0.0 .
649(14) 0.0 0.0 .
645(13) 0.0 0.0 .
672(13) 0.0 0.0 .
645(14) 0.0 0.0 .
613(13) 0.0 0.0 .
675(14) 0.0 0.0 .
649(13) 0.0 0.0 .
656(13) 0.0 0.0 .
652(14) 0.0 0.0 .
674(14) 0.0 0.0 .
646(14) 0.0 0.0 .
668(14) 0.0 0.0 .
670(13) 0.0 0.0 .
667(14) 0.0 0.0 .
654(14) 0.0 0.0 .
663(14) 0.0 0.0 .
695(14) 0.0 0.0 .
670(13) 0.0 0.0 .
671(14) 0.0 0.0 .
631(14) 0.0 0.0 .
645(14) 0.0 0.0 .
647(13) 0.0 0.0 .
663(13) 0.0 0.0 .
637(13) 0.0 0.0 .
649(14) 0.0 0.0 .
684(14) 0.0 0.0 .
667(13) 0.0 0.0 .
639(13) 0.0 0.0 .
648(14) 0.0 0.0 .
646(14) 0.0 0.0 .
671(14) 0.0 0.0 .
657(13) 0.0 0.0 .
687(14) 0.0 0.0 .
639(13) 0.0 0.0 .
651(14) 0.0 0.0 .
648(14) 0.0 0.0 .
630(13) 0.0 0.0 .
625(13) 0.0 0.0 .
659(14) 0.0 0.0 .
664(14) 0.0 0.0 .
673(14) 0.0 0.0 .
674(13) 0.0 0.0 .
690(14) 0.0 0.0 .
652(14) 0.0 0.0 .
643(14) 0.0 0.0 .
641(14) 0.0 0.0 .
671(13) 0.0 0.0 .
625(13) 0.0 0.0 .
683(14) 0.0 0.0 .
710(15) 0.0 0.0 .
686(14) 0.0 0.0 .
632(13) 0.0 0.0 .
645(14) 0.0 0.0 .
652(14) 0.0 0.0 .
654(14) 0.0 0.0 .
633(13) 0.0 0.0 .
683(14) 0.0 0.0 .
690(14) 0.0 0.0 .
682(14) 0.0 0.0 .
706(14) 0.0 0.0 .
684(14) 0.0 0.0 .
645(13) 0.0 0.0 .
680(14) 0.0 0.0 .
651(14) 0.0 0.0 .
662(14) 0.0 0.0 .
665(14) 0.0 0.0 .
683(14) 0.0 0.0 .
662(14) 0.0 0.0 .
688(15) 0.0 0.0 .
624(13) 0.0 0.0 .
668(13) 0.0 0.0 .
686(14) 0.0 0.0 .
643(14) 0.0 0.0 .
658(14) 0.0 0.0 .
669(14) 0.0 0.0 .
645(13) 0.0 0.0 .
682(14) 0.0 0.0 .
677(14) 0.0 0.0 .
683(14) 0.0 0.0 .
651(14) 0.0 0.0 .
679(14) 0.0 0.0 .
682(14) 0.0 0.0 .
679(14) 0.0 0.0 .
654(14) 0.0 0.0 .
646(14) 0.0 0.0 .
674(13) 0.0 0.0 .
671(13) 0.0 0.0 .
646(14) 0.0 0.0 .
671(14) 0.0 0.0 .
702(14) 0.0 0.0 .
683(14) 0.0 0.0 .
685(14) 0.0 0.0 .
716(14) 0.0 0.0 .
737(15) 0.0 0.0 .
676(14) 0.0 0.0 .
721(14) 0.0 0.0 .
721(14) 0.0 0.0 .
742(15) 0.0 0.0 .
749(15) 0.0 0.0 .
722(14) 0.0 0.0 .
707(14) 0.0 0.0 .
712(14) 0.0 0.0 .
756(15) 0.0 0.0 .
738(15) 0.0 0.0 .
735(14) 0.0 0.0 .
745(14) 0.0 0.0 .
774(15) 0.0 0.0 .
751(15) 0.0 0.0 .
759(15) 0.0 0.0 .
789(15) 0.0 0.0 .
789(15) 0.0 0.0 .
784(15) 0.0 0.0 .
788(15) 0.0 0.0 .
836(16) 0.0 0.0 .
843(15) 0.0 0.0 .
837(15) 0.0 0.0 .
824(16) 0.0 0.0 .
852(16) 0.0 0.0 .
855(16) 0.0 0.0 .
883(16) 0.0 0.0 .
869(15) 0.0 0.0 .
885(16) 0.0 0.0 .
877(16) 0.0 0.0 .
897(16) 0.0 0.0 .
897(16) 0.0 0.0 .
899(16) 0.0 0.0 .
919(16) 0.0 0.0 .
983(18) 0.0 0.0 .
1017(17) 0.0 0.0 .
1038(17) 0.0 0.0 .
995(16) 0.0 0.0 .
1051(17) 0.0 0.0 .
1089(18) 0.0 0.0 .
1175(18) 0.0 0.0 .
1227(18) 0.0 0.0 .
1289(19) 0.0 0.0 .
1375(20) 0.0 0.0 .
1458(21) 0.0 0.0 .
1533(21) 0.0 0.0 .
1683(21) 0.0 0.0 .
1799(22) 0.0 0.0 .
2087(25) 0.0 0.0 .
2345(27) 0.0 0.0 .
2729(28) 0.0 0.0 .
3289(30) 0.0 0.0 .
4187(34) 0.0 0.0 .
5086(39) 0.0 0. .
6563(45) 0.0 0. .
8172(49) 0.0 0. .
9908(52) 0.0 0. .
12174(59) 0.0 0. .
14417(66) 0.0 0. .
16629(71) 0.0 0. .
19073(76) 0.0 0. .
21435(77) 0.0 0. .
23799(83) 0.0 0. .
26235(89) 0.0 0. .
28972(94) 0.0 0. .
32028(98) 0.0 0. .
35400(100) 0.0 0. .
40200(110) 0.0 0. .
46560(120) 0.0 0. .
54670(130) 0.0 0. .
64550(140) 0.0 0. .
75990(150) 0.0 0. .
87790(170) 0.0 0. .
95350(180) 0.0 0. .
89250(170) 0.0 0. .
71260(150) 0.0 0. .
51910(120) 0.0 0. .
36870(110) 0.0 0. .
26562(92) 0.0 0. .
19869(76) 0.0 0. .
15207(65) 0.0 0. .
11998(58) 0.0 0. .
9617(53) 0.0 0. .
7930(50) 0.0 0. .
6666(44) 0.0 0. .
5792(40) 0.0 0. .
4891(37) 0.0 0. .
4282(35) 0.0 0. .
3836(35) 0.0 0.0 .
3415(31) 0.0 0.0 .
3142(29) 0.0 0.0 .
2839(28) 0.0 0.0 .
2562(27) 0.0 0.0 .
2340(27) 0.0 0.0 .
2210(25) 0.0 0.0 .
2077(24) 0.0 0.0 .
1866(23) 0.0 0.0 .
1859(23) 0.0 0.0 .
1719(23) 0.0 0.0 .
1569(21) 0.0 0.0 .
1525(20) 0.0 0.0 .
1428(20) 0.0 0.0 .
1352(20) 0.0 0.0 .
1339(20) 0.0 0.0 .
1276(19) 0.0 0.0 .
1247(18) 0.0 0.0 .
1163(18) 0.0 0.0 .
1135(18) 0.0 0.0 .
1093(18) 0.0 0.0 .
1029(17) 0.0 0.0 .
1043(17) 0.0 0.0 .
1019(17) 0.0 0.0 .
974(17) 0.0 0.0 .
1009(17) 0.0 0.0 .
954(16) 0.0 0.0 .
956(16) 0.0 0.0 .
923(16) 0.0 0.0 .
908(16) 0.0 0.0 .
887(16) 0.0 0.0 .
879(16) 0.0 0.0 .
852(15) 0.0 0.0 .
839(15) 0.0 0.0 .
838(16) 0.0 0.0 .
803(15) 0.0 0.0 .
794(15) 0.0 0.0 .
794(15) 0.0 0.0 .
813(15) 0.0 0.0 .
798(15) 0.0 0.0 .
767(15) 0.0 0.0 .
751(14) 0.0 0.0 .
770(14) 0.0 0.0 .
764(15) 0.0 0.0 .
763(15) 0.0 0.0 .
744(15) 0.0 0.0 .
735(14) 0.0 0.0 .
765(14) 0.0 0.0 .
740(15) 0.0 0.0 .
731(15) 0.0 0.0 .
696(14) 0.0 0.0 .
700(14) 0.0 0.0 .
694(14) 0.0 0.0 .
717(14) 0.0 0.0 .
679(14) 0.0 0.0 .
660(14) 0.0 0.0 .
684(14) 0.0 0.0 .
724(14) 0.0 0.0 .
684(14) 0.0 0.0 .
679(14) 0.0 0.0 .
665(14) 0.0 0.0 .
690(14) 0.0 0.0 .
675(14) 0.0 0.0 .
684(14) 0.0 0.0 .
699(14) 0.0 0.0 .
715(14) 0.0 0.0 .
654(13) 0.0 0.0 .
645(13) 0.0 0.0 .
643(14) 0.0 0.0 .
628(13) 0.0 0.0 .
645(14) 0.0 0.0 .
674(13) 0.0 0.0 .
617(13) 0.0 0.0 .
644(14) 0.0 0.0 .
658(14) 0.0 0.0 .
660(14) 0.0 0.0 .
679(14) 0.0 0.0 .
694(14) 0.0 0.0 .
672(14) 0.0 0.0 .
640(14) 0.0 0.0 .
655(14) 0.0 0.0 .
652(13) 0.0 0.0 .
661(14) 0.0 0.0 .
661(14) 0.0 0.0 .
624(13) 0.0 0.0 .
647(13) 0.0 0.0 .
645(13) 0.0 0.0 .
643(14) 0.0 0.0 .
613(13) 0.0 0.0 .
620(13) 0.0 0.0 .
616(13) 0.0 0.0 .
640(13) 0.0 0.0 .
634(13) 0.0 0.0 .
640(14) 0.0 0.0 .
637(14) 0.0 0.0 .
639(13) 0.0 0.0 .
670(13) 0.0 0.0 .
670(14) 0.0 0.0 .
655(14) 0.0 0.0 .
625(13) 0.0 0.0 .
604(13) 0.0 0.0 .
634(13) 0.0 0.0 .
602(13) 0.0 0.0 .
606(14) 0.0 0.0 .
614(13) 0.0 0.0 .
641(13) 0.0 0.0 .
611(13) 0.00602 625.4 56.6
623(13) 0.00554 625.4 55.7
616(14) 0.00526 625.4 54.8
605(13) 0.00578 625.4 53.9
610(13) 0.00612 625.4 53.1
618(13) 0.00591 625.1 52.3
600(13) 0.00607 624.6 51.5
632(14) 0.00532 624.1 50.7
602(13) 0.00576 623.6 49.9
595(13) 0.00622 623.0 49.1
609(13) 0.00590 622.5 48.4
581(13) 0.00608 622.0 47.7
639(14) 0.00524 621.5 47.0
647(14) 0.00531 621.0 46.3
611(13) 0.00613 620.4 45.6
635(13) 0.00566 619.9 45.0
611(13) 0.00575 619.4 44.3
619(13) 0.00550 618.9 43.7
600(13) 0.00580 618.3 43.1
589(13) 0.00635 617.8 42.5
583(13) 0.00605 617.3 41.9
595(13) 0.00584 616.8 41.3
614(13) 0.00562 616.3 40.7
622(13) 0.00554 615.7 40.2
564(12) 0.00658 615.2 39.6
621(13) 0.00568 614.7 39.1
584(13) 0.00582 614.2 38.6
561(13) 0.00619 613.7 38.1
586(13) 0.00612 613.1 37.6
596(13) 0.00625 612.6 37.1
574(13) 0.00614 612.1 36.6
585(13) 0.00578 611.6 36.2
587(13) 0.00589 611.1 35.7
603(13) 0.00614 610.5 35.2
607(13) 0.00611 610.0 34.8
622(14) 0.00543 609.5 34.4
615(14) 0.00519 609.0 33.9
582(13) 0.00617 608.5 33.5
590(13) 0.00637 607.9 33.1
582(13) 0.00630 607.4 32.7
557(13) 0.00625 606.9 32.3
557(13) 0.00568 606.4 31.9
595(13) 0.00581 605.8 31.6
643(13) 0.00578 605.3 31.2
590(13) 0.00628 604.8 30.8
582(13) 0.00594 604.3 30.5
609(14) 0.00514 603.8 30.1
569(13) 0.00628 603.2 29.8
584(13) 0.00638 602.7 29.4
544(12) 0.00681 602.2 29.1
579(13) 0.00612 601.7 28.8
589(13) 0.00558 601.2 28.4
593(13) 0.00585 600.6 28.1
587(13) 0.00634 600.1 27.8
570(13) 0.00633 599.6 27.5
604(13) 0.00581 599.1 27.2
554(13) 0.00621 598.6 26.9
575(13) 0.00584 598.0 26.6
567(12) 0.00656 597.5 26.3
583(13) 0.00616 597.0 26.1
571(13) 0.00607 596.5 25.8
595(13) 0.00566 596.0 25.5
566(13) 0.00611 595.4 25.3
567(12) 0.00656 594.9 25.0
563(12) 0.00653 594.4 24.7
619(14) 0.00547 593.9 24.5
590(13) 0.00577 593.3 24.2
568(13) 0.00626 592.8 24.0
564(12) 0.00662 592.3 23.8
580(13) 0.00605 591.8 23.5
592(13) 0.00575 591.3 23.3
564(13) 0.00624 590.7 23.1
559(12) 0.00642 590.2 22.8
574(12) 0.00647 589.7 22.6
552(12) 0.00642 589.2 22.4
585(13) 0.00578 588.7 22.2
597(13) 0.00569 588.1 22.0
569(13) 0.00626 587.6 21.8
560(12) 0.00666 587.1 21.6
568(13) 0.00596 586.6 21.4
555(13) 0.00606 586.1 21.2
586(13) 0.00578 585.5 21.0
592(13) 0.00615 585.0 20.8
577(12) 0.00644 584.5 20.6
571(13) 0.00615 584.0 20.4
597(14) 0.00544 583.4 20.2
564(13) 0.00612 582.9 20.1
579(13) 0.00635 582.4 19.9
550(12) 0.00681 581.9 19.7
555(13) 0.00611 581.4 19.6
567(14) 0.00547 580.8 19.4
555(13) 0.00634 580.3 19.2
552(12) 0.00671 579.8 19.1
563(12) 0.00667 579.3 18.9
574(13) 0.00596 578.8 18.7
545(13) 0.00597 578.2 18.6
561(13) 0.00629 577.7 18.4
539(12) 0.00695 577.2 18.3
569(12) 0.00642 576.7 18.2
590(13) 0.00591 576.2 18.0
587(13) 0.00556 575.6 17.9
550(13) 0.00627 575.1 17.7
551(12) 0.00675 574.6 17.6
556(12) 0.00656 574.1 17.5
560(13) 0.00614 573.6 17.3
575(13) 0.00567 573.0 17.2
557(13) 0.00638 572.5 17.1
581(13) 0.00640 572.0 17.0
546(12) 0.00672 571.5 16.8
559(13) 0.00618 570.9 16.7
562(13) 0.00593 570.4 16.6
577(13) 0.00599 569.9 16.5
590(13) 0.00629 569.4 16.4
577(13) 0.00607 568.9 16.3
557(13) 0.00613 568.3 16.2
553(13) 0.00612 567.8 16.1
562(13) 0.00624 567.3 16.0
567(12) 0.00652 566.8 15.9
554(12) 0.00653 566.3 15.8
556(13) 0.00623 565.7 15.7
565(13) 0.00603 565.2 15.6
570(13) 0.00618 564.7 15.5
555(12) 0.00667 564.2 15.4
575(13) 0.00603 563.7 15.3
551(13) 0.00630 563.1 15.2
583(13) 0.00575 562.6 15.1
588(13) 0.00610 562.1 15.1
569(12) 0.00645 561.6 15.0
600(13) 0.00573 561.1 14.9
539(12) 0.00640 560.5 14.8
553(13) 0.00631 560.0 14.8
534(12) 0.00681 559.5 14.7
546(12) 0.00679 559.0 14.6
541(12) 0.00658 558.4 14.6
561(13) 0.00601 557.9 14.5
554(13) 0.00631 557.4 14.5
556(12) 0.00657 556.9 14.4
541(12) 0.00686 556.4 14.3
561(13) 0.00623 556.3 14.3
542(13) 0.00598 556.2 14.3
542(12) 0.00645 556.1 14.2
549(12) 0.00681 555.9 14.2
563(12) 0.00658 555.8 14.1
569(13) 0.00613 555.7 14.1
572(14) 0.00548 555.6 14.1
563(13) 0.00624 555.4 14.0
545(12) 0.00675 555.3 14.0
539(12) 0.00683 555.2 14.0
527(12) 0.00676 555.1 14.0
549(13) 0.00589 554.9 14.0
555(13) 0.00637 554.8 14.0
554(12) 0.00670 554.7 14.0
540(12) 0.00682 554.6 14.0
571(13) 0.00609 554.4 14.0
579(13) 0.00570 554.3 14.0
571(13) 0.00620 554.2 14.0
566(12) 0.00659 554.1 14.0
573(13) 0.00636 553.9 14.0
542(13) 0.00634 553.8 14.1
553(13) 0.00600 553.7 14.1
566(13) 0.00610 553.6 14.2
573(12) 0.00647 553.4 14.2
553(12) 0.00650 553.3 14.3
546(13) 0.00635 553.2 14.3
536(13) 0.00633 553.1 14.4
534(12) 0.00647 552.9 14.5
557(12) 0.00672 552.8 14.6
530(12) 0.00683 552.7 14.7
542(13) 0.00623 552.6 14.8
592(13) 0.00568 552.4 14.9
560(13) 0.00626 552.3 15.1
556(12) 0.00673 552.2 15.2
515(12) 0.00684 552.1 15.4
519(12) 0.00673 551.9 15.6
535(12) 0.00656 551.8 15.8
546(12) 0.00656 551.7 16.0
531(12) 0.00694 551.6 16.3
532(12) 0.00655 551.4 16.6
544(13) 0.00616 551.3 16.8
555(13) 0.00612 551.2 7.9
546(12) 0.00660 551.1 8.3
546(12) 0.00678 550.9 8.8
552(13) 0.00603 550.8 9.3
552(13) 0.00602 550.7 9.8
554(13) 0.00621 550.6 10.4
540(12) 0.00673 550.4 11.0
565(12) 0.00652 550.3 11.7
531(12) 0.00680 550.2 12.4
582(13) 0.00579 550.1 13.2
611(13) 0.00565 549.9 14.1
553(12) 0.00659 549.8 15.1
529(12) 0.00707 549.7 16.2
572(13) 0.00615 549.6 17.5
583(13) 0.00559 549.4 18.8
580(13) 0.00610 549.3 20.4
572(12) 0.00651 549.2 22.1
608(13) 0.00605 549.1 24.0
608(13) 0.00572 548.9 26.3
627(14) 0.00513 548.8 28.8
607(13) 0.00577 548.7 31.7
612(13) 0.00610 548.6 35.1
604(13) 0.00617 548.4 39.0
623(13) 0.00562 548.3 43.7
646(14) 0.00505 548.2 49.3
651(14) 0.00536 548.1 56.2
687(14) 0.00543 547.9 65.0
773(15) 0.00472 547.8 76.5
763(15) 0.00456 547.7 92.3
802(15) 0.00418 547.6 114.4
829(15) 0.00421 547.4 145.8
876(15) 0.00426 547.3 189.9
932(16) 0.00395 547.2 250.7
937(16) 0.00374 547.1 331.3
968(17) 0.003418 546.9 433.3
1048(17) 0.003294 546.8 555.2
1090(17) 0.003409 546.7 690.2
1173(18) 0.003032 546.6 823.4
1227(19) 0.002792 546.4 929.6
1269(19) 0.002705 546.3 978.8
1268(19) 0.002786 546.2 953.2
1266(18) 0.002958 546.1 862.5
1195(18) 0.002929 545.9 734.9
1032(18) 0.003237 545.8 598.4
878(16) 0.00386 545.7 471.1
775(15) 0.00467 545.6 362.2
697(14) 0.00532 545.5 274.7
664(14) 0.00533 545.3 207.8
634(14) 0.00528 545.2 158.6
609(13) 0.00561 545.1 123.5
617(13) 0.00583 545.0 98.7
594(13) 0.00629 544.8 81.1
552(13) 0.00634 544.7 68.4
565(13) 0.00600 544.6 58.8
561(13) 0.00626 544.5 51.4
551(12) 0.00665 544.3 45.4
547(12) 0.00680 544.2 40.5
527(12) 0.00670 544.1 36.3
543(13) 0.00609 544.0 32.8
515(12) 0.00672 543.8 29.7
519(12) 0.00713 543.7 27.1
572(12) 0.00647 543.6 24.7
581(13) 0.00611 543.5 22.7
534(13) 0.00609 543.3 20.9
523(12) 0.00667 543.2 19.3
552(12) 0.00676 543.1 17.9
565(12) 0.00661 543.0 16.6
522(12) 0.00657 542.8 15.5
524(13) 0.00615 542.7 14.5
556(13) 0.00620 542.6 13.5
572(12) 0.00645 542.5 12.7
541(12) 0.00676 542.3 11.9
578(13) 0.00590 542.2 11.2
541(13) 0.00602 542.1 10.6
545(13) 0.00626 542.0 10.0
588(13) 0.00633 541.8 9.4
549(12) 0.00663 541.7 8.9
564(13) 0.00611 541.6 8.5
536(13) 0.00627 541.5 8.1
564(13) 0.00624 541.3 7.7
531(12) 0.00693 541.2 7.3
511(12) 0.00713 541.1 7.0
550(13) 0.00620 541.0 6.6
573(13) 0.00585 540.8 6.3
533(12) 0.00663 540.7 6.1
529(12) 0.00703 540.6 5.8
501(12) 0.00736 540.5 5.6
510(12) 0.00699 540.3 5.3
541(13) 0.00620 540.2 5.1
556(13) 0.00613 540.1 4.9
548(12) 0.00678 540.0 4.7
528(12) 0.00662 539.8 4.6
503(12) 0.00669 539.7 4.4
517(12) 0.00643 539.6 4.2
538(12) 0.00659 539.5 4.1
546(12) 0.00681 539.3 3.9
536(12) 0.00644 539.2 3.8
526(12) 0.00668 539.1 3.7
520(12) 0.00677 539.0 3.5
550(12) 0.00643 538.8 3.4
547(12) 0.00681 538.7 3.3
529(13) 0.00634 538.6 3.2
529(12) 0.00640 538.5 3.1
549(12) 0.00640 538.3 3.0
515(12) 0.00703 538.2 2.9
526(12) 0.00714 538.1 2.8
535(12) 0.00644 538.0 2.7
516(12) 0.00651 537.8 2.7
526(12) 0.00660 537.7 2.6
538(12) 0.00672 537.6 2.5
540(12) 0.00688 537.5 2.4
527(12) 0.00664 537.3 2.4
535(13) 0.00616 537.2 2.3
540(13) 0.00639 537.1 2.3
508(12) 0.00713 537.0 2.2
525(12) 0.00714 536.8 2.1
554(13) 0.00621 536.7 2.1
518(12) 0.00644 536.6 2.0
512(12) 0.00702 536.5 2.0
546(12) 0.00680 536.3 1.9
521(12) 0.00717 536.2 1.9
527(12) 0.00663 536.1 1.8
523(13) 0.00635 536.0 1.8
558(13) 0.00632 535.8 1.8
526(12) 0.00702 535.7 1.7
519(12) 0.00697 535.6 1.7
549(13) 0.00623 535.5 1.6
511(12) 0.00644 535.3 1.6
522(12) 0.00653 535.2 1.6
521(12) 0.00719 535.1 1.5
530(12) 0.00672 535.0 1.5
512(12) 0.00678 534.8 1.5
507(12) 0.00660 534.7 1.4
567(13) 0.00591 534.6 1.4
499(12) 0.00738 534.5 1.4
508(12) 0.00720 534.4 1.3
502(12) 0.00697 534.4 1.3
515(12) 0.00662 534.4 1.3
538(13) 0.00640 534.3 1.3
541(12) 0.00691 534.3 1.2
530(12) 0.00655 534.3 1.2
526(12) 0.00641 534.2 1.2
534(12) 0.00643 534.2 1.2
521(12) 0.00681 534.2 1.1
519(12) 0.00714 534.1 1.1
530(13) 0.00639 534.1 1.1
505(12) 0.00672 534.1 1.1
544(13) 0.00627 534.0 1.1
489(12) 0.00741 534.0 1.0
523(12) 0.00705 534.0 1.0
528(12) 0.00668 534.0 1.0
547(13) 0.00614 533.9 1.0
527(12) 0.00658 533.9 1.0
534(12) 0.00683 533.9 1.0
540(12) 0.00687 533.8 0.9
557(13) 0.00600 533.8 0.9
514(13) 0.00638 533.8 0.9
552(13) 0.00613 533.7 0.9
529(12) 0.00685 533.7 0.9
538(12) 0.00694 533.7 0.9
535(12) 0.00643 533.6 0.8
523(13) 0.00614 533.6 0.8
515(12) 0.00657 533.6 0.8
521(12) 0.00707 533.5 0.8
569(12) 0.00646 533.5 0.8
532(12) 0.00647 533.5 0.8
519(13) 0.00616 533.4 0.8
520(12) 0.00666 533.4 0.8
513(12) 0.00717 533.4 0.7
540(12) 0.00684 533.4 0.7
534(12) 0.00643 533.3 0.7
520(13) 0.00622 533.3 0.7
512(12) 0.00666 533.3 0.7
524(12) 0.00694 533.2 0.7
503(12) 0.00746 533.2 0.7
520(12) 0.00657 533.2 0.7
518(13) 0.00639 533.1 0.7
538(13) 0.00639 533.1 0.6
529(12) 0.00701 533.1 0.6
525(12) 0.00699 533.0 0.6
499(12) 0.00698 533.0 0.6
523(13) 0.00619 533.0 0.6
498(12) 0.00716 532.9 0.6
502(12) 0.00749 532.9 0.6
522(12) 0.00691 532.9 0.6
533(12) 0.00647 532.8 0.6
533(13) 0.00628 532.8 0.6
509(12) 0.00681 532.8 0.6
507(12) 0.00735 532.8 0.6
516(12) 0.00697 532.7 0.5
508(12) 0.00676 532.7 0.5
531(13) 0.00630 532.7 0.5
512(12) 0.00690 532.6 0.5
527(12) 0.00705 532.6 0.5
505(12) 0.00699 532.6 0.5
504(12) 0.00677 532.5 0.5
486(12) 0.00697 532.5 0.5
503(12) 0.00688 532.5 0.5
525(12) 0.00709 532.4 0.5
511(12) 0.00688 532.4 0.5
492(12) 0.00702 532.4 0.5
541(13) 0.00628 532.3 0.5
536(12) 0.00668 532.3 0.5
524(12) 0.00718 532.3 0.5
547(13) 0.00635 532.3 0.5
527(13) 0.00621 532.2 0.4
495(12) 0.00705 532.2 0.4
540(12) 0.00662 532.2 0.4
505(12) 0.00738 532.1 0.4
531(13) 0.00632 532.1 0.4
535(13) 0.00589 532.1 0.4
489(12) 0.00699 532.0 0.4
495(12) 0.00742 532.0 0.4
490(11) 0.00760 532.0 0.4
531(12) 0.00653 531.9 0.4
523(12) 0.00641 531.9 0.4
506(12) 0.00692 531.9 0.4
488(11) 0.00761 531.8 0.4
506(12) 0.00738 531.8 0.4
499(12) 0.00695 531.8 0.4
516(13) 0.00615 531.7 0.4
501(12) 0.00690 531.7 0.4
515(12) 0.00724 531.7 0.4
514(12) 0.00722 531.7 0.4
537(13) 0.00636 531.6 0.4
519(13) 0.00632 531.6 0.4
495(12) 0.00702 531.6 0.4
508(12) 0.00739 531.5 0.4
528(12) 0.00689 531.5 0.3
524(12) 0.00652 531.5 0.3
536(13) 0.00607 531.4 0.3
516(12) 0.00674 531.4 0.3
538(12) 0.00690 531.4 0.3
531(12) 0.00683 531.3 0.3
522(12) 0.00675 531.3 0.3
537(13) 0.00627 531.3 0.3
491(12) 0.00717 531.2 0.3
528(12) 0.00703 531.2 0.3
502(12) 0.00717 531.2 0.3
516(12) 0.00682 531.2 0.3
551(13) 0.00615 531.1 0.3
536(12) 0.00643 531.1 0.3
537(12) 0.00694 531.1 0.3
501(12) 0.00707 531.0 0.3
541(13) 0.00625 531.0 0.3
541(13) 0.00619 531.0 0.3
497(12) 0.00728 530.9 0.3
506(12) 0.00733 530.9 0.3
516(12) 0.00655 530.9 0.3
518(12) 0.00644 530.8 0.3
499(12) 0.00706 530.8 0.3
546(12) 0.00656 530.8 0.3
520(12) 0.00724 530.7 0.3
527(12) 0.00648 530.7 0.3
508(12) 0.00668 530.7 0.3
492(12) 0.00692 530.6 0.3
508(12) 0.00725 530.6 0.3
528(12) 0.00707 530.6 0.3
504(12) 0.00683 530.6 0.3
519(13) 0.00628 530.5 0.3
511(12) 0.00666 530.5 0.3
522(12) 0.00686 530.5 0.3
512(12) 0.00725 530.4 0.2
534(13) 0.00640 530.4 0.2
533(13) 0.00616 530.4 0.2
520(12) 0.00673 530.3 0.2
526(12) 0.00702 530.3 0.2
509(12) 0.00731 530.3 0.2
545(13) 0.00633 530.2 0.2
537(13) 0.00607 530.2 0.2
550(12) 0.00649 530.2 0.2
547(12) 0.00682 530.1 0.2
529(12) 0.00698 530.1 0.2
511(12) 0.00698 530.1 0.2
512(12) 0.00642 530.0 0.2
549(13) 0.00604 530.0 0.2
524(12) 0.00713 530.0 0.2
527(12) 0.00695 530.0 0.2
507(12) 0.00688 529.9 0.2
511(12) 0.00647 529.9 0.2
511(12) 0.00682 529.9 0.2
519(12) 0.00712 529.8 0.2
508(12) 0.00720 529.8 0.2
526(12) 0.00640 529.8 0.2
519(12) 0.00643 529.7 0.2
526(12) 0.00665 529.7 0.2
503(12) 0.00737 529.7 0.2
525(12) 0.00685 529.6 0.2
543(13) 0.00627 529.6 0.2
525(12) 0.00664 529.6 0.2
536(12) 0.00668 529.5 0.2
531(12) 0.00696 529.5 0.2
531(12) 0.00682 529.5 0.2
513(12) 0.00678 529.5 0.2
503(12) 0.00678 529.4 0.2
488(12) 0.00714 529.4 0.2
536(12) 0.00690 529.4 0.2
538(12) 0.00648 529.3 0.2
532(13) 0.00611 529.3 0.2
509(12) 0.00657 529.3 0.2
547(12) 0.00646 529.2 0.2
544(12) 0.00685 529.2 0.2
522(12) 0.00664 529.2 0.2
533(13) 0.00634 529.1 0.2
547(13) 0.00635 529.1 0.2
542(12) 0.00671 529.1 0.2
467(11) 0.00797 529.0 0.2
518(12) 0.00662 529.0 0.2
508(12) 0.00657 529.0 0.2
507(12) 0.00681 528.9 0.2
496(12) 0.00734 528.9 0.2
501(12) 0.00727 528.9 0.2
503(12) 0.00666 528.9 0.2
502(12) 0.00647 528.8 0.2
503(12) 0.00709 528.8 0.2
505(12) 0.00716 528.8 0.2
499(12) 0.00742 528.7 0.2
502(12) 0.00681 528.7 0.2
498(12) 0.00657 528.7 0.2
505(12) 0.00680 528.6 0.2
524(12) 0.00696 528.6 0.2
536(12) 0.00683 528.6 0.2
521(12) 0.00677 528.5 0.2
475(12) 0.00707 528.5 0.2
510(12) 0.00656 528.5 0.2
527(12) 0.00703 528.4 0.2
506(12) 0.00724 528.4 0.2
527(12) 0.00651 528.4 0.2
504(12) 0.00660 528.3 0.1
512(12) 0.00663 528.3 0.1
534(12) 0.00693 528.3 0.1
493(12) 0.00729 528.3 0.1
530(12) 0.00662 528.2 0.1
525(13) 0.00627 528.2 0.1
494(12) 0.00700 528.2 0.1
508(12) 0.00732 528.1 0.1
534(12) 0.00655 528.1 0.1
476(12) 0.00747 528.1 0.1
509(12) 0.00652 528.0 0.1
532(12) 0.00652 528.0 0.1
503(12) 0.00732 528.0 0.1
520(12) 0.00687 527.9 0.1
504(12) 0.00691 527.9 0.1
516(12) 0.00655 527.9 0.1
538(12) 0.00663 527.8 0.1
545(12) 0.00672 527.8 0.1
508(12) 0.00700 527.8 0.1
526(13) 0.00616 527.8 0.1
541(13) 0.00615 527.7 0.1
549(13) 0.00639 527.7 0.1
517(12) 0.00716 527.7 0.1
512(12) 0.00661 527.6 0.1
502(12) 0.00662 527.6 0.1
504(12) 0.00674 527.6 0.1
500(12) 0.00720 527.5 0.1
535(12) 0.00690 527.5 0.1
525(12) 0.00651 527.5 0.1
523(13) 0.00632 527.4 0.1
509(12) 0.00684 527.4 0.1
517(12) 0.00712 527.5 0.1
524(12) 0.00717 527.5 0.1
517(12) 0.00670 527.6 0.1
518(12) 0.00647 527.7 0.1
522(12) 0.00655 527.7 0.1
535(12) 0.00683 527.8 0.1
536(12) 0.00688 527.8 0.1
548(13) 0.00633 527.9 0.1
518(12) 0.00649 528.0 0.1
528(12) 0.00672 528.0 0.1
530(12) 0.00702 528.1 0.1
516(12) 0.00706 528.1 0.1
507(12) 0.00687 528.2 0.1
550(13) 0.00579 528.3 0.1
546(13) 0.00633 528.3 0.1
541(12) 0.00692 528.4 0.1
501(12) 0.00737 528.4 0.1
509(12) 0.00694 528.5 0.1
512(12) 0.00652 528.6 0.1
505(12) 0.00704 528.6 0.1
518(12) 0.00720 528.7 0.1
505(12) 0.00732 528.7 0.1
520(12) 0.00663 528.8 0.1
527(13) 0.00630 528.9 0.1
512(12) 0.00668 528.9 0.1
523(12) 0.00714 529.0 0.1
547(12) 0.00670 529.0 0.1
536(12) 0.00659 529.1 0.1
520(13) 0.00634 529.2 0.1
510(12) 0.00660 529.2 0.1
525(12) 0.00710 529.3 0.1
497(12) 0.00724 529.3 0.1
505(12) 0.00668 529.4 0.1
529(13) 0.00636 529.5 0.1
508(12) 0.00698 529.5 0.1
521(12) 0.00712 529.6 0.1
526(12) 0.00667 529.6 0.1
505(12) 0.00671 529.7 0.1
507(12) 0.00675 529.8 0.1
514(12) 0.00694 529.8 0.1
515(12) 0.00717 529.9 0.1
521(12) 0.00657 529.9 0.1
508(12) 0.00687 530.0 0.1
536(12) 0.00646 530.1 0.1
513(12) 0.00724 530.1 0.1
552(12) 0.00676 530.2 0.1
546(13) 0.00632 530.2 0.1
518(12) 0.00650 530.3 0.1
514(12) 0.00656 530.4 0.1
517(12) 0.00694 530.4 0.1
537(12) 0.00696 530.5 0.1
544(13) 0.00631 530.5 0.1
550(13) 0.00599 530.6 0.1
543(13) 0.00632 530.7 0.1
521(12) 0.00712 530.7 0.1
528(12) 0.00709 530.8 0.1
549(13) 0.00632 530.8 0.0
528(13) 0.00611 530.9 0.0
532(12) 0.00667 531.0 0.0
526(12) 0.00714 531.0 0.0
532(12) 0.00694 531.1 0.0
536(13) 0.00639 531.1 0.0
517(13) 0.00638 531.2 0.0
526(12) 0.00675 531.3 0.0
557(12) 0.00664 531.3 0.0
532(12) 0.00693 531.4 0.0
556(13) 0.00618 531.4 0.0
496(12) 0.00669 531.5 0.0
544(13) 0.00633 531.6 0.0
518(12) 0.00716 531.6 0.0
532(12) 0.00703 531.7 0.0
547(13) 0.00638 531.7 0.0
531(13) 0.00634 531.8 0.0
512(12) 0.00669 531.9 0.0
539(12) 0.00690 531.9 0.0
528(12) 0.00704 532.0 0.0
551(13) 0.00631 532.0 0.0
530(13) 0.00628 532.1 0.0
533(12) 0.00657 532.2 0.0
540(12) 0.00687 532.2 0.0
499(12) 0.00724 532.3 0.0
549(13) 0.00624 532.4 0.0
548(13) 0.00615 532.4 0.0
550(13) 0.00626 532.5 0.0
544(12) 0.00686 532.5 0.0
568(13) 0.00629 532.6 0.0
538(12) 0.00652 532.7 0.0
540(13) 0.00632 532.7 0.0
535(12) 0.00664 532.8 0.0
535(12) 0.00698 532.8 0.0
544(12) 0.00651 532.9 0.0
494(12) 0.00685 533.0 0.0
514(12) 0.00657 533.0 0.0
528(12) 0.00677 533.1 0.0
542(12) 0.00681 533.1 0.0
515(12) 0.00673 533.2 0.8
508(12) 0.00655 533.3 0.8
519(12) 0.00655 533.3 0.8
528(12) 0.00681 533.4 0.8
531(12) 0.00701 533.4 0.8
524(12) 0.00677 533.5 0.8
496(12) 0.00669 533.6 0.8
523(12) 0.00649 533.6 0.8
525(12) 0.00702 533.7 0.8
521(12) 0.00712 533.7 0.8
513(12) 0.00674 533.8 0.8
491(12) 0.00679 533.9 0.8
543(13) 0.00636 533.9 0.8
516(12) 0.00712 534.0 0.8
511(12) 0.00731 534.0 0.8
476(12) 0.00725 534.1 0.8
506(13) 0.00621 534.2 0.8
519(12) 0.00676 534.2 0.9
537(12) 0.00702 534.3 0.9
562(12) 0.00657 534.3 0.9
537(13) 0.00639 534.4 0.9
532(13) 0.00596 534.5 0.9
545(13) 0.00638 534.5 0.9
512(12) 0.00734 534.6 0.9
500(12) 0.00723 534.6 0.9
503(12) 0.00689 534.7 0.9
548(13) 0.00594 534.8 0.9
485(12) 0.00732 534.8 0.9
529(12) 0.00708 534.9 0.9
515(12) 0.00688 534.9 0.9
523(12) 0.00643 535.0 0.9
524(13) 0.00632 535.1 0.9
547(13) 0.00628 535.1 0.9
530(12) 0.00701 535.2 0.9
525(12) 0.00692 535.2 0.9
557(13) 0.00605 535.3 0.9
534(12) 0.00648 535.4 1.0
529(12) 0.00680 535.4 1.0
543(12) 0.00685 535.5 1.0
532(12) 0.00672 535.5 1.0
538(13) 0.00635 535.6 1.0
536(12) 0.00641 535.7 1.0
522(12) 0.00677 535.7 1.0
525(12) 0.00709 535.8 1.0
539(12) 0.00660 535.8 1.0
563(13) 0.00608 535.9 1.0
544(13) 0.00639 536.0 1.0
524(12) 0.00688 536.0 1.0
516(12) 0.00714 536.1 1.0
495(12) 0.00692 536.1 1.0
537(13) 0.00618 536.2 1.0
530(12) 0.00647 536.3 1.0
524(12) 0.00680 536.3 1.0
516(12) 0.00722 536.4 1.1
521(12) 0.00662 536.4 1.1
526(12) 0.00646 536.5 1.1
523(12) 0.00673 536.6 1.1
477(11) 0.00770 536.6 1.1
527(12) 0.00712 536.7 1.1
554(13) 0.00630 536.7 1.1
542(13) 0.00603 536.8 1.1
521(12) 0.00669 536.9 1.1
533(12) 0.00698 536.9 1.1
533(12) 0.00693 537.0 1.1
517(12) 0.00672 537.0 1.1
528(13) 0.00600 537.1 1.1
494(12) 0.00703 537.2 1.1
499(12) 0.00731 537.2 1.2
514(12) 0.00729 537.3 1.2
499(12) 0.00710 537.3 1.2
512(12) 0.00650 537.4 1.2
510(12) 0.00679 537.5 1.2
538(12) 0.00692 537.5 1.2
509(12) 0.00708 537.6 1.2
515(12) 0.00673 537.6 1.2
530(13) 0.00614 537.7 1.2
524(12) 0.00669 537.8 1.2
546(12) 0.00681 537.8 1.2
519(12) 0.00688 537.9 1.2
521(12) 0.00652 537.9 1.3
504(12) 0.00657 538.0 1.3
502(12) 0.00704 538.1 1.3
538(12) 0.00696 538.1 1.3
520(12) 0.00697 538.2 1.3
537(13) 0.00638 538.2 1.3
548(13) 0.00620 538.3 1.3
513(12) 0.00682 538.4 1.3
540(12) 0.00689 538.4 1.3
534(12) 0.00666 538.5 1.3
505(12) 0.00682 538.5 1.4
514(12) 0.00660 538.6 1.4
529(12) 0.00676 538.7 1.4
520(12) 0.00718 538.7 1.4
546(12) 0.00651 538.8 1.4
518(12) 0.00668 538.8 1.4
550(13) 0.00605 538.9 1.4
543(12) 0.00660 539.0 1.4
547(12) 0.00676 539.0 1.4
547(13) 0.00639 539.1 1.5
552(13) 0.00604 539.1 1.5
531(12) 0.00652 539.2 1.5
553(12) 0.00672 539.3 1.5
558(12) 0.00666 539.3 1.5
528(12) 0.00678 539.4 1.5
532(13) 0.00618 539.4 1.5
532(12) 0.00652 539.5 1.5
550(12) 0.00667 539.6 1.6
531(12) 0.00703 539.6 1.6
556(13) 0.00627 539.7 1.6
519(13) 0.00622 539.7 1.6
524(12) 0.00666 539.8 1.6
543(12) 0.00678 539.9 1.6
546(12) 0.00678 539.9 1.6
551(12) 0.00643 540.0 1.7
568(13) 0.00567 540.0 1.7
528(12) 0.00659 540.1 1.7
527(12) 0.00706 540.2 1.7
527(12) 0.00707 540.2 1.7
528(12) 0.00652 540.3 1.7
544(13) 0.00599 540.3 1.8
540(12) 0.00648 540.4 1.8
511(12) 0.00730 540.5 1.8
535(12) 0.00682 540.5 1.8
556(13) 0.00603 540.6 1.8
533(13) 0.00609 540.6 1.9
531(12) 0.00657 540.7 1.9
549(12) 0.00679 540.8 1.9
529(12) 0.00692 540.8 1.9
537(12) 0.00647 540.9 2.0
518(12) 0.00645 540.9 2.0
518(12) 0.00664 541.0 2.0
541(12) 0.00690 541.1 2.1
554(12) 0.00659 541.1 2.1
530(12) 0.00654 541.2 2.1
508(12) 0.00681 541.2 2.2
535(12) 0.00641 541.3 2.2
536(12) 0.00692 541.4 2.3
526(12) 0.00688 541.4 2.4
537(12) 0.00656 541.5 2.4
587(13) 0.00580 541.5 2.5
528(12) 0.00671 541.6 2.6
533(12) 0.00699 541.7 2.7
513(12) 0.00699 541.7 2.8
537(13) 0.00637 541.8 3.0
532(12) 0.00661 541.8 3.1
575(13) 0.00625 541.9 3.2
569(12) 0.00655 542.0 3.4
527(12) 0.00677 542.0 3.6
553(13) 0.00601 542.1 3.8
553(13) 0.00630 542.2 3.9
561(13) 0.00634 542.2 4.1
569(12) 0.00654 542.3 4.2
563(13) 0.00594 542.3 4.3
562(13) 0.00585 542.4 4.3
531(12) 0.00666 542.5 4.3
536(12) 0.00688 542.5 4.3
521(12) 0.00718 542.6 4.2
538(12) 0.00666 542.6 4.1
548(13) 0.00617 542.7 3.9
545(13) 0.00631 542.8 3.8
518(12) 0.00705 542.8 3.7
541(12) 0.00684 542.9 3.5
537(12) 0.00655 542.9 3.4
567(13) 0.00571 543.0 3.3
531(12) 0.00670 543.1 3.2
545(12) 0.00677 543.1 3.2
516(12) 0.00713 543.2 3.1
540(12) 0.00642 543.2 3.1
530(13) 0.00635 543.3 3.0
524(12) 0.00670 543.4 3.0
522(12) 0.00711 543.4 3.0
549(12) 0.00672 543.5 2.9
561(13) 0.00630 543.5 2.9
541(13) 0.00612 543.6 2.9
554(13) 0.00623 543.7 2.9
507(12) 0.00733 543.7 2.9
511(12) 0.00716 543.8 2.9
516(12) 0.00673 543.8 2.9
531(13) 0.00610 543.9 3.0
555(13) 0.00614 544.0 3.0
530(12) 0.00700 544.0 3.0
522(12) 0.00703 544.1 3.0
563(13) 0.00607 544.1 3.0
540(13) 0.00623 544.2 3.1
546(13) 0.00635 544.3 3.1
569(12) 0.00651 544.3 3.1
514(12) 0.00709 544.4 3.1
529(12) 0.00668 544.4 3.1
538(12) 0.00651 544.5 3.2
549(13) 0.00629 544.6 3.2
569(12) 0.00654 544.6 3.2
551(12) 0.00646 544.7 3.3
515(12) 0.00673 544.7 3.3
546(13) 0.00622 544.8 3.3
569(13) 0.00611 544.9 3.4
527(12) 0.00695 544.9 3.4
570(13) 0.00623 545.0 3.4
537(13) 0.00631 545.0 3.5
514(12) 0.00684 545.1 3.5
557(12) 0.00647 545.2 3.5
564(12) 0.00659 545.2 3.6
526(13) 0.00639 545.3 3.6
520(12) 0.00643 545.3 3.6
510(12) 0.00684 545.4 3.7
562(12) 0.00645 545.5 3.7
528(12) 0.00703 545.5 3.8
551(13) 0.00625 545.6 3.8
556(13) 0.00582 545.6 3.8
524(12) 0.00678 545.7 3.9
548(12) 0.00665 545.8 3.9
566(12) 0.00659 545.8 4.0
587(13) 0.00590 545.9 4.0
537(13) 0.00610 545.9 4.1
538(12) 0.00654 546.0 4.1
542(12) 0.00674 546.1 4.2
491(11) 0.00758 546.1 4.2
520(12) 0.00677 546.2 4.3
529(13) 0.00605 546.2 4.3
542(12) 0.00650 546.3 4.4
548(12) 0.00682 546.4 4.4
553(12) 0.00658 546.4 4.5
557(13) 0.00614 546.5 4.5
540(13) 0.00600 546.5 4.6
531(12) 0.00660 546.6 4.7
535(12) 0.00680 546.7 4.7
503(12) 0.00734 546.7 4.8
548(12) 0.00643 546.8 4.8
552(13) 0.00593 547.1 4.9
562(13) 0.00620 547.3 5.0
547(12) 0.00677 547.6 5.0
550(12) 0.00655 547.8 5.1
570(13) 0.00615 548.1 5.2
570(13) 0.00598 548.4 5.2
548(13) 0.00636 548.6 5.3
542(12) 0.00684 548.9 5.4
549(12) 0.00659 549.1 5.5
524(12) 0.00676 549.4 5.5
570(13) 0.00582 549.7 5.6
554(12) 0.00646 549.9 5.7
542(12) 0.00680 550.2 5.8
547(12) 0.00654 550.4 5.9
548(13) 0.00622 550.7 6.0
536(13) 0.00633 550.9 6.0
541(13) 0.00640 551.2 6.1
547(12) 0.00681 551.5 6.2
522(12) 0.00659 551.7 6.3
565(13) 0.00583 552.0 7.3
543(12) 0.00649 552.2 7.4
544(12) 0.00653 552.5 7.5
538(12) 0.00695 552.8 7.7
522(13) 0.00638 553.0 7.8
545(13) 0.00608 553.3 7.9
530(12) 0.00657 553.5 8.0
535(12) 0.00673 553.8 8.1
558(12) 0.00671 554.1 8.2
520(12) 0.00691 554.3 8.4
551(13) 0.00619 554.6 8.5
553(13) 0.00630 554.8 8.6
514(12) 0.00707 555.1 8.7
525(12) 0.00712 555.3 8.9
584(13) 0.00607 555.6 9.0
582(13) 0.00569 555.9 9.2
541(12) 0.00666 556.1 9.3
541(12) 0.00693 556.4 9.5
527(12) 0.00697 556.6 9.6
553(13) 0.00638 556.9 9.8
557(13) 0.00571 557.2 9.9
580(13) 0.00598 557.4 10.1
566(12) 0.00651 557.7 10.3
544(12) 0.00682 557.9 10.4
571(13) 0.00596 558.2 10.6
514(12) 0.00650 558.4 10.8
569(13) 0.00613 558.7 11.0
553(12) 0.00677 559.0 11.2
534(12) 0.00693 559.2 11.4
553(13) 0.00630 559.5 11.6
544(13) 0.00625 559.7 11.8
577(13) 0.00592 560.0 12.1
559(12) 0.00670 560.3 12.3
522(12) 0.00683 560.5 12.5
563(13) 0.00622 560.8 12.8
557(13) 0.00595 561.0 13.0
581(13) 0.00584 561.3 13.3
559(12) 0.00664 561.5 13.5
568(13) 0.00638 561.8 13.8
557(13) 0.00620 562.1 14.1
547(13) 0.00626 562.3 14.4
569(13) 0.00601 562.6 14.7
582(12) 0.00640 562.8 15.0
553(12) 0.00651 563.1 15.3
576(13) 0.00591 563.4 15.7
563(13) 0.00616 563.6 16.0
580(13) 0.00606 563.9 16.4
572(12) 0.00651 564.1 16.7
562(13) 0.00635 564.4 17.1
577(13) 0.00573 564.6 17.5
569(13) 0.00598 564.9 17.9
573(13) 0.00628 565.2 18.4
577(12) 0.00642 565.4 18.8
585(13) 0.00591 565.7 19.3
578(13) 0.00566 565.9 19.8
581(13) 0.00584 566.2 20.3
561(12) 0.00644 566.5 20.8
590(13) 0.00634 566.7 21.3
573(13) 0.00606 567.0 21.9
602(14) 0.00539 567.2 22.5
571(13) 0.00599 567.5 23.1
562(13) 0.00631 567.8 23.7
559(12) 0.00669 568.0 24.4
544(12) 0.00642 568.3 25.1
557(13) 0.00592 568.5 25.8
587(13) 0.00593 568.8 26.6
582(13) 0.00640 569.0 27.4
595(13) 0.00622 569.3 28.2
564(13) 0.00612 569.6 29.1
597(14) 0.00541 569.8 30.0
565(13) 0.00625 570.1 30.9
566(12) 0.00652 570.3 31.9
629(13) 0.00582 570.6 33.0
592(13) 0.00596 570.9 34.1
554(13) 0.00603 571.1 35.3
554(13) 0.00638 571.4 36.5
559(12) 0.00663 571.6 37.8
561(12) 0.00656 571.9 39.2
591(13) 0.00590 572.1 40.7
599(14) 0.00539 572.4 42.2
564(13) 0.00626 572.7 43.8
565(12) 0.00647 572.9 45.6
559(12) 0.00653 573.2 47.4
553(13) 0.00613 573.4 49.4
596(14) 0.00545 573.7 51.4
606(13) 0.00578 574.0 53.7
566(12) 0.00658 574.2 56.0
556(12) 0.00657 574.5 58.6
616(13) 0.00549 574.7 61.3
634(14) 0.00527 575.0 64.2
614(13) 0.00582 575.2 67.3
595(13) 0.00619 575.5 70.6
601(13) 0.00602 575.8 74.3
605(13) 0.00573 576.0 78.2
585(13) 0.00580 576.3 82.4
586(13) 0.00600 576.5 87.0
593(13) 0.00630 576.8 91.9
619(13) 0.00563 577.1 97.3
592(13) 0.00577 577.3 103.3
575(13) 0.00610 577.6 109.7
609(13) 0.00583 577.8 116.8
654(13) 0.00569 578.1 124.6
652(14) 0.00540 578.4 133.3
663(14) 0.00499 578.6 142.8
666(14) 0.00524 578.9 153.5
664(14) 0.00539 579.1 165.3
663(13) 0.00559 579.4 178.6
658(14) 0.00521 579.6 193.6
682(15) 0.00475 579.9 210.5
706(15) 0.00474 580.2 229.7
757(14) 0.00482 580.4 251.6
746(14) 0.00496 580.7 276.8
785(15) 0.00442 580.9 306.0
785(15) 0.00426 581.2 339.9
822(15) 0.00426 581.5 379.8
892(16) 0.00412 581.7 427.2
944(16) 0.00395 582.0 484.2
1097(18) 0.003184 582.2 554.6
1289(20) 0.002511 582.5 644.2
1572(22) 0.002160 582.7 763.4
1889(23) 0.001932 583.0 930.0
2370(25) 0.001570 583.3 1172.4
2869(28) 0.001232 583.5 1532.9
3487(33) 0.000916 583.8 2066.8
4125(35) 0.000840 584.0 2836.5
4962(37) 0.000740 584. 3895.
5873(40) 0.000626 585. 5264.
6748(44) 0.000514 585. 6905.
8036(50) 0.000404 585. 8671.
9740(53) 0.000352 585. 10266.
11583(56) 0.0003145 586. 11235.
12846(60) 0.0002797 586. 11195.
12226(60) 0.0002760 586. 10162.
9944(55) 0.0003281 586. 8541.
7318(46) 0.000479 587. 6776.
5296(38) 0.000697 587. 5152.
4003(33) 0.000892 587.1 3805.7
3081(30) 0.001106 587.4 2769.7
2481(27) 0.001353 587.7 2019.9
2152(25) 0.001602 587.9 1500.9
1723(22) 0.002158 588.2 1150.9
1566(21) 0.002283 588.4 915.6
1376(20) 0.002508 588.7 753.4
1203(19) 0.002863 588.9 636.9
1124(18) 0.003107 589.2 549.0
1080(17) 0.003450 589.5 479.8
1026(17) 0.003456 589.7 423.6
985(17) 0.003421 590.0 376.8
914(16) 0.00373 590.2 337.5
861(16) 0.00411 590.5 303.9
885(15) 0.00422 590.8 275.1
826(15) 0.00421 591.0 250.2
762(15) 0.00455 591.3 228.5
725(14) 0.00482 591.5 209.5
713(14) 0.00504 591.8 192.8
697(14) 0.00534 592.1 177.9
699(14) 0.00497 592.3 164.8
673(14) 0.00497 592.6 153.0
710(14) 0.00484 592.8 142.5
720(14) 0.00486 593.1 133.0
649(13) 0.00570 593.3 124.5
649(14) 0.00519 593.6 116.7
666(14) 0.00492 593.9 109.7
660(14) 0.00522 594.1 103.4
650(13) 0.00565 594.4 97.5
668(13) 0.00558 594.6 92.1
644(14) 0.00543 594.9 87.2
646(14) 0.00506 595.2 82.7
591(13) 0.00606 595.4 78.5
627(13) 0.00583 595.7 74.6
638(13) 0.00580 595.9 71.0
638(14) 0.00533 596.2 67.7
620(14) 0.00508 596.4 64.6
595(13) 0.00594 596.7 61.8
625(13) 0.00595 597.0 59.1
622(13) 0.00595 597.2 56.6
638(14) 0.00545 597.5 54.3
643(14) 0.00507 597.7 52.1
642(14) 0.00522 598.0 50.0
599(13) 0.00623 598.3 48.1
606(13) 0.00609 598.5 46.3
579(13) 0.00608 598.8 44.6
599(13) 0.00553 599.0 43.0
618(13) 0.00555 599.3 41.4
568(12) 0.00657 599.5 40.0
611(13) 0.00594 599.8 38.6
593(13) 0.00595 600.1 37.4
585(13) 0.00567 600.3 36.1
589(13) 0.00590 600.6 35.0
616(13) 0.00606 600.8 33.9
630(13) 0.00575 601.1 32.9
597(13) 0.00581 601.4 31.9
601(13) 0.00558 601.6 30.9
631(13) 0.00561 601.9 30.0
611(13) 0.00611 602.1 29.2
579(13) 0.00612 602.4 28.4
578(13) 0.00601 602.6 27.6
611(13) 0.00559 602.9 26.9
623(13) 0.00565 603.2 26.2
635(13) 0.00586 603.4 25.5
601(13) 0.00573 603.7 24.8
586(13) 0.00582 603.9 24.2
605(13) 0.00571 604.2 23.6
610(13) 0.00589 604.5 23.1
619(13) 0.00605 604.7 22.5
605(13) 0.00578 605.0 22.0
602(13) 0.00560 605.2 21.5
590(13) 0.00599 605.5 21.0
607(13) 0.00601 605.8 20.6
594(13) 0.00624 606.0 20.1
598(13) 0.00585 606.3 19.7
609(14) 0.00545 606.5 19.3
613(13) 0.00578 606.8 18.9
560(12) 0.00666 607.0 18.5
583(13) 0.00631 607.3 18.1
589(13) 0.00604 607.6 17.8
607(14) 0.00534 607.8 17.5
600(13) 0.00574 608.1 17.1
588(13) 0.00624 608.3 16.8
608(13) 0.00616 608.6 16.5
610(13) 0.00583 608.9 16.2
631(14) 0.00520 609.1 15.9
608(13) 0.00581 609.4 15.7
618(13) 0.00602 609.6 15.4
624(13) 0.00587 609.9 15.2
607(13) 0.00577 610.1 14.9
620(14) 0.00513 610.4 14.7
587(13) 0.00602 610.7 14.4
616(13) 0.00606 610.9 14.2
599(13) 0.00613 611.2 14.0
620(13) 0.00563 611.4 13.8
587(13) 0.00574 611.7 13.6
588(13) 0.00593 612.0 13.4
609(13) 0.00609 612.2 13.2
594(13) 0.00609 612.5 13.0
570(13) 0.00595 612.7 12.9
598(14) 0.00548 613.0 12.7
569(13) 0.00628 613.2 12.5
635(13) 0.00586 613.5 12.4
639(13) 0.00557 613.8 12.2
616(13) 0.00553 614.0 12.1
628(14) 0.00515 614.3 11.9
601(13) 0.00575 614.5 11.8
594(13) 0.00623 614.8 11.7
630(13) 0.00569 615.1 11.5
654(14) 0.00526 615.3 11.4
606(13) 0.00563 615.6 11.3
584(13) 0.00602 615.8 11.2
597(13) 0.00617 616.1 11.0
581(13) 0.00616 616.3 10.9
618(14) 0.00537 616.6 10.8
628(14) 0.00537 616.9 10.7
599(13) 0.00578 617.1 10.6
589(13) 0.00625 617.4 10.5
650(14) 0.00524 617.6 10.4
606(13) 0.00553 617.9 10.3
621(13) 0.00568 618.2 10.2
618(13) 0.00579 618.4 10.2
584(13) 0.00631 618.7 10.1
594(13) 0.00591 618.9 10.0
597(13) 0.00562 619.2 9.9
602(13) 0.00578 619.5 9.8
596(13) 0.00609 619.7 9.8
635(13) 0.00587 620.0 9.7
645(14) 0.00536 620.2 9.6
626(14) 0.00524 620.5 9.6
605(13) 0.00579 620.7 9.5
614(13) 0.00597 621.0 9.4
611(13) 0.00616 621.3 9.4
627(14) 0.00530 621.5 9.3
626(14) 0.00521 621.8 9.3
603(13) 0.00581 622.0 9.2
607(13) 0.00596 622.3 9.2
640(13) 0.00576 622.6 9.1
604(13) 0.00576 622.8 9.1
616(14) 0.00519 623.1 9.0
602(13) 0.00574 623.3 9.0
613(13) 0.00609 623.6 8.9
589(13) 0.00614 623.8 8.9
627(14) 0.00537 624.1 8.8
616(14) 0.00529 624.4 8.8
620(13) 0.00558 624.6 8.8
689(14) 0.00539 624.9 8.7
654(13) 0.00551 625.1 8.7
617(13) 0.00563 625.4 8.7
629(14) 0.00525 625.8 8.6
671(14) 0.00515 626.3 8.6
610(13) 0.00611 626.8 8.6
649(14) 0.00545 627.3 8.6
620(13) 0.00556 627.8 8.5
624(14) 0.00539 628.2 8.5
647(14) 0.00528 628.7 8.5
642(13) 0.00580 629.2 8.5
612(13) 0.00586 629.7 8.5
606(13) 0.00561 630.1 8.5
624(14) 0.00538 630.6 8.4
659(14) 0.00527 631.1 8.4
618(13) 0.00603 631.6 8.4
608(13) 0.00588 632.1 8.4
606(13) 0.00567 632.5 8.4
652(14) 0.00520 633.0 8.4
639(13) 0.00556 633.5 8.4
643(13) 0.00577 634.0 8.4
621(13) 0.00569 634.5 8.4
610(13) 0.00570 634.9 8.4
661(14) 0.00527 635.4 8.4
643(13) 0.00562 635.9 8.4
590(13) 0.00633 636.4 8.4
602(13) 0.00585 636.8 8.4
615(14) 0.00548 637.3 8.4
635(14) 0.00543 637.8 8.4
607(13) 0.00605 638.3 8.4
645(13) 0.00579 638.8 8.4
626(13) 0.00553 639.2 8.4
654(14) 0.00514 639.7 8.4
617(13) 0.00573 640.2 8.4
683(14) 0.00528 640.7 8.4
626(13) 0.00598 641.2 8.4
633(13) 0.00550 641.6 8.4
645(14) 0.00506 642.1 8.4
628(13) 0.00559 642.6 8.5
666(13) 0.00552 643.1 8.5
648(13) 0.00570 643.5 8.5
644(14) 0.00545 644.0 8.5
627(14) 0.00528 644.5 8.5
642(14) 0.00539 645.0 8.5
628(13) 0.00588 645.5 8.6
635(13) 0.00572 645.9 8.6
643(14) 0.00548 646.4 8.6
631(14) 0.00519 646.9 8.6
673(14) 0.00494 647.4 8.7
649(13) 0.00571 647.9 8.7
652(13) 0.00563 648.3 8.7
647(14) 0.00524 648.8 8.7
613(13) 0.00549 649.3 8.8
640(14) 0.00538 649.8 8.8
592(13) 0.00627 650.2 8.8
653(13) 0.00551 650.7 8.9
654(14) 0.00538 651.2 8.9
651(14) 0.00516 651.7 8.9
653(14) 0.00525 652.2 9.0
642(13) 0.00582 652.6 9.0
618(13) 0.00581 653.1 9.1
609(13) 0.00581 653.6 9.1
649(14) 0.00517 654.1 9.1
652(14) 0.00532 654.5 9.2
646(13) 0.00576 655.0 9.2
636(13) 0.00557 655.5 9.3
657(14) 0.00519 656.0 9.3
656(14) 0.00522 656.5 9.4
637(13) 0.00561 656.9 9.4
651(13) 0.00574 657.4 9.5
661(14) 0.00535 657.9 9.7
609(13) 0.00570 658.4 9.8
633(14) 0.00539 658.9 9.8
658(14) 0.00543 659.3 9.9
651(13) 0.00570 659.8 9.9
643(14) 0.00540 660.3 10.0
648(14) 0.00533 660.8 10.0
647(14) 0.00524 661.2 10.1
642(13) 0.00567 661.7 10.2
685(14) 0.00543 662.2 10.2
643(14) 0.00524 662.7 10.3
635(14) 0.00520 663.2 10.4
675(14) 0.00508 663.6 10.5
630(13) 0.00585 664.1 10.5
653(13) 0.00569 664.6 10.6
706(14) 0.00487 665.1 10.7
653(14) 0.00507 665.6 10.8
645(14) 0.00537 666.0 10.8
662(13) 0.00559 666.5 10.9
664(13) 0.00556 667.0 11.0
650(14) 0.00534 667.5 11.1
659(14) 0.00495 667.9 11.2
694(14) 0.00501 668.4 11.3
616(13) 0.00605 668.9 11.4
643(13) 0.00573 669.4 11.4
648(14) 0.00542 669.9 11.5
693(15) 0.00449 670.3 11.6
665(14) 0.00528 670.8 11.7
661(13) 0.00561 671.3 11.8
659(13) 0.00558 671.8 11.9
683(14) 0.00515 672.3 12.0
643(14) 0.00531 672.7 12.2
669(14) 0.00514 673.2 12.3
682(14) 0.00542 673.7 12.4
691(14) 0.00525 674.2 12.5
690(14) 0.00497 674.6 12.6
690(14) 0.00481 675.1 12.7
684(14) 0.00505 675.6 12.9
692(14) 0.00539 676.1 13.0
668(14) 0.00541 676.6 13.1
638(14) 0.00538 677.0 13.2
685(14) 0.00481 677.5 13.4
678(14) 0.00509 678.0 13.5
679(14) 0.00548 678.5 13.7
669(14) 0.00542 679.0 13.8
692(14) 0.00504 679.4 13.9
709(14) 0.00486 679.9 14.1
667(14) 0.00532 680.5 14.2
656(13) 0.00565 681.0 14.4
698(14) 0.00512 681.6 14.6
683(14) 0.00499 682.2 14.7
647(14) 0.00528 682.8 14.9
677(14) 0.00526 683.3 15.1
685(14) 0.00543 683.9 15.2
690(14) 0.00501 684.5 15.4
691(14) 0.00483 685.1 15.6
688(14) 0.00502 685.6 15.8
706(14) 0.00512 686.2 16.0
649(13) 0.00575 686.8 16.2
676(14) 0.00512 687.4 16.4
715(15) 0.00462 687.9 16.6
694(14) 0.00501 688.5 16.8
709(14) 0.00516 689.1 17.0
680(14) 0.00547 689.7 17.2
670(14) 0.00512 690.2 17.5
702(15) 0.00473 690.8 17.7
705(14) 0.00496 691.4 17.9
711(14) 0.00520 691.9 18.2
718(14) 0.00518 692.5 18.4
695(14) 0.00497 693.1 18.7
712(15) 0.00464 693.7 18.9
709(14) 0.00496 694.2 19.2
719(14) 0.00514 694.8 19.5
677(13) 0.00554 695.4 19.7
717(14) 0.00487 696.0 20.0
706(15) 0.00460 696.5 20.3
716(14) 0.00485 697.1 20.6
689(14) 0.00530 697.7 20.9
674(13) 0.00555 698.3 21.3
699(14) 0.00498 698.8 21.6
721(15) 0.00448 699.4 21.9
684(14) 0.00510 700.0 22.3
687(14) 0.00543 700.6 22.6
691(14) 0.00527 701.1 23.0
690(14) 0.00502 701.7 23.3
709(15) 0.00474 702.3 23.7
724(15) 0.00474 702.8 24.1
718(14) 0.00519 703.4 24.5
728(14) 0.00490 704.0 24.9
680(14) 0.00509 704.6 25.4
698(15) 0.00475 705.1 25.8
703(14) 0.00488 705.7 26.2
683(14) 0.00544 706.3 26.7
682(14) 0.00526 706.9 27.2
711(15) 0.00475 707.4 27.7
689(14) 0.00515 708.0 28.2
704(14) 0.00500 708.6 28.7
693(14) 0.00537 709.2 29.2
708(14) 0.00512 709.7 29.8
745(15) 0.00462 710.3 30.4
719(14) 0.00478 710.9 30.9
685(14) 0.00528 711.5 31.5
707(14) 0.00528 712.0 32.2
718(14) 0.00487 712.6 32.8
693(14) 0.00496 713.2 33.5
704(14) 0.00490 713.8 34.2
713(14) 0.00510 714.3 34.9
734(14) 0.00505 714.9 35.6
705(14) 0.00495 715.5 36.4
736(15) 0.00438 716.0 37.2
716(14) 0.00480 716.6 38.0
721(14) 0.00499 717.2 38.8
697(14) 0.00532 717.8 39.7
704(14) 0.00498 718.3 40.6
721(15) 0.00460 718.9 41.5
747(15) 0.00464 719.5 42.5
729(14) 0.00507 720.1 43.5
733(14) 0.00504 720.6 44.5
734(14) 0.00478 721.2 45.6
712(15) 0.00459 721.8 46.7
746(15) 0.00453 722.4 47.9
734(14) 0.00505 722.9 49.1
720(14) 0.00520 723.5 50.3
734(14) 0.00476 724.1 51.6
729(15) 0.00451 724.7 53.0
761(15) 0.00457 725.2 54.4
729(14) 0.00510 725.8 55.9
726(14) 0.00513 726.4 57.4
759(15) 0.00446 727.0 59.0
742(15) 0.00437 727.5 60.7
745(15) 0.00461 728.1 62.4
730(14) 0.00516 728.7 64.2
771(15) 0.00469 729.2 66.1
727(14) 0.00478 729.8 68.1
743(15) 0.00442 730.4 70.2
713(14) 0.00496 731.0 72.4
765(14) 0.00485 731.5 74.7
766(15) 0.00471 732.1 77.1
765(15) 0.00442 732.7 79.6
735(15) 0.00459 733.3 82.3
740(15) 0.00468 733.8 85.0
760(14) 0.00490 734.4 88.0
769(15) 0.00461 735.0 91.1
773(15) 0.00444 735.6 94.3
763(15) 0.00448 736.1 97.9
793(15) 0.00437 736.7 101.6
730(14) 0.00509 737.3 105.4
771(15) 0.00448 737.9 109.5
787(15) 0.00424 738.4 113.8
792(15) 0.00428 739.0 118.4
772(15) 0.00459 739.6 123.2
755(14) 0.00492 740.2 128.4
813(15) 0.00427 740.7 133.9
825(16) 0.00406 741.3 139.8
799(15) 0.00430 741.9 146.0
790(15) 0.00455 742.4 152.7
828(15) 0.00448 743.0 159.9
835(16) 0.00406 743.6 167.6
847(16) 0.00388 744.2 175.9
844(16) 0.00415 744.7 184.8
853(15) 0.00423 745.3 194.4
862(15) 0.00432 745.9 204.7
873(16) 0.00396 746.5 216.0
860(16) 0.00391 747.0 228.1
897(16) 0.00376 747.6 241.4
883(16) 0.00415 748.2 255.8
963(16) 0.00388 748.8 271.6
939(16) 0.00377 749.3 288.9
931(17) 0.00351 749.9 308.0
972(17) 0.00357 750.5 328.9
948(16) 0.00389 751.1 352.2
1012(17) 0.00366 751.6 377.9
1016(17) 0.003427 752.2 406.7
1066(18) 0.002998 752.8 439.0
1169(18) 0.003027 753.3 475.4
1208(18) 0.003084 753.9 516.9
1210(18) 0.003029 754.5 564.6
1262(19) 0.002764 755.1 620.4
1385(21) 0.002324 755.6 686.8
1468(21) 0.002354 756.2 767.1
1580(21) 0.002335 756.8 866.0
1707(22) 0.002149 757.4 988.9
1891(23) 0.001851 757.9 1142.4
2078(25) 0.001585 758.5 1333.5
2306(26) 0.001518 759.1 1568.6
2640(27) 0.001403 759.7 1853.9
2902(28) 0.001272 760.2 2192.4
3392(31) 0.001022 760.8 2583.5
3950(34) 0.000842 761.4 3024.8
4579(37) 0.000742 762. 3525.
5318(38) 0.000693 763. 4118.
6001(41) 0.000602 763. 4849.
6960(45) 0.000490 764. 5760.
7895(49) 0.000420 764. 6869.
8949(51) 0.000384 765. 8161.
10516(54) 0.0003490 765. 9577.
11857(58) 0.0002966 766. 10992.
13353(63) 0.0002522 767. 12205.
14437(66) 0.0002312 767. 12965.
14626(65) 0.0002376 768. 13068.
13528(61) 0.0002699 768. 12477.
12066(59) 0.0002828 769. 11346.
10403(56) 0.0003224 769. 9920.
8826(51) 0.000388 770. 8420.
7551(46) 0.000472 771. 6994.
6368(42) 0.000579 771. 5722.
5501(40) 0.000617 772. 4637.
4705(37) 0.000714 772. 3742.
4122(35) 0.000833 772.9 3024.7
3455(31) 0.001049 773.4 2462.1
3099(29) 0.001198 774.0 2027.3
2772(28) 0.001235 774.6 1694.0
2446(27) 0.001376 775.2 1438.2
2287(26) 0.001535 775.7 1240.2
2137(24) 0.001723 776.3 1084.5
1936(23) 0.001916 776.9 959.6
1811(23) 0.001931 777.5 857.3
1719(23) 0.001918 778.0 771.8
1650(22) 0.002095 778.6 699.2
1518(20) 0.002440 779.2 636.6
1429(20) 0.002591 779.7 582.2
1353(20) 0.002570 780.3 534.5
1331(20) 0.002395 780.9 492.4
1285(19) 0.002671 781.5 455.1
1198(18) 0.003108 782.0 421.8
1221(18) 0.003014 782.6 391.9
1212(19) 0.002831 783.2 365.2
1164(19) 0.002810 783.8 341.0
1136(18) 0.003061 784.3 319.2
1094(17) 0.003406 784.9 299.3
1087(17) 0.003354 785.5 281.3
1064(17) 0.003325 786.1 264.8
1043(18) 0.003192 786.6 249.8
1024(17) 0.003413 787.2 235.9
1025(17) 0.00363 787.8 223.2
1000(17) 0.00367 788.4 211.5
992(17) 0.00352 788.9 200.7
971(17) 0.003420 789.5 190.7
938(16) 0.00373 790.1 181.5
965(16) 0.00384 790.7 172.9
906(16) 0.00398 791.2 164.9
958(17) 0.00358 791.8 157.4
943(17) 0.00356 792.4 150.4
914(16) 0.00382 792.9 143.9
921(16) 0.00405 793.5 137.8
866(16) 0.00415 794.1 132.1
894(16) 0.00390 794.7 126.8
870(16) 0.00390 795.2 121.7
904(16) 0.00383 795.8 117.0
908(16) 0.00411 796.4 112.5
859(16) 0.00406 797.0 108.3
891(16) 0.00376 797.5 104.4
907(16) 0.00370 798.1 100.6
820(15) 0.00436 798.7 97.1
840(15) 0.00445 799.3 93.7
882(16) 0.00391 799.8 90.5
851(16) 0.00402 800.4 87.5
894(16) 0.00378 801.0 84.6
850(15) 0.00423 801.6 81.9
887(15) 0.00419 802.1 79.3
900(16) 0.00375 802.7 76.8
808(15) 0.00420 803.3 74.5
863(16) 0.00392 803.8 72.2
839(15) 0.00426 804.4 70.1
795(15) 0.00470 805.0 68.1
865(16) 0.00402 805.6 66.1
866(16) 0.00373 806.1 64.2
819(15) 0.00433 806.7 62.5
818(15) 0.00455 807.3 60.7
855(15) 0.00438 807.9 59.1
830(16) 0.00414 808.4 57.6
849(16) 0.00373 809.0 56.1
832(15) 0.00416 809.6 54.6
844(15) 0.00441 810.2 53.2
858(15) 0.00432 810.7 51.9
802(15) 0.00436 811.3 50.6
840(16) 0.00382 811.9 49.4
841(15) 0.00419 812.5 48.2
827(15) 0.00452 813.0 47.1
837(15) 0.00442 813.6 46.0
819(15) 0.00424 814.2 45.0
812(16) 0.00411 814.8 44.0
835(15) 0.00419 815.3 43.0
814(15) 0.00456 815.9 42.1
843(15) 0.00431 816.5 41.2
852(16) 0.00414 817.0 40.3
868(16) 0.00391 817.6 39.5
808(15) 0.00429 818.2 38.6
816(15) 0.00457 818.8 37.9
822(15) 0.00440 819.3 37.1
788(15) 0.00444 819.9 36.4
784(15) 0.00430 820.5 35.7
798(15) 0.00434 821.1 35.0
838(15) 0.00440 821.6 34.4
839(15) 0.00431 822.2 33.7
848(16) 0.00409 822.8 33.1
849(16) 0.00397 823.4 32.5
812(15) 0.00437 823.9 32.0
808(15) 0.00460 824.5 31.4
813(15) 0.00435 825.1 30.9
869(16) 0.00383 825.7 30.4
861(16) 0.00389 826.2 29.9
827(15) 0.00430 826.8 29.4
849(15) 0.00438 827.4 29.0
828(15) 0.00424 828.0 28.5
799(15) 0.00437 828.5 28.1
835(16) 0.00415 829.1 27.7
818(15) 0.00441 829.7 27.3
819(15) 0.00452 830.2 26.9
847(16) 0.00408 830.8 26.5
817(16) 0.00415 831.4 26.2
882(16) 0.00389 832.0 25.8
842(15) 0.00433 832.5 25.5
833(15) 0.00448 833.1 25.2
863(16) 0.00402 833.7 24.9
831(16) 0.00395 834.3 24.6
814(15) 0.00430 834.8 24.3
844(15) 0.00435 835.4 24.1
844(15) 0.00443 836.0 23.8
853(16) 0.00410 836.6 23.6
829(16) 0.00400 837.1 23.4
846(15) 0.00417 837.7 23.1
822(15) 0.00447 838.3 22.9
839(15) 0.00440 838.9 22.8
878(16) 0.00388 839.5 22.6
796(16) 0.00410 840.1 22.4
837(16) 0.00412 840.7 22.3
816(15) 0.00458 841.3 22.2
876(15) 0.00421 841.9 22.0
848(16) 0.00406 842.5 21.9
825(16) 0.00409 843.0 21.9
876(16) 0.00392 843.6 21.8
837(15) 0.00444 844.2 21.7
821(15) 0.00446 844.8 21.7
814(15) 0.00427 845.4 21.7
848(16) 0.00389 846.0 21.7
862(16) 0.00396 846.6 21.7
893(16) 0.00414 847.2 21.8
835(15) 0.00438 847.8 21.8
819(15) 0.00419 848.4 21.9
875(16) 0.00375 849.0 22.1
842(15) 0.00419 849.6 22.2
845(15) 0.00445 850.2 22.4
845(16) 0.00414 850.7 22.6
853(16) 0.00403 851.3 22.9
855(16) 0.00396 851.9 23.2
832(15) 0.00421 852.5 23.6
829(15) 0.00444 853.1 24.0
822(15) 0.00437 853.7 24.5
848(16) 0.00398 854.3 25.0
825(15) 0.00417 854.9 25.6
867(16) 0.00406 855.5 26.3
820(15) 0.00454 856.1 27.1
847(15) 0.00418 856.7 28.0
884(16) 0.00386 857.3 29.1
870(16) 0.00397 857.8 30.3
874(16) 0.00407 858.4 31.7
855(15) 0.00437 859.0 33.2
902(16) 0.00372 859.6 35.1
875(16) 0.00383 860.2 37.2
894(16) 0.00390 860.8 39.7
891(16) 0.00405 861.4 42.6
904(16) 0.00414 862.0 46.1
893(16) 0.00399 862.6 50.2
896(16) 0.00369 863.2 55.1
910(16) 0.00380 863.8 61.2
920(16) 0.00398 864.4 68.6
990(16) 0.00376 865.0 77.9
1007(17) 0.003374 865.5 90.2
1028(18) 0.003129 866.1 107.7
1122(18) 0.003075 866.7 135.4
1231(18) 0.002991 867.3 183.3
1397(19) 0.002656 867.9 270.2
1554(21) 0.002260 868.5 423.8
1700(23) 0.001933 869.1 675.2
1981(24) 0.001764 869.7 1044.9
2205(25) 0.001662 870.3 1519.5
2496(26) 0.001485 870.9 2031.9
2977(29) 0.001177 871.5 2446.2
3463(33) 0.000934 872.1 2588.6
3825(33) 0.000896 872.7 2382.0
3204(29) 0.001161 873.2 1935.2
2172(25) 0.001636 873.8 1421.5
1588(21) 0.002169 874.4 963.5
1344(20) 0.002446 875.0 616.9
1209(19) 0.002885 875.6 386.3
1129(17) 0.003299 876.2 248.0
1028(17) 0.00352 876.8 170.3
1005(17) 0.003374 877.4 127.2
965(17) 0.003370 878.0 101.9
980(17) 0.00355 878.6 85.5
976(16) 0.00380 879.2 73.7
943(16) 0.00378 879.8 64.6
948(17) 0.00361 880.3 57.3
902(16) 0.00374 880.9 51.3
963(17) 0.00358 881.5 46.4
895(16) 0.00416 882.1 42.2
913(16) 0.00380 882.7 38.6
895(16) 0.00391 883.3 35.6
932(16) 0.00372 883.9 33.0
891(16) 0.00401 884.5 30.7
906(16) 0.00412 885.1 28.8
893(16) 0.00389 885.7 27.0
906(16) 0.00367 886.3 25.5
919(16) 0.00371 886.9 24.1
913(16) 0.00391 887.5 22.9
893(16) 0.00416 888.0 21.8
894(16) 0.00388 888.6 20.8
893(16) 0.00378 889.2 19.9
878(16) 0.00401 889.8 19.1
904(16) 0.00403 890.4 18.3
878(15) 0.00424 891.0 17.6
887(16) 0.00390 891.6 17.0
906(16) 0.00367 892.2 16.5
923(16) 0.00370 892.8 15.9
917(16) 0.00397 893.4 15.4
886(15) 0.00420 894.0 15.0
878(16) 0.00397 894.6 14.6
872(16) 0.00375 895.2 14.2
854(16) 0.00415 895.7 13.8
911(16) 0.00403 896.3 13.5
919(16) 0.00403 896.9 13.1
882(16) 0.00388 897.5 12.8
907(17) 0.003507 898.1 12.6
884(16) 0.00388 898.7 12.3
910(16) 0.00408 899.3 12.1
904(16) 0.00412 899.9 11.8
873(16) 0.00403 900.5 11.6
919(17) 0.003498 901.1 11.4
911(16) 0.00384 901.7 11.2
963(16) 0.00382 902.3 11.0
893(16) 0.00416 902.9 10.8
896(16) 0.00389 903.4 10.4
890(17) 0.00367 904.0 10.2
874(16) 0.00398 904.6 10.1
919(16) 0.00405 905.2 9.9
908(16) 0.00402 905.8 9.8
867(16) 0.00399 906.4 9.7
934(17) 0.003423 907.0 9.5
856(16) 0.00407 907.6 9.4
863(15) 0.00432 908.2 9.3
891(16) 0.00407 908.8 9.2
910(16) 0.00382 909.4 9.1
923(16) 0.00367 910.0 9.0
905(16) 0.00391 910.6 8.9
884(15) 0.00419 911.2 8.8
905(16) 0.00398 911.8 8.7
934(17) 0.00362 912.4 8.6
915(17) 0.00362 913.1 8.5
911(16) 0.00386 913.7 8.4
901(16) 0.00410 914.3 8.4
898(16) 0.00402 914.9 8.3
902(16) 0.00375 915.5 8.2
917(16) 0.00371 916.2 8.2
910(16) 0.00390 916.8 8.1
891(16) 0.00416 917.4 8.0
863(16) 0.00403 918.0 8.0
890(16) 0.00373 918.7 7.9
895(16) 0.00394 919.3 7.9
915(16) 0.00400 919.9 7.8
923(16) 0.00403 920.5 7.8
921(16) 0.00376 921.2 7.7
910(16) 0.00370 921.8 7.7
930(16) 0.00372 922.4 7.6
917(16) 0.00395 923.0 7.6
887(15) 0.00420 923.7 7.5
934(16) 0.00368 924.3 7.5
913(17) 0.00363 924.9 7.5
926(16) 0.00367 925.5 7.4
914(16) 0.00405 926.2 7.4
941(16) 0.00394 926.8 7.4
944(17) 0.00367 927.4 7.3
920(17) 0.00354 928.0 7.3
893(16) 0.00390 928.7 7.3
920(16) 0.00399 929.3 7.3
897(16) 0.00416 929.9 7.2
876(16) 0.00395 930.5 7.2
941(17) 0.003390 931.2 7.2
968(17) 0.00358 931.8 7.2
927(16) 0.00403 932.4 7.2
923(16) 0.00399 933.0 7.1
915(16) 0.00381 933.7 7.1
910(16) 0.00373 934.3 7.1
972(17) 0.00363 934.9 7.1
937(16) 0.00392 935.5 7.1
919(16) 0.00402 936.1 7.1
945(17) 0.00365 936.8 7.1
920(17) 0.00361 937.4 7.1
938(16) 0.00371 938.0 7.1
972(16) 0.00383 938.6 7.1
943(16) 0.00381 939.3 7.0
917(16) 0.00376 939.9 7.0
931(17) 0.00364 940.5 7.0
947(16) 0.00367 941.1 7.0
974(16) 0.00380 941.8 7.0
907(16) 0.00392 942.4 7.1
937(16) 0.00370 943.0 7.1
932(17) 0.00364 943.6 7.1
916(16) 0.00386 944.3 7.1
955(16) 0.00390 944.9 7.1
976(16) 0.00369 945.5 7.1
965(17) 0.00360 946.1 7.1
955(16) 0.00371 946.8 7.1
987(17) 0.00357 947.4 7.1
956(16) 0.00390 948.0 7.1
941(16) 0.00370 948.6 7.2
949(17) 0.00354 949.3 7.2
937(17) 0.00367 949.9 7.2
954(16) 0.00376 950.5 7.2
920(16) 0.00405 951.1 7.2
941(16) 0.00370 951.8 7.3
950(17) 0.00355 952.4 7.3
961(17) 0.00361 953.0 7.3
927(16) 0.00388 953.6 7.3
954(16) 0.00388 954.3 7.4
957(17) 0.00362 954.9 7.4
963(17) 0.003442 955.5 7.4
965(17) 0.00364 956.1 7.5
943(16) 0.00386 956.7 7.5
951(16) 0.00395 957.4 7.5
930(16) 0.00376 958.0 7.6
956(17) 0.003443 958.6 7.6
938(16) 0.00370 959.2 7.7
932(16) 0.00396 959.9 7.7
1003(16) 0.00369 960.5 7.8
962(17) 0.00353 961.1 7.8
968(18) 0.003248 961.7 7.9
939(16) 0.00376 962.4 7.9
998(16) 0.00370 963.0 8.0
951(16) 0.00391 963.6 8.0
975(17) 0.00360 964.2 8.1
968(17) 0.003331 964.9 8.2
957(17) 0.00367 965.5 8.2
918(16) 0.00405 966.1 8.3
982(16) 0.00378 966.7 8.4
1008(17) 0.003486 967.4 8.4
987(17) 0.003375 968.0 8.5
983(17) 0.00351 968.6 8.6
955(16) 0.00388 969.2 8.7
966(16) 0.00383 969.9 8.7
1028(17) 0.003287 970.5 8.8
1001(17) 0.003280 971.1 8.9
937(16) 0.00370 971.7 9.0
943(16) 0.00393 972.4 9.1
973(16) 0.00374 973.0 9.2
1012(17) 0.003311 973.6 9.3
962(17) 0.00351 974.2 9.4
976(17) 0.00352 974.8 9.5
1011(16) 0.00368 975.5 9.6
1011(17) 0.00355 976.1 9.8
986(17) 0.003466 976.7 9.9
995(17) 0.003399 977.3 10.0
981(17) 0.00362 978.0 10.1
973(16) 0.00383 978.6 10.3
1005(17) 0.003469 979.2 10.4
1011(17) 0.003348 979.8 10.6
1063(18) 0.003235 980.5 10.7
978(16) 0.00372 981.1 10.9
1019(17) 0.00366 981.7 11.0
1002(17) 0.003371 982.4 11.2
1002(17) 0.003286 983.0 11.4
989(17) 0.003486 983.6 11.6
1000(17) 0.00365 984.3 11.8
1022(17) 0.00365 984.9 12.0
977(17) 0.00364 985.6 12.2
996(17) 0.003361 986.2 12.4
974(17) 0.00352 986.9 12.6
943(16) 0.00392 987.5 12.8
975(16) 0.00373 988.2 13.1
1017(17) 0.003446 988.8 13.3
988(17) 0.003342 989.4 13.6
1009(17) 0.003492 990.1 13.8
1013(17) 0.00364 990.7 14.1
1011(17) 0.00362 991.4 14.4
1031(17) 0.003333 992.0 14.7
1009(18) 0.003211 992.7 15.0
1016(17) 0.003434 993.3 15.3
1011(17) 0.00365 994.0 15.7
1030(17) 0.00356 994.6 16.0
1019(17) 0.003362 995.2 16.4
1030(18) 0.003099 995.9 16.8
978(17) 0.00358 996.5 17.2
983(16) 0.00370 997.2 17.6
1019(17) 0.00360 997.8 18.0
1038(17) 0.003334 998.5 18.5
1048(18) 0.003075 999.1 19.0
997(17) 0.003463 999.8 19.5
1022(17) 0.00364 1000.4 20.0
1020(17) 0.00359 1001.1 20.6
1022(17) 0.003432 1001.7 21.2
1001(17) 0.003396 1002.3 21.8
1054(18) 0.003229 1003.0 22.4
1022(17) 0.00362 1003.6 23.1
1030(17) 0.003494 1004.3 23.8
1041(17) 0.003306 1004.9 24.6
1086(18) 0.003036 1005.6 25.4
986(17) 0.00351 1006.2 26.2
1053(17) 0.00353 1006.9 27.1
1070(17) 0.003344 1007.5 28.0
1032(17) 0.003371 1008.1 29.0
1037(17) 0.003353 1008.8 30.1
1012(17) 0.00353 1009.4 31.2
1001(16) 0.00372 1010.1 32.3
1043(17) 0.003341 1010.7 33.6
1084(18) 0.003091 1011.4 34.9
1011(17) 0.003378 1012.0 36.3
1043(17) 0.003448 1012.7 37.9
1040(17) 0.00358 1013.3 39.5
1101(18) 0.003146 1013.9 41.2
1028(17) 0.003298 1014.6 43.1
1034(17) 0.003324 1015.2 45.1
1040(17) 0.003472 1015.9 47.2
1043(17) 0.00357 1016.5 49.5
1059(18) 0.003238 1017.2 52.0
1075(18) 0.003099 1017.8 54.6
1084(18) 0.003251 1018.5 57.5
1110(17) 0.003266 1019.1 60.7
1091(17) 0.003406 1019.7 64.1
1045(18) 0.003244 1020.4 67.8
1081(18) 0.003049 1021.0 71.8
1120(18) 0.003170 1021.7 76.3
1113(18) 0.003245 1022.3 81.1
1113(17) 0.003363 1023.0 86.5
1157(18) 0.002966 1023.6 92.4
1103(19) 0.002914 1024.3 98.9
1068(17) 0.003311 1024.9 106.1
1119(17) 0.003316 1025.5 114.2
1112(17) 0.003329 1026.2 123.3
1141(18) 0.003063 1026.8 133.5
1141(19) 0.002872 1027.5 145.1
1180(18) 0.002956 1028.1 158.4
1155(18) 0.003216 1028.8 173.7
1199(18) 0.003064 1029.4 191.7
1230(19) 0.002856 1030.1 213.0
1243(19) 0.002636 1030.7 238.6
1198(18) 0.002953 1031.3 269.8
1291(19) 0.002893 1032.0 308.0
1400(20) 0.002617 1032.6 355.1
1411(20) 0.002477 1033.3 413.5
1446(21) 0.002336 1033.9 485.5
1549(21) 0.002242 1034.6 573.9
1692(21) 0.002197 1035.2 681.2
1775(22) 0.002038 1035.9 809.6
2034(24) 0.001688 1036.5 960.6
2136(25) 0.001586 1037.1 1134.3
2305(26) 0.001490 1037.8 1328.6
2637(27) 0.001409 1038.4 1537.5
2735(28) 0.001321 1039.1 1749.8
3004(30) 0.001137 1039.7 1947.0
3208(31) 0.001059 1040.4 2104.1
3332(31) 0.001051 1041.0 2194.5
3285(30) 0.001131 1041.7 2200.1
3052(29) 0.001155 1042.3 2119.7
2898(29) 0.001164 1042.9 1969.6
2657(28) 0.001291 1043.6 1776.0
2466(26) 0.001461 1044.2 1564.4
2271(25) 0.001632 1044.9 1354.3
2094(25) 0.001648 1045.5 1157.8
1938(24) 0.001771 1046.2 981.3
1889(23) 0.001830 1046.8 827.3
1758(22) 0.002059 1047.5 696.1
1673(21) 0.002196 1048.1 586.2
1599(22) 0.002118 1048.7 495.6
1570(22) 0.002117 1049.4 421.6
1452(20) 0.002403 1050.0 361.6
1415(20) 0.002625 1050.7 313.2
1390(19) 0.002666 1051.3 274.0
1352(20) 0.002579 1052.0 242.0
1255(19) 0.002687 1052.6 215.8
1261(19) 0.002778 1053.3 194.0
1262(19) 0.002913 1053.9 175.6
1237(18) 0.003014 1054.6 159.9
1218(19) 0.002838 1055.2 146.4
1190(19) 0.002748 1055.8 134.6
1191(18) 0.002936 1056.5 124.2
1192(18) 0.003124 1057.1 115.0
1249(18) 0.002954 1057.8 106.8
1159(18) 0.002995 1058.4 99.4
1174(19) 0.002737 1059.1 92.8
1185(18) 0.002939 1059.7 86.8
1199(18) 0.003111 1060.4 81.4
1177(18) 0.003102 1061.0 76.5
1148(18) 0.003007 1061.6 72.0
1123(18) 0.002954 1062.3 67.8
1139(18) 0.003094 1062.9 64.1
1143(18) 0.003255 1063.6 60.6
1184(18) 0.003091 1064.2 57.4
1137(18) 0.003024 1064.9 54.5
1111(18) 0.002938 1065.5 51.8
1114(18) 0.003111 1066.2 49.3
1171(18) 0.003175 1066.8 46.9
1120(17) 0.003274 1067.4 44.8
1127(18) 0.003052 1068.1 42.8
1128(18) 0.002970 1068.7 40.9
1142(18) 0.003030 1069.4 39.1
1159(18) 0.003213 1070.0 37.5
1151(18) 0.003101 1070.7 35.9
1117(18) 0.003139 1071.3 34.5
1109(18) 0.003065 1072.0 33.1
1107(18) 0.003184 1072.6 31.8
1124(17) 0.003298 1073.2 30.6
1111(18) 0.003204 1073.9 29.5
1060(17) 0.003282 1074.5 28.4
1091(18) 0.003129 1075.2 27.4
1062(17) 0.003325 1075.8 26.5
1087(17) 0.003453 1076.5 25.6
1138(18) 0.003032 1077.1 24.7
1081(18) 0.003143 1077.8 23.9
1069(17) 0.003291 1078.4 23.1
1118(18) 0.003251 1079.0 22.4
1158(18) 0.003211 1079.7 21.7
1114(18) 0.003119 1080.3 21.0
1134(19) 0.002921 1081.0 20.4
1100(18) 0.003140 1081.6 19.8
1113(17) 0.003280 1082.3 19.2
1092(17) 0.003426 1082.9 18.7
1089(18) 0.003228 1083.6 18.2
1107(18) 0.003038 1084.2 17.7
1129(18) 0.003112 1084.8 17.2
1065(17) 0.003467 1085.5 16.7
1069(17) 0.003495 1086.1 16.3
1137(18) 0.003037 1086.8 15.9
1046(18) 0.003257 1087.4 15.5
1120(18) 0.003082 1088.1 15.1
1125(17) 0.003272 1088.7 14.7
1122(17) 0.003327 1089.4 14.3
1128(18) 0.003095 1090.0 14.0
1128(19) 0.002896 1090.6 13.7
1105(18) 0.003179 1091.3 13.3
1129(18) 0.003260 1091.9 13.0
1058(17) 0.00354 1092.6 12.7
1149(18) 0.003022 1093.2 12.5
1095(18) 0.003009 1093.9 12.2
1118(18) 0.003061 1094.5 11.9
1107(17) 0.003373 1095.2 11.7
1085(17) 0.003380 1095.8 11.4
1119(18) 0.003112 1096.4 11.2
1085(18) 0.003057 1097.1 11.0
1106(18) 0.003141 1097.7 10.7
1103(17) 0.003376 1098.4 10.5
1089(17) 0.003292 1099.0 10.3
1110(18) 0.003078 1099.7 10.1
1093(18) 0.003119 1100.3 9.9
1117(18) 0.003087 1101.0 9.7
1108(17) 0.003363 1101.6 9.6
1099(17) 0.003267 1102.3 9.4
1124(18) 0.003066 1102.9 9.2
1095(18) 0.003144 1103.5 9.1
1086(18) 0.003210 1104.2 8.9
1091(17) 0.003405 1104.8 8.7
1090(17) 0.003308 1105.5 7.7
1156(18) 0.002942 1106.1 7.5
1130(18) 0.003003 1106.8 7.4
1118(18) 0.003185 1107.4 7.3
1087(17) 0.003421 1108.1 7.1
1074(17) 0.003288 1108.7 7.0
1102(18) 0.003042 1109.3 6.9
1123(18) 0.003076 1110.0 6.8
1093(17) 0.003330 1110.6 6.7
1126(17) 0.003326 1111.3 6.5
1118(18) 0.003080 1111.9 6.4
1118(18) 0.002990 1112.6 6.3
1129(18) 0.003064 1113.2 6.2
1172(18) 0.003094 1113.9 6.1
1132(17) 0.003292 1114.5 6.0
1130(18) 0.003092 1115.1 5.9
1060(18) 0.003197 1115.8 5.9
1128(18) 0.003104 1116.4 5.8
1121(18) 0.003251 1117.1 5.7
1102(17) 0.003393 1117.7 5.6
1111(18) 0.003056 1118.4 5.5
1150(19) 0.002801 1119.0 5.4
1100(18) 0.003241 1119.7 5.4
1141(18) 0.003218 1120.3 5.3
1140(18) 0.003263 1120.9 5.2
1145(18) 0.002931 1121.6 5.1
1136(19) 0.002846 1122.2 5.1
1115(18) 0.003103 1122.9 5.0
1119(17) 0.003331 1123.5 4.9
1085(17) 0.003413 1124.2 4.9
1119(18) 0.003099 1124.8 4.8
1105(18) 0.002981 1125.5 4.8
1086(17) 0.003273 1126.1 4.7
1104(17) 0.003373 1126.7 4.7
1070(17) 0.003471 1127.4 4.6
1163(18) 0.002926 1128.0 4.6
1158(19) 0.002762 1128.7 4.5
1153(18) 0.002969 1129.3 4.5
1074(17) 0.003467 1130.0 4.4
1111(17) 0.003282 1130.6 4.4
1159(18) 0.002947 1131.3 4.3
1123(18) 0.002955 1131.7 4.3
1128(18) 0.003064 1131.8 4.2
1117(17) 0.003338 1132.0 4.2
1152(18) 0.003107 1132.2 4.2
1124(18) 0.003118 1132.4 4.1
1136(18) 0.002986 1132.6 4.1
1149(18) 0.003001 1132.7 4.0
1140(18) 0.003259 1132.9 4.0
1162(18) 0.003030 1133.1 4.0
1139(18) 0.003009 1133.3 4.0
1105(18) 0.003038 1133.5 3.9
1134(18) 0.003124 1133.6 3.9
1182(18) 0.003150 1133.8 3.9
1152(18) 0.003049 1134.0 3.8
1143(18) 0.003052 1134.2 3.8
1156(18) 0.003014 1134.4 3.8
1129(18) 0.003166 1134.5 3.8
1160(18) 0.003187 1134.7 3.8
1125(18) 0.003095 1134.9 3.8
1165(19) 0.002833 1135.1 3.7
1165(19) 0.002917 1135.3 3.7
1132(18) 0.003202 1135.4 3.7
1160(18) 0.003198 1135.6 3.7
1113(18) 0.003068 1135.8 3.7
1160(19) 0.002860 1136.0 3.7
1203(19) 0.002869 1136.2 3.7
1113(18) 0.003257 1136.3 3.7
1151(18) 0.003250 1136.5 3.7
1117(18) 0.003092 1136.7 3.7
1176(19) 0.002785 1136.9 3.7
1183(19) 0.002916 1137.1 3.7
1138(18) 0.003210 1137.2 3.7
1155(18) 0.003201 1137.4 3.7
1164(18) 0.003039 1137.6 3.7
1128(19) 0.002885 1137.8 3.7
1174(19) 0.002918 1138.0 3.8
1163(18) 0.003214 1138.1 3.8
1182(18) 0.003104 1138.3 3.8
1170(18) 0.002958 1138.5 3.8
1127(19) 0.002901 1138.7 3.9
1158(18) 0.003007 1138.9 3.9
1151(18) 0.003243 1139.0 3.9
1154(18) 0.003199 1139.2 4.0
1143(18) 0.003082 1139.4 4.0
1123(18) 0.002945 1139.6 4.1
1157(18) 0.003061 1139.8 4.1
1163(18) 0.003188 1139.9 4.2
1165(18) 0.003168 1140.1 4.3
1166(18) 0.003012 1140.3 4.3
1111(18) 0.002949 1140.5 4.4
1149(18) 0.003023 1140.7 4.5
1152(18) 0.003213 1140.8 4.6
1118(18) 0.003210 1141.0 4.7
1189(19) 0.002895 1141.2 4.8
1181(19) 0.002825 1141.4 5.0
1125(18) 0.003109 1141.6 5.1
1155(18) 0.003209 1141.7 5.3
1186(18) 0.002975 1141.9 5.5
1149(18) 0.002971 1142.1 5.7
1134(18) 0.002959 1142.3 5.9
1184(18) 0.002941 1142.5 6.1
1185(18) 0.003152 1142.6 6.4
1185(18) 0.002970 1142.8 6.7
1166(18) 0.002957 1143.0 7.0
1195(19) 0.002841 1143.2 7.3
1160(18) 0.003072 1143.4 7.7
1176(18) 0.003168 1143.5 8.2
1248(19) 0.002763 1143.7 8.7
1148(18) 0.002996 1143.9 9.3
1157(18) 0.002987 1144.1 10.0
1159(18) 0.003112 1144.3 10.8
1225(18) 0.003029 1144.4 11.8
1154(18) 0.003022 1144.6 13.0
1190(19) 0.002738 1144.8 14.3
1141(18) 0.003038 1145.0 16.0
1189(18) 0.003047 1145.2 18.0
1183(18) 0.003136 1145.3 20.5
1161(18) 0.002943 1145.5 23.5
1186(19) 0.002758 1145.7 27.0
1195(19) 0.002916 1145.9 31.2
1186(18) 0.003109 1146.1 36.2
1205(18) 0.003081 1146.2 41.9
1184(19) 0.002889 1146.4 48.4
1207(19) 0.002687 1146.6 55.6
1209(19) 0.002823 1146.8 63.3
1244(18) 0.002969 1147.0 71.3
1236(18) 0.003007 1147.1 79.2
1249(19) 0.002825 1147.3 86.1
1261(20) 0.002614 1147.5 91.5
1270(19) 0.002754 1147.7 94.3
1274(19) 0.002894 1147.9 94.3
1248(18) 0.002982 1148.0 91.4
1233(19) 0.002854 1148.2 86.1
1247(20) 0.002572 1148.4 79.1
1276(19) 0.002704 1148.6 71.3
1224(18) 0.003046 1148.8 63.3
1217(18) 0.003004 1148.9 55.7
1262(19) 0.002756 1149.1 48.6
1203(19) 0.002740 1149.3 42.2
1188(19) 0.002838 1149.5 36.6
1172(18) 0.003168 1149.7 31.8
1236(18) 0.002926 1149.8 27.7
1206(19) 0.002843 1150.0 24.2
1164(19) 0.002832 1150.2 21.4
1178(19) 0.002828 1150.4 19.1
1137(17) 0.003267 1150.6 17.2
1197(18) 0.002987 1150.8 15.7
1227(19) 0.002772 1150.9 14.4
1178(19) 0.002884 1151.1 13.4
1169(18) 0.002972 1151.3 12.6
1190(18) 0.003125 1151.5 11.9
1162(18) 0.002989 1151.6 11.4
1119(18) 0.003113 1151.8 10.9
1157(18) 0.003012 1152.0 10.4
1164(18) 0.003102 1152.2 10.0
1154(18) 0.003212 1152.4 9.6
1184(18) 0.002992 1152.5 9.2
1147(18) 0.002972 1152.7 8.8
1220(19) 0.002775 1152.9 8.4
1180(18) 0.003036 1153.1 8.0
1149(18) 0.003239 1153.3 7.6
1149(18) 0.003034 1153.4 7.2
1196(19) 0.002839 1153.6 6.8
1178(18) 0.002942 1153.8 6.5
1164(18) 0.003156 1154.0 6.1
1150(18) 0.003242 1154.2 5.8
1148(18) 0.003007 1154.3 5.5
1139(18) 0.002939 1154.5 5.2
1177(18) 0.002959 1154.7 4.9
1192(18) 0.003075 1154.9 4.7
1222(18) 0.003034 1155.1 4.4
1204(19) 0.002866 1155.3 4.2
1211(19) 0.002679 1155.4 4.0
1230(19) 0.002805 1155.6 3.9
1191(18) 0.003113 1155.8 3.7
1120(17) 0.003315 1156.0 3.5
1167(18) 0.002981 1156.1 3.4
1204(19) 0.002690 1156.3 3.3
1164(18) 0.003002 1156.5 3.1
1163(18) 0.003169 1156.7 3.0
1169(18) 0.003154 1156.9 2.9
1147(18) 0.003038 1157.0 2.8
1178(19) 0.002727 1157.2 2.7
1163(18) 0.003016 1157.4 2.7
1154(18) 0.003252 1157.6 2.6
1187(18) 0.003080 1157.8 2.5
1173(18) 0.002976 1157.9 2.4
1211(19) 0.002706 1158.1 2.4
1162(18) 0.003039 1158.3 2.3
1247(18) 0.002975 1158.5 2.3
1175(18) 0.003080 1158.7 2.2
1184(19) 0.002875 1158.8 2.1
1145(18) 0.002960 1159.0 2.1
1165(18) 0.003024 1159.2 2.0
1227(18) 0.003026 1159.4 2.0
1144(18) 0.003218 1159.6 2.0
1175(19) 0.002895 1159.8 1.9
1160(19) 0.002896 1159.9 1.9
1154(18) 0.003022 1160.1 1.8
1144(18) 0.003256 1160.3 1.8
1147(18) 0.003143 1160.5 1.8
1173(18) 0.002944 1160.7 1.8
1187(19) 0.002860 1160.8 1.7
1194(18) 0.002951 1161.0 1.7
1181(18) 0.003160 1161.2 1.7
1156(18) 0.003063 1161.4 1.6
1155(18) 0.002954 1161.5 1.6
1147(18) 0.003021 1161.7 1.6
1143(18) 0.003150 1161.9 1.6
1162(18) 0.003195 1162.1 1.5
1138(18) 0.003046 1162.3 1.5
1185(19) 0.002807 1162.4 1.5
1150(18) 0.003043 1162.6 1.5
1175(18) 0.003086 1162.8 1.4
1151(18) 0.003242 1163.0 1.4
1117(18) 0.003132 1163.2 1.4
1177(19) 0.002795 1163.3 1.4
1178(18) 0.002939 1163.5 1.4
1177(18) 0.003130 1163.7 1.3
1180(18) 0.003150 1163.9 1.3
1190(19) 0.002884 1164.1 1.3
1201(19) 0.002705 1164.3 1.3
1174(18) 0.002932 1164.4 1.3
1151(18) 0.003186 1164.6 1.3
1155(18) 0.003206 1164.8 1.2
1145(18) 0.003096 1165.0 1.2
1152(19) 0.002789 1165.2 1.2
1170(18) 0.002967 1165.3 1.2
1208(18) 0.003059 1165.5 1.2
1195(18) 0.003102 1165.7 1.2
1158(18) 0.002993 1165.9 1.2
1175(19) 0.002762 1165.6 1.1
1172(18) 0.003007 1165.3 1.1
1185(18) 0.003132 1165.0 1.1
1160(18) 0.003159 1164.7 1.1
1153(18) 0.003061 1164.4 1.1
1202(19) 0.002727 1164.1 1.1
1177(18) 0.002944 1163.8 1.1
1153(18) 0.003229 1163.4 1.1
1180(18) 0.003101 1163.1 1.1
1171(18) 0.002938 1162.8 1.0
1149(19) 0.002868 1162.5 1.0
1147(18) 0.002979 1162.2 1.0
1258(18) 0.002954 1161.9 1.0
1190(18) 0.003053 1161.6 1.0
1223(19) 0.002756 1161.2 1.1
1199(19) 0.002777 1160.9 1.1
1162(18) 0.003052 1160.6 1.1
1178(18) 0.003159 1160.3 1.1
1198(18) 0.002943 1160.0 1.1
1200(18) 0.002930 1159.7 1.1
1175(19) 0.002876 1159.4 1.1
1143(18) 0.003035 1159.0 1.0
1167(18) 0.003195 1158.7 1.0
1158(18) 0.003026 1158.4 1.0
1156(18) 0.002951 1158.1 1.0
1188(19) 0.002830 1157.8 1.0
1180(18) 0.003006 1157.5 1.0
1166(18) 0.003199 1157.2 1.0
1231(19) 0.002762 1156.9 1.0
1181(19) 0.002811 1156.5 1.0
1186(19) 0.002896 1156.2 1.0
1145(18) 0.003178 1155.9 1.0
1205(18) 0.003084 1155.6 1.0
1216(19) 0.002907 1155.3 1.0
1199(19) 0.002807 1155.0 1.0
1218(19) 0.002877 1154.7 1.0
1150(18) 0.003159 1154.3 1.0
1166(18) 0.003162 1154.0 1.0
1176(18) 0.002929 1153.7 1.0
1197(19) 0.002761 1153.4 1.0
1158(18) 0.003035 1153.1 0.9
1172(18) 0.003141 1152.8 0.9
1165(18) 0.003189 1152.5 0.9
1176(18) 0.002998 1152.1 0.9
1175(19) 0.002777 1151.8 0.9
1169(18) 0.003007 1151.5 0.9
1204(18) 0.003053 1151.2 0.9
1169(18) 0.003180 1150.9 0.9
1200(19) 0.002848 1150.6 0.9
1206(19) 0.002672 1150.3 0.9
1213(19) 0.002898 1149.9 0.9
1185(18) 0.003131 1149.6 0.9
1156(18) 0.003175 1149.3 0.9
1136(18) 0.003039 1149.0 0.9
1171(19) 0.002780 1148.7 0.9
1160(18) 0.002993 1148.4 0.9
1195(18) 0.003140 1148.1 0.9
1161(18) 0.003168 1147.8 0.9
1171(18) 0.002941 1147.4 0.9
1145(19) 0.002917 1147.1 0.9
1118(18) 0.003061 1146.8 0.8
1129(17) 0.003301 1146.5 0.8
1191(18) 0.003059 1146.2 0.8
1221(19) 0.002831 1145.9 0.8
1218(19) 0.002769 1145.6 0.8
1157(18) 0.003028 1145.2 0.8
1147(18) 0.003254 1144.9 0.8
1143(18) 0.003176 1144.6 0.8
1156(18) 0.003011 1144.3 0.8
1221(19) 0.002693 1144.0 0.8
1125(18) 0.003129 1143.7 0.8
1198(18) 0.003102 1143.4 0.8
1143(18) 0.003085 1143.0 0.8
1192(19) 0.002867 1142.7 0.8
1204(19) 0.002831 1142.4 0.8
1125(18) 0.003158 1142.1 0.8
1099(17) 0.003404 1141.8 0.8
1149(18) 0.003077 1141.5 0.8
1184(19) 0.002844 1141.2 0.8
1160(18) 0.002953 1140.8 0.8
1138(18) 0.003106 1140.5 0.8
1124(17) 0.003323 1140.2 0.8
1196(19) 0.002845 1139.9 0.8
1164(19) 0.002821 1139.6 0.8
1178(18) 0.002926 1139.3 0.8
1189(18) 0.003054 1139.0 0.8
1176(18) 0.003171 1138.7 0.8
1143(18) 0.003060 1138.3 0.8
1129(18) 0.002967 1138.0 0.8
1218(19) 0.002852 1137.7 0.8
1144(18) 0.003216 1137.4 0.7
1133(17) 0.003286 1137.1 0.7
1163(18) 0.003025 1136.8 0.7
1138(19) 0.002864 1136.5 0.7
1155(18) 0.002980 1136.1 0.7
1145(18) 0.003204 1135.8 0.7
1188(18) 0.003096 1135.5 0.7
1201(19) 0.002829 1135.2 0.7
1180(19) 0.002728 1134.9 0.7
1192(18) 0.002932 1134.6 0.7
1137(17) 0.003278 1134.3 0.7
1130(17) 0.003268 1133.9 0.7
1180(18) 0.002927 1133.6 0.7
1150(18) 0.002928 1133.3 0.7
1161(18) 0.002963 1133.0 0.7
1169(18) 0.003187 1132.7 0.7
1084(17) 0.003421 1132.4 0.7
1178(19) 0.002910 1132.1 0.7
1169(19) 0.002829 1131.7 0.7
1184(18) 0.002925 1131.4 0.7
1169(18) 0.003163 1131.1 0.7
1191(18) 0.003039 1130.8 0.7
1167(18) 0.002986 1130.5 0.7
1155(18) 0.002929 1130.2 0.7
1184(19) 0.002904 1129.9 0.7
1189(18) 0.003115 1129.6 0.7
1142(18) 0.003164 1129.2 0.7
1151(18) 0.002955 1128.9 0.7
1131(18) 0.003024 1128.6 0.7
1157(18) 0.003022 1128.3 0.7
1148(18) 0.003242 1128.0 0.7
1205(18) 0.002945 1127.7 0.7
1140(18) 0.003009 1127.4 0.7
1149(18) 0.002935 1127.0 0.7
1169(18) 0.003026 1126.7 0.7
1219(18) 0.003058 1126.4 0.7
1159(18) 0.003036 1126.1 0.7
1187(19) 0.002856 1125.8 0.7
1180(18) 0.002969 1125.5 0.7
1137(18) 0.003173 1125.2 0.7
1114(17) 0.003349 1124.8 0.7
1172(18) 0.002970 1124.5 0.7
1196(19) 0.002862 1124.2 0.7
1146(18) 0.002993 1123.9 0.7
1086(17) 0.003341 1123.6 0.7
1168(18) 0.003187 1123.3 0.7
1164(19) 0.002914 1123.0 0.7
1171(19) 0.002776 1122.6 0.7
1156(18) 0.003032 1122.3 0.7
1170(18) 0.003127 1122.0 0.6
1158(18) 0.003206 1121.7 0.6
1192(19) 0.002887 1121.4 0.6
1150(19) 0.002828 1121.1 0.6
1152(18) 0.003063 1120.8 0.6
1169(18) 0.003142 1120.5 0.6
1123(17) 0.003307 1120.1 0.6
1203(19) 0.002831 1119.8 0.6
1119(18) 0.002987 1119.5 0.6
1141(18) 0.003091 1119.2 0.6
1142(18) 0.003224 1118.9 0.6
1142(17) 0.003267 1118.6 0.6
1145(18) 0.003085 1118.3 0.6
1167(19) 0.002750 1117.9 0.6
1149(18) 0.003042 1117.6 0.6
1152(18) 0.003194 1117.3 0.6
1163(18) 0.003121 1117.0 0.6
1108(18) 0.003202 1116.7 0.6
1077(18) 0.003171 1116.4 0.6
1115(18) 0.003142 1116.1 0.6
1149(18) 0.003231 1115.7 0.6
1169(18) 0.003111 1115.4 0.6
1185(19) 0.002907 1115.1 0.6
1181(19) 0.002778 1114.8 0.6
1159(18) 0.002959 1114.5 0.6
1173(18) 0.003145 1114.2 0.6
1125(18) 0.003212 1113.9 0.6
1125(18) 0.003042 1113.5 0.6
1139(18) 0.002957 1113.2 0.6
1210(19) 0.002858 1112.9 0.6
1122(17) 0.003305 1112.6 0.6
1193(18) 0.002976 1112.3 0.6
1122(18) 0.003060 1112.0 0.6
1113(18) 0.003060 1111.7 0.6
1089(18) 0.003251 1111.4 0.6
1109(17) 0.003363 1111.0 0.6
1128(18) 0.003122 1110.7 0.6
1100(18) 0.003113 1110.4 0.6
1163(18) 0.002942 1110.1 0.6
1106(18) 0.003246 1109.8 0.6
1154(18) 0.003220 1109.5 0.6
1110(18) 0.003134 1109.2 0.6
1102(18) 0.003012 1108.8 0.6
1130(18) 0.003044 1108.5 0.6
1116(18) 0.003214 1108.2 0.6
1108(17) 0.003367 1107.9 0.6
1146(18) 0.003028 1107.6 0.6
1158(19) 0.002853 1107.3 0.6
1111(18) 0.003122 1107.0 0.6
1147(18) 0.003181 1106.6 0.6
1177(18) 0.003147 1106.3 0.6
1135(18) 0.003031 1106.0 0.6
1115(18) 0.002954 1105.7 0.6
1103(18) 0.003172 1105.4 0.6
1156(18) 0.003175 1105.1 0.6
1153(18) 0.003206 1104.8 0.6
1135(18) 0.003094 1104.5 0.6
1113(18) 0.002942 1104.1 0.6
1134(18) 0.003079 1103.8 0.6
1123(17) 0.003270 1103.5 0.6
1059(17) 0.003476 1103.2 0.6
1103(18) 0.003120 1102.9 0.6
1114(18) 0.002946 1102.6 0.6
1122(18) 0.003097 1102.3 0.6
1134(18) 0.003260 1101.9 0.6
1098(17) 0.003352 1101.6 0.6
1104(18) 0.003134 1101.3 0.6
1112(18) 0.003047 1101.0 0.6
1144(18) 0.003062 1100.7 0.6
1111(17) 0.003339 1100.4 0.6
1079(17) 0.003368 1100.1 0.6
1149(18) 0.003018 1099.7 0.6
1124(18) 0.002957 1099.4 0.6
1096(18) 0.003109 1099.1 0.6
1122(17) 0.003306 1098.8 0.6
1117(18) 0.003228 1098.5 0.6
1123(18) 0.003059 1098.2 0.6
1100(18) 0.003103 1097.9 0.6
1105(18) 0.003210 1097.5 0.6
1118(17) 0.003333 1097.2 0.6
1111(18) 0.003218 1096.9 0.6
1082(18) 0.003171 1096.6 0.6
1111(18) 0.003073 1096.3 0.6
1138(18) 0.003040 1096.0 0.6
1122(17) 0.003310 1095.7 0.6
1129(18) 0.003149 1095.4 0.6
1092(18) 0.003113 1095.0 0.6
1105(18) 0.003080 1094.7 0.6
1077(17) 0.003332 1094.4 0.6
1135(17) 0.003281 1094.1 0.6
1060(17) 0.003306 1093.8 0.6
1085(18) 0.003147 1093.5 0.6
1119(18) 0.003095 1093.2 0.6
1048(17) 0.003423 1092.8 0.6
1106(17) 0.003369 1092.5 0.6
1117(18) 0.003036 1092.2 0.6
1120(18) 0.002989 1091.9 0.6
1088(18) 0.003219 1091.6 0.6
1069(17) 0.003415 1091.3 0.6
1093(17) 0.003394 1091.0 0.6
1085(18) 0.003192 1090.6 0.6
1083(18) 0.003049 1090.3 0.6
1079(17) 0.003282 1090.0 0.6
1093(17) 0.003373 1089.7 0.6
1095(17) 0.003400 1089.4 0.6
1090(18) 0.003185 1089.1 0.6
1105(18) 0.002953 1088.8 0.6
1097(18) 0.003199 1088.4 0.6
1108(17) 0.003333 1088.1 0.6
1055(17) 0.003494 1087.8 0.6
1064(18) 0.003204 1087.5 0.6
1069(18) 0.003057 1087.2 0.6
1068(17) 0.003308 1086.9 0.6
1076(17) 0.003424 1086.6 0.6
1103(17) 0.003312 1086.3 0.6
1068(18) 0.003229 1085.9 0.6
1101(18) 0.002966 1085.6 0.6
1110(18) 0.003134 1085.3 0.6
1106(17) 0.003356 1085.0 0.6
1083(17) 0.003356 1084.7 0.6
1141(18) 0.002988 1084.4 0.6
1090(18) 0.003020 1084.1 0.6
1070(18) 0.003256 1083.7 0.6
1081(17) 0.003434 1083.4 0.6
1067(17) 0.003335 1083.1 0.6
1108(18) 0.003071 1082.8 0.6
1075(18) 0.003084 1082.5 0.8
1075(18) 0.003211 1082.2 0.8
1068(17) 0.003475 1081.9 0.8
1075(18) 0.003236 1081.5 0.8
1041(17) 0.003283 1081.2 0.8
1056(18) 0.003127 1080.9 0.8
1097(18) 0.003143 1080.6 0.8
1119(17) 0.003293 1080.0 0.8
1061(17) 0.003337 1079.3 0.8
1086(18) 0.003079 1078.7 0.8
1138(18) 0.002992 1078.0 0.8
1096(17) 0.003299 1077.3 0.8
1078(17) 0.003423 1076.7 0.8
1085(18) 0.003196 1076.0 0.8
1074(18) 0.003151 1075.4 0.8
1038(17) 0.003370 1074.7 0.8
1094(18) 0.003239 1074.0 0.8
1052(17) 0.003500 1073.4 0.8
1065(18) 0.003182 1072.7 0.8
1101(18) 0.003033 1072.0 0.8
1078(17) 0.003268 1071.4 0.8
1087(17) 0.003332 1070.7 0.8
1075(17) 0.003451 1070.0 0.8
1033(17) 0.003374 1069.4 0.8
1076(18) 0.003067 1068.7 0.8
1046(17) 0.003347 1068.1 0.9
1067(17) 0.003454 1067.4 0.9
1093(17) 0.003403 1066.7 0.9
1049(17) 0.003266 1066.1 0.9
1015(18) 0.003182 1065.4 0.9
1050(17) 0.003294 1064.7 0.9
1125(18) 0.003253 1064.1 0.9
1059(17) 0.003500 1063.4 0.9
1065(17) 0.003278 1062.7 0.9
1039(18) 0.003086 1062.1 0.9
1065(18) 0.003239 1061.4 0.9
1025(17) 0.00367 1060.8 0.9
1031(17) 0.00356 1060.1 0.9
1013(17) 0.003458 1059.4 0.9
1090(18) 0.003017 1058.8 0.9
1090(18) 0.003175 1058.1 0.9
1091(17) 0.003410 1057.4 0.9
1060(17) 0.00352 1056.8 0.9
1048(17) 0.003325 1056.1 0.9
1094(18) 0.002970 1055.4 0.9
1049(17) 0.003351 1054.8 0.9
1021(17) 0.00364 1054.1 0.9
1039(17) 0.003477 1053.4 0.9
1045(17) 0.003323 1052.8 0.9
1031(18) 0.003224 1052.1 0.9
1055(18) 0.003232 1051.5 0.9
1018(17) 0.00365 1050.8 0.9
1036(17) 0.003464 1050.1 0.9
1035(17) 0.003401 1049.5 0.9
1056(18) 0.003238 1048.8 0.9
1022(17) 0.003429 1048.1 0.9
1059(17) 0.003502 1047.5 0.9
1075(17) 0.003295 1046.8 1.0
1041(17) 0.003317 1046.1 1.0
1084(18) 0.003126 1045.5 1.0
1046(17) 0.003361 1044.8 1.0
1031(17) 0.00362 1044.2 1.0
1051(17) 0.003348 1043.5 1.0
1039(17) 0.003325 1042.8 1.0
1042(17) 0.003393 1042.2 1.0
1090(17) 0.003299 1041.5 1.0
1040(17) 0.00358 1040.8 1.0
1032(17) 0.003363 1040.2 1.0
1023(18) 0.003231 1039.5 1.0
1050(18) 0.003240 1038.8 1.0
1050(17) 0.003491 1038.2 1.0
1031(17) 0.00359 1037.5 1.0
983(17) 0.003467 1036.9 1.0
1034(18) 0.003195 1036.2 1.0
1041(17) 0.003373 1035.5 1.0
1038(17) 0.00354 1034.9 1.0
1008(16) 0.00370 1034.2 1.0
1038(17) 0.003339 1033.5 1.0
1011(18) 0.003206 1032.9 1.0
1005(17) 0.003487 1032.2 1.0
1007(17) 0.00367 1031.5 1.1
1030(17) 0.00359 1030.9 1.1
1019(17) 0.003453 1030.2 1.1
1061(18) 0.002990 1029.6 1.1
1007(17) 0.003454 1028.9 1.1
1022(17) 0.00359 1028.2 1.1
1036(17) 0.00360 1027.6 1.1
993(17) 0.00355 1026.9 1.1
1000(17) 0.003327 1026.2 1.1
1078(18) 0.003178 1025.6 1.1
1023(17) 0.00364 1024.9 1.1
995(16) 0.00368 1024.2 1.1
981(17) 0.00353 1023.6 1.1
1001(17) 0.003327 1022.9 1.1
1034(17) 0.003373 1022.3 1.1
1076(17) 0.003456 1021.6 1.1
1038(17) 0.00352 1020.9 1.1
1046(17) 0.003300 1020.3 1.1
990(17) 0.003324 1019.6 1.2
997(17) 0.003455 1018.9 1.2
1018(17) 0.00364 1018.3 1.2
1005(17) 0.00363 1017.6 1.2
1019(17) 0.003370 1016.9 1.2
1034(17) 0.003284 1016.3 1.2
1032(17) 0.003426 1015.6 1.2
1024(17) 0.00363 1015.0 1.2
991(17) 0.00363 1014.3 1.2
959(17) 0.00354 1013.6 1.2
1024(17) 0.003270 1013.0 1.2
1008(17) 0.003494 1012.3 1.2
1015(17) 0.00367 1011.6 1.2
992(17) 0.00358 1011.0 1.3
1001(17) 0.003443 1010.3 1.3
1076(18) 0.003165 1009.6 1.3
1032(17) 0.003482 1009.0 1.3
1013(17) 0.00367 1008.3 1.3
994(17) 0.003486 1007.7 1.3
970(17) 0.003485 1007.0 1.3
1019(17) 0.003355 1006.3 1.3
995(17) 0.00366 1005.7 1.3
987(16) 0.00379 1005.0 1.3
1015(17) 0.003476 1004.3 1.3
969(17) 0.003454 1003.7 1.3
961(17) 0.00355 1003.0 1.4
992(16) 0.00371 1002.3 1.4
997(16) 0.00373 1001.7 1.4
1013(17) 0.003426 1001.0 1.4
966(17) 0.003410 1000.4 1.4
1035(18) 0.003263 999.7 1.4
987(16) 0.00375 999.0 1.4
1002(16) 0.00369 998.4 1.4
990(17) 0.00358 997.7 1.4
1004(18) 0.003251 997.0 1.4
958(17) 0.00366 996.4 1.5
973(16) 0.00380 995.7 1.5
972(16) 0.00382 995.0 1.5
1002(17) 0.003422 994.4 1.5
994(18) 0.003171 993.7 1.5
951(17) 0.00366 993.1 1.5
969(16) 0.00383 992.4 1.5
983(16) 0.00375 991.7 1.5
982(17) 0.00355 991.1 1.6
1030(18) 0.003193 990.4 1.6
1069(17) 0.003274 989.7 1.6
981(16) 0.00380 989.1 1.6
956(16) 0.00382 988.4 1.6
1007(17) 0.003424 987.7 1.6
983(17) 0.003377 987.1 1.6
963(17) 0.00365 986.4 1.7
984(16) 0.00377 985.8 1.7
971(16) 0.00373 985.1 1.7
962(17) 0.00356 984.4 1.7
1015(17) 0.003275 983.8 1.7
981(17) 0.00357 983.1 1.7
1000(16) 0.00372 982.4 1.8
957(16) 0.00370 981.8 1.8
957(17) 0.00359 981.1 1.8
1009(17) 0.003385 980.4 1.8
984(17) 0.00354 979.8 1.8
1008(16) 0.00368 979.1 1.8
981(17) 0.00357 978.5 1.9
962(17) 0.003492 977.8 1.9
941(16) 0.00373 977.1 1.9
1005(17) 0.00352 976.5 1.9
943(16) 0.00392 975.8 2.0
976(17) 0.00361 975.1 2.0
1018(17) 0.003357 974.5 2.0
967(17) 0.00358 973.8 2.0
949(16) 0.00385 973.1 2.0
954(16) 0.00389 972.5 2.1
1003(17) 0.003365 971.8 2.1
1000(18) 0.003263 971.2 2.1
995(17) 0.003482 970.5 2.1
1016(17) 0.00351 969.8 2.2
962(16) 0.00390 969.2 2.2
949(17) 0.00360 968.5 2.2
1019(18) 0.003166 967.8 2.3
964(17) 0.00363 967.2 2.3
966(16) 0.00384 966.5 2.3
954(16) 0.00390 965.8 2.4
932(16) 0.00375 965.2 2.4
976(17) 0.003333 964.5 2.4
959(16) 0.00371 963.9 2.5
962(16) 0.00381 963.2 2.5
951(16) 0.00387 962.5 2.5
933(17) 0.00366 961.9 2.6
978(18) 0.003239 961.2 2.6
939(16) 0.00374 960.6 2.6
963(16) 0.00384 960.0 2.7
999(16) 0.00370 959.5 2.7
955(17) 0.00356 958.9 2.8
954(17) 0.003372 958.3 2.8
965(17) 0.00357 957.7 2.9
912(16) 0.00408 957.1 2.9
987(16) 0.00375 956.5 3.0
992(17) 0.00352 955.9 3.0
977(17) 0.003374 955.4 3.1
999(17) 0.003469 954.8 3.1
973(16) 0.00382 954.2 3.2
937(16) 0.00391 953.6 3.3
941(16) 0.00374 953.0 3.3
960(17) 0.003474 952.4 3.4
954(17) 0.00367 951.8 3.5
924(16) 0.00402 951.2 3.6
984(17) 0.00364 950.7 3.6
923(16) 0.00380 950.1 3.7
974(17) 0.003475 949.5 3.8
963(17) 0.00359 948.9 3.9
928(16) 0.00402 948.3 4.0
924(16) 0.00384 947.7 4.1
938(16) 0.00371 947.1 4.2
943(17) 0.00362 946.6 4.3
920(16) 0.00389 946.0 4.5
870(15) 0.00426 945.4 4.6
951(17) 0.00361 944.8 4.7
941(17) 0.00357 944.2 4.9
971(17) 0.00358 943.6 5.1
1008(17) 0.00359 943.0 5.2
917(16) 0.00404 942.5 5.4
966(17) 0.00358 941.9 5.6
943(17) 0.00361 941.3 5.9
946(17) 0.00362 940.7 6.1
953(16) 0.00380 940.1 6.4
950(16) 0.00391 939.5 6.7
915(16) 0.00378 938.9 7.1
977(17) 0.003337 938.4 7.4
919(16) 0.00387 937.8 7.9
977(16) 0.00378 937.2 8.3
938(16) 0.00397 936.6 8.9
983(17) 0.003494 936.0 9.4
951(17) 0.003448 935.4 10.1
943(17) 0.00367 934.8 10.8
931(16) 0.00397 934.3 11.5
967(16) 0.00380 933.7 12.4
955(17) 0.00360 933.1 13.3
951(17) 0.003406 932.5 14.2
949(16) 0.00368 931.9 15.3
929(16) 0.00395 931.3 16.4
967(16) 0.00384 930.7 17.5
958(17) 0.00366 930.1 18.6
958(17) 0.003350 929.6 19.8
957(17) 0.00361 929.0 20.9
966(16) 0.00383 928.4 21.9
989(16) 0.00374 927.8 22.7
974(17) 0.00361 927.2 23.4
944(17) 0.003486 926.6 23.8
927(16) 0.00369 926.0 24.0
943(16) 0.00397 925.5 23.9
967(16) 0.00371 924.9 23.6
944(16) 0.00374 924.3 23.1
927(17) 0.00367 923.7 22.5
945(16) 0.00369 923.1 21.8
962(16) 0.00385 922.5 21.0
901(16) 0.00396 921.9 20.3
964(17) 0.00357 921.4 19.6
936(17) 0.00364 920.8 18.9
953(17) 0.00361 920.2 18.3
918(16) 0.00405 919.6 17.8
934(16) 0.00374 919.0 17.4
934(16) 0.00374 918.4 17.0
924(16) 0.00376 917.8 16.8
946(16) 0.00374 917.3 16.7
942(16) 0.00396 916.7 16.6
920(16) 0.00383 916.1 16.6
944(17) 0.00360 915.5 16.8
934(16) 0.00372 914.9 17.0
966(17) 0.00364 914.3 17.3
931(16) 0.00395 913.7 17.7
925(16) 0.00372 913.2 18.3
919(17) 0.00366 912.6 18.9
950(17) 0.00361 912.0 19.6
910(16) 0.00398 911.4 20.5
924(16) 0.00403 910.8 21.4
912(16) 0.00388 910.2 22.6
920(17) 0.00365 909.6 23.8
929(16) 0.00370 909.0 25.3
892(16) 0.00413 908.5 26.9
929(16) 0.00401 907.9 28.8
939(17) 0.00366 907.3 30.9
960(17) 0.003403 906.7 33.3
919(16) 0.00388 906.1 36.1
904(16) 0.00408 905.5 39.3
908(16) 0.00409 904.9 43.0
976(17) 0.003483 904.4 47.3
966(17) 0.003315 903.8 52.4
937(16) 0.00380 903.2 58.4
932(16) 0.00400 902.6 65.6
1016(17) 0.00359 902.0 74.2
988(17) 0.00353 901.4 84.9
949(17) 0.003475 900.8 98.4
1024(17) 0.003427 900.3 116.5
1070(17) 0.003470 899.7 142.3
1079(17) 0.003410 899.1 181.9
1141(18) 0.003025 898.5 245.7
1281(20) 0.002555 897.9 349.3
1444(21) 0.002333 897.3 512.7
1651(21) 0.002241 896.7 754.6
1861(23) 0.001972 896.2 1083.7
2207(25) 0.001566 895.6 1486.5
2437(27) 0.001386 895.0 1914.4
3013(30) 0.001128 894.4 2270.8
3443(31) 0.001074 893.8 2425.3
3569(32) 0.000995 893.2 2302.6
3069(30) 0.001132 892.6 1963.4
2519(27) 0.001352 892.0 1538.0
2004(24) 0.001741 891.5 1128.8
1682(21) 0.002211 890.9 789.6
1473(20) 0.002440 890.3 537.3
1331(20) 0.002592 889.7 365.3
1230(19) 0.002799 889.1 255.6
1155(18) 0.003100 888.5 188.0
1113(17) 0.003352 887.9 146.1
1091(17) 0.003293 887.4 119.1
1016(17) 0.003407 886.8 100.3
1037(17) 0.003276 886.2 86.3
987(17) 0.00365 885.6 75.3
948(16) 0.00391 885.0 66.4
993(17) 0.003430 884.4 59.1
966(17) 0.00353 883.8 52.9
954(17) 0.00359 883.3 47.7
970(16) 0.00370 882.7 43.3
943(16) 0.00394 882.1 39.5
907(16) 0.00391 881.5 36.2
921(16) 0.00370 880.9 33.3
935(16) 0.00376 880.3 30.8
920(16) 0.00394 879.7 28.6
920(16) 0.00404 879.2 26.6
899(16) 0.00394 878.6 24.9
918(17) 0.003503 878.0 23.3
917(16) 0.00370 877.4 21.9
912(16) 0.00399 876.8 20.7
879(15) 0.00425 876.2 19.5
902(16) 0.00387 875.6 18.5
895(17) 0.00365 875.1 17.6
931(17) 0.00366 874.5 16.8
866(15) 0.00424 873.9 16.0
885(16) 0.00414 873.3 15.3
881(16) 0.00396 872.7 14.7
872(17) 0.00362 872.1 14.1
863(16) 0.00405 871.5 13.6
871(15) 0.00429 870.9 13.1
876(15) 0.00423 870.4 12.6
867(16) 0.00406 869.8 12.2
882(16) 0.00373 869.2 11.8
895(16) 0.00385 868.6 11.4
837(15) 0.00447 868.0 11.1
827(15) 0.00444 867.4 10.8
858(16) 0.00409 866.8 10.5
913(17) 0.00366 866.3 10.3
838(16) 0.00416 865.7 10.0
863(15) 0.00432 865.1 9.8
852(15) 0.00429 864.5 9.6
885(16) 0.00398 863.9 9.4
880(16) 0.00385 863.3 9.2
856(16) 0.00411 862.7 9.0
840(15) 0.00445 862.2 8.9
869(15) 0.00420 861.6 8.7
834(15) 0.00417 861.0 8.6
839(16) 0.00409 860.4 8.5
872(16) 0.00405 859.8 8.4
863(15) 0.00431 859.2 8.3
888(16) 0.00391 858.6 8.2
832(16) 0.00416 858.1 8.1
875(16) 0.00396 857.5 8.0
938(16) 0.00377 856.9 8.0
858(15) 0.00434 856.3 7.9
899(16) 0.00390 855.7 7.9
873(16) 0.00392 855.1 7.8
886(16) 0.00391 854.5 7.8
885(16) 0.00405 854.0 7.7
848(15) 0.00441 853.4 7.6
880(16) 0.00385 852.8 7.6
863(16) 0.00378 852.2 7.6
819(15) 0.00424 851.6 7.5
883(16) 0.00415 851.0 7.5
852(15) 0.00437 850.4 7.5
859(16) 0.00404 849.8 7.5
875(16) 0.00371 849.3 7.5
825(15) 0.00421 848.7 7.5
839(15) 0.00437 848.1 7.5
820(15) 0.00451 847.5 7.5
869(16) 0.00400 846.9 7.5
849(16) 0.00386 846.3 7.5
877(16) 0.00392 845.7 7.6
826(15) 0.00450 845.2 7.6
853(15) 0.00438 844.6 7.6
834(16) 0.00411 844.0 7.7
886(17) 0.00353 843.4 7.7
873(16) 0.00391 842.8 7.7
854(15) 0.00434 842.2 7.8
858(15) 0.00435 841.6 7.8
871(16) 0.00396 841.1 7.9
812(16) 0.00404 840.5 7.9
856(16) 0.00403 839.9 8.0
835(15) 0.00446 839.3 8.1
850(15) 0.00431 838.7 8.1
841(15) 0.00421 838.2 8.2
840(16) 0.00404 837.6 8.3
907(16) 0.00378 837.1 8.4
826(15) 0.00450 836.5 8.5
824(15) 0.00445 835.9 8.5
841(16) 0.00416 835.4 8.6
835(16) 0.00401 834.8 8.7
861(16) 0.00404 834.3 8.8
866(15) 0.00430 833.7 9.0
841(15) 0.00424 833.2 9.1
785(15) 0.00441 832.6 9.2
863(16) 0.00391 832.1 9.3
836(15) 0.00421 831.5 9.4
836(15) 0.00447 831.0 9.6
871(16) 0.00415 830.4 9.7
834(16) 0.00409 829.8 9.9
862(16) 0.00391 829.3 10.0
824(15) 0.00437 828.7 10.2
817(15) 0.00457 828.2 10.3
831(15) 0.00427 827.6 10.5
834(16) 0.00412 827.1 10.7
852(16) 0.00401 826.5 10.9
852(16) 0.00416 826.0 11.1
831(15) 0.00449 825.4 11.3
849(16) 0.00409 824.8 11.5
865(16) 0.00387 824.3 11.7
816(15) 0.00424 823.7 11.9
818(15) 0.00444 823.2 12.2
825(15) 0.00445 822.6 12.4
845(16) 0.00407 822.1 12.7
805(16) 0.00410 821.5 12.9
792(15) 0.00435 821.0 13.2
833(15) 0.00440 820.4 13.5
791(15) 0.00471 819.9 13.8
804(15) 0.00437 819.3 14.1
818(16) 0.00412 818.7 14.5
848(16) 0.00416 818.2 14.8
838(15) 0.00437 817.6 15.2
829(15) 0.00453 817.1 15.5
850(16) 0.00407 816.5 15.9
852(16) 0.00375 816.0 16.3
817(15) 0.00431 815.4 16.8
812(15) 0.00456 814.9 17.2
833(15) 0.00445 814.3 17.7
835(16) 0.00416 813.8 18.2
871(17) 0.00367 813.2 18.7
835(16) 0.00415 812.6 19.2
824(15) 0.00453 812.1 19.8
822(15) 0.00441 811.5 20.4
848(16) 0.00413 811.0 21.0
838(16) 0.00407 810.4 21.7
834(15) 0.00421 809.9 22.4
841(15) 0.00442 809.3 23.1
844(15) 0.00432 808.8 23.9
831(16) 0.00415 808.2 24.7
840(16) 0.00392 807.7 25.6
805(15) 0.00418 807.1 26.5
805(15) 0.00462 806.5 27.5
849(15) 0.00423 806.0 28.5
831(15) 0.00418 805.4 29.6
827(16) 0.00411 804.9 30.8
838(15) 0.00419 804.3 32.0
859(15) 0.00434 803.8 33.3
837(15) 0.00425 803.2 34.8
877(16) 0.00394 802.7 36.3
822(15) 0.00416 802.1 37.9
798(15) 0.00438 801.6 39.6
795(15) 0.00468 801.0 41.5
853(16) 0.00415 800.4 43.5
847(16) 0.00400 799.9 45.7
818(15) 0.00428 799.3 48.0
840(15) 0.00435 798.8 50.6
853(15) 0.00436 798.2 53.3
822(15) 0.00428 797.7 56.4
889(16) 0.00376 797.1 59.7
855(16) 0.00409 796.6 63.3
891(16) 0.00410 796.0 67.4
878(15) 0.00424 795.4 71.8
847(15) 0.00419 794.9 76.8
879(16) 0.00379 794.3 82.5
871(16) 0.00403 793.8 89.0
897(16) 0.00407 793.2 96.5
886(15) 0.00419 792.7 105.4
873(16) 0.00401 792.1 115.9
900(16) 0.00370 791.6 128.6
934(16) 0.00382 791.0 144.0
929(16) 0.00401 790.5 162.8
948(16) 0.00391 789.9 185.6
1001(17) 0.00351 789.3 213.0
1002(17) 0.003278 788.8 245.5
1072(18) 0.003249 788.2 283.4
1087(17) 0.003416 787.7 326.4
1125(17) 0.003287 787.1 373.5
1224(19) 0.002795 786.6 422.5
1230(19) 0.002717 786.0 469.8
1311(19) 0.002668 785.5 510.8
1392(19) 0.002676 784.9 541.5
1403(20) 0.002598 784.4 561.6
1371(20) 0.002574 783.8 574.7
1367(20) 0.002391 783.2 587.1
1310(19) 0.002657 782.7 605.3
1350(19) 0.002753 782.1 634.4
1452(20) 0.002516 781.6 677.7
1468(21) 0.002374 781.0 737.2
1549(22) 0.002163 780.5 813.7
1649(22) 0.002093 779.9 907.0
1777(22) 0.002082 779.4 1015.2
1963(23) 0.001872 778.8 1134.8
2084(24) 0.001671 778.3 1259.4
2256(26) 0.001485 777.7 1379.8
2371(26) 0.001450 777.1 1483.4
2428(26) 0.001531 776.6 1556.2
2368(26) 0.001499 776.0 1586.1
2342(26) 0.001463 775.5 1567.1
2203(25) 0.001566 774.9 1501.9
2125(25) 0.001655 774.4 1400.4
1954(23) 0.001894 773.8 1275.9
1812(23) 0.001936 773.3 1141.5
1719(23) 0.001963 772.7 1007.0
1594(21) 0.002196 772.2 879.2
1582(21) 0.002252 771.6 761.9
1378(19) 0.002689 771.0 657.0
1323(20) 0.002610 770.5 565.0
1240(19) 0.002687 769.9 485.7
1188(18) 0.002943 769.4 418.2
1171(18) 0.003087 768.8 361.3
1139(18) 0.003253 768.3 313.7
1104(18) 0.003081 767.7 274.2
1048(18) 0.003171 767.2 241.5
1023(17) 0.003424 766.6 214.3
991(16) 0.00368 766.1 191.7
987(16) 0.00377 765.5 172.7
964(17) 0.00355 764.9 156.7
928(17) 0.003489 764.4 143.0
934(17) 0.00364 763.8 131.3
920(16) 0.00401 763.3 121.1
873(15) 0.00424 762.7 112.1
839(15) 0.00428 762.2 104.1
857(16) 0.00375 761.6 97.0
875(16) 0.00393 761.1 90.7
868(15) 0.00430 760.5 85.0
868(15) 0.00427 759.9 79.8
828(15) 0.00418 759.4 75.1
834(16) 0.00375 758.8 70.8
814(15) 0.00431 758.3 66.9
829(15) 0.00446 757.7 63.3
847(15) 0.00437 757.2 60.0
831(15) 0.00420 756.6 57.0
807(16) 0.00401 756.1 54.2
778(15) 0.00447 755.5 51.7
808(15) 0.00456 755.0 49.3
848(15) 0.00433 754.4 47.1
808(15) 0.00432 753.8 45.0
807(15) 0.00420 753.3 43.1
804(15) 0.00436 752.7 41.4
787(15) 0.00472 752.2 39.7
784(15) 0.00466 751.6 38.2
830(15) 0.00421 751.1 36.8
791(15) 0.00417 750.5 35.4
765(15) 0.00452 750.0 34.2
784(15) 0.00472 749.4 33.0
791(15) 0.00450 748.9 31.9
745(15) 0.00453 748.3 30.9
767(15) 0.00438 747.7 30.0
786(15) 0.00450 747.2 29.1
777(14) 0.00481 746.6 28.2
776(15) 0.00460 746.1 27.4
753(15) 0.00460 745.5 26.7
760(15) 0.00447 745.0 26.0
772(15) 0.00464 744.4 25.3
790(15) 0.00470 743.9 24.7
790(15) 0.00435 743.3 24.1
761(15) 0.00439 742.8 23.6
799(15) 0.00423 742.2 23.1
753(14) 0.00483 741.6 22.7
754(14) 0.00493 741.1 22.2
785(15) 0.00444 740.5 21.8
770(15) 0.00429 740.0 21.4
737(15) 0.00459 739.4 21.1
710(14) 0.00518 738.9 20.8
752(14) 0.00491 738.3 20.5
746(15) 0.00461 737.8 20.2
761(15) 0.00427 737.2 20.0
756(15) 0.00455 736.7 19.8
725(14) 0.00507 736.1 19.6
732(14) 0.00505 735.5 19.4
765(15) 0.00451 735.0 19.3
723(15) 0.00455 734.4 19.2
744(15) 0.00463 733.9 19.1
754(14) 0.00487 733.3 19.1
763(14) 0.00491 732.8 19.0
757(15) 0.00461 732.2 19.0
750(15) 0.00437 731.7 19.1
762(15) 0.00463 731.2 19.1
756(14) 0.00492 730.8 19.2
729(14) 0.00506 730.3 19.3
742(15) 0.00454 729.8 19.5
722(15) 0.00456 729.3 19.6
734(15) 0.00473 728.8 19.9
780(15) 0.00470 728.3 20.1
738(14) 0.00502 727.9 20.4
736(15) 0.00469 727.4 20.8
760(15) 0.00435 726.9 21.2
750(15) 0.00463 726.4 21.6
704(14) 0.00526 725.9 22.1
727(14) 0.00503 725.5 22.7
745(15) 0.00459 725.0 23.3
755(15) 0.00439 724.5 24.1
717(14) 0.00478 724.0 24.9
737(14) 0.00505 723.5 25.8
738(14) 0.00489 723.1 26.9
726(15) 0.00466 722.6 28.0
712(14) 0.00483 722.1 29.4
708(14) 0.00502 721.6 30.9
744(14) 0.00501 721.1 32.6
770(15) 0.00465 720.6 34.7
761(15) 0.00450 720.2 37.1
762(15) 0.00449 719.7 39.9
749(15) 0.00474 719.2 43.4
746(14) 0.00498 718.7 48.2
764(15) 0.00457 718.2 55.5
767(15) 0.00437 717.8 68.2
804(15) 0.00420 717.3 91.6
876(16) 0.00414 716.8 132.5
941(16) 0.00393 716.3 196.6
1030(17) 0.003427 715.8 282.5
1037(17) 0.003276 715.3 376.3
1120(18) 0.003032 714.9 450.7
1272(19) 0.002800 714.4 474.6
1324(19) 0.002809 713.9 439.6
1131(18) 0.003022 713.4 369.8
961(17) 0.003498 712.9 297.0
879(16) 0.00405 712.5 241.7
871(15) 0.00418 712.0 210.9
873(15) 0.00425 711.5 201.5
910(16) 0.00372 711.0 206.3
885(16) 0.00371 710.5 218.7
933(16) 0.00375 710.0 234.1
910(16) 0.00406 709.6 249.6
924(16) 0.00405 709.1 263.1
918(16) 0.00379 708.6 273.0
996(18) 0.003182 708.1 278.0
941(16) 0.00373 707.6 277.4
953(16) 0.00390 707.2 271.1
905(16) 0.00412 706.7 259.8
883(16) 0.00398 706.2 244.6
838(16) 0.00391 705.7 226.9
845(16) 0.00416 705.2 207.9
842(15) 0.00446 704.8 188.7
829(15) 0.00450 704.3 170.0
793(15) 0.00440 703.8 152.4
778(15) 0.00428 703.3 136.0
760(15) 0.00449 702.8 121.1
793(15) 0.00468 702.3 107.7
793(15) 0.00453 701.9 95.8
758(15) 0.00450 701.4 85.3
718(15) 0.00472 700.9 76.1
744(15) 0.00467 700.4 68.0
722(14) 0.00508 699.9 61.1
751(14) 0.00476 699.5 55.1
732(15) 0.00469 699.0 49.9
753(15) 0.00452 698.5 45.4
743(15) 0.00469 698.0 41.6
701(14) 0.00529 697.5 38.2
721(14) 0.00493 697.0 35.3
711(14) 0.00484 696.6 32.8
704(15) 0.00468 696.1 30.5
688(14) 0.00516 695.6 28.5
718(14) 0.00514 695.1 26.8
723(14) 0.00478 694.6 25.2
681(14) 0.00489 694.2 23.8
710(14) 0.00476 693.7 22.5
716(14) 0.00497 693.2 21.3
707(14) 0.00521 692.7 20.2
730(15) 0.00461 692.2 19.2
722(15) 0.00465 691.8 18.3
707(14) 0.00493 691.3 17.5
717(14) 0.00498 690.8 16.7
688(14) 0.00542 690.3 16.0
678(14) 0.00509 689.8 15.3
719(15) 0.00465 689.3 14.7
720(15) 0.00473 688.9 14.1
696(14) 0.00527 688.4 13.6
670(13) 0.00552 687.9 13.1
682(14) 0.00514 687.4 12.6
705(14) 0.00476 686.9 12.2
701(14) 0.00494 686.5 11.8
694(14) 0.00529 686.0 11.4
680(14) 0.00541 685.5 11.0
680(14) 0.00508 685.0 10.7
682(15) 0.00470 684.5 10.3
661(14) 0.00526 684.0 10.0
678(13) 0.00550 683.6 9.7
670(14) 0.00544 683.1 9.5
678(14) 0.00518 682.6 9.2
707(15) 0.00455 682.1 9.0
696(14) 0.00492 681.6 8.7
731(14) 0.00506 681.2 8.5
677(13) 0.00552 680.7 8.3
693(14) 0.00498 680.2 8.1
670(14) 0.00482 679.7 7.9
693(14) 0.00503 679.2 7.7
724(14) 0.00516 678.7 7.5
675(14) 0.00543 678.3 7.4
665(14) 0.00526 677.8 7.2
686(14) 0.00485 677.3 7.1
727(15) 0.00465 676.8 6.9
675(13) 0.00556 676.3 6.8
690(14) 0.00522 675.9 6.7
672(14) 0.00528 675.4 6.5
676(14) 0.00493 674.9 6.4
675(14) 0.00508 674.4 6.3
681(14) 0.00548 673.9 6.2
666(14) 0.00529 673.5 6.1
670(14) 0.00506 673.0 6.0
640(13) 0.00555 672.5 5.9
674(14) 0.00529 672.0 5.9
677(13) 0.00554 671.5 5.8
712(14) 0.00500 671.0 5.7
670(14) 0.00525 670.6 5.7
679(14) 0.00513 670.1 5.6
650(14) 0.00549 669.6 5.6
691(14) 0.00539 669.1 5.5
657(14) 0.00544 668.6 5.5
683(14) 0.00494 668.2 5.5
667(14) 0.00535 667.7 5.4
677(14) 0.00538 667.2 5.4
678(14) 0.00547 666.7 5.5
672(14) 0.00519 666.2 5.5
676(14) 0.00486 665.7 5.5
672(14) 0.00522 665.3 5.6
669(14) 0.00540 664.8 5.7
692(14) 0.00535 664.3 5.8
677(14) 0.00520 663.8 6.0
642(14) 0.00517 663.3 6.2
660(14) 0.00527 662.9 6.5
671(14) 0.00539 662.4 6.8
684(14) 0.00543 661.9 7.1
674(14) 0.00515 661.4 7.5
679(15) 0.00471 660.9 7.9
674(14) 0.00510 660.4 8.4
668(13) 0.00550 660.0 8.9
680(14) 0.00547 659.5 9.4
674(14) 0.00504 659.0 9.8
638(14) 0.00511 658.5 10.1
644(14) 0.00545 658.0 10.3
679(14) 0.00542 657.6 10.3
638(13) 0.00573 657.1 10.1
655(14) 0.00524 656.6 9.8
634(14) 0.00523 656.1 9.4
641(13) 0.00551 655.6 8.9
637(13) 0.00587 655.2 8.4
662(13) 0.00549 654.7 7.9
636(13) 0.00557 654.2 7.4
668(14) 0.00493 653.7 7.0
656(14) 0.00540 653.2 6.6
674(13) 0.00551 652.7 6.3
680(14) 0.00540 652.3 6.0
664(14) 0.00532 651.8 5.8
658(14) 0.00505 651.3 5.6
667(14) 0.00513 651.0 5.5
672(13) 0.00553 650.7 5.4
666(14) 0.00521 650.4 5.3
649(14) 0.00535 650.1 5.3
642(14) 0.00537 649.7 5.3
709(14) 0.00489 649.4 5.3
697(14) 0.00531 649.1 5.3
671(14) 0.00536 648.8 5.3
674(14) 0.00502 648.5 5.3
689(14) 0.00488 648.2 5.4
663(14) 0.00534 647.9 5.4
698(14) 0.00536 647.5 5.5
689(14) 0.00499 647.2 5.5
703(15) 0.00470 646.9 5.6
644(14) 0.00539 646.6 5.6
614(13) 0.00591 646.3 5.7
646(13) 0.00571 646.0 5.7
692(14) 0.00490 645.6 5.7
637(14) 0.00538 645.3 5.7
643(14) 0.00549 645.0 5.6
695(14) 0.00528 644.7 5.6
654(13) 0.00571 644.4 5.5
634(14) 0.00543 644.1 5.5
651(14) 0.00515 643.8 5.4
672(14) 0.00516 643.4 5.3
659(13) 0.00559 643.1 5.2
637(13) 0.00587 642.8 5.0
659(14) 0.00538 642.5 4.9
656(14) 0.00498 642.2 4.8
626(13) 0.00559 641.9 4.7
681(14) 0.00536 641.5 4.5
656(13) 0.00563 641.2 4.4
612(13) 0.00581 640.9 4.3
648(14) 0.00503 640.6 4.2
679(14) 0.00515 640.3 4.1
658(13) 0.00565 640.0 4.0
673(13) 0.00553 639.7 3.9
657(14) 0.00533 639.3 3.8
662(14) 0.00483 639.0 3.7
631(14) 0.00544 638.7 3.6
659(13) 0.00561 638.4 3.5
662(13) 0.00556 638.1 3.4
636(13) 0.00551 637.8 3.4
648(14) 0.00516 637.4 3.3
636(13) 0.00555 637.1 3.2
607(13) 0.00614 636.8 3.2
653(13) 0.00561 636.5 3.2
635(13) 0.00564 636.2 3.1
650(14) 0.00521 635.9 3.1
640(14) 0.00546 635.6 3.0
671(13) 0.00553 635.2 3.0
649(13) 0.00558 634.9 3.0
652(14) 0.00526 634.6 3.0
657(14) 0.00513 634.3 2.9
613(13) 0.00578 634.0 2.9
640(13) 0.00578 633.7 2.9
618(13) 0.00586 633.3 2.9
615(13) 0.00558 633.0 2.9
654(14) 0.00529 632.7 2.9
648(14) 0.00535 632.4 2.9
625(13) 0.00593 632.1 2.9
652(14) 0.00535 631.8 2.9
630(14) 0.00547 631.4 2.9
656(14) 0.00515 631.1 2.9
651(14) 0.00542 630.8 3.0
639(13) 0.00580 630.5 3.0
614(13) 0.00562 630.2 3.0
641(14) 0.00516 629.9 3.0
654(14) 0.00524 629.6 3.1
622(13) 0.00585 629.2 3.1
618(13) 0.00604 628.9 3.1
633(14) 0.00544 628.6 3.2
646(14) 0.00513 628.3 3.2
647(14) 0.00537 628.0 3.3
660(13) 0.00556 627.7 3.3
651(13) 0.00576 627.3 3.4
626(13) 0.00557 627.0 3.5
629(14) 0.00520 626.7 3.6
631(13) 0.00561 626.4 3.6
598(13) 0.00626 626.1 3.7
631(13) 0.00586 625.8 3.8
638(14) 0.00535 625.5 4.0
625(14) 0.00503 625.1 4.1
608(13) 0.00563 624.8 4.2
643(13) 0.00577 624.5 4.4
628(13) 0.00594 624.2 4.6
602(13) 0.00586 623.9 4.8
630(14) 0.00502 623.6 5.0
626(14) 0.00531 623.2 5.2
622(13) 0.00596 622.9 5.5
590(13) 0.00628 622.6 5.8
608(13) 0.00589 622.3 6.1
630(14) 0.00509 622.0 6.5
615(13) 0.00562 621.7 6.9
658(13) 0.00565 621.4 7.4
618(13) 0.00584 621.0 8.0
627(14) 0.00538 620.7 8.7
612(14) 0.00543 620.4 9.4
653(14) 0.00518 620.1 10.3
637(13) 0.00587 619.8 11.4
645(13) 0.00560 619.5 12.7
659(14) 0.00529 619.1 14.2
607(13) 0.00552 618.8 16.1
619(13) 0.00571 618.5 18.4
626(13) 0.00599 618.2 21.4
638(13) 0.00553 617.9 25.6
662(14) 0.00509 617.6 32.0
650(14) 0.00529 617.2 42.4
666(14) 0.00534 616.9 60.3
683(14) 0.00548 616.6 90.5
749(15) 0.00465 616.3 138.8
780(15) 0.00433 616.0 209.4
838(16) 0.00403 615.7 301.6
939(16) 0.00379 615.4 406.1
1052(17) 0.00355 615.0 501.3
1145(18) 0.003078 614.7 554.2
1237(19) 0.002747 614.4 538.6
1135(18) 0.003053 614.1 462.9
886(16) 0.00414 613.8 360.1
818(15) 0.00457 613.5 259.1
761(15) 0.00456 613.1 175.7
705(14) 0.00481 612.8 115.1
685(14) 0.00506 612.5 75.4
660(13) 0.00559 612.2 51.2
660(13) 0.00566 611.9 37.1
667(14) 0.00515 611.6 28.7
609(13) 0.00555 611.3 23.5
649(14) 0.00537 610.9 19.9
616(13) 0.00593 610.6 17.2
622(13) 0.00602 610.3 15.1
623(13) 0.00575 610.0 13.3
622(14) 0.00505 609.7 11.9
584(13) 0.00573 609.4 10.7
584(13) 0.00624 609.0 9.7
602(13) 0.00614 608.7 8.9
582(13) 0.00612 608.4 8.2
613(14) 0.00525 608.1 7.5
584(13) 0.00596 607.8 7.0
596(13) 0.00631 607.5 6.5
582(13) 0.00637 607.2 6.1
587(13) 0.00609 606.8 5.7
626(14) 0.00523 606.5 5.4
612(13) 0.00557 606.2 5.1
612(13) 0.00605 605.9 4.8
598(13) 0.00611 605.6 4.6
608(13) 0.00574 605.3 4.4
633(14) 0.00515 604.9 4.2
631(14) 0.00541 604.6 4.0
596(13) 0.00625 604.3 3.8
601(13) 0.00597 604.0 3.7
613(13) 0.00552 603.7 3.5
620(14) 0.00525 603.4 3.4
591(13) 0.00584 603.0 3.3
613(13) 0.00605 602.7 3.2
593(13) 0.00604 602.4 3.1
593(13) 0.00577 602.1 3.0
583(13) 0.00580 601.8 2.9
582(13) 0.00612 601.5 2.9
617(13) 0.00605 601.2 2.8
605(13) 0.00588 600.8 2.7
590(13) 0.00571 600.5 2.7
615(14) 0.00536 600.2 2.6
610(13) 0.00578 599.9 2.5
585(13) 0.00636 599.6 2.5
595(13) 0.00593 599.3 2.4
566(13) 0.00617 598.9 2.4
575(13) 0.00601 598.6 2.4
627(13) 0.00572 598.3 2.3
605(13) 0.00614 598.0 2.3
567(13) 0.00604 597.7 2.3
554(13) 0.00637 597.4 2.2
608(13) 0.00583 597.1 2.2
574(12) 0.00642 596.7 2.2
582(13) 0.00636 596.4 2.1
585(13) 0.00589 596.1 2.1
602(14) 0.00542 595.8 2.1
614(13) 0.00558 595.5 2.1
599(13) 0.00616 595.2 2.1
610(13) 0.00607 594.8 2.0
609(13) 0.00569 594.5 2.0
597(13) 0.00559 594.2 2.0
611(13) 0.00584 593.9 2.0
578(12) 0.00642 593.6 2.0
574(12) 0.00648 593.3 2.0
579(13) 0.00584 593.0 2.0
589(14) 0.00537 592.6 2.0
635(14) 0.00542 592.3 2.0
607(13) 0.00614 592.0 2.0
582(12) 0.00643 591.7 2.0
632(13) 0.00556 591.4 2.0
609(14) 0.00540 591.1 2.0
615(14) 0.00548 590.7 2.0
627(13) 0.00590 590.4 2.0
602(13) 0.00609 590.1 2.0
603(13) 0.00565 589.8 2.0
579(13) 0.00579 589.5 2.0
600(13) 0.00568 589.2 2.0
591(13) 0.00630 588.8 2.0
618(13) 0.00592 588.5 2.0
589(13) 0.00594 588.2 2.0
609(14) 0.00541 587.9 2.0
578(13) 0.00605 587.6 2.1
601(13) 0.00620 587.3 2.1
602(13) 0.00599 587.0 2.1
551(13) 0.00632 586.6 2.1
581(13) 0.00584 586.3 2.2
582(13) 0.00603 586.0 2.2
583(12) 0.00645 585.7 2.3
591(13) 0.00610 585.4 2.3
612(13) 0.00561 585.1 2.4
567(13) 0.00618 584.7 2.4
590(13) 0.00594 584.4 2.5
533(12) 0.00696 584.1 2.6
592(13) 0.00591 583.8 2.7
561(13) 0.00608 583.5 2.8
582(13) 0.00578 583.2 3.0
575(13) 0.00626 582.9 3.1
569(12) 0.00657 582.5 3.3
559(13) 0.00625 582.2 3.6
539(13) 0.00637 581.9 3.9
587(13) 0.00588 581.6 4.3
581(13) 0.00618 581.3 4.8
564(12) 0.00660 581.0 5.6
582(13) 0.00586 580.6 6.9
581(13) 0.00570 580.3 8.9
594(13) 0.00573 580.0 12.1
565(13) 0.00639 579.7 17.0
563(12) 0.00663 579.4 23.9
589(13) 0.00586 579.1 32.6
596(14) 0.00535 578.8 42.6
605(13) 0.00583 578.4 52.0
608(13) 0.00607 578.1 58.2
600(13) 0.00624 577.8 58.3
598(13) 0.00581 577.5 52.5
595(14) 0.00542 577.2 43.1
601(13) 0.00590 576.9 33.2
586(13) 0.00640 576.5 24.3
569(12) 0.00655 576.2 17.4
577(13) 0.00596 575.9 12.5
561(13) 0.00588 575.6 9.2
575(13) 0.00618 575.3 7.1
593(13) 0.00621 575.0 5.8
561(12) 0.00659 574.6 5.0
562(13) 0.00616 574.3 4.5
579(13) 0.00572 574.0 4.1
552(12) 0.00652 573.7 3.8
536(12) 0.00698 573.4 3.6
565(12) 0.00649 573.1 3.4
570(13) 0.00600 572.8 3.2
573(13) 0.00577 572.4 3.1
593(13) 0.00583 572.1 3.0
576(12) 0.00646 571.8 2.9
564(13) 0.00639 571.5 2.8
574(13) 0.00600 571.2 2.8
593(13) 0.00574 570.9 2.7
584(13) 0.00595 570.5 2.7
563(12) 0.00659 570.2 2.6
582(13) 0.00610 569.9 2.6
569(13) 0.00614 569.6 2.6
568(13) 0.00605 569.3 2.6
539(12) 0.00650 569.0 2.6
528(12) 0.00705 568.7 2.6
586(13) 0.00598 568.3 2.6
542(12) 0.00648 568.0 2.6
571(13) 0.00608 567.7 2.6
568(13) 0.00634 567.5 2.6
582(12) 0.00641 567.3 2.6
580(13) 0.00601 567.0 2.6
580(13) 0.00578 566.8 2.6
572(13) 0.00609 566.6 2.6
565(12) 0.00645 566.4 2.6
582(13) 0.00637 566.1 2.6
574(13) 0.00613 565.9 2.7
538(13) 0.00635 565.7 2.7
578(13) 0.00583 565.5 2.7
534(12) 0.00686 565.2 2.7
527(12) 0.00703 565.0 2.8
558(13) 0.00633 564.8 2.8
564(13) 0.00609 564.5 2.8
599(13) 0.00594 564.3 2.9
572(12) 0.00650 564.1 2.9
544(12) 0.00685 563.9 2.9
567(13) 0.00599 563.6 3.0
547(13) 0.00587 563.4 3.0
558(13) 0.00623 563.2 3.1
534(12) 0.00700 563.0 3.1
598(13) 0.00617 562.7 3.2
565(13) 0.00612 562.5 3.2
543(13) 0.00601 562.3 3.3
557(13) 0.00621 562.0 3.3
555(12) 0.00669 561.8 3.4
553(12) 0.00672 561.6 3.4
547(13) 0.00635 561.4 3.5
544(13) 0.00603 561.1 3.5
587(13) 0.00583 560.9 3.6
561(12) 0.00671 560.7 3.7
573(13) 0.00637 560.5 3.8
573(13) 0.00611 560.2 3.8
603(13) 0.00562 560.0 3.9
571(13) 0.00622 559.8 4.0
570(12) 0.00654 559.5 4.1
566(13) 0.00636 559.3 4.2
557(13) 0.00623 559.1 4.3
545(13) 0.00622 558.9 4.4
578(13) 0.00593 558.6 4.5
568(12) 0.00654 558.4 4.6
591(13) 0.00610 558.2 4.7
537(12) 0.00664 558.0 4.8
562(13) 0.00614 557.7 4.9
596(13) 0.00587 557.5 5.0
565(12) 0.00660 557.3 5.2
576(13) 0.00602 557.0 5.3
591(13) 0.00561 556.8 5.5
566(13) 0.00627 556.6 5.6
571(13) 0.00624 556.4 5.8
528(12) 0.00704 556.1 5.9
545(13) 0.00624 555.9 6.1
528(13) 0.00638 555.7 6.3
559(13) 0.00611 555.5 6.5
582(13) 0.00628 555.2 6.7
554(12) 0.00668 555.0 6.9
590(13) 0.00582 554.8 7.2
575(13) 0.00585 554.5 7.4
551(13) 0.00617 554.3 7.7
557(12) 0.00654 554.1 7.9
572(12) 0.00656 553.9 8.2
572(13) 0.00610 553.6 8.5
571(13) 0.00573 553.4 8.9
522(12) 0.00679 553.2 9.2
560(12) 0.00650 553.0 9.6
542(12) 0.00689 552.7 10.0
542(12) 0.00651 552.5 10.4
545(13) 0.00608 552.3 10.9
535(12) 0.00663 552.0 11.3
542(12) 0.00698 551.8 11.9
604(13) 0.00612 551.6 12.4
567(13) 0.00616 551.4 13.1
565(13) 0.00567 551.1 13.7
530(12) 0.00667 550.9 14.5
567(12) 0.00660 550.7 15.3
534(12) 0.00684 550.5 16.2
588(13) 0.00568 550.2 17.1
561(13) 0.00583 550.0 18.2
553(12) 0.00645 549.8 19.3
527(12) 0.00705 549.5 20.6
524(12) 0.00698 549.3 22.0
564(13) 0.00605 549.1 23.5
542(13) 0.00623 548.9 25.2
566(13) 0.00615 548.6 27.0
561(12) 0.00662 548.4 29.0
576(13) 0.00614 548.2 31.2
588(13) 0.00588 548.0 33.6
563(13) 0.00608 547.7 36.2
565(13) 0.00613 547.5 39.0
599(13) 0.00622 547.3 42.0
609(13) 0.00587 547.0 45.3
593(13) 0.00583 546.8 48.9
579(13) 0.00585 546.6 52.7
595(13) 0.00589 546.4 56.7
588(13) 0.00634 546.1 60.9
597(13) 0.00592 545.9 65.4
623(14) 0.00545 545.7 70.1
618(13) 0.00570 545.5 74.9
622(13) 0.00574 545.2 79.8
627(13) 0.00598 545.0 84.8
615(13) 0.00566 544.8 89.6
626(14) 0.00530 544.5 94.3
611(14) 0.00541 544.3 98.7
607(13) 0.00583 544.1 102.6
664(13) 0.00560 543.9 105.8
612(13) 0.00554 543.6 108.4
671(15) 0.00474 543.4 110.1
641(14) 0.00539 543.2 110.8
602(13) 0.00611 543.0 110.5
658(13) 0.00565 542.7 109.3
599(13) 0.00582 542.5 107.2
608(14) 0.00545 542.3 104.2
593(13) 0.00589 542.0 100.6
622(13) 0.00587 541.8 96.5
589(13) 0.00632 541.6 91.9
665(14) 0.00503 541.4 87.1
574(13) 0.00576 541.1 82.2
585(13) 0.00598 540.9 77.3
618(13) 0.00596 540.7 72.4
574(12) 0.00655 540.5 67.7
588(13) 0.00600 540.2 63.1
593(14) 0.00548 540.0 58.7
610(13) 0.00567 539.8 54.6
602(13) 0.00622 539.5 50.7
590(13) 0.00624 539.3 47.1
584(13) 0.00605 539.1 43.7
623(14) 0.00518 538.9 40.5
558(13) 0.00639 538.6 37.6
598(13) 0.00623 538.4 34.9
572(13) 0.00638 538.2 32.4
576(13) 0.00607 538.0 30.1
552(13) 0.00623 537.7 28.0
538(12) 0.00642 537.5 26.1
549(12) 0.00675 537.3 24.4
538(12) 0.00680 537.0 22.8
521(12) 0.00690 536.8 21.4
536(13) 0.00631 536.6 20.1
572(13) 0.00604 536.4 18.9
606(13) 0.00611 536.1 17.8
564(12) 0.00645 535.9 16.8
572(13) 0.00589 535.7 15.9
550(13) 0.00614 535.5 15.0
566(13) 0.00602 535.2 14.3
562(12) 0.00662 535.0 13.6
575(13) 0.00626 534.8 13.0
539(12) 0.00649 534.5 12.4
533(12) 0.00665 534.3 11.8
567(13) 0.00621 534.1 11.3
526(12) 0.00711 533.9 10.9
559(13) 0.00623 533.6 10.5
548(13) 0.00617 533.4 10.1
552(13) 0.00623 533.2 9.7
552(12) 0.00658 533.0 9.4
546(12) 0.00683 532.7 9.0
496(12) 0.00705 532.5 8.8
545(13) 0.00605 532.3 8.5
557(13) 0.00630 532.0 8.3
560(12) 0.00646 531.8 8.0
516(12) 0.00724 531.6 7.8
532(12) 0.00660 531.4 7.6
544(13) 0.00601 531.1 7.4
562(13) 0.00596 530.9 7.2
550(12) 0.00661 530.7 7.0
537(12) 0.00689 530.5 6.9
555(13) 0.00622 530.2 6.7
535(13) 0.00605 530.0 6.6
541(12) 0.00652 529.8 6.5
543(12) 0.00675 529.5 6.4
526(12) 0.00707 529.3 6.3
518(12) 0.00663 529.1 6.2
500(12) 0.00658 528.9 6.1
518(12) 0.00652 528.6 6.1
538(12) 0.00691 528.4 6.0
523(12) 0.00701 528.2 6.0
514(12) 0.00693 528.0 6.0
537(13) 0.00617 527.7 5.9
528(12) 0.00678 527.5 6.0
523(12) 0.00711 527.3 6.0
518(12) 0.00714 527.1 6.1
519(12) 0.00662 526.8 6.1
516(13) 0.00633 526.6 6.3
504(12) 0.00687 526.4 6.4
505(12) 0.00740 526.1 6.6
541(12) 0.00668 525.9 6.8
530(12) 0.00645 525.7 7.0
528(13) 0.00614 525.5 7.2
533(13) 0.00625 525.2 7.5
521(12) 0.00718 525.0 7.9
529(12) 0.00662 524.8 8.4
546(13) 0.00617 524.6 9.0
528(13) 0.00624 524.3 9.8
515(12) 0.00685 524.1 10.9
501(12) 0.00744 523.9 12.3
539(12) 0.00664 523.6 14.1
524(12) 0.00649 523.4 16.4
537(13) 0.00630 523.2 19.5
487(12) 0.00737 523.0 23.4
517(12) 0.00716 522.7 28.1
523(12) 0.00676 522.5 33.8
525(12) 0.00651 522.3 40.4
563(13) 0.00613 522.1 47.5
596(13) 0.00585 521.8 54.7
585(13) 0.00633 521.6 60.9
587(13) 0.00582 521.4 64.9
604(14) 0.00539 521.1 65.7
579(13) 0.00585 520.9 63.1
565(12) 0.00645 520.7 57.7
562(12) 0.00660 520.5 50.8
567(13) 0.00609 520.2 43.5
573(13) 0.00584 520.0 36.5
569(13) 0.00618 519.8 30.3
543(12) 0.00660 519.6 25.0
539(12) 0.00691 519.3 20.6
526(12) 0.00651 519.1 17.1
537(13) 0.00590 518.9 14.3
513(12) 0.00667 518.6 12.2
543(12) 0.00674 518.4 10.5
526(12) 0.00707 518.2 9.3
510(12) 0.00679 518.0 8.3
548(13) 0.00596 517.7 7.5
511(12) 0.00688 517.5 6.8
503(12) 0.00743 517.3 6.4
538(12) 0.00692 517.1 5.9
530(12) 0.00666 516.8 5.5
545(13) 0.00590 516.6 5.2
505(12) 0.00681 516.4 4.9
519(12) 0.00722 516.1 4.7
521(12) 0.00713 515.9 4.4
545(12) 0.00642 515.7 4.2
515(12) 0.00655 515.5 4.0
504(12) 0.00685 515.2 3.9
514(12) 0.00723 515.0 3.7
517(12) 0.00713 514.8 3.6
498(12) 0.00701 514.6 3.5
528(13) 0.00632 514.3 3.4
540(12) 0.00647 514.1 3.3
516(12) 0.00718 513.9 3.2
533(12) 0.00669 513.6 3.1
551(13) 0.00626 513.4 3.0
518(12) 0.00670 513.2 2.9
531(13) 0.00636 513.0 2.8
523(12) 0.00709 512.7 2.8
494(12) 0.00711 512.5 2.7
486(12) 0.00716 512.3 2.7
477(12) 0.00718 512.1 2.6
513(12) 0.00687 511.8 2.6
503(12) 0.00744 511.6 2.5
473(11) 0.00760 511.4 2.5
494(12) 0.00690 511.1 2.4
515(12) 0.00647 510.9 2.4
516(12) 0.00692 510.7 2.3
494(12) 0.00750 510.5 2.3
462(11) 0.00771 510.2 2.3
517(13) 0.00635 510.0 2.2
489(12) 0.00705 509.8 2.2
484(12) 0.00735 509.6 2.2
498(12) 0.00745 509.3 2.2
538(13) 0.00636 509.1 2.1
520(13) 0.00636 508.9 2.1
510(12) 0.00697 508.6 2.1
524(12) 0.00704 508.4 2.1
510(12) 0.00730 508.2 2.0
512(12) 0.00682 508.0 2.0
500(12) 0.00675 507.7 2.0
500(12) 0.00714 507.5 2.0
493(12) 0.00742 507.3 2.0
497(12) 0.00752 507.1 1.9
495(12) 0.00686 506.8 1.9
481(12) 0.00684 506.6 1.9
528(12) 0.00653 506.4 1.9
502(12) 0.00725 506.1 1.9
539(12) 0.00691 505.9 1.9
487(12) 0.00717 505.7 1.9
490(12) 0.00666 505.5 1.8
531(12) 0.00664 505.2 1.8
526(12) 0.00693 505.0 1.8
519(12) 0.00718 504.8 1.8
494(12) 0.00708 504.6 1.8
489(12) 0.00669 504.3 1.8
484(12) 0.00709 504.1 1.8
511(12) 0.00733 503.9 1.8
494(12) 0.00747 503.6 1.8
499(12) 0.00701 503.4 1.7
509(13) 0.00633 503.2 1.7
489(12) 0.00715 503.0 1.7
491(12) 0.00754 502.7 1.7
505(12) 0.00728 502.5 1.7
486(12) 0.00715 502.3 1.7
495(12) 0.00670 502.1 1.7
512(12) 0.00664 501.8 1.7
489(11) 0.00761 501.6 1.7
508(12) 0.00723 501.4 1.7
519(12) 0.00683 501.1 1.7
443(11) 0.00785 500.9 1.7
464(12) 0.00754 500.7 1.7
495(12) 0.00747 500.5 1.7
482(12) 0.00728 500.2 1.7
501(12) 0.00672 500.0 1.7
534(13) 0.00636 499.8 1.7
473(12) 0.00744 499.6 1.7
490(12) 0.00755 499.3 1.7
505(12) 0.00674 499.1 1.7
499(12) 0.00666 498.9 1.7
495(12) 0.00681 498.6 1.6
475(12) 0.00744 498.4 1.6
507(12) 0.00725 498.2 1.6
525(12) 0.00649 498.0 1.6
488(12) 0.00700 497.7 1.6
490(12) 0.00715 497.5 1.6
474(11) 0.00765 497.3 1.6
481(11) 0.00773 497.1 1.6
505(12) 0.00662 496.8 1.6
498(12) 0.00671 496.6 1.6
501(12) 0.00697 496.4 1.6
498(12) 0.00727 496.1 1.6
488(11) 0.00759 495.9 1.7
490(12) 0.00709 495.7 1.7
480(12) 0.00686 495.5 1.7
498(12) 0.00680 495.2 1.7
496(12) 0.00737 495.0 1.7
475(11) 0.00775 494.8 1.7
491(12) 0.00706 494.6 1.7
489(12) 0.00654 494.3 1.7
485(12) 0.00736 494.1 1.7
496(12) 0.00738 493.9 1.7
477(11) 0.00778 493.6 1.7
491(12) 0.00718 493.4 1.7
500(13) 0.00640 493.2 1.7
523(12) 0.00648 493.0 1.7
492(12) 0.00754 492.7 1.7
500(12) 0.00732 492.5 1.7
495(12) 0.00697 492.3 1.7
477(12) 0.00706 492.1 1.7
522(12) 0.00652 491.8 1.7
515(12) 0.00725 491.6 1.7
469(11) 0.00791 491.4 1.8
506(12) 0.00693 491.1 1.8
476(12) 0.00704 490.9 1.8
494(12) 0.00702 490.7 1.8
495(12) 0.00750 490.5 1.8
493(12) 0.00735 490.2 1.8
497(12) 0.00682 490.0 1.8
475(12) 0.00713 489.8 1.8
515(12) 0.00688 489.7 1.8
501(12) 0.00742 489.6 1.9
494(12) 0.00726 489.5 1.9
492(12) 0.00707 489.4 1.9
494(12) 0.00693 489.2 1.9
509(12) 0.00677 489.1 1.9
525(12) 0.00709 489.0 2.0
494(12) 0.00737 488.9 2.0
519(12) 0.00661 488.8 2.0
494(12) 0.00705 488.6 2.0
525(12) 0.00681 488.5 2.1
510(12) 0.00730 488.4 2.1
489(12) 0.00719 488.3 2.1
507(12) 0.00663 488.2 2.1
498(12) 0.00686 488.1 2.2
479(11) 0.00758 487.9 2.2
516(12) 0.00723 487.8 2.3
498(12) 0.00692 487.7 2.3
467(12) 0.00714 487.6 2.4
459(11) 0.00761 487.5 2.4
487(12) 0.00748 487.3 2.5
480(11) 0.00776 487.2 2.6
494(12) 0.00706 487.1 2.6
507(13) 0.00611 487.0 2.7
480(12) 0.00706 486.9 2.8
483(11) 0.00756 486.7 2.9
503(12) 0.00743 486.6 3.0
523(12) 0.00668 486.5 3.1
504(13) 0.00640 486.4 3.2
453(11) 0.00789 486.3 3.3
492(12) 0.00746 486.1 3.4
515(12) 0.00716 486.0 3.5
494(12) 0.00707 485.9 3.7
494(12) 0.00652 485.8 3.8
496(12) 0.00700 485.7 4.0
507(12) 0.00733 485.5 4.1
490(12) 0.00741 485.4 4.3
467(12) 0.00741 485.3 4.4
480(12) 0.00679 485.2 4.5
468(12) 0.00738 485.1 4.7
476(11) 0.00778 484.9 4.8
501(12) 0.00736 484.8 4.9
496(12) 0.00712 484.7 5.0
510(12) 0.00652 484.6 5.0
489(12) 0.00739 484.5 5.0
509(12) 0.00730 484.4 5.0
488(12) 0.00744 484.2 5.0
463(11) 0.00757 484.1 5.0
474(12) 0.00707 484.0 4.9
458(11) 0.00767 483.9 4.8
511(12) 0.00731 483.8 4.7
502(12) 0.00712 483.6 4.6
521(12) 0.00663 483.5 4.5
498(12) 0.00690 483.4 4.4
493(12) 0.00706 483.3 4.3
487(11) 0.00763 483.2 4.2
493(12) 0.00724 483.0 4.0
494(12) 0.00691 482.9 3.9
504(12) 0.00675 482.8 3.8
470(12) 0.00750 482.7 3.7
484(11) 0.00772 482.6 3.7
479(12) 0.00715 482.4 3.6
477(12) 0.00702 482.3 3.5
495(12) 0.00695 482.2 3.4
501(12) 0.00710 482.1 3.4
517(12) 0.00726 482.0 3.3
498(12) 0.00688 481.8 3.3
496(12) 0.00663 481.7 3.2
448(11) 0.00786 481.6 3.2
502(12) 0.00729 481.5 3.2
492(12) 0.00752 481.4 3.2
478(12) 0.00712 481.3 3.1
477(12) 0.00683 481.1 3.1
478(12) 0.00736 481.0 3.1
475(11) 0.00768 480.9 3.1
477(11) 0.00773 480.8 3.1
498(12) 0.00685 480.7 3.1
492(12) 0.00673 480.5 3.1
488(12) 0.00738 480.4 3.1
472(11) 0.00787 480.3 3.1
477(11) 0.00777 480.2 3.1
465(12) 0.00749 480.1 3.2
444(12) 0.00730 479.9 3.2
483(12) 0.00719 479.8 3.2
497(11) 0.00760 479.7 3.2
475(11) 0.00762 479.6 3.2
510(12) 0.00684 479.5 3.3
502(12) 0.00674 479.3 3.3
488(12) 0.00713 479.2 3.3
472(11) 0.00781 479.1 3.4
459(11) 0.00799 479.0 3.4
463(12) 0.00749 478.9 3.4
478(12) 0.00684 478.7 3.5
470(12) 0.00733 478.6 3.5
467(11) 0.00795 478.5 3.6
490(12) 0.00746 478.4 3.6
490(12) 0.00728 478.3 3.7
486(12) 0.00712 478.1 3.7
491(12) 0.00728 478.0 3.8
487(11) 0.00762 477.9 3.8
493(12) 0.00740 477.8 3.9
477(12) 0.00724 477.7 3.9
520(13) 0.00640 477.6 4.0
491(12) 0.00718 477.4 4.1
443(11) 0.00852 477.3 4.1
464(12) 0.00755 477.2 4.2
477(12) 0.00722 477.1 4.3
491(12) 0.00687 477.0 4.3
475(12) 0.00754 476.8 4.4
459(11) 0.00810 476.7 4.5
467(12) 0.00751 476.6 4.6
470(12) 0.00717 476.5 4.7
451(11) 0.00778 476.4 4.8
481(12) 0.00751 476.2 4.9
471(11) 0.00793 476.1 5.0
463(12) 0.00722 476.0 5.1
466(12) 0.00713 475.9 5.2
467(12) 0.00724 475.8 5.3
476(11) 0.00771 475.6 5.4
455(11) 0.00819 475.5 5.6
496(12) 0.00709 475.4 5.7
494(12) 0.00655 475.3 5.8
470(12) 0.00739 475.2 6.0
466(11) 0.00794 475.0 6.1
525(12) 0.00703 474.9 6.3
469(12) 0.00740 474.8 6.5
477(12) 0.00655 474.7 6.7
468(11) 0.00770 474.6 6.9
493(12) 0.00751 474.5 7.1
489(12) 0.00754 474.3 7.3
466(12) 0.00738 474.2 7.5
453(12) 0.00710 474.1 7.7
460(11) 0.00765 474.0 8.0
477(11) 0.00784 473.9 8.3
488(12) 0.00749 473.7 8.5
478(12) 0.00729 473.6 8.8
486(12) 0.00682 473.5 9.2
491(12) 0.00720 473.4 9.5
479(11) 0.00768 473.3 9.9
465(11) 0.00792 473.1 10.3
493(12) 0.00709 473.0 10.7
488(12) 0.00670 472.9 11.2
474(12) 0.00705 472.8 11.7
488(11) 0.00761 472.7 12.2
451(11) 0.00804 472.5 12.8
482(12) 0.00733 472.4 13.4
489(12) 0.00700 472.3 14.1
470(12) 0.00735 472.2 14.9
479(11) 0.00778 472.1 15.7
437(11) 0.00829 471.9 16.7
491(12) 0.00688 471.8 17.7
489(12) 0.00687 471.7 18.9
479(12) 0.00727 471.6 20.1
494(12) 0.00750 471.5 21.6
483(12) 0.00722 471.3 23.2
475(12) 0.00716 471.2 24.9
481(12) 0.00715 471.1 26.9
509(12) 0.00706 471.0 29.1
486(11) 0.00766 470.9 31.6
486(12) 0.00723 470.8 34.4
524(12) 0.00641 470.6 37.4
533(12) 0.00644 470.5 40.8
514(12) 0.00703 470.4 44.6
480(11) 0.00774 470.3 48.7
502(12) 0.00686 470.2 53.2
477(12) 0.00714 470.0 58.2
502(12) 0.00693 469.9 63.6
543(12) 0.00674 469.8 69.4
558(12) 0.00663 469.7 75.7
562(13) 0.00612 469.6 82.6
547(13) 0.00610 469.4 90.4
533(12) 0.00670 469.3 99.4
570(13) 0.00625 469.2 110.7
577(12) 0.00646 469.1 125.6
600(13) 0.00590 469.0 146.4
620(14) 0.00533 468.8 175.6
653(14) 0.00521 468.7 216.3
715(14) 0.00508 468.6 270.9
760(14) 0.00489 468.5 340.3
839(16) 0.00412 468.4 422.7
902(17) 0.00361 468.2 511.7
1016(17) 0.003413 468.1 595.6
1075(17) 0.003431 468.0 663.5
1164(18) 0.003180 467.9 715.1
1213(19) 0.002886 467.8 759.0
1281(20) 0.002557 467.7 798.7
1272(19) 0.002741 467.5 825.0
1297(19) 0.002878 467.4 819.5
1306(19) 0.002759 467.3 769.6
1099(18) 0.003143 467.2 681.1
1017(18) 0.003245 467.1 573.5
919(16) 0.00380 466.9 465.3
859(15) 0.00431 466.8 367.8
789(15) 0.00456 466.7 286.1
667(14) 0.00524 466.6 221.1
663(14) 0.00503 466.5 171.6
638(14) 0.00543 466.3 135.1
629(13) 0.00591 466.2 108.7
583(13) 0.00611 466.1 89.8
569(13) 0.00630 466.0 76.0
531(12) 0.00661 465.9 65.8
503(12) 0.00706 465.7 58.0
527(12) 0.00707 465.6 51.8
542(12) 0.00644 465.5 46.7
508(12) 0.00677 465.4 42.4
506(12) 0.00698 465.3 38.8
501(12) 0.00715 465.1 35.7
484(11) 0.00770 465.0 33.1
492(12) 0.00703 464.9 30.7
492(12) 0.00690 464.8 28.7
527(13) 0.00635 464.7 26.9
458(11) 0.00789 464.5 25.4
490(11) 0.00762 464.4 24.0
492(12) 0.00713 464.3 22.7
467(12) 0.00730 464.2 21.6
480(12) 0.00713 464.1 20.7
480(12) 0.00749 464.0 19.8
459(11) 0.00808 463.8 19.0
463(12) 0.00727 463.7 18.3
485(12) 0.00678 463.6 17.7
463(11) 0.00773 463.5 17.1
482(12) 0.00751 463.4 16.6
467(11) 0.00796 463.2 16.2
488(12) 0.00724 463.1 15.8
509(12) 0.00642 463.0 15.4
482(12) 0.00715 462.9 15.1
494(12) 0.00723 462.8 14.8
484(11) 0.00771 462.6 14.6
470(12) 0.00732 462.5 14.4
450(12) 0.00715 462.4 14.2
475(12) 0.00726 462.3 14.1
479(11) 0.00764 462.2 13.9
446(11) 0.00839 462.0 13.9
488(12) 0.00691 461.9 13.8
461(12) 0.00708 461.8 13.7
443(11) 0.00792 461.7 13.7
453(11) 0.00819 461.6 13.7
440(11) 0.00829 461.4 13.8
449(11) 0.00790 461.3 13.8
502(12) 0.00653 461.2 13.9
472(12) 0.00722 461.1 14.0
470(11) 0.00795 460.9 14.1
477(11) 0.00774 460.7 14.3
463(12) 0.00745 460.5 14.4
473(12) 0.00706 460.3 14.6
483(12) 0.00716 460.2 14.9
496(12) 0.00748 460.0 15.1
458(11) 0.00798 459.8 15.4
458(11) 0.00762 459.6 15.7
469(12) 0.00711 459.4 16.0
474(12) 0.00721 459.2 16.4
442(11) 0.00842 459.0 16.8
443(11) 0.00808 458.8 17.3
505(12) 0.00674 458.6 17.8
490(12) 0.00701 458.4 18.3
481(12) 0.00743 458.3 18.9
488(11) 0.00767 458.1 19.5
452(11) 0.00767 457.9 20.2
456(12) 0.00742 457.7 20.9
468(12) 0.00726 457.5 21.8
447(11) 0.00784 457.3 22.7
471(11) 0.00792 457.1 23.6
469(12) 0.00755 456.9 24.7
500(12) 0.00649 456.7 25.8
475(12) 0.00725 456.5 27.1
467(11) 0.00772 456.4 28.5
467(11) 0.00798 456.2 30.1
447(11) 0.00773 456.0 31.8
456(12) 0.00725 455.8 33.6
503(12) 0.00683 455.6 35.7
465(11) 0.00790 455.4 38.0
501(12) 0.00743 455.2 40.6
492(12) 0.00702 455.0 43.5
505(12) 0.00643 454.8 46.8
503(12) 0.00689 454.6 50.5
492(11) 0.00759 454.5 54.7
503(12) 0.00729 454.3 59.5
500(12) 0.00675 454.1 65.1
507(13) 0.00619 453.9 71.5
500(12) 0.00694 453.7 79.0
521(12) 0.00705 453.5 88.0
527(12) 0.00704 453.3 98.9
545(12) 0.00656 453.1 112.5
575(13) 0.00549 452.9 129.9
572(13) 0.00612 452.7 152.8
616(13) 0.00597 452.6 183.6
663(13) 0.00551 452.4 225.2
698(14) 0.00509 452.2 281.4
760(15) 0.00431 452.0 356.1
816(15) 0.00417 451.8 453.0
965(16) 0.00384 451.6 574.5
1067(17) 0.003464 451.4 720.6
1210(19) 0.002902 451.2 887.2
1470(21) 0.002227 451.0 1062.9
1707(22) 0.001976 450.8 1226.2
1857(22) 0.001983 450.7 1344.4
1932(23) 0.001869 450.5 1384.9
1786(23) 0.001937 450.3 1334.3
1673(22) 0.002011 450.1 1209.3
1442(20) 0.002412 449.9 1043.6
1268(19) 0.002918 449.7 868.7
1153(18) 0.003109 449.5 704.9
1007(17) 0.003336 449.3 562.2
912(16) 0.00370 449.1 444.5
831(15) 0.00427 448.9 351.1
736(14) 0.00500 448.8 279.7
717(14) 0.00488 448.6 226.3
667(14) 0.00513 448.4 187.0
648(14) 0.00512 448.2 158.3
628(13) 0.00564 448.0 137.1
627(13) 0.00593 447.8 121.3
594(13) 0.00585 447.6 109.2
566(13) 0.00595 447.4 99.9
562(13) 0.00610 447.2 92.5
591(13) 0.00607 447.0 86.7
557(12) 0.00670 446.9 82.2
559(13) 0.00597 446.7 78.7
551(13) 0.00599 446.5 76.2
539(12) 0.00667 446.3 74.6
547(12) 0.00669 446.1 73.8
547(12) 0.00686 445.9 73.8
552(13) 0.00634 445.7 74.8
560(13) 0.00592 445.5 76.8
538(13) 0.00635 445.3 80.0
505(12) 0.00731 445.1 84.7
548(12) 0.00682 445.0 91.4
588(13) 0.00579 444.8 100.9
603(14) 0.00536 444.6 114.3
637(14) 0.00530 444.4 132.9
635(13) 0.00583 444.2 158.7
637(13) 0.00576 444.0 193.7
725(15) 0.00465 443.8 239.8
801(16) 0.00397 443.6 298.8
844(16) 0.00397 443.4 371.1
926(16) 0.00401 443.2 455.6
1001(16) 0.00370 443.1 547.9
1103(18) 0.003147 442.9 639.0
1237(19) 0.002646 442.7 714.2
1275(19) 0.002730 442.5 754.9
1296(19) 0.002881 442.3 748.4
1309(19) 0.002786 442.1 696.6
1162(19) 0.002918 441.9 614.8
976(17) 0.003391 441.7 521.0
823(15) 0.00429 441.5 428.7
756(14) 0.00494 441.3 345.7
731(14) 0.00498 441.2 275.3
649(14) 0.00546 441.0 218.1
587(13) 0.00582 440.8 173.4
573(13) 0.00612 440.6 139.3
526(12) 0.00702 440.4 113.8
524(12) 0.00675 440.2 94.9
514(12) 0.00665 440.0 80.8
501(12) 0.00683 439.8 70.1
499(12) 0.00693 439.6 61.8
485(11) 0.00760 439.4 55.1
468(11) 0.00784 439.3 49.7
481(12) 0.00725 439.1 45.1
473(12) 0.00730 438.9 41.3
477(11) 0.00760 438.7 37.9
472(11) 0.00787 438.5 35.0
472(12) 0.00737 438.3 32.5
448(12) 0.00749 438.1 30.2
438(11) 0.00791 437.9 28.2
450(11) 0.00814 437.7 26.4
464(11) 0.00797 437.5 24.8
444(11) 0.00763 437.4 23.4
439(11) 0.00768 437.2 22.1
482(12) 0.00719 437.0 20.9
454(11) 0.00783 436.8 19.8
494(12) 0.00753 436.6 18.8
444(12) 0.00749 436.4 17.9
452(12) 0.00698 436.2 17.1
446(11) 0.00773 436.0 16.3
451(11) 0.00795 435.8 15.6
439(11) 0.00850 435.6 15.0
439(12) 0.00750 435.5 14.4
427(12) 0.00756 435.3 13.8
417(11) 0.00795 435.1 13.3
448(11) 0.00819 434.9 12.8
482(11) 0.00770 434.7 12.3
452(11) 0.00769 434.5 11.9
440(12) 0.00721 434.3 11.5
454(11) 0.00764 434.1 11.1
427(11) 0.00850 433.9 10.8
434(11) 0.00855 433.7 10.5
446(11) 0.00783 433.6 10.1
447(12) 0.00706 433.4 9.9
468(12) 0.00711 433.2 9.6
451(11) 0.00830 433.0 9.3
437(11) 0.00850 432.8 9.1
454(11) 0.00769 432.6 8.8
446(12) 0.00726 432.4 8.6
437(11) 0.00797 432.2 8.4
414(11) 0.00905 432.0 8.2
439(11) 0.00835 431.8 8.0
431(11) 0.00806 431.7 7.8
455(12) 0.00727 431.5 7.6
464(12) 0.00742 431.3 7.5
435(11) 0.00864 431.1 7.3
440(11) 0.00801 430.9 7.2
419(11) 0.00847 430.7 7.0
438(11) 0.00782 430.5 6.9
447(11) 0.00768 430.3 6.8
427(11) 0.00867 430.1 6.6
443(11) 0.00820 429.9 6.5
427(11) 0.00815 429.8 6.4
442(11) 0.00773 429.6 6.3
460(11) 0.00771 429.4 6.2
466(11) 0.00796 429.2 6.1
409(11) 0.00884 429.0 6.0
436(11) 0.00793 428.8 5.9
434(11) 0.00792 428.6 5.8
454(11) 0.00774 428.4 5.7
438(11) 0.00837 428.2 5.6
451(11) 0.00767 428.0 5.6
428(11) 0.00760 427.9 5.5
425(11) 0.00797 427.7 5.4
461(11) 0.00776 427.5 5.3
435(11) 0.00846 427.3 5.3
445(11) 0.00773 427.1 5.2
437(12) 0.00742 426.9 5.2
408(11) 0.00865 426.7 5.1
425(11) 0.00857 426.5 5.0
438(11) 0.00861 426.3 5.0
442(11) 0.00784 426.1 4.9
426(12) 0.00750 426.0 4.9
440(11) 0.00775 425.8 4.8
417(11) 0.00889 425.6 4.8
417(11) 0.00878 425.4 4.8
443(11) 0.00772 425.2 4.7
434(12) 0.00739 425.0 4.7
418(11) 0.00820 424.8 4.6
436(11) 0.00840 424.6 4.6
421(11) 0.00880 424.4 4.6
426(11) 0.00814 424.2 4.5
430(12) 0.00747 424.1 4.5
427(11) 0.00805 423.9 4.5
428(11) 0.00868 423.7 4.4
430(11) 0.00870 423.5 4.4
408(11) 0.00863 423.5 4.4
434(12) 0.00740 423.4 4.4
403(11) 0.00883 423.4 4.3
415(11) 0.00895 423.3 4.3
424(11) 0.00866 423.2 4.3
425(11) 0.00796 423.2 4.3
429(11) 0.00765 423.1 4.3
455(12) 0.00755 423.1 4.3
437(11) 0.00850 423.0 4.2
417(11) 0.00835 422.9 4.2
426(11) 0.00806 422.9 4.2
417(11) 0.00819 422.8 4.2
437(11) 0.00796 422.8 4.2
420(11) 0.00892 422.7 4.2
428(11) 0.00817 422.6 4.2
432(11) 0.00813 422.6 4.2
436(11) 0.00778 422.5 4.2
427(11) 0.00825 422.5 4.2
414(11) 0.00894 422.4 4.2
436(11) 0.00804 422.3 4.2
437(11) 0.00777 422.3 4.2
447(11) 0.00768 422.2 4.2
432(11) 0.00819 422.1 4.2
438(11) 0.00849 422.1 4.2
411(11) 0.00881 422.0 4.2
421(11) 0.00768 422.0 4.2
407(11) 0.00835 421.9 4.2
438(11) 0.00826 421.8 4.3
464(11) 0.00801 421.8 4.3
404(11) 0.00857 421.7 4.3
395(11) 0.00863 421.7 4.3
438(11) 0.00786 421.6 4.4
423(11) 0.00844 421.5 4.4
425(11) 0.00878 421.5 4.4
428(11) 0.00813 421.4 4.5
430(11) 0.00765 421.4 4.5
407(11) 0.00867 421.3 4.6
430(11) 0.00865 421.2 4.6
415(11) 0.00901 421.2 4.7
435(11) 0.00783 421.1 4.8
451(12) 0.00693 421.1 4.9
419(11) 0.00833 421.0 5.0
397(10) 0.00938 420.9 5.1
412(11) 0.00905 420.9 5.3
430(11) 0.00815 420.8 5.4
442(12) 0.00730 420.7 5.6
442(11) 0.00781 420.7 5.9
417(11) 0.00884 420.6 6.2
422(11) 0.00869 420.6 6.6
406(11) 0.00855 420.5 7.1
445(12) 0.00727 420.4 7.8
415(11) 0.00844 420.4 9.0
431(11) 0.00866 420.3 11.4
444(11) 0.00824 420.3 16.2
436(11) 0.00822 420.2 25.5
451(11) 0.00771 420.1 41.7
493(12) 0.00707 420.1 66.0
503(12) 0.00737 420.0 96.4
504(12) 0.00720 420.0 126.6
558(13) 0.00617 419.9 145.9
590(13) 0.00557 419.8 144.6
595(13) 0.00562 419.8 123.4
539(12) 0.00689 419.7 92.7
485(12) 0.00736 419.6 62.8
448(11) 0.00789 419.6 39.6
430(11) 0.00805 419.5 24.4
430(11) 0.00812 419.5 15.9
420(11) 0.00879 419.4 11.5
420(11) 0.00840 419.3 9.4
433(11) 0.00779 419.3 8.3
408(11) 0.00860 419.2 7.7
405(11) 0.00906 419.2 7.3
420(11) 0.00893 419.1 7.0
376(10) 0.00948 419.0 6.7
411(11) 0.00821 419.0 6.6
426(11) 0.00819 418.9 6.4
416(11) 0.00859 418.9 6.3
433(11) 0.00858 418.8 6.3
420(11) 0.00821 418.7 6.2
432(11) 0.00757 418.7 6.2
454(12) 0.00742 418.6 6.2
428(11) 0.00859 418.6 6.2
424(11) 0.00862 418.5 6.2
394(11) 0.00883 418.4 6.2
400(11) 0.00824 418.4 6.3
424(11) 0.00811 418.3 6.3
450(11) 0.00802 418.2 6.4
433(11) 0.00871 418.2 6.4
454(11) 0.00773 418.1 6.5
446(12) 0.00736 418.1 6.6
410(11) 0.00872 418.0 6.6
422(11) 0.00871 417.9 6.7
445(11) 0.00833 417.9 6.8
412(11) 0.00851 417.8 6.9
421(12) 0.00747 417.8 7.0
403(11) 0.00859 417.9 7.1
417(11) 0.00887 417.9 7.2
458(11) 0.00801 417.9 7.4
432(11) 0.00814 417.9 7.5
423(12) 0.00753 417.9 7.6
403(11) 0.00859 418.0 7.8
442(11) 0.00841 418.0 7.9
472(11) 0.00779 418.0 8.1
437(11) 0.00827 418.0 8.3
395(11) 0.00880 418.1 8.5
435(11) 0.00803 418.1 8.7
408(10) 0.00914 418.1 8.9
424(11) 0.00864 418.1 9.1
417(11) 0.00845 418.2 9.4
419(11) 0.00804 418.2 9.6
426(11) 0.00790 418.2 9.9
437(11) 0.00845 418.2 10.2
455(11) 0.00791 418.2 10.5
436(11) 0.00800 418.3 10.8
440(11) 0.00759 418.3 11.1
409(11) 0.00854 418.3 11.5
418(11) 0.00891 418.3 11.9
420(11) 0.00844 418.4 12.3
456(12) 0.00731 418.4 12.8
442(11) 0.00783 418.4 13.3
435(11) 0.00817 418.4 13.8
431(11) 0.00856 418.5 14.4
422(11) 0.00830 418.5 15.0
421(11) 0.00844 418.5 15.7
439(11) 0.00787 418.5 16.4
420(11) 0.00837 418.5 17.2
413(11) 0.00902 418.6 18.1
411(11) 0.00847 418.6 19.1
438(12) 0.00734 418.6 20.2
425(11) 0.00806 418.6 21.4
433(11) 0.00848 418.7 22.7
461(11) 0.00797 418.7 24.3
447(11) 0.00793 418.7 26.0
441(12) 0.00750 418.7 28.0
442(11) 0.00812 418.8 30.4
442(11) 0.00825 418.8 33.2
472(11) 0.00790 418.8 36.7
461(11) 0.00772 418.8 40.9
485(12) 0.00671 418.8 46.2
475(12) 0.00734 418.9 52.8
484(12) 0.00752 418.9 61.1
495(12) 0.00748 418.9 71.5
463(11) 0.00762 418.9 84.3
504(12) 0.00649 419.0 99.7
514(12) 0.00666 419.0 117.9
514(12) 0.00722 419.0 138.7
569(12) 0.00646 419.0 161.5
579(13) 0.00616 419.1 184.8
607(14) 0.00540 419.1 206.3
626(13) 0.00561 419.1 223.0
641(13) 0.00578 419.1 232.0
682(14) 0.00537 419.1 231.9
636(14) 0.00546 419.2 224.4
658(14) 0.00502 419.2 212.4
604(13) 0.00579 419.2 199.2
572(12) 0.00651 419.2 187.5
537(12) 0.00685 419.3 178.6
555(13) 0.00628 419.3 173.3
563(13) 0.00597 419.3 171.7
610(13) 0.00565 419.3 173.8
643(13) 0.00580 419.4 179.0
679(14) 0.00521 419.4 186.4
653(14) 0.00528 419.4 195.2
643(14) 0.00532 419.4 203.9
677(14) 0.00506 419.4 211.2
660(13) 0.00564 419.5 215.6
662(14) 0.00531 419.5 216.0
641(14) 0.00529 419.5 212.0
624(14) 0.00547 419.5 203.7
623(13) 0.00576 419.6 192.0
607(13) 0.00614 419.6 178.1
584(13) 0.00600 419.6 163.0
571(13) 0.00590 419.6 147.7
564(13) 0.00595 419.7 132.9
542(12) 0.00641 419.7 119.0
525(12) 0.00714 419.7 106.2
512(12) 0.00687 419.7 94.8
526(13) 0.00627 419.7 84.6
477(12) 0.00745 419.8 75.7
500(12) 0.00727 419.8 67.9
521(12) 0.00717 419.8 61.3
500(12) 0.00667 419.8 55.6
470(12) 0.00694 419.9 50.7
460(11) 0.00760 419.9 46.6
459(11) 0.00791 419.9 43.2
479(11) 0.00769 419.9 40.2
432(11) 0.00824 420.0 37.7
430(11) 0.00759 420.0 35.6
444(11) 0.00770 420.0 33.9
459(11) 0.00795 420.0 32.4
436(11) 0.00856 420.0 31.1
455(11) 0.00774 420.1 30.0
432(12) 0.00732 420.1 29.0
415(11) 0.00842 420.1 28.3
446(11) 0.00823 420.1 27.6
443(11) 0.00831 420.2 27.0
439(11) 0.00800 420.2 26.6
412(11) 0.00804 420.2 26.2
426(11) 0.00833 420.2 26.0
420(11) 0.00875 420.3 25.8
440(11) 0.00842 420.3 25.7
440(11) 0.00792 420.3 25.6
416(11) 0.00803 420.3 25.7
469(12) 0.00746 420.3 25.8
448(11) 0.00828 420.4 26.0
440(11) 0.00825 420.4 26.2
401(11) 0.00898 420.4 26.6
429(11) 0.00771 420.4 27.0
438(11) 0.00784 420.5 27.5
441(11) 0.00846 420.5 28.1
441(11) 0.00818 420.5 28.7
433(11) 0.00826 420.5 29.4
458(12) 0.00719 420.6 30.2
416(11) 0.00858 420.6 31.1
456(11) 0.00820 420.6 32.1
412(11) 0.00866 420.6 33.1
414(11) 0.00831 420.6 34.1
415(11) 0.00796 420.7 35.2
425(11) 0.00833 420.7 36.3
424(11) 0.00871 420.6 37.4
429(11) 0.00831 420.4 38.5
416(11) 0.00827 420.2 39.5
448(12) 0.00747 420.0 40.5
439(11) 0.00778 419.8 41.3
439(11) 0.00844 419.6 42.1
461(11) 0.00766 419.4 42.9
446(11) 0.00771 419.2 43.6
447(11) 0.00762 418.9 44.3
424(11) 0.00855 418.7 45.1
430(11) 0.00867 418.5 46.0
448(11) 0.00771 418.3 46.9
452(12) 0.00733 418.1 48.0
433(11) 0.00802 417.9 49.3
458(11) 0.00803 417.7 50.7
432(11) 0.00853 417.5 52.4
437(11) 0.00767 417.3 54.3
413(11) 0.00785 417.1 56.5
441(11) 0.00768 416.9 58.9
464(11) 0.00794 416.7 61.8
473(11) 0.00787 416.5 65.0
491(12) 0.00702 416.3 68.6
479(12) 0.00652 416.1 72.7
456(11) 0.00780 415.9 77.3
451(11) 0.00824 415.6 82.5
461(11) 0.00807 415.4 88.2
453(11) 0.00787 415.2 94.6
452(12) 0.00723 415.0 101.7
479(12) 0.00698 414.8 109.5
459(11) 0.00815 414.6 117.9
492(12) 0.00739 414.4 127.3
483(12) 0.00720 414.2 137.7
530(13) 0.00614 414.0 149.4
529(13) 0.00640 413.8 162.9
496(12) 0.00749 413.6 178.5
539(12) 0.00682 413.4 196.5
549(12) 0.00645 413.2 217.3
570(13) 0.00585 413.0 241.2
604(13) 0.00574 412.8 268.4
640(13) 0.00576 412.6 299.2
646(13) 0.00555 412.3 333.7
699(14) 0.00488 412.1 371.9
757(15) 0.00443 411.9 413.5
755(15) 0.00463 411.7 458.1
812(15) 0.00457 411.5 504.9
881(16) 0.00410 411.3 552.6
957(17) 0.00356 411.1 599.3
976(17) 0.003452 410.9 642.4
988(17) 0.003501 410.7 679.1
1070(17) 0.003500 410.5 706.3
1081(18) 0.003225 410.3 721.4
979(17) 0.00354 410.1 722.8
953(17) 0.00360 409.9 710.6
926(16) 0.00390 409.7 686.2
942(16) 0.00393 409.5 652.3
898(16) 0.00384 409.3 611.9
804(15) 0.00424 409.0 567.9
819(15) 0.00423 408.8 522.8
762(15) 0.00472 408.6 478.4
729(14) 0.00509 408.4 436.0
738(15) 0.00461 408.2 396.4
710(15) 0.00472 408.0 359.9
692(14) 0.00505 407.8 326.9
642(13) 0.00571 407.6 297.2
644(13) 0.00575 407.4 270.6
586(13) 0.00573 407.2 247.1
649(14) 0.00501 407.0 226.3
584(13) 0.00601 406.8 207.9
596(13) 0.00620 406.6 191.8
567(12) 0.00655 406.4 177.5
555(13) 0.00618 406.2 164.9
559(13) 0.00577 406.0 153.7
546(13) 0.00633 405.7 143.7
506(12) 0.00747 405.5 134.7
527(12) 0.00700 405.3 126.6
524(12) 0.00663 405.1 119.2
490(12) 0.00681 404.9 112.5
473(12) 0.00745 404.7 106.3
482(11) 0.00765 404.5 100.6
509(12) 0.00716 404.3 95.4
476(12) 0.00723 404.1 90.5
482(12) 0.00668 403.9 85.9
478(12) 0.00705 403.7 81.7
489(11) 0.00764 403.5 77.7
486(11) 0.00761 403.3 74.0
478(12) 0.00729 403.1 70.6
486(12) 0.00702 402.9 67.4
451(11) 0.00789 402.7 64.4
449(11) 0.00826 402.4 61.6
453(11) 0.00821 402.2 59.1
435(11) 0.00785 402.0 56.7
452(12) 0.00728 401.8 54.5
458(12) 0.00745 401.6 52.4
466(11) 0.00800 401.4 50.6
451(11) 0.00780 401.2 48.9
432(11) 0.00795 401.0 47.3
469(12) 0.00712 400.8 46.0
419(11) 0.00841 400.6 44.8
447(11) 0.00834 400.4 43.7
474(11) 0.00765 400.2 42.9
422(11) 0.00837 400.0 42.2
432(11) 0.00807 399.8 41.7
419(11) 0.00855 399.6 41.4
403(10) 0.00931 399.4 41.3
433(11) 0.00828 399.1 41.5
451(11) 0.00764 398.9 42.0
470(12) 0.00734 398.7 42.8
458(11) 0.00789 398.5 43.9
459(11) 0.00813 398.3 45.3
439(11) 0.00787 398.1 47.2
427(11) 0.00799 397.9 49.5
459(11) 0.00758 397.7 52.2
470(11) 0.00776 397.5 55.5
477(11) 0.00774 397.3 59.2
455(11) 0.00795 397.1 63.3
466(12) 0.00710 396.9 67.9
448(11) 0.00784 396.7 72.9
476(11) 0.00779 396.5 78.0
504(12) 0.00741 396.3 83.1
492(12) 0.00702 396.1 87.9
458(12) 0.00734 395.8 92.1
503(12) 0.00688 395.6 95.2
476(11) 0.00762 395.4 96.9
510(12) 0.00729 395.2 96.9
534(12) 0.00643 395.0 95.2
476(12) 0.00692 394.8 92.0
515(12) 0.00686 394.6 87.5
486(11) 0.00759 394.4 82.1
477(11) 0.00779 394.2 76.3
470(12) 0.00729 394.0 70.3
470(12) 0.00685 393.8 64.3
445(11) 0.00802 393.6 58.6
464(11) 0.00805 393.4 53.3
467(11) 0.00789 393.2 48.4
417(11) 0.00832 393.0 44.0
385(11) 0.00880 392.8 40.0
433(11) 0.00794 392.5 36.5
422(11) 0.00876 392.3 33.3
432(11) 0.00831 392.1 30.5
392(11) 0.00883 391.9 28.1
411(11) 0.00816 391.7 26.0
393(11) 0.00891 391.5 24.1
389(10) 0.00957 391.3 22.5
396(11) 0.00904 391.1 21.1
414(11) 0.00832 390.9 19.8
402(11) 0.00834 390.7 18.7
384(11) 0.00874 390.5 17.7
422(11) 0.00884 390.3 16.8
399(11) 0.00904 390.1 16.1
375(10) 0.00908 389.9 15.4
395(11) 0.00819 389.7 14.7
415(11) 0.00824 389.5 14.1
427(11) 0.00873 389.2 13.6
414(11) 0.00860 389.0 13.1
400(11) 0.00858 388.8 12.6
381(11) 0.00884 388.6 12.2
378(10) 0.00954 388.4 11.8
406(10) 0.00924 388.2 11.4
410(11) 0.00843 388.0 11.0
392(11) 0.00872 387.8 10.7
404(11) 0.00835 387.6 10.4
393(10) 0.00947 387.4 10.1
394(10) 0.00935 387.2 9.8
400(11) 0.00853 387.0 9.6
396(11) 0.00876 386.8 9.3
413(11) 0.00838 386.6 9.1
399(10) 0.00925 386.4 8.8
388(10) 0.00966 386.2 8.6
381(10) 0.00937 385.9 8.4
389(11) 0.00841 385.7 8.2
417(11) 0.00833 385.5 8.0
390(10) 0.00946 385.3 7.8
380(10) 0.00970 385.1 7.7
377(10) 0.00918 384.9 7.5
395(11) 0.00831 384.7 7.3
396(11) 0.00889 384.5 7.2
376(10) 0.00978 384.3 7.0
380(10) 0.00975 384.1 6.9
385(10) 0.00911 383.9 6.8
372(11) 0.00860 383.7 6.6
390(11) 0.00891 383.5 6.5
400(10) 0.00936 383.3 6.4
367(10) 0.00987 383.1 6.3
393(11) 0.00866 382.9 6.1
394(11) 0.00823 382.6 6.0
392(11) 0.00863 382.4 5.9
349(10) 0.01063 382.2 5.8
351(10) 0.01032 382.0 5.7
401(11) 0.00849 381.8 5.6
378(11) 0.00898 381.6 5.5
378(10) 0.00911 381.4 5.4
397(10) 0.00937 381.2 5.3
364(10) 0.01009 381.0 5.3
405(11) 0.00842 380.8 5.2
394(11) 0.00866 380.6 5.1
368(10) 0.00946 380.4 5.0
379(10) 0.00972 380.2 4.9
399(11) 0.00900 380.0 4.9
377(11) 0.00901 379.8 4.8
383(11) 0.00862 379.6 4.7
373(10) 0.00964 379.3 4.7
382(10) 0.00969 379.1 4.6
396(10) 0.00912 378.9 4.5
399(11) 0.00850 378.7 4.5
378(11) 0.00904 378.5 4.4
369(10) 0.00967 378.3 4.3
372(10) 0.01007 378.1 4.3
398(11) 0.00858 377.9 4.2
359(10) 0.00970 377.7 4.2
388(11) 0.00893 377.5 4.1
381(10) 0.00941 377.3 4.1
387(10) 0.00957 377.1 4.0
381(10) 0.00931 376.9 4.0
370(10) 0.00914 376.7 3.9
398(11) 0.00873 376.5 3.9
398(10) 0.00937 376.3 3.8
385(10) 0.00966 376.0 3.8
385(10) 0.00907 375.8 3.7
390(11) 0.00846 375.6 3.7
393(11) 0.00877 375.4 3.6
399(10) 0.00935 375.2 3.6
411(11) 0.00904 375.0 3.5
405(11) 0.00826 374.8 3.5
360(10) 0.00933 374.6 3.5
400(11) 0.00875 374.4 3.4
422(11) 0.00865 374.2 3.4
390(10) 0.00951 374.0 3.3
387(10) 0.00928 373.8 3.3
371(11) 0.00890 373.6 3.3
382(11) 0.00904 373.4 3.2
395(10) 0.00942 373.2 3.2
387(10) 0.00959 373.0 3.2
380(11) 0.00897 372.8 3.1
377(11) 0.00838 372.5 3.1
376(11) 0.00901 372.3 3.1
371(10) 0.01005 372.1 3.0
372(10) 0.00978 371.9 3.0
385(11) 0.00895 371.7 3.0
369(10) 0.00928 371.5 2.9
410(11) 0.00853 371.3 2.9
377(10) 0.00990 371.1 2.9
398(11) 0.00904 370.9 2.9
388(11) 0.00887 370.7 2.8
380(11) 0.00889 370.5 2.8
377(10) 0.00916 370.3 2.8
374(10) 0.00985 370.1 2.8
378(10) 0.00958 369.9 2.7
373(10) 0.00921 369.7 2.7
385(11) 0.00852 369.5 2.7
386(11) 0.00879 369.2 2.7
391(10) 0.00946 369.0 2.6
392(10) 0.00913 368.8 2.6
391(11) 0.00884 368.6 2.6
389(11) 0.00904 368.4 2.6
380(10) 0.00952 368.2 2.5
388(10) 0.00965 368.0 2.5
387(11) 0.00905 367.8 2.5
373(10) 0.00915 367.6 2.5
363(10) 0.00975 367.4 2.5
380(10) 0.00944 367.2 2.4
353(10) 0.01049 367.0 2.4
386(11) 0.00884 366.8 2.4
385(11) 0.00850 366.6 2.4
389(11) 0.00876 366.4 2.4
400(11) 0.00894 366.2 2.3
379(10) 0.00990 365.9 2.3
404(11) 0.00853 365.9 2.3
362(10) 0.00961 365.8 2.3
383(10) 0.00916 365.8 2.3
360(10) 0.01018 365.7 2.3
353(10) 0.01052 365.6 2.2
364(10) 0.00968 365.6 2.2
371(11) 0.00871 365.5 2.2
388(11) 0.00868 365.5 2.2
347(10) 0.01080 365.4 2.2
385(10) 0.00965 365.4 2.2
394(11) 0.00900 365.3 2.1
378(11) 0.00846 365.3 2.1
375(10) 0.00911 365.2 2.1
386(10) 0.00948 365.1 2.1
383(10) 0.00959 365.1 2.1
351(10) 0.01015 365.0 2.1
386(11) 0.00856 365.0 2.1
377(10) 0.00935 364.9 2.0
366(10) 0.01014 364.9 2.0
359(10) 0.01034 364.8 2.0
365(10) 0.00943 364.8 2.0
386(11) 0.00824 364.7 2.0
380(11) 0.00874 364.6 2.0
361(10) 0.01032 364.6 2.0
367(10) 0.00986 364.5 2.0
372(11) 0.00906 364.5 1.9
336(10) 0.01041 364.4 1.9
392(11) 0.00879 364.4 1.9
378(10) 0.00986 364.3 1.9
396(11) 0.00896 364.3 1.9
351(10) 0.00982 364.2 1.9
360(10) 0.00940 364.1 1.9
368(10) 0.00969 364.1 1.9
374(10) 0.01000 364.0 1.9
344(10) 0.01026 364.0 1.9
356(10) 0.00953 363.9 1.8
376(10) 0.00927 363.9 1.8
373(10) 0.00954 363.8 1.8
386(10) 0.00967 363.8 1.8
385(11) 0.00890 363.7 1.8
311(10) 0.01089 363.6 1.8
361(10) 0.00937 363.6 1.8
344(10) 0.01048 363.5 1.8
392(10) 0.00946 363.5 1.8
390(11) 0.00899 363.4 1.8
366(10) 0.00953 363.4 1.8
367(10) 0.00911 363.3 1.8
367(10) 0.00986 363.3 1.7
371(10) 0.01004 363.2 1.7
352(10) 0.01006 363.1 1.7
383(11) 0.00863 363.1 1.7
381(10) 0.00957 363.0 1.7
396(10) 0.00916 363.0 1.7
386(10) 0.00976 362.9 1.7
368(10) 0.00978 362.9 1.7
359(10) 0.00931 362.8 1.7
365(10) 0.00940 362.7 1.7
397(10) 0.00932 362.7 1.7
376(10) 0.00971 362.6 1.7
383(10) 0.00920 362.6 1.7
403(11) 0.00808 362.5 1.7
346(10) 0.01037 362.5 1.7
353(10) 0.01036 362.4 1.7
370(10) 0.00996 362.4 1.6
377(10) 0.00909 362.3 1.6
358(10) 0.00913 362.2 1.6
382(11) 0.00890 362.2 1.6
380(10) 0.00984 362.1 1.6
344(10) 0.01072 362.1 1.6
324(10) 0.01103 362.0 1.6
349(10) 0.00919 362.0 1.6
344(10) 0.01017 361.9 1.6
368(10) 0.01013 361.9 1.6
355(10) 0.01014 361.8 1.6
368(10) 0.00936 361.7 1.6
346(10) 0.00966 361.7 1.6
349(10) 0.00997 361.6 1.6
355(10) 0.01040 361.6 1.6
370(10) 0.00981 361.5 1.6
355(10) 0.00991 361.5 1.6
384(11) 0.00886 361.4 1.6
360(10) 0.00992 361.4 1.6
368(10) 0.01009 361.3 1.6
381(10) 0.00914 361.2 1.6
379(11) 0.00858 361.2 1.6
379(11) 0.00897 361.1 1.6
388(10) 0.00930 361.1 1.6
373(10) 0.01000 361.0 1.6
375(10) 0.00927 361.0 1.6
354(10) 0.00978 360.9 1.6
350(10) 0.00996 360.9 1.6
383(11) 0.00899 360.8 1.6
375(10) 0.00991 360.7 1.6
364(10) 0.00950 360.7 1.6
356(10) 0.00928 360.6 1.6
376(11) 0.00884 360.6 1.6
374(10) 0.00936 360.5 1.6
373(10) 0.01011 360.5 1.6
346(10) 0.01021 360.4 1.6
377(11) 0.00897 360.4 1.6
370(10) 0.00944 360.3 1.6
351(10) 0.01039 360.2 1.6
378(10) 0.00988 360.2 1.6
376(10) 0.00943 360.1 1.6
339(10) 0.00960 360.1 1.7
358(10) 0.00930 360.0 1.7
369(10) 0.00994 360.0 1.7
374(10) 0.00990 359.9 1.7
354(10) 0.00971 359.9 1.7
368(11) 0.00866 359.8 1.7
343(10) 0.01058 359.7 1.7
366(10) 0.00998 359.7 1.7
360(10) 0.01029 359.6 1.7
372(10) 0.00931 359.6 1.7
341(10) 0.00970 359.5 1.8
318(9) 0.01122 359.5 1.8
359(10) 0.01029 359.4 1.8
357(10) 0.01044 359.4 1.8
370(10) 0.00912 359.3 1.8
365(11) 0.00875 359.2 1.8
335(10) 0.01065 359.2 1.9
354(10) 0.01043 359.1 1.9
352(10) 0.01034 359.1 1.9
365(10) 0.00945 359.0 1.9
359(10) 0.00940 359.0 2.0
343(10) 0.01016 358.9 2.0
365(10) 0.01016 358.9 2.0
318(9) 0.01156 358.8 2.1
358(10) 0.00959 358.7 2.1
358(10) 0.00981 358.7 2.2
355(10) 0.01007 358.6 2.2
373(10) 0.01007 358.6 2.3
361(10) 0.00988 358.5 2.3
349(10) 0.00965 358.5 2.4
382(11) 0.00854 358.4 2.5
365(10) 0.00989 358.4 2.6
354(10) 0.01044 358.3 2.7
338(10) 0.01063 358.2 2.8
366(10) 0.00930 358.2 3.0
364(10) 0.00943 358.1 3.2
344(10) 0.01019 358.1 3.5
363(10) 0.01029 358.0 4.0
365(10) 0.00964 358.0 4.7
365(10) 0.00912 357.9 5.8
366(10) 0.00938 357.9 7.4
366(10) 0.00956 357.8 9.4
376(10) 0.00988 357.7 11.7
372(10) 0.00946 357.7 14.1
379(11) 0.00880 357.6 16.0
363(10) 0.00970 357.6 16.6
368(10) 0.01000 357.5 15.7
385(10) 0.00963 357.5 13.7
365(10) 0.00942 357.4 11.5
379(11) 0.00834 357.4 9.5
377(10) 0.00920 357.3 7.8
364(10) 0.00997 357.2 6.7
367(10) 0.01029 357.2 6.0
380(11) 0.00868 357.1 5.6
385(11) 0.00823 357.1 5.4
383(11) 0.00903 357.0 5.3
369(10) 0.00991 357.0 5.4
397(10) 0.00925 356.9 5.5
365(10) 0.00922 356.9 5.6
377(11) 0.00824 356.8 5.7
367(10) 0.00959 356.7 5.9
386(10) 0.00959 356.7 6.1
367(10) 0.01006 356.6 6.3
375(10) 0.00913 356.6 6.5
402(11) 0.00800 356.5 6.7
401(11) 0.00856 356.5 6.9
376(10) 0.00974 356.4 7.1
380(10) 0.00972 356.4 7.3
372(10) 0.00957 356.3 7.5
409(11) 0.00793 356.2 7.7
374(10) 0.00946 356.2 7.8
360(10) 0.01022 356.1 7.9
364(10) 0.00995 356.1 8.0
393(11) 0.00863 356.0 8.1
361(10) 0.00951 356.0 8.1
375(10) 0.00931 355.9 8.1
357(10) 0.01035 355.9 8.1
357(10) 0.01020 355.8 8.1
381(11) 0.00870 355.7 8.0
375(11) 0.00899 355.7 7.8
385(10) 0.00907 355.6 7.7
406(10) 0.00914 355.6 7.5
358(10) 0.01016 355.5 7.4
382(11) 0.00872 355.5 7.2
365(10) 0.00932 355.4 7.0
381(11) 0.00885 355.4 6.7
366(10) 0.01023 355.3 6.5
383(11) 0.00899 355.2 6.3
360(10) 0.00962 355.2 6.1
372(10) 0.00924 355.1 5.9
353(10) 0.01013 355.1 5.7
374(10) 0.01007 355.0 5.5
368(10) 0.00938 355.0 5.3
368(10) 0.00919 354.9 5.1
377(10) 0.00933 354.9 4.9
399(11) 0.00901 354.8 4.7
359(10) 0.01020 354.7 4.6
357(10) 0.00986 354.7 4.4
358(10) 0.00913 354.6 4.3
378(11) 0.00892 354.6 4.1
362(10) 0.01000 354.5 4.0
351(10) 0.01049 354.5 3.9
375(10) 0.00939 354.4 3.8
358(10) 0.00950 354.4 3.7
376(10) 0.00912 354.3 3.6
343(10) 0.01070 354.2 3.5
352(10) 0.01049 354.2 3.4
352(10) 0.00987 354.1 3.3
333(10) 0.00977 354.1 3.3
358(10) 0.00931 354.0 3.2
333(9) 0.01117 354.0 3.2
351(10) 0.01052 353.9 3.1
339(10) 0.01003 353.9 3.1
370(11) 0.00857 353.8 3.1
347(10) 0.01011 353.7 3.1
366(10) 0.01021 353.7 3.1
335(10) 0.01088 353.6 3.1
342(10) 0.00963 353.6 3.1
329(10) 0.00968 353.5 3.1
342(10) 0.01018 353.5 3.1
363(10) 0.01030 353.4 3.2
332(9) 0.01120 353.4 3.2
361(10) 0.00943 353.3 3.3
338(10) 0.00981 353.2 3.4
352(10) 0.00986 353.2 3.5
377(10) 0.00993 353.1 3.6
369(10) 0.00945 353.1 3.7
351(10) 0.00976 353.0 3.9
333(10) 0.01064 353.0 4.1
365(10) 0.00946 352.9 4.4
345(10) 0.01072 352.9 4.7
355(10) 0.00985 352.8 5.1
319(10) 0.01060 352.7 5.6
320(10) 0.01035 352.7 6.2
329(10) 0.01049 352.6 7.1
348(10) 0.01081 352.6 8.1
361(10) 0.00934 352.5 9.3
352(10) 0.00954 352.5 10.8
334(10) 0.01008 352.4 12.5
365(10) 0.00985 352.4 14.5
369(10) 0.01002 352.3 16.6
369(10) 0.00950 352.2 18.8
361(10) 0.00938 352.2 20.8
366(10) 0.00951 352.1 22.4
332(10) 0.01071 352.1 23.2
322(9) 0.01149 352.0 23.1
343(10) 0.01008 352.0 22.1
352(10) 0.00956 351.9 20.4
364(10) 0.00965 351.9 18.3
319(9) 0.01146 351.8 16.1
344(10) 0.01089 351.7 14.0
347(10) 0.00979 351.7 12.1
332(10) 0.01010 351.6 10.5
340(10) 0.01022 351.6 9.0
320(9) 0.01145 351.5 7.8
324(9) 0.01147 351.5 6.9
371(11) 0.00906 351.4 6.1
355(11) 0.00898 351.3 5.5
347(10) 0.01021 351.3 5.0
371(10) 0.00996 351.2 4.6
367(10) 0.00981 351.2 4.3
332(10) 0.01047 351.1 4.1
338(10) 0.00979 351.1 3.9
336(10) 0.01065 351.0 3.7
339(10) 0.01101 350.9 3.5
332(10) 0.01091 350.9 3.4
346(10) 0.00975 350.8 3.3
342(10) 0.00945 350.8 3.3
342(10) 0.01010 350.7 3.2
342(10) 0.01087 350.7 3.2
336(10) 0.01071 350.6 3.1
346(10) 0.00981 350.5 3.1
318(10) 0.01058 350.5 3.1
342(10) 0.01002 350.4 3.0
366(10) 0.01006 350.4 3.0
342(10) 0.01076 350.3 3.0
344(10) 0.01018 350.2 3.0
360(10) 0.00909 350.2 3.0
364(11) 0.00906 350.1 3.0
352(10) 0.01050 350.1 3.1
363(10) 0.00982 350.0 3.1
356(10) 0.00952 350.0 3.1
345(10) 0.01058 349.9 3.2
375(10) 0.00913 349.8 3.2
344(10) 0.01088 349.8 3.3
367(10) 0.00946 349.7 3.3
335(10) 0.01036 349.7 3.4
349(10) 0.00972 349.6 3.5
332(10) 0.01044 349.6 3.6
352(10) 0.01057 349.5 3.7
343(10) 0.00998 349.4 3.8
337(10) 0.00978 349.4 3.9
331(10) 0.01058 349.3 4.1
374(10) 0.00943 349.3 4.2
353(10) 0.01058 349.2 4.4
365(10) 0.00932 349.1 4.6
354(10) 0.00956 349.1 4.9
359(10) 0.00980 349.0 5.1
329(9) 0.01136 349.0 5.4
329(9) 0.01132 348.9 5.8
345(10) 0.01034 348.9 6.2
353(10) 0.00982 348.8 6.6
358(10) 0.01000 348.7 7.0
350(10) 0.01047 348.7 7.5
351(10) 0.01043 348.6 8.1
346(10) 0.01000 348.6 8.6
360(10) 0.00919 348.5 9.2
362(10) 0.00954 348.5 9.9
346(10) 0.01060 348.4 10.5
355(10) 0.01053 348.3 11.2
351(10) 0.01010 348.3 11.8
340(10) 0.00945 348.2 12.5
322(10) 0.01029 348.2 13.0
370(10) 0.00990 348.1 13.5
368(10) 0.01008 348.0 13.8
344(10) 0.01002 348.0 14.0
371(11) 0.00842 347.9 14.0
350(10) 0.00986 347.9 13.9
369(10) 0.00996 347.8 13.6
358(10) 0.01036 347.8 13.3
335(10) 0.01049 347.7 12.8
340(10) 0.00982 347.6 12.3
335(10) 0.01014 347.6 11.8
339(10) 0.01087 347.5 11.2
340(10) 0.01068 347.5 10.7
343(10) 0.01010 347.4 10.2
353(10) 0.00935 347.4 9.7
353(10) 0.00969 347.3 9.3
361(10) 0.01033 347.2 8.9
348(10) 0.01014 347.2 8.6
340(10) 0.00986 347.1 8.3
352(10) 0.00959 347.1 8.1
356(10) 0.00985 347.0 7.9
352(10) 0.01052 347.0 7.8
372(10) 0.00925 346.9 7.7
363(10) 0.00946 346.8 7.7
360(10) 0.00928 346.8 7.7
350(10) 0.01002 346.7 7.7
348(10) 0.01064 346.7 7.7
333(10) 0.01073 346.6 7.8
369(11) 0.00900 346.5 8.0
356(10) 0.00961 346.5 8.1
354(10) 0.00978 346.4 8.3
351(10) 0.01058 346.4 8.4
331(10) 0.01053 346.3 8.6
363(11) 0.00903 346.3 8.8
366(10) 0.00973 346.2 9.0
352(10) 0.01039 346.1 9.2
345(10) 0.01062 346.1 9.4
327(10) 0.01070 346.0 9.6
343(10) 0.00980 346.0 9.8
358(10) 0.00983 345.9 9.9
352(10) 0.01028 345.9 10.0
356(10) 0.01054 345.8 10.1
332(10) 0.01052 345.7 10.1
305(10) 0.01096 345.7 10.2
346(10) 0.00937 345.6 10.1
333(10) 0.01094 345.6 10.1
372(10) 0.00992 345.5 10.0
377(10) 0.00943 345.4 9.8
374(11) 0.00848 345.4 9.7
348(10) 0.00972 345.3 9.5
359(10) 0.01021 345.3 9.4
355(10) 0.01038 345.2 9.2
356(10) 0.00991 345.2 9.0
343(10) 0.00925 345.1 8.8
331(10) 0.01026 345.0 8.7
348(10) 0.01074 345.0 8.5
351(10) 0.01012 344.9 8.4
321(10) 0.01094 344.9 8.2
336(10) 0.00973 344.8 8.1
332(10) 0.01087 344.8 8.0
361(10) 0.01017 344.7 7.9
330(10) 0.01096 344.6 7.8
336(10) 0.01050 344.6 7.8
366(11) 0.00877 344.5 7.7
320(10) 0.01069 344.5 7.7
342(10) 0.01073 344.4 7.7
350(10) 0.01037 344.3 7.7
368(10) 0.00913 344.3 7.7
372(11) 0.00877 344.2 7.8
344(10) 0.01013 344.2 7.8
322(9) 0.01149 344.1 7.9
322(9) 0.01108 344.1 8.0
318(10) 0.01071 344.0 8.1
339(10) 0.01031 343.9 8.2
355(10) 0.01008 343.9 8.4
343(10) 0.01081 343.8 8.5
349(10) 0.01010 343.8 8.7
353(10) 0.00953 343.7 8.9
349(10) 0.00982 343.7 9.1
330(10) 0.01071 343.6 9.4
351(10) 0.01054 343.5 9.6
353(10) 0.00970 343.5 9.9
325(10) 0.01082 343.4 10.3
333(10) 0.01030 343.4 10.6
334(10) 0.01070 343.3 11.0
340(10) 0.01097 343.3 11.4
341(10) 0.01035 343.2 11.9
361(10) 0.00934 343.1 12.4
356(10) 0.00981 343.1 12.9
343(10) 0.01040 343.0 13.5
359(10) 0.01049 343.0 14.2
347(10) 0.00996 342.9 14.9
333(10) 0.00982 342.8 15.7
355(10) 0.00971 342.8 16.6
356(10) 0.01033 342.7 17.6
352(10) 0.01064 342.7 18.7
349(10) 0.00985 342.6 19.9
358(10) 0.00917 342.6 21.2
350(10) 0.01024 342.5 22.6
371(10) 0.00995 342.4 24.1
373(10) 0.00987 342.4 25.7
349(10) 0.01007 342.3 27.5
372(11) 0.00839 342.3 29.4
345(10) 0.01016 342.2 31.6
373(10) 0.00984 342.2 33.9
376(10) 0.00955 342.1 36.5
374(10) 0.00946 342.0 39.4
376(11) 0.00884 342.0 42.5
410(11) 0.00857 341.9 45.9
403(10) 0.00926 341.9 49.6
392(10) 0.00938 341.8 53.6
372(10) 0.00933 341.7 57.8
392(11) 0.00833 341.7 62.3
385(11) 0.00907 341.6 67.0
412(11) 0.00903 341.6 71.9
452(11) 0.00792 341.5 76.9
421(11) 0.00837 341.5 81.9
428(11) 0.00781 341.4 86.7
423(11) 0.00854 341.3 91.3
442(11) 0.00845 341.3 95.5
497(12) 0.00713 341.2 99.1
465(12) 0.00734 341.2 101.9
458(12) 0.00744 341.1 103.9
468(12) 0.00751 341.1 104.9
454(11) 0.00815 341.0 104.9
452(11) 0.00783 340.9 104.1
438(12) 0.00747 340.9 102.3
432(11) 0.00803 340.8 99.9
441(11) 0.00828 340.8 96.9
453(11) 0.00813 340.7 93.4
452(11) 0.00772 340.6 89.6
444(11) 0.00758 340.6 85.6
414(11) 0.00826 340.5 81.6
423(11) 0.00862 340.5 77.4
451(11) 0.00823 340.4 73.4
401(11) 0.00890 340.4 69.3
404(11) 0.00827 340.3 65.4
403(11) 0.00841 340.2 61.6
424(11) 0.00859 340.2 57.9
395(10) 0.00943 340.1 54.3
365(10) 0.00956 340.1 51.0
406(11) 0.00800 340.0 47.8
405(11) 0.00847 340.0 44.8
390(10) 0.00946 339.9 41.9
392(10) 0.00948 339.8 39.3
348(10) 0.01017 339.8 36.8
374(11) 0.00863 339.7 34.5
374(10) 0.00951 339.7 32.3
357(10) 0.01053 339.6 30.3
364(10) 0.01022 339.5 28.5
347(10) 0.00990 339.5 26.7
360(10) 0.00913 339.4 25.2
352(10) 0.01005 339.4 23.8
356(10) 0.01035 339.3 22.4
345(10) 0.01081 339.3 21.1
359(10) 0.00970 339.2 19.9
340(10) 0.00973 339.1 18.9
362(11) 0.00892 339.1 17.9
357(10) 0.01035 339.0 16.9
363(10) 0.01002 339.0 16.0
364(10) 0.00938 338.9 15.2
351(10) 0.00982 338.9 14.5
347(10) 0.00991 338.8 13.8
315(9) 0.01162 338.7 13.1
372(10) 0.00982 338.7 12.5
364(10) 0.00978 338.6 12.0
336(10) 0.01040 338.6 11.5
330(10) 0.01045 338.5 11.0
350(10) 0.01067 338.5 10.5
349(10) 0.01034 338.4 10.1
333(10) 0.01074 338.3 9.7
339(10) 0.01037 338.3 9.3
352(10) 0.01010 338.2 9.0
326(9) 0.01141 338.2 8.6
349(10) 0.01032 338.1 8.3
389(11) 0.00868 338.0 8.0
354(10) 0.01005 338.0 7.8
350(10) 0.01013 337.9 7.5
355(10) 0.01053 337.9 7.3
320(10) 0.01052 337.8 7.0
333(10) 0.01015 337.8 6.8
337(10) 0.01026 337.7 6.6
349(10) 0.01028 337.6 6.4
328(9) 0.01136 337.6 6.2
356(10) 0.00954 337.5 6.1
344(10) 0.00971 337.5 5.9
321(9) 0.01119 337.4 5.8
339(10) 0.01088 337.4 5.6
366(10) 0.01022 337.3 5.5
355(10) 0.00977 337.2 5.3
340(10) 0.00963 337.2 5.2
315(9) 0.01141 337.1 5.1
354(10) 0.00999 337.1 5.0
349(10) 0.01068 337.0 4.8
358(10) 0.00946 336.9 4.7
333(10) 0.00965 336.9 4.6
339(10) 0.01010 336.8 4.5
332(9) 0.01112 336.8 4.4
324(9) 0.01132 336.7 4.3
281(9) 0.01292 336.7 4.3
343(10) 0.00913 336.6 4.2
346(10) 0.01035 336.5 4.1
343(10) 0.01089 336.5 4.0
337(10) 0.01077 336.4 3.9
340(10) 0.01014 336.4 3.9
354(11) 0.00894 336.3 3.8
317(10) 0.01081 336.3 3.7
311(9) 0.01176 336.2 3.7
336(10) 0.01057 336.1 3.6
316(10) 0.01072 336.1 3.6
311(10) 0.01054 336.0 3.5
325(10) 0.01068 336.0 3.4
351(10) 0.01035 335.9 3.4
332(10) 0.01093 335.8 3.3
328(10) 0.01048 335.8 3.3
328(10) 0.01054 335.7 3.3
350(10) 0.00997 335.7 3.2
329(9) 0.01124 335.6 3.2
346(10) 0.01018 335.6 3.1
334(10) 0.01049 335.5 3.1
347(10) 0.01003 335.4 3.0
337(10) 0.01059 335.4 3.0
355(10) 0.01056 335.3 3.0
342(10) 0.01056 335.3 2.9
357(10) 0.00962 335.2 2.9
296(9) 0.01190 335.2 2.9
333(10) 0.01037 335.1 2.8
358(10) 0.01037 335.0 2.8
323(10) 0.01106 335.0 2.8
310(9) 0.01118 334.9 2.7
326(10) 0.01056 334.9 2.7
328(9) 0.01137 334.8 2.7
347(10) 0.01054 334.8 2.7
350(10) 0.00970 334.7 2.6
345(10) 0.00953 334.6 2.6
355(10) 0.01000 334.6 2.6
340(10) 0.01088 334.5 2.6
324(9) 0.01142 334.5 2.5
339(10) 0.01010 334.4 2.5
314(10) 0.01041 334.3 2.5
352(10) 0.00945 334.3 2.5
342(10) 0.01061 334.2 2.5
338(10) 0.01100 334.2 2.4
331(10) 0.01030 334.1 2.4
298(10) 0.01080 334.1 2.4
317(10) 0.01101 334.0 2.4
331(10) 0.01105 333.9 2.4
344(10) 0.01068 333.9 2.4
315(9) 0.01113 333.8 2.3
345(11) 0.00891 333.8 2.3
341(10) 0.01020 333.7 2.3
352(10) 0.01056 333.7 2.3
346(10) 0.01071 333.6 2.3
336(10) 0.01045 333.5 2.3
317(10) 0.01053 333.5 2.3
301(9) 0.01197 333.4 2.3
338(10) 0.01099 333.4 2.2
356(10) 0.01040 333.3 2.2
335(10) 0.00990 333.2 2.2
315(10) 0.01013 333.2 2.2
314(10) 0.01072 333.1 2.2
319(9) 0.01173 333.1 2.2
345(10) 0.01023 333.0 2.2
325(10) 0.01053 333.0 2.2
326(10) 0.01020 332.9 2.2
339(10) 0.00992 332.8 2.2
334(10) 0.01108 332.8 2.2
337(10) 0.01055 332.7 2.2
321(10) 0.01058 332.7 2.2
311(9) 0.01122 332.6 2.2
321(10) 0.01105 332.6 2.1
335(9) 0.01119 332.5 2.1
339(10) 0.01011 332.4 2.1
333(10) 0.01055 332.4 2.1
332(10) 0.01059 332.3 2.1
311(9) 0.01172 332.3 2.1
325(9) 0.01151 332.2 2.1
328(10) 0.01050 332.1 2.1
313(10) 0.01076 332.1 2.1
304(9) 0.01144 332.0 2.1
318(10) 0.01108 332.0 2.1
317(9) 0.01172 331.9 2.1
333(10) 0.01038 331.9 2.1
345(10) 0.00944 331.8 2.1
305(9) 0.01173 331.7 2.1
314(9) 0.01142 331.7 2.1
331(9) 0.01131 331.6 2.1
319(10) 0.01106 331.6 2.1
339(10) 0.00980 331.5 2.1
336(10) 0.01044 331.5 2.1
327(9) 0.01143 331.4 2.1
350(10) 0.01059 331.3 2.1
329(10) 0.00998 331.3 2.1
324(10) 0.00970 331.4 2.1
317(10) 0.01074 331.4 2.1
326(10) 0.01086 331.5 2.1
348(10) 0.01075 331.5 2.1
356(10) 0.01020 331.6 2.1
367(11) 0.00874 331.6 2.2
314(9) 0.01112 331.6 2.2
330(9) 0.01114 331.7 2.2
309(9) 0.01191 331.7 2.2
353(10) 0.00950 331.8 2.2
330(10) 0.00979 331.8 2.2
324(10) 0.01057 331.9 2.2
325(9) 0.01147 331.9 2.2
361(10) 0.01013 332.0 2.2
326(10) 0.01059 332.0 2.2
355(11) 0.00902 332.0 2.3
340(10) 0.01001 332.1 2.3
316(9) 0.01182 332.1 2.3
345(10) 0.01025 332.2 2.3
297(9) 0.01219 332.2 2.3
325(10) 0.01040 332.3 2.3
332(10) 0.01043 332.3 2.3
333(9) 0.01121 332.4 2.4
316(9) 0.01146 332.4 2.4
317(10) 0.01088 332.4 2.4
343(10) 0.00989 332.5 2.4
331(10) 0.01052 332.5 2.4
304(9) 0.01212 332.6 2.4
322(10) 0.01073 332.6 2.4
331(10) 0.01022 332.7 2.4
351(10) 0.00940 332.7 2.5
318(10) 0.01102 332.8 2.5
359(10) 0.01029 332.8 2.5
347(10) 0.01034 332.8 2.5
331(10) 0.01019 332.9 2.5
332(10) 0.01032 332.9 2.5
332(10) 0.01040 333.0 2.6
330(9) 0.01117 333.0 2.6
333(10) 0.01058 333.1 2.6
306(10) 0.01108 333.1 2.6
333(10) 0.00967 333.2 2.7
317(9) 0.01130 333.2 2.7
320(9) 0.01171 333.2 2.7
328(10) 0.01038 333.3 2.7
307(10) 0.01071 333.3 2.7
306(9) 0.01144 333.4 2.8
324(9) 0.01132 333.4 2.8
319(9) 0.01151 333.5 2.8
323(10) 0.01078 333.5 2.9
322(10) 0.01016 333.6 2.9
331(10) 0.01045 333.6 2.9
323(9) 0.01123 333.6 3.0
339(10) 0.01074 333.7 3.0
329(10) 0.01064 333.7 3.0
311(10) 0.01064 333.8 3.1
329(10) 0.01059 333.8 3.1
355(10) 0.01055 333.9 3.1
321(9) 0.01156 333.9 3.2
318(9) 0.01126 333.9 3.2
344(10) 0.00944 334.0 3.3
347(10) 0.01015 334.0 3.3
347(10) 0.01076 334.1 3.4
348(10) 0.01061 334.1 3.5
334(10) 0.01041 334.2 3.5
338(10) 0.00945 334.2 3.6
335(10) 0.01034 334.3 3.7
334(9) 0.01123 334.3 3.7
341(10) 0.01065 334.3 3.8
334(10) 0.01088 334.4 3.9
348(10) 0.00959 334.4 4.0
346(10) 0.00997 334.5 4.1
328(9) 0.01136 334.5 4.2
336(10) 0.01092 334.6 4.4
323(10) 0.01064 334.6 4.5
346(10) 0.00958 334.7 4.7
328(10) 0.01077 334.7 4.8
330(9) 0.01127 334.7 5.0
335(10) 0.01077 334.8 5.2
338(10) 0.00998 334.8 5.4
330(10) 0.01001 334.9 5.6
338(10) 0.01001 334.9 5.9
340(10) 0.01096 335.0 6.1
336(10) 0.01042 335.0 6.3
314(9) 0.01108 335.1 6.6
337(10) 0.01001 335.1 6.9
364(10) 0.00991 335.1 7.1
332(9) 0.01116 335.2 7.3
324(10) 0.01047 335.2 7.6
341(10) 0.01001 335.3 7.7
329(10) 0.01054 335.3 7.9
344(10) 0.01024 335.4 8.0
332(9) 0.01119 335.4 8.0
344(10) 0.00992 335.5 8.0
346(10) 0.00953 335.5 8.0
324(10) 0.01063 335.5 7.9
327(9) 0.01120 335.6 7.8
335(9) 0.01116 335.6 7.7
313(10) 0.01100 335.7 7.6
333(10) 0.00948 335.7 7.5
328(10) 0.01028 335.8 7.5
325(9) 0.01126 335.8 7.4
368(10) 0.01004 335.9 7.3
366(10) 0.01004 335.9 7.3
356(11) 0.00906 335.9 7.3
357(10) 0.00939 336.0 7.3
346(10) 0.01065 336.0 7.3
328(9) 0.01129 336.1 7.3
349(10) 0.00998 336.1 7.4
343(10) 0.00919 336.2 7.4
355(10) 0.00978 336.2 7.5
338(10) 0.01085 336.3 7.6
352(10) 0.01041 336.3 7.8
353(10) 0.00950 336.3 7.9
336(10) 0.00959 336.4 8.1
346(10) 0.01007 336.4 8.2
345(10) 0.01083 336.5 8.4
337(9) 0.01112 336.5 8.7
338(10) 0.01037 336.6 8.9
353(10) 0.00949 336.6 9.1
342(10) 0.01025 336.7 9.4
315(9) 0.01177 336.7 9.7
343(10) 0.01050 336.7 10.0
348(10) 0.00959 336.8 10.4
347(10) 0.00972 336.8 10.8
370(10) 0.00925 336.9 11.2
349(10) 0.01073 336.9 11.7
366(10) 0.00980 337.0 12.2
324(9) 0.01114 337.0 12.7
363(10) 0.00932 337.1 13.3
348(10) 0.00987 337.1 13.9
370(10) 0.01002 337.1 14.6
358(10) 0.00974 337.2 15.4
347(10) 0.00998 337.2 16.2
341(10) 0.01021 337.3 17.1
373(10) 0.00952 337.3 18.1
349(10) 0.01056 337.4 19.3
353(10) 0.00997 337.4 20.6
358(10) 0.00957 337.5 22.0
343(10) 0.01034 337.5 23.6
377(10) 0.00932 337.5 25.5
348(10) 0.01074 337.6 27.6
365(10) 0.00955 337.6 30.0
394(11) 0.00868 337.7 32.8
392(11) 0.00893 337.7 36.1
403(10) 0.00908 337.8 39.9
382(10) 0.00977 337.8 44.6
412(11) 0.00835 337.9 50.2
419(11) 0.00771 337.9 57.3
445(11) 0.00775 337.9 66.6
458(11) 0.00789 338.0 79.4
475(11) 0.00784 338.0 98.5
517(12) 0.00691 338.1 127.6
548(13) 0.00606 338.1 172.9
626(13) 0.00549 338.2 241.5
703(14) 0.00526 338.2 340.5
814(15) 0.00456 338.3 474.4
1001(17) 0.003386 338.3 640.1
1110(19) 0.002884 338.3 824.2
1375(20) 0.002506 338.4 995.4
1516(20) 0.002409 338.4 1105.1
1610(21) 0.002296 338.5 1108.1
1492(21) 0.002287 338.5 1003.2
1186(19) 0.002744 338.6 834.1
942(17) 0.00364 338.6 650.6
744(14) 0.00504 338.7 484.3
619(13) 0.00575 338.7 349.5
582(13) 0.00582 338.7 249.6
533(13) 0.00621 338.8 180.3
453(11) 0.00771 338.8 134.9
443(11) 0.00824 338.9 105.9
448(11) 0.00826 338.9 87.2
414(11) 0.00864 339.0 74.9
447(12) 0.00721 339.0 66.3
408(11) 0.00825 339.1 60.1
397(10) 0.00935 339.1 55.3
375(10) 0.00983 339.1 51.6
377(11) 0.00901 339.2 48.7
385(11) 0.00885 339.2 46.5
374(10) 0.00944 339.3 44.9
367(10) 0.01012 339.3 43.7
364(10) 0.00983 339.4 42.9
385(11) 0.00891 339.4 42.5
411(11) 0.00842 339.5 42.4
388(10) 0.00927 339.5 42.7
369(10) 0.01008 339.5 43.3
386(11) 0.00903 339.6 44.2
380(11) 0.00897 339.6 45.4
384(10) 0.00924 339.7 47.0
372(10) 0.00978 339.7 48.9
388(10) 0.00970 339.8 51.2
376(10) 0.00916 339.8 54.0
404(11) 0.00813 339.9 57.3
368(10) 0.00973 339.9 61.3
407(11) 0.00890 339.9 66.0
403(10) 0.00930 340.0 71.7
416(11) 0.00837 340.0 78.6
449(12) 0.00741 340.1 87.0
441(11) 0.00812 340.1 97.4
460(11) 0.00783 340.2 110.2
458(11) 0.00813 340.2 126.1
474(12) 0.00754 340.3 145.8
491(12) 0.00676 340.3 169.9
508(12) 0.00706 340.3 199.4
543(12) 0.00665 340.4 234.6
568(12) 0.00658 340.4 276.3
612(13) 0.00570 340.5 324.8
716(15) 0.00450 340.5 379.5
771(15) 0.00448 340.6 439.5
904(16) 0.00405 340.6 502.3
963(16) 0.00385 340.6 563.9
969(17) 0.00364 340.7 618.1
987(17) 0.003358 340.7 657.3
1044(17) 0.003321 340.8 674.7
988(16) 0.00371 340.8 666.8
936(16) 0.00394 340.9 635.1
876(16) 0.00393 340.9 585.7
817(16) 0.00398 341.0 526.1
736(15) 0.00474 341.0 463.1
708(14) 0.00524 341.0 401.8
631(13) 0.00589 341.1 345.0
647(14) 0.00541 341.1 294.2
616(14) 0.00542 341.2 250.1
552(13) 0.00627 341.2 212.5
552(12) 0.00674 341.3 181.2
523(12) 0.00703 341.3 155.4
469(12) 0.00744 341.4 134.3
494(12) 0.00685 341.4 117.5
466(11) 0.00761 341.4 103.9
466(11) 0.00794 341.5 93.3
432(11) 0.00829 341.5 84.8
439(11) 0.00758 341.6 78.3
418(11) 0.00805 341.6 73.4
434(11) 0.00811 341.7 70.0
416(11) 0.00890 341.7 68.2
418(11) 0.00809 341.8 68.6
425(11) 0.00798 341.8 72.5
441(11) 0.00783 341.8 82.1
433(11) 0.00821 341.9 100.9
467(11) 0.00801 341.9 132.6
477(12) 0.00738 342.0 179.6
592(13) 0.00555 342.0 240.8
664(14) 0.00505 342.1 308.7
754(14) 0.00478 342.1 367.7
824(15) 0.00450 342.2 394.8
806(15) 0.00425 342.2 375.6
706(15) 0.00467 342.2 319.4
590(13) 0.00597 342.3 248.9
512(12) 0.00707 342.3 182.0
473(11) 0.00777 342.4 128.2
442(11) 0.00813 342.4 89.6
416(11) 0.00786 342.5 64.5
400(11) 0.00865 342.5 49.1
373(10) 0.00972 342.6 40.0
373(10) 0.00992 342.6 34.3
420(11) 0.00820 342.6 30.5
396(11) 0.00825 342.7 27.6
380(10) 0.00944 342.7 25.4
366(10) 0.01006 342.8 23.6
354(10) 0.01057 342.8 22.1
381(10) 0.00911 342.9 20.7
344(10) 0.00961 342.9 19.6
368(10) 0.00909 343.0 18.6
370(10) 0.01002 343.0 17.7
372(10) 0.00979 343.0 16.9
345(10) 0.01015 343.1 16.2
358(10) 0.00914 343.1 15.6
383(11) 0.00875 343.2 15.0
360(10) 0.01036 343.2 14.5
357(10) 0.01033 343.3 14.0
368(10) 0.00961 343.3 13.5
340(10) 0.00980 343.4 13.2
327(10) 0.01053 343.4 12.8
347(10) 0.01084 343.4 12.5
345(10) 0.01013 343.5 12.1
323(9) 0.01122 343.5 11.9
337(10) 0.00994 343.6 11.6
351(10) 0.00951 343.6 11.4
338(10) 0.01088 343.7 11.1
367(10) 0.00942 343.7 10.9
358(10) 0.00916 343.8 10.7
350(10) 0.00973 343.8 10.6
377(10) 0.00940 343.8 10.4
330(9) 0.01123 343.9 10.3
351(10) 0.01013 343.9 10.1
341(10) 0.01008 344.0 10.0
361(10) 0.00936 344.0 9.9
359(10) 0.00987 344.1 9.8
336(10) 0.01103 344.1 9.7
359(10) 0.00970 344.2 9.6
373(11) 0.00895 344.2 9.5
368(10) 0.00916 344.2 9.5
343(10) 0.01068 344.3 9.4
373(10) 0.00984 344.3 9.4
333(10) 0.01058 344.4 9.3
347(10) 0.00956 344.4 9.3
348(10) 0.00985 344.5 9.3
344(10) 0.01062 344.5 9.3
347(10) 0.01058 344.6 9.2
339(10) 0.01035 344.6 9.2
361(10) 0.00943 344.6 9.3
355(10) 0.01009 344.7 9.3
358(10) 0.01035 344.7 9.3
339(10) 0.01105 344.8 9.3
330(10) 0.01034 344.8 9.4
344(10) 0.00913 344.9 9.4
327(10) 0.01035 344.9 9.5
334(10) 0.01098 345.0 9.5
344(10) 0.01078 345.0 9.6
343(10) 0.01035 345.0 9.7
347(10) 0.00918 345.1 9.8
345(10) 0.01008 345.1 9.9
340(10) 0.01089 345.2 10.0
352(10) 0.01052 345.2 10.1
346(10) 0.00983 345.3 10.3
334(10) 0.00977 345.3 10.4
337(10) 0.01039 345.4 10.6
359(10) 0.01033 345.4 10.8
337(9) 0.01115 345.4 11.0
349(10) 0.01007 345.5 11.2
355(10) 0.00927 345.5 11.4
354(10) 0.00969 345.6 11.6
345(10) 0.01078 345.6 11.9
360(10) 0.01004 345.7 12.1
331(10) 0.01076 345.7 12.4
329(10) 0.01013 345.7 12.7
346(10) 0.00997 345.8 13.0
338(10) 0.01090 345.8 13.4
347(10) 0.01009 345.8 13.7
365(10) 0.00937 345.8 14.1
349(10) 0.00993 345.9 14.5
351(10) 0.00961 345.9 14.9
342(10) 0.01095 345.9 15.4
336(10) 0.01022 345.9 15.9
369(10) 0.00916 346.0 16.3
336(10) 0.01072 346.0 16.9
352(10) 0.01028 346.0 17.4
348(10) 0.01066 346.0 18.0
355(10) 0.01008 346.0 18.6
363(10) 0.00952 346.1 19.2
372(10) 0.00942 346.1 19.8
373(10) 0.00972 346.1 20.5
357(10) 0.01041 346.1 21.2
370(10) 0.00909 346.2 21.9
354(10) 0.00976 346.2 22.7
333(10) 0.01084 346.2 23.5
356(10) 0.01022 346.2 24.3
377(10) 0.00981 346.3 25.1
367(10) 0.00935 346.3 25.9
348(10) 0.00947 346.3 26.8
363(10) 0.00952 346.3 27.6
374(10) 0.00984 346.4 28.5
373(10) 0.01009 346.4 29.4
384(10) 0.00918 346.4 30.2
379(11) 0.00856 346.4 31.1
359(10) 0.00951 346.5 32.0
353(10) 0.01043 346.5 32.8
340(10) 0.01090 346.5 33.6
375(10) 0.00945 346.5 34.4
360(10) 0.00934 346.5 35.1
355(10) 0.00983 346.6 35.8
332(9) 0.01116 346.6 36.4
377(10) 0.00982 346.6 36.9
363(10) 0.00987 346.6 37.4
350(10) 0.00930 346.7 37.8
342(10) 0.01032 346.7 38.2
361(10) 0.01016 346.7 38.4
360(10) 0.01030 346.7 38.6
372(10) 0.00965 346.8 38.7
395(11) 0.00824 346.8 38.7
371(10) 0.00958 346.8 38.6
402(10) 0.00925 346.8 38.5
360(10) 0.01019 346.9 38.4
382(10) 0.00915 346.9 38.2
379(11) 0.00871 346.9 37.9
354(10) 0.00954 346.9 37.7
387(10) 0.00945 346.9 37.5
368(10) 0.00982 347.0 37.2
359(10) 0.00993 347.0 37.0
369(10) 0.00929 347.0 36.9
374(10) 0.00949 347.0 36.8
388(10) 0.00959 347.1 36.8
384(10) 0.00930 347.1 37.0
380(10) 0.00912 347.1 37.3
380(11) 0.00906 347.1 37.7
365(10) 0.00970 347.2 38.4
405(10) 0.00922 347.2 39.3
391(11) 0.00894 347.2 40.4
375(10) 0.00913 347.2 41.9
353(10) 0.01000 347.3 43.7
397(11) 0.00903 347.3 45.8
395(10) 0.00944 347.3 48.3
416(11) 0.00828 347.3 51.1
420(11) 0.00798 347.4 54.3
412(11) 0.00816 347.4 57.7
407(11) 0.00878 347.4 61.4
443(11) 0.00824 347.4 65.1
457(11) 0.00764 347.4 68.6
448(12) 0.00735 347.5 71.7
417(11) 0.00825 347.5 74.1
415(11) 0.00876 347.5 75.5
442(11) 0.00827 347.5 75.8
455(11) 0.00772 347.6 74.8
454(12) 0.00688 347.6 72.7
417(11) 0.00827 347.6 69.7
414(11) 0.00884 347.6 66.2
393(10) 0.00919 347.7 62.3
392(10) 0.00924 347.7 58.5
417(11) 0.00781 347.7 54.8
417(11) 0.00822 347.7 51.3
397(10) 0.00927 347.8 48.2
412(11) 0.00895 347.8 45.5
370(10) 0.00944 347.8 43.2
398(11) 0.00798 347.8 41.2
409(11) 0.00827 347.8 39.7
413(11) 0.00880 347.9 38.6
411(11) 0.00895 347.9 37.8
377(10) 0.00937 347.9 37.4
410(11) 0.00790 347.9 37.3
388(11) 0.00871 348.0 37.6
378(10) 0.00980 348.0 38.2
401(11) 0.00903 348.0 39.3
387(11) 0.00899 348.0 40.7
404(11) 0.00843 348.1 42.6
421(11) 0.00830 348.1 45.0
412(11) 0.00897 348.1 47.9
380(10) 0.00963 348.1 51.5
407(11) 0.00838 348.2 55.8
418(11) 0.00762 348.2 61.0
401(11) 0.00864 348.2 67.0
440(11) 0.00847 348.2 74.2
435(11) 0.00799 348.2 82.4
484(12) 0.00704 348.3 91.9
493(12) 0.00701 348.3 102.7
497(12) 0.00715 348.3 114.8
486(11) 0.00763 348.3 128.1
500(12) 0.00691 348.4 142.6
479(12) 0.00712 348.4 157.9
528(12) 0.00644 348.4 173.5
528(12) 0.00695 348.4 188.8
548(12) 0.00679 348.5 202.8
564(13) 0.00587 348.5 214.3
561(13) 0.00605 348.5 222.2
583(13) 0.00588 348.5 225.6
605(13) 0.00603 348.6 224.0
587(13) 0.00629 348.6 217.6
569(13) 0.00610 348.6 207.1
581(13) 0.00574 348.6 193.8
567(13) 0.00618 348.7 178.8
526(12) 0.00694 348.7 163.1
517(12) 0.00716 348.7 147.6
461(11) 0.00770 348.7 132.7
454(12) 0.00734 348.7 118.8
475(12) 0.00725 348.8 106.1
451(11) 0.00816 348.8 94.8
417(11) 0.00890 348.8 84.7
419(11) 0.00808 348.8 75.9
388(11) 0.00864 348.9 68.2
394(11) 0.00894 348.9 61.6
387(10) 0.00968 348.9 55.9
392(10) 0.00948 348.9 51.1
399(11) 0.00860 349.0 47.1
359(11) 0.00896 349.0 43.6
390(11) 0.00876 349.0 40.8
368(10) 0.01019 349.0 38.4
375(10) 0.00973 349.1 36.4
392(11) 0.00868 349.1 34.7
362(10) 0.00909 349.1 33.4
370(10) 0.00931 349.1 32.3
378(10) 0.00980 349.1 31.4
370(10) 0.01007 349.2 30.7
375(10) 0.00917 349.2 30.3
365(11) 0.00903 349.2 30.0
352(10) 0.00988 349.2 29.8
376(10) 0.00990 349.3 29.9
382(10) 0.00946 349.3 30.1
351(10) 0.00999 349.3 30.5
376(11) 0.00906 349.3 31.1
409(11) 0.00815 349.4 32.0
367(10) 0.00996 349.4 33.0
379(10) 0.00938 349.4 34.4
369(10) 0.00935 349.4 36.1
363(10) 0.00976 349.5 38.2
405(11) 0.00886 349.5 40.9
397(10) 0.00928 349.5 44.4
425(11) 0.00830 349.5 49.0
374(11) 0.00891 349.6 55.1
374(11) 0.00899 349.6 63.2
435(11) 0.00809 349.6 73.8
453(11) 0.00821 349.6 87.6
455(12) 0.00753 349.6 105.5
456(12) 0.00748 349.7 129.0
506(12) 0.00685 349.7 160.6
549(12) 0.00652 349.7 204.0
622(13) 0.00598 349.7 262.5
728(14) 0.00481 349.8 337.7
861(16) 0.00388 349.8 428.1
993(17) 0.003474 349.8 527.0
1165(18) 0.003087 349.8 621.2
1274(19) 0.002921 349.9 688.8
1352(20) 0.002478 349.9 707.6
1287(20) 0.002549 349.9 670.0
1123(18) 0.003121 349.9 590.1
938(16) 0.00394 350.0 491.2
826(15) 0.00451 350.0 392.4
725(14) 0.00483 350.0 304.6
652(14) 0.00505 350.0 232.1
589(13) 0.00604 350.0 176.0
562(12) 0.00654 350.1 134.5
539(12) 0.00685 350.1 104.9
523(12) 0.00669 350.1 84.3
484(12) 0.00670 350.1 69.8
413(11) 0.00864 350.2 59.6
431(11) 0.00862 350.2 52.1
445(11) 0.00829 350.2 46.4
441(11) 0.00791 350.2 41.9
406(11) 0.00797 350.3 38.2
420(11) 0.00833 350.3 35.2
401(10) 0.00926 350.3 32.6
404(11) 0.00906 350.3 30.5
391(10) 0.00912 350.4 28.6
411(11) 0.00780 350.4 27.0
407(11) 0.00839 350.4 25.7
379(10) 0.00985 350.4 24.5
364(10) 0.01019 350.4 23.5
380(11) 0.00861 350.5 22.6
365(10) 0.00924 350.5 21.8
365(10) 0.00974 350.5 21.2
370(10) 0.01015 350.5 20.7
398(10) 0.00917 350.6 20.2
391(11) 0.00902 350.6 19.9
397(11) 0.00847 350.6 19.6
415(11) 0.00835 350.6 19.3
370(10) 0.01005 350.7 19.2
384(10) 0.00928 350.7 19.1
372(10) 0.00940 350.7 19.1
383(11) 0.00867 350.7 19.1
367(10) 0.00963 350.8 19.3
360(10) 0.01034 350.8 19.4
372(10) 0.00944 350.8 19.7
403(11) 0.00851 350.8 20.0
385(10) 0.00921 350.9 20.4
405(11) 0.00860 350.9 20.9
392(10) 0.00943 350.9 21.4
395(11) 0.00860 350.9 22.1
359(10) 0.00930 350.9 22.9
411(11) 0.00827 351.0 23.8
397(10) 0.00939 351.0 24.8
377(10) 0.00995 351.0 26.0
392(11) 0.00858 351.0 27.4
386(11) 0.00874 351.1 29.0
406(11) 0.00868 351.1 30.9
400(11) 0.00904 351.1 33.1
399(10) 0.00936 351.1 35.7
407(11) 0.00874 351.2 38.8
415(11) 0.00803 351.2 42.7
416(11) 0.00845 351.2 47.6
407(10) 0.00908 351.2 53.9
413(11) 0.00905 351.3 62.0
463(12) 0.00746 351.3 72.5
458(12) 0.00706 351.3 86.3
508(12) 0.00682 351.3 104.1
482(11) 0.00764 351.3 126.6
549(12) 0.00676 351.4 154.5
579(13) 0.00607 351.4 188.1
616(14) 0.00537 351.4 227.0
638(14) 0.00540 351.4 270.3
703(14) 0.00527 351.5 315.0
798(15) 0.00458 351.5 356.5
869(16) 0.00406 351.5 387.7
922(17) 0.00360 351.5 401.9
849(16) 0.00408 351.6 395.0
816(15) 0.00456 351.6 369.1
790(15) 0.00457 351.6 330.5
666(14) 0.00531 351.6 286.5
598(13) 0.00553 351.7 242.7
542(13) 0.00613 351.7 202.2
503(12) 0.00743 351.7 167.0
456(11) 0.00777 351.7 137.4
453(12) 0.00755 351.8 113.4
429(11) 0.00789 351.8 94.4
418(11) 0.00844 351.8 79.6
408(10) 0.00909 351.8 68.4
416(11) 0.00877 351.8 59.9
393(11) 0.00893 351.9 53.5
382(10) 0.00917 351.9 48.7
402(11) 0.00853 351.9 45.0
392(10) 0.00954 351.9 42.1
396(11) 0.00870 352.0 39.9
402(11) 0.00848 352.0 38.3
416(11) 0.00820 352.0 37.0
401(11) 0.00851 352.0 36.1
357(10) 0.01038 352.1 35.6
382(11) 0.00899 352.1 35.3
378(11) 0.00888 352.1 35.3
358(10) 0.00992 352.1 35.6
368(10) 0.00997 352.2 36.3
405(10) 0.00921 352.2 37.2
366(10) 0.00947 352.2 38.6
390(11) 0.00854 352.2 40.3
420(11) 0.00837 352.2 42.6
419(11) 0.00880 352.3 45.6
393(10) 0.00944 352.3 49.5
417(11) 0.00857 352.3 54.8
433(12) 0.00745 352.3 62.0
426(11) 0.00827 352.4 72.0
424(11) 0.00866 352.4 86.3
435(11) 0.00858 352.4 106.4
463(12) 0.00753 352.4 134.3
511(13) 0.00623 352.5 171.6
560(13) 0.00608 352.5 219.6
601(13) 0.00621 352.5 278.2
692(14) 0.00535 352.5 345.1
822(15) 0.00425 352.6 414.3
886(17) 0.00361 352.6 474.4
873(16) 0.00394 352.6 509.9
865(15) 0.00431 352.6 508.3
800(15) 0.00456 352.6 470.3
692(14) 0.00500 352.7 408.7
649(14) 0.00507 352.7 339.1
586(13) 0.00597 352.7 272.4
541(12) 0.00692 352.7 214.1
507(12) 0.00715 352.8 166.5
466(12) 0.00735 352.8 129.6
487(12) 0.00667 352.8 102.0
478(12) 0.00728 352.8 82.0
427(11) 0.00866 352.9 67.6
407(11) 0.00887 352.9 57.4
411(11) 0.00826 352.9 50.0
405(11) 0.00845 352.9 44.4
422(11) 0.00848 353.0 40.1
393(10) 0.00944 353.0 36.6
383(10) 0.00947 353.0 33.8
377(11) 0.00892 353.0 31.5
407(11) 0.00799 353.1 29.5
397(11) 0.00884 353.1 27.9
396(10) 0.00946 353.1 26.5
399(11) 0.00901 353.1 25.3
375(10) 0.00927 353.1 24.3
388(11) 0.00894 353.2 23.4
370(10) 0.00990 353.2 22.8
384(10) 0.00973 353.2 22.2
386(10) 0.00911 353.2 21.9
393(11) 0.00843 353.3 21.7
383(10) 0.00917 353.3 21.6
401(11) 0.00881 353.3 21.9
352(10) 0.01042 353.3 22.5
405(11) 0.00838 353.4 23.8
384(11) 0.00866 353.4 26.3
380(10) 0.00918 353.4 30.4
390(10) 0.00926 353.4 36.8
395(10) 0.00948 353.5 45.8
384(10) 0.00920 353.5 57.5
416(11) 0.00777 353.5 70.6
431(11) 0.00813 353.5 82.8
492(12) 0.00749 353.5 90.2
471(11) 0.00799 353.6 89.4
426(11) 0.00822 353.6 80.8
417(11) 0.00779 353.6 68.1
403(11) 0.00870 353.6 54.9
374(10) 0.00983 353.7 43.4
409(11) 0.00898 353.7 34.5
397(11) 0.00867 353.7 28.3
360(10) 0.00924 353.7 24.2
386(10) 0.00919 353.8 21.7
385(10) 0.00968 353.8 20.2
376(10) 0.00980 353.8 19.3
365(10) 0.00918 353.8 18.7
358(11) 0.00893 353.9 18.3
368(11) 0.00905 353.9 18.1
366(10) 0.01016 353.9 17.9
338(10) 0.01100 353.9 17.8
389(11) 0.00901 354.0 17.8
378(11) 0.00884 354.0 17.8
377(10) 0.00930 354.0 17.8
347(10) 0.01077 354.0 17.9
368(10) 0.00966 354.0 18.0
378(11) 0.00902 354.1 18.2
341(10) 0.00998 354.1 18.3
360(10) 0.00972 354.1 18.5
389(10) 0.00951 354.1 18.8
380(11) 0.00906 354.2 19.0
374(10) 0.00935 354.2 19.3
377(11) 0.00893 354.2 19.6
383(11) 0.00872 354.2 19.9
358(10) 0.01053 354.3 20.3
381(10) 0.00927 354.3 20.7
376(11) 0.00907 354.3 21.1
376(11) 0.00890 354.3 21.5
392(10) 0.00925 354.4 22.0
396(10) 0.00944 354.4 22.5
350(10) 0.00988 354.4 23.0
360(10) 0.00946 354.3 23.5
389(11) 0.00863 354.3 24.1
363(10) 0.00958 354.3 24.7
365(10) 0.01024 354.3 25.4
377(11) 0.00895 354.2 26.1
357(10) 0.00968 354.2 26.8
376(10) 0.00943 354.2 27.6
343(10) 0.01064 354.1 28.4
372(10) 0.00986 354.1 29.3
368(10) 0.00931 354.1 30.2
351(10) 0.00954 354.1 31.2
361(10) 0.00969 354.0 32.2
381(10) 0.00941 354.0 33.3
357(10) 0.01054 354.0 34.5
374(10) 0.00916 354.0 35.8
377(11) 0.00851 353.9 37.1
399(11) 0.00877 353.9 38.5
398(10) 0.00930 353.9 40.0
402(10) 0.00928 353.9 41.6
392(11) 0.00883 353.8 43.4
383(11) 0.00818 353.8 45.2
372(10) 0.00932 353.8 47.2
366(10) 0.00994 353.8 49.4
371(10) 0.00992 353.7 51.7
385(11) 0.00895 353.7 54.2
416(11) 0.00779 353.7 57.0
381(10) 0.00941 353.6 59.9
377(10) 0.00980 353.6 63.2
409(11) 0.00861 353.6 66.7
436(11) 0.00805 353.6 70.7
393(11) 0.00841 353.5 75.0
422(11) 0.00800 353.5 79.8
440(11) 0.00852 353.5 85.1
451(11) 0.00808 353.5 91.0
442(11) 0.00783 353.4 97.7
443(11) 0.00764 353.4 105.2
434(11) 0.00794 353.4 113.5
444(11) 0.00838 353.4 122.9
467(11) 0.00776 353.3 133.5
470(12) 0.00733 353.3 145.3
487(12) 0.00706 353.3 158.6
503(12) 0.00705 353.3 173.5
503(12) 0.00743 353.2 190.0
514(12) 0.00700 353.2 208.4
553(13) 0.00608 353.2 228.8
594(13) 0.00564 353.1 251.3
635(13) 0.00558 353.1 276.0
643(13) 0.00580 353.1 302.8
662(14) 0.00520 353.1 331.9
677(14) 0.00503 353.0 363.0
743(15) 0.00468 353.0 395.9
801(15) 0.00445 353.0 430.4
771(14) 0.00485 353.0 465.7
896(16) 0.00383 352.9 501.1
943(17) 0.00361 352.9 535.6
964(17) 0.00356 352.9 567.8
975(16) 0.00372 352.9 596.2
995(16) 0.00374 352.8 619.2
972(17) 0.00353 352.8 635.3
969(17) 0.003375 352.8 643.4
949(17) 0.00363 352.8 642.9
960(16) 0.00382 352.7 633.8
902(16) 0.00411 352.7 616.8
897(16) 0.00388 352.7 593.2
875(16) 0.00380 352.7 564.4
793(15) 0.00449 352.6 532.1
775(15) 0.00471 352.6 497.7
763(14) 0.00487 352.6 462.6
739(14) 0.00476 352.5 427.7
730(15) 0.00448 352.5 393.8
685(14) 0.00517 352.5 361.4
628(13) 0.00586 352.5 331.0
659(13) 0.00552 352.4 302.7
601(13) 0.00585 352.4 276.6
606(14) 0.00541 352.4 252.6
566(13) 0.00619 352.4 230.9
558(12) 0.00666 352.3 211.2
554(12) 0.00664 352.3 193.6
540(12) 0.00660 352.3 177.8
588(14) 0.00538 352.3 163.7
518(12) 0.00668 352.2 151.2
510(12) 0.00740 352.2 140.1
494(12) 0.00736 352.2 130.3
505(12) 0.00665 352.2 121.7
482(12) 0.00682 352.1 114.1
467(12) 0.00754 352.1 107.5
450(11) 0.00822 352.1 101.6
437(11) 0.00828 352.0 96.6
476(12) 0.00733 352.0 92.1
438(11) 0.00781 352.0 88.2
442(11) 0.00795 352.0 84.9
463(11) 0.00805 351.9 82.0
435(11) 0.00810 351.9 79.5
446(11) 0.00771 351.9 77.4
440(11) 0.00768 351.9 75.7
451(11) 0.00792 351.8 74.2
439(11) 0.00846 351.8 73.2
472(12) 0.00755 351.8 72.4
454(12) 0.00743 351.8 72.0
435(11) 0.00781 351.7 71.9
431(11) 0.00830 351.7 72.2
450(11) 0.00823 351.7 73.0
430(11) 0.00812 351.7 74.3
451(12) 0.00743 351.6 76.2
473(12) 0.00719 351.6 78.7
449(11) 0.00792 351.6 81.9
469(11) 0.00797 351.5 85.9
478(12) 0.00731 351.5 90.6
488(12) 0.00684 351.5 96.0
477(12) 0.00714 351.5 102.1
473(11) 0.00757 351.4 108.3
489(12) 0.00753 351.4 114.4
479(12) 0.00716 351.4 119.6
468(12) 0.00702 351.4 123.2
483(12) 0.00734 351.3 124.9
477(11) 0.00760 351.3 124.5
517(12) 0.00724 351.3 122.8
491(12) 0.00699 351.3 120.6
436(12) 0.00751 351.2 118.6
461(11) 0.00760 351.2 117.3
456(11) 0.00814 351.2 117.1
461(11) 0.00795 351.2 118.2
436(11) 0.00788 351.1 120.6
450(12) 0.00708 351.1 124.4
468(12) 0.00747 351.1 129.3
484(11) 0.00767 351.0 135.0
491(12) 0.00753 351.0 141.2
512(12) 0.00681 351.0 147.1
520(13) 0.00637 351.0 152.1
544(12) 0.00646 350.9 155.5
493(12) 0.00754 350.9 156.5
476(12) 0.00748 350.9 154.8
489(12) 0.00689 350.9 150.4
434(11) 0.00782 350.8 143.9
486(12) 0.00703 350.8 135.9
447(11) 0.00835 350.8 127.0
439(11) 0.00835 350.8 118.0
452(11) 0.00762 350.7 109.1
456(12) 0.00735 350.7 100.6
464(11) 0.00772 350.7 92.8
438(11) 0.00846 350.7 85.7
440(11) 0.00823 350.6 79.3
432(11) 0.00817 350.6 73.5
420(11) 0.00829 350.6 68.3
447(11) 0.00786 350.5 63.7
424(11) 0.00877 350.5 59.6
397(10) 0.00911 350.5 55.9
424(11) 0.00803 350.5 52.6
417(11) 0.00808 350.4 49.6
384(10) 0.00937 350.4 46.9
397(10) 0.00939 350.4 44.4
414(11) 0.00834 350.4 42.1
387(11) 0.00894 350.3 39.9
404(11) 0.00816 350.3 38.0
393(11) 0.00890 350.3 36.1
385(10) 0.00963 350.3 34.4
368(10) 0.00956 350.2 32.8
400(11) 0.00828 350.2 31.3
403(11) 0.00851 350.2 29.9
371(10) 0.00965 350.2 28.6
377(10) 0.00978 350.1 27.4
409(11) 0.00823 350.1 26.2
406(11) 0.00833 350.1 25.2
387(10) 0.00909 350.1 24.1
368(10) 0.01006 350.0 23.2
370(10) 0.01000 350.0 22.3
372(10) 0.00927 350.0 21.5
384(11) 0.00832 349.9 20.7
383(10) 0.00921 349.9 20.0
379(10) 0.00980 349.9 19.3
378(10) 0.00964 349.9 18.7
389(10) 0.00931 349.8 18.1
384(11) 0.00846 349.8 17.5
366(10) 0.00961 349.8 17.0
348(10) 0.01051 349.8 16.5
345(10) 0.01069 349.7 16.1
385(11) 0.00885 349.7 15.6
361(10) 0.00942 349.7 15.2
359(10) 0.00961 349.7 14.9
382(10) 0.00962 349.6 14.5
374(10) 0.00959 349.6 14.2
368(10) 0.00946 349.6 13.9
338(10) 0.00991 349.6 13.6
367(10) 0.00919 349.5 13.3
358(10) 0.01038 349.5 13.0
366(10) 0.00995 349.5 12.8
347(10) 0.01029 349.4 12.6
369(11) 0.00883 349.4 12.3
354(10) 0.00995 349.4 12.1
377(10) 0.00985 349.4 11.9
387(10) 0.00923 349.3 11.8
355(10) 0.00940 349.3 11.6
342(10) 0.00975 349.3 11.4
344(10) 0.01036 349.3 11.3
353(10) 0.01050 349.2 11.1
363(10) 0.00969 349.2 11.0
346(10) 0.00974 349.2 10.9
373(11) 0.00891 349.2 10.8
357(10) 0.00963 349.1 10.7
342(10) 0.01093 349.1 10.6
329(10) 0.01083 349.1 10.5
349(10) 0.00979 349.1 10.4
368(10) 0.00916 349.0 10.3
355(10) 0.01016 349.0 10.3
343(10) 0.01086 349.0 10.2
348(10) 0.00969 348.9 10.2
375(11) 0.00860 348.9 10.1
341(10) 0.01021 348.9 10.1
327(9) 0.01132 348.9 10.1
332(9) 0.01109 348.8 10.1
360(10) 0.00962 348.8 10.1
373(11) 0.00886 348.8 10.1
376(10) 0.00931 348.8 10.1
373(10) 0.00980 348.7 10.1
366(10) 0.01023 348.7 10.1
361(10) 0.00990 348.7 10.2
376(11) 0.00839 348.7 10.2
371(10) 0.00912 348.6 10.3
350(10) 0.01048 348.6 10.4
358(10) 0.01060 348.6 10.4
390(11) 0.00897 348.6 10.5
366(11) 0.00852 348.5 10.7
368(10) 0.00951 348.5 10.8
392(10) 0.00937 348.5 10.9
382(10) 0.00977 348.4 11.1
391(11) 0.00895 348.4 11.3
414(11) 0.00762 348.4 11.5
381(11) 0.00901 348.4 11.7
354(10) 0.01049 348.3 12.0
346(10) 0.01082 348.3 12.2
375(11) 0.00879 348.3 12.6
385(11) 0.00853 348.3 12.9
360(10) 0.00996 348.2 13.3
358(10) 0.01041 348.2 13.7
368(10) 0.00975 348.2 14.2
375(10) 0.00921 348.2 14.8
383(11) 0.00870 348.1 15.4
364(10) 0.00958 348.1 16.1
399(10) 0.00936 348.1 17.0
384(10) 0.00935 348.1 17.9
363(10) 0.00946 348.0 18.9
362(10) 0.00931 348.0 20.1
377(11) 0.00889 348.0 21.5
406(11) 0.00906 347.9 23.0
383(10) 0.00919 347.9 24.7
383(11) 0.00907 347.9 26.7
399(11) 0.00847 347.9 28.9
408(11) 0.00853 347.8 31.4
398(10) 0.00935 347.8 34.1
403(11) 0.00906 347.8 37.2
406(11) 0.00838 347.8 40.6
412(11) 0.00854 347.7 44.2
409(11) 0.00890 347.7 48.2
418(11) 0.00884 347.7 52.5
427(11) 0.00792 347.7 57.0
413(11) 0.00837 347.6 61.6
400(11) 0.00875 347.6 66.3
441(11) 0.00809 347.6 71.0
445(11) 0.00833 347.6 75.3
478(12) 0.00687 347.5 79.2
454(12) 0.00715 347.5 82.3
445(11) 0.00793 347.5 84.6
464(11) 0.00793 347.4 85.6
513(12) 0.00718 347.4 85.5
447(11) 0.00804 347.4 84.2
477(12) 0.00664 347.4 81.8
463(12) 0.00741 347.3 78.5
427(11) 0.00851 347.3 74.5
434(11) 0.00872 347.3 70.1
425(11) 0.00808 347.3 65.5
427(12) 0.00742 347.2 60.8
418(11) 0.00835 347.2 56.2
419(11) 0.00878 347.2 51.8
414(10) 0.00909 347.2 47.6
377(10) 0.00952 347.1 43.7
402(11) 0.00790 347.1 40.1
378(10) 0.00939 347.1 36.8
389(10) 0.00954 347.1 33.8
364(10) 0.01025 347.0 31.2
370(10) 0.00910 347.0 28.8
385(11) 0.00839 347.0 26.6
392(11) 0.00886 347.0 24.8
370(10) 0.00995 346.9 23.1
354(10) 0.01029 346.9 21.6
372(10) 0.00941 346.9 20.4
359(10) 0.00939 346.8 19.3
346(10) 0.00990 346.8 18.3
369(10) 0.01004 346.8 17.4
368(10) 0.00979 346.8 16.7
340(10) 0.01017 346.7 16.1
389(11) 0.00825 346.7 15.5
369(10) 0.00944 346.7 15.1
385(10) 0.00944 346.7 14.7
382(10) 0.00945 346.6 14.3
333(10) 0.01041 346.6 14.0
347(10) 0.00979 346.6 13.8
365(10) 0.00963 346.6 13.6
331(9) 0.01121 346.5 13.5
349(10) 0.00987 346.5 13.4
354(10) 0.00973 346.5 13.3
373(11) 0.00907 346.5 13.3
364(10) 0.00958 346.4 13.3
353(10) 0.01062 346.4 13.3
363(10) 0.00971 346.4 13.4
343(10) 0.00969 346.3 13.5
336(10) 0.01003 346.3 13.7
349(10) 0.01025 346.3 13.9
354(10) 0.01054 346.3 14.2
375(10) 0.00928 346.2 14.5
352(10) 0.00980 346.2 14.9
377(10) 0.00927 346.2 15.3
367(10) 0.01011 346.2 15.8
360(10) 0.01043 346.1 16.4
347(10) 0.00961 346.1 17.1
369(11) 0.00851 346.1 17.8
359(10) 0.00957 346.1 18.7
363(10) 0.01004 346.0 19.6
355(10) 0.01061 346.0 20.7
349(10) 0.01008 346.0 21.8
362(11) 0.00904 346.0 23.1
377(10) 0.00917 345.9 24.5
366(10) 0.01006 345.9 26.1
374(10) 0.00987 345.9 27.8
386(11) 0.00886 345.8 29.6
360(11) 0.00906 345.8 31.5
384(11) 0.00906 345.8 33.6
391(10) 0.00948 345.8 35.8
363(10) 0.01025 345.7 38.1
354(10) 0.01012 345.7 40.4
392(11) 0.00847 345.7 42.8
389(11) 0.00858 345.7 45.1
371(10) 0.00991 345.6 47.4
405(10) 0.00915 345.6 49.4
396(11) 0.00891 345.6 51.3
405(11) 0.00816 345.6 52.9
415(11) 0.00814 345.5 54.2
415(11) 0.00889 345.5 55.1
387(10) 0.00927 345.5 55.7
415(11) 0.00838 345.5 56.0
389(11) 0.00884 345.4 56.1
395(11) 0.00833 345.4 56.2
416(11) 0.00887 345.4 56.3
419(11) 0.00857 345.3 56.6
426(11) 0.00807 345.3 57.3
405(11) 0.00864 345.3 58.5
423(11) 0.00819 345.3 60.5
396(10) 0.00937 345.2 63.3
392(10) 0.00913 345.2 67.1
412(11) 0.00826 345.2 72.0
408(11) 0.00839 345.2 78.0
431(11) 0.00821 345.1 85.3
449(11) 0.00833 345.1 93.7
415(11) 0.00824 345.1 103.0
418(11) 0.00832 345.1 112.8
481(12) 0.00703 345.0 122.4
461(11) 0.00772 345.0 130.6
468(11) 0.00783 345.0 136.4
460(12) 0.00744 345.0 138.7
431(11) 0.00795 344.9 136.8
466(12) 0.00700 344.9 130.9
451(11) 0.00792 344.9 122.1
418(11) 0.00877 344.8 111.4
431(11) 0.00788 344.8 100.0
427(11) 0.00769 344.8 88.7
394(11) 0.00903 344.8 78.1
440(11) 0.00822 344.7 68.5
392(10) 0.00945 344.7 60.0
400(11) 0.00876 344.7 52.6
386(11) 0.00835 344.7 46.4
367(10) 0.00955 344.6 41.1
371(10) 0.00980 344.6 36.8
400(10) 0.00922 344.6 33.3
385(11) 0.00884 344.6 30.5
392(11) 0.00807 344.5 28.3
343(10) 0.01025 344.5 26.7
381(10) 0.00970 344.5 25.5
386(10) 0.00949 344.5 24.8
375(10) 0.00926 344.4 24.6
374(11) 0.00882 344.4 25.1
378(10) 0.00928 344.4 26.6
414(11) 0.00898 344.4 29.6
387(10) 0.00951 344.3 35.1
431(11) 0.00789 344.3 44.1
460(12) 0.00718 344.3 57.8
473(12) 0.00729 344.2 76.6
493(12) 0.00756 344.2 100.0
533(12) 0.00659 344.2 125.3
561(13) 0.00613 344.2 147.1
628(14) 0.00518 344.1 157.9
626(14) 0.00547 344.1 152.3
554(12) 0.00671 344.1 133.0
502(12) 0.00707 344.1 107.5
444(11) 0.00761 344.0 82.2
437(11) 0.00775 344.0 60.6
420(11) 0.00828 344.0 44.2
394(10) 0.00946 344.0 32.6
380(10) 0.00940 343.9 24.9
385(11) 0.00887 343.9 20.0
375(11) 0.00901 343.9 16.9
362(10) 0.00975 343.9 14.9
386(10) 0.00969 343.8 13.4
360(10) 0.01003 343.8 12.3
368(10) 0.00932 343.8 11.4
379(10) 0.00937 343.7 10.6
381(10) 0.00929 343.7 10.0
345(10) 0.01083 343.7 9.5
364(10) 0.00936 343.7 9.0
364(10) 0.00929 343.6 8.6
356(10) 0.00998 343.6 8.3
335(10) 0.01100 343.6 7.9
349(10) 0.01081 343.6 7.7
331(10) 0.01081 343.5 7.4
361(10) 0.00915 343.5 7.2
348(10) 0.00990 343.5 7.0
340(10) 0.01061 343.5 6.8
351(10) 0.01060 343.4 6.6
366(10) 0.00930 343.4 6.5
334(10) 0.00985 343.4 6.3
320(10) 0.01060 343.4 6.2
355(10) 0.01042 343.3 6.1
331(10) 0.01098 343.3 6.0
360(10) 0.00940 343.3 5.9
334(10) 0.01002 343.2 5.8
354(10) 0.00992 343.2 5.7
356(10) 0.01064 343.2 5.6
354(10) 0.01016 343.2 5.5
344(10) 0.00978 343.1 5.5
359(11) 0.00870 343.1 5.4
341(10) 0.01009 343.1 5.3
352(10) 0.01025 343.1 5.3
362(10) 0.01016 343.0 5.2
322(9) 0.01116 343.0 5.2
360(11) 0.00888 343.0 5.2
350(10) 0.00979 343.0 5.1
347(10) 0.01061 342.9 5.1
354(10) 0.01043 342.9 5.1
356(10) 0.00945 342.9 5.0
345(10) 0.00938 342.9 5.0
338(10) 0.00997 342.8 5.0
353(10) 0.01060 342.8 5.0
349(10) 0.01033 342.8 5.0
323(10) 0.01103 342.7 4.9
343(10) 0.00992 342.7 4.9
345(10) 0.01039 342.6 4.9
373(10) 0.00996 342.6 4.9
352(10) 0.01020 342.6 4.9
338(10) 0.01027 342.5 4.9
342(10) 0.01005 342.5 4.9
368(10) 0.00947 342.5 4.9
333(9) 0.01122 342.4 5.0
370(10) 0.00938 342.4 5.0
374(11) 0.00881 342.4 5.0
350(10) 0.00959 342.3 5.0
356(10) 0.00986 342.3 5.0
332(9) 0.01115 342.3 5.1
339(10) 0.01023 342.2 5.1
354(10) 0.00917 342.2 5.1
329(10) 0.01050 342.2 5.2
366(10) 0.00980 342.1 5.2
370(10) 0.00988 342.1 5.2
347(10) 0.01048 342.1 5.3
343(10) 0.00981 342.0 5.3
331(10) 0.01043 342.0 5.4
326(9) 0.01120 341.9 5.5
338(10) 0.01103 341.9 5.5
354(10) 0.00989 341.9 5.6
372(11) 0.00878 341.8 5.7
330(10) 0.01079 341.8 5.8
347(10) 0.01064 341.8 5.9
371(10) 0.00995 341.7 6.0
341(10) 0.01012 341.7 6.1
376(11) 0.00824 341.7 6.3
323(9) 0.01120 341.6 6.4
366(10) 0.00999 341.6 6.6
336(10) 0.01100 341.6 6.8
343(10) 0.01030 341.5 7.0
350(10) 0.00930 341.5 7.2
354(10) 0.00973 341.5 7.5
341(10) 0.01096 341.4 7.8
341(10) 0.01073 341.4 8.2
358(10) 0.00954 341.4 8.6
355(10) 0.00933 341.3 9.0
336(10) 0.01086 341.3 9.6
357(10) 0.01046 341.3 10.3
353(10) 0.01018 341.2 11.2
356(10) 0.00993 341.2 12.4
394(11) 0.00815 341.1 14.1
416(11) 0.00804 341.1 16.3
378(10) 0.00981 341.1 19.4
401(11) 0.00888 341.0 23.6
398(11) 0.00873 341.0 29.1
396(11) 0.00840 341.0 36.1
393(11) 0.00890 340.9 44.6
443(11) 0.00843 340.9 54.2
478(12) 0.00751 340.9 64.1
508(12) 0.00679 340.8 72.7
509(12) 0.00667 340.8 77.9
537(12) 0.00642 340.8 78.0
537(12) 0.00697 340.7 72.9
475(12) 0.00725 340.7 64.5
444(12) 0.00747 340.7 54.8
417(11) 0.00844 340.6 45.4
410(11) 0.00883 340.6 37.1
410(10) 0.00914 340.6 30.3
369(10) 0.00955 340.5 25.0
366(10) 0.00946 340.5 21.0
390(11) 0.00880 340.4 18.1
374(10) 0.00967 340.4 16.1
349(10) 0.01058 340.4 14.7
355(10) 0.00979 340.3 13.7
372(11) 0.00871 340.3 13.0
351(10) 0.00995 340.3 12.5
377(10) 0.00978 340.2 12.2
374(10) 0.00979 340.2 11.9
354(10) 0.00982 340.2 11.8
338(10) 0.01010 340.1 11.7
344(10) 0.01029 340.1 11.6
378(10) 0.00964 340.1 11.6
382(10) 0.00977 340.0 11.7
362(10) 0.00933 340.0 11.8
349(10) 0.00928 340.0 11.9
338(10) 0.01045 339.9 12.0
365(10) 0.01006 339.9 12.2
353(10) 0.01057 339.9 12.4
369(10) 0.00981 339.8 12.6
364(11) 0.00896 339.8 12.9
366(10) 0.00951 339.8 13.2
347(10) 0.01069 339.7 13.5
348(10) 0.01064 339.7 13.9
339(10) 0.01006 339.6 14.3
312(10) 0.01083 339.6 14.7
379(11) 0.00874 339.6 15.1
342(10) 0.01099 339.5 15.6
353(10) 0.01034 339.5 16.1
366(10) 0.00910 339.5 16.7
342(10) 0.00961 339.4 17.3
356(10) 0.00956 339.4 18.0
354(10) 0.01059 339.4 18.7
357(10) 0.00999 339.3 19.4
351(10) 0.01009 339.3 20.2
359(10) 0.00945 339.3 21.1
351(10) 0.00957 339.2 22.1
365(10) 0.01006 339.2 23.1
365(10) 0.00975 339.2 24.2
332(10) 0.01055 339.1 25.5
342(10) 0.00980 339.1 26.8
381(10) 0.00909 339.1 28.2
387(10) 0.00959 339.0 29.8
388(11) 0.00906 339.0 31.5
366(10) 0.00925 338.9 33.3
378(10) 0.00921 338.9 35.4
374(10) 0.00970 338.9 37.6
408(10) 0.00910 338.8 40.0
361(10) 0.01012 338.8 42.6
385(11) 0.00874 338.8 45.4
391(11) 0.00888 338.7 48.4
395(10) 0.00919 338.7 51.7
388(10) 0.00961 338.7 55.2
400(11) 0.00866 338.6 59.0
415(11) 0.00782 338.6 63.0
402(11) 0.00876 338.6 67.2
391(10) 0.00936 338.5 71.7
459(11) 0.00805 338.5 76.3
413(11) 0.00862 338.5 81.2
438(11) 0.00761 338.4 86.4
421(11) 0.00852 338.4 92.2
446(11) 0.00817 338.4 98.7
438(11) 0.00861 338.3 106.3
475(12) 0.00723 338.3 115.5
467(12) 0.00705 338.3 126.8
483(12) 0.00717 338.2 140.8
514(12) 0.00713 338.2 158.1
525(12) 0.00707 338.1 179.3
538(12) 0.00646 338.1 204.9
607(14) 0.00521 338.1 235.3
638(14) 0.00539 338.0 270.4
677(14) 0.00541 338.0 309.8
729(14) 0.00508 338.0 351.8
801(15) 0.00441 337.9 394.1
865(16) 0.00371 337.9 432.4
902(16) 0.00384 337.9 461.0
918(16) 0.00403 337.8 475.0
882(16) 0.00411 337.8 471.2
851(16) 0.00402 337.8 450.9
793(16) 0.00413 337.7 418.5
743(15) 0.00466 337.7 379.5
692(14) 0.00537 337.7 338.9
715(14) 0.00507 337.6 300.0
652(14) 0.00527 337.6 264.8
638(14) 0.00514 337.6 233.9
581(13) 0.00594 337.5 207.8
603(13) 0.00618 337.5 186.1
566(12) 0.00645 337.4 168.4
575(13) 0.00592 337.4 154.2
533(13) 0.00627 337.4 142.6
536(12) 0.00652 337.3 133.4
557(12) 0.00665 337.3 125.7
504(12) 0.00695 337.3 119.3
536(13) 0.00630 337.2 113.7
496(12) 0.00703 337.2 108.7
510(12) 0.00697 337.2 104.1
503(12) 0.00740 337.1 99.7
489(12) 0.00708 337.1 95.5
466(12) 0.00724 337.1 91.5
488(12) 0.00691 337.0 87.6
473(11) 0.00766 337.0 83.7
485(11) 0.00769 337.0 80.0
445(11) 0.00787 336.9 76.3
430(11) 0.00786 336.9 72.8
438(11) 0.00785 336.9 69.3
406(10) 0.00911 336.8 65.9
438(11) 0.00836 336.8 62.7
411(11) 0.00854 336.7 59.5
419(11) 0.00785 336.7 56.5
380(10) 0.00918 336.7 53.6
374(10) 0.00999 336.6 50.8
386(10) 0.00953 336.6 48.1
397(11) 0.00856 336.6 45.6
378(11) 0.00866 336.5 43.2
380(10) 0.00914 336.5 40.9
374(10) 0.00977 336.5 38.7
384(10) 0.00970 336.4 36.7
361(10) 0.00941 336.4 34.8
377(11) 0.00838 336.4 33.0
381(11) 0.00898 336.3 31.3
385(10) 0.00965 336.3 29.7
344(10) 0.01085 336.3 28.2
362(10) 0.00975 336.2 26.8
378(11) 0.00830 336.2 25.5
381(10) 0.00937 336.2 24.3
379(10) 0.00985 336.1 23.2
370(10) 0.00999 336.1 22.1
366(10) 0.00952 336.1 21.1
352(10) 0.00961 336.0 20.1
365(10) 0.00946 336.0 19.2
386(10) 0.00957 335.9 18.4
370(10) 0.00981 335.9 17.6
362(10) 0.00964 335.9 16.9
359(10) 0.00931 335.8 16.2
345(10) 0.00992 335.8 15.6
357(10) 0.01029 335.8 15.0
364(10) 0.01020 335.7 14.4
365(10) 0.00951 335.7 13.9
364(10) 0.00923 335.7 13.4
354(10) 0.00982 335.6 12.9
359(10) 0.01032 335.6 12.5
340(10) 0.01032 335.6 12.1
375(11) 0.00892 335.5 11.7
361(10) 0.00952 335.5 11.3
359(10) 0.00971 335.5 10.9
343(10) 0.01076 335.4 10.6
343(10) 0.01010 335.4 10.3
385(11) 0.00853 335.4 10.0
358(10) 0.00964 335.3 9.7
342(10) 0.01023 335.3 9.4
352(10) 0.01057 335.2 9.2
321(10) 0.01063 335.2 8.9
313(10) 0.01049 335.2 8.7
321(10) 0.01030 335.1 8.5
343(10) 0.01035 335.1 8.2
339(10) 0.01093 335.1 8.0
381(11) 0.00903 335.0 7.8
353(10) 0.00954 335.0 7.7
321(10) 0.01060 335.0 7.5
337(9) 0.01110 334.9 7.3
329(9) 0.01134 334.9 7.1
314(9) 0.01127 334.9 7.0
352(10) 0.00908 334.8 6.8
347(10) 0.00992 334.8 6.7
319(9) 0.01154 334.8 6.5
308(9) 0.01202 334.7 6.4
337(10) 0.01049 334.7 6.3
349(11) 0.00905 334.7 6.2
365(10) 0.00940 334.6 6.0
337(10) 0.01106 334.6 5.9
331(10) 0.01093 334.6 5.8
333(10) 0.01002 334.5 5.7
320(10) 0.01008 334.5 5.6
325(10) 0.01099 334.4 5.5
340(10) 0.01071 334.4 5.4
347(10) 0.01043 334.4 5.3
327(10) 0.01035 334.3 5.2
315(10) 0.01059 334.3 5.1
301(9) 0.01127 334.3 5.0
321(9) 0.01144 334.2 5.0
338(10) 0.01029 334.2 4.9
334(10) 0.01058 334.2 4.8
357(11) 0.00891 334.1 4.7
324(10) 0.01067 334.1 4.7
333(9) 0.01110 334.1 4.6
318(9) 0.01143 334.0 4.5
333(10) 0.01063 334.0 4.5
311(10) 0.01094 334.0 4.4
327(10) 0.01048 333.9 4.3
338(10) 0.01101 333.9 4.3
343(10) 0.01009 333.9 4.2
353(10) 0.00987 333.8 4.2
344(10) 0.01002 333.8 4.1
342(10) 0.01028 333.7 4.0
354(10) 0.01058 333.7 4.0
320(10) 0.01070 333.7 3.9
328(10) 0.01044 333.6 3.9
367(11) 0.00904 333.6 3.8
317(9) 0.01139 333.6 3.8
318(9) 0.01175 333.5 3.8
372(10) 0.00928 333.5 3.7
334(10) 0.01010 333.5 3.7
307(9) 0.01109 333.4 3.6
340(10) 0.01071 333.4 3.6
317(9) 0.01160 333.4 3.5
338(10) 0.01042 333.3 3.5
330(10) 0.01005 333.3 3.5
332(10) 0.01035 333.3 3.4
328(10) 0.01099 333.2 3.4
328(9) 0.01137 333.2 3.4
344(10) 0.01020 333.2 3.3
350(10) 0.00960 333.1 3.3
365(10) 0.00927 333.1 3.3
343(10) 0.01064 333.0 3.2
312(9) 0.01198 333.0 3.2
327(10) 0.01097 333.0 3.2
351(10) 0.00926 332.9 3.2
343(10) 0.00998 332.9 3.1
330(9) 0.01119 332.9 3.1
324(9) 0.01146 332.8 3.1
301(9) 0.01158 332.8 3.1
319(10) 0.01010 332.8 3.0
346(10) 0.00999 332.7 3.0
329(9) 0.01117 332.7 3.0
325(9) 0.01161 332.7 3.0
333(10) 0.01040 332.6 2.9
314(10) 0.01054 332.6 2.9
309(10) 0.01094 332.6 2.9
337(10) 0.01099 332.5 2.9
343(10) 0.01062 332.5 2.9
339(10) 0.01039 332.5 2.9
351(10) 0.00946 332.4 2.8
329(10) 0.01073 332.4 2.8
306(9) 0.01223 332.4 2.8
325(9) 0.01117 332.3 2.8
318(10) 0.01079 332.3 2.8
317(10) 0.01103 332.2 2.8
335(10) 0.01058 332.2 2.7
334(10) 0.01104 332.2 2.7
330(10) 0.01108 332.1 2.7
336(10) 0.01012 332.1 2.7
327(10) 0.01038 332.1 2.7
334(10) 0.01051 332.0 2.7
318(9) 0.01157 332.0 2.7
343(10) 0.01029 332.0 2.6
314(10) 0.01097 331.9 2.6
330(10) 0.01013 331.9 2.6
340(10) 0.01056 331.9 2.6
317(9) 0.01164 331.8 2.6
344(10) 0.01017 331.8 2.6
338(10) 0.01031 331.8 2.6
360(10) 0.00965 331.7 2.6
340(10) 0.01058 331.7 2.6
322(9) 0.01162 331.7 2.6
342(10) 0.01007 331.6 2.5
311(9) 0.01122 331.6 2.5
341(10) 0.01020 331.5 2.5
319(9) 0.01140 331.5 2.5
329(9) 0.01135 331.5 2.5
324(10) 0.01076 331.4 2.5
346(10) 0.00912 331.4 2.5
333(10) 0.01044 331.4 2.5
354(10) 0.01015 331.3 2.5
312(9) 0.01189 331.3 2.5
325(10) 0.01056 331.3 2.5
338(10) 0.00970 331.2 2.5
330(10) 0.01079 331.2 2.5
307(9) 0.01222 331.2 2.5
316(9) 0.01173 331.1 2.5
316(10) 0.01086 331.1 2.5
352(11) 0.00895 331.0 2.5
332(10) 0.01098 331.0 2.5
327(9) 0.01138 331.0 2.5
316(9) 0.01170 330.9 2.5
340(10) 0.01022 330.9 2.5
340(10) 0.00929 330.9 2.5
320(10) 0.01094 330.8 2.5
328(9) 0.01120 330.8 2.5
347(10) 0.01059 330.7 2.5
310(9) 0.01125 330.7 2.5
316(10) 0.01094 330.7 2.5
336(10) 0.01047 330.6 2.5
307(9) 0.01211 330.6 2.5
335(10) 0.01090 330.6 2.5
322(10) 0.01056 330.5 2.5
304(10) 0.01081 330.5 2.5
319(10) 0.01086 330.4 2.5
320(9) 0.01157 330.4 2.5
325(9) 0.01111 330.4 2.5
338(10) 0.01030 330.3 2.5
299(9) 0.01152 330.3 2.5
336(10) 0.01070 330.3 2.5
353(10) 0.01046 330.2 2.5
329(10) 0.01079 330.2 2.5
342(10) 0.01011 330.1 2.5
340(10) 0.00997 330.1 2.5
321(9) 0.01116 330.1 2.5
324(9) 0.01143 330.0 2.5
342(10) 0.01042 330.0 2.5
343(10) 0.00982 330.0 2.6
321(10) 0.01089 329.9 2.6
328(10) 0.01070 329.9 2.6
329(9) 0.01129 329.9 2.6
332(10) 0.01033 329.8 2.6
328(10) 0.01042 329.8 2.6
332(10) 0.01011 329.7 2.6
312(9) 0.01154 329.7 2.6
327(9) 0.01135 329.7 2.6
339(10) 0.01036 329.6 2.7
348(10) 0.00945 329.6 2.7
299(9) 0.01196 329.6 2.7
326(9) 0.01123 329.5 2.7
330(9) 0.01127 329.5 2.7
334(10) 0.01049 329.4 2.7
328(10) 0.01005 329.4 2.8
351(10) 0.00954 329.4 2.8
341(10) 0.01085 329.3 2.8
332(9) 0.01118 329.3 2.8
363(10) 0.00946 329.3 2.8
342(10) 0.00993 329.2 2.9
329(9) 0.01109 329.2 2.9
306(9) 0.01213 329.1 2.9
332(10) 0.01107 329.1 2.9
334(10) 0.01050 329.1 2.9
337(10) 0.00945 329.0 3.0
341(10) 0.01005 329.0 3.0
347(10) 0.01082 329.0 3.0
333(10) 0.01105 328.9 3.1
326(10) 0.01063 328.9 3.1
333(10) 0.00967 328.8 3.1
320(9) 0.01112 328.8 3.1
312(9) 0.01196 328.8 3.2
312(9) 0.01171 328.7 3.2
330(10) 0.01071 328.7 3.3
343(10) 0.00961 328.7 3.3
334(10) 0.00996 328.6 3.3
312(9) 0.01185 328.6 3.4
318(9) 0.01147 328.5 3.4
318(10) 0.01069 328.5 3.5
328(10) 0.01001 328.5 3.5
328(10) 0.01021 328.4 3.5
331(9) 0.01122 328.4 3.6
328(9) 0.01115 328.4 3.7
333(10) 0.01034 328.3 3.7
327(10) 0.01076 328.3 3.8
321(10) 0.01104 328.3 3.8
307(9) 0.01208 328.2 3.9
333(10) 0.01068 328.2 4.0
361(10) 0.00928 328.1 4.0
353(10) 0.00927 328.1 4.1
333(10) 0.01099 328.1 4.2
317(9) 0.01168 328.0 4.2
316(9) 0.01109 328.0 4.3
328(10) 0.01060 328.0 4.4
316(9) 0.01128 327.9 4.5
338(10) 0.01048 327.9 4.6
332(9) 0.01130 327.8 4.7
334(10) 0.01024 327.8 4.8
310(10) 0.01072 327.8 4.9
334(10) 0.01048 327.7 5.0
355(10) 0.01022 327.7 5.1
303(9) 0.01232 327.7 5.2
328(10) 0.01037 327.6 5.3
305(9) 0.01110 327.6 5.5
331(10) 0.01054 327.5 5.6
322(9) 0.01122 327.5 5.8
335(10) 0.01089 327.5 5.9
307(9) 0.01145 327.4 6.1
327(10) 0.01004 327.4 6.3
324(10) 0.01066 327.4 6.4
311(9) 0.01196 327.3 6.6
338(10) 0.01091 327.3 6.9
330(10) 0.01059 327.2 7.1
340(10) 0.00970 327.2 7.3
365(10) 0.00975 327.2 7.6
336(9) 0.01117 327.1 7.9
345(10) 0.01062 327.1 8.2
341(10) 0.01019 327.1 8.5
313(10) 0.01095 327.0 8.8
346(10) 0.01009 327.0 9.2
365(10) 0.01016 326.9 9.6
368(10) 0.00989 326.9 10.1
330(10) 0.01052 326.9 10.6
332(10) 0.00981 326.8 11.1
331(10) 0.01052 326.8 11.7
369(10) 0.01003 326.8 12.4
352(10) 0.01031 326.7 13.1
346(10) 0.00975 326.7 13.9
355(10) 0.00920 326.7 14.9
355(10) 0.00994 326.6 15.9
374(10) 0.00985 326.6 17.1
340(10) 0.01039 326.5 18.5
348(10) 0.01002 326.5 20.2
358(10) 0.00931 326.5 22.5
369(10) 0.00917 326.4 26.1
344(10) 0.01088 326.4 32.1
364(10) 0.00970 326.4 41.9
352(10) 0.00980 326.3 57.0
384(11) 0.00905 326.3 77.4
445(11) 0.00810 326.2 100.9
419(11) 0.00877 326.2 121.8
445(11) 0.00799 326.2 132.5
438(11) 0.00778 326.1 128.2
420(11) 0.00835 326.1 112.5
399(11) 0.00898 326.1 93.1
409(10) 0.00911 326.0 76.0
410(11) 0.00841 326.0 64.0
388(11) 0.00866 325.9 57.3
385(11) 0.00897 325.9 54.7
386(10) 0.00947 325.9 54.4
393(10) 0.00951 325.8 55.4
381(11) 0.00868 325.8 56.8
374(11) 0.00838 325.8 58.2
392(11) 0.00864 325.7 59.5
374(10) 0.00971 325.7 60.5
386(10) 0.00973 325.6 61.1
421(11) 0.00830 325.6 61.3
398(11) 0.00832 325.6 61.1
410(11) 0.00868 325.5 60.4
407(10) 0.00911 325.5 59.3
417(11) 0.00864 325.5 57.8
434(11) 0.00791 325.4 56.0
401(11) 0.00825 325.4 54.0
393(11) 0.00906 325.3 51.7
387(10) 0.00955 325.3 49.4
391(10) 0.00935 325.3 46.9
379(10) 0.00920 325.2 44.5
373(11) 0.00864 325.2 42.1
368(10) 0.00950 325.2 39.7
371(10) 0.01000 325.1 37.4
349(10) 0.01041 325.1 35.2
368(10) 0.00927 325.0 33.1
350(10) 0.00972 325.0 31.2
357(10) 0.00968 325.0 29.3
339(10) 0.01083 324.9 27.6
346(10) 0.01056 324.9 26.0
330(10) 0.01029 324.9 24.5
324(10) 0.01010 324.8 23.2
341(10) 0.01025 324.8 21.9
362(10) 0.01013 324.8 20.8
317(9) 0.01129 324.7 19.7
348(10) 0.00958 324.7 18.8
333(10) 0.01028 324.6 17.9
329(10) 0.01106 324.6 17.2
334(10) 0.01106 324.6 16.5
332(10) 0.01083 324.5 15.9
345(10) 0.01019 324.5 15.3
356(10) 0.00968 324.5 14.8
319(9) 0.01126 324.4 14.4
313(9) 0.01178 324.4 14.0
323(9) 0.01118 324.3 13.7
324(10) 0.01066 324.3 13.4
339(10) 0.01040 324.3 13.2
327(10) 0.01093 324.2 12.9
346(10) 0.01065 324.2 12.8
334(10) 0.01033 324.2 12.6
356(10) 0.00936 324.1 12.5
331(10) 0.01070 324.1 12.4
321(9) 0.01120 324.0 12.3
315(9) 0.01186 324.0 12.2
325(10) 0.01062 324.0 12.2
331(10) 0.00947 323.9 12.2
307(9) 0.01120 323.9 12.2
337(10) 0.01063 323.9 12.2
325(9) 0.01155 323.8 12.2
313(10) 0.01107 323.8 12.2
318(10) 0.01054 323.7 12.2
297(9) 0.01175 323.7 12.2
327(9) 0.01111 323.7 12.3
312(9) 0.01185 323.6 12.3
348(10) 0.01002 323.6 12.4
341(10) 0.00943 323.6 12.4
334(10) 0.01049 323.5 12.4
349(10) 0.01074 323.5 12.5
335(9) 0.01115 323.4 12.5
322(10) 0.01092 323.4 12.5
323(10) 0.01010 323.4 12.6
340(10) 0.01024 323.3 12.6
319(9) 0.01160 323.3 12.6
319(9) 0.01119 323.3 12.7
336(10) 0.01006 323.2 12.7
332(10) 0.00972 323.2 12.7
323(10) 0.01090 323.2 12.7
323(9) 0.01146 323.1 12.7
322(9) 0.01140 323.1 12.7
321(10) 0.01044 323.0 12.7
294(9) 0.01149 323.0 12.8
336(10) 0.01015 323.0 12.8
352(10) 0.01053 322.9 12.8
344(10) 0.01053 322.9 12.9
320(10) 0.01098 322.9 12.9
316(10) 0.01083 322.8 13.0
333(10) 0.01036 322.8 13.1
340(10) 0.01092 322.7 13.2
350(10) 0.01029 322.7 13.3
323(10) 0.01052 322.7 13.5
332(10) 0.01031 322.6 13.7
318(9) 0.01119 322.6 13.9
305(9) 0.01215 322.6 14.2
320(10) 0.01048 322.5 14.5
329(10) 0.00995 322.5 14.9
362(10) 0.00915 322.4 15.4
348(10) 0.01018 322.4 15.9
339(10) 0.01091 322.4 16.6
323(10) 0.01044 322.3 17.3
333(10) 0.00972 322.3 18.2
331(10) 0.01034 322.3 19.2
354(10) 0.00994 322.2 20.4
330(9) 0.01111 322.2 21.7
320(10) 0.01062 322.1 23.2
348(10) 0.00953 322.1 24.9
334(10) 0.01051 322.1 26.7
327(9) 0.01122 322.0 28.7
344(10) 0.01080 322.0 30.7
365(10) 0.00932 322.0 32.8
359(11) 0.00874 321.9 34.8
363(10) 0.00948 321.9 36.6
312(9) 0.01169 321.8 38.1
336(10) 0.01100 321.8 39.2
344(10) 0.00975 321.8 39.8
315(10) 0.01048 321.7 40.0
367(11) 0.00902 321.7 39.7
339(10) 0.01108 321.7 39.1
332(10) 0.01103 321.6 38.4
362(10) 0.00970 321.6 37.7
352(10) 0.00920 321.5 37.1
349(10) 0.00996 321.5 36.7
355(10) 0.01050 321.5 36.5
344(10) 0.01053 321.4 36.7
334(10) 0.01029 321.4 37.2
354(11) 0.00902 321.4 38.2
363(10) 0.00962 321.3 39.5
356(10) 0.01046 321.3 41.3
320(9) 0.01132 321.3 43.7
343(10) 0.00982 321.2 46.5
379(11) 0.00848 321.2 50.0
377(10) 0.00917 321.1 54.1
392(10) 0.00933 321.1 58.8
399(11) 0.00873 321.1 64.2
389(11) 0.00890 321.0 70.4
391(11) 0.00872 321.0 77.3
393(11) 0.00882 321.0 85.1
415(11) 0.00899 320.9 93.5
442(11) 0.00801 320.9 102.7
442(11) 0.00776 320.8 112.5
441(11) 0.00785 320.8 122.7
465(12) 0.00738 320.8 133.1
499(12) 0.00743 320.7 143.3
515(12) 0.00679 320.7 152.9
487(12) 0.00714 320.7 161.4
483(12) 0.00712 320.6 168.0
481(12) 0.00752 320.6 172.3
496(12) 0.00750 320.5 173.9
531(12) 0.00665 320.5 172.7
489(12) 0.00698 320.5 168.7
464(12) 0.00745 320.4 162.4
464(11) 0.00774 320.4 154.3
463(11) 0.00797 320.4 145.0
454(11) 0.00766 320.3 135.0
461(12) 0.00709 320.3 124.9
457(12) 0.00748 320.2 114.9
404(11) 0.00904 320.2 105.5
412(10) 0.00908 320.2 96.6
386(10) 0.00913 320.1 88.5
427(11) 0.00758 320.1 81.1
400(11) 0.00888 320.1 74.4
407(11) 0.00896 320.0 68.4
367(10) 0.01002 320.0 62.9
388(11) 0.00900 319.9 57.9
398(11) 0.00825 319.9 53.2
402(11) 0.00864 319.9 48.8
404(11) 0.00899 319.8 44.8
354(10) 0.01045 319.8 41.0
367(11) 0.00900 319.8 37.6
370(11) 0.00870 319.7 34.5
359(10) 0.00968 319.7 31.7
340(10) 0.01099 319.7 29.2
337(10) 0.01081 319.6 26.9
342(10) 0.00972 319.6 24.9
347(10) 0.00945 319.5 23.2
346(10) 0.01012 319.5 21.6
353(10) 0.01056 319.5 20.3
348(10) 0.01053 319.4 19.0
322(10) 0.01083 319.4 17.9
299(10) 0.01098 319.4 16.9
337(10) 0.01038 319.3 16.1
330(9) 0.01128 319.3 15.3
336(10) 0.01081 319.2 14.5
340(10) 0.01007 319.2 13.9
349(10) 0.00943 319.2 13.3
327(10) 0.01056 319.1 12.7
350(10) 0.01063 319.1 12.2
358(10) 0.00972 319.1 11.7
340(10) 0.01022 319.0 11.3
336(10) 0.01026 319.0 10.9
335(10) 0.01063 318.9 10.5
357(10) 0.01043 318.9 10.2
336(10) 0.01031 318.9 9.9
329(10) 0.01060 318.8 9.5
346(10) 0.00994 318.8 9.3
314(9) 0.01128 318.8 9.0
343(10) 0.01075 318.7 8.7
345(10) 0.01005 318.7 8.5
331(10) 0.01048 318.6 8.3
329(10) 0.01051 318.6 8.1
340(10) 0.01053 318.6 7.9
334(9) 0.01126 318.5 7.7
324(10) 0.01071 318.5 7.5
316(10) 0.01085 318.5 7.3
326(10) 0.01076 318.4 7.2
328(9) 0.01114 318.4 7.0
316(9) 0.01177 318.3 6.9
306(9) 0.01149 318.3 6.8
329(10) 0.01059 318.3 6.6
333(10) 0.01030 318.2 6.5
332(10) 0.01098 318.2 6.4
311(9) 0.01189 318.2 6.3
322(10) 0.01085 318.1 6.2
329(10) 0.00971 318.1 6.1
325(10) 0.01011 318.1 6.0
298(9) 0.01246 318.0 5.9
344(10) 0.01077 318.0 5.8
337(10) 0.01012 317.9 5.8
328(10) 0.00979 317.9 5.7
310(9) 0.01121 317.9 5.6
323(9) 0.01162 317.8 5.6
342(10) 0.01065 317.8 5.5
301(9) 0.01200 317.8 5.4
339(10) 0.00929 317.7 5.4
333(10) 0.01003 317.7 5.3
314(9) 0.01188 317.6 5.3
321(9) 0.01146 317.6 5.3
312(10) 0.01103 317.6 5.2
304(10) 0.01055 317.5 5.2
330(10) 0.01054 317.5 5.1
312(9) 0.01186 317.5 5.1
355(10) 0.01012 317.4 5.1
320(10) 0.01088 317.4 5.1
335(10) 0.00980 317.3 5.0
299(9) 0.01175 317.3 5.0
321(9) 0.01151 317.3 5.0
321(9) 0.01143 317.2 5.0
328(10) 0.01078 317.2 5.0
326(10) 0.01023 317.2 5.0
330(10) 0.01055 317.1 4.9
289(9) 0.01274 317.1 4.9
296(9) 0.01210 317.0 4.9
299(9) 0.01132 317.0 4.9
329(10) 0.01023 317.0 4.9
315(9) 0.01110 316.9 4.9
313(9) 0.01188 316.9 4.9
316(9) 0.01123 316.9 4.9
324(10) 0.01023 316.9 4.9
305(9) 0.01159 316.9 5.0
324(10) 0.01071 316.9 5.0
323(9) 0.01146 316.9 5.0
325(10) 0.01046 316.9 5.0
302(9) 0.01158 316.8 5.0
347(10) 0.01004 316.8 5.1
328(10) 0.01104 316.8 5.1
324(9) 0.01136 316.8 5.1
331(10) 0.01019 316.8 5.1
320(10) 0.01050 316.8 5.2
335(10) 0.01019 316.8 5.2
317(9) 0.01148 316.8 5.3
323(9) 0.01146 316.8 5.3
317(10) 0.01085 316.8 5.3
322(10) 0.00996 316.8 5.4
341(10) 0.00988 316.8 5.5
301(9) 0.01189 316.8 5.5
313(9) 0.01185 316.8 5.6
305(9) 0.01154 316.8 5.6
321(10) 0.01017 316.7 5.7
319(10) 0.01093 316.7 5.8
342(10) 0.01086 316.7 5.9
325(9) 0.01125 316.7 6.0
336(10) 0.01009 316.7 6.0
311(10) 0.01050 316.7 6.1
299(9) 0.01182 316.7 6.3
331(9) 0.01116 316.7 6.4
335(9) 0.01115 316.7 6.5
339(10) 0.01034 316.7 6.6
324(10) 0.01027 316.7 6.8
332(10) 0.01058 316.7 6.9
345(10) 0.01086 316.7 7.1
334(10) 0.01079 316.7 7.3
318(10) 0.01069 316.6 7.4
321(10) 0.01031 316.6 7.7
322(10) 0.01056 316.6 7.9
311(9) 0.01203 316.6 8.1
319(9) 0.01125 316.6 8.4
329(10) 0.00984 316.6 8.7
315(10) 0.01063 316.6 9.0
338(10) 0.01027 316.6 9.3
333(9) 0.01122 316.6 9.7
348(10) 0.01050 316.6 10.1
321(9) 0.01122 316.6 10.6
328(10) 0.01025 316.6 11.1
323(10) 0.01105 316.6 11.7
341(10) 0.01095 316.6 12.4
328(10) 0.01040 316.6 13.2
315(10) 0.01052 316.5 14.0
318(10) 0.01029 316.5 15.0
341(10) 0.01021 316.5 16.2
349(10) 0.01070 316.5 17.7
340(10) 0.01024 316.5 19.4
338(10) 0.01015 316.5 21.6
343(10) 0.00989 316.5 24.6
357(10) 0.01010 316.5 28.5
345(10) 0.01078 316.5 33.9
391(11) 0.00863 316.5 41.2
383(11) 0.00873 316.5 51.3
387(11) 0.00905 316.5 64.6
391(10) 0.00953 316.5 81.6
441(11) 0.00850 316.5 102.5
443(11) 0.00781 316.5 126.4
490(12) 0.00677 316.4 151.7
522(12) 0.00667 316.4 175.3
544(12) 0.00673 316.4 193.3
556(12) 0.00665 316.4 201.3
560(13) 0.00612 316.4 196.5
526(13) 0.00611 316.4 179.9
453(11) 0.00785 316.4 156.2
487(11) 0.00764 316.4 130.5
430(11) 0.00859 316.4 106.3
417(11) 0.00839 316.4 85.6
422(11) 0.00789 316.4 68.8
383(10) 0.00925 316.4 56.0
375(10) 0.00996 316.4 46.6
385(10) 0.00952 316.4 39.9
397(11) 0.00844 316.4 35.3
395(11) 0.00826 316.3 32.3
365(10) 0.00957 316.3 30.4
367(10) 0.01011 316.3 29.3
357(10) 0.01021 316.3 28.9
355(10) 0.00993 316.3 29.2
378(11) 0.00868 316.3 30.2
350(10) 0.00965 316.3 32.0
346(10) 0.01077 316.3 34.8
350(10) 0.01042 316.3 38.7
368(10) 0.00928 316.3 43.7
358(10) 0.00947 316.3 49.8
365(10) 0.00955 316.3 56.4
380(10) 0.00968 316.3 62.9
379(10) 0.00939 316.3 67.9
425(11) 0.00785 316.3 69.8
374(10) 0.00934 316.2 68.1
383(11) 0.00904 316.2 63.4
389(10) 0.00949 316.2 57.2
384(11) 0.00902 316.2 50.9
385(11) 0.00892 316.2 45.2
358(10) 0.00985 316.2 40.5
357(10) 0.01029 316.2 36.8
381(10) 0.00985 316.2 34.1
352(10) 0.01027 316.2 32.3
368(10) 0.00907 316.2 31.2
356(10) 0.00953 316.2 30.6
345(10) 0.01051 316.2 30.3
342(10) 0.01094 316.2 30.3
347(10) 0.00976 316.2 30.6
333(10) 0.01006 316.2 31.0
339(10) 0.01032 316.1 31.6
373(10) 0.00973 316.1 32.4
389(10) 0.00949 316.1 33.4
361(10) 0.00964 316.1 34.7
341(10) 0.00989 316.1 36.4
359(10) 0.00972 316.1 38.6
366(10) 0.01017 316.1 41.4
349(10) 0.01076 316.1 45.1
393(11) 0.00883 316.1 50.0
379(11) 0.00852 316.1 56.4
397(11) 0.00859 316.1 64.6
372(10) 0.01010 316.1 74.9
406(10) 0.00917 316.1 87.4
438(11) 0.00783 316.1 102.3
460(12) 0.00696 316.1 119.0
455(11) 0.00772 316.0 136.9
490(12) 0.00745 316.0 154.0
511(12) 0.00730 316.0 167.9
523(12) 0.00688 316.0 175.6
549(13) 0.00591 316.0 175.0
486(12) 0.00736 316.0 166.3
479(11) 0.00775 316.0 151.9
457(11) 0.00809 316.0 134.8
416(11) 0.00853 316.0 117.5
413(11) 0.00786 316.0 101.4
418(11) 0.00821 316.0 87.4
395(10) 0.00941 316.0 75.7
387(10) 0.00929 316.0 66.4
388(11) 0.00862 316.0 59.1
354(10) 0.00968 316.0 53.6
370(10) 0.00909 315.9 49.6
376(10) 0.00984 315.9 46.7
375(10) 0.00949 315.9 44.8
366(10) 0.00933 315.9 43.5
353(10) 0.00992 315.9 42.7
376(10) 0.00947 315.9 42.3
369(10) 0.01013 315.9 42.2
345(10) 0.01016 315.9 42.3
373(10) 0.00916 315.9 42.6
366(10) 0.00940 315.9 43.0
395(11) 0.00905 315.9 43.5
356(10) 0.01044 315.9 44.1
358(10) 0.00962 315.9 44.7
368(10) 0.00913 315.9 45.3
380(11) 0.00889 315.9 46.0
379(10) 0.00964 315.8 46.6
361(10) 0.01022 315.8 47.2
362(10) 0.00966 315.8 47.7
388(11) 0.00850 315.8 48.0
385(11) 0.00905 315.8 48.3
384(10) 0.00934 315.8 48.5
389(10) 0.00957 315.8 48.5
390(11) 0.00884 315.8 48.3
349(10) 0.00983 315.8 48.1
349(10) 0.01008 315.8 47.6
367(10) 0.01010 315.8 47.1
360(10) 0.01018 315.8 46.4
388(11) 0.00903 315.8 45.6
366(10) 0.00919 315.8 44.7
382(10) 0.00924 315.7 43.7
365(10) 0.01009 315.7 42.6
367(10) 0.01015 315.7 41.5
359(10) 0.00981 315.7 40.4
366(11) 0.00890 315.7 39.3
382(10) 0.00923 315.7 38.2
347(10) 0.01074 315.7 37.1
372(10) 0.00982 315.7 36.1
352(10) 0.01007 315.7 35.0
352(10) 0.00965 315.7 34.1
345(10) 0.01047 315.7 33.1
381(10) 0.00982 315.7 32.3
366(10) 0.01014 315.7 31.5
330(10) 0.01059 315.7 30.8
345(10) 0.00949 315.7 30.2
362(10) 0.00951 315.6 29.7
371(10) 0.01004 315.6 29.3
374(10) 0.00967 315.6 29.0
344(10) 0.00987 315.6 28.8
377(11) 0.00853 315.6 28.9
342(10) 0.01019 315.6 29.1
344(10) 0.01082 315.6 29.7
348(10) 0.01013 315.6 30.8
363(10) 0.00957 315.6 32.6
393(11) 0.00859 315.6 35.4
359(10) 0.00966 315.6 39.5
387(10) 0.00961 315.6 45.3
406(11) 0.00850 315.6 52.7
404(11) 0.00828 315.6 61.7
389(11) 0.00899 315.6 71.3
433(11) 0.00816 315.5 80.2
459(11) 0.00813 315.5 86.2
449(11) 0.00783 315.5 87.7
446(12) 0.00743 315.5 85.2
404(11) 0.00872 315.5 80.7
421(11) 0.00852 315.5 76.4
413(11) 0.00892 315.5 73.6
403(11) 0.00888 315.5 72.9
449(12) 0.00733 315.5 74.1
433(11) 0.00794 315.5 76.9
449(11) 0.00806 315.5 80.3
426(11) 0.00852 315.5 83.2
451(12) 0.00739 315.5 84.5
402(11) 0.00826 315.5 83.6
406(11) 0.00826 315.5 80.4
419(11) 0.00852 315.4 75.4
391(10) 0.00951 315.4 69.6
386(11) 0.00884 315.4 63.5
384(11) 0.00860 315.4 57.8
380(10) 0.00945 315.4 52.6
387(10) 0.00945 315.4 48.2
369(10) 0.01009 315.4 44.6
360(10) 0.00954 315.4 41.7
364(11) 0.00890 315.4 39.5
369(10) 0.00948 315.4 37.9
350(10) 0.01045 315.4 36.7
362(10) 0.01014 315.4 36.0
351(10) 0.01022 315.4 35.6
365(10) 0.00915 315.4 35.5
360(10) 0.00977 315.4 35.6
341(10) 0.01097 315.3 35.9
338(10) 0.01100 315.3 36.3
382(11) 0.00892 315.3 36.9
356(10) 0.00967 315.3 37.5
398(11) 0.00856 315.3 38.3
348(10) 0.01066 315.3 39.1
326(9) 0.01127 315.3 40.0
364(10) 0.00913 315.3 41.0
349(10) 0.00956 315.3 42.1
343(10) 0.01005 315.3 43.2
350(10) 0.01054 315.3 44.4
346(10) 0.01059 315.3 45.7
369(10) 0.00917 315.3 47.0
353(10) 0.00996 315.3 48.4
372(10) 0.00945 315.3 49.9
370(10) 0.00988 315.2 51.5
343(10) 0.01040 315.2 53.1
347(10) 0.00974 315.2 54.8
387(11) 0.00869 315.2 56.6
373(10) 0.00979 315.2 58.4
366(10) 0.01014 315.2 60.3
391(10) 0.00909 315.2 62.2
378(10) 0.00915 315.2 64.2
379(11) 0.00893 315.2 66.1
372(10) 0.00947 315.2 68.1
381(10) 0.00979 315.2 69.9
388(11) 0.00885 315.2 71.7
388(11) 0.00858 315.2 73.4
357(10) 0.00972 315.2 74.9
373(10) 0.00949 315.2 76.3
379(10) 0.00980 315.1 77.5
357(10) 0.00995 315.1 78.5
391(11) 0.00833 315.1 79.5
378(10) 0.00930 315.1 80.3
397(10) 0.00931 315.1 81.1
388(10) 0.00968 315.1 81.9
378(11) 0.00898 315.1 82.8
390(11) 0.00831 315.1 83.9
395(11) 0.00891 315.1 85.3
392(10) 0.00932 315.1 86.9
377(10) 0.00975 315.1 89.0
388(11) 0.00907 315.1 91.6
393(11) 0.00814 315.1 94.7
371(10) 0.00934 315.1 98.3
430(11) 0.00859 315.1 102.5
373(10) 0.00990 315.0 107.3
411(11) 0.00834 315.0 112.6
421(12) 0.00744 315.0 118.4
409(11) 0.00871 315.0 124.4
443(11) 0.00841 315.0 130.6
455(11) 0.00806 315.0 136.5
459(12) 0.00747 315.0 141.8
452(12) 0.00718 315.0 146.2
482(12) 0.00676 315.0 149.2
442(11) 0.00838 315.0 150.5
439(11) 0.00847 315.0 149.9
487(12) 0.00679 315.0 147.4
387(11) 0.00895 315.0 143.1
406(11) 0.00868 315.0 137.3
422(11) 0.00878 315.0 130.5
412(11) 0.00849 314.9 123.1
400(11) 0.00881 314.9 115.3
420(11) 0.00777 314.9 107.6
365(10) 0.00979 314.9 100.1
405(10) 0.00918 314.9 93.1
388(10) 0.00932 314.9 86.5
401(11) 0.00862 314.9 80.5
405(11) 0.00829 314.9 75.0
399(11) 0.00872 314.9 70.2
409(10) 0.00907 314.9 65.9
361(10) 0.00942 314.9 62.2
380(11) 0.00883 314.9 59.0
392(11) 0.00835 314.9 56.4
384(10) 0.00910 314.9 54.2
362(10) 0.01028 314.9 52.4
366(10) 0.00942 314.8 51.1
384(11) 0.00835 314.8 50.0
356(10) 0.00992 314.8 49.3
385(10) 0.00957 314.8 48.7
361(10) 0.01024 314.8 48.3
339(10) 0.01004 314.8 48.0
369(11) 0.00891 314.8 47.6
381(10) 0.00914 314.8 47.0
350(10) 0.01042 314.8 46.2
341(9) 0.01113 314.8 45.0
343(10) 0.01035 314.8 43.6
366(11) 0.00891 314.8 42.0
344(10) 0.00967 314.8 40.2
336(10) 0.01103 314.8 38.3
358(10) 0.01028 314.7 36.4
357(10) 0.00953 314.7 34.5
342(10) 0.00964 314.7 32.7
343(10) 0.01039 314.7 31.1
339(10) 0.01100 314.7 29.5
332(9) 0.01119 314.7 28.0
359(10) 0.00947 314.7 26.7
336(10) 0.00988 314.7 25.5
336(10) 0.01035 314.7 24.3
346(10) 0.01059 314.7 23.3
366(10) 0.01002 314.7 22.3
327(10) 0.01106 314.7 21.5
344(10) 0.00930 314.7 20.7
344(10) 0.00991 314.7 19.9
354(10) 0.01057 314.7 19.3
352(10) 0.01038 314.6 18.6
339(10) 0.01031 314.6 18.0
347(10) 0.00917 314.6 17.5
331(10) 0.01055 314.6 17.0
341(10) 0.01102 314.6 16.5
370(10) 0.00952 314.6 16.1
331(10) 0.01044 314.6 15.7
324(10) 0.01038 314.6 15.3
320(10) 0.01050 314.6 14.9
303(9) 0.01230 314.6 14.6
336(10) 0.01077 314.6 14.3
342(10) 0.00994 314.6 14.0
325(10) 0.01025 314.6 13.7
323(10) 0.01105 314.6 13.5
323(9) 0.01152 314.6 13.3
326(10) 0.01072 314.5 13.1
333(10) 0.01056 314.5 12.9
331(10) 0.01065 314.5 12.7
351(10) 0.01028 314.5 12.6
356(10) 0.01039 314.5 12.4
325(10) 0.01069 314.5 12.3
335(10) 0.00997 314.5 12.2
335(10) 0.01030 314.5 12.1
314(9) 0.01154 314.5 12.1
336(10) 0.01101 314.5 12.0
325(10) 0.01067 314.5 12.0
348(10) 0.00933 314.5 12.0
336(10) 0.01042 314.5 12.0
329(9) 0.01133 314.5 12.0
321(9) 0.01166 314.5 12.1
305(9) 0.01154 314.4 12.2
313(10) 0.01050 314.4 12.3
340(10) 0.01018 314.4 12.4
339(10) 0.01085 314.4 12.6
334(9) 0.01109 314.4 12.8
338(10) 0.01006 314.4 13.1
318(10) 0.01014 314.4 13.4
340(10) 0.01036 314.4 13.8
358(10) 0.01029 314.4 14.2
348(10) 0.01054 314.4 14.7
343(10) 0.01015 314.4 15.3
320(10) 0.01004 314.4 16.1
329(10) 0.01031 314.4 16.9
349(10) 0.01058 314.4 17.9
355(10) 0.01042 314.4 19.2
335(10) 0.01069 314.3 20.7
360(11) 0.00901 314.3 22.5
344(10) 0.00980 314.3 24.7
369(10) 0.01011 314.3 27.4
356(10) 0.01031 314.3 30.7
366(10) 0.00917 314.3 34.7
384(11) 0.00859 314.3 39.4
394(11) 0.00863 314.3 44.9
378(10) 0.00981 314.3 51.4
398(10) 0.00921 314.3 58.8
405(11) 0.00824 314.3 67.0
406(11) 0.00799 314.3 75.8
426(11) 0.00806 314.3 85.0
452(11) 0.00813 314.3 94.0
455(11) 0.00805 314.3 101.9
461(11) 0.00770 314.2 107.9
483(12) 0.00709 314.2 110.8
483(12) 0.00732 314.2 110.4
469(11) 0.00789 314.2 106.5
480(12) 0.00717 314.2 99.9
419(11) 0.00809 314.2 91.6
418(11) 0.00823 314.2 82.5
398(11) 0.00882 314.2 73.3
382(10) 0.00972 314.2 64.5
394(10) 0.00912 314.2 56.5
384(11) 0.00904 314.2 49.4
355(10) 0.00975 314.2 43.1
371(10) 0.00946 314.2 37.8
377(10) 0.00977 314.2 33.2
361(10) 0.00945 314.2 29.4
364(10) 0.00910 314.1 26.3
344(10) 0.01016 314.1 23.7
345(10) 0.01051 314.1 21.5
340(10) 0.01094 314.1 19.8
362(10) 0.00937 314.1 18.3
330(10) 0.01043 314.1 17.1
331(10) 0.01069 314.1 16.1
314(9) 0.01188 314.1 15.3
340(10) 0.01083 314.1 14.6
307(9) 0.01109 314.1 13.9
327(10) 0.00983 314.1 13.4
337(10) 0.01058 314.1 13.0
306(9) 0.01221 314.1 12.6
324(9) 0.01155 314.1 12.2
334(10) 0.01073 314.1 11.9
323(10) 0.01032 314.0 11.7
338(10) 0.01064 314.0 11.5
344(10) 0.01069 314.0 11.3
347(10) 0.01058 314.0 11.1
313(9) 0.01125 314.0 11.0
310(10) 0.01065 314.0 10.9
330(10) 0.01066 314.0 10.8
322(9) 0.01156 314.0 10.8
325(9) 0.01131 314.0 10.8
309(9) 0.01115 314.1 10.7
306(10) 0.01043 314.1 10.8
325(10) 0.01038 314.1 10.8
321(9) 0.01167 314.1 10.9
326(9) 0.01129 314.1 10.9
325(10) 0.01030 314.1 11.0
338(10) 0.00946 314.1 11.2
338(10) 0.01048 314.1 11.3
308(9) 0.01212 314.1 11.5
312(9) 0.01146 314.1 11.7
334(10) 0.01020 314.2 11.9
329(10) 0.01030 314.2 12.2
353(10) 0.00995 314.2 12.5
321(9) 0.01145 314.2 12.8
341(10) 0.01031 314.2 13.2
317(9) 0.01113 314.2 13.6
319(10) 0.01073 314.2 14.1
320(10) 0.01107 314.2 14.6
327(9) 0.01138 314.2 15.2
311(9) 0.01142 314.3 15.8
357(10) 0.00920 314.3 16.4
336(10) 0.01025 314.3 17.1
356(10) 0.01024 314.3 17.9
321(9) 0.01159 314.3 18.6
333(10) 0.01052 314.3 19.4
354(10) 0.00933 314.3 20.3
322(10) 0.01089 314.3 21.1
326(9) 0.01117 314.3 21.9
324(9) 0.01144 314.3 22.7
350(10) 0.00978 314.4 23.5
343(10) 0.00976 314.4 24.4
350(10) 0.00969 314.4 25.2
327(9) 0.01132 314.4 26.1
337(10) 0.01093 314.4 27.2
322(10) 0.01102 314.4 28.3
334(10) 0.00969 314.4 29.6
342(10) 0.01019 314.4 31.1
331(9) 0.01124 314.4 32.8
347(10) 0.01070 314.5 34.6
347(10) 0.01028 314.5 36.7
340(10) 0.00951 314.5 39.1
349(10) 0.00997 314.5 41.7
329(9) 0.01114 314.5 44.6
339(10) 0.01095 314.5 47.7
330(10) 0.01026 314.5 51.1
369(11) 0.00892 314.5 54.8
365(10) 0.00977 314.5 58.8
374(10) 0.00988 314.5 63.1
391(10) 0.00948 314.6 67.6
381(11) 0.00903 314.6 72.4
393(11) 0.00822 314.6 77.3
390(11) 0.00889 314.6 82.3
382(10) 0.00978 314.6 87.4
410(11) 0.00880 314.6 92.3
414(11) 0.00850 314.6 97.1
385(11) 0.00862 314.6 101.5
408(11) 0.00828 314.6 105.5
423(11) 0.00875 314.7 108.7
386(10) 0.00943 314.7 111.1
383(11) 0.00900 314.7 112.6
403(11) 0.00839 314.7 113.0
408(11) 0.00824 314.7 112.3
387(10) 0.00952 314.7 110.7
414(11) 0.00860 314.7 108.1
375(10) 0.00951 314.7 104.7
367(10) 0.00944 314.7 100.6
379(10) 0.00931 314.7 96.1
384(10) 0.00966 314.8 91.2
365(10) 0.00967 314.8 86.1
374(10) 0.00917 314.8 81.0
385(11) 0.00905 314.8 76.0
390(10) 0.00924 314.8 71.0
354(10) 0.01047 314.8 66.2
361(10) 0.00953 314.8 61.7
347(10) 0.00963 314.8 57.4
348(10) 0.00975 314.8 53.3
360(10) 0.00998 314.9 49.5
347(10) 0.01075 314.9 46.0
366(11) 0.00896 314.9 42.7
348(10) 0.00955 314.9 39.7
315(9) 0.01180 314.9 37.0
351(10) 0.01041 314.9 34.5
351(10) 0.01062 314.9 32.2
336(10) 0.01050 314.9 30.1
355(10) 0.00932 314.9 28.2
327(10) 0.01106 314.9 26.4
323(9) 0.01134 315.0 24.9
291(9) 0.01260 315.0 23.4
341(10) 0.00972 315.0 22.2
317(10) 0.01049 315.0 21.0
340(10) 0.01045 315.0 19.9
341(10) 0.01063 315.0 19.0
337(10) 0.01087 315.0 18.1
318(10) 0.01099 315.0 17.3
308(10) 0.01056 315.0 16.6
325(10) 0.01087 315.1 15.9
330(9) 0.01130 315.1 15.4
349(10) 0.01027 315.1 14.8
289(9) 0.01225 315.1 14.3
335(10) 0.00972 315.1 13.9
349(10) 0.00981 315.1 13.4
320(9) 0.01152 315.1 13.0
337(10) 0.01089 315.1 12.7
316(10) 0.01079 315.1 12.4
324(10) 0.00991 315.2 12.1
319(10) 0.01094 315.2 11.8
321(9) 0.01154 315.2 11.5
308(9) 0.01163 315.2 11.3
330(10) 0.01001 315.2 11.1
327(10) 0.01022 315.2 10.9
333(10) 0.00975 315.2 10.7
332(9) 0.01119 315.2 10.5
332(10) 0.01084 315.2 10.3
326(10) 0.01047 315.2 10.2
330(10) 0.01007 315.3 10.1
329(10) 0.01051 315.3 9.9
319(9) 0.01151 315.3 9.8
313(9) 0.01130 315.3 9.7
314(10) 0.01068 315.3 9.7
334(10) 0.00991 315.3 9.6
334(10) 0.01070 315.3 9.5
305(9) 0.01235 315.3 9.5
329(10) 0.01044 315.3 9.4
313(9) 0.01120 315.4 9.4
321(10) 0.01073 315.4 9.3
323(10) 0.01108 315.4 9.3
311(9) 0.01184 315.4 9.3
299(9) 0.01126 315.4 9.3
320(10) 0.01023 315.4 9.3
331(10) 0.01029 315.4 9.3
312(9) 0.01173 315.4 9.4
304(9) 0.01227 315.4 9.4
283(9) 0.01260 315.4 9.5
330(10) 0.00981 315.5 9.5
337(10) 0.01009 315.5 9.6
327(9) 0.01122 315.5 9.6
357(10) 0.01038 315.5 9.7
322(10) 0.01083 315.5 9.8
334(10) 0.00976 315.5 9.9
352(10) 0.00982 315.5 10.0
316(9) 0.01175 315.5 10.2
360(10) 0.01039 315.5 10.3
333(10) 0.01047 315.6 10.4
317(10) 0.00995 315.6 10.6
307(9) 0.01112 315.6 10.8
306(9) 0.01200 315.6 11.0
331(9) 0.01133 315.6 11.2
329(10) 0.01020 315.6 11.4
321(10) 0.01039 315.6 11.7
339(10) 0.01015 315.6 11.9
345(10) 0.01069 315.6 12.2
330(9) 0.01121 315.6 12.5
331(10) 0.01042 315.7 12.9
357(11) 0.00876 315.7 13.2
323(10) 0.01098 315.7 13.6
328(9) 0.01140 315.7 14.1
330(10) 0.01075 315.7 14.5
333(10) 0.01071 315.7 15.1
334(10) 0.01045 315.7 15.6
340(10) 0.01042 315.7 16.2
337(9) 0.01110 315.7 16.9
349(10) 0.01051 315.8 17.6
328(10) 0.01070 315.8 18.4
350(10) 0.00942 315.8 19.3
339(10) 0.01021 315.8 20.2
337(9) 0.01117 315.8 21.2
318(10) 0.01102 315.8 22.3
335(10) 0.01037 315.8 23.5
326(10) 0.01080 315.8 24.8
343(10) 0.01048 315.8 26.2
384(10) 0.00964 315.8 27.8
368(10) 0.00936 315.9 29.4
348(10) 0.00972 315.9 31.2
357(10) 0.00979 315.9 33.1
384(10) 0.00925 315.9 35.1
334(9) 0.01122 315.9 37.3
345(10) 0.01018 315.9 39.5
354(10) 0.00966 315.9 41.9
355(10) 0.00971 315.9 44.4
359(10) 0.01002 315.9 47.0
380(10) 0.00971 316.0 49.7
386(10) 0.00913 316.0 52.3
390(11) 0.00880 316.0 55.0
401(11) 0.00878 316.0 57.6
393(10) 0.00941 316.0 60.1
414(11) 0.00905 316.0 62.4
397(11) 0.00883 316.0 64.5
407(11) 0.00802 316.0 66.4
405(11) 0.00857 316.0 68.0
400(10) 0.00919 316.0 69.3
391(10) 0.00959 316.1 70.4
431(11) 0.00817 316.1 71.1
430(12) 0.00744 316.1 71.7
393(11) 0.00903 316.1 72.1
415(11) 0.00882 316.1 72.5
383(10) 0.00974 316.1 72.8
384(10) 0.00934 316.1 73.1
377(11) 0.00902 316.1 73.4
369(10) 0.00965 316.1 73.9
405(10) 0.00908 316.2 74.5
384(10) 0.00965 316.2 75.2
389(11) 0.00849 316.2 76.1
411(11) 0.00776 316.2 77.1
408(11) 0.00855 316.2 78.2
410(11) 0.00906 316.2 79.4
416(11) 0.00861 316.2 80.7
365(10) 0.00956 316.2 81.9
406(11) 0.00815 316.2 83.2
416(11) 0.00829 316.3 84.3
427(11) 0.00884 316.3 85.4
403(11) 0.00893 316.3 86.1
395(10) 0.00912 316.3 86.7
423(11) 0.00792 316.3 86.9
395(11) 0.00871 316.3 86.7
425(11) 0.00878 316.3 86.2
414(11) 0.00883 316.3 85.3
412(11) 0.00821 316.3 83.9
424(11) 0.00780 316.3 82.3
386(10) 0.00917 316.4 80.2
419(11) 0.00887 316.4 77.9
397(11) 0.00871 316.4 75.4
400(11) 0.00849 316.4 72.7
411(11) 0.00828 316.4 69.8
383(10) 0.00945 316.4 66.8
397(10) 0.00941 316.4 63.8
365(10) 0.00954 316.4 60.8
364(11) 0.00903 316.4 57.9
346(10) 0.01016 316.5 55.0
355(10) 0.01015 316.5 52.1
368(10) 0.01003 316.5 49.4
351(10) 0.00982 316.5 46.8
350(10) 0.00985 316.5 44.3
362(10) 0.00933 316.5 41.9
344(10) 0.01046 316.5 39.6
357(10) 0.01053 316.5 37.5
339(10) 0.01063 316.5 35.5
348(10) 0.00946 316.5 33.6
326(9) 0.01122 316.6 31.8
363(10) 0.01020 316.6 30.1
370(10) 0.01005 316.6 28.6
347(10) 0.00997 316.6 27.1
314(10) 0.01030 316.6 25.8
329(10) 0.01070 316.6 24.5
347(10) 0.01064 316.6 23.4
332(9) 0.01109 316.6 22.3
338(10) 0.01035 316.6 21.3
361(11) 0.00874 316.7 20.4
337(10) 0.01042 316.7 19.5
336(10) 0.01092 316.7 18.8
324(9) 0.01137 316.7 18.0
306(9) 0.01120 316.7 17.4
315(10) 0.01062 316.7 16.8
333(10) 0.01030 316.7 16.2
316(9) 0.01175 316.7 15.7
323(9) 0.01143 316.7 15.2
325(10) 0.01033 316.7 14.8
316(10) 0.01034 316.8 14.4
321(10) 0.01061 316.8 14.0
320(9) 0.01159 316.8 13.7
309(9) 0.01192 316.8 13.4
344(10) 0.01014 316.8 13.1
337(10) 0.01003 316.8 12.9
327(10) 0.01045 316.8 12.6
338(10) 0.01104 316.8 12.4
319(9) 0.01137 316.8 12.2
321(10) 0.01055 316.9 12.1
308(10) 0.01105 316.9 11.9
344(10) 0.01000 316.9 11.8
320(9) 0.01150 316.9 11.7
326(9) 0.01120 316.9 11.6
335(10) 0.01045 316.9 11.6
340(10) 0.01022 317.0 11.5
324(9) 0.01116 317.0 11.5
324(9) 0.01160 317.0 11.5
317(10) 0.01060 317.1 11.5
336(10) 0.01003 317.1 11.5
326(10) 0.01055 317.1 11.6
314(9) 0.01169 317.2 11.6
327(9) 0.01139 317.2 11.7
328(10) 0.01064 317.2 11.9
326(10) 0.01030 317.3 12.0
319(9) 0.01110 317.3 12.2
339(10) 0.01076 317.3 12.4
323(9) 0.01157 317.3 12.7
326(10) 0.01068 317.4 13.0
339(10) 0.00972 317.4 13.4
334(10) 0.01025 317.4 13.9
305(9) 0.01200 317.5 14.5
326(9) 0.01144 317.5 15.4
335(10) 0.01061 317.5 17.0
337(10) 0.00949 317.6 19.9
327(10) 0.01043 317.6 25.5
336(10) 0.01087 317.6 35.2
345(10) 0.01070 317.7 50.3
373(10) 0.00946 317.7 69.9
412(11) 0.00783 317.7 90.1
424(11) 0.00828 317.8 104.4
427(11) 0.00864 317.8 105.9
403(11) 0.00898 317.8 94.2
364(10) 0.00931 317.8 75.7
342(10) 0.00973 317.9 57.2
360(10) 0.00949 317.9 43.0
357(10) 0.01054 317.9 34.1
354(10) 0.01045 318.0 29.6
342(10) 0.01048 318.0 28.0
319(10) 0.01033 318.0 27.9
331(10) 0.01001 318.1 28.6
363(10) 0.01002 318.1 29.6
348(10) 0.01021 318.1 30.8
347(10) 0.01017 318.2 32.2
374(11) 0.00895 318.2 33.7
377(11) 0.00886 318.2 35.3
356(10) 0.01036 318.3 36.9
396(10) 0.00920 318.3 38.7
374(10) 0.00922 318.3 40.4
355(10) 0.00954 318.4 42.2
384(11) 0.00867 318.4 44.0
391(10) 0.00952 318.4 45.7
397(11) 0.00898 318.4 47.3
419(11) 0.00786 318.5 48.8
384(11) 0.00882 318.5 50.2
391(10) 0.00922 318.5 51.3
379(10) 0.00983 318.6 52.3
354(10) 0.00979 318.6 52.9
391(11) 0.00864 318.6 53.3
392(11) 0.00895 318.7 53.3
415(11) 0.00849 318.7 53.0
389(10) 0.00946 318.7 52.4
374(10) 0.00917 318.8 51.6
369(11) 0.00872 318.8 50.4
348(10) 0.01004 318.8 49.1
355(10) 0.01020 318.9 47.6
358(10) 0.01035 318.9 45.9
364(10) 0.00936 318.9 44.1
372(11) 0.00849 319.0 42.2
357(10) 0.00953 319.0 40.3
355(10) 0.01024 319.0 38.4
375(10) 0.00977 319.0 36.5
368(10) 0.00941 319.1 34.7
326(10) 0.01080 319.1 32.9
374(10) 0.00925 319.1 31.1
348(10) 0.01055 319.2 29.4
354(10) 0.01054 319.2 27.8
362(10) 0.00928 319.2 26.3
333(10) 0.00957 319.3 24.8
342(10) 0.01015 319.3 23.5
360(10) 0.01024 319.3 22.2
365(10) 0.01011 319.4 21.0
346(10) 0.01017 319.4 19.8
357(11) 0.00895 319.4 18.8
366(10) 0.00946 319.5 17.8
351(10) 0.01061 319.5 16.9
326(9) 0.01120 319.5 16.0
326(10) 0.01084 319.5 15.2
325(10) 0.01040 319.6 14.5
320(10) 0.01094 319.6 13.8
340(10) 0.01095 319.6 13.2
326(9) 0.01116 319.7 12.6
316(9) 0.01110 319.7 12.1
325(10) 0.01011 319.7 11.6
315(9) 0.01111 319.8 11.2
335(9) 0.01114 319.8 10.8
352(10) 0.01012 319.8 10.4
330(10) 0.01063 319.9 10.1
341(10) 0.00995 319.9 9.8
346(10) 0.00995 319.9 9.5
330(9) 0.01133 320.0 9.2
352(10) 0.00991 320.0 9.0
332(10) 0.01037 320.0 8.8
334(10) 0.01013 320.1 8.6
322(9) 0.01122 320.1 8.5
325(9) 0.01143 320.1 8.3
335(10) 0.01083 320.1 8.2
327(10) 0.01071 320.2 8.1
323(10) 0.01086 320.2 8.0
337(10) 0.01065 320.2 7.9
324(9) 0.01157 320.3 7.8
330(10) 0.01022 320.3 7.7
323(10) 0.01024 320.3 7.6
318(10) 0.01067 320.4 7.6
325(10) 0.01084 320.4 7.5
333(10) 0.01107 320.4 7.4
367(10) 0.00957 320.5 7.3
315(10) 0.01051 320.5 7.2
318(10) 0.01081 320.5 7.1
316(9) 0.01172 320.6 6.9
323(9) 0.01153 320.6 6.8
356(10) 0.00999 320.6 6.7
333(10) 0.00986 320.6 6.5
326(10) 0.01075 320.7 6.4
326(9) 0.01114 320.7 6.3
309(9) 0.01211 320.7 6.2
315(10) 0.01095 320.8 6.0
320(10) 0.01004 320.8 5.9
324(10) 0.01075 320.8 5.8
337(10) 0.01094 320.9 5.8
313(9) 0.01177 320.9 5.7
309(10) 0.01069 320.9 5.6
297(10) 0.01079 321.0 5.5
325(10) 0.01085 321.0 5.5
332(10) 0.01104 321.0 5.5
325(9) 0.01148 321.1 5.5
323(10) 0.01095 321.1 5.4
334(10) 0.00980 321.1 5.5
320(10) 0.01080 321.2 5.5
295(9) 0.01261 321.2 5.5
310(9) 0.01186 321.2 5.6
325(10) 0.01067 321.2 5.7
312(10) 0.01055 321.3 5.8
317(10) 0.01063 321.3 6.0
308(9) 0.01211 321.3 6.1
330(9) 0.01120 321.4 6.4
354(10) 0.00936 321.4 6.7
327(10) 0.01021 321.4 7.1
345(10) 0.00961 321.5 7.5
324(9) 0.01140 321.5 8.2
327(10) 0.01101 321.5 9.1
314(10) 0.01072 321.6 10.7
347(10) 0.00946 321.6 13.3
348(10) 0.01006 321.6 18.0
361(10) 0.01034 321.7 26.0
372(10) 0.00969 321.7 38.8
419(11) 0.00813 321.7 57.1
457(12) 0.00745 321.7 80.0
497(12) 0.00705 321.8 104.0
535(12) 0.00693 321.8 122.5
521(12) 0.00665 321.8 127.4
482(12) 0.00710 321.9 116.1
445(11) 0.00789 321.9 94.4
406(11) 0.00892 321.9 70.4
363(10) 0.01030 322.0 49.2
345(10) 0.01023 322.0 33.2
355(11) 0.00879 322.0 22.6
331(10) 0.01038 322.1 16.2
326(9) 0.01140 322.1 12.5
327(9) 0.01129 322.1 10.5
336(10) 0.01019 322.2 9.4
311(10) 0.01103 322.2 8.6
340(10) 0.01014 322.2 8.1
355(10) 0.01042 322.3 7.8
327(9) 0.01124 322.3 7.5
350(10) 0.00978 322.3 7.3
323(10) 0.01013 322.3 7.2
337(10) 0.01010 322.4 7.1
319(9) 0.01150 322.4 7.0
310(9) 0.01192 322.4 7.0
333(10) 0.01011 322.5 7.0
352(11) 0.00878 322.5 7.0
341(10) 0.00988 322.5 7.0
304(9) 0.01198 322.6 7.1
297(9) 0.01260 322.6 7.1
338(10) 0.00988 322.6 7.2
334(10) 0.00945 322.7 7.3
357(10) 0.00950 322.7 7.4
325(9) 0.01148 322.7 7.4
325(10) 0.01098 322.8 7.5
346(10) 0.00961 322.8 7.6
328(10) 0.01020 322.8 7.7
349(10) 0.00999 322.9 7.7
336(10) 0.01098 322.9 7.8
344(10) 0.01032 322.9 7.8
338(10) 0.00996 322.9 7.9
336(10) 0.01010 323.0 7.9
318(10) 0.01107 323.0 7.9
312(9) 0.01184 323.0 7.9
316(9) 0.01131 323.1 7.9
318(10) 0.01080 323.1 7.9
330(10) 0.00983 323.1 7.8
302(9) 0.01162 323.2 7.8
327(9) 0.01126 323.2 7.7
325(10) 0.01097 323.2 7.6
320(10) 0.01029 323.3 7.5
330(10) 0.01014 323.3 7.5
332(10) 0.01086 323.3 7.4
320(9) 0.01166 323.4 7.3
323(10) 0.01100 323.4 7.2
330(10) 0.01017 323.4 7.1
351(10) 0.00957 323.4 7.1
333(10) 0.01100 323.5 7.1
354(10) 0.01045 323.5 7.1
342(10) 0.01017 323.5 7.3
361(10) 0.00923 323.6 7.8
352(10) 0.01006 323.6 8.6
353(10) 0.01012 323.6 10.1
352(10) 0.01065 323.7 12.2
375(10) 0.00916 323.7 14.9
365(10) 0.00941 323.7 17.9
398(11) 0.00874 323.8 20.5
414(11) 0.00881 323.8 21.6
362(10) 0.01039 323.8 20.7
363(10) 0.00940 323.9 18.2
336(10) 0.00995 323.9 15.0
366(10) 0.00937 323.9 11.9
331(9) 0.01138 324.0 9.5
340(10) 0.01084 324.0 7.7
327(10) 0.01032 324.0 6.5
348(10) 0.00924 324.0 5.8
346(10) 0.00970 324.1 5.3
320(9) 0.01132 324.1 5.0
306(9) 0.01220 324.1 4.8
339(10) 0.01026 324.2 4.7
347(10) 0.00965 324.2 4.6
350(10) 0.00993 324.2 4.5
314(9) 0.01190 324.3 4.5
309(9) 0.01180 324.3 4.4
307(9) 0.01141 324.3 4.4
327(10) 0.01010 324.4 4.4
329(10) 0.01072 324.4 4.3
345(10) 0.01088 324.4 4.3
349(10) 0.01023 324.5 4.3
311(9) 0.01154 324.5 4.4
295(9) 0.01191 324.5 4.4
317(10) 0.01079 324.5 4.5
314(9) 0.01187 324.6 4.5
341(10) 0.01050 324.6 4.6
326(10) 0.01070 324.6 4.7
329(10) 0.01048 324.7 4.7
313(9) 0.01120 324.7 4.9
315(9) 0.01184 324.7 5.0
313(9) 0.01176 324.8 5.1
336(10) 0.01008 324.8 5.3
323(10) 0.01099 324.8 5.4
323(10) 0.01102 324.9 5.6
345(10) 0.01092 324.9 5.8
318(10) 0.01106 324.9 6.0
318(10) 0.01065 325.0 6.2
316(9) 0.01127 325.0 6.4
346(10) 0.01036 325.0 6.7
357(10) 0.01036 325.1 6.9
345(10) 0.01003 325.1 7.2
344(10) 0.00965 325.1 7.4
338(10) 0.01011 325.1 7.7
349(10) 0.01014 325.2 7.9
334(10) 0.01105 325.2 8.1
342(10) 0.00997 325.2 8.3
342(10) 0.00935 325.3 8.5
330(10) 0.01068 325.3 8.6
317(9) 0.01171 325.3 8.7
314(9) 0.01186 325.4 8.8
337(10) 0.01037 325.4 8.8
325(10) 0.01001 325.4 8.8
337(10) 0.01052 325.5 8.7
346(10) 0.01066 325.5 8.6
329(9) 0.01121 325.5 8.4
342(10) 0.01017 325.5 8.3
322(10) 0.00977 325.5 8.1
341(10) 0.01013 325.5 7.9
353(10) 0.01062 325.5 7.7
312(9) 0.01195 325.5 7.5
311(10) 0.01085 325.5 7.3
322(10) 0.00996 325.4 7.1
342(10) 0.01009 325.4 6.9
320(9) 0.01156 325.4 6.8
342(10) 0.01087 325.4 6.6
345(10) 0.00989 325.4 6.5
310(10) 0.01098 325.4 6.4
317(10) 0.01103 325.3 6.3
314(9) 0.01182 325.3 6.2
319(9) 0.01133 325.3 6.2
338(10) 0.01059 325.3 6.1
327(10) 0.01006 325.3 6.1
323(10) 0.01057 325.3 6.1
343(10) 0.01088 325.3 6.1
317(10) 0.01098 325.2 6.1
309(9) 0.01146 325.2 6.2
335(10) 0.01009 325.2 6.3
334(10) 0.01045 325.2 6.4
317(9) 0.01179 325.2 6.5
326(10) 0.01058 325.2 6.6
328(10) 0.01063 325.1 6.8
327(10) 0.01034 325.1 7.0
306(9) 0.01156 325.1 7.2
304(9) 0.01240 325.1 7.4
332(10) 0.01072 325.1 7.7
350(10) 0.00982 325.1 8.0
326(10) 0.01079 325.1 8.3
320(9) 0.01115 325.0 8.6
302(9) 0.01225 325.0 9.0
330(10) 0.01056 325.0 9.4
351(10) 0.00959 325.0 9.8
296(9) 0.01220 325.0 10.3
337(10) 0.01056 325.0 10.8
333(9) 0.01115 324.9 11.3
350(10) 0.00929 324.9 11.9
307(10) 0.01086 324.9 12.5
320(10) 0.01093 324.9 13.1
334(10) 0.01073 324.9 13.8
333(9) 0.01118 324.9 14.4
371(10) 0.00938 324.8 15.1
343(10) 0.00963 324.8 15.9
342(10) 0.01023 324.8 16.6
365(10) 0.01003 324.8 17.3
339(10) 0.01079 324.8 18.0
327(10) 0.01038 324.8 18.7
321(10) 0.01028 324.8 19.4
344(10) 0.01014 324.7 20.0
351(10) 0.01063 324.7 20.5
373(10) 0.00998 324.7 21.0
345(10) 0.01022 324.7 21.5
319(10) 0.01036 324.7 21.8
323(10) 0.01098 324.7 22.1
345(10) 0.01072 324.6 22.4
339(10) 0.01081 324.6 22.6
341(10) 0.01013 324.6 22.8
334(10) 0.00975 324.6 23.2
330(10) 0.01058 324.6 23.6
372(10) 0.01008 324.6 24.4
365(10) 0.01000 324.6 25.7
368(10) 0.00934 324.5 27.9
359(10) 0.00916 324.5 31.3
344(10) 0.01006 324.5 36.5
374(10) 0.00998 324.5 43.7
367(10) 0.00995 324.5 53.2
373(10) 0.00946 324.5 64.6
406(11) 0.00805 324.4 77.0
381(11) 0.00902 324.4 88.2
423(11) 0.00880 324.4 95.3
396(11) 0.00892 324.4 95.4
361(10) 0.00941 324.4 88.6
371(10) 0.00916 324.4 77.3
377(10) 0.00950 324.4 64.4
365(10) 0.01011 324.3 52.1
347(10) 0.01010 324.3 41.5
360(10) 0.00955 324.3 33.1
323(9) 0.01114 324.3 26.8
345(10) 0.01033 324.3 22.3
333(9) 0.01114 324.3 19.2
337(10) 0.01029 324.2 17.0
345(10) 0.00951 324.2 15.6
326(10) 0.01035 324.2 14.5
344(10) 0.01037 324.2 13.8
330(9) 0.01125 324.2 13.2
353(10) 0.00977 324.2 12.9
349(10) 0.00964 324.2 12.6
355(10) 0.00947 324.1 12.4
355(10) 0.01015 324.1 12.3
316(9) 0.01191 324.1 12.3
332(10) 0.01026 324.1 12.4
360(11) 0.00874 324.1 12.5
334(10) 0.01058 324.1 12.7
338(10) 0.01079 324.0 13.1
334(9) 0.01112 324.0 13.5
330(10) 0.01066 324.0 14.1
323(10) 0.00990 324.0 14.9
333(10) 0.01042 324.0 15.9
346(10) 0.01076 324.0 17.2
348(10) 0.01047 323.9 18.9
331(10) 0.01061 323.9 20.9
321(10) 0.01012 323.9 23.4
325(10) 0.01071 323.9 26.3
348(10) 0.01043 323.9 29.6
351(10) 0.01058 323.9 33.3
346(10) 0.01011 323.9 37.2
344(10) 0.00958 323.8 40.9
350(10) 0.00991 323.8 43.8
338(10) 0.01093 323.8 45.5
333(9) 0.01113 323.8 45.5
332(10) 0.01058 323.8 43.8
324(10) 0.01077 323.8 40.7
358(10) 0.01005 323.7 37.0
316(9) 0.01164 323.7 33.0
329(10) 0.01083 323.7 29.2
349(10) 0.00971 323.7 25.7
330(10) 0.01022 323.7 22.6
362(10) 0.00950 323.7 20.0
351(10) 0.01057 323.7 17.8
332(10) 0.01082 323.6 16.0
329(10) 0.01070 323.6 14.5
348(10) 0.00972 323.6 13.3
342(10) 0.01005 323.6 12.3
356(10) 0.01054 323.6 11.5
336(10) 0.01053 323.6 10.8
316(10) 0.01078 323.5 10.2
329(10) 0.01031 323.5 9.7
311(9) 0.01156 323.5 9.2
311(9) 0.01192 323.5 8.8
345(10) 0.00999 323.5 8.5
319(10) 0.01042 323.5 8.1
331(10) 0.01011 323.5 7.8
317(9) 0.01172 323.4 7.5
324(10) 0.01024 323.4 7.2
327(10) 0.01028 323.4 7.0
320(10) 0.01088 323.4 6.8
339(10) 0.01024 323.4 6.5
325(9) 0.01140 323.4 6.3
328(10) 0.01046 323.3 6.1
317(10) 0.01074 323.3 6.0
332(10) 0.01077 323.3 5.8
338(10) 0.01076 323.3 5.6
321(9) 0.01161 323.3 5.5
326(10) 0.01021 323.3 5.3
307(10) 0.01076 323.2 5.2
342(10) 0.00985 323.2 5.1
336(10) 0.01095 323.2 5.0
351(10) 0.01050 323.2 4.9
328(10) 0.01022 323.2 4.8
337(10) 0.00943 323.2 4.7
347(10) 0.00986 323.2 4.6
327(9) 0.01134 323.1 4.5
345(10) 0.01066 323.1 4.4
317(9) 0.01117 323.1 4.3
315(10) 0.01043 323.1 4.3
323(10) 0.01049 323.1 4.2
341(10) 0.01107 323.1 4.2
330(9) 0.01110 323.0 4.1
311(9) 0.01130 323.0 4.1
320(10) 0.01042 323.0 4.0
324(10) 0.01051 323.0 4.0
318(9) 0.01174 323.0 3.9
344(10) 0.01049 323.0 3.9
330(10) 0.01063 323.0 3.9
290(9) 0.01173 322.9 3.8
314(10) 0.01096 322.9 3.8
341(10) 0.01088 322.9 3.8
329(10) 0.01062 322.9 3.8
315(10) 0.01077 322.9 3.7
322(10) 0.01016 322.9 3.7
325(10) 0.01072 322.8 3.7
332(9) 0.01122 322.8 3.7
331(10) 0.01053 322.8 3.7
305(9) 0.01145 322.8 3.7
335(10) 0.01019 322.8 3.7
317(9) 0.01157 322.8 3.7
351(10) 0.01067 322.8 3.7
348(10) 0.01022 322.7 3.7
353(10) 0.00960 322.7 3.7
347(10) 0.01007 322.7 3.7
349(10) 0.01019 322.7 3.8
321(9) 0.01173 322.7 3.8
317(9) 0.01114 322.7 3.8
297(9) 0.01156 322.6 3.8
317(10) 0.01084 322.6 3.8
337(10) 0.01073 322.6 3.9
335(9) 0.01111 322.6 3.9
329(10) 0.01063 322.6 3.9
332(10) 0.00994 322.6 4.0
331(10) 0.01060 322.6 4.0
344(10) 0.01069 322.5 4.0
323(9) 0.01141 322.5 4.1
338(10) 0.01038 322.5 4.1
355(10) 0.00935 322.5 4.2
357(10) 0.00990 322.5 4.2
331(9) 0.01123 322.5 4.3
327(9) 0.01146 322.4 4.4
324(10) 0.01074 322.4 4.4
324(10) 0.01010 322.4 4.5
326(10) 0.01042 322.4 4.5
317(9) 0.01175 322.4 4.6
358(10) 0.01042 322.4 4.7
354(10) 0.00948 322.3 4.8
316(10) 0.01020 322.3 4.9
327(10) 0.01056 322.3 5.0
340(10) 0.01086 322.3 5.1
333(9) 0.01115 322.3 5.2
349(10) 0.00996 322.3 5.3
331(10) 0.00967 322.3 5.4
328(10) 0.01075 322.2 5.5
330(9) 0.01128 322.2 5.6
338(10) 0.01083 322.2 5.7
329(10) 0.01045 322.2 5.9
342(10) 0.00960 322.2 6.0
334(10) 0.01011 322.2 6.2
326(9) 0.01141 322.1 6.3
323(9) 0.01132 322.1 6.5
308(9) 0.01136 322.1 6.7
331(10) 0.01008 322.1 6.9
327(10) 0.01038 322.1 7.1
349(10) 0.01066 322.1 7.3
320(10) 0.01072 322.1 7.5
355(10) 0.00936 322.0 7.7
322(10) 0.01078 322.0 7.9
332(10) 0.01045 322.0 8.2
332(9) 0.01125 322.0 8.5
341(10) 0.01056 322.0 8.8
323(10) 0.01090 322.0 9.1
333(10) 0.01040 321.9 9.4
346(10) 0.01012 321.9 9.8
366(10) 0.01020 321.9 10.2
338(10) 0.01028 321.9 10.6
345(10) 0.00945 321.9 11.0
338(10) 0.01012 321.9 11.5
349(10) 0.01023 321.9 12.1
353(10) 0.01055 321.8 12.7
350(10) 0.00977 321.8 13.3
337(10) 0.01034 321.8 14.1
340(10) 0.01048 321.8 14.9
333(9) 0.01121 321.8 15.9
336(10) 0.01105 321.8 17.0
374(10) 0.00921 321.7 18.3
357(11) 0.00898 321.7 19.8
351(10) 0.00982 321.7 21.7
345(10) 0.01081 321.7 24.1
356(10) 0.01039 321.7 27.4
366(10) 0.00979 321.7 32.1
372(11) 0.00889 321.7 39.1
390(10) 0.00912 321.6 49.4
418(11) 0.00888 321.6 64.6
402(10) 0.00925 321.6 85.6
431(11) 0.00812 321.6 113.2
457(12) 0.00710 321.6 146.6
509(12) 0.00667 321.6 182.9
535(12) 0.00695 321.5 216.9
539(12) 0.00688 321.5 243.0
527(12) 0.00665 321.5 258.8
538(13) 0.00598 321.5 261.8
512(12) 0.00697 321.5 250.0
520(12) 0.00721 321.5 226.0
467(11) 0.00782 321.4 197.6
440(11) 0.00816 321.4 171.9
450(12) 0.00743 321.4 152.2
428(11) 0.00818 321.4 138.5
432(11) 0.00865 321.4 128.4
420(11) 0.00869 321.4 118.6
441(11) 0.00767 321.4 107.6
384(11) 0.00893 321.3 96.3
409(11) 0.00831 321.3 86.4
385(10) 0.00966 321.3 78.8
403(11) 0.00866 321.3 74.3
369(10) 0.00920 321.3 72.7
413(11) 0.00810 321.3 74.1
387(10) 0.00924 321.2 77.9
411(10) 0.00911 321.2 83.8
414(11) 0.00868 321.2 91.3
388(10) 0.00913 321.2 99.8
417(11) 0.00827 321.2 108.5
434(11) 0.00817 321.2 116.6
450(11) 0.00827 321.2 123.0
422(11) 0.00840 321.1 126.6
443(11) 0.00772 321.1 126.7
435(11) 0.00781 321.1 123.1
424(11) 0.00831 321.1 116.5
414(11) 0.00898 321.1 107.6
437(11) 0.00778 321.1 97.5
412(11) 0.00832 321.0 87.0
383(10) 0.00954 321.0 77.0
386(10) 0.00945 321.0 67.5
374(10) 0.00985 321.0 59.0
369(10) 0.00947 321.0 51.5
358(10) 0.00914 321.0 44.9
343(10) 0.01033 321.0 39.3
364(10) 0.00983 320.9 34.6
350(10) 0.01066 320.9 30.6
343(10) 0.01014 320.9 27.2
329(10) 0.01001 320.9 24.4
345(10) 0.01003 320.9 22.1
324(9) 0.01117 320.9 20.2
340(10) 0.01078 320.8 18.5
329(10) 0.01049 320.8 17.2
324(10) 0.00965 320.8 16.0
318(10) 0.01093 320.8 15.0
322(9) 0.01156 320.8 14.1
346(10) 0.01049 320.8 13.4
312(9) 0.01132 320.8 12.7
314(10) 0.01047 320.7 12.1
321(9) 0.01124 320.7 11.6
359(10) 0.01044 320.7 11.1
324(9) 0.01139 320.7 10.7
352(10) 0.00981 320.7 10.3
346(10) 0.00957 320.7 10.0
336(10) 0.01042 320.6 9.7
334(9) 0.01118 320.6 9.4
311(9) 0.01151 320.6 9.2
345(10) 0.00965 320.6 8.9
337(10) 0.00968 320.6 8.8
322(10) 0.01033 320.6 8.6
337(10) 0.01098 320.5 8.4
348(10) 0.00999 320.5 8.3
325(10) 0.01030 320.5 8.2
311(9) 0.01117 320.5 8.1
336(10) 0.01023 320.5 8.1
325(9) 0.01149 320.5 8.0
316(9) 0.01113 320.5 8.0
326(10) 0.01010 320.4 8.0
315(10) 0.01054 320.4 8.0
319(10) 0.01107 320.4 8.0
325(9) 0.01132 320.4 8.1
325(10) 0.01095 320.4 8.2
348(10) 0.00980 320.4 8.3
332(10) 0.01042 320.3 8.5
336(10) 0.01074 320.3 8.7
350(10) 0.01059 320.3 9.1
347(10) 0.00974 320.3 9.5
345(10) 0.00964 320.3 10.0
304(9) 0.01148 320.3 10.6
321(9) 0.01130 320.3 11.5
345(10) 0.01072 320.2 12.5
325(10) 0.01097 320.2 13.7
332(10) 0.00996 320.2 15.1
331(10) 0.01086 320.2 16.7
318(9) 0.01142 320.2 18.5
328(9) 0.01144 320.2 20.3
348(10) 0.01006 320.1 22.0
339(10) 0.00964 320.1 23.4
349(10) 0.00963 320.1 24.2
350(10) 0.01040 320.1 24.3
348(10) 0.01065 320.1 23.7
337(10) 0.01055 320.1 22.4
347(10) 0.00939 320.1 20.9
354(10) 0.00993 320.0 19.2
332(9) 0.01133 320.0 17.6
349(10) 0.01054 320.0 16.1
350(10) 0.00991 320.0 14.8
297(9) 0.01168 320.0 13.8
334(10) 0.01069 320.0 12.9
320(9) 0.01167 319.9 12.2
323(9) 0.01157 319.9 11.7
311(9) 0.01131 319.9 11.3
298(9) 0.01118 319.9 11.0
313(10) 0.01102 319.9 10.8
321(9) 0.01145 319.9 10.7
334(10) 0.01083 319.8 10.7
328(10) 0.01064 319.8 10.7
321(10) 0.01020 319.8 10.8
321(10) 0.01048 319.8 10.8
326(9) 0.01122 319.8 10.9
309(9) 0.01179 319.8 11.1
345(10) 0.01007 319.9 11.2
352(10) 0.00958 320.0 11.4
353(10) 0.00984 320.1 11.6
346(10) 0.01071 320.2 11.8
331(10) 0.01101 320.3 12.0
317(10) 0.01091 320.4 12.2
326(10) 0.01005 320.5 12.5
343(10) 0.01003 320.5 12.7
345(10) 0.01081 320.6 13.0
365(10) 0.00991 320.7 13.3
341(10) 0.01004 320.8 13.6
337(10) 0.01030 320.9 13.9
350(10) 0.01022 321.0 14.2
344(10) 0.01082 321.1 14.5
348(10) 0.01024 321.2 14.8
345(10) 0.00998 321.3 15.2
355(10) 0.00939 321.3 15.5
325(9) 0.01109 321.4 15.9
366(10) 0.01018 321.5 16.2
351(10) 0.01001 321.6 16.6
326(10) 0.01027 321.7 17.0
341(10) 0.00983 321.8 17.3
350(10) 0.01035 321.9 17.7
367(10) 0.01012 322.0 18.0
345(10) 0.00965 322.1 18.4
338(10) 0.00990 322.1 18.7
339(10) 0.01053 322.2 18.9
310(9) 0.01194 322.3 19.2
332(9) 0.01111 322.4 19.4
329(10) 0.01065 322.5 19.6
336(10) 0.00996 322.6 19.8
342(10) 0.01012 322.7 20.0
341(10) 0.01088 322.8 20.2
353(10) 0.01043 322.9 20.4
340(10) 0.01012 323.0 20.6
346(10) 0.00909 323.0 20.8
352(10) 0.00994 323.1 21.0
356(10) 0.01043 323.2 21.2
349(10) 0.01059 323.3 21.5
342(10) 0.00975 323.4 21.8
330(10) 0.00974 323.5 22.2
347(10) 0.01021 323.6 22.6
367(10) 0.00994 323.7 23.0
341(10) 0.01080 323.8 23.6
347(10) 0.01000 323.8 24.2
364(11) 0.00899 323.9 24.9
386(11) 0.00906 324.0 25.6
358(10) 0.01022 324.1 26.5
353(10) 0.01028 324.2 27.5
348(10) 0.00968 324.3 28.6
347(10) 0.00963 324.4 29.8
359(10) 0.00946 324.5 31.2
358(10) 0.01031 324.6 32.7
361(10) 0.01001 324.7 34.4
354(10) 0.00968 324.7 36.2
361(10) 0.00940 324.8 38.2
376(10) 0.00954 324.9 40.4
362(10) 0.01013 325.0 42.8
380(10) 0.00926 325.1 45.4
359(10) 0.00937 325.2 48.4
380(11) 0.00897 325.3 52.0
363(10) 0.00960 325.4 56.6
403(10) 0.00928 325.5 62.7
358(10) 0.00977 325.5 71.1
424(12) 0.00751 325.6 82.7
400(11) 0.00859 325.7 98.8
419(11) 0.00868 325.8 120.0
436(11) 0.00850 325.9 147.0
507(12) 0.00662 326.0 179.2
515(12) 0.00658 326.1 214.8
536(12) 0.00643 326.2 249.6
563(13) 0.00626 326.3 276.9
598(13) 0.00620 326.3 289.4
576(13) 0.00589 326.4 284.9
536(13) 0.00628 326.5 268.1
550(13) 0.00638 326.6 246.6
520(12) 0.00704 326.7 226.8
514(12) 0.00708 326.8 211.9
552(13) 0.00635 326.9 202.6
542(13) 0.00595 327.0 198.0
547(12) 0.00642 327.1 195.9
504(12) 0.00738 327.2 193.2
520(12) 0.00711 327.2 187.6
499(12) 0.00679 327.3 177.9
488(13) 0.00627 327.4 164.7
472(12) 0.00743 327.5 149.5
483(11) 0.00773 327.6 133.9
435(11) 0.00848 327.7 118.9
444(11) 0.00777 327.8 105.5
423(11) 0.00772 327.9 93.8
430(11) 0.00823 328.0 83.9
429(11) 0.00874 328.0 75.8
401(11) 0.00903 328.1 69.3
418(11) 0.00803 328.2 64.2
385(11) 0.00871 328.3 60.3
406(11) 0.00867 328.4 57.4
406(10) 0.00911 328.5 55.2
397(10) 0.00912 328.6 53.6
386(11) 0.00888 328.7 52.4
384(11) 0.00855 328.8 51.5
393(11) 0.00892 328.9 50.9
380(10) 0.00976 328.9 50.5
391(11) 0.00907 329.0 50.1
359(10) 0.00989 329.1 49.9
399(11) 0.00855 329.2 49.6
399(11) 0.00863 329.3 49.4
361(10) 0.01027 329.4 49.2
362(10) 0.00977 329.5 49.0
395(11) 0.00878 329.6 48.7
390(11) 0.00871 329.7 48.4
379(10) 0.00949 329.7 48.1
359(10) 0.01040 329.8 47.8
370(10) 0.00963 329.9 47.5
373(11) 0.00894 330.0 47.3
371(10) 0.00918 330.1 47.1
366(10) 0.00988 330.2 47.2
374(10) 0.00989 330.3 47.4
389(11) 0.00892 330.4 48.1
382(11) 0.00873 330.5 49.4
403(11) 0.00858 330.6 51.6
393(11) 0.00904 330.6 54.8
369(10) 0.01019 330.7 59.5
402(11) 0.00896 330.8 65.7
392(11) 0.00870 330.9 73.4
393(11) 0.00882 331.0 82.4
396(10) 0.00919 331.1 91.8
440(11) 0.00844 331.2 100.2
385(10) 0.00911 331.3 105.4
387(11) 0.00866 331.4 105.9
409(11) 0.00863 331.4 101.9
406(11) 0.00906 331.5 95.1
386(10) 0.00947 331.6 87.6
415(11) 0.00869 331.7 80.8
409(11) 0.00812 331.8 75.5
393(11) 0.00895 331.9 71.7
389(10) 0.00967 332.0 69.0
394(10) 0.00927 332.1 66.8
385(11) 0.00861 332.2 64.3
369(11) 0.00905 332.2 61.0
372(10) 0.00940 332.3 56.8
389(10) 0.00955 332.4 52.0
381(10) 0.00956 332.5 46.9
376(10) 0.00956 332.6 42.0
374(11) 0.00886 332.7 37.4
360(10) 0.00982 332.8 33.3
361(10) 0.01034 332.9 29.7
363(10) 0.01008 333.0 26.6
369(10) 0.00948 333.1 24.0
370(11) 0.00880 333.1 21.8
365(10) 0.00950 333.2 19.9
358(10) 0.01042 333.3 18.4
353(10) 0.01040 333.4 17.1
365(10) 0.00967 333.5 16.0
356(10) 0.00938 333.6 15.1
323(10) 0.01085 333.7 14.3
358(10) 0.01018 333.8 13.6
363(10) 0.00964 333.9 13.0
349(10) 0.00980 333.9 12.4
371(10) 0.00925 334.0 11.9
362(10) 0.01012 334.1 11.4
322(9) 0.01155 334.2 11.0
336(10) 0.01041 334.3 10.6
340(10) 0.01023 334.4 10.3
338(10) 0.01023 334.5 9.9
345(10) 0.01007 334.6 9.6
345(10) 0.01087 334.7 9.4
326(10) 0.01083 334.8 9.1
343(10) 0.00983 334.8 8.8
349(10) 0.00980 334.9 8.6
303(9) 0.01205 335.0 8.4
354(10) 0.01056 335.1 8.2
371(10) 0.00950 335.2 8.0
358(10) 0.00926 335.3 7.8
346(10) 0.01036 335.4 7.7
327(9) 0.01131 335.5 7.5
326(9) 0.01140 335.6 7.4
329(10) 0.01073 335.6 7.2
352(11) 0.00889 335.7 7.1
338(10) 0.01016 335.8 7.0
337(10) 0.01093 335.9 6.9
357(10) 0.01019 336.0 6.7
355(10) 0.00993 336.1 6.6
338(10) 0.00930 336.2 6.5
319(10) 0.01067 336.3 6.4
329(9) 0.01126 336.4 6.4
344(10) 0.01067 336.4 6.3
345(10) 0.00986 336.5 6.2
324(10) 0.01016 336.6 6.1
329(10) 0.01045 336.7 6.0
319(9) 0.01165 336.8 6.0
363(10) 0.01000 336.9 5.9
351(10) 0.01009 337.0 5.8
352(10) 0.00945 337.1 5.8
342(10) 0.01038 337.2 5.7
355(10) 0.01046 337.3 5.6
315(9) 0.01141 337.3 5.6
325(10) 0.01022 337.4 5.5
337(10) 0.00949 337.5 5.5
367(10) 0.00919 337.6 5.4
351(10) 0.01071 337.7 5.4
345(10) 0.01049 337.8 5.3
332(10) 0.01064 337.9 5.3
344(10) 0.00965 338.0 5.2
312(9) 0.01154 338.1 5.2
333(10) 0.01106 338.1 5.2
341(10) 0.01054 338.2 5.1
336(10) 0.01054 338.3 5.1
339(10) 0.01040 338.4 5.1
341(10) 0.00997 338.5 5.0
352(10) 0.01055 338.6 5.0
373(10) 0.00946 338.7 5.0
318(9) 0.01115 338.8 5.0
337(10) 0.00996 338.9 4.9
360(10) 0.00952 339.0 4.9
318(9) 0.01177 339.0 4.9
336(10) 0.01038 339.1 4.9
333(10) 0.01000 339.2 4.9
347(10) 0.01000 339.3 4.9
338(10) 0.01077 339.4 4.9
324(9) 0.01164 339.5 4.9
348(10) 0.01004 339.6 4.9
313(10) 0.01088 339.7 4.9
310(9) 0.01132 339.8 4.9
349(10) 0.01052 339.8 4.9
353(10) 0.01046 339.9 4.9
346(10) 0.01009 340.0 4.9
369(11) 0.00879 340.1 4.9
350(10) 0.00956 340.2 4.9
343(10) 0.01089 340.3 4.9
352(10) 0.01051 340.4 4.9
351(10) 0.01003 340.5 4.9
375(11) 0.00870 340.6 5.0
347(10) 0.01038 340.7 5.0
329(9) 0.01128 340.7 5.0
355(10) 0.01055 340.8 5.0
343(10) 0.01017 340.9 5.0
342(10) 0.00949 341.0 5.1
334(10) 0.01035 341.1 5.1
348(10) 0.01077 341.2 5.1
336(10) 0.01101 341.3 5.2
338(10) 0.01031 341.4 5.2
328(10) 0.00987 341.5 5.2
348(10) 0.01021 341.5 5.3
354(10) 0.01042 341.6 5.3
315(9) 0.01141 341.7 5.4
326(10) 0.01069 341.8 5.4
365(11) 0.00889 341.9 5.5
331(10) 0.01073 342.0 5.5
340(10) 0.01096 342.1 5.6
326(9) 0.01110 342.2 5.7
350(10) 0.01011 342.3 5.7
350(10) 0.00974 342.3 5.8
333(10) 0.01075 342.4 5.9
349(10) 0.01059 342.5 5.9
362(10) 0.00979 342.6 6.0
346(10) 0.00995 342.7 6.1
324(10) 0.01036 342.8 6.2
347(10) 0.00990 342.9 6.3
339(10) 0.01102 342.9 6.4
325(10) 0.01088 342.9 6.5
358(10) 0.00984 342.9 6.6
374(10) 0.00918 342.9 6.7
358(10) 0.00977 343.0 6.8
358(10) 0.01047 343.0 6.9
348(10) 0.01000 343.0 7.1
346(10) 0.00981 343.0 7.2
335(10) 0.01072 343.0 7.3
351(10) 0.01025 343.1 7.5
338(9) 0.01118 343.1 7.6
317(9) 0.01119 343.1 7.8
344(10) 0.00972 343.1 8.0
358(10) 0.00946 343.1 8.2
350(10) 0.01039 343.2 8.4
347(10) 0.01070 343.2 8.6
350(10) 0.01011 343.2 8.8
332(10) 0.01008 343.2 9.0
356(10) 0.00959 343.2 9.3
333(9) 0.01114 343.3 9.6
349(10) 0.01074 343.3 9.8
335(10) 0.01056 343.3 10.2
341(10) 0.00969 343.3 10.5
330(10) 0.01053 343.3 10.8
361(10) 0.01018 343.4 11.2
334(9) 0.01125 343.4 11.7
343(10) 0.00969 343.4 12.1
357(11) 0.00873 343.4 12.6
336(10) 0.01047 343.4 13.2
324(9) 0.01142 343.5 13.8
360(10) 0.01027 343.5 14.5
360(10) 0.00933 343.5 15.2
386(11) 0.00854 343.5 16.0
367(10) 0.00962 343.5 16.9
366(10) 0.00999 343.6 17.9
366(10) 0.01017 343.6 18.9
342(10) 0.01027 343.6 20.1
346(10) 0.00986 343.6 21.3
394(11) 0.00868 343.6 22.6
382(10) 0.00979 343.7 24.0
341(10) 0.01075 343.7 25.5
356(10) 0.00984 343.7 27.0
379(11) 0.00890 343.7 28.5
385(11) 0.00899 343.7 30.0
402(10) 0.00922 343.8 31.3
348(10) 0.01049 343.8 32.6
348(10) 0.00995 343.8 33.7
360(10) 0.00954 343.8 34.7
380(11) 0.00902 343.8 35.5
372(10) 0.01007 343.9 36.4
341(10) 0.01012 343.9 37.2
361(10) 0.00954 343.9 38.1
354(10) 0.00974 343.9 39.1
385(11) 0.00894 343.9 40.4
390(10) 0.00962 344.0 41.8
371(10) 0.00943 344.0 43.6
378(11) 0.00880 344.0 45.7
388(11) 0.00842 344.0 48.0
366(10) 0.00995 344.0 50.8
378(10) 0.00974 344.1 53.8
368(11) 0.00895 344.1 57.2
390(11) 0.00881 344.1 61.0
402(11) 0.00858 344.1 65.2
390(10) 0.00930 344.1 69.6
388(10) 0.00955 344.2 74.4
402(11) 0.00866 344.2 79.5
404(11) 0.00815 344.2 84.8
418(11) 0.00816 344.2 90.2
380(10) 0.00954 344.2 95.7
425(11) 0.00882 344.3 101.1
431(11) 0.00816 344.3 106.2
424(12) 0.00750 344.3 111.0
429(11) 0.00814 344.3 115.2
428(11) 0.00869 344.3 118.6
424(11) 0.00877 344.4 121.2
416(11) 0.00860 344.4 122.9
436(12) 0.00734 344.4 123.6
431(11) 0.00764 344.4 123.5
432(11) 0.00859 344.4 122.5
408(11) 0.00891 344.5 120.9
426(11) 0.00830 344.5 118.8
461(12) 0.00730 344.5 116.3
473(12) 0.00707 344.5 113.7
411(11) 0.00893 344.5 110.9
404(10) 0.00912 344.6 108.2
433(11) 0.00816 344.6 105.5
442(12) 0.00728 344.6 102.9
430(11) 0.00774 344.6 100.4
446(11) 0.00836 344.6 98.0
409(10) 0.00908 344.7 95.6
420(11) 0.00851 344.7 93.4
427(11) 0.00763 344.7 91.1
415(11) 0.00811 344.7 88.9
420(11) 0.00880 344.7 86.6
395(10) 0.00909 344.8 84.3
427(11) 0.00805 344.8 82.0
413(11) 0.00844 344.8 79.6
415(11) 0.00820 344.8 77.2
420(11) 0.00877 344.8 74.7
422(11) 0.00813 344.9 72.2
408(11) 0.00844 344.9 69.7
413(11) 0.00840 344.9 67.1
413(11) 0.00848 344.9 64.4
441(11) 0.00841 345.0 61.7
420(11) 0.00862 345.0 59.1
401(11) 0.00832 345.0 56.4
408(11) 0.00812 345.0 53.8
384(10) 0.00939 345.0 51.3
399(10) 0.00928 345.1 48.8
389(10) 0.00911 345.1 46.6
406(11) 0.00803 345.1 44.5
367(10) 0.00936 345.1 42.9
370(10) 0.00952 345.1 42.7
403(10) 0.00915 345.2 45.8
378(10) 0.00926 345.2 54.8
418(11) 0.00816 345.2 71.9
434(11) 0.00794 345.2 94.8
386(10) 0.00975 345.2 115.0
413(11) 0.00891 345.3 121.3
416(11) 0.00828 345.3 108.8
387(11) 0.00869 345.3 84.5
373(10) 0.00948 345.3 59.5
383(10) 0.00931 345.3 41.3
378(10) 0.00965 345.4 30.8
367(10) 0.00940 345.4 25.8
367(11) 0.00876 345.4 23.5
343(10) 0.00996 345.4 22.2
346(10) 0.01044 345.4 21.3
361(10) 0.01005 345.5 20.6
351(10) 0.00981 345.5 19.9
347(10) 0.00952 345.5 19.3
340(10) 0.01068 345.5 18.8
374(10) 0.00999 345.5 18.2
377(10) 0.00958 345.6 17.8
390(11) 0.00850 345.6 17.4
365(10) 0.00912 345.6 17.0
357(10) 0.00978 345.6 16.6
331(9) 0.01128 345.6 16.3
329(9) 0.01122 345.7 16.0
381(11) 0.00907 345.7 15.7
367(11) 0.00883 345.7 15.5
352(10) 0.00982 345.7 15.3
365(10) 0.01028 345.7 15.1
345(10) 0.01046 345.8 14.9
338(10) 0.01020 345.8 14.8
331(10) 0.00989 345.8 14.7
341(10) 0.01033 345.8 14.6
382(10) 0.00976 345.8 14.6
336(10) 0.01050 345.9 14.6
360(10) 0.00939 345.9 14.7
354(10) 0.00957 345.9 14.7
348(10) 0.01009 345.9 14.9
350(10) 0.01071 345.9 15.1
397(11) 0.00888 346.0 15.3
375(10) 0.00953 346.0 15.6
371(10) 0.00960 346.0 16.1
358(10) 0.00999 346.0 16.6
382(10) 0.00974 346.0 17.3
383(11) 0.00906 346.1 18.1
360(10) 0.00959 346.1 19.2
374(10) 0.00938 346.1 20.7
377(10) 0.00973 346.1 22.9
378(10) 0.00985 346.1 26.2
409(11) 0.00865 346.2 31.3
410(11) 0.00802 346.2 39.2
419(11) 0.00802 346.2 51.0
437(11) 0.00830 346.2 67.4
489(11) 0.00761 346.2 88.6
530(12) 0.00669 346.3 113.5
547(13) 0.00592 346.3 138.9
559(13) 0.00626 346.3 158.7
580(12) 0.00643 346.3 165.8
574(12) 0.00649 346.3 157.1
510(12) 0.00673 346.4 137.1
452(12) 0.00711 346.4 113.0
415(11) 0.00835 346.4 90.4
417(11) 0.00892 346.4 71.9
409(11) 0.00896 346.4 58.5
408(11) 0.00867 346.5 49.9
407(11) 0.00829 346.5 45.1
421(11) 0.00817 346.5 43.1
396(10) 0.00944 346.5 43.0
414(11) 0.00892 346.5 44.0
401(11) 0.00902 346.6 45.8
416(11) 0.00807 346.6 47.9
433(11) 0.00801 346.6 50.1
405(10) 0.00918 346.6 52.1
385(10) 0.00960 346.6 53.7
415(11) 0.00819 346.7 54.5
400(11) 0.00811 346.7 54.4
403(11) 0.00862 346.7 53.6
382(10) 0.00973 346.7 52.1
388(10) 0.00922 346.7 50.1
393(11) 0.00883 346.8 47.8
396(11) 0.00882 346.8 45.5
423(11) 0.00848 346.8 43.2
400(10) 0.00930 346.8 41.1
416(11) 0.00875 346.8 39.2
390(11) 0.00897 346.9 37.5
382(11) 0.00888 346.9 36.0
370(10) 0.00938 346.9 34.7
370(10) 0.01013 346.9 33.6
375(10) 0.00949 347.0 32.7
386(11) 0.00852 347.0 31.8
353(10) 0.00965 347.0 31.1
353(10) 0.01006 347.0 30.4
368(10) 0.01006 347.0 29.9
356(10) 0.00997 347.1 29.3
358(10) 0.00940 347.1 28.8
390(11) 0.00847 347.1 28.4
372(10) 0.00991 347.1 27.9
376(10) 0.00993 347.1 27.5
389(11) 0.00895 347.2 27.2
371(10) 0.00920 347.2 26.9
357(10) 0.01004 347.2 26.6
369(10) 0.00990 347.2 26.4
381(10) 0.00984 347.2 26.3
350(10) 0.00955 347.3 26.4
354(10) 0.00928 347.3 26.5
395(11) 0.00874 347.3 26.9
365(10) 0.01003 347.3 27.6
353(10) 0.01058 347.3 28.6
363(10) 0.00966 347.4 30.1
400(11) 0.00822 347.4 32.4
392(11) 0.00902 347.4 35.6
420(11) 0.00860 347.4 40.2
450(11) 0.00831 347.4 46.6
440(11) 0.00813 347.5 55.0
441(12) 0.00723 347.5 65.9
451(11) 0.00776 347.5 79.5
479(11) 0.00777 347.5 95.6
477(11) 0.00773 347.5 113.5
550(13) 0.00634 347.6 131.9
551(13) 0.00602 347.6 148.0
540(12) 0.00647 347.6 158.4
533(12) 0.00703 347.6 159.9
549(12) 0.00660 347.6 152.0
483(12) 0.00712 347.7 136.9
467(12) 0.00727 347.7 118.4
454(11) 0.00767 347.7 99.4
453(11) 0.00821 347.7 81.8
435(11) 0.00827 347.7 66.6
411(11) 0.00833 347.8 54.1
409(11) 0.00835 347.8 44.0
388(10) 0.00917 347.8 36.2
411(11) 0.00904 347.8 30.3
420(11) 0.00856 347.8 25.8
392(11) 0.00878 347.9 22.4
351(10) 0.00996 347.9 19.9
385(11) 0.00902 347.9 17.9
401(10) 0.00926 347.9 16.3
360(10) 0.00998 347.9 15.0
367(10) 0.00935 348.0 14.0
391(11) 0.00841 348.0 13.0
367(10) 0.00980 348.0 12.3
378(10) 0.00987 348.0 11.6
335(10) 0.01061 348.0 11.0
356(10) 0.00951 348.1 10.5
375(10) 0.00918 348.1 10.0
388(10) 0.00931 348.1 9.7
364(10) 0.01035 348.1 9.3
350(10) 0.00994 348.1 9.0
348(10) 0.00962 348.2 8.8
358(10) 0.00954 348.2 8.5
310(9) 0.01156 348.2 8.4
314(9) 0.01186 348.2 8.2
353(10) 0.00958 348.2 8.1
371(11) 0.00880 348.3 8.0
344(10) 0.00985 348.3 8.0
329(9) 0.01125 348.3 8.0
341(10) 0.01086 348.3 8.0
337(10) 0.01025 348.3 8.1
360(11) 0.00898 348.4 8.2
369(10) 0.00957 348.4 8.4
357(10) 0.01027 348.4 8.6
365(10) 0.01025 348.4 8.9
380(10) 0.00909 348.4 9.2
342(10) 0.00948 348.5 9.6
340(10) 0.01029 348.5 10.0
333(9) 0.01108 348.5 10.4
353(10) 0.01050 348.5 10.9
365(10) 0.00943 348.5 11.2
346(10) 0.00927 348.6 11.5
352(10) 0.01007 348.6 11.7
342(10) 0.01093 348.6 11.8
368(10) 0.01004 348.6 11.7
369(10) 0.00957 348.6 11.4
380(11) 0.00858 348.6 11.1
361(10) 0.00956 348.5 10.7
358(10) 0.01035 348.5 10.2
341(10) 0.01042 348.5 9.7
369(10) 0.00934 348.5 9.2
337(10) 0.00992 348.4 8.8
359(10) 0.00963 348.4 8.4
373(10) 0.00987 348.4 8.0
362(10) 0.01009 348.4 7.7
329(10) 0.01057 348.4 7.5
381(11) 0.00860 348.3 7.3
363(10) 0.00938 348.3 7.1
368(10) 0.01002 348.3 7.0
358(10) 0.00993 348.3 6.9
379(11) 0.00904 348.3 6.8
351(10) 0.00998 348.2 6.8
368(10) 0.00941 348.2 6.8
325(9) 0.01155 348.2 6.8
346(10) 0.00981 348.2 6.8
364(11) 0.00906 348.2 6.9
322(10) 0.01064 348.1 7.0
333(10) 0.01013 348.1 7.1
357(10) 0.01034 348.1 7.2
331(10) 0.01043 348.1 7.4
343(10) 0.00936 348.1 7.5
321(10) 0.01043 348.0 7.7
376(10) 0.00938 348.0 8.0
313(9) 0.01194 348.0 8.2
343(10) 0.00984 348.0 8.5
360(10) 0.00917 348.0 8.9
365(10) 0.00963 347.9 9.2
386(10) 0.00950 347.9 9.7
387(10) 0.00954 347.9 10.1
343(10) 0.01038 347.9 10.7
363(10) 0.00922 347.9 11.3
350(10) 0.01009 347.8 12.0
357(10) 0.01046 347.8 12.8
377(10) 0.00974 347.8 13.8
369(10) 0.00940 347.8 14.9
394(11) 0.00784 347.7 16.2
378(11) 0.00882 347.7 17.7
389(10) 0.00932 347.7 19.7
380(10) 0.00988 347.7 22.1
401(11) 0.00859 347.7 25.2
383(11) 0.00842 347.6 29.3
370(10) 0.00910 347.6 34.7
397(10) 0.00937 347.6 41.7
384(10) 0.00972 347.6 50.8
429(11) 0.00812 347.6 62.3
424(11) 0.00788 347.5 76.6
439(11) 0.00797 347.5 93.7
467(11) 0.00798 347.5 113.4
489(12) 0.00752 347.5 134.8
506(12) 0.00670 347.5 155.9
475(12) 0.00705 347.4 173.9
509(12) 0.00667 347.4 184.9
515(12) 0.00718 347.4 186.0
525(12) 0.00668 347.4 177.0
506(12) 0.00669 347.4 160.8
462(12) 0.00722 347.3 141.2
442(11) 0.00781 347.3 121.1
419(11) 0.00892 347.3 102.8
409(11) 0.00859 347.3 87.0
417(11) 0.00810 347.3 74.2
394(11) 0.00877 347.2 64.2
415(11) 0.00850 347.2 56.7
394(10) 0.00951 347.2 51.4
409(11) 0.00880 347.2 47.6
391(11) 0.00881 347.2 45.1
381(11) 0.00889 347.1 43.2
349(10) 0.01026 347.1 41.6
387(10) 0.00969 347.1 40.0
350(10) 0.01002 347.1 38.3
322(10) 0.01087 347.1 36.4
354(10) 0.00954 347.0 34.2
365(10) 0.00979 347.0 31.9
341(10) 0.01087 347.0 29.5
362(10) 0.00921 347.0 27.1
371(11) 0.00883 346.9 24.9
364(10) 0.00973 346.9 22.8
352(10) 0.01055 346.9 20.8
358(10) 0.01040 346.9 19.0
348(10) 0.00987 346.9 17.4
344(10) 0.00934 346.8 15.9
365(10) 0.00945 346.8 14.7
350(10) 0.01053 346.8 13.5
359(10) 0.01015 346.8 12.5
338(10) 0.01006 346.8 11.7
345(10) 0.00937 346.7 10.9
365(10) 0.00947 346.7 10.2
348(10) 0.01055 346.7 9.7
359(10) 0.01049 346.7 9.1
381(10) 0.00932 346.7 8.7
362(11) 0.00884 346.6 8.3
346(10) 0.01039 346.6 8.0
373(10) 0.00989 346.6 7.7
355(10) 0.01033 346.6 7.4
361(10) 0.00949 346.6 7.2
363(11) 0.00889 346.5 6.9
361(10) 0.00976 346.5 6.7
353(10) 0.01063 346.5 6.6
338(10) 0.01055 346.5 6.4
339(10) 0.01022 346.5 6.3
343(10) 0.00985 346.4 6.1
342(10) 0.01056 346.4 6.0
348(10) 0.01072 346.4 5.9
360(10) 0.01024 346.4 5.8
352(10) 0.00998 346.4 5.7
325(10) 0.01020 346.3 5.7
347(10) 0.00967 346.3 5.6
372(10) 0.01004 346.3 5.5
355(10) 0.01014 346.3 5.5
354(10) 0.00975 346.2 5.4
343(10) 0.01000 346.2 5.4
355(10) 0.01020 346.2 5.3
364(10) 0.01013 346.2 5.3
341(10) 0.01065 346.2 5.3
337(10) 0.00996 346.1 5.3
336(10) 0.01007 346.1 5.2
358(10) 0.00977 346.1 5.2
315(9) 0.01188 346.1 5.2
342(10) 0.01035 346.1 5.2
353(10) 0.00973 346.0 5.2
356(10) 0.00921 346.0 5.2
352(10) 0.00986 346.0 5.2
331(9) 0.01126 346.0 5.2
362(10) 0.00949 346.0 5.3
350(10) 0.00924 345.9 5.3
342(10) 0.01037 345.9 5.3
359(10) 0.01005 345.9 5.3
349(10) 0.01059 345.9 5.4
371(10) 0.00931 345.9 5.4
365(11) 0.00873 345.8 5.4
334(10) 0.01038 345.8 5.5
348(10) 0.01058 345.8 5.5
348(10) 0.01053 345.8 5.6
345(10) 0.01033 345.8 5.6
319(10) 0.01055 345.7 5.7
349(10) 0.00977 345.7 5.8
378(10) 0.00984 345.8 5.8
334(10) 0.01104 345.8 5.9
319(10) 0.01089 345.8 6.0
324(10) 0.00963 345.8 6.1
336(10) 0.01042 345.9 6.2
339(10) 0.01092 345.9 6.2
338(10) 0.01099 345.9 6.3
343(10) 0.01024 345.9 6.4
351(11) 0.00892 345.9 6.6
353(10) 0.00953 346.0 6.7
358(10) 0.01041 346.0 6.8
361(10) 0.00987 346.0 6.9
367(10) 0.00930 346.0 7.1
350(10) 0.00964 346.0 7.2
357(10) 0.00959 346.1 7.4
343(10) 0.01080 346.1 7.5
358(10) 0.00997 346.1 7.7
389(11) 0.00903 346.1 7.9
364(10) 0.00941 346.1 8.1
353(10) 0.00955 346.2 8.3
363(10) 0.01023 346.2 8.5
375(10) 0.00947 346.2 8.8
333(10) 0.01076 346.2 9.0
369(11) 0.00878 346.3 9.3
360(10) 0.00948 346.3 9.6
352(10) 0.01044 346.3 9.9
355(10) 0.00958 346.3 10.2
354(10) 0.00979 346.3 10.6
380(11) 0.00878 346.4 11.0
365(10) 0.00970 346.4 11.4
381(10) 0.00970 346.4 11.9
366(10) 0.00985 346.4 12.4
345(10) 0.00983 346.4 12.9
340(10) 0.01032 346.5 13.5
360(10) 0.00994 346.5 14.1
345(10) 0.01061 346.5 14.8
353(10) 0.01007 346.5 15.5
356(10) 0.00931 346.5 16.3
361(10) 0.00971 346.6 17.1
377(10) 0.00964 346.6 18.1
356(10) 0.01045 346.6 19.1
363(10) 0.00967 346.6 20.2
366(11) 0.00898 346.6 21.3
357(10) 0.00956 346.7 22.6
367(10) 0.01016 346.7 23.9
349(10) 0.01053 346.7 25.3
377(10) 0.00949 346.7 26.9
377(11) 0.00878 346.8 28.5
355(10) 0.00986 346.8 30.3
369(10) 0.01009 346.8 32.1
371(10) 0.01000 346.8 34.1
378(10) 0.00939 346.8 36.1
393(11) 0.00831 346.9 38.2
406(11) 0.00860 346.9 40.4
393(10) 0.00956 346.9 42.7
366(10) 0.01017 346.9 45.0
379(11) 0.00907 346.9 47.3
400(11) 0.00808 347.0 49.7
401(11) 0.00854 347.0 51.9
379(10) 0.00979 347.0 54.1
364(10) 0.00998 347.0 56.1
389(11) 0.00888 347.0 57.9
392(11) 0.00841 347.1 59.5
383(10) 0.00915 347.1 60.8
368(10) 0.01009 347.1 61.8
371(10) 0.00974 347.1 62.4
394(11) 0.00896 347.2 62.7
404(11) 0.00828 347.2 62.7
357(10) 0.01000 347.2 62.3
408(10) 0.00914 347.2 61.6
396(11) 0.00898 347.2 60.7
377(11) 0.00899 347.3 59.5
373(10) 0.00914 347.3 58.2
376(11) 0.00898 347.3 56.8
368(10) 0.01006 347.3 55.3
369(10) 0.00951 347.3 53.7
345(10) 0.01059 347.4 52.2
383(11) 0.00895 347.4 50.6
406(11) 0.00881 347.4 49.1
402(10) 0.00923 347.4 47.6
396(11) 0.00885 347.4 46.2
399(11) 0.00825 347.5 44.8
378(11) 0.00885 347.5 43.5
386(10) 0.00917 347.5 42.3
376(10) 0.00991 347.5 41.2
371(10) 0.00934 347.6 40.3
368(10) 0.00931 347.6 39.5
386(11) 0.00888 347.6 38.8
408(11) 0.00883 347.6 38.4
376(10) 0.00987 347.6 38.2
417(11) 0.00802 347.7 38.3
384(11) 0.00858 347.7 38.6
354(10) 0.00990 347.7 39.2
383(10) 0.00950 347.7 40.1
404(10) 0.00916 347.7 41.3
425(11) 0.00842 347.8 42.8
440(12) 0.00756 347.8 44.7
402(11) 0.00884 347.8 46.9
442(11) 0.00824 347.8 49.3
431(11) 0.00869 347.8 51.9
429(11) 0.00843 347.9 54.6
432(11) 0.00778 347.9 57.2
459(12) 0.00754 347.9 59.6
444(11) 0.00825 347.9 61.4
420(11) 0.00884 347.9 62.6
453(11) 0.00779 348.0 63.1
433(11) 0.00787 348.0 62.8
451(11) 0.00776 348.0 61.9
434(11) 0.00852 348.0 60.6
419(11) 0.00893 348.1 59.2
442(11) 0.00799 348.1 57.6
436(12) 0.00747 348.1 56.2
415(11) 0.00842 348.1 55.0
440(11) 0.00845 348.1 54.0
423(11) 0.00869 348.2 53.2
423(11) 0.00812 348.2 52.7
417(11) 0.00802 348.2 52.5
418(11) 0.00828 348.2 52.5
421(11) 0.00881 348.2 52.7
419(11) 0.00870 348.3 53.1
437(11) 0.00783 348.3 53.8
430(11) 0.00789 348.3 54.8
422(11) 0.00821 348.3 55.9
442(11) 0.00845 348.3 57.1
445(11) 0.00822 348.4 58.2
423(11) 0.00863 348.4 59.0
425(11) 0.00818 348.4 59.0
400(11) 0.00888 348.4 58.2
379(10) 0.00972 348.5 56.9
414(11) 0.00872 348.5 55.2
409(11) 0.00832 348.5 53.4
404(11) 0.00836 348.5 51.7
410(11) 0.00857 348.5 50.1
384(10) 0.00965 348.6 48.6
399(11) 0.00883 348.6 47.2
413(11) 0.00806 348.6 45.8
392(11) 0.00877 348.6 44.4
407(11) 0.00885 348.6 43.1
389(10) 0.00948 348.7 41.8
397(11) 0.00860 348.7 40.5
389(11) 0.00864 348.7 39.2
386(10) 0.00932 348.7 37.9
386(10) 0.00938 348.7 36.6
394(10) 0.00947 348.8 35.4
408(11) 0.00834 348.8 34.3
394(11) 0.00826 348.8 33.1
361(10) 0.00955 348.8 32.0
356(10) 0.01053 348.8 31.0
371(10) 0.01004 348.9 30.0
381(10) 0.00944 348.9 29.1
393(11) 0.00850 348.9 28.2
374(10) 0.00933 348.9 27.3
377(10) 0.00979 349.0 26.5
358(10) 0.01038 349.0 25.7
391(11) 0.00871 349.0 25.0
369(10) 0.00909 349.0 24.3
392(11) 0.00889 349.0 23.6
368(10) 0.01005 349.1 22.9
403(11) 0.00906 349.1 22.3
381(11) 0.00906 349.1 21.7
385(11) 0.00824 349.1 21.1
381(10) 0.00930 349.1 20.6
391(10) 0.00931 349.2 20.0
372(10) 0.00976 349.2 19.4
384(11) 0.00891 349.2 18.9
390(11) 0.00876 349.2 18.3
366(10) 0.00969 349.2 17.8
363(10) 0.01028 349.3 17.2
374(10) 0.00976 349.3 16.7
386(10) 0.00918 349.3 16.2
335(10) 0.01077 349.3 15.7
365(10) 0.00939 349.4 15.2
365(10) 0.01018 349.4 14.7
369(10) 0.01004 349.4 14.2
401(11) 0.00847 349.4 13.8
378(11) 0.00897 349.4 13.3
367(10) 0.00967 349.5 12.9
328(9) 0.01127 349.5 12.5
341(10) 0.01058 349.5 12.2
357(10) 0.00972 349.5 11.8
363(10) 0.00951 349.5 11.5
377(10) 0.00913 349.6 11.2
361(10) 0.01037 349.6 10.9
358(10) 0.00982 349.6 10.6
371(10) 0.00912 349.6 10.3
372(10) 0.00936 349.6 10.0
342(10) 0.01042 349.7 9.8
356(10) 0.01048 349.7 9.6
371(11) 0.00897 349.7 9.4
355(10) 0.00913 349.7 9.2
365(10) 0.00962 349.8 9.0
360(10) 0.01018 349.8 8.8
401(10) 0.00935 349.8 8.7
381(11) 0.00896 349.8 8.5
366(10) 0.00925 349.8 8.4
381(11) 0.00875 349.9 8.3
355(10) 0.01031 349.9 8.1
346(10) 0.01086 349.9 8.0
375(10) 0.00920 349.9 7.9
352(10) 0.00936 349.9 7.8
342(10) 0.01037 350.0 7.8
389(10) 0.00939 350.0 7.7
366(10) 0.01022 350.0 7.6
388(11) 0.00879 350.0 7.6
380(11) 0.00850 350.0 7.5
362(10) 0.00959 350.1 7.5
378(10) 0.00978 350.1 7.5
346(10) 0.01028 350.1 7.5
356(10) 0.00971 350.1 7.5
366(11) 0.00878 350.1 7.5
358(10) 0.00987 350.2 7.6
346(10) 0.01069 350.2 7.6
345(10) 0.01064 350.2 7.7
362(10) 0.00944 350.2 7.8
371(11) 0.00855 350.3 7.9
367(10) 0.00939 350.3 8.0
351(10) 0.01070 350.3 8.1
338(10) 0.01078 350.3 8.2
367(10) 0.00934 350.3 8.3
354(10) 0.00957 350.4 8.4
344(10) 0.00998 350.4 8.5
361(10) 0.01025 350.4 8.6
388(10) 0.00945 350.4 8.6
377(10) 0.00951 350.4 8.6
388(11) 0.00853 350.5 8.6
383(11) 0.00891 350.5 8.7
383(10) 0.00968 350.5 8.7
353(10) 0.01053 350.5 8.8
365(10) 0.00967 350.5 8.9
357(10) 0.00993 350.6 9.0
364(10) 0.00970 350.6 9.1
365(10) 0.01007 350.6 9.3
362(10) 0.00919 350.6 9.5
347(10) 0.00979 350.7 9.7
371(10) 0.00927 350.7 10.0
367(10) 0.00998 350.7 10.3
354(10) 0.01051 350.7 10.6
383(11) 0.00906 350.7 11.0
383(11) 0.00898 350.8 11.4
403(11) 0.00834 350.8 11.9
383(10) 0.00953 350.8 12.4
370(10) 0.00999 350.8 13.0
353(10) 0.00964 350.8 13.6
366(11) 0.00902 350.9 14.3
365(10) 0.00974 350.9 15.1
386(10) 0.00953 350.9 16.0
376(10) 0.00981 350.9 17.0
368(10) 0.00964 350.9 18.1
377(11) 0.00868 351.0 19.5
384(11) 0.00894 351.0 21.0
400(11) 0.00905 351.0 22.7
379(10) 0.00992 351.0 24.7
356(10) 0.00988 351.1 27.0
369(11) 0.00877 351.1 29.5
367(10) 0.00945 351.1 32.3
384(10) 0.00969 351.1 35.3
355(10) 0.01027 351.1 38.4
397(11) 0.00857 351.2 41.3
387(11) 0.00811 351.2 43.8
413(11) 0.00837 351.2 45.6
401(10) 0.00918 351.2 46.2
412(11) 0.00882 351.2 45.6
388(11) 0.00903 351.3 43.9
383(11) 0.00865 351.3 41.4
394(11) 0.00862 351.3 38.4
366(10) 0.01023 351.3 35.2
400(11) 0.00880 351.3 32.2
364(10) 0.00931 351.4 29.4
351(10) 0.00944 351.4 26.9
381(11) 0.00889 351.4 24.7
348(10) 0.01054 351.4 22.9
389(10) 0.00918 351.4 21.4
346(10) 0.00990 351.5 20.2
384(11) 0.00874 351.5 19.2
368(10) 0.00966 351.5 18.5
387(10) 0.00952 351.5 18.0
378(10) 0.00947 351.6 17.6
396(11) 0.00847 351.6 17.4
359(10) 0.00960 351.6 17.3
357(10) 0.00976 351.6 17.3
390(10) 0.00969 351.6 17.3
400(11) 0.00881 351.7 17.5
376(10) 0.00927 351.7 17.7
368(10) 0.00932 351.7 17.9
359(10) 0.01008 351.7 18.2
394(10) 0.00946 351.7 18.6
365(10) 0.00973 351.8 19.0
388(11) 0.00859 351.8 19.5
402(11) 0.00846 351.8 20.0
379(10) 0.00952 351.8 20.6
362(10) 0.01015 351.8 21.3
362(10) 0.00924 351.9 22.0
369(10) 0.00913 351.9 22.8
391(11) 0.00901 351.9 23.7
389(10) 0.00960 351.9 24.7
391(10) 0.00946 352.0 25.8
393(11) 0.00873 352.0 27.1
393(11) 0.00842 352.0 28.6
405(11) 0.00824 352.0 30.4
385(10) 0.00961 352.0 32.4
404(11) 0.00899 352.1 34.9
412(11) 0.00859 352.1 37.9
411(11) 0.00817 352.1 41.4
409(11) 0.00857 352.1 45.6
426(11) 0.00863 352.1 50.6
410(11) 0.00903 352.2 56.5
416(11) 0.00824 352.2 63.3
430(12) 0.00748 352.2 71.1
435(11) 0.00814 352.2 79.7
442(11) 0.00841 352.2 89.0
423(11) 0.00869 352.3 98.5
460(12) 0.00751 352.3 107.7
477(12) 0.00676 352.3 115.4
480(12) 0.00737 352.3 120.8
546(12) 0.00676 352.4 122.7
484(11) 0.00771 352.4 120.9
493(12) 0.00701 352.4 115.7
493(12) 0.00664 352.4 108.1
456(11) 0.00759 352.4 99.0
420(11) 0.00887 352.5 89.6
418(11) 0.00879 352.5 80.4
420(11) 0.00817 352.5 71.8
362(10) 0.00963 352.5 64.2
400(11) 0.00867 352.5 57.4
401(10) 0.00923 352.6 51.6
387(11) 0.00901 352.6 46.7
387(11) 0.00848 352.6 42.5
385(11) 0.00886 352.6 39.0
410(11) 0.00876 352.6 36.1
377(10) 0.00988 352.7 33.7
382(10) 0.00907 352.7 31.6
383(11) 0.00901 352.7 29.9
408(11) 0.00827 352.7 28.4
374(10) 0.00964 352.7 27.1
376(10) 0.00981 352.8 26.0
369(10) 0.00944 352.8 24.9
368(10) 0.00933 352.8 24.0
370(10) 0.00923 352.8 23.1
339(10) 0.01056 352.9 22.4
349(10) 0.01067 352.9 21.6
353(10) 0.00979 352.9 20.9
388(11) 0.00841 352.9 20.3
355(10) 0.00980 352.9 19.6
372(10) 0.00985 353.0 19.1
348(10) 0.01066 353.0 18.5
365(10) 0.00965 353.0 18.0
379(11) 0.00888 353.0 17.5
389(11) 0.00898 353.0 17.0
366(10) 0.01002 353.1 16.5
386(10) 0.00962 353.1 16.1
364(10) 0.00934 353.1 15.7
347(10) 0.00969 353.1 15.3
339(10) 0.01051 353.1 14.9
364(10) 0.01035 353.2 14.6
347(10) 0.01062 353.2 14.2
376(11) 0.00884 353.2 13.9
337(10) 0.00962 353.2 13.6
348(10) 0.01035 353.3 13.3
381(10) 0.00962 353.3 13.0
351(10) 0.01058 353.3 12.8
352(10) 0.00994 353.3 12.5
354(10) 0.00943 353.3 12.3
366(10) 0.00975 353.4 12.1
360(10) 0.01051 353.4 11.9
358(10) 0.01012 353.4 11.7
370(10) 0.00979 353.4 11.5
370(10) 0.00910 353.4 11.3
370(10) 0.00979 353.5 11.2
364(10) 0.01022 353.5 11.0
363(10) 0.00988 353.5 10.9
351(10) 0.00984 353.5 10.8
342(10) 0.01012 353.5 10.7
368(10) 0.00962 353.6 10.6
380(10) 0.00978 353.6 10.5
376(10) 0.00942 353.6 10.5
352(10) 0.00983 353.6 10.4
356(10) 0.00934 353.6 10.4
338(10) 0.01039 353.7 10.4
356(10) 0.01045 353.7 10.4
365(10) 0.00966 353.7 10.4
351(10) 0.01003 353.7 10.4
357(10) 0.00991 353.8 10.4
388(10) 0.00934 353.8 10.5
375(10) 0.00995 353.8 10.5
379(10) 0.00932 353.8 10.6
365(10) 0.00980 353.8 10.6
367(10) 0.00960 353.9 10.7
358(10) 0.00999 353.9 10.8
354(10) 0.01059 353.9 10.9
350(10) 0.00996 353.9 11.0
383(11) 0.00862 353.9 11.1
356(10) 0.00974 354.0 11.3
384(10) 0.00939 354.0 11.4
380(10) 0.00990 354.0 11.6
354(10) 0.00987 354.0 11.7
368(11) 0.00878 354.0 11.9
365(10) 0.00937 354.1 12.0
384(10) 0.00931 354.1 12.2
324(9) 0.01157 354.1 12.4
360(10) 0.00970 354.1 12.5
388(11) 0.00830 354.2 12.7
380(10) 0.00920 354.2 12.9
366(10) 0.01010 354.2 13.0
390(10) 0.00950 354.2 13.2
384(11) 0.00883 354.2 13.3
375(11) 0.00847 354.3 13.4
404(11) 0.00868 354.3 13.5
381(10) 0.00974 354.3 13.6
367(10) 0.00996 354.3 13.7
373(10) 0.00941 354.3 13.7
380(11) 0.00846 354.4 13.7
350(10) 0.00996 354.4 13.7
346(10) 0.01084 354.4 13.7
364(10) 0.01022 354.4 13.6
384(10) 0.00927 354.4 13.5
360(10) 0.00924 354.5 13.4
362(10) 0.00969 354.5 13.2
349(10) 0.01055 354.5 13.0
374(10) 0.00950 354.5 12.8
385(11) 0.00895 354.5 12.6
387(11) 0.00858 354.6 12.3
376(10) 0.00919 354.6 12.1
371(10) 0.00997 354.6 11.8
384(10) 0.00919 354.6 11.5
377(11) 0.00903 354.6 11.2
360(10) 0.00954 354.7 11.0
354(10) 0.00992 354.7 10.7
351(10) 0.01058 354.7 10.4
341(10) 0.01071 354.7 10.1
367(10) 0.00947 354.8 9.8
379(11) 0.00889 354.8 9.5
352(10) 0.01006 354.8 9.2
353(10) 0.01056 354.8 9.0
365(10) 0.00977 354.8 8.7
371(10) 0.00916 354.9 8.5
353(10) 0.00988 354.9 8.2
350(10) 0.01036 354.9 8.0
363(10) 0.01017 354.9 7.8
355(10) 0.00994 354.9 7.6
367(10) 0.00929 355.0 7.4
371(11) 0.00900 355.0 7.2
366(10) 0.00993 355.0 7.0
375(10) 0.00985 355.0 6.8
364(10) 0.00962 355.0 6.6
350(10) 0.00985 355.1 6.5
325(10) 0.01070 355.1 6.3
360(10) 0.01027 355.1 6.2
365(10) 0.01020 355.1 6.1
354(10) 0.01005 355.1 5.9
357(10) 0.00930 355.2 5.8
340(10) 0.01027 355.2 5.7
383(10) 0.00973 355.2 5.6
334(9) 0.01110 355.2 5.5
359(10) 0.00988 355.2 5.4
358(10) 0.00924 355.3 5.4
374(10) 0.00942 355.3 5.3
380(10) 0.00984 355.3 5.2
326(9) 0.01136 355.3 5.2
350(10) 0.01010 355.3 5.1
351(11) 0.00888 355.4 5.1
332(10) 0.01019 355.4 5.1
343(10) 0.01077 355.4 5.0
344(10) 0.01062 355.4 5.0
372(11) 0.00902 355.4 5.0
356(10) 0.00925 355.5 5.0
399(11) 0.00887 355.5 5.0
380(10) 0.00981 355.5 5.0
368(10) 0.01003 355.5 5.0
351(10) 0.01036 355.5 5.1
341(10) 0.01013 355.6 5.1
380(10) 0.00916 355.6 5.2
359(10) 0.01032 355.6 5.2
374(10) 0.00976 355.6 5.3
378(10) 0.00909 355.6 5.4
375(11) 0.00882 355.7 5.5
360(10) 0.00961 355.7 5.7
345(10) 0.01091 355.7 5.9
344(10) 0.01040 355.7 6.2
355(10) 0.00985 355.7 6.5
370(10) 0.00917 355.8 7.0
386(10) 0.00910 355.8 7.6
367(10) 0.01013 355.8 8.6
366(10) 0.00945 355.8 10.1
352(10) 0.00931 355.9 12.4
362(10) 0.00919 355.9 15.6
370(10) 0.00949 355.9 20.0
376(10) 0.00991 355.9 25.5
410(11) 0.00840 355.9 31.9
439(12) 0.00751 356.0 38.4
401(11) 0.00840 356.0 43.4
405(11) 0.00887 356.0 45.3
429(11) 0.00868 356.0 43.2
390(11) 0.00878 356.0 38.1
390(11) 0.00842 356.1 31.6
371(10) 0.00930 356.1 25.4
399(10) 0.00929 356.1 20.0
389(10) 0.00957 356.1 15.7
367(10) 0.00919 356.1 12.6
330(10) 0.01008 356.2 10.5
387(11) 0.00861 356.2 9.1
360(10) 0.01045 356.2 8.2
351(10) 0.01041 356.2 7.6
354(10) 0.00967 356.2 7.3
362(11) 0.00898 356.3 7.0
386(11) 0.00900 356.3 6.8
371(10) 0.00994 356.3 6.7
362(10) 0.01001 356.3 6.6
357(10) 0.00977 356.3 6.6
365(11) 0.00895 356.4 6.6
377(10) 0.00931 356.4 6.6
365(10) 0.01001 356.4 6.7
372(10) 0.00986 356.4 6.7
367(10) 0.00928 356.4 6.8
329(10) 0.00996 356.5 6.9
374(11) 0.00905 356.5 7.1
355(10) 0.01028 356.5 7.2
371(10) 0.00976 356.5 7.4
362(10) 0.00977 356.5 7.6
367(11) 0.00900 356.6 7.8
367(10) 0.00964 356.6 8.1
365(10) 0.01020 356.6 8.3
358(10) 0.01035 356.6 8.6
349(10) 0.00935 356.6 8.9
361(11) 0.00907 356.7 9.3
351(10) 0.00999 356.7 9.6
355(10) 0.01048 356.7 10.0
389(11) 0.00897 356.7 10.4
360(10) 0.00965 356.7 10.8
348(10) 0.00973 356.8 11.3
345(10) 0.01003 356.8 11.7
357(10) 0.01042 356.8 12.2
352(10) 0.01010 356.8 12.6
376(11) 0.00879 356.8 13.1
320(10) 0.01089 356.9 13.5
345(10) 0.01025 356.9 13.9
377(10) 0.00983 356.9 14.2
357(10) 0.00989 356.9 14.5
361(10) 0.00950 357.0 14.7
354(10) 0.01001 357.0 14.9
366(10) 0.00978 357.0 15.0
357(10) 0.01036 357.0 15.0
382(11) 0.00905 357.0 15.0
384(11) 0.00862 357.1 14.9
344(10) 0.01036 357.1 14.8
384(11) 0.00900 357.1 14.7
351(10) 0.01072 357.1 14.6
333(10) 0.01062 357.1 14.4
364(11) 0.00893 357.2 14.3
358(10) 0.00965 357.2 14.2
325(9) 0.01136 357.2 14.1
350(10) 0.01069 357.2 14.1
362(10) 0.00967 357.2 14.0
394(11) 0.00787 357.3 14.0
375(10) 0.00925 357.3 14.1
384(10) 0.00958 357.3 14.1
348(10) 0.01045 357.3 14.2
362(10) 0.00986 357.3 14.3
381(11) 0.00845 357.4 14.5
378(10) 0.00934 357.4 14.7
382(10) 0.00972 357.4 14.9
369(10) 0.01000 357.4 15.2
370(11) 0.00905 357.4 15.5
366(11) 0.00893 357.5 15.8
366(10) 0.00947 357.5 16.1
356(10) 0.01040 357.5 16.4
343(10) 0.01075 357.5 16.8
374(11) 0.00906 357.5 17.2
380(11) 0.00891 357.6 17.6
363(10) 0.00957 357.6 18.0
374(10) 0.00996 357.6 18.5
371(10) 0.00989 357.6 18.9
370(10) 0.00921 357.6 19.3
365(11) 0.00904 357.7 19.8
377(10) 0.00915 357.7 20.2
344(10) 0.01076 357.7 20.7
347(10) 0.01031 357.7 21.2
400(11) 0.00862 357.7 21.7
394(11) 0.00854 357.8 22.2
386(10) 0.00919 357.8 22.8
401(10) 0.00929 357.8 23.5
413(11) 0.00848 357.8 24.3
393(11) 0.00881 357.8 25.2
409(11) 0.00834 357.9 26.4
419(11) 0.00846 357.9 28.0
381(10) 0.00973 357.9 30.0
377(10) 0.00952 357.9 32.6
399(11) 0.00850 357.9 36.0
413(11) 0.00797 358.0 40.3
383(10) 0.00946 358.0 45.7
374(10) 0.00978 358.0 52.3
407(11) 0.00873 358.0 60.0
392(11) 0.00898 358.1 68.7
404(11) 0.00842 358.1 77.8
415(11) 0.00852 358.1 86.5
433(11) 0.00860 358.1 93.5
436(11) 0.00770 358.1 97.5
395(11) 0.00878 358.2 97.8
426(11) 0.00810 358.2 94.9
450(11) 0.00820 358.2 90.1
414(10) 0.00908 358.2 84.9
436(11) 0.00796 358.2 80.3
446(12) 0.00717 358.3 76.8
416(11) 0.00833 358.3 74.8
428(11) 0.00860 358.3 74.1
468(11) 0.00786 358.3 74.4
437(11) 0.00797 358.3 75.2
458(12) 0.00710 358.4 76.0
459(11) 0.00758 358.4 76.2
428(11) 0.00869 358.4 75.6
435(11) 0.00834 358.4 74.1
378(10) 0.00949 358.4 72.0
430(12) 0.00735 358.5 69.5
407(11) 0.00844 358.5 66.8
414(11) 0.00886 358.5 64.2
413(11) 0.00902 358.5 61.6
399(11) 0.00875 358.5 59.0
390(11) 0.00858 358.6 56.4
415(11) 0.00841 358.6 53.8
383(10) 0.00971 358.6 51.1
400(10) 0.00928 358.6 48.4
401(11) 0.00888 358.6 45.6
398(11) 0.00850 358.7 42.9
395(11) 0.00883 358.7 40.2
371(10) 0.01002 358.7 37.6
411(11) 0.00863 358.7 35.0
375(10) 0.00916 358.7 32.6
388(11) 0.00857 358.8 30.3
396(11) 0.00891 358.8 28.2
380(10) 0.00979 358.8 26.1
406(11) 0.00886 358.8 24.3
355(10) 0.01011 358.8 22.6
373(10) 0.00956 358.9 21.0
397(11) 0.00893 358.9 19.6
374(10) 0.00994 358.9 18.2
396(11) 0.00869 358.9 17.1
407(11) 0.00829 358.9 16.0
393(11) 0.00841 359.0 15.0
350(10) 0.01033 359.0 14.1
383(10) 0.00966 359.0 13.3
367(10) 0.00957 359.0 12.6
369(11) 0.00904 359.0 11.9
366(10) 0.00942 359.1 11.3
361(10) 0.01017 359.1 10.8
363(10) 0.01015 359.1 10.3
384(11) 0.00900 359.1 9.9
360(11) 0.00904 359.2 9.5
357(10) 0.00952 359.2 9.1
366(10) 0.00989 359.2 8.8
376(10) 0.00998 359.2 8.5
361(10) 0.00940 359.2 8.3
349(10) 0.00950 359.3 8.0
349(10) 0.00984 359.3 7.8
371(10) 0.00979 359.3 7.6
369(10) 0.01014 359.3 7.4
346(10) 0.01005 359.3 7.2
357(10) 0.00911 359.4 7.0
346(10) 0.01017 359.4 6.9
333(9) 0.01125 359.4 6.8
376(10) 0.00981 359.4 6.6
369(11) 0.00904 359.4 6.5
353(10) 0.00916 359.5 6.4
337(10) 0.01041 359.5 6.3
358(10) 0.01041 359.5 6.2
378(10) 0.00970 359.5 6.1
343(10) 0.01041 359.5 6.0
356(11) 0.00902 359.6 5.9
343(10) 0.00984 359.6 5.9
336(9) 0.01111 359.6 5.8
363(10) 0.00997 359.6 5.7
352(10) 0.00966 359.6 5.7
353(10) 0.00959 359.7 5.6
331(10) 0.01074 359.7 5.6
337(10) 0.01104 359.7 5.5
369(10) 0.00959 359.7 5.5
352(10) 0.00994 359.7 5.5
353(10) 0.00970 359.8 5.4
362(10) 0.00957 359.8 5.4
393(10) 0.00940 359.8 5.4
377(10) 0.00960 359.8 5.4
380(10) 0.00924 359.8 5.4
375(11) 0.00893 359.9 5.4
359(10) 0.00963 359.9 5.3
363(10) 0.01010 359.9 5.3
337(10) 0.01038 359.9 5.3
310(10) 0.01095 359.9 5.3
355(10) 0.00946 360.0 5.4
360(10) 0.00994 360.0 5.4
370(10) 0.01004 360.0 5.4
357(10) 0.00987 360.0 5.4
356(10) 0.00931 360.0 5.4
354(10) 0.00969 360.1 5.4
364(10) 0.00972 360.1 5.5
358(10) 0.01040 360.1 5.5
373(10) 0.00926 360.1 5.5
386(11) 0.00841 360.1 5.6
370(10) 0.00911 360.1 5.6
377(10) 0.00975 360.0 5.7
347(10) 0.01072 360.0 5.7
345(10) 0.01012 359.9 5.8
357(10) 0.00930 359.9 5.8
344(10) 0.00997 359.9 5.9
359(10) 0.01002 359.8 6.0
375(10) 0.00992 359.8 6.0
386(10) 0.00914 359.7 6.1
378(11) 0.00885 359.7 6.2
381(10) 0.00916 359.6 6.3
367(10) 0.00994 359.6 6.4
347(10) 0.01088 359.5 6.5
376(11) 0.00902 359.5 6.6
344(10) 0.00959 359.5 6.7
349(10) 0.00997 359.4 6.9
376(10) 0.00982 359.4 7.0
345(10) 0.01086 359.3 7.2
355(10) 0.00977 359.3 7.3
380(11) 0.00862 359.2 7.5
381(11) 0.00883 359.2 7.7
352(10) 0.01057 359.1 7.9
373(10) 0.00979 359.1 8.1
368(10) 0.00953 359.1 8.4
355(10) 0.00910 359.0 8.6
376(10) 0.00919 359.0 8.9
371(10) 0.01005 358.9 9.2
386(10) 0.00921 358.9 9.5
394(11) 0.00879 358.8 9.8
379(11) 0.00900 358.8 10.1
383(10) 0.00909 358.7 10.5
367(10) 0.01021 358.7 10.9
358(10) 0.00984 358.7 11.3
349(10) 0.01001 358.6 11.7
352(10) 0.00990 358.6 12.2
398(11) 0.00873 358.5 12.7
357(10) 0.01036 358.5 13.2
368(10) 0.00985 358.4 13.8
378(10) 0.00922 358.4 14.4
362(10) 0.00960 358.3 15.0
372(10) 0.00971 358.3 15.7
352(10) 0.01054 358.3 16.5
373(10) 0.00933 358.2 17.3
391(11) 0.00862 358.2 18.2
368(10) 0.00941 358.1 19.2
386(10) 0.00912 358.1 20.3
388(10) 0.00960 358.0 21.5
389(11) 0.00887 358.0 22.9
376(11) 0.00895 358.0 24.4
380(10) 0.00923 357.9 26.1
378(10) 0.00970 357.9 27.7
365(10) 0.01022 357.8 29.4
397(11) 0.00848 357.8 30.8
381(11) 0.00871 357.7 31.8
384(11) 0.00881 357.7 32.2
350(10) 0.01042 357.6 32.2
384(10) 0.00977 357.6 31.8
416(11) 0.00831 357.6 31.4
403(11) 0.00840 357.5 31.0
398(11) 0.00904 357.5 30.9
407(10) 0.00914 357.4 31.3
404(10) 0.00922 357.4 32.3
427(11) 0.00814 357.3 34.3
398(11) 0.00812 357.3 37.6
423(11) 0.00831 357.2 43.3
423(11) 0.00866 357.2 52.8
467(11) 0.00793 357.2 68.3
476(12) 0.00750 357.1 92.3
503(12) 0.00652 357.1 126.7
539(13) 0.00619 357.0 171.7
602(13) 0.00618 357.0 224.2
655(13) 0.00563 356.9 276.1
691(14) 0.00505 356.9 313.4
704(15) 0.00473 356.8 320.6
655(14) 0.00538 356.8 293.8
562(12) 0.00663 356.8 245.3
505(12) 0.00721 356.7 191.1
511(12) 0.00670 356.7 142.1
459(12) 0.00751 356.6 103.2
432(11) 0.00795 356.6 75.4
405(10) 0.00909 356.5 57.2
391(10) 0.00914 356.5 45.9
399(11) 0.00860 356.4 39.1
403(11) 0.00845 356.4 35.1
412(11) 0.00875 356.4 32.6
394(10) 0.00941 356.3 31.0
393(10) 0.00915 356.3 29.9
375(10) 0.00960 356.2 29.2
404(11) 0.00830 356.2 28.7
412(11) 0.00857 356.1 28.4
382(10) 0.00978 356.1 28.3
364(10) 0.00967 356.1 28.3
424(11) 0.00780 356.0 28.5
391(11) 0.00878 356.0 28.7
380(10) 0.00947 355.9 29.0
408(10) 0.00916 355.9 29.4
422(11) 0.00823 355.8 29.8
436(11) 0.00772 355.8 30.3
403(11) 0.00861 355.7 30.8
409(11) 0.00870 355.7 31.3
376(10) 0.00989 355.7 31.8
381(11) 0.00905 355.6 32.4
399(11) 0.00835 355.6 33.0
400(11) 0.00863 355.5 33.6
402(10) 0.00919 355.5 34.2
370(10) 0.01008 355.4 34.7
417(11) 0.00820 355.4 35.3
361(10) 0.00925 355.3 35.9
377(10) 0.00924 355.3 36.4
397(10) 0.00930 355.3 37.0
373(10) 0.00994 355.2 37.5
386(11) 0.00893 355.2 38.0
393(11) 0.00793 355.1 38.6
398(11) 0.00876 355.1 39.1
382(10) 0.00980 355.0 39.7
381(10) 0.00951 355.0 40.3
421(11) 0.00813 354.9 41.0
395(11) 0.00819 354.9 41.8
380(11) 0.00903 354.9 42.8
422(11) 0.00881 354.8 43.9
398(10) 0.00946 354.8 45.2
411(11) 0.00861 354.7 46.7
392(11) 0.00844 354.7 48.6
392(11) 0.00863 354.6 50.9
404(10) 0.00925 354.6 53.7
419(11) 0.00877 354.5 57.0
454(12) 0.00753 354.5 60.9
436(11) 0.00763 354.5 65.4
428(11) 0.00815 354.4 70.6
427(11) 0.00879 354.4 76.5
459(11) 0.00777 354.3 83.1
469(12) 0.00727 354.3 90.4
498(12) 0.00670 354.2 98.0
513(12) 0.00666 354.2 105.7
508(12) 0.00734 354.2 113.2
519(12) 0.00687 354.1 119.7
509(12) 0.00665 354.1 124.7
472(12) 0.00728 354.0 127.4
487(12) 0.00750 354.0 127.7
492(12) 0.00755 353.9 125.5
500(12) 0.00698 353.9 121.3
475(12) 0.00695 353.8 115.6
435(11) 0.00803 353.8 109.1
453(11) 0.00789 353.8 102.4
462(11) 0.00799 353.7 95.8
445(11) 0.00785 353.7 89.7
448(12) 0.00732 353.6 84.2
433(11) 0.00792 353.6 79.3
453(11) 0.00777 353.5 75.0
419(11) 0.00890 353.5 71.4
434(11) 0.00804 353.4 68.3
414(11) 0.00797 353.4 65.7
417(11) 0.00829 353.4 63.5
410(11) 0.00871 353.3 61.6
392(10) 0.00943 353.3 59.9
430(11) 0.00793 353.2 58.4
415(11) 0.00800 353.2 56.9
430(11) 0.00813 353.1 55.6
432(11) 0.00847 353.1 54.2
385(10) 0.00977 353.0 52.8
419(11) 0.00829 353.0 51.3
416(11) 0.00797 353.0 49.9
407(11) 0.00854 352.9 48.3
403(10) 0.00931 352.9 46.8
416(11) 0.00888 352.8 45.2
403(11) 0.00843 352.8 43.6
380(11) 0.00860 352.7 42.0
395(11) 0.00894 352.7 40.4
411(11) 0.00897 352.6 38.8
413(11) 0.00893 352.6 37.2
412(11) 0.00812 352.6 35.7
370(11) 0.00896 352.5 34.3
352(10) 0.00985 352.5 32.9
401(10) 0.00924 352.4 31.6
381(10) 0.00977 352.4 30.3
381(11) 0.00897 352.3 29.1
372(11) 0.00885 352.3 28.0
379(10) 0.00934 352.2 26.9
393(10) 0.00947 352.2 25.9
403(11) 0.00864 352.2 25.0
366(10) 0.00973 352.1 24.1
351(10) 0.00981 352.1 23.3
391(11) 0.00858 352.0 22.6
379(10) 0.00989 352.0 22.0
369(10) 0.00981 351.9 21.4
351(10) 0.00968 351.9 20.8
368(11) 0.00905 351.9 20.4
378(10) 0.00919 351.8 20.0
346(10) 0.01088 351.8 19.7
381(10) 0.00957 351.7 19.4
378(10) 0.00908 351.7 19.2
367(10) 0.00922 351.6 19.0
388(11) 0.00901 351.6 18.9
416(11) 0.00901 351.5 18.9
384(10) 0.00926 351.5 19.0
400(11) 0.00847 351.5 19.1
376(10) 0.00934 351.4 19.3
365(10) 0.00978 351.4 19.6
385(10) 0.00968 351.3 20.0
394(11) 0.00880 351.3 20.6
383(11) 0.00872 351.2 21.2
370(10) 0.00963 351.2 22.0
378(10) 0.00975 351.1 22.9
361(10) 0.01038 351.1 24.1
376(10) 0.00934 351.1 25.5
398(11) 0.00833 351.0 27.2
389(10) 0.00919 351.0 29.3
380(10) 0.00960 350.9 31.8
400(10) 0.00936 350.9 34.8
369(10) 0.00959 350.8 38.4
410(11) 0.00792 350.8 42.7
406(11) 0.00847 350.7 47.7
409(11) 0.00876 350.7 53.6
429(11) 0.00854 350.7 60.3
441(11) 0.00800 350.6 68.0
461(12) 0.00704 350.6 76.6
480(12) 0.00715 350.5 86.0
481(11) 0.00775 350.5 96.1
469(11) 0.00780 350.4 106.3
485(12) 0.00708 350.4 116.3
504(13) 0.00638 350.3 125.2
491(12) 0.00693 350.3 132.3
530(12) 0.00709 350.3 136.7
519(12) 0.00701 350.2 138.0
526(12) 0.00659 350.2 136.1
527(13) 0.00635 350.1 131.2
510(12) 0.00664 350.1 124.0
488(11) 0.00762 350.0 115.2
488(12) 0.00743 350.0 105.5
459(12) 0.00734 350.0 95.5
482(12) 0.00692 349.9 85.8
473(12) 0.00724 349.9 76.6
444(11) 0.00826 349.8 68.1
400(11) 0.00892 349.8 60.5
394(11) 0.00886 349.7 53.9
395(11) 0.00858 349.7 48.1
413(11) 0.00844 349.6 43.1
384(10) 0.00971 349.6 38.8
371(10) 0.00987 349.6 35.3
400(11) 0.00856 349.5 32.3
375(11) 0.00901 349.5 29.8
364(10) 0.00950 349.4 27.7
401(10) 0.00928 349.4 26.0
369(10) 0.00947 349.3 24.5
406(11) 0.00800 349.3 23.2
408(11) 0.00805 349.2 22.0
344(10) 0.01061 349.2 20.9
365(10) 0.01015 349.2 19.9
373(10) 0.00929 349.1 19.0
364(10) 0.00917 349.1 18.1
351(10) 0.00967 349.0 17.2
369(10) 0.00977 349.0 16.4
368(10) 0.01010 348.9 15.6
359(10) 0.00968 348.9 14.9
357(10) 0.00948 348.8 14.1
368(10) 0.00946 348.8 13.5
361(10) 0.01025 348.8 12.8
345(10) 0.01068 348.7 12.2
346(10) 0.00969 348.7 11.7
368(11) 0.00875 348.6 11.1
357(10) 0.00984 348.6 10.6
343(10) 0.01059 348.5 10.1
324(9) 0.01157 348.5 9.7
351(10) 0.01010 348.4 9.3
370(11) 0.00872 348.4 8.9
340(10) 0.01046 348.4 8.6
365(10) 0.01006 348.3 8.2
340(10) 0.01088 348.3 7.9
347(10) 0.00976 348.2 7.7
340(10) 0.00935 348.2 7.4
358(10) 0.00951 348.1 7.2
358(10) 0.01049 348.1 6.9
361(10) 0.01004 348.1 6.7
354(10) 0.00965 348.0 6.5
362(11) 0.00889 348.0 6.4
355(10) 0.00970 347.9 6.2
354(10) 0.01040 347.9 6.0
358(10) 0.01005 347.8 5.9
366(10) 0.00935 347.8 5.8
362(11) 0.00905 347.7 5.6
367(10) 0.00921 347.7 5.5
348(10) 0.01076 347.7 5.4
345(10) 0.01038 347.6 5.3
336(10) 0.01022 347.6 5.2
355(10) 0.00967 347.5 5.1
339(10) 0.01066 347.5 5.1
338(10) 0.01100 347.4 5.0
366(10) 0.00970 347.4 4.9
310(9) 0.01144 347.3 4.9
361(10) 0.00923 347.3 4.8
391(11) 0.00900 347.3 4.8
362(10) 0.01024 347.2 4.8
347(10) 0.01056 347.2 4.7
391(11) 0.00857 347.1 4.7
389(11) 0.00833 347.1 4.7
349(10) 0.01045 347.0 4.7
333(9) 0.01120 347.0 4.6
352(10) 0.00980 346.9 4.6
350(10) 0.00978 346.9 4.6
371(10) 0.00943 346.9 4.6
357(10) 0.01002 346.8 4.6
330(9) 0.01137 346.8 4.6
327(10) 0.01037 346.7 4.6
345(10) 0.00934 346.7 4.5
360(10) 0.00948 346.6 4.5
357(10) 0.01002 346.6 4.5
352(10) 0.01061 346.5 4.4
371(11) 0.00902 346.5 4.4
358(10) 0.00914 346.5 4.3
369(10) 0.00959 346.4 4.3
384(10) 0.00966 346.4 4.2
348(10) 0.01067 346.3 4.2
342(10) 0.01023 346.3 4.1
351(10) 0.00924 346.2 4.1
358(10) 0.00974 346.2 4.0
368(10) 0.01003 346.1 4.0
360(10) 0.01016 346.1 4.0
359(10) 0.00941 346.1 4.0
347(10) 0.00917 346.0 3.9
339(10) 0.01049 346.0 3.9
346(10) 0.01081 345.9 3.9
375(10) 0.00968 345.9 3.9
377(10) 0.00928 345.8 3.9
339(10) 0.01000 345.8 3.9
371(10) 0.00928 345.8 3.9
334(9) 0.01116 345.7 3.9
338(10) 0.01081 345.8 3.9
342(10) 0.01004 345.8 3.9
344(10) 0.00963 345.8 3.9
373(10) 0.00938 345.8 3.9
347(10) 0.01070 345.9 3.9
340(10) 0.01060 345.9 4.0
345(10) 0.01013 345.9 4.0
340(10) 0.00941 346.0 4.0
376(11) 0.00881 346.0 4.0
342(10) 0.01092 346.0 4.1
353(10) 0.01009 346.0 4.1
353(10) 0.01010 346.1 4.1
344(10) 0.00970 346.1 4.2
356(10) 0.00970 346.1 4.2
347(10) 0.01074 346.1 4.2
347(10) 0.01030 346.2 4.3
341(10) 0.00979 346.2 4.3
343(10) 0.00973 346.2 4.4
326(9) 0.01115 346.2 4.5
359(10) 0.01024 346.3 4.5
346(10) 0.01037 346.3 4.6
370(11) 0.00900 346.3 4.7
339(10) 0.01045 346.3 4.7
327(9) 0.01121 346.4 4.8
332(9) 0.01119 346.4 4.9
355(10) 0.00978 346.4 5.0
356(10) 0.00944 346.4 5.1
331(10) 0.01048 346.5 5.2
351(10) 0.01043 346.5 5.3
352(10) 0.01055 346.5 5.4
347(10) 0.00973 346.5 5.5
328(10) 0.01037 346.6 5.6
365(10) 0.00947 346.6 5.7
398(10) 0.00911 346.6 5.8
374(10) 0.00987 346.7 5.9
361(10) 0.00959 346.7 6.1
366(11) 0.00867 346.7 6.2
354(10) 0.00965 346.7 6.3
343(10) 0.01087 346.8 6.5
346(10) 0.01088 346.8 6.6
342(10) 0.01011 346.8 6.8
344(10) 0.00942 346.8 6.9
357(10) 0.00968 346.9 7.1
354(10) 0.01035 346.9 7.2
359(10) 0.01026 346.9 7.4
345(10) 0.01021 346.9 7.5
358(10) 0.00912 347.0 7.7
357(10) 0.00992 347.0 7.9
361(10) 0.01026 347.0 8.1
333(10) 0.01101 347.0 8.3
371(10) 0.00935 347.1 8.5
370(10) 0.00913 347.1 8.8
357(10) 0.00940 347.1 9.1
344(10) 0.01066 347.1 9.3
363(10) 0.00992 347.2 9.7
360(10) 0.00974 347.2 10.0
375(11) 0.00856 347.2 10.4
328(10) 0.01058 347.2 10.8
356(10) 0.01048 347.3 11.2
381(10) 0.00943 347.3 11.7
369(10) 0.00921 347.3 12.3
381(11) 0.00891 347.4 12.9
374(10) 0.00944 347.4 13.6
345(10) 0.01087 347.4 14.3
352(10) 0.00986 347.4 15.1
380(11) 0.00882 347.5 16.0
326(10) 0.01052 347.5 16.9
386(11) 0.00904 347.5 18.0
377(10) 0.00993 347.5 19.1
378(10) 0.00941 347.6 20.3
373(10) 0.00921 347.6 21.6
353(10) 0.01001 347.6 23.1
377(10) 0.00954 347.6 24.6
406(10) 0.00913 347.7 26.3
391(10) 0.00909 347.7 28.1
399(11) 0.00847 347.7 29.9
383(10) 0.00919 347.7 31.9
397(10) 0.00920 347.8 34.0
366(10) 0.01021 347.8 36.2
393(11) 0.00865 347.8 38.5
389(11) 0.00862 347.8 40.8
393(11) 0.00877 347.9 43.2
406(10) 0.00915 347.9 45.6
404(10) 0.00911 347.9 47.9
412(11) 0.00852 347.9 50.1
400(11) 0.00810 348.0 52.2
424(11) 0.00781 348.0 54.0
400(10) 0.00925 348.0 55.6
386(10) 0.00962 348.1 56.8
406(11) 0.00868 348.1 57.7
421(11) 0.00765 348.1 58.1
415(11) 0.00844 348.1 58.1
374(10) 0.01003 348.2 57.6
400(10) 0.00921 348.2 56.7
386(11) 0.00904 348.2 55.4
399(11) 0.00855 348.2 53.8
388(10) 0.00908 348.3 51.9
380(10) 0.00976 348.3 49.9
388(10) 0.00938 348.3 47.6
379(10) 0.00921 348.3 45.3
406(11) 0.00805 348.4 42.9
387(11) 0.00886 348.4 40.6
395(10) 0.00944 348.4 38.2
367(10) 0.00978 348.4 36.0
379(11) 0.00899 348.5 33.8
393(11) 0.00850 348.5 31.7
363(10) 0.00985 348.5 29.7
367(10) 0.01006 348.5 27.8
383(10) 0.00944 348.6 26.1
352(10) 0.00957 348.6 24.4
355(10) 0.00937 348.6 22.9
361(10) 0.00979 348.6 21.5
362(10) 0.01028 348.7 20.1
365(10) 0.00966 348.7 18.9
366(10) 0.00929 348.7 17.8
337(10) 0.01009 348.8 16.8
342(10) 0.01046 348.8 15.8
365(10) 0.01017 348.8 14.9
351(10) 0.01024 348.8 14.2
363(10) 0.00931 348.9 13.4
355(10) 0.00976 348.9 12.8
354(10) 0.01035 348.9 12.2
350(10) 0.01052 348.9 11.6
380(11) 0.00877 349.0 11.1
333(10) 0.01036 349.0 10.7
323(10) 0.01105 349.0 10.3
331(9) 0.01113 349.0 9.9
363(10) 0.01015 349.1 9.6
353(10) 0.00969 349.1 9.3
378(11) 0.00855 349.1 9.0
375(11) 0.00903 349.1 8.8
366(10) 0.00994 349.2 8.6
345(10) 0.01069 349.2 8.4
342(10) 0.01039 349.2 8.2
331(10) 0.01018 349.2 8.1
365(10) 0.00947 349.3 8.0
356(10) 0.01052 349.3 7.9
353(10) 0.01054 349.3 7.8
346(10) 0.00999 349.4 7.8
355(11) 0.00893 349.4 7.7
337(10) 0.01076 349.4 7.7
378(10) 0.00962 349.4 7.7
341(10) 0.01096 349.5 7.7
350(10) 0.00959 349.5 7.8
358(11) 0.00906 349.5 7.8
348(10) 0.01035 349.5 7.9
328(9) 0.01125 349.6 7.9
351(10) 0.01058 349.6 8.0
344(10) 0.00985 349.6 8.1
350(11) 0.00898 349.6 8.2
352(10) 0.00955 349.7 8.2
352(10) 0.01040 349.7 8.3
387(10) 0.00952 349.7 8.3
354(10) 0.00994 349.7 8.3
356(10) 0.00917 349.8 8.3
350(10) 0.00990 349.8 8.3
346(10) 0.01068 349.8 8.2
344(10) 0.01042 349.8 8.1
351(10) 0.00992 349.9 8.0
357(10) 0.00969 349.9 7.8
379(10) 0.00926 349.9 7.7
388(10) 0.00951 349.9 7.5
322(9) 0.01149 350.0 7.3
345(10) 0.01006 350.0 7.1
348(10) 0.01014 350.0 6.9
335(10) 0.01057 350.1 6.7
327(9) 0.01130 350.1 6.6
345(10) 0.01008 350.1 6.4
343(10) 0.00986 350.1 6.2
361(10) 0.00933 350.2 6.1
343(10) 0.01061 350.2 5.9
328(9) 0.01132 350.2 5.8
362(10) 0.00926 350.2 5.6
357(10) 0.00908 350.3 5.5
342(10) 0.01008 350.3 5.4
359(10) 0.00992 350.3 5.3
326(9) 0.01141 350.3 5.2
346(10) 0.00985 350.4 5.1
354(10) 0.00941 350.4 5.1
355(10) 0.00988 350.4 5.0
328(9) 0.01123 350.4 4.9
354(10) 0.01058 350.5 4.9
353(10) 0.00976 350.5 4.8
338(10) 0.00971 350.5 4.8
369(10) 0.00933 350.5 4.8
353(10) 0.01036 350.6 4.7
350(10) 0.01061 350.6 4.7
350(10) 0.00933 350.6 4.7
323(10) 0.01032 350.6 4.7
353(10) 0.01024 350.7 4.7
354(10) 0.01061 350.7 4.7
365(10) 0.01009 350.7 4.7
373(10) 0.00938 350.8 4.7
372(11) 0.00868 350.8 4.7
361(10) 0.00939 350.8 4.7
361(10) 0.01033 350.8 4.8
362(10) 0.01021 350.9 4.8
354(10) 0.00993 350.9 4.8
343(10) 0.00976 350.9 4.9
351(10) 0.01014 350.9 5.0
364(10) 0.01022 351.0 5.0
406(11) 0.00898 351.0 5.1
358(10) 0.01032 351.0 5.2
359(10) 0.00940 351.0 5.3
336(10) 0.01061 351.1 5.5
351(10) 0.01070 351.1 5.6
354(10) 0.01039 351.1 5.8
343(10) 0.01009 351.1 6.1
363(11) 0.00899 351.2 6.3
325(9) 0.01124 351.2 6.7
366(10) 0.01015 351.2 7.1
345(10) 0.01070 351.2 7.6
353(10) 0.01008 351.3 8.4
377(11) 0.00904 351.3 9.5
373(10) 0.00943 351.3 11.4
357(10) 0.01046 351.3 14.9
382(10) 0.00940 351.4 20.7
378(10) 0.00928 351.4 30.2
396(11) 0.00884 351.4 43.9
436(11) 0.00809 351.5 61.4
445(11) 0.00836 351.5 80.2
441(11) 0.00793 351.5 95.4
426(11) 0.00797 351.5 100.9
447(11) 0.00768 351.6 93.6
417(11) 0.00850 351.6 77.5
398(10) 0.00927 351.6 58.8
375(10) 0.00916 351.6 42.1
405(11) 0.00810 351.7 29.4
383(11) 0.00886 351.7 20.8
377(10) 0.00940 351.7 15.7
357(10) 0.01035 351.7 12.9
378(11) 0.00877 351.8 11.5
383(11) 0.00848 351.8 10.7
373(10) 0.00939 351.8 10.2
365(10) 0.01022 351.8 9.9
365(10) 0.00982 351.9 9.7
378(11) 0.00906 351.9 9.5
373(11) 0.00870 351.9 9.5
379(10) 0.00923 351.9 9.6
327(9) 0.01144 352.0 9.7
335(10) 0.01107 352.0 10.0
369(10) 0.00928 352.0 10.3
360(11) 0.00880 352.0 10.6
369(10) 0.00923 352.1 11.0
354(10) 0.01036 352.1 11.5
336(10) 0.01086 352.1 12.0
372(10) 0.00922 352.2 12.5
370(10) 0.00908 352.2 13.1
365(10) 0.00967 352.2 13.8
375(10) 0.00985 352.2 14.5
367(10) 0.00987 352.3 15.3
364(10) 0.00945 352.3 16.2
377(11) 0.00879 352.3 17.0
363(10) 0.00986 352.3 17.9
381(10) 0.00967 352.4 18.8
365(10) 0.00988 352.4 19.8
379(11) 0.00903 352.4 20.7
366(11) 0.00882 352.4 21.6
377(11) 0.00897 352.5 22.4
354(10) 0.01045 352.5 23.2
401(10) 0.00909 352.5 23.8
401(11) 0.00859 352.5 24.3
405(11) 0.00852 352.6 24.6
388(10) 0.00919 352.6 24.8
369(10) 0.01015 352.6 24.8
376(10) 0.00945 352.6 24.6
371(10) 0.00927 352.7 24.3
389(11) 0.00884 352.7 23.9
375(10) 0.00962 352.7 23.4
376(10) 0.00985 352.7 22.9
399(11) 0.00887 352.8 22.3
402(11) 0.00830 352.8 21.8
404(11) 0.00856 352.8 21.2
390(10) 0.00926 352.9 20.7
385(10) 0.00968 352.9 20.2
365(10) 0.00939 352.9 19.8
358(10) 0.00920 352.9 19.5
360(10) 0.00940 353.0 19.2
359(10) 0.00999 353.0 19.0
354(10) 0.01047 353.0 18.8
376(10) 0.00918 353.0 18.7
338(10) 0.00982 353.1 18.7
360(10) 0.00955 353.1 18.8
348(10) 0.01055 353.1 18.9
396(10) 0.00949 353.1 19.1
348(10) 0.01019 353.2 19.3
350(11) 0.00899 353.2 19.7
352(10) 0.00977 353.2 20.0
341(10) 0.01102 353.2 20.4
343(10) 0.01084 353.3 20.8
388(11) 0.00879 353.3 21.3
389(11) 0.00825 353.3 21.8
380(10) 0.00946 353.3 22.3
372(10) 0.01005 353.4 22.7
366(10) 0.01003 353.4 23.2
398(11) 0.00873 353.4 23.6
339(10) 0.00999 353.5 24.0
350(10) 0.00992 353.5 24.4
357(10) 0.01047 353.5 24.7
363(10) 0.01015 353.5 24.9
367(11) 0.00906 353.6 25.0
364(11) 0.00902 353.6 25.1
380(11) 0.00901 353.6 25.2
376(10) 0.00996 353.6 25.2
379(10) 0.00948 353.7 25.2
384(11) 0.00870 353.7 25.1
348(10) 0.00954 353.7 25.0
360(10) 0.00984 353.7 24.9
370(10) 0.00986 353.8 24.9
359(10) 0.01025 353.8 24.8
394(11) 0.00859 353.8 24.8
362(10) 0.00948 353.8 24.8
354(10) 0.00985 353.9 24.8
346(10) 0.01063 353.9 24.9
363(10) 0.00990 353.9 25.1
377(10) 0.00918 353.9 25.3
371(10) 0.00920 354.0 25.6
371(10) 0.00955 354.0 25.9
394(10) 0.00927 354.0 26.4
359(10) 0.00989 354.0 26.9
394(11) 0.00869 354.1 27.4
376(10) 0.00958 354.1 28.1
385(10) 0.00932 354.1 28.7
365(10) 0.01006 354.2 29.4
360(10) 0.00948 354.2 30.0
361(10) 0.00935 354.2 30.6
371(10) 0.00935 354.2 31.0
358(10) 0.01014 354.3 31.3
370(10) 0.01004 354.3 31.5
363(10) 0.00981 354.3 31.7
397(11) 0.00847 354.3 31.8
381(10) 0.00928 354.4 31.9
377(10) 0.00967 354.4 32.0
382(10) 0.00963 354.3 32.0
381(10) 0.00926 354.3 31.9
389(11) 0.00815 354.3 31.5
363(10) 0.00963 354.3 30.9
367(10) 0.01012 354.2 30.2
343(10) 0.01080 354.2 29.4
348(10) 0.01028 354.2 28.7
364(11) 0.00886 354.1 28.1
367(10) 0.00946 354.1 27.4
388(10) 0.00967 354.1 26.8
380(10) 0.00948 354.1 26.2
361(10) 0.00985 354.0 25.7
396(11) 0.00789 354.0 25.1
361(10) 0.00969 354.0 24.6
348(10) 0.01067 353.9 24.0
400(11) 0.00891 353.9 23.4
361(10) 0.00947 353.9 22.9
341(10) 0.00936 353.8 22.3
342(10) 0.00988 353.8 21.7
336(10) 0.01100 353.8 21.2
353(10) 0.01038 353.8 20.6
355(10) 0.00983 353.7 20.1
356(10) 0.00944 353.7 19.6
373(10) 0.00923 353.7 19.1
376(10) 0.01001 353.6 18.6
364(10) 0.00978 353.6 18.1
351(10) 0.00986 353.6 17.7
351(10) 0.00965 353.6 17.4
370(10) 0.00953 353.5 17.0
359(10) 0.01043 353.5 16.7
334(10) 0.01047 353.5 16.5
342(10) 0.01011 353.4 16.2
370(10) 0.00923 353.4 16.1
380(10) 0.00924 353.4 16.0
359(10) 0.01037 353.3 16.0
367(10) 0.00960 353.3 16.2
345(10) 0.00995 353.3 16.6
349(10) 0.01004 353.3 17.5
373(10) 0.00976 353.2 19.1
369(10) 0.01005 353.2 22.1
371(10) 0.00925 353.2 26.8
394(11) 0.00854 353.1 33.5
386(10) 0.00911 353.1 42.2
389(10) 0.00934 353.1 51.5
423(11) 0.00889 353.0 59.2
417(11) 0.00810 353.0 62.6
421(11) 0.00800 353.0 60.1
382(10) 0.00945 353.0 53.6
382(10) 0.00947 352.9 45.9
382(10) 0.00978 352.9 39.0
375(10) 0.00945 352.9 33.4
381(11) 0.00843 352.8 29.3
362(10) 0.00970 352.8 26.0
367(10) 0.01013 352.8 23.4
347(10) 0.01076 352.8 21.3
362(10) 0.00966 352.7 19.6
360(11) 0.00900 352.7 18.2
371(10) 0.00931 352.7 17.2
368(10) 0.00976 352.6 16.5
341(10) 0.01090 352.6 16.1
381(11) 0.00889 352.6 15.9
379(11) 0.00825 352.5 15.9
338(10) 0.01040 352.5 16.1
381(10) 0.00986 352.5 16.5
356(10) 0.01031 352.5 17.1
359(10) 0.00979 352.4 17.8
374(11) 0.00856 352.4 18.6
366(10) 0.00961 352.4 19.5
379(10) 0.00990 352.3 20.4
358(10) 0.01023 352.3 21.3
383(11) 0.00878 352.3 22.2
366(10) 0.00916 352.3 23.0
373(10) 0.00944 352.2 23.8
377(10) 0.00996 352.2 24.5
356(10) 0.01017 352.2 25.3
385(11) 0.00891 352.1 26.2
377(11) 0.00876 352.1 27.3
349(10) 0.01007 352.1 28.6
383(10) 0.00971 352.0 30.1
410(11) 0.00853 352.0 31.8
359(10) 0.00946 352.0 33.6
382(11) 0.00890 352.0 35.7
382(10) 0.00922 351.9 37.8
388(10) 0.00961 351.9 40.1
369(10) 0.00980 351.9 42.3
396(11) 0.00865 351.8 44.6
416(11) 0.00832 351.8 46.8
395(10) 0.00921 351.8 48.9
424(11) 0.00877 351.8 51.0
413(11) 0.00860 351.7 53.2
418(11) 0.00841 351.7 55.4
416(11) 0.00847 351.7 57.9
403(11) 0.00905 351.6 60.5
404(10) 0.00925 351.6 63.2
399(11) 0.00867 351.6 65.4
413(11) 0.00802 351.5 66.6
406(11) 0.00845 351.5 66.1
413(11) 0.00887 351.5 63.7
392(10) 0.00953 351.5 59.9
371(10) 0.00928 351.4 55.4
391(11) 0.00828 351.4 50.7
386(11) 0.00892 351.4 46.4
380(10) 0.00965 351.3 42.7
399(10) 0.00916 351.3 39.7
376(10) 0.00923 351.3 37.2
359(10) 0.00930 351.3 35.4
382(11) 0.00905 351.2 34.1
377(10) 0.00985 351.2 33.2
354(10) 0.01046 351.2 32.6
373(11) 0.00906 351.1 32.2
354(10) 0.00908 351.1 32.1
387(11) 0.00884 351.1 32.1
351(10) 0.01065 351.0 32.2
360(10) 0.01019 351.0 32.4
376(10) 0.00925 351.0 32.7
390(11) 0.00813 351.0 33.1
376(10) 0.00915 350.9 33.8
367(10) 0.01027 350.9 34.7
359(10) 0.01024 350.9 36.1
388(11) 0.00887 350.8 38.0
397(11) 0.00843 350.8 40.7
410(11) 0.00849 350.8 44.0
394(10) 0.00948 350.8 47.8
411(11) 0.00871 350.7 51.6
398(11) 0.00866 350.7 54.5
392(11) 0.00856 350.7 55.4
391(11) 0.00861 350.6 53.7
364(10) 0.01028 350.6 49.9
355(10) 0.01036 350.6 45.1
384(11) 0.00907 350.5 40.3
377(10) 0.00947 350.5 36.0
386(10) 0.00920 350.5 32.5
388(10) 0.00952 350.5 29.7
358(10) 0.01017 350.4 27.6
378(11) 0.00870 350.4 26.0
344(10) 0.00995 350.4 24.8
389(10) 0.00908 350.3 23.8
351(10) 0.01057 350.3 23.0
368(10) 0.00940 350.3 22.2
374(11) 0.00905 350.3 21.6
359(10) 0.00963 350.2 20.9
371(10) 0.00950 350.2 20.3
347(10) 0.01066 350.2 19.6
372(11) 0.00892 350.1 19.0
386(11) 0.00868 350.1 18.4
375(10) 0.00953 350.1 17.8
377(10) 0.00960 350.0 17.3
383(10) 0.00979 350.0 16.7
340(10) 0.01036 350.0 16.2
357(10) 0.00923 350.0 15.7
368(10) 0.00938 349.9 15.3
339(10) 0.01094 349.9 14.9
354(10) 0.01046 349.9 14.5
347(10) 0.01005 349.8 14.2
349(10) 0.00923 349.8 13.9
357(10) 0.00996 349.8 13.6
338(10) 0.01096 349.7 13.4
348(10) 0.01068 349.7 13.2
364(10) 0.00974 349.7 13.0
345(10) 0.00937 349.7 12.9
359(10) 0.00968 349.6 12.7
356(10) 0.01024 349.6 12.6
344(10) 0.01075 349.6 12.5
353(10) 0.00943 349.5 12.4
338(10) 0.00975 349.5 12.4
345(10) 0.01016 349.5 12.3
335(9) 0.01109 349.5 12.3
384(10) 0.00945 349.4 12.3
345(10) 0.00995 349.4 12.3
343(10) 0.00954 349.4 12.3
341(10) 0.01025 349.3 12.3
363(10) 0.01014 349.3 12.4
341(10) 0.01075 349.3 12.5
349(10) 0.00999 349.2 12.5
339(10) 0.00982 349.2 12.6
375(11) 0.00892 349.2 12.7
378(10) 0.00984 349.2 12.8
353(10) 0.01028 349.1 12.9
356(10) 0.00943 349.1 13.1
365(10) 0.00921 349.1 13.2
351(10) 0.00985 349.0 13.4
355(10) 0.01050 349.0 13.6
348(10) 0.00993 349.0 13.8
374(11) 0.00899 349.0 14.0
376(11) 0.00884 348.9 14.2
351(10) 0.01041 348.9 14.4
361(10) 0.01037 348.9 14.7
368(10) 0.00929 348.8 14.9
365(10) 0.00914 348.8 15.2
321(10) 0.01103 348.8 15.5
344(10) 0.01037 348.7 15.9
346(10) 0.01068 348.7 16.2
328(10) 0.01093 348.7 16.6
384(11) 0.00864 348.7 17.0
369(10) 0.00964 348.6 17.4
355(10) 0.01033 348.6 17.9
340(10) 0.01095 348.6 18.4
361(10) 0.00939 348.5 19.0
363(11) 0.00873 348.5 19.6
350(10) 0.00990 348.5 20.3
367(10) 0.00984 348.5 21.0
386(10) 0.00973 348.4 21.8
377(10) 0.00922 348.4 22.6
383(11) 0.00854 348.4 23.6
373(10) 0.00952 348.3 24.6
383(10) 0.00982 348.3 25.7
376(10) 0.00999 348.3 26.8
354(10) 0.00987 348.2 28.1
407(11) 0.00782 348.2 29.3
388(10) 0.00924 348.2 30.6
402(10) 0.00919 348.2 31.8
414(11) 0.00903 348.1 33.0
400(11) 0.00900 348.1 34.0
392(11) 0.00844 348.1 34.8
390(11) 0.00888 348.0 35.4
381(10) 0.00979 348.0 35.8
391(10) 0.00950 348.0 36.1
387(11) 0.00872 348.0 36.2
391(11) 0.00869 347.9 36.2
388(11) 0.00894 347.9 36.2
389(10) 0.00947 347.9 36.3
391(10) 0.00934 347.8 36.3
397(11) 0.00858 347.8 36.4
389(11) 0.00883 347.8 36.6
390(11) 0.00905 347.7 36.9
376(10) 0.00988 347.7 37.1
400(10) 0.00922 347.7 37.4
411(11) 0.00829 347.7 37.8
399(11) 0.00836 347.6 38.2
376(10) 0.00953 347.6 38.5
396(10) 0.00940 347.6 38.9
422(11) 0.00831 347.5 39.2
395(11) 0.00865 347.5 39.5
410(11) 0.00823 347.5 39.8
420(11) 0.00836 347.5 40.0
382(10) 0.00973 347.4 40.2
399(11) 0.00892 347.4 40.2
408(11) 0.00871 347.4 40.3
405(11) 0.00846 347.3 40.2
361(10) 0.01000 347.3 40.1
399(10) 0.00921 347.3 39.9
353(10) 0.00985 347.2 39.6
356(10) 0.00960 347.2 39.3
382(11) 0.00889 347.2 38.9
362(10) 0.00990 347.2 38.5
396(10) 0.00947 347.1 38.0
399(11) 0.00852 347.1 37.6
392(11) 0.00857 347.1 37.0
379(10) 0.00929 347.0 36.5
384(10) 0.00962 347.0 36.0
382(10) 0.00981 347.0 35.5
375(10) 0.00914 347.0 35.0
372(11) 0.00864 346.9 34.5
356(10) 0.00982 346.9 34.0
373(10) 0.00977 346.9 33.6
363(10) 0.01014 346.8 33.2
390(11) 0.00874 346.8 32.8
398(11) 0.00826 346.8 32.5
384(10) 0.00912 346.7 32.2
397(10) 0.00937 346.7 31.9
387(10) 0.00952 346.7 31.7
386(11) 0.00906 346.7 31.5
379(11) 0.00851 346.6 31.4
355(10) 0.00995 346.6 31.3
386(10) 0.00973 346.6 31.3
378(10) 0.00983 346.5 31.3
363(10) 0.00951 346.5 31.3
369(11) 0.00892 346.5 31.3
370(10) 0.00957 346.4 31.4
387(10) 0.00965 346.4 31.5
384(10) 0.00951 346.4 31.6
354(10) 0.00991 346.4 31.7
363(11) 0.00905 346.3 31.8
398(11) 0.00873 346.3 31.9
391(10) 0.00943 346.3 32.0
387(10) 0.00955 346.2 32.0
378(10) 0.00936 346.2 32.1
391(11) 0.00856 346.2 32.1
381(11) 0.00907 346.2 32.1
387(10) 0.00967 346.1 32.0
344(10) 0.01047 346.1 31.9
352(10) 0.00964 346.1 31.8
368(10) 0.00928 346.0 31.6
374(10) 0.00931 346.0 31.4
395(10) 0.00942 346.0 31.1
375(10) 0.00930 345.9 30.9
367(10) 0.00925 345.9 30.5
371(10) 0.00945 345.9 30.2
391(11) 0.00902 345.9 29.9
370(10) 0.01005 345.8 29.5
411(11) 0.00837 345.8 29.1
367(10) 0.00941 345.8 28.7
381(10) 0.00917 345.7 28.3
393(11) 0.00905 345.7 27.8
389(10) 0.00956 345.7 27.4
413(11) 0.00841 345.7 26.9
379(11) 0.00888 345.6 26.5
365(10) 0.00953 345.6 26.0
370(10) 0.00996 345.6 25.6
364(10) 0.01015 345.5 25.1
360(10) 0.00977 345.5 24.7
358(10) 0.00933 345.5 24.3
370(10) 0.00965 345.4 23.9
374(10) 0.00985 345.4 23.6
347(10) 0.01065 345.4 23.2
356(10) 0.00954 345.4 22.9
362(11) 0.00894 345.3 22.6
388(11) 0.00894 345.3 22.3
372(10) 0.00990 345.3 22.1
360(10) 0.01032 345.2 21.9
361(10) 0.00973 345.2 21.7
347(10) 0.00953 345.2 21.5
360(10) 0.00974 345.2 21.4
362(10) 0.01027 345.1 21.3
359(10) 0.01032 345.1 21.2
373(10) 0.00922 345.1 21.2
346(10) 0.00954 345.0 21.2
355(10) 0.00985 345.0 21.2
335(9) 0.01124 345.0 21.3
358(10) 0.01016 344.9 21.4
374(10) 0.00940 344.9 21.6
366(10) 0.00910 344.9 21.9
353(10) 0.01006 344.9 22.2
347(10) 0.01065 344.8 22.5
366(10) 0.00982 344.8 22.9
365(10) 0.00958 344.8 23.5
378(11) 0.00863 344.7 24.1
381(10) 0.00915 344.7 24.8
400(10) 0.00927 344.7 25.6
357(10) 0.01013 344.7 26.6
362(10) 0.00990 344.6 27.8
371(10) 0.00940 344.6 29.1
378(10) 0.00924 344.6 30.7
326(9) 0.01153 344.5 32.5
365(10) 0.00955 344.5 34.6
368(10) 0.00921 344.5 37.0
354(10) 0.00938 344.4 39.8
375(10) 0.00928 344.4 42.9
380(10) 0.00976 344.4 46.3
384(10) 0.00930 344.4 50.0
392(11) 0.00871 344.3 54.1
376(10) 0.00976 344.3 58.3
409(11) 0.00875 344.3 62.5
383(10) 0.00973 344.2 66.5
388(11) 0.00884 344.2 69.9
426(11) 0.00772 344.2 72.5
412(11) 0.00853 344.2 73.8
402(10) 0.00909 344.1 73.7
414(11) 0.00895 344.1 72.1
407(11) 0.00889 344.1 69.2
433(11) 0.00769 344.0 65.3
405(11) 0.00859 344.0 60.8
413(11) 0.00892 344.0 55.9
402(10) 0.00938 343.9 51.0
373(10) 0.00927 343.9 46.3
369(11) 0.00875 343.9 41.9
377(10) 0.00927 343.9 37.9
362(10) 0.01000 343.8 34.2
380(10) 0.00973 343.8 31.0
365(10) 0.00924 343.8 28.1
350(11) 0.00903 343.7 25.6
334(10) 0.01081 343.7 23.4
376(10) 0.00964 343.7 21.5
308(9) 0.01203 343.7 19.8
365(10) 0.00933 343.6 18.4
380(11) 0.00833 343.6 17.2
363(10) 0.00994 343.6 16.1
356(10) 0.01049 343.5 15.2
358(10) 0.01015 343.5 14.4
374(11) 0.00890 343.5 13.6
346(10) 0.00949 343.4 13.0
365(10) 0.00928 343.4 12.4
354(10) 0.01055 343.4 11.9
348(10) 0.01015 343.4 11.4
347(10) 0.00991 343.3 11.0
369(11) 0.00879 343.3 10.6
337(10) 0.01000 343.3 10.3
390(10) 0.00951 343.2 10.0
329(10) 0.01087 343.2 9.7
348(10) 0.00997 343.2 9.4
325(10) 0.01091 343.1 9.1
349(10) 0.00993 343.1 8.9
352(10) 0.01057 343.1 8.6
330(10) 0.01058 343.1 8.4
346(10) 0.00988 343.0 8.2
336(10) 0.01011 343.0 8.1
352(10) 0.01037 343.0 7.9
359(10) 0.01027 342.9 7.7
369(10) 0.00952 342.9 7.6
350(10) 0.00981 342.9 7.4
360(10) 0.00927 342.9 7.3
354(10) 0.01033 342.8 7.2
363(10) 0.01021 342.8 7.1
351(10) 0.00989 342.8 6.9
343(10) 0.01029 342.8 6.8
354(10) 0.00985 342.8 6.8
344(10) 0.01075 342.7 6.7
322(9) 0.01158 342.7 6.6
367(10) 0.00921 342.7 6.5
366(11) 0.00883 342.7 6.5
348(10) 0.01008 342.7 6.5
357(10) 0.01035 342.6 6.4
360(10) 0.01041 342.6 6.4
343(10) 0.01007 342.6 6.4
342(10) 0.00940 342.6 6.5
354(10) 0.00962 342.6 6.5
358(10) 0.01019 342.5 6.6
347(10) 0.01076 342.5 6.6
358(10) 0.00945 342.5 6.7
337(10) 0.00985 342.5 6.7
346(10) 0.01012 342.5 6.8
358(10) 0.01040 342.4 6.8
351(10) 0.01060 342.4 6.7
328(10) 0.01093 342.4 6.7
354(10) 0.00919 342.4 6.7
354(10) 0.01006 342.4 6.7
357(10) 0.01031 342.3 6.8
355(10) 0.01025 342.3 6.9
355(10) 0.00987 342.3 7.0
368(11) 0.00887 342.3 7.2
362(10) 0.00961 342.3 7.6
358(10) 0.01039 342.2 8.1
382(10) 0.00979 342.2 9.0
361(10) 0.00991 342.2 10.5
362(10) 0.00931 342.2 12.7
369(10) 0.00944 342.2 16.1
374(10) 0.00999 342.1 20.7
366(10) 0.01003 342.1 26.6
387(11) 0.00875 342.1 33.1
410(11) 0.00792 342.1 39.2
378(10) 0.00934 342.1 43.0
376(10) 0.00992 342.0 42.8
370(10) 0.00960 342.0 38.7
345(10) 0.00981 342.0 32.6
370(10) 0.00941 342.0 26.2
382(10) 0.00942 342.0 20.5
371(10) 0.01005 341.9 16.0
358(10) 0.00975 341.9 12.9
354(10) 0.00982 341.9 10.8
373(10) 0.00918 341.9 9.5
343(10) 0.01056 341.9 8.7
342(10) 0.01093 341.8 8.2
329(10) 0.01074 341.8 7.9
349(10) 0.00974 341.8 7.8
333(10) 0.01038 341.8 7.7
348(10) 0.01029 341.8 7.7
351(10) 0.01060 341.8 7.7
328(10) 0.01050 341.7 7.8
354(10) 0.00939 341.7 7.9
325(9) 0.01108 341.7 8.0
343(10) 0.01086 341.7 8.1
354(10) 0.01048 341.7 8.3
353(10) 0.00989 341.6 8.6
350(10) 0.00949 341.6 8.8
381(10) 0.00910 341.6 9.1
375(10) 0.00976 341.6 9.4
369(10) 0.01013 341.6 9.8
341(10) 0.01008 341.5 10.1
371(11) 0.00835 341.5 10.6
351(10) 0.00977 341.5 11.0
376(10) 0.00986 341.5 11.5
371(10) 0.01004 341.5 12.1
357(10) 0.00975 341.4 12.7
340(10) 0.00923 341.4 13.3
362(10) 0.00940 341.4 14.0
345(10) 0.01072 341.4 14.7
353(10) 0.01056 341.4 15.4
360(10) 0.00973 341.3 16.2
360(10) 0.00929 341.3 17.1
378(10) 0.00914 341.3 18.0
340(10) 0.01099 341.3 18.9
347(10) 0.01031 341.3 19.9
348(10) 0.00998 341.2 20.9
368(11) 0.00900 341.2 21.9
336(10) 0.01049 341.2 22.9
363(10) 0.01021 341.2 23.9
331(10) 0.01064 341.2 25.0
354(10) 0.00963 341.1 25.9
342(10) 0.00981 341.1 26.9
361(10) 0.00943 341.1 27.7
369(10) 0.01007 341.1 28.5
385(10) 0.00918 341.1 29.1
351(10) 0.01017 341.0 29.7
364(10) 0.00940 341.0 30.1
338(10) 0.01060 341.0 30.3
363(10) 0.01020 341.0 30.4
369(10) 0.00974 341.0 30.3
354(10) 0.00975 340.9 30.1
354(10) 0.00960 340.9 29.7
348(10) 0.01017 340.9 29.2
366(10) 0.01004 340.9 28.6
385(11) 0.00883 340.9 27.9
356(10) 0.00960 340.8 27.1
390(11) 0.00882 340.8 26.2
357(10) 0.00980 340.8 25.3
366(10) 0.01017 340.8 24.3
368(10) 0.00945 340.8 23.3
347(10) 0.00985 340.8 22.4
338(10) 0.01078 340.7 21.4
364(10) 0.01005 340.7 20.5
352(10) 0.01063 340.7 19.7
328(10) 0.01093 340.7 18.8
340(10) 0.00977 340.7 18.0
386(11) 0.00875 340.6 17.2
337(10) 0.01078 340.6 16.3
367(10) 0.01021 340.6 15.4
354(10) 0.00978 340.6 14.5
375(11) 0.00844 340.6 13.7
339(10) 0.01051 340.5 12.9
328(9) 0.01123 340.5 12.2
353(10) 0.01046 340.5 11.6
360(10) 0.00964 340.5 11.0
365(10) 0.00910 340.5 10.4
362(10) 0.00966 340.4 9.9
351(10) 0.01073 340.4 9.4
352(10) 0.01051 340.4 9.0
357(10) 0.00972 340.4 8.6
344(10) 0.00967 340.4 8.2
368(10) 0.00952 340.3 7.9
351(10) 0.01033 340.3 7.6
354(10) 0.01057 340.3 7.3
378(11) 0.00895 340.3 7.0
359(10) 0.00910 340.3 6.7
357(10) 0.00967 340.2 6.5
350(10) 0.01064 340.2 6.3
334(10) 0.01092 340.2 6.1
372(10) 0.00928 340.2 5.9
346(10) 0.00971 340.2 5.7
322(10) 0.01076 340.1 5.6
354(10) 0.01045 340.1 5.5
348(10) 0.01032 340.1 5.3
364(10) 0.00950 340.1 5.2
371(11) 0.00867 340.1 5.1
353(10) 0.01015 340.0 5.0
370(10) 0.01004 340.0 4.9
347(10) 0.01037 340.0 4.9
335(10) 0.01001 340.0 4.8
353(10) 0.00978 340.0 4.7
365(10) 0.00984 339.9 4.7
373(10) 0.00993 339.9 4.7
373(10) 0.00909 339.9 4.7
358(10) 0.00923 339.9 4.7
359(10) 0.00942 339.9 4.7
347(10) 0.01027 339.8 4.7
372(10) 0.00984 339.8 4.8
343(10) 0.01008 339.8 4.9
354(10) 0.00957 339.8 5.0
337(10) 0.01054 339.8 5.2
347(10) 0.01057 339.8 5.5
333(10) 0.01104 339.7 5.8
340(10) 0.01008 339.7 6.3
341(10) 0.00985 339.7 7.0
335(10) 0.01029 339.7 7.8
333(10) 0.01108 339.7 8.9
347(10) 0.01068 339.6 10.3
387(11) 0.00836 339.6 12.0
356(11) 0.00898 339.6 13.9
381(11) 0.00877 339.6 16.0
363(10) 0.01018 339.6 18.0
347(10) 0.01079 339.5 19.6
345(10) 0.01004 339.5 20.5
340(10) 0.00968 339.5 20.4
338(10) 0.01081 339.5 19.2
402(10) 0.00928 339.5 17.5
354(10) 0.01008 339.4 15.4
340(10) 0.01035 339.4 13.4
350(10) 0.00965 339.4 11.5
344(10) 0.01040 339.4 9.9
353(10) 0.01035 339.4 8.6
334(9) 0.01124 339.3 7.5
340(10) 0.01058 339.3 6.7
350(10) 0.00964 339.3 6.1
342(10) 0.00956 339.3 5.6
353(10) 0.01058 339.3 5.3
349(10) 0.01047 339.2 5.0
360(10) 0.00960 339.2 4.8
340(10) 0.00998 339.2 4.7
359(10) 0.00930 339.2 4.5
357(10) 0.01029 339.2 4.4
392(10) 0.00938 339.1 4.3
346(10) 0.01056 339.1 4.2
358(10) 0.00946 339.1 4.2
359(10) 0.00952 339.1 4.1
353(10) 0.01061 339.1 4.0
331(10) 0.01073 339.0 3.9
361(10) 0.00941 339.0 3.9
327(10) 0.01057 339.0 3.8
349(10) 0.01034 339.0 3.8
362(10) 0.01034 339.0 3.7
342(10) 0.01056 338.9 3.7
361(10) 0.00935 338.9 3.7
358(10) 0.00959 338.9 3.6
337(10) 0.01067 338.9 3.6
346(10) 0.01090 338.9 3.6
330(10) 0.01010 338.8 3.6
338(10) 0.00983 338.8 3.5
350(10) 0.01012 338.8 3.5
359(10) 0.01002 338.8 3.5
343(10) 0.01091 338.8 3.5
333(10) 0.01044 338.8 3.5
335(10) 0.00977 338.7 3.4
333(10) 0.01020 338.7 3.4
358(10) 0.01010 338.7 3.4
351(10) 0.01059 338.7 3.4
345(10) 0.00959 338.7 3.4
347(10) 0.00912 338.6 3.3
326(10) 0.01067 338.6 3.3
362(10) 0.00992 338.6 3.3
334(9) 0.01117 338.6 3.2
365(10) 0.00966 338.6 3.2
325(10) 0.01033 338.5 3.2
337(10) 0.01024 338.5 3.1
324(9) 0.01128 338.5 3.1
331(10) 0.01102 338.5 3.1
326(10) 0.01050 338.5 3.0
330(10) 0.00987 338.4 3.0
342(10) 0.01024 338.4 2.9
360(10) 0.01024 338.4 2.9
363(10) 0.01023 338.4 2.8
377(11) 0.00898 338.4 2.8
344(10) 0.00935 338.3 2.8
310(9) 0.01127 338.3 2.7
338(10) 0.01091 338.3 2.7
340(10) 0.01080 338.3 2.6
337(10) 0.01038 338.3 2.6
333(10) 0.01004 338.2 2.6
349(10) 0.00946 338.2 2.5
369(10) 0.01003 338.2 2.5
353(10) 0.01006 338.2 2.4
352(10) 0.00999 338.2 2.4
355(10) 0.00946 338.1 2.4
344(10) 0.00986 338.1 2.3
336(9) 0.01114 338.1 2.3
321(9) 0.01119 338.1 2.3
353(10) 0.00956 338.1 2.2
343(10) 0.00975 338.0 2.2
369(10) 0.00948 338.0 2.2
353(10) 0.01056 338.0 2.2
339(10) 0.01041 338.0 2.1
355(10) 0.00975 338.0 2.1
373(11) 0.00906 337.9 2.1
338(10) 0.01041 337.9 2.1
358(10) 0.01048 337.9 2.0
322(10) 0.01107 337.9 2.0
340(10) 0.00989 337.9 2.0
336(10) 0.01021 337.8 2.0
320(9) 0.01137 337.8 2.0
341(10) 0.01092 337.8 1.9
359(10) 0.00966 337.8 1.9
335(10) 0.01008 337.8 1.9
356(10) 0.00950 337.8 1.9
322(9) 0.01137 337.7 1.9
334(9) 0.01124 337.7 1.9
348(10) 0.00970 337.7 1.9
330(10) 0.01015 337.7 1.8
355(10) 0.00998 337.7 1.8
345(10) 0.01073 337.6 1.8
354(10) 0.01055 337.6 1.8
346(10) 0.01018 337.6 1.8
347(10) 0.00917 337.6 1.8
353(10) 0.00983 337.6 1.8
353(10) 0.01042 337.5 1.8
352(10) 0.01043 337.5 1.8
340(10) 0.01021 337.5 1.8
317(10) 0.01011 337.5 1.8
354(10) 0.00963 337.5 1.8
347(10) 0.01065 337.4 1.8
341(10) 0.01064 337.4 1.8
321(9) 0.01122 337.4 1.8
350(10) 0.00935 337.4 1.8
338(10) 0.01063 337.4 1.8
366(10) 0.01006 337.3 1.8
357(10) 0.01037 337.3 1.8
334(10) 0.01062 337.3 1.8
356(10) 0.00953 337.3 1.8
367(10) 0.00921 337.3 1.8
301(9) 0.01224 337.2 1.8
355(10) 0.01031 337.2 1.8
360(10) 0.00956 337.2 1.8
368(11) 0.00906 337.2 1.8
362(10) 0.00967 337.2 1.8
355(10) 0.01038 337.1 1.8
337(10) 0.01079 337.1 1.8
359(10) 0.00941 337.1 1.9
352(10) 0.00961 337.1 1.9
334(10) 0.01082 337.1 1.9
321(9) 0.01143 337.1 1.9
346(10) 0.01026 337.2 1.9
348(10) 0.00974 337.2 1.9
366(10) 0.00923 337.2 1.9
364(10) 0.00976 337.3 1.9
349(10) 0.01067 337.3 2.0
315(10) 0.01107 337.3 2.0
353(10) 0.00974 337.4 2.0
351(10) 0.00974 337.4 2.0
338(10) 0.01049 337.4 2.0
333(9) 0.01121 337.5 2.1
363(10) 0.00933 337.5 2.1
332(10) 0.01051 337.5 2.1
336(10) 0.01074 337.5 2.1
365(10) 0.00989 337.6 2.1
368(10) 0.01017 337.6 2.2
356(10) 0.00985 337.6 2.2
351(10) 0.00957 337.7 2.2
360(10) 0.00971 337.7 2.2
376(10) 0.00989 337.7 2.2
386(10) 0.00954 337.8 2.3
370(10) 0.00918 337.8 2.3
366(11) 0.00893 337.8 2.3
350(10) 0.01010 337.9 2.3
360(10) 0.01040 337.9 2.4
372(10) 0.01003 337.9 2.4
352(10) 0.01036 338.0 2.4
334(10) 0.00993 338.0 2.4
346(10) 0.00976 338.0 2.4
337(10) 0.01100 338.1 2.5
360(10) 0.01017 338.1 2.5
352(10) 0.00994 338.1 2.5
343(10) 0.00942 338.1 2.5
333(10) 0.01077 338.2 2.5
327(9) 0.01137 338.2 2.6
337(10) 0.01083 338.2 2.6
331(10) 0.01043 338.3 2.6
336(10) 0.00964 338.3 2.6
347(10) 0.00985 338.3 2.7
366(10) 0.01016 338.4 2.7
334(10) 0.01075 338.4 2.7
308(9) 0.01112 338.4 2.8
350(10) 0.00959 338.5 2.8
370(10) 0.00931 338.5 2.9
340(10) 0.01088 338.5 2.9
338(10) 0.01052 338.6 2.9
320(10) 0.01098 338.6 3.0
347(10) 0.01003 338.6 3.0
371(10) 0.00935 338.7 3.1
351(10) 0.01060 338.7 3.1
352(10) 0.01008 338.7 3.2
346(10) 0.01031 338.7 3.3
343(10) 0.00976 338.8 3.3
361(10) 0.00960 338.8 3.4
355(10) 0.01054 338.8 3.5
368(10) 0.00964 338.9 3.6
357(10) 0.00962 338.9 3.7
345(10) 0.00953 338.9 3.7
334(10) 0.01061 339.0 3.8
332(9) 0.01126 339.0 3.9
348(10) 0.01020 339.0 4.0
359(10) 0.00936 339.1 4.2
355(10) 0.00963 339.1 4.3
352(10) 0.01012 339.1 4.4
366(10) 0.01018 339.2 4.6
382(10) 0.00916 339.2 4.7
359(10) 0.00933 339.2 4.9
371(10) 0.00931 339.3 5.0
359(10) 0.01013 339.3 5.2
354(10) 0.01044 339.3 5.4
347(10) 0.01027 339.3 5.6
354(10) 0.00965 339.4 5.8
348(10) 0.01020 339.4 6.1
340(10) 0.01065 339.4 6.3
336(10) 0.01099 339.5 6.6
351(10) 0.01017 339.5 6.9
334(10) 0.00987 339.5 7.2
345(10) 0.01037 339.6 7.6
353(10) 0.01052 339.6 8.0
381(10) 0.00981 339.6 8.4
350(10) 0.01033 339.7 8.8
353(10) 0.00946 339.7 9.3
333(10) 0.01035 339.7 9.8
347(10) 0.01071 339.8 10.4
356(10) 0.01035 339.8 11.0
360(10) 0.00978 339.8 11.7
369(11) 0.00880 339.8 12.4
382(11) 0.00900 339.9 13.2
346(10) 0.01080 339.9 14.1
350(10) 0.01043 339.9 15.1
358(10) 0.00980 340.0 16.2
350(10) 0.00995 340.0 17.4
352(10) 0.00953 340.0 18.6
352(10) 0.01055 340.1 20.0
345(10) 0.01045 340.1 21.4
353(10) 0.00999 340.1 23.0
369(10) 0.00923 340.2 24.7
344(10) 0.01011 340.2 26.4
364(10) 0.01027 340.2 28.3
382(10) 0.00934 340.3 30.2
372(10) 0.00925 340.3 32.1
370(11) 0.00905 340.3 34.0
375(10) 0.00940 340.4 35.9
371(10) 0.01003 340.4 37.6
370(11) 0.00893 340.4 39.2
393(11) 0.00834 340.4 40.4
392(10) 0.00913 340.5 41.3
384(10) 0.00923 340.5 41.8
364(10) 0.01027 340.5 41.8
396(11) 0.00883 340.6 41.5
398(11) 0.00843 340.6 40.7
396(11) 0.00823 340.6 39.7
377(10) 0.00985 340.7 38.4
360(10) 0.01020 340.7 37.0
418(11) 0.00812 340.7 35.6
372(10) 0.00922 340.8 34.2
378(11) 0.00900 340.8 32.8
362(10) 0.00988 340.8 31.5
398(10) 0.00942 340.9 30.3
352(10) 0.00992 340.9 29.3
348(10) 0.00957 340.9 28.3
336(10) 0.01039 341.0 27.5
372(10) 0.00971 341.0 26.8
361(10) 0.01031 341.0 26.2
353(10) 0.01016 341.0 25.6
347(10) 0.00934 341.1 25.2
341(10) 0.01040 341.1 24.7
354(10) 0.01037 341.1 24.3
348(10) 0.01041 341.2 23.9
347(10) 0.01017 341.2 23.5
357(11) 0.00894 341.2 23.1
354(10) 0.00974 341.3 22.7
350(10) 0.01074 341.3 22.2
376(10) 0.00965 341.3 21.8
362(10) 0.00963 341.4 21.3
343(10) 0.00945 341.4 20.9
333(10) 0.01054 341.4 20.4
351(10) 0.01034 341.5 20.0
372(10) 0.00977 341.5 19.6
365(10) 0.00948 341.5 19.2
371(11) 0.00901 341.6 18.9
334(10) 0.01074 341.6 18.5
342(10) 0.01084 341.6 18.2
345(10) 0.01045 341.6 18.0
360(10) 0.00915 341.7 17.7
316(10) 0.01099 341.7 17.4
355(10) 0.00993 341.7 17.2
376(10) 0.00993 341.8 17.0
345(10) 0.01045 341.8 16.7
367(10) 0.00936 341.8 16.5
352(10) 0.00991 341.9 16.3
363(10) 0.00956 341.9 16.1
336(10) 0.01106 341.9 15.8
356(10) 0.01012 342.0 15.6
365(10) 0.00919 342.0 15.4
355(10) 0.00983 342.0 15.2
369(10) 0.00961 342.1 14.9
364(10) 0.01010 342.1 14.7
337(10) 0.01046 342.1 14.5
344(10) 0.00974 342.2 14.3
338(10) 0.01027 342.2 14.1
385(10) 0.00913 342.2 13.9
369(10) 0.00996 342.2 13.7
387(11) 0.00901 342.3 13.5
351(10) 0.00964 342.3 13.4
333(10) 0.01070 342.3 13.4
326(9) 0.01146 342.4 13.3
349(10) 0.01062 342.4 13.4
340(10) 0.01040 342.4 13.7
378(11) 0.00870 342.5 14.1
350(10) 0.01000 342.5 14.9
332(10) 0.01103 342.5 16.1
344(10) 0.01065 342.6 17.9
360(10) 0.00951 342.6 20.1
361(11) 0.00884 342.6 22.8
364(10) 0.00962 342.7 25.5
352(10) 0.01058 342.7 27.6
357(10) 0.01034 342.7 28.4
350(10) 0.01001 342.8 27.5
383(11) 0.00842 342.8 25.2
360(10) 0.00995 342.8 22.4
351(10) 0.01058 342.8 19.6
360(10) 0.01031 342.9 17.2
358(10) 0.00977 342.9 15.4
350(10) 0.00914 342.9 14.0
373(10) 0.00927 343.0 13.1
354(10) 0.01052 343.0 12.5
345(10) 0.01059 343.0 12.2
361(10) 0.00980 343.1 12.0
384(11) 0.00858 343.1 11.9
342(10) 0.01042 343.1 11.9
359(10) 0.01044 343.2 11.9
349(10) 0.01041 343.2 11.9
356(10) 0.00976 343.2 12.0
373(10) 0.00912 343.3 12.2
375(10) 0.00925 343.3 12.3
366(10) 0.01022 343.3 12.5
360(10) 0.00990 343.3 12.7
396(11) 0.00841 343.4 12.8
355(10) 0.00971 343.4 13.0
350(10) 0.01005 343.4 13.2
363(10) 0.01028 343.5 13.4
360(10) 0.00969 343.5 13.6
338(10) 0.01034 343.5 13.7
375(11) 0.00893 343.6 13.8
352(10) 0.01036 343.6 14.0
334(9) 0.01112 343.6 14.1
341(10) 0.01016 343.7 14.2
339(10) 0.01002 343.7 14.2
324(10) 0.01090 343.7 14.3
346(10) 0.01061 343.8 14.4
364(10) 0.01011 343.8 14.4
336(10) 0.00998 343.8 14.5
344(10) 0.00986 343.9 14.5
367(10) 0.00966 343.9 14.5
345(10) 0.01052 343.9 14.5
355(10) 0.01059 343.9 14.4
353(10) 0.00965 344.0 14.4
364(11) 0.00882 344.0 14.3
355(10) 0.00975 344.0 14.2
365(10) 0.01002 344.1 14.1
370(10) 0.01006 344.1 14.0
365(10) 0.00936 344.1 13.8
354(10) 0.00941 344.2 13.7
358(10) 0.01007 344.2 13.5
354(10) 0.01051 344.2 13.3
359(10) 0.01034 344.3 13.1
333(10) 0.01048 344.3 12.8
375(11) 0.00833 344.3 12.6
374(11) 0.00902 344.4 12.4
343(10) 0.01070 344.4 12.1
353(10) 0.01058 344.4 11.9
366(10) 0.00914 344.5 11.6
366(11) 0.00876 344.5 11.3
343(10) 0.01047 344.5 11.1
381(10) 0.00984 344.5 10.8
362(10) 0.01013 344.6 10.6
378(10) 0.00914 344.6 10.3
386(11) 0.00825 344.6 10.1
364(10) 0.00954 344.7 9.9
354(10) 0.01044 344.7 9.7
348(10) 0.01059 344.7 9.7
365(10) 0.00945 344.8 9.7
350(10) 0.00918 344.8 9.9
336(10) 0.01018 344.8 10.2
358(10) 0.01044 344.9 10.7
339(10) 0.01080 344.9 11.2
338(10) 0.01039 344.9 11.6
370(10) 0.00917 345.0 11.5
365(10) 0.00945 345.0 11.0
359(10) 0.01032 345.0 10.1
367(10) 0.00965 345.1 9.2
325(10) 0.01078 345.1 8.4
339(10) 0.00989 345.1 7.8
370(10) 0.00952 345.1 7.3
342(10) 0.01085 345.2 7.0
360(10) 0.00976 345.2 6.8
359(10) 0.00929 345.2 6.7
384(11) 0.00873 345.3 6.6
380(10) 0.00931 345.3 6.5
362(10) 0.01035 345.3 6.5
351(10) 0.00970 345.4 6.4
338(10) 0.01018 345.4 6.4
325(9) 0.01111 345.4 6.4
362(10) 0.00989 345.5 6.4
347(10) 0.01060 345.5 6.4
350(10) 0.00997 345.5 6.3
343(10) 0.01009 345.6 6.3
362(10) 0.00953 345.6 6.3
350(10) 0.01055 345.6 6.3
340(9) 0.01109 345.7 6.3
354(10) 0.00974 345.7 6.3
325(10) 0.01005 345.7 6.4
353(10) 0.00960 345.7 6.5
350(10) 0.01067 345.8 6.7
345(10) 0.01079 345.8 6.9
360(10) 0.00954 345.8 7.2
378(11) 0.00862 345.9 7.5
338(10) 0.01058 345.9 7.8
386(10) 0.00965 345.9 8.2
338(10) 0.01086 346.0 8.5
365(10) 0.00974 346.0 8.9
414(11) 0.00799 346.0 9.1
372(10) 0.00928 346.1 9.4
336(10) 0.01091 346.1 9.5
349(10) 0.01054 346.1 9.4
345(10) 0.01010 346.2 9.3
362(10) 0.00917 346.2 9.1
394(11) 0.00887 346.2 8.9
358(10) 0.01038 346.3 8.6
377(10) 0.00955 346.3 8.3
351(10) 0.00992 346.3 8.0
344(10) 0.00976 346.3 7.7
319(10) 0.01101 346.4 7.5
341(10) 0.01085 346.4 7.2
346(10) 0.01033 346.4 7.1
360(10) 0.00993 346.5 7.0
364(10) 0.00971 346.5 6.9
363(10) 0.00953 346.5 6.9
340(9) 0.01114 346.6 6.9
353(10) 0.01015 346.6 7.0
334(10) 0.01007 346.6 7.2
332(10) 0.01014 346.7 7.4
371(10) 0.00941 346.7 7.7
359(10) 0.01030 346.7 8.1
363(10) 0.00969 346.8 8.7
335(10) 0.01022 346.8 9.4
319(9) 0.01115 346.8 10.5
348(10) 0.01041 346.8 12.0
363(10) 0.01034 346.9 14.3
374(10) 0.00954 346.9 17.4
330(10) 0.01061 346.9 21.7
381(11) 0.00873 347.0 27.4
403(11) 0.00866 347.0 34.4
402(10) 0.00922 347.0 42.6
396(11) 0.00876 347.1 51.1
395(11) 0.00832 347.1 58.7
419(11) 0.00813 347.1 63.2
398(10) 0.00911 347.2 63.1
404(10) 0.00924 347.2 58.4
392(11) 0.00887 347.2 50.8
395(11) 0.00818 347.3 42.4
351(10) 0.01019 347.3 34.5
374(10) 0.00983 347.3 27.8
393(10) 0.00935 347.4 22.5
369(10) 0.00953 347.4 18.5
364(11) 0.00904 347.4 15.7
348(10) 0.01015 347.4 13.9
351(10) 0.01039 347.5 12.8
365(10) 0.01013 347.5 12.4
368(11) 0.00903 347.5 12.4
391(11) 0.00793 347.6 13.0
350(10) 0.01022 347.6 14.0
359(10) 0.01056 347.6 15.4
355(10) 0.01035 347.7 17.2
366(10) 0.00923 347.7 19.1
370(11) 0.00881 347.7 20.7
388(11) 0.00903 347.8 21.5
373(10) 0.00993 347.8 21.0
391(10) 0.00928 347.8 19.4
380(10) 0.00932 347.9 17.2
388(11) 0.00862 347.9 14.8
355(10) 0.00974 347.9 12.5
350(10) 0.01050 348.0 10.6
353(10) 0.01037 348.0 9.0
358(10) 0.00973 348.0 7.8
338(10) 0.00994 348.0 6.9
367(10) 0.00944 348.1 6.2
356(10) 0.01048 348.1 5.7
359(10) 0.01006 348.1 5.3
348(10) 0.01003 348.2 5.0
330(10) 0.01053 348.2 4.8
344(10) 0.01015 348.2 4.6
351(10) 0.01048 348.3 4.4
325(9) 0.01116 348.3 4.2
329(10) 0.01046 348.3 4.1
360(10) 0.00951 348.4 3.9
367(10) 0.00992 348.4 3.8
375(10) 0.00991 348.4 3.7
361(10) 0.00957 348.5 3.6
343(10) 0.00974 348.5 3.5
345(10) 0.00975 348.5 3.4
337(10) 0.01043 348.6 3.3
320(9) 0.01168 348.6 3.3
339(10) 0.00977 348.6 3.2
330(10) 0.01022 348.6 3.1
359(10) 0.00941 348.6 3.1
363(10) 0.00993 348.6 3.0
355(10) 0.01045 348.6 3.0
331(10) 0.01024 348.6 3.0
340(10) 0.00948 348.6 2.9
313(9) 0.01143 348.6 2.9
341(10) . . .
344(10) . . .
378(10) . . .
353(10) . . .
345(10) . . .
334(10) . . .
338(10) . . .
356(10) . . .
335(10) . . .
346(10) . . .
329(9) . . .
325(9) . . .
326(10) . . .
353(11) . . .
349(10) . . .
323(9) . . .
298(9) . . .
308(9) . . .
317(10) . . .
343(10) . . .
327(9) . . .
336(10) . . .
351(10) . . .
328(10) . . .
354(10) . . .
342(10) . . .
330(10) . . .
350(10) . . .
348(10) . . .
346(10) . . .
359(10) . . .
326(9) . . .
385(11) . . .
362(10) . . .
361(10) . . .
353(10) . . .
366(10) . . .
335(10) . . .
353(10) . . .
335(10) . . .
339(10) . . .
340(10) . . .
328(10) . . .
349(10) . . .
345(10) . . .
323(9) . . .
332(10) . . .
343(10) . . .
346(10) . . .
337(10) . . .
324(9) . . .
365(10) . . .
335(10) . . .
350(10) . . .
369(10) . . .
332(9) . . .
367(10) . . .
348(10) . . .
344(10) . . .
347(10) . . .
345(10) . . .
355(10) . . .
345(10) . . .
328(10) . . .
336(9) . . .
328(10) . . .
369(10) . . .
354(10) . . .
338(10) . . .
319(9) . . .
348(10) . . .
354(10) . . .
328(10) . . .
357(10) . . .
333(9) . . .
330(9) . . .
347(10) . . .
336(10) . . .
347(10) . . .
322(9) . . .
314(9) . . .
319(10) . . .
345(10) . . .
332(10) . . .
323(9) . . .
326(10) . . .
384(11) . . .
343(10) . . .
330(10) . . .
342(10) . . .
342(10) . . .
354(10) . . .
355(10) . . .
355(10) . . .
345(10) . . .
341(10) . . .
352(10) . . .
313(9) . . .
338(10) . . .
360(10) . . .
346(10) . . .
354(11) . . .
315(10) . . .
326(10) . . .
342(10) . . .
336(10) . . .
316(10) . . .
337(10) . . .
346(10) . . .
317(9) . . .
339(10) . . .
346(10) . . .
326(10) . . .
336(10) . . .
331(10) . . .
358(10) . . .
316(10) . . .
313(10) . . .
357(10) . . .
362(10) . . .
325(10) . . .
320(10) . . .
345(10) . . .
332(9) . . .
334(10) . . .
300(9) . . .
350(10) . . .
366(10) . . .
327(9) . . .
340(10) . . .
332(10) . . .
349(10) . . .
348(10) . . .
343(10) . . .
346(10) . . .
338(10) . . .
352(10) . . .
368(10) . . .
317(9) . . .
322(10) . . .
333(10) . . .
323(10) . . .
328(10) . . .
337(9) . . .
368(10) . . .
337(10) . . .
339(10) . . .
343(10) . . .
347(10) . . .
351(10) . . .
361(11) . . .
347(10) . . .
350(10) . . .
385(10) . . .
343(10) . . .
325(10) . . .
349(10) . . .
332(9) . . .
333(9) . . .
346(10) . . .
340(10) . . .
342(10) . . .
360(10) . . .
365(10) . . .
339(10) . . .
366(11) . . .
340(10) . . .
338(10) . . .
353(10) . . .
332(10) . . .
361(10) . . .
355(10) . . .
380(10) . . .
353(10) . . .
345(10) . . .
345(10) . . .
355(10) . . .
342(10) . . .
328(10) . . .
345(10) . . .
353(10) . . .
353(10) . . .
346(10) . . .
343(10) . . .
336(10) . . .
356(10) . . .
351(10) . . .
342(10) . . .
364(10) . . .
367(10) . . .
367(10) . . .
330(10) . . .
343(10) . . .
342(10) . . .
345(10) . . .
328(10) . . .
315(9) . . .
324(9) . . .
331(10) . . .
335(10) . . .
305(9) . . .
335(10) . . .
365(10) . . .
351(10) . . .
324(10) . . .
357(10) . . .
345(10) . . .
320(9) . . .
325(9) . . .
335(10) . . .
364(10) . . .
324(9) . . .
323(9) . . .
347(10) . . .
344(10) . . .
358(10) . . .
343(10) . . .
361(10) . . .
360(10) . . .
351(10) . . .
323(10) . . .
365(10) . . .
392(10) . . .
366(10) . . .
362(10) . . .
341(10) . . .
375(10) . . .
374(10) . . .
350(10) . . .
359(10) . . .
360(10) . . .
349(10) . . .
343(10) . . .
349(10) . . .
373(11) . . .
353(10) . . .
348(10) . . .
325(10) . . .
361(10) . . .
340(10) . . .
339(10) . . .
358(10) . . .
355(10) . . .
358(10) . . .
335(10) . . .
350(10) . . .
381(10) . . .
359(10) . . .
341(10) . . .
326(10) . . .
338(10) . . .
351(10) . . .
358(10) . . .
366(10) . . .
339(10) . . .
356(10) . . .
326(9) . . .
352(10) . . .
359(11) . . .
358(10) . . .
372(10) . . .
342(10) . . .
374(10) . . .
399(11) . . .
413(11) . . .
425(11) . . .
378(10) . . .
402(11) . . .
411(11) . . .
380(10) . . .
404(10) . . .
392(10) . . .
399(11) . . .
369(11) . . .
378(10) . . .
381(10) . . .
367(10) . . .
376(11) . . .
403(11) . . .
394(11) . . .
401(10) . . .
411(11) . . .
401(11) . . .
406(11) . . .
396(11) . . .
374(10) . . .
347(10) . . .
362(10) . . .
362(10) . . .
344(10) . . .
325(9) . . .
337(10) . . .
349(10) . . .
340(10) . . .
365(10) . . .
321(9) . . .
334(10) . . .
344(10) . . .
342(10) . . .
342(10) . . .
328(9) . . .
307(9) . . .
310(10) . . .
290(9) . . .
301(9) . . .
330(9) . . .
335(10) . . .
317(10) . . .
321(10) . . .
321(9) . . .
323(9) . . .
353(10) . . .
322(10) . . .
308(9) . . .
309(9) . . .
314(9) . . .
325(10) . . .
330(10) . . .
332(10) . . .
365(10) . . .
325(9) . . .
318(10) . . .
323(10) . . .
356(10) . . .
322(9) . . .
337(10) . . .
314(10) . . .
334(10) . . .
308(9) . . .
324(9) . . .
327(10) . . .
295(9) . . .
304(9) . . .
307(9) . . .
310(9) . . .
312(9) . . .
298(9) . . .
347(10) . . .
344(10) . . .
320(9) . . .
316(10) . . .
319(10) . . .
332(10) . . .
324(9) . . .
325(9) . . .
345(10) . . .
312(10) . . .
322(10) . . .
357(10) . . .
346(10) . . .
341(10) . . .
328(10) . . .
309(9) . . .
320(9) . . .
307(9) . . .
306(10) . . .
336(10) . . .
291(9) . . .
332(10) . . .
343(10) . . .
328(10) . . .
352(11) . . .
326(10) . . .
333(9) . . .
321(9) . . .
322(9) . . .
392(11) . . .
334(10) . . .
313(9) . . .
319(9) . . .
337(10) . . .
333(10) . . .
302(9) . . .
310(9) . . .
320(9) . . .
324(10) . . .
330(10) . . .
301(9) . . .
325(9) . . .
320(9) . . .
298(9) . . .
324(10) . . .
326(10) . . .
338(10) . . .
335(10) . . .
327(10) . . .
328(10) . . .
339(10) . . .
329(9) . . .
344(10) . . .
321(10) . . .
313(10) . . .
326(9) . . .
280(9) . . .
287(9) . . .
317(10) . . .
331(10) . . .
329(10) . . .
329(9) . . .
299(9) . . .
345(10) . . .
303(9) . . .
332(10) . . .
319(9) . . .
330(10) . . .
306(10) . . .
328(10) . . .
326(9) . . .
366(10) . . .
313(9) . . .
309(10) . . .
340(10) . . .
297(9) . . .
323(9) . . .
307(9) . . .
325(10) . . .
350(10) . . .
319(9) . . .
317(9) . . .
305(9) . . .
308(10) . . .
352(10) . . .
331(9) . . .
337(10) . . .
311(9) . . .
306(10) . . .
333(10) . . .
321(9) . . .
326(10) . . .
312(10) . . .
328(10) . . .
309(9) . . .
336(9) . . .
353(10) . . .
347(10) . . .
349(10) . . .
358(10) . . .
356(10) . . .
349(10) . . .
377(11) . . .
368(10) . . .
357(10) . . .
357(10) . . .
357(10) . . .
351(10) . . .
361(10) . . .
318(9) . . .
331(9) . . .
348(10) . . .
348(10) . . .
328(9) . . .
357(10) . . .
332(9) . . .
347(10) . . .
347(11) . . .
317(10) . . .
353(10) . . .
323(9) . . .
330(10) . . .
353(11) . . .
319(10) . . .
329(9) . . .
333(9) . . .
363(10) . . .
316(10) . . .
330(10) . . .
342(10) . . .
351(10) . . .
333(10) . . .
307(10) . . .
283(9) . . .
361(10) . . .
359(10) . . .
342(10) . . .
378(11) . . .
346(10) . . .
365(10) . . .
329(10) . . .
345(10) . . .
351(10) . . .
343(10) . . .
359(10) . . .
347(10) . . .
338(10) . . .
348(10) . . .
364(10) . . .
370(10) . . .
387(10) . . .
389(11) . . .
397(11) . . .
348(10) . . .
354(10) . . .
330(10) . . .
363(11) . . .
325(9) . . .
360(10) . . .
349(10) . . .
319(9) . . .
332(10) . . .
315(9) . . .
347(10) . . .
325(9) . . .
296(9) . . .
324(10) . . .
320(10) . . .
306(9) . . .
303(9) . . .
297(9) . . .
299(10) . . .
275(9) . . .
330(9) . . .
309(9) . . .
333(10) . . .
313(10) . . .
316(10) . . .
340(10) . . .
316(9) . . .
306(9) . . .
308(10) . . .
311(9) . . .
335(10) . . .
317(9) . . .
331(10) . . .
327(10) . . .
317(10) . . .
269(8) . . .
301(9) . . .
332(10) . . .
300(9) . . .
307(9) . . .
291(9) . . .
314(9) . . .
352(10) . . .
305(9) . . .
287(9) . . .
318(9) . . .
314(9) . . .
300(9) . . .
300(9) . . .
316(9) . . .
303(9) . . .
314(9) . . .
303(9) . . .
332(10) . . .
279(9) . . .
283(9) . . .
295(9) . . .
301(10) . . .
293(9) . . .
295(9) . . .
286(9) . . .
301(9) . . .
304(9) . . .
309(10) . . .
324(9) . . .
309(9) . . .
330(10) . . .
291(9) . . .
322(10) . . .
295(9) . . .
302(9) . . .
311(9) . . .
295(9) . . .
283(9) . . .
277(9) . . .
269(9) . . .
290(9) . . .
298(9) . . .
317(9) . . .
306(9) . . .
311(9) . . .
303(9) . . .
302(10) . . .
288(9) . . .
291(9) . . .
297(9) . . .
309(9) . . .
318(10) . . .
282(9) . . .
296(9) . . .
266(9) . . .
313(10) . . .
288(9) . . .
320(10) . . .
307(9) . . .
313(9) . . .
323(10) . . .
307(9) . . .
329(10) . . .
315(9) . . .
306(9) . . .
300(9) . . .
311(9) . . .
301(9) . . .
309(9) . . .
332(10) . . .
300(9) . . .
334(10) . . .
310(9) . . .
324(9) . . .
299(9) . . .
326(10) . . .
340(10) . . .
310(9) . . .
291(9) . . .
305(10) . . .
314(10) . . .
308(9) . . .
306(9) . . .
302(9) . . .
313(9) . . .
336(10) . . .
315(10) . . .
289(9) . . .
299(9) . . .
294(9) . . .
288(9) . . .
296(9) . . .
300(9) . . .
304(9) . . .
302(9) . . .
307(10) . . .
289(9) . . .
288(9) . . .
314(9) . . .
302(9) . . .
291(9) . . .
279(9) . . .
282(9) . . .
298(9) . . .
273(9) . . .
296(9) . . .
325(10) . . .
287(9) . . .
294(9) . . .
335(10) . . .
314(10) . . .
270(9) . . .
297(9) . . .
284(9) . . .
307(10) . . .
304(9) . . .
321(10) . . .
311(9) . . .
320(10) . . .
302(10) . . .
317(10) . . .
295(9) . . .
308(9) . . .
315(10) . . .
316(10) . . .
326(10) . . .
332(10) . . .
341(10) . . .
344(10) . . .
332(10) . . .
308(9) . . .
318(9) . . .
348(10) . . .
349(10) . . .
337(10) . . .
317(10) . . .
326(9) . . .
325(9) . . .
302(9) . . .
299(10) . . .
294(9) . . .
311(9) . . .
313(9) . . .
305(9) . . .
311(10) . . .
293(9) . . .
287(9) . . .
309(9) . . .
313(9) . . .
310(10) . . .
307(9) . . .
317(9) . . .
325(10) . . .
324(10) . . .
307(9) . . .
315(10) . . .
329(9) . . .
356(10) . . .
350(10) . . .
306(9) . . .
350(10) . . .
350(10) . . .
332(10) . . .
342(10) . . .
319(10) . . .
299(9) . . .
315(9) . . .
317(10) . . .
325(10) . . .
323(10) . . .
321(9) . . .
259(8) . . .
270(9) . . .
290(9) . . .
332(10) . . .
312(9) . . .
295(9) . . .
319(10) . . .
289(9) . . .
290(9) . . .
307(9) . . .
300(9) . . .
293(9) . . .
300(10) . . .
306(9) . . .
310(9) . . .
274(9) . . .
304(9) . . .
325(10) . . .
297(9) . . .
302(9) . . .
299(9) . . .
279(9) . . .
272(9) . . .
302(9) . . .
316(9) . . .
285(9) . . .
292(9) . . .
305(9) . . .
313(10) . . .
285(9) . . .
273(9) . . .
300(9) . . .
290(9) . . .
289(9) . . .
287(9) . . .
275(9) . . .
277(9) . . .
266(9) . . .
285(9) . . .
280(9) . . .
270(9) . . .
290(9) . . .
272(9) . . .
293(9) . . .
279(9) . . .
286(9) . . .
280(9) . . .
275(9) . . .
259(9) . . .
263(8) . . .
278(9) . . .
287(9) . . .
268(9) . . .
284(9) . . .
298(9) . . .
275(9) . . .
288(9) . . .
284(9) . . .
289(9) . . .
292(9) . . .
283(9) . . .
269(9) . . .
290(9) . . .
291(9) . . .
275(9) . . .
293(9) . . .
275(9) . . .
264(9) . . .
297(9) . . .
301(9) . . .
286(9) . . .
286(9) . . .
256(8) . . .
274(9) . . .
274(9) . . .
271(9) . . .
298(9) . . .
283(9) . . .
285(9) . . .
283(9) . . .
287(9) . . .
302(9) . . .
295(9) . . .
293(9) . . .
287(9) . . .
281(9) . . .
266(9) . . .
282(9) . . .
276(9) . . .
307(9) . . .
280(9) . . .
297(9) . . .
290(9) . . .
303(9) . . .
275(9) . . .
290(9) . . .
298(9) . . .
310(9) . . .
284(9) . . .
283(9) . . .
287(9) . . .
320(10) . . .
280(9) . . .
275(9) . . .
294(9) . . .
299(9) . . .
286(9) . . .
317(9) . . .
288(9) . . .
301(9) . . .
290(9) . . .
287(9) . . .
342(10) . . .
303(9) . . .
287(9) . . .
304(10) . . .
328(10) . . .
302(9) . . .
294(9) . . .
304(9) . . .
325(10) . . .
314(10) . . .
299(9) . . .
306(9) . . .
293(9) . . .
284(10) . . .
279(9) . . .
279(9) . . .
292(9) . . .
279(9) . . .
283(9) . . .
291(9) . . .
282(9) . . .
300(9) . . .
308(9) . . .
259(9) . . .
298(9) . . .
295(9) . . .
283(9) . . .
297(10) . . .
281(9) . . .
298(9) . . .
302(9) . . .
284(9) . . .
300(10) . . .
269(9) . . .
281(9) . . .
276(9) . . .
309(10) . . .
282(9) . . .
270(9) . . .
284(9) . . .
280(9) . . .
284(9) . . .
255(9) . . .
281(9) . . .
296(9) . . .
289(9) . . .
281(9) . . .
304(10) . . .
293(9) . . .
271(9) . . .
286(9) . . .
289(9) . . .
302(10) . . .
310(9) . . .
279(9) . . .
289(9) . . .
281(9) . . .
290(9) . . .
303(10) . . .
284(9) . . .
255(8) . . .
300(9) . . .
293(9) . . .
303(9) . . .
310(9) . . .
287(9) . . .
288(9) . . .
294(10) . . .
314(10) . . .
321(9) . . .
324(9) . . .
319(9) . . .
353(10) . . .
283(9) . . .
298(9) . . .
280(9) . . .
305(10) . . .
291(9) . . .
284(9) . . .
284(9) . . .
280(9) . . .
280(9) . . .
267(9) . . .
294(9) . . .
266(8) . . .
262(9) . . .
262(9) . . .
278(9) . . .
261(8) . . .
256(8) . . .
270(9) . . .
287(9) . . .
289(9) . . .
265(9) . . .
279(9) . . .
256(8) . . .
281(9) . . .
261(9) . . .
281(9) . . .
271(9) . . .
271(9) . . .
260(9) . . .
245(8) . . .
254(8) . . .
287(9) . . .
300(9) . . .
288(9) . . .
279(9) . . .
275(9) . . .
261(8) . . .
278(9) . . .
288(9) . . .
262(9) . . .
251(8) . . .
257(8) . . .
286(9) . . .
260(9) . . .
237(8) . . .
273(9) . . .
267(8) . . .
253(9) . . .
261(9) . . .
250(8) . . .
263(8) . . .
263(9) . . .
265(9) . . .
257(9) . . .
264(9) . . .
286(9) . . .
263(9) . . .
272(9) . . .
260(9) . . .
265(9) . . .
266(8) . . .
278(9) . . .
276(9) . . .
277(9) . . .
259(8) . . .
261(8) . . .
273(9) . . .
269(9) . . .
271(9) . . .
252(8) . . .
259(8) . . .
273(9) . . .
261(9) . . .
281(9) . . .
265(8) . . .
260(8) . . .
242(8) . . .
258(9) . . .
268(9) . . .
279(9) . . .
272(9) . . .
259(9) . . .
244(9) . . .
252(9) . . .
257(8) . . .
247(8) . . .
250(9) . . .
254(9) . . .
239(8) . . .
272(9) . . .
264(9) . . .
259(9) . . .
254(9) . . .
261(9) . . .
282(9) . . .
233(8) . . .
253(9) . . .
254(9) . . .
240(8) . . .
258(8) . . .
262(9) . . .
265(9) . . .
271(9) . . .
243(8) . . .
266(8) . . .
256(8) . . .
262(9) . . .
232(8) . . .
245(8) . . .
258(8) . . .
294(9) . . .
264(9) . . .
246(9) . . .
263(9) . . .
243(8) . . .
243(8) . . .
269(9) . . .
257(9) . . .
258(8) . . .
267(9) . . .
262(9) . . .
236(8) . . .
236(8) . . .
250(8) . . .
263(8) . . .
261(9) . . .
285(9) . . .
286(9) . . .
264(9) . . .
257(8) . . .
266(9) . . .
243(9) . . .
262(9) . . .
265(8) . . .
258(8) . . .
276(9) . . .
255(9) . . .
253(8) . . .
243(8) . . .
245(8) . . .
260(9) . . .
277(9) . . .
260(9) . . .
263(8) . . .
263(9) . . .
245(8) . . .
252(9) . . .
265(9) . . .
275(9) . . .
238(8) . . .
262(9) . . .
239(8) . . .
254(9) . . .
240(8) . . .
255(9) . . .
271(9) . . .
259(9) . . .
264(9) . . .
258(8) . . .
262(9) . . .
250(8) . . .
265(9) . . .
225(8) . . .
254(8) . . .
244(8) . . .
248(8) . . .
266(9) . . .
257(8) . . .
270(9) . . .
247(8) . . .
274(9) . . .
265(9) . . .
249(8) . . .
284(9) . . .
250(9) . . .
231(8) . . .
252(9) . . .
246(8) . . .
243(8) . . .
250(9) . . .
270(9) . . .
267(9) . . .
260(8) . . .
244(8) . . .
253(8) . . .
248(9) . . .
251(8) . . .
262(8) . . .
263(8) . . .
267(9) . . .
242(9) . . .
244(8) . . .
262(8) . . .
262(8) . . .
270(9) . . .
251(9) . . .
267(9) . . .
256(8) . . .
259(8) . . .
256(8) . . .
259(9) . . .
235(8) . . .
247(8) . . .
253(8) . . .
247(8) . . .
227(8) . . .
236(8) . . .
258(8) . . .
239(8) . . .
245(8) . . .
271(9) . . .
264(9) . . .
265(8) . . .
267(9) . . .
255(9) . . .
236(8) . . .
253(8) . . .
248(8) . . .
277(9) . . .
252(9) . . .
246(9) . . .
253(8) . . .
265(8) . . .
244(8) . . .
240(9) . . .
252(9) . . .
239(8) . . .
241(8) . . .
247(8) . . .
263(9) . . .
257(9) . . .
266(8) . . .
260(8) . . .
248(8) . . .
250(9) . . .
242(8) . . .
238(8) . . .
231(8) . . .
231(8) . . .
251(9) . . .
264(9) . . .
274(9) . . .
238(8) . . .
237(8) . . .
239(8) . . .
251(9) . . .
242(8) . . .
262(9) . . .
229(8) . . .
233(8) . . .
258(8) . . .
251(8) . . .
245(8) . . .
252(9) . . .
230(8) . . .
227(8) . . .
264(8) . . .
256(8) . . .
237(8) . . .
248(9) . . .
232(8) . . .
249(8) . . .
253(9) . . .
235(8) . . .
253(9) . . .
256(8) . . .
255(8) . . .
243(9) . . .
243(8) . . .
261(9) . . .
244(8) . . .
249(8) . . .
267(9) . . .
265(9) . . .
245(8) . . .
243(8) . . .
238(8) . . .
238(8) . . .
257(9) . . .
270(9) . . .
274(9) . . .
243(8) . . .
254(9) . . .
233(8) . . .
249(8) . . .
255(8) . . .
253(8) . . .
236(8) . . .
222(8) . . .
236(8) . . .
254(8) . . .
228(8) . . .
243(8) . . .
246(9) . . .
276(9) . . .
226(8) . . .
232(8) . . .
246(8) . . .
268(9) . . .
253(9) . . .
237(8) . . .
231(8) . . .
244(8) . . .
257(9) . . .
238(8) . . .
227(8) . . .
241(8) . . .
249(9) . . .
240(8) . . .
231(8) . . .
235(8) . . .
229(8) . . .
249(9) . . .
233(8) . . .
248(8) . . .
237(8) . . .
268(9) . . .
228(8) . . .
229(8) . . .
234(8) . . .
237(8) . . .
255(8) . . .
227(8) . . .
239(8) . . .
237(8) . . .
260(8) . . .
234(8) . . .
253(9) . . .
242(8) . . .
237(8) . . .
235(8) . . .
246(8) . . .
227(8) . . .
245(8) . . .
228(8) . . .
239(8) . . .
234(8) . . .
253(9) . . .
228(8) . . .
238(8) . . .
245(8) . . .
245(9) . . .
220(8) . . .
250(8) . . .
252(8) . . .
245(8) . . .
261(9) . . .
246(9) . . .
251(9) . . .
245(8) . . .
248(8) . . .
254(9) . . .
239(9) . . .
269(9) . . .
249(8) . . .
258(8) . . .
243(8) . . .
237(8) . . .
234(8) . . .
229(8) . . .
251(8) . . .
257(9) . . .
259(9) . . .
248(8) . . .
236(8) . . .
239(8) . . .
244(8) . . .
232(8) . . .
238(8) . . .
257(8) . . .
248(9) . . .
239(9) . . .
238(8) . . .
246(8) . . .
223(8) . . .
237(8) . . .
233(9) . . .
231(8) . . .
235(8) . . .
249(8) . . .
255(9) . . .
235(8) . . .
244(8) . . .
235(8) . . .
264(8) . . .
243(8) . . .
232(8) . . .
224(8) . . .
234(8) . . .
241(8) . . .
241(8) . . .
228(8) . . .
236(8) . . .
248(8) . . .
217(8) . . .
244(9) . . .
231(9) . . .
225(8) . . .
234(8) . . .
241(8) . . .
267(9) . . .
228(8) . . .
228(8) . . .
234(8) . . .
231(8) . . .
258(9) . . .
232(8) . . .
237(8) . . .
258(8) . . .
269(9) . . .
284(9) . . .
287(9) . . .
287(9) . . .
301(9) . . .
285(9) . . .
310(10) . . .
285(9) . . .
272(9) . . .
270(9) . . .
262(9) . . .
270(9) . . .
266(9) . . .
263(8) . . .
261(8) . . .
273(9) . . .
244(9) . . .
266(9) . . .
275(9) . . .
252(8) . . .
268(9) . . .
257(9) . . .
266(9) . . .
296(9) . . .
258(8) . . .
253(9) . . .
264(9) . . .
252(8) . . .
247(8) . . .
252(8) . . .
265(9) . . .
255(9) . . .
257(8) . . .
239(8) . . .
252(8) . . .
246(8) . . .
240(8) . . .
267(9) . . .
292(9) . . .
252(8) . . .
248(8) . . .
277(9) . . .
248(8) . . .
255(8) . . .
238(8) . . .
240(8) . . .
253(9) . . .
241(8) . . .
240(8) . . .
253(9) . . .
258(9) . . .
248(8) . . .
247(8) . . .
257(8) . . .
263(9) . . .
244(9) . . .
242(8) . . .
232(8) . . .
239(8) . . .
216(8) . . .
236(8) . . .
248(8) . . .
229(8) . . .
217(8) . . .
231(8) . . .
233(8) . . .
229(8) . . .
247(8) . . .
255(8) . . .
237(8) . . .
253(9) . . .
252(8) . . .
242(8) . . .
248(8) . . .
219(8) . . .
239(9) . . .
252(9) . . .
234(8) . . .
228(8) . . .
228(8) . . .
244(9) . . .
247(9) . . .
234(8) . . .
242(8) . . .
257(8) . . .
242(9) . . .
250(9) . . .
248(8) . . .
216(8) . . .
249(9) . . .
241(8) . . .
242(8) . . .
254(8) . . .
266(9) . . .
239(8) . . .
253(9) . . .
268(9) . . .
286(9) . . .
243(8) . . .
273(9) . . .
241(8) . . .
239(8) . . .
237(8) . . .
233(8) . . .
229(8) . . .
222(8) . . .
225(8) . . .
257(8) . . .
283(9) . . .
232(8) . . .
244(8) . . .
220(8) . . .
241(8) . . .
237(8) . . .
230(8) . . .
240(8) . . .
236(8) . . .
241(8) . . .
245(8) . . .
237(8) . . .
242(8) . . .
243(8) . . .
241(8) . . .
237(8) . . .
253(9) . . .
256(9) . . .
233(8) . . .
259(8) . . .
230(8) . . .
252(9) . . .
235(8) . . .
236(8) . . .
234(8) . . .
247(8) . . .
251(9) . . .
221(8) . . .
231(8) . . .
270(9) . . .
276(9) . . .
252(9) . . .
262(9) . . .
260(8) . . .
252(8) . . .
234(8) . . .
227(8) . . .
266(9) . . .
280(9) . . .
266(9) . . .
266(9) . . .
231(8) . . .
255(8) . . .
261(8) . . .
273(9) . . .
234(8) . . .
278(9) . . .
262(9) . . .
265(8) . . .
246(8) . . .
247(9) . . .
256(9) . . .
255(8) . . .
245(8) . . .
244(9) . . .
261(9) . . .
239(8) . . .
250(8) . . .
251(8) . . .
234(8) . . .
214(8) . . .
229(8) . . .
240(8) . . .
239(8) . . .
238(8) . . .
240(9) . . .
258(9) . . .
250(8) . . .
233(8) . . .
227(8) . . .
245(9) . . .
230(8) . . .
220(8) . . .
232(8) . . .
225(8) . . .
226(8) . . .
235(8) . . .
244(8) . . .
243(8) . . .
231(8) . . .
235(8) . . .
227(8) . . .
236(8) . . .
228(8) . . .
230(8) . . .
248(9) . . .
212(8) . . .
239(8) . . .
225(8) . . .
209(8) . . .
252(9) . . .
245(8) . . .
242(8) . . .
208(8) . . .
242(8) . . .
230(8) . . .
197(7) . . .
237(8) . . .
242(8) . . .
253(9) . . .
220(8) . . .
213(8) . . .
246(8) . . .
222(8) . . .
214(8) . . .
218(8) . . .
235(8) . . .
222(8) . . .
227(8) . . .
228(8) . . .
217(8) . . .
242(8) . . .
218(8) . . .
211(8) . . .
233(9) . . .
214(8) . . .
199(7) . . .
230(8) . . .
235(8) . . .
228(8) . . .
236(8) . . .
262(8) . . .
242(8) . . .
233(8) . . .
233(9) . . .
236(8) . . .
243(8) . . .
226(8) . . .
234(8) . . .
246(9) . . .
217(8) . . .
230(8) . . .
238(8) . . .
248(9) . . .
223(8) . . .
235(8) . . .
211(8) . . .
203(8) . . .
227(8) . . .
208(8) . . .
217(8) . . .
230(8) . . .
220(8) . . .
237(8) . . .
234(8) . . .
246(8) . . .
232(8) . . .
224(8) . . .
239(8) . . .
222(8) . . .
220(8) . . .
210(7) . . .
237(8) . . .
222(8) . . .
207(8) . . .
219(8) . . .
239(8) . . .
228(8) . . .
219(8) . . .
201(8) . . .
220(8) . . .
238(8) . . .
237(8) . . .
241(9) . . .
242(8) . . .
238(8) . . .
206(7) . . .
248(8) . . .
233(9) . . .
216(8) . . .
219(8) . . .
225(8) . . .
239(8) . . .
222(8) . . .
219(8) . . .
228(8) . . .
220(8) . . .
227(8) . . .
219(8) . . .
212(8) . . .
230(8) . . .
217(8) . . .
228(8) . . .
215(8) . . .
225(8) . . .
215(8) . . .
221(8) . . .
223(8) . . .
216(8) . . .
205(8) . . .
219(8) . . .
220(8) . . .
205(8) . . .
222(8) . . .
206(8) . . .
216(8) . . .
216(8) . . .
234(8) . . .
233(8) . . .
219(8) . . .
245(8) . . .
215(8) . . .
204(8) . . .
229(8) . . .
244(8) . . .
220(8) . . .
202(8) . . .
228(8) . . .
202(8) . . .
242(8) . . .
222(8) . . .
230(8) . . .
196(8) . . .
217(8) . . .
216(8) . . .
235(8) . . .
216(8) . . .
213(8) . . .
231(8) . . .
209(7) . . .
220(8) . . .
233(8) . . .
225(8) . . .
219(8) . . .
224(8) . . .
221(8) . . .
223(8) . . .
229(8) . . .
228(8) . . .
230(8) . . .
246(8) . . .
233(8) . . .
223(8) . . .
222(8) . . .
238(8) . . .
222(8) . . .
239(8) . . .
232(8) . . .
229(8) . . .
213(8) . . .
245(8) . . .
228(8) . . .
218(8) . . .
225(8) . . .
223(8) . . .
224(8) . . .
224(8) . . .
233(8) . . .
227(8) . . .
243(8) . . .
218(8) . . .
243(9) . . .
235(8) . . .
271(9) . . .
253(8) . . .
263(9) . . .
245(9) . . .
248(8) . . .
229(8) . . .
237(8) . . .
213(8) . . .
220(8) . . .
243(8) . . .
240(8) . . .
239(8) . . .
244(8) . . .
225(8) . . .
214(8) . . .
217(8) . . .
225(8) . . .
219(8) . . .
212(8) . . .
230(8) . . .
238(8) . . .
225(8) . . .
221(8) . . .
225(8) . . .
226(8) . . .
209(7) . . .
210(8) . . .
234(9) . . .
223(8) . . .
238(8) . . .
239(8) . . .
235(8) . . .
230(8) . . .
214(8) . . .
235(8) . . .
228(8) . . .
218(8) . . .
213(8) . . .
220(8) . . .
211(8) . . .
215(8) . . .
218(8) . . .
231(8) . . .
215(8) . . .
211(8) . . .
200(7) . . .
208(8) . . .
199(7) . . .
231(8) . . .
222(8) . . .
221(8) . . .
217(8) . . .
221(8) . . .
229(8) . . .
229(8) . . .
215(8) . . .
231(8) . . .
235(8) . . .
246(8) . . .
227(8) . . .
201(7) . . .
217(8) . . .
203(8) . . .
227(8) . . .
218(8) . . .
214(8) . . .
208(8) . . .
216(8) . . .
204(8) . . .
191(7) . . .
225(8) . . .
223(8) . . .
232(9) . . .
229(9) . . .
206(7) . . .
204(7) . . .
201(7) . . .
203(8) . . .
213(8) . . .
208(7) . . .
226(8) . . .
221(8) . . .
221(8) . . .
223(8) . . .
213(8) . . .
241(8) . . .
220(8) . . .
197(8) . . .
211(8) . . .
235(8) . . .
212(8) . . .
198(7) . . .
213(8) . . .
220(8) . . .
198(7) . . .
211(8) . . .
223(8) . . .
232(8) . . .
211(8) . . .
217(8) . . .
211(8) . . .
215(8) . . .
228(8) . . .
238(8) . . .
240(8) . . .
236(8) . . .
209(8) . . .
215(8) . . .
213(8) . . .
212(8) . . .
206(8) . . .
215(8) . . .
229(8) . . .
225(8) . . .
205(7) . . .
213(8) . . .
198(8) . . .
219(8) . . .
234(8) . . .
226(8) . . .
221(8) . . .
214(8) . . .
202(8) . . .
212(8) . . .
216(8) . . .
240(8) . . .
237(9) . . .
221(8) . . .
218(8) . . .
225(8) . . .
217(8) . . .
207(8) . . .
213(8) . . .
210(8) . . .
216(8) . . .
223(8) . . .
229(8) . . .
219(8) . . .
211(8) . . .
217(8) . . .
210(8) . . .
212(8) . . .
214(8) . . .
229(8) . . .
226(8) . . .
204(8) . . .
223(8) . . .
224(8) . . .
207(7) . . .
213(8) . . .
216(8) . . .
217(8) . . .
206(7) . . .
212(8) . . .
191(7) . . .
214(8) . . .
219(8) . . .
212(8) . . .
184(7) . . .
235(8) . . .
201(8) . . .
206(8) . . .
232(8) . . .
229(8) . . .
231(8) . . .
228(8) . . .
237(8) . . .
230(8) . . .
237(8) . . .
251(8) . . .
243(9) . . .
232(8) . . .
218(8) . . .
230(8) . . .
242(8) . . .
229(8) . . .
252(9) . . .
252(8) . . .
238(8) . . .
269(9) . . .
252(9) . . .
267(9) . . .
227(8) . . .
267(9) . . .
257(9) . . .
253(9) . . .
243(8) . . .
231(8) . . .
239(8) . . .
233(8) . . .
224(8) . . .
247(9) . . .
227(8) . . .
216(8) . . .
225(8) . . .
221(8) . . .
223(8) . . .
245(8) . . .
231(8) . . .
237(8) . . .
243(9) . . .
211(8) . . .
204(7) . . .
211(8) . . .
198(8) . . .
227(8) . . .
229(8) . . .
214(8) . . .
222(8) . . .
211(8) . . .
231(8) . . .
210(7) . . .
200(7) . . .
231(8) . . .
209(8) . . .
204(8) . . .
198(7) . . .
213(8) . . .
206(8) . . .
202(8) . . .
220(8) . . .
208(7) . . .
223(8) . . .
222(8) . . .
209(8) . . .
216(8) . . .
221(8) . . .
213(8) . . .
216(8) . . .
234(9) . . .
213(8) . . .
224(8) . . .
229(8) . . .
221(8) . . .
220(8) . . .
203(8) . . .
236(8) . . .
191(7) . . .
216(8) . . .
227(8) . . .
205(8) . . .
237(8) . . .
224(8) . . .
190(7) . . .
201(8) . . .
209(8) . . .
204(7) . . .
216(8) . . .
191(8) . . .
183(7) . . .
215(8) . . .
216(8) . . .
217(8) . . .
207(8) . . .
194(7) . . .
222(8) . . .
232(8) . . .
212(8) . . .
198(8) . . .
227(8) . . .
196(7) . . .
238(8) . . .
224(8) . . .
216(8) . . .
220(8) . . .
207(7) . . .
234(8) . . .
208(8) . . .
223(9) . . .
195(8) . . .
203(7) . . .
181(7) . . .
211(8) . . .
203(8) . . .
228(8) . . .
223(8) . . .
224(8) . . .
224(8) . . .
227(8) . . .
214(8) . . .
208(8) . . .
225(8) . . .
220(8) . . .
231(9) . . .
196(7) . . .
219(8) . . .
213(8) . . .
227(8) . . .
198(8) . . .
208(8) . . .
206(7) . . .
193(7) . . .
199(8) . . .
205(8) . . .
203(7) . . .
233(8) . . .
228(8) . . .
211(8) . . .
211(8) . . .
224(8) . . .
198(7) . . .
227(8) . . .
218(8) . . .
223(8) . . .
232(8) . . .
212(8) . . .
230(8) . . .
209(8) . . .
228(8) . . .
221(8) . . .
218(8) . . .
204(8) . . .
220(8) . . .
219(8) . . .
212(8) . . .
230(8) . . .
212(8) . . .
220(8) . . .
210(8) . . .
228(8) . . .
190(7) . . .
205(8) . . .
198(8) . . .
211(8) . . .
199(7) . . .
218(8) . . .
193(7) . . .
209(8) . . .
209(8) . . .
217(8) . . .
203(7) . . .
187(7) . . .
217(8) . . .
207(8) . . .
201(7) . . .
199(7) . . .
199(8) . . .
196(8) . . .
218(8) . . .
234(8) . . .
224(8) . . .
206(8) . . .
201(8) . . .
200(7) . . .
217(8) . . .
211(8) . . .
204(8) . . .
197(8) . . .
192(7) . . .
223(8) . . .
197(7) . . .
212(8) . . .
197(7) . . .
225(8) . . .
201(7) . . .
222(8) . . .
228(8) . . .
233(8) . . .
200(7) . . .
227(8) . . .
210(8) . . .
249(9) . . .
201(8) . . .
186(7) . . .
212(8) . . .
203(8) . . .
215(8) . . .
209(8) . . .
212(8) . . .
235(8) . . .
214(8) . . .
194(8) . . .
206(8) . . .
215(8) . . .
220(8) . . .
221(8) . . .
225(8) . . .
211(8) . . .
224(8) . . .
217(8) . . .
226(8) . . .
181(7) . . .
234(8) . . .
235(8) . . .
212(8) . . .
223(8) . . .
204(8) . . .
231(8) . . .
228(8) . . .
220(8) . . .
254(9) . . .
223(8) . . .
245(9) . . .
237(8) . . .
250(8) . . .
233(8) . . .
238(8) . . .
241(8) . . .
241(8) . . .
228(8) . . .
227(8) . . .
224(8) . . .
216(8) . . .
224(8) . . .
222(8) . . .
231(9) . . .
210(8) . . .
228(8) . . .
213(8) . . .
216(8) . . .
208(8) . . .
201(8) . . .
210(8) . . .
230(8) . . .
212(8) . . .
229(8) . . .
209(8) . . .
195(7) . . .
205(7) . . .
218(8) . . .
218(8) . . .
232(8) . . .
221(8) . . .
220(8) . . .
233(8) . . .
202(8) . . .
198(7) . . .
200(7) . . .
194(7) . . .
222(8) . . .
226(8) . . .
224(8) . . .
207(7) . . .
211(8) . . .
224(8) . . .
204(8) . . .
208(8) . . .
229(8) . . .
223(8) . . .
214(8) . . .
191(7) . . .
209(8) . . .
191(7) . . .
203(8) . . .
206(8) . . .
197(7) . . .
209(8) . . .
217(8) . . .
218(8) . . .
211(8) . . .
220(8) . . .
207(7) . . .
203(7) . . .
197(8) . . .
221(8) . . .
210(8) . . .
230(8) . . .
216(8) . . .
211(8) . . .
234(9) . . .
213(8) . . .
203(7) . . .
202(7) . . .
197(7) . . .
202(8) . . .
219(8) . . .
244(8) . . .
228(8) . . .
179(7) . . .
206(8) . . .
192(8) . . .
218(8) . . .
228(8) . . .
224(8) . . .
204(8) . . .
218(8) . . .
212(8) . . .
201(7) . . .
204(8) . . .
205(8) . . .
214(8) . . .
215(8) . . .
200(7) . . .
225(8) . . .
210(8) . . .
216(8) . . .
212(8) . . .
228(8) . . .
209(8) . . .
217(8) . . .
221(8) . . .
205(7) . . .
211(8) . . .
209(8) . . .
230(8) . . .
232(8) . . .
224(8) . . .
209(8) . . .
212(8) . . .
214(8) . . .
212(8) . . .
220(8) . . .
222(8) . . .
242(9) . . .
225(8) . . .
224(8) . . .
226(8) . . .
223(8) . . .
225(8) . . .
207(8) . . .
221(8) . . .
236(8) . . .
239(8) . . .
242(9) . . .
216(8) . . .
223(8) . . .
226(8) . . .
235(8) . . .
228(8) . . .
243(8) . . .
221(8) . . .
255(8) . . .
262(9) . . .
262(9) . . .
275(9) . . .
259(8) . . .
253(8) . . .
261(9) . . .
268(9) . . .
253(9) . . .
267(8) . . .
240(8) . . .
236(8) . . .
236(9) . . .
214(8) . . .
234(8) . . .
221(8) . . .
236(8) . . .
251(9) . . .
232(8) . . .
208(7) . . .
225(8) . . .
232(8) . . .
231(8) . . .
231(8) . . .
219(8) . . .
216(8) . . .
221(8) . . .
231(8) . . .
234(8) . . .
226(8) . . .
214(8) . . .
211(8) . . .
228(8) . . .
232(8) . . .
211(8) . . .
216(8) . . .
199(8) . . .
208(8) . . .
211(8) . . .
204(7) . . .
220(8) . . .
237(9) . . .
217(8) . . .
206(8) . . .
208(8) . . .
196(7) . . .
192(8) . . .
212(8) . . .
218(8) . . .
207(7) . . .
213(8) . . .
226(8) . . .
232(8) . . .
203(7) . . .
199(7) . . .
220(8) . . .
203(8) . . .
210(8) . . .
224(8) . . .
188(7) . . .
201(8) . . .
217(8) . . .
201(8) . . .
229(8) . . .
229(8) . . .
220(8) . . .
217(8) . . .
194(7) . . .
214(8) . . .
217(8) . . .
200(8) . . .
228(8) . . .
231(8) . . .
213(8) . . .
228(8) . . .
212(8) . . .
198(8) . . .
217(8) . . .
211(8) . . .
193(7) . . .
206(8) . . .
223(8) . . .
203(8) . . .
221(8) . . .
197(8) . . .
195(8) . . .
193(7) . . .
219(8) . . .
216(8) . . .
224(8) . . .
218(8) . . .
236(8) . . .
212(8) . . .
214(8) . . .
209(8) . . .
223(8) . . .
202(7) . . .
220(8) . . .
216(8) . . .
231(8) . . .
208(8) . . .
213(8) . . .
233(8) . . .
207(7) . . .
203(8) . . .
222(8) . . .
210(8) . . .
209(8) . . .
201(7) . . .
207(8) . . .
227(8) . . .
243(8) . . .
206(7) . . .
214(8) . . .
207(8) . . .
181(7) . . .
227(8) . . .
196(7) . . .
228(8) . . .
224(8) . . .
199(8) . . .
202(8) . . .
201(7) . . .
207(8) . . .
208(8) . . .
207(8) . . .
228(8) . . .
216(8) . . .
223(8) . . .
228(8) . . .
222(8) . . .
228(8) . . .
220(8) . . .
243(8) . . .
246(9) . . .
234(8) . . .
233(8) . . .
244(8) . . .
247(8) . . .
241(8) . . .
245(9) . . .
256(8) . . .
245(8) . . .
241(8) . . .
262(9) . . .
237(8) . . .
223(8) . . .
237(8) . . .
223(8) . . .
229(8) . . .
243(8) . . .
248(8) . . .
243(8) . . .
241(8) . . .
231(8) . . .
226(8) . . .
233(8) . . .
230(8) . . .
219(8) . . .
231(9) . . .
242(8) . . .
232(8) . . .
210(8) . . .
216(8) . . .
217(8) . . .
221(8) . . .
213(8) . . .
207(7) . . .
221(8) . . .
210(8) . . .
207(8) . . .
186(7) . . .
206(8) . . .
219(8) . . .
191(7) . . .
210(8) . . .
198(7) . . .
216(8) . . .
204(8) . . .
217(8) . . .
198(7) . . .
208(8) . . .
198(7) . . .
198(8) . . .
233(8) . . .
211(8) . . .
214(8) . . .
207(8) . . .
224(9) . . .
195(8) . . .
205(8) . . .
208(8) . . .
198(7) . . .
205(8) . . .
220(8) . . .
219(8) . . .
207(7) . . .
239(8) . . .
213(8) . . .
187(7) . . .
204(7) . . .
213(8) . . .
203(8) . . .
208(8) . . .
232(8) . . .
223(8) . . .
206(7) . . .
190(7) . . .
233(9) . . .
216(8) . . .
226(8) . . .
214(8) . . .
193(7) . . .
196(8) . . .
199(8) . . .
192(7) . . .
213(8) . . .
198(7) . . .
229(8) . . .
217(8) . . .
232(8) . . .
216(8) . . .
228(8) . . .
213(8) . . .
208(8) . . .
215(8) . . .
236(8) . . .
208(8) . . .
216(8) . . .
221(8) . . .
209(8) . . .
204(8) . . .
227(8) . . .
215(8) . . .
224(8) . . .
212(8) . . .
214(8) . . .
198(8) . . .
201(8) . . .
194(7) . . .
216(8) . . .
219(8) . . .
199(8) . . .
199(7) . . .
206(7) . . .
223(8) . . .
197(8) . . .
207(8) . . .
201(8) . . .
181(7) . . .
208(7) . . .
202(8) . . .
206(8) . . .
193(7) . . .
211(8) . . .
208(8) . . .
213(8) . . .
209(8) . . .
208(8) . . .
187(7) . . .
189(7) . . .
184(7) . . .
202(8) . . .
224(8) . . .
203(7) . . .
213(8) . . .
223(8) . . .
202(8) . . .
217(8) . . .
211(8) . . .
206(8) . . .
215(8) . . .
204(8) . . .
212(8) . . .
210(8) . . .
202(8) . . .
211(8) . . .
207(8) . . .
216(8) . . .
229(8) . . .
209(8) . . .
217(8) . . .
207(8) . . .
200(8) . . .
217(8) . . .
218(8) . . .
217(8) . . .
231(8) . . .
224(8) . . .
224(8) . . .
235(8) . . .
233(9) . . .
243(9) . . .
233(8) . . .
226(8) . . .
238(8) . . .
216(8) . . .
265(9) . . .
227(8) . . .
231(8) . . .
248(8) . . .
267(9) . . .
232(8) . . .
252(8) . . .
240(8) . . .
268(9) . . .
243(9) . . .
238(8) . . .
239(8) . . .
231(8) . . .
233(8) . . .
234(8) . . .
222(8) . . .
226(8) . . .
227(8) . . .
213(8) . . .
220(8) . . .
226(8) . . .
223(8) . . .
191(7) . . .
201(8) . . .
203(8) . . .
221(8) . . .
214(8) . . .
230(8) . . .
215(8) . . .
230(8) . . .
208(8) . . .
216(8) . . .
239(8) . . .
221(8) . . .
226(8) . . .
201(7) . . .
204(7) . . .
211(8) . . .
220(8) . . .
211(8) . . .
213(8) . . .
230(8) . . .
207(8) . . .
206(8) . . .
201(8) . . .
213(8) . . .
208(8) . . .
219(8) . . .
200(8) . . .
214(8) . . .
219(8) . . .
198(7) . . .
209(8) . . .
205(8) . . .
201(8) . . .
221(8) . . .
208(7) . . .
212(8) . . .
204(8) . . .
207(8) . . .
197(7) . . .
201(7) . . .
206(8) . . .
186(7) . . .
193(7) . . .
201(7) . . .
192(7) . . .
212(8) . . .
215(8) . . .
205(8) . . .
218(8) . . .
221(8) . . .
202(8) . . .
206(8) . . .
182(7) . . .
229(8) . . .
204(8) . . .
201(7) . . .
212(8) . . .
209(8) . . .
207(7) . . .
228(8) . . .
198(8) . . .
208(8) . . .
202(8) . . .
226(8) . . .
218(8) . . .
207(8) . . .
199(8) . . .
207(7) . . .
209(8) . . .
193(7) . . .
227(8) . . .
194(8) . . .
198(7) . . .
216(8) . . .
219(8) . . .
216(8) . . .
223(8) . . .
211(8) . . .
198(7) . . .
200(8) . . .
227(8) . . .
214(8) . . .
214(8) . . .
216(8) . . .
215(8) . . .
218(8) . . .
186(7) . . .
204(7) . . .
222(8) . . .
193(7) . . .
201(8) . . .
210(8) . . .
214(8) . . .
217(8) . . .
207(8) . . .
177(7) . . .
201(8) . . .
207(7) . . .
205(8) . . .
225(8) . . .
229(8) . . .
203(8) . . .
231(8) . . .
230(8) . . .
208(8) . . .
233(8) . . .
194(7) . . .
213(8) . . .
220(8) . . .
209(8) . . .
213(8) . . .
207(8) . . .
214(8) . . .
215(8) . . .
227(8) . . .
222(8) . . .
209(8) . . .
201(7) . . .
217(8) . . .
224(8) . . .
212(8) . . .
198(7) . . .
197(7) . . .
209(8) . . .
208(8) . . .
182(7) . . .
232(8) . . .
217(8) . . .
234(8) . . .
219(8) . . .
210(8) . . .
203(7) . . .
211(8) . . .
216(8) . . .
212(8) . . .
211(8) . . .
215(8) . . .
224(8) . . .
194(7) . . .
216(8) . . .
185(7) . . .
212(8) . . .
218(8) . . .
239(8) . . .
194(8) . . .
207(8) . . .
182(7) . . .
184(7) . . .
192(7) . . .
205(8) . . .
202(8) . . .
205(7) . . .
216(8) . . .
193(8) . . .
206(8) . . .
200(8) . . .
200(7) . . .
223(8) . . .
206(8) . . .
208(8) . . .
212(8) . . .
196(7) . . .
207(8) . . .
209(8) . . .
210(8) . . .
205(8) . . .
206(7) . . .
210(8) . . .
200(8) . . .
215(8) . . .
205(8) . . .
217(8) . . .
221(8) . . .
230(8) . . .
190(7) . . .
225(8) . . .
216(8) . . .
212(8) . . .
213(8) . . .
200(8) . . .
209(8) . . .
208(7) . . .
205(8) . . .
200(8) . . .
228(8) . . .
220(8) . . .
233(8) . . .
227(8) . . .
217(8) . . .
220(8) . . .
212(8) . . .
212(8) . . .
211(8) . . .
238(9) . . .
245(8) . . .
224(8) . . .
240(8) . . .
212(8) . . .
238(9) . . .
250(9) . . .
263(8) . . .
248(8) . . .
243(9) . . .
243(8) . . .
239(8) . . .
238(8) . . .
236(8) . . .
239(8) . . .
235(8) . . .
223(8) . . .
204(7) . . .
228(8) . . .
234(8) . . .
216(8) . . .
217(8) . . .
240(8) . . .
249(9) . . .
235(8) . . .
219(8) . . .
219(8) . . .
244(8) . . .
245(8) . . .
232(8) . . .
220(8) . . .
211(8) . . .
230(8) . . .
228(8) . . .
216(8) . . .
220(8) . . .
243(8) . . .
216(8) . . .
236(8) . . .
231(9) . . .
224(8) . . .
226(8) . . .
229(8) . . .
209(8) . . .
235(9) . . .
205(8) . . .
231(8) . . .
212(8) . . .
243(8) . . .
221(8) . . .
202(8) . . .
193(7) . . .
218(8) . . .
202(8) . . .
210(8) . . .
232(8) . . .
214(8) . . .
197(7) . . .
214(8) . . .
227(8) . . .
225(8) . . .
225(8) . . .
206(8) . . .
234(9) . . .
220(8) . . .
213(8) . . .
222(8) . . .
232(8) . . .
226(8) . . .
212(8) . . .
223(8) . . .
195(7) . . .
202(8) . . .
221(8) . . .
204(8) . . .
210(8) . . .
197(7) . . .
223(8) . . .
232(8) . . .
217(8) . . .
221(8) . . .
210(8) . . .
228(8) . . .
210(8) . . .
212(8) . . .
201(7) . . .
215(8) . . .
195(7) . . .
208(8) . . .
194(7) . . .
224(8) . . .
227(8) . . .
192(7) . . .
212(8) . . .
227(8) . . .
206(7) . . .
207(7) . . .
211(8) . . .
209(8) . . .
217(8) . . .
203(7) . . .
188(7) . . .
212(8) . . .
224(8) . . .
228(8) . . .
219(8) . . .
215(8) . . .
208(8) . . .
196(8) . . .
188(7) . . .
205(7) . . .
213(8) . . .
238(9) . . .
215(8) . . .
230(8) . . .
195(7) . . .
188(7) . . .
217(8) . . .
206(8) . . .
177(7) . . .
188(7) . . .
210(8) . . .
212(8) . . .
206(8) . . .
224(8) . . .
217(8) . . .
195(7) . . .
188(8) . . .
183(7) . . .
179(7) . . .
199(7) . . .
231(8) . . .
203(8) . . .
189(7) . . .
182(7) . . .
201(7) . . .
196(7) . . .
188(8) . . .
195(8) . . .
201(7) . . .
210(8) . . .
195(7) . . .
227(9) . . .
206(8) . . .
199(7) . . .
220(8) . . .
219(8) . . .
204(8) . . .
188(7) . . .
188(7) . . .
191(7) . . .
199(7) . . .
218(8) . . .
208(8) . . .
232(8) . . .
210(8) . . .
212(8) . . .
220(8) . . .
210(8) . . .
216(8) . . .
192(7) . . .
202(8) . . .
188(7) . . .
201(7) . . .
218(8) . . .
223(8) . . .
211(8) . . .
208(8) . . .
212(8) . . .
198(7) . . .
210(8) . . .
195(8) . . .
212(8) . . .
196(7) . . .
210(8) . . .
220(8) . . .
223(8) . . .
227(8) . . .
221(8) . . .
217(8) . . .
205(8) . . .
231(8) . . .
230(8) . . .
236(8) . . .
232(8) . . .
216(8) . . .
213(8) . . .
236(8) . . .
231(8) . . .
222(8) . . .
241(8) . . .
232(8) . . .
223(8) . . .
219(8) . . .
200(7) . . .
203(8) . . .
221(8) . . .
222(8) . . .
207(8) . . .
210(8) . . .
222(8) . . .
198(8) . . .
220(8) . . .
204(7) . . .
207(8) . . .
190(7) . . .
203(8) . . .
234(8) . . .
222(8) . . .
206(8) . . .
196(8) . . .
202(8) . . .
210(8) . . .
225(8) . . .
215(8) . . .
207(8) . . .
191(7) . . .
204(8) . . .
214(8) . . .
213(8) . . .
195(8) . . .
217(8) . . .
190(7) . . .
217(8) . . .
206(8) . . .
230(8) . . .
220(8) . . .
212(8) . . .
205(7) . . .
191(7) . . .
204(8) . . .
213(8) . . .
212(8) . . .
224(8) . . .
211(8) . . .
203(8) . . .
202(8) . . .
214(8) . . .
229(8) . . .
215(8) . . .
229(8) . . .
212(8) . . .
210(7) . . .
214(8) . . .
232(8) . . .
236(8) . . .
205(8) . . .
235(8) . . .
262(8) . . .
246(9) . . .
234(8) . . .
230(8) . . .
235(8) . . .
215(8) . . .
205(8) . . .
233(8) . . .
239(8) . . .
214(8) . . .
253(8) . . .
225(8) . . .
224(8) . . .
208(8) . . .
238(8) . . .
235(8) . . .
238(8) . . .
209(8) . . .
192(7) . . .
201(7) . . .
204(8) . . .
224(8) . . .
214(8) . . .
212(8) . . .
205(7) . . .
214(8) . . .
196(7) . . .
211(8) . . .
219(8) . . .
204(7) . . .
203(7) . . .
208(8) . . .
202(8) . . .
201(7) . . .
201(7) . . .
218(8) . . .
217(8) . . .
197(7) . . .
196(7) . . .
216(8) . . .
219(8) . . .
199(8) . . .
224(8) . . .
234(8) . . .
218(8) . . .
210(8) . . .
178(7) . . .
191(7) . . .
206(7) . . .
213(8) . . .
183(7) . . .
198(8) . . .
217(8) . . .
190(7) . . .
193(7) . . .
213(8) . . .
194(8) . . .
204(8) . . .
191(7) . . .
205(8) . . .
219(8) . . .
226(8) . . .
205(8) . . .
191(7) . . .
216(8) . . .
208(8) . . .
201(8) . . .
200(8) . . .
189(7) . . .
184(7) . . .
200(8) . . .
209(8) . . .
189(7) . . .
210(8) . . .
216(8) . . .
184(7) . . .
189(7) . . .
209(8) . . .
197(7) . . .
210(8) . . .
202(8) . . .
196(7) . . .
213(8) . . .
207(7) . . .
221(8) . . .
202(8) . . .
210(8) . . .
233(8) . . .
226(8) . . .
207(8) . . .
203(8) . . .
214(8) . . .
203(7) . . .
208(7) . . .
216(8) . . .
214(8) . . .
217(8) . . .
191(7) . . .
202(8) . . .
197(8) . . .
195(8) . . .
170(7) . . .
193(7) . . .
208(8) . . .
230(8) . . .
208(8) . . .
217(8) . . .
191(7) . . .
224(8) . . .
212(8) . . .
200(8) . . .
191(7) . . .
204(7) . . .
216(8) . . .
199(7) . . .
201(8) . . .
219(8) . . .
201(7) . . .
204(8) . . .
187(7) . . .
204(8) . . .
207(8) . . .
206(7) . . .
205(8) . . .
228(8) . . .
222(8) . . .
212(8) . . .
210(7) . . .
218(8) . . .
215(8) . . .
211(8) . . .
226(8) . . .
217(8) . . .
212(8) . . .
223(8) . . .
211(8) . . .
207(8) . . .
203(7) . . .
223(8) . . .
211(8) . . .
214(8) . . .
217(8) . . .
200(7) . . .
210(8) . . .
201(8) . . .
218(8) . . .
210(8) . . .
201(7) . . .
221(8) . . .
193(8) . . .
206(8) . . .
217(8) . . .
192(7) . . .
192(7) . . .
204(8) . . .
215(8) . . .
196(7) . . .
214(8) . . .
210(8) . . .
212(8) . . .
217(8) . . .
219(8) . . .
209(8) . . .
186(7) . . .
196(8) . . .
218(8) . . .
211(8) . . .
212(8) . . .
183(7) . . .
201(8) . . .
213(8) . . .
204(7) . . .
222(8) . . .
205(8) . . .
192(8) . . .
212(8) . . .
197(7) . . .
212(8) . . .
204(8) . . .
204(8) . . .
196(7) . . .
221(8) . . .
205(8) . . .
208(8) . . .
208(8) . . .
230(8) . . .
229(8) . . .
219(8) . . .
221(8) . . .
240(8) . . .
219(8) . . .
222(8) . . .
196(7) . . .
194(8) . . .
210(8) . . .
223(8) . . .
214(8) . . .
222(8) . . .
232(8) . . .
204(8) . . .
235(8) . . .
230(8) . . .
210(8) . . .
205(8) . . .
223(8) . . .
203(7) . . .
191(7) . . .
195(7) . . .
218(8) . . .
200(8) . . .
214(8) . . .
214(8) . . .
221(8) . . .
211(8) . . .
228(8) . . .
207(7) . . .
203(7) . . .
199(8) . . .
190(7) . . .
214(8) . . .
215(8) . . .
196(7) . . .
205(8) . . .
219(8) . . .
215(8) . . .
204(7) . . .
188(7) . . .
206(8) . . .
218(8) . . .
221(8) . . .
222(8) . . .
212(8) . . .
229(8) . . .
211(8) . . .
199(7) . . .
198(7) . . .
211(8) . . .
202(8) . . .
202(7) . . .
199(7) . . .
215(8) . . .
209(8) . . .
197(8) . . .
201(7) . . .
199(7) . . .
211(8) . . .
207(8) . . .
203(8) . . .
203(8) . . .
215(8) . . .
215(8) . . .
209(8) . . .
188(8) . . .
196(8) . . .
213(8) . . .
198(7) . . .
195(7) . . .
189(7) . . .
198(8) . . .
202(7) . . .
210(8) . . .
206(8) . . .
211(8) . . .
210(8) . . .
208(7) . . .
214(8) . . .
220(8) . . .
213(8) . . .
199(8) . . .
198(7) . . .
219(8) . . .
208(8) . . .
201(8) . . .
196(7) . . .
217(8) . . .
214(8) . . .
196(8) . . .
216(8) . . .
207(7) . . .
226(8) . . .
203(8) . . .
218(8) . . .
202(8) . . .
205(7) . . .
193(7) . . .
213(8) . . .
217(8) . . .
229(8) . . .
200(7) . . .
221(8) . . .
247(9) . . .
214(8) . . .
214(8) . . .
213(8) . . .
181(7) . . .
193(7) . . .
207(8) . . .
206(8) . . .
211(8) . . .
206(7) . . .
220(8) . . .
220(8) . . .
214(8) . . .
225(8) . . .
212(8) . . .
219(8) . . .
218(8) . . .
203(8) . . .
207(7) . . .
204(8) . . .
199(8) . . .
212(8) . . .
218(8) . . .
180(7) . . .
204(8) . . .
191(7) . . .
220(8) . . .
221(8) . . .
186(7) . . .
205(8) . . .
213(8) . . .
187(7) . . .
216(8) . . .
198(7) . . .
207(8) . . .
207(8) . . .
190(7) . . .
219(8) . . .
204(7) . . .
192(7) . . .
207(8) . . .
205(8) . . .
203(8) . . .
215(8) . . .
210(8) . . .
190(8) . . .
188(7) . . .
212(8) . . .
178(7) . . .
212(8) . . .
207(8) . . .
186(7) . . .
181(7) . . .
189(7) . . .
204(8) . . .
195(8) . . .
196(8) . . .
192(7) . . .
208(7) . . .
212(8) . . .
190(8) . . .
199(8) . . .
199(7) . . .
193(7) . . .
196(7) . . .
199(8) . . .
194(8) . . .
191(7) . . .
172(7) . . .
191(8) . . .
223(8) . . .
206(8) . . .
209(7) . . .
194(7) . . .
204(8) . . .
206(8) . . .
211(8) . . .
205(7) . . .
202(8) . . .
213(8) . . .
174(7) . . .
214(8) . . .
201(7) . . .
198(7) . . .
189(7) . . .
206(8) . . .
196(7) . . .
205(7) . . .
213(8) . . .
213(8) . . .
195(8) . . .
194(7) . . .
217(8) . . .
209(8) . . .
203(8) . . .
198(8) . . .
214(8) . . .
190(7) . . .
203(8) . . .
197(8) . . .
186(7) . . .
204(8) . . .
200(7) . . .
204(8) . . .
199(8) . . .
200(8) . . .
210(8) . . .
200(7) . . .
225(8) . . .
205(8) . . .
212(8) . . .
196(7) . . .
198(7) . . .
202(8) . . .
213(8) . . .
212(8) . . .
210(8) . . .
223(8) . . .
207(8) . . .
198(8) . . .
205(8) . . .
217(8) . . .
199(8) . . .
205(8) . . .
207(8) . . .
207(8) . . .
213(8) . . .
214(8) . . .
200(8) . . .
218(8) . . .
224(8) . . .
206(7) . . .
195(7) . . .
223(8) . . .
195(7) . . .
214(8) . . .
216(8) . . .
231(8) . . .
217(8) . . .
233(8) . . .
203(7) . . .
220(8) . . .
220(8) . . .
208(8) . . .
217(8) . . .
219(8) . . .
200(7) . . .
210(8) . . .
207(8) . . .
177(7) . . .
209(8) . . .
204(7) . . .
216(8) . . .
216(8) . . .
199(8) . . .
203(7) . . .
205(8) . . .
190(8) . . .
204(8) . . .
206(8) . . .
183(7) . . .
211(7) . . .
224(8) . . .
221(8) . . .
198(8) . . .
207(7) . . .
196(7) . . .
212(8) . . .
219(8) . . .
203(8) . . .
183(7) . . .
198(7) . . .
211(8) . . .
212(8) . . .
196(8) . . .
195(7) . . .
208(8) . . .
209(8) . . .
183(7) . . .
195(7) . . .
206(7) . . .
200(7) . . .
212(8) . . .
187(7) . . .
186(7) . . .
190(7) . . .
192(7) . . .
187(8) . . .
192(7) . . .
188(7) . . .
207(7) . . .
218(8) . . .
181(7) . . .
194(8) . . .
189(7) . . .
199(7) . . .
196(8) . . .
185(7) . . .
214(8) . . .
201(8) . . .
192(7) . . .
195(8) . . .
186(8) . . .
190(7) . . .
218(8) . . .
196(7) . . .
194(7) . . .
208(8) . . .
203(8) . . .
217(8) . . .
204(7) . . .
207(8) . . .
215(8) . . .
182(7) . . .
201(7) . . .
202(7) . . .
206(8) . . .
200(8) . . .
199(7) . . .
200(7) . . .
181(7) . . .
192(7) . . .
190(7) . . .
210(8) . . .
202(7) . . .
204(8) . . .
190(7) . . .
199(8) . . .
206(8) . . .
177(7) . . .
185(7) . . .
187(7) . . .
209(8) . . .
186(7) . . .
189(7) . . .
200(8) . . .
184(7) . . .
204(8) . . .
190(7) . . .
198(7) . . .
197(7) . . .
203(8) . . .
208(8) . . .
204(8) . . .
182(7) . . .
198(8) . . .
178(7) . . .
194(7) . . .
184(7) . . .
192(7) . . .
186(7) . . .
200(8) . . .
195(7) . . .
201(7) . . .
174(7) . . .
189(7) . . .
179(7) . . .
176(7) . . .
176(7) . . .
199(7) . . .
198(8) . . .
204(8) . . .
189(7) . . .
213(8) . . .
202(8) . . .
182(7) . . .
188(8) . . .
195(7) . . .
199(7) . . .
203(8) . . .
193(7) . . .
214(8) . . .
188(7) . . .
194(7) . . .
189(7) . . .
199(8) . . .
202(8) . . .
196(7) . . .
183(7) . . .
178(7) . . .
198(8) . . .
185(8) . . .
215(8) . . .
222(8) . . .
207(8) . . .
183(7) . . .
186(7) . . .
194(7) . . .
198(7) . . .
213(8) . . .
179(7) . . .
179(7) . . .
180(7) . . .
184(7) . . .
191(8) . . .
190(8) . . .
195(8) . . .
184(7) . . .
204(8) . . .
205(8) . . .
192(8) . . .
195(7) . . .
173(7) . . .
202(7) . . .
183(7) . . .
187(7) . . .
204(8) . . .
195(7) . . .
199(7) . . .
188(7) . . .
194(8) . . .
189(7) . . .
214(8) . . .
196(7) . . .
196(8) . . .
204(8) . . .
181(7) . . .
208(8) . . .
196(7) . . .
209(8) . . .
213(8) . . .
192(7) . . .
198(7) . . .
202(7) . . .
192(7) . . .
183(7) . . .
190(7) . . .
199(7) . . .
192(7) . . .
181(7) . . .
194(8) . . .
187(7) . . .
187(7) . . .
192(7) . . .
195(7) . . .
192(7) . . .
193(7) . . .
185(7) . . .
184(7) . . .
208(8) . . .
212(8) . . .
202(7) . . .
182(7) . . .
187(8) . . .
182(7) . . .
202(8) . . .
180(7) . . .
190(7) . . .
196(8) . . .
183(7) . . .
186(7) . . .
191(7) . . .
186(7) . . .
201(8) . . .
193(8) . . .
178(7) . . .
188(7) . . .
194(7) . . .
175(7) . . .
188(8) . . .
188(7) . . .
174(7) . . .
199(7) . . .
195(8) . . .
195(8) . . .
208(8) . . .
193(7) . . .
185(7) . . .
186(7) . . .
188(7) . . .
183(7) . . .
178(7) . . .
189(7) . . .
198(8) . . .
184(8) . . .
192(8) . . .
190(7) . . .
201(8) . . .
195(8) . . .
208(8) . . .
206(8) . . .
169(7) . . .
192(7) . . .
178(7) . . .
201(8) . . .
204(8) . . .
185(7) . . .
214(8) . . .
178(7) . . .
204(8) . . .
179(7) . . .
198(7) . . .
192(8) . . .
176(7) . . .
194(7) . . .
221(8) . . .
200(7) . . .
201(8) . . .
180(7) . . .
202(8) . . .
192(7) . . .
197(7) . . .
187(7) . . .
197(8) . . .
187(7) . . .
188(7) . . .
184(7) . . .
205(8) . . .
208(8) . . .
194(7) . . .
195(7) . . .
202(7) . . .
192(7) . . .
195(8) . . .
206(8) . . .
190(7) . . .
182(7) . . .
193(7) . . .
180(7) . . .
189(7) . . .
188(7) . . .
184(7) . . .
207(8) . . .
223(8) . . .
190(7) . . .
190(7) . . .
187(7) . . .
177(7) . . .
167(7) . . .
206(8) . . .
174(7) . . .
208(8) . . .
204(8) . . .
197(8) . . .
186(7) . . .
199(7) . . .
184(7) . . .
186(7) . . .
179(7) . . .
184(7) . . .
166(7) . . .
192(7) . . .
180(7) . . .
185(7) . . .
206(8) . . .
190(7) . . .
207(8) . . .
208(8) . . .
208(8) . . .
208(8) . . .
199(7) . . .
203(8) . . .
196(8) . . .
188(7) . . .
187(7) . . .
200(7) . . .
219(8) . . .
181(8) . . .
187(7) . . .
207(8) . . .
212(8) . . .
194(8) . . .
193(8) . . .
191(7) . . .
195(7) . . .
190(7) . . .
200(8) . . .
212(8) . . .
199(8) . . .
203(7) . . .
193(7) . . .
185(7) . . .
210(8) . . .
182(7) . . .
182(7) . . .
201(7) . . .
181(7) . . .
187(8) . . .
207(8) . . .
178(7) . . .
214(8) . . .
215(8) . . .
191(7) . . .
192(7) . . .
207(7) . . .
210(8) . . .
198(8) . . .
200(8) . . .
206(8) . . .
217(8) . . .
200(8) . . .
190(8) . . .
206(8) . . .
193(8) . . .
197(7) . . .
193(7) . . .
193(7) . . .
192(8) . . .
184(7) . . .
193(7) . . .
200(8) . . .
192(8) . . .
190(8) . . .
195(7) . . .
211(8) . . .
202(8) . . .
222(8) . . .
192(7) . . .
222(8) . . .
218(8) . . .
208(8) . . .
192(8) . . .
225(8) . . .
206(7) . . .
190(7) . . .
204(8) . . .
200(8) . . .
212(8) . . .
211(8) . . .
204(7) . . .
195(7) . . .
199(8) . . .
200(8) . . .
199(7) . . .
218(8) . . .
206(8) . . .
203(8) . . .
190(7) . . .
204(7) . . .
204(8) . . .
204(8) . . .
194(8) . . .
188(7) . . .
189(7) . . .
200(8) . . .
209(8) . . .
186(7) . . .
191(7) . . .
200(7) . . .
200(8) . . .
194(8) . . .
202(8) . . .
209(8) . . .
221(8) . . .
184(7) . . .
199(8) . . .
210(8) . . .
193(7) . . .
198(7) . . .
177(7) . . .
197(8) . . .
204(8) . . .
181(7) . . .
196(7) . . .
198(8) . . .
188(8) . . .
199(8) . . .
190(7) . . .
188(7) . . .
194(7) . . .
195(8) . . .
211(8) . . .
204(7) . . .
200(7) . . .
202(8) . . .
197(8) . . .
213(8) . . .
186(7) . . .
191(7) . . .
226(8) . . .
188(7) . . .
203(8) . . .
215(8) . . .
191(7) . . .
198(8) . . .
187(7) . . .
190(7) . . .
211(8) . . .
182(7) . . .
192(7) . . .
205(8) . . .
211(8) . . .
166(7) . . .
185(7) . . .
184(7) . . .
178(7) . . .
191(7) . . .
200(7) . . .
191(8) . . .
173(7) . . .
177(7) . . .
205(7) . . .
169(7) . . .
193(7) . . .
192(8) . . .
196(8) . . .
192(7) . . .
170(7) . . .
196(8) . . .
186(7) . . .
190(7) . . .
210(8) . . .
217(8) . . .
202(8) . . .
193(8) . . .
188(7) . . .
183(7) . . .
213(8) . . .
185(7) . . .
198(8) . . .
187(7) . . .
177(7) . . .
188(7) . . .
196(8) . . .
183(7) . . .
214(8) . . .
190(7) . . .
180(7) . . .
198(8) . . .
187(8) . . .
198(8) . . .
198(7) . . .
202(7) . . .
189(7) . . .
186(8) . . .
204(8) . . .
184(7) . . .
216(8) . . .
198(8) . . .
183(8) . . .
200(8) . . .
204(7) . . .
220(8) . . .
196(7) . . .
202(8) . . .
208(8) . . .
212(8) . . .
190(7) . . .
211(8) . . .
214(8) . . .
206(8) . . .
201(7) . . .
191(7) . . .
178(7) . . .
201(8) . . .
207(8) . . .
183(7) . . .
188(7) . . .
205(8) . . .
211(8) . . .
207(8) . . .
179(7) . . .
190(7) . . .
186(7) . . .
181(7) . . .
176(7) . . .
197(7) . . .
200(8) . . .
201(8) . . .
169(7) . . .
180(7) . . .
199(7) . . .
198(8) . . .
189(8) . . .
182(7) . . .
197(7) . . .
194(7) . . .
206(8) . . .
194(8) . . .
196(7) . . .
192(7) . . .
208(8) . . .
205(8) . . .
193(8) . . .
174(7) . . .
197(7) . . .
186(7) . . .
214(8) . . .
187(7) . . .
185(7) . . .
192(7) . . .
202(8) . . .
186(7) . . .
179(7) . . .
196(8) . . .
183(7) . . .
195(7) . . .
195(8) . . .
205(8) . . .
187(7) . . .
198(7) . . .
201(8) . . .
218(8) . . .
177(7) . . .
190(7) . . .
217(8) . . .
205(8) . . .
213(8) . . .
209(8) . . .
193(7) . . .
201(7) . . .
220(8) . . .
185(7) . . .
215(8) . . .
209(7) . . .
217(8) . . .
184(7) . . .
200(8) . . .
208(8) . . .
222(8) . . .
209(8) . . .
218(8) . . .
208(8) . . .
185(7) . . .
217(8) . . .
199(7) . . .
200(7) . . .
228(8) . . .
202(8) . . .
209(8) . . .
201(7) . . .
207(8) . . .
211(8) . . .
212(8) . . .
205(7) . . .
188(7) . . .
199(8) . . .
200(8) . . .
220(8) . . .
218(8) . . .
219(8) . . .
210(8) . . .
197(8) . . .
198(8) . . .
191(7) . . .
199(7) . . .
179(7) . . .
182(7) . . .
201(7) . . .
187(7) . . .
194(7) . . .
209(8) . . .
217(8) . . .
183(7) . . .
193(7) . . .
196(8) . . .
205(8) . . .
191(7) . . .
190(7) . . .
227(8) . . .
208(8) . . .
190(8) . . .
187(7) . . .
190(7) . . .
204(7) . . .
195(8) . . .
187(8) . . .
168(7) . . .
183(7) . . .
189(7) . . .
189(7) . . .
176(7) . . .
182(7) . . .
188(7) . . .
205(7) . . .
171(7) . . .
207(8) . . .
187(7) . . .
203(7) . . .
194(7) . . .
177(7) . . .
180(7) . . .
191(8) . . .
178(7) . . .
183(7) . . .
185(7) . . .
188(7) . . .
190(7) . . .
184(7) . . .
179(7) . . .
180(7) . . .
174(7) . . .
220(8) . . .
179(7) . . .
184(7) . . .
182(7) . . .
195(8) . . .
194(7) . . .
201(7) . . .
199(7) . . .
175(7) . . .
177(7) . . .
176(7) . . .
187(7) . . .
189(7) . . .
213(8) . . .
188(7) . . .
176(7) . . .
186(7) . . .
195(8) . . .
198(8) . . .
197(8) . . .
207(8) . . .
203(7) . . .
181(7) . . .
184(7) . . .
187(7) . . .
184(7) . . .
178(7) . . .
206(8) . . .
196(8) . . .
182(7) . . .
154(6) . . .
190(7) . . .
203(8) . . .
196(8) . . .
192(7) . . .
201(7) . . .
199(7) . . .
207(8) . . .
217(8) . . .
192(7) . . .
172(7) . . .
175(7) . . .
197(8) . . .
203(8) . . .
194(8) . . .
204(7) . . .
192(7) . . .
189(7) . . .
196(8) . . .
188(7) . . .
197(7) . . .
207(8) . . .
197(8) . . .
205(8) . . .
182(7) . . .
195(7) . . .
177(7) . . .
196(8) . . .
194(8) . . .
207(8) . . .
188(7) . . .
193(7) . . .
202(8) . . .
195(7) . . .
206(7) . . .
177(7) . . .
183(7) . . .
176(7) . . .
184(7) . . .
171(7) . . .
169(7) . . .
193(7) . . .
225(8) . . .
191(7) . . .
188(7) . . .
182(7) . . .
183(7) . . .
205(8) . . .
184(7) . . .
181(7) . . .
170(7) . . .
200(8) . . .
187(8) . . .
178(7) . . .
182(7) . . .
188(7) . . .
203(8) . . .
203(8) . . .
194(8) . . .
177(7) . . .
185(7) . . .
199(8) . . .
180(7) . . .
197(8) . . .
188(7) . . .
176(7) . . .
172(7) . . .
177(7) . . .
186(7) . . .
197(7) . . .
218(8) . . .
186(7) . . .
178(7) . . .
172(7) . . .
202(7) . . .
189(7) . . .
198(8) . . .
187(8) . . .
176(7) . . .
185(7) . . .
183(7) . . .
183(7) . . .
170(7) . . .
190(7) . . .
191(7) . . .
187(7) . . .
177(7) . . .
182(7) . . .
187(7) . . .
168(7) . . .
213(8) . . .
203(8) . . .
170(7) . . .
169(7) . . .
196(7) . . .
197(8) . . .
200(8) . . .
200(7) . . .
202(8) . . .
185(7) . . .
204(8) . . .
193(8) . . .
188(7) . . .
170(7) . . .
174(7) . . .
182(7) . . .
180(7) . . .
181(7) . . .
203(7) . . .
175(7) . . .
182(7) . . .
196(8) . . .
189(7) . . .
203(7) . . .
190(7) . . .
182(7) . . .
210(8) . . .
177(7) . . .
194(7) . . .
182(7) . . .
216(8) . . .
191(7) . . .
206(8) . . .
209(7) . . .
192(7) . . .
172(7) . . .
191(8) . . .
169(7) . . .
200(7) . . .
178(7) . . .
171(7) . . .
179(7) . . .
190(7) . . .
195(7) . . .
186(7) . . .
184(8) . . .
174(7) . . .
196(7) . . .
186(7) . . .
201(7) . . .
188(7) . . .
178(7) . . .
191(7) . . .
183(7) . . .
181(7) . . .
180(7) . . .
202(8) . . .
205(7) . . .
179(7) . . .
194(8) . . .
207(8) . . .
204(8) . . .
201(7) . . .
223(8) . . .
195(7) . . .
175(7) . . .
173(7) . . .
161(7) . . .
176(7) . . .
191(7) . . .
206(8) . . .
181(7) . . .
186(7) . . .
179(7) . . .
179(7) . . .
189(7) . . .
202(8) . . .
174(7) . . .
187(7) . . .
168(7) . . .
190(8) . . .
186(7) . . .
178(7) . . .
176(7) . . .
187(7) . . .
189(7) . . .
187(7) . . .
185(7) . . .
172(7) . . .
194(8) . . .
187(7) . . .
191(7) . . .
179(7) . . .
188(8) . . .
190(8) . . .
178(7) . . .
186(7) . . .
181(7) . . .
180(7) . . .
188(8) . . .
188(7) . . .
177(7) . . .
179(7) . . .
197(8) . . .
193(8) . . .
187(7) . . .
195(7) . . .
187(7) . . .
183(7) . . .
182(8) . . .
186(7) . . .
172(7) . . .
184(7) . . .
183(7) . . .
194(8) . . .
165(7) . . .
183(7) . . .
181(7) . . .
176(7) . . .
210(8) . . .
187(7) . . .
192(7) . . .
182(7) . . .
180(7) . . .
168(7) . . .
172(7) . . .
184(7) . . .
193(7) . . .
184(7) . . .
165(7) . . .
170(7) . . .
192(7) . . .
189(7) . . .
202(8) . . .
187(8) . . .
192(7) . . .
172(7) . . .
174(7) . . .
186(7) . . .
195(8) . . .
178(7) . . .
179(7) . . .
176(7) . . .
172(7) . . .
192(8) . . .
199(7) . . .
170(7) . . .
170(7) . . .
182(7) . . .
194(7) . . .
179(7) . . .
195(7) . . .
176(7) . . .
197(8) . . .
203(7) . . .
178(7) . . .
177(7) . . .
176(7) . . .
170(7) . . .
197(8) . . .
189(7) . . .
201(7) . . .
180(7) . . .
179(7) . . .
193(8) . . .
209(8) . . .
199(7) . . .
192(7) . . .
200(8) . . .
214(8) . . .
191(7) . . .
190(7) . . .
198(7) . . .
235(9) . . .
205(8) . . .
215(8) . . .
206(8) . . .
203(8) . . .
214(8) . . .
218(8) . . .
202(7) . . .
192(7) . . .
193(8) . . .
167(7) . . .
197(8) . . .
221(8) . . .
202(8) . . .
189(7) . . .
202(8) . . .
176(7) . . .
187(7) . . .
200(8) . . .
184(7) . . .
182(7) . . .
190(7) . . .
190(7) . . .
203(8) . . .
190(8) . . .
189(7) . . .
178(7) . . .
192(7) . . .
195(8) . . .
176(7) . . .
184(7) . . .
206(8) . . .
199(7) . . .
183(7) . . .
195(8) . . .
180(7) . . .
188(7) . . .
197(7) . . .
190(7) . . .
185(7) . . .
187(7) . . .
203(7) . . .
192(7) . . .
198(8) . . .
203(8) . . .
201(8) . . .
175(7) . . .
186(7) . . .
195(8) . . .
189(7) . . .
190(7) . . .
185(7) . . .
192(7) . . .
195(8) . . .
209(8) . . .
197(8) . . .
178(7) . . .
198(8) . . .
172(7) . . .
183(7) . . .
183(7) . . .
186(7) . . .
197(7) . . .
178(7) . . .
209(8) . . .
183(7) . . .
170(7) . . .
193(7) . . .
189(7) . . .
183(7) . . .
177(7) . . .
182(7) . . .
188(7) . . .
182(7) . . .
172(7) . . .
166(7) . . .
193(7) . . .
203(8) . . .
180(7) . . .
203(8) . . .
177(7) . . .
181(7) . . .
185(7) . . .
206(8) . . .
185(7) . . .
173(7) . . .
184(7) . . .
186(7) . . .
173(7) . . .
171(7) . . .
196(7) . . .
182(7) . . .
165(7) . . .
170(7) . . .
167(7) . . .
183(7) . . .
181(7) . . .
186(7) . . .
177(7) . . .
181(7) . . .
192(7) . . .
179(7) . . .
174(7) . . .
178(7) . . .
198(8) . . .
187(7) . . .
197(7) . . .
188(7) . . .
178(7) . . .
191(7) . . .
168(7) . . .
182(7) . . .
196(8) . . .
206(8) . . .
181(7) . . .
191(7) . . .
175(7) . . .
191(7) . . .
185(7) . . .
202(8) . . .
202(7) . . .
191(8) . . .
192(8) . . .
191(7) . . .
201(8) . . .
180(7) . . .
184(7) . . .
166(7) . . .
187(7) . . .
183(7) . . .
184(7) . . .
199(8) . . .
175(7) . . .
200(8) . . .
194(7) . . .
199(7) . . .
207(8) . . .
193(8) . . .
200(8) . . .
200(7) . . .
194(7) . . .
195(8) . . .
200(8) . . .
189(7) . . .
166(7) . . .
195(7) . . .
190(7) . . .
191(8) . . .
204(8) . . .
199(7) . . .
206(8) . . .
205(8) . . .
189(8) . . .
189(7) . . .
164(7) . . .
183(7) . . .
192(7) . . .
185(7) . . .
179(7) . . .
190(7) . . .
190(7) . . .
184(7) . . .
184(7) . . .
186(7) . . .
178(7) . . .
186(7) . . .
175(7) . . .
179(7) . . .
196(7) . . .
166(7) . . .
198(8) . . .
198(8) . . .
184(7) . . .
182(7) . . .
177(7) . . .
193(8) . . .
206(8) . . .
162(7) . . .
203(8) . . .
177(7) . . .
177(7) . . .
201(8) . . .
185(7) . . .
200(8) . . .
215(8) . . .
196(7) . . .
207(8) . . .
191(7) . . .
185(7) . . .
183(7) . . .
190(7) . . .
179(7) . . .
200(8) . . .
206(8) . . .
203(7) . . .
209(8) . . .
165(7) . . .
180(7) . . .
190(7) . . .
175(7) . . .
205(8) . . .
183(7) . . .
191(8) . . .
174(7) . . .
198(7) . . .
187(7) . . .
191(7) . . .
193(7) . . .
177(7) . . .
173(7) . . .
188(7) . . .
185(7) . . .
175(7) . . .
195(7) . . .
187(7) . . .
190(8) . . .
176(7) . . .
179(7) . . .
174(7) . . .
188(7) . . .
180(7) . . .
180(7) . . .
193(7) . . .
168(7) . . .
177(7) . . .
179(7) . . .
184(7) . . .
172(7) . . .
182(7) . . .
177(7) . . .
168(7) . . .
166(7) . . .
187(7) . . .
169(7) . . .
182(8) . . .
182(7) . . .
196(8) . . .
194(7) . . .
198(7) . . .
193(7) . . .
193(8) . . .
193(8) . . .
187(7) . . .
180(7) . . .
176(7) . . .
217(8) . . .
184(7) . . .
172(7) . . .
190(7) . . .
191(7) . . .
194(8) . . .
172(7) . . .
188(7) . . .
184(7) . . .
170(7) . . .
193(8) . . .
177(7) . . .
174(7) . . .
170(7) . . .
167(7) . . .
182(7) . . .
184(7) . . .
193(7) . . .
181(7) . . .
186(7) . . .
205(8) . . .
198(7) . . .
182(7) . . .
177(7) . . .
173(7) . . .
212(8) . . .
205(8) . . .
182(7) . . .
172(7) . . .
178(7) . . .
180(7) . . .
196(7) . . .
191(7) . . .
206(8) . . .
174(7) . . .
190(7) . . .
188(7) . . .
174(7) . . .
175(7) . . .
183(8) . . .
202(8) . . .
169(7) . . .
189(7) . . .
180(7) . . .
173(7) . . .
181(7) . . .
179(7) . . .
171(7) . . .
182(7) . . .
181(7) . . .
200(8) . . .
181(7) . . .
196(7) . . .
183(7) . . .
188(8) . . .
188(7) . . .
180(7) . . .
182(7) . . .
203(8) . . .
190(7) . . .
172(7) . . .
171(7) . . .
195(7) . . .
186(7) . . .
176(7) . . .
166(7) . . .
157(7) . . .
189(7) . . .
193(8) . . .
181(7) . . .
177(7) . . .
161(7) . . .
197(7) . . .
179(7) . . .
191(8) . . .
176(7) . . .
191(7) . . .
181(7) . . .
178(7) . . .
190(7) . . .
172(7) . . .
185(7) . . .
183(7) . . .
183(8) . . .
185(7) . . .
196(7) . . .
193(7) . . .
171(7) . . .
185(8) . . .
178(7) . . .
188(7) . . .
173(7) . . .
192(8) . . .
187(8) . . .
185(7) . . .
192(7) . . .
187(7) . . .
183(7) . . .
190(8) . . .
170(7) . . .
190(7) . . .
189(7) . . .
191(8) . . .
204(8) . . .
191(8) . . .
164(7) . . .
181(7) . . .
183(7) . . .
170(7) . . .
186(7) . . .
180(7) . . .
179(7) . . .
181(7) . . .
172(7) . . .
175(7) . . .
197(7) . . .
191(7) . . .
175(7) . . .
177(7) . . .
178(7) . . .
182(7) . . .
185(7) . . .
196(8) . . .
189(7) . . .
202(8) . . .
180(7) . . .
162(7) . . .
165(7) . . .
193(8) . . .
203(8) . . .
183(7) . . .
171(7) . . .
187(8) . . .
179(7) . . .
174(7) . . .
198(7) . . .
183(7) . . .
198(8) . . .
179(7) . . .
160(7) . . .
169(7) . . .
180(7) . . .
182(8) . . .
174(7) . . .
180(7) . . .
174(7) . . .
188(7) . . .
173(7) . . .
185(7) . . .
188(7) . . .
190(7) . . .
183(7) . . .
168(7) . . .
166(7) . . .
171(7) . . .
194(7) . . .
187(7) . . .
186(8) . . .
181(7) . . .
191(7) . . .
174(7) . . .
182(7) . . .
182(7) . . .
165(7) . . .
196(7) . . .
175(7) . . .
189(7) . . .
185(7) . . .
194(7) . . .
178(7) . . .
181(7) . . .
174(7) . . .
174(7) . . .
173(7) . . .
169(7) . . .
180(7) . . .
188(8) . . .
176(7) . . .
173(7) . . .
171(7) . . .
171(7) . . .
162(7) . . .
161(7) . . .
183(7) . . .
186(7) . . .
184(7) . . .
181(7) . . .
159(7) . . .
180(7) . . .
184(7) . . .
159(7) . . .
162(7) . . .
169(7) . . .
167(7) . . .
171(7) . . .
183(7) . . .
165(7) . . .
186(7) . . .
156(7) . . .
168(7) . . .
181(7) . . .
182(8) . . .
167(7) . . .
163(7) . . .
181(7) . . .
163(7) . . .
171(7) . . .
186(7) . . .
189(7) . . .
185(7) . . .
175(7) . . .
183(8) . . .
165(7) . . .
170(7) . . .
169(7) . . .
193(8) . . .
162(7) . . .
167(7) . . .
166(7) . . .
181(7) . . .
169(7) . . .
175(7) . . .
168(7) . . .
184(7) . . .
190(7) . . .
181(7) . . .
187(7) . . .
180(7) . . .
170(7) . . .
160(7) . . .
178(7) . . .
179(7) . . .
179(7) . . .
158(7) . . .
171(7) . . .
158(7) . . .
178(8) . . .
166(7) . . .
182(7) . . .
183(7) . . .
182(7) . . .
189(7) . . .
184(7) . . .
182(7) . . .
155(6) . . .
178(7) . . .
174(7) . . .
174(7) . . .
201(7) . . .
184(7) . . .
189(8) . . .
181(7) . . .
194(7) . . .
183(7) . . .
172(7) . . .
166(7) . . .
182(7) . . .
187(7) . . .
187(7) . . .
182(7) . . .
180(7) . . .
175(7) . . .
182(7) . . .
184(7) . . .
176(7) . . .
181(7) . . .
178(7) . . .
205(7) . . .
198(7) . . .
196(7) . . .
187(7) . . .
189(7) . . .
174(7) . . .
178(7) . . .
179(7) . . .
166(7) . . .
174(7) . . .
175(7) . . .
181(7) . . .
178(7) . . .
174(7) . . .
173(7) . . .
182(7) . . .
191(8) . . .
182(8) . . .
174(7) . . .
175(7) . . .
175(7) . . .
162(7) . . .
167(7) . . .
192(7) . . .
181(7) . . .
179(7) . . .
171(7) . . .
173(7) . . .
176(7) . . .
183(7) . . .
145(6) . . .
167(7) . . .
170(7) . . .
159(7) . . .
168(7) . . .
173(7) . . .
171(7) . . .
180(7) . . .
213(8) . . .
171(7) . . .
175(7) . . .
175(7) . . .
188(8) . . .
183(7) . . .
168(7) . . .
167(7) . . .
167(7) . . .
185(7) . . .
177(7) . . .
181(7) . . .
177(7) . . .
166(7) . . .
175(7) . . .
185(7) . . .
180(7) . . .
171(7) . . .
163(7) . . .
160(7) . . .
172(7) . . .
178(7) . . .
167(7) . . .
170(7) . . .
170(7) . . .
161(7) . . .
151(6) . . .
149(6) . . .
169(7) . . .
170(7) . . .
169(7) . . .
181(7) . . .
171(7) . . .
171(7) . . .
169(7) . . .
161(7) . . .
170(7) . . .
166(7) . . .
167(7) . . .
159(7) . . .
177(7) . . .
179(7) . . .
153(7) . . .
159(7) . . .
167(7) . . .
163(7) . . .
162(7) . . .
166(7) . . .
168(7) . . .
187(7) . . .
186(7) . . .
187(7) . . .
164(7) . . .
163(7) . . .
186(7) . . .
166(7) . . .
163(7) . . .
161(7) . . .
157(7) . . .
162(7) . . .
170(7) . . .
169(7) . . .
171(7) . . .
180(8) . . .
188(7) . . .
193(7) . . .
188(7) . . .
186(7) . . .
173(7) . . .
177(7) . . .
165(7) . . .
161(7) . . .
166(7) . . .
147(7) . . .
167(7) . . .
170(7) . . .
155(7) . . .
161(7) . . .
182(7) . . .
175(7) . . .
177(7) . . .
167(7) . . .
161(7) . . .
185(7) . . .
171(7) . . .
163(7) . . .
162(7) . . .
162(7) . . .
175(7) . . .
152(6) . . .
186(7) . . .
167(7) . . .
167(7) . . .
159(7) . . .
185(7) . . .
164(7) . . .
160(7) . . .
165(7) . . .
153(7) . . .
185(7) . . .
195(7) . . .
180(7) . . .
182(7) . . .
157(7) . . .
148(6) . . .
179(7) . . .
173(7) . . .
179(7) . . .
156(7) . . .
168(7) . . .
187(7) . . .
173(7) . . .
156(7) . . .
152(7) . . .
173(7) . . .
183(7) . . .
167(7) . . .
162(7) . . .
163(7) . . .
158(7) . . .
180(7) . . .
162(7) . . .
151(7) . . .
154(6) . . .
176(7) . . .
182(7) . . .
167(7) . . .
164(7) . . .
181(7) . . .
175(7) . . .
156(7) . . .
172(7) . . .
178(7) . . .
190(7) . . .
173(7) . . .
166(7) . . .
147(7) . . .
170(7) . . .
165(7) . . .
190(7) . . .
178(7) . . .
176(7) . . .
168(7) . . .
173(7) . . .
184(7) . . .
161(7) . . .
172(7) . . .
161(7) . . .
170(7) . . .
171(7) . . .
182(7) . . .
171(7) . . .
174(7) . . .
180(7) . . .
171(7) . . .
204(8) . . .
166(7) . . .
174(7) . . .
169(7) . . .
167(7) . . .
154(7) . . .
176(7) . . .
162(7) . . .
161(7) . . .
167(7) . . .
158(7) . . .
160(7) . . .
170(7) . . .
174(7) . . .
151(7) . . .
154(7) . . .
168(7) . . .
159(7) . . .
167(7) . . .
165(7) . . .
164(7) . . .
175(7) . . .
166(7) . . .
159(7) . . .
171(7) . . .
165(7) . . .
164(7) . . .
171(7) . . .
169(7) . . .
170(7) . . .
170(7) . . .
166(7) . . .
156(7) . . .
192(7) . . .
171(7) . . .
179(8) . . .
173(7) . . .
171(7) . . .
161(7) . . .
171(7) . . .
160(7) . . .
172(7) . . .
182(7) . . .
166(7) . . .
147(7) . . .
163(7) . . .
172(7) . . .
179(7) . . .
154(7) . . .
167(7) . . .
170(7) . . .
172(7) . . .
176(7) . . .
173(7) . . .
184(7) . . .
173(7) . . .
154(7) . . .
155(6) . . .
165(7) . . .
203(8) . . .
185(7) . . .
177(7) . . .
174(7) . . .
167(7) . . .
163(7) . . .
177(7) . . .
169(7) . . .
162(7) . . .
173(7) . . .
182(7) . . .
184(7) . . .
183(7) . . .
172(7) . . .
175(7) . . .
172(7) . . .
191(7) . . .
170(7) . . .
175(7) . . .
176(7) . . .
177(7) . . .
173(7) . . .
164(7) . . .
167(7) . . .
174(7) . . .
186(8) . . .
161(7) . . .
156(6) . . .
159(7) . . .
186(7) . . .
176(7) . . .
144(6) . . .
164(7) . . .
204(7) . . .
160(7) . . .
167(7) . . .
165(7) . . .
164(7) . . .
154(7) . . .
167(7) . . .
175(7) . . .
178(7) . . .
185(7) . . .
172(7) . . .
174(7) . . .
179(7) . . .
192(7) . . .
166(7) . . .
172(7) . . .
185(7) . . .
157(7) . . .
174(7) . . .
185(7) . . .
171(7) . . .
174(7) . . .
188(7) . . .
176(7) . . .
163(7) . . .
163(7) . . .
188(8) . . .
181(7) . . .
171(7) . . .
181(7) . . .
186(7) . . .
178(7) . . .
184(7) . . .
172(7) . . .
162(7) . . .
186(8) . . .
181(7) . . .
187(7) . . .
168(7) . . .
171(7) . . .
167(7) . . .
165(7) . . .
175(7) . . .
166(7) . . .
159(7) . . .
165(7) . . .
170(7) . . .
186(7) . . .
173(7) . . .
167(7) . . .
174(7) . . .
154(7) . . .
155(6) . . .
162(7) . . .
137(6) . . .
160(7) . . .
172(7) . . .
150(6) . . .
169(7) . . .
167(7) . . .
164(7) . . .
162(7) . . .
163(7) . . .
163(7) . . .
161(7) . . .
172(7) . . .
183(8) . . .
184(7) . . .
169(7) . . .
168(7) . . .
181(7) . . .
174(7) . . .
168(7) . . .
176(7) . . .
178(7) . . .
181(7) . . .
156(7) . . .
164(7) . . .
167(7) . . .
175(7) . . .
175(7) . . .
176(7) . . .
181(7) . . .
169(7) . . .
156(7) . . .
166(7) . . .
170(7) . . .
186(7) . . .
162(7) . . .
182(7) . . .
169(7) . . .
158(7) . . .
169(7) . . .
169(7) . . .
148(6) . . .
166(7) . . .
184(7) . . .
176(7) . . .
169(7) . . .
182(7) . . .
177(7) . . .
151(6) . . .
162(7) . . .
167(7) . . .
164(7) . . .
146(7) . . .
180(7) . . .
162(7) . . .
172(7) . . .
174(7) . . .
174(7) . . .
173(7) . . .
164(7) . . .
164(7) . . .
170(7) . . .
167(7) . . .
161(7) . . .
176(7) . . .
176(7) . . .
149(7) . . .
196(8) . . .
159(7) . . .
162(7) . . .
173(7) . . .
173(7) . . .
181(7) . . .
173(7) . . .
176(7) . . .
177(7) . . .
187(8) . . .
156(7) . . .
160(7) . . .
153(6) . . .
170(7) . . .
165(7) . . .
165(7) . . .
144(6) . . .
179(7) . . .
184(7) . . .
166(7) . . .
175(7) . . .
179(7) . . .
162(7) . . .
164(7) . . .
168(7) . . .
189(8) . . .
146(6) . . .
172(7) . . .
173(7) . . .
180(7) . . .
169(7) . . .
159(7) . . .
167(7) . . .
175(7) . . .
189(8) . . .
165(7) . . .
168(7) . . .
182(7) . . .
168(7) . . .
162(7) . . .
157(7) . . .
171(7) . . .
161(7) . . .
184(7) . . .
160(7) . . .
164(7) . . .
167(7) . . .
163(7) . . .
181(7) . . .
165(7) . . .
187(7) . . .
171(7) . . .
166(7) . . .
173(7) . . .
168(7) . . .
177(7) . . .
171(7) . . .
158(7) . . .
162(7) . . .
160(7) . . .
177(7) . . .
158(7) . . .
161(7) . . .
147(7) . . .
158(7) . . .
149(6) . . .
164(7) . . .
169(7) . . .
158(7) . . .
169(7) . . .
172(7) . . .
164(7) . . .
165(7) . . .
151(7) . . .
172(7) . . .
154(6) . . .
174(7) . . .
156(7) . . .
162(7) . . .
172(7) . . .
153(6) . . .
152(6) . . .
159(7) . . .
168(7) . . .
174(7) . . .
177(7) . . .
169(7) . . .
170(7) . . .
168(7) . . .
159(7) . . .
151(6) . . .
174(7) . . .
164(7) . . .
157(7) . . .
168(7) . . .
159(7) . . .
149(7) . . .
167(7) . . .
166(7) . . .
162(7) . . .
176(7) . . .
168(7) . . .
158(7) . . .
161(7) . . .
168(7) . . .
180(7) . . .
171(7) . . .
156(7) . . .
171(7) . . .
163(7) . . .
157(6) . . .
144(6) . . .
158(7) . . .
162(7) . . .
162(7) . . .
166(7) . . .
149(6) . . .
148(7) . . .
170(7) . . .
160(7) . . .
151(6) . . .
160(7) . . .
163(7) . . .
173(7) . . .
155(7) . . .
166(7) . . .
135(6) . . .
154(7) . . .
168(7) . . .
176(7) . . .
152(6) . . .
175(7) . . .
151(7) . . .
166(7) . . .
163(7) . . .
168(7) . . .
147(6) . . .
168(7) . . .
158(7) . . .
164(7) . . .
148(6) . . .
190(7) . . .
170(7) . . .
165(7) . . .
145(6) . . .
166(7) . . .
179(7) . . .
164(7) . . .
162(7) . . .
164(7) . . .
161(7) . . .
155(7) . . .
161(7) . . .
166(7) . . .
183(7) . . .
157(7) . . .
172(7) . . .
158(7) . . .
172(7) . . .
159(7) . . .
162(7) . . .
162(7) . . .
159(7) . . .
150(6) . . .
174(7) . . .
156(7) . . .
184(8) . . .
159(7) . . .
169(7) . . .
156(6) . . .
162(7) . . .
161(7) . . .
161(7) . . .
163(7) . . .
168(7) . . .
163(7) . . .
170(7) . . .
170(7) . . .
164(7) . . .
150(6) . . .
171(7) . . .
148(7) . . .
161(7) . . .
163(7) . . .
164(7) . . .
160(7) . . .
165(7) . . .
159(7) . . .
169(7) . . .
159(7) . . .
177(7) . . .
163(7) . . .
171(7) . . .
176(7) . . .
172(7) . . .
175(7) . . .
162(7) . . .
186(7) . . .
165(7) . . .
180(7) . . .
154(7) . . .
160(7) . . .
149(6) . . .
177(7) . . .
155(7) . . .
154(7) . . .
164(7) . . .
160(7) . . .
170(7) . . .
172(7) . . .
161(7) . . .
164(7) . . .
166(7) . . .
151(6) . . .
166(7) . . .
183(7) . . .
181(7) . . .
169(7) . . .
173(7) . . .
159(7) . . .
168(7) . . .
173(7) . . .
169(7) . . .
165(7) . . .
169(7) . . .
186(8) . . .
184(7) . . .
172(7) . . .
151(6) . . .
161(7) . . .
168(7) . . .
166(7) . . .
162(7) . . .
159(7) . . .
168(7) . . .
175(7) . . .
160(7) . . .
162(7) . . .
159(7) . . .
170(7) . . .
165(7) . . .
151(7) . . .
168(7) . . .
160(7) . . .
167(7) . . .
157(7) . . .
169(7) . . .
154(6) . . .
151(7) . . .
154(7) . . .
165(7) . . .
165(7) . . .
174(7) . . .
172(7) . . .
161(7) . . .
158(7) . . .
173(7) . . .
154(6) . . .
165(7) . . .
179(7) . . .
154(7) . . .
160(7) . . .
162(7) . . .
167(7) . . .
153(7) . . .
153(7) . . .
143(6) . . .
148(6) . . .
150(7) . . .
162(7) . . .
144(6) . . .
158(7) . . .
158(7) . . .
138(6) . . .
170(7) . . .
168(7) . . .
159(7) . . .
170(7) . . .
162(7) . . .
159(7) . . .
167(7) . . .
165(7) . . .
188(7) . . .
168(7) . . .
153(7) . . .
163(7) . . .
164(7) . . .
172(7) . . .
162(7) . . .
165(7) . . .
168(7) . . .
166(7) . . .
163(7) . . .
164(7) . . .
160(7) . . .
155(7) . . .
168(7) . . .
168(7) . . .
186(7) . . .
164(7) . . .
188(7) . . .
141(6) . . .
161(7) . . .
160(7) . . .
169(7) . . .
163(7) . . .
179(7) . . .
171(7) . . .
151(7) . . .
169(7) . . .
161(7) . . .
163(7) . . .
148(7) . . .
168(7) . . .
168(7) . . .
164(7) . . .
175(7) . . .
159(7) . . .
162(7) . . .
167(7) . . .
156(6) . . .
150(6) . . .
152(6) . . .
161(7) . . .
164(7) . . .
163(7) . . .
182(7) . . .
190(7) . . .
179(7) . . .
165(7) . . .
170(7) . . .
175(7) . . .
171(7) . . .
184(8) . . .
165(7) . . .
169(7) . . .
168(7) . . .
178(7) . . .
172(7) . . .
144(6) . . .
161(7) . . .
161(7) . . .
164(7) . . .
158(7) . . .
178(7) . . .
179(7) . . .
174(7) . . .
171(7) . . .
188(8) . . .
148(6) . . .
168(7) . . .
154(7) . . .
170(7) . . .
153(7) . . .
159(7) . . .
159(6) . . .
145(6) . . .
184(7) . . .
158(7) . . .
154(7) . . .
163(7) . . .
161(7) . . .
177(8) . . .
156(7) . . .
152(7) . . .
159(7) . . .
182(7) . . .
160(7) . . .
152(6) . . .
146(6) . . .
155(7) . . .
160(7) . . .
156(7) . . .
167(7) . . .
167(7) . . .
164(7) . . .
148(6) . . .
167(7) . . .
166(7) . . .
156(7) . . .
159(7) . . .
170(7) . . .
163(7) . . .
150(7) . . .
147(6) . . .
157(6) . . .
154(7) . . .
179(8) . . .
159(7) . . .
168(7) . . .
149(6) . . .
161(7) . . .
158(7) . . .
174(7) . . .
167(7) . . .
171(7) . . .
154(7) . . .
149(7) . . .
165(7) . . .
139(6) . . .
161(7) . . .
153(7) . . .
149(7) . . .
164(7) . . .
164(7) . . .
163(7) . . .
162(7) . . .
191(8) . . .
155(7) . . .
176(7) . . .
165(7) . . .
165(7) . . .
149(6) . . .
160(7) . . .
156(7) . . .
144(6) . . .
163(7) . . .
174(7) . . .
140(6) . . .
168(7) . . .
168(7) . . .
157(7) . . .
164(7) . . .
169(7) . . .
167(7) . . .
163(7) . . .
171(7) . . .
167(7) . . .
159(7) . . .
164(7) . . .
150(7) . . .
153(7) . . .
151(7) . . .
160(7) . . .
148(6) . . .
161(7) . . .
138(6) . . .
154(7) . . .
164(7) . . .
170(7) . . .
173(7) . . .
152(7) . . .
163(7) . . .
159(7) . . .
169(7) . . .
147(6) . . .
160(7) . . .
160(7) . . .
160(7) . . .
156(7) . . .
160(7) . . .
162(7) . . .
168(7) . . .
172(7) . . .
175(7) . . .
164(7) . . .
144(6) . . .
171(7) . . .
161(7) . . .
161(7) . . .
175(7) . . .
141(7) . . .
149(6) . . .
161(7) . . .
157(7) . . .
163(7) . . .
162(7) . . .
172(7) . . .
144(6) . . .
165(7) . . .
170(7) . . .
171(7) . . .
165(7) . . .
166(7) . . .
185(7) . . .
177(7) . . .
178(7) . . .
149(6) . . .
158(6) . . .
160(7) . . .
146(7) . . .
179(7) . . .
177(7) . . .
151(6) . . .
167(7) . . .
162(7) . . .
167(7) . . .
154(6) . . .
151(6) . . .
170(7) . . .
159(7) . . .
168(7) . . .
148(6) . . .
151(6) . . .
153(7) . . .
160(7) . . .
143(6) . . .
167(7) . . .
159(7) . . .
159(7) . . .
148(7) . . .
144(6) . . .
160(7) . . .
151(6) . . .
171(7) . . .
154(7) . . .
156(7) . . .
154(6) . . .
155(7) . . .
167(7) . . .
161(7) . . .
156(7) . . .
151(6) . . .
161(7) . . .
177(7) . . .
172(7) . . .
178(7) . . .
154(6) . . .
163(7) . . .
154(7) . . .
160(7) . . .
163(7) . . .
167(7) . . .
172(7) . . .
158(7) . . .
153(6) . . .
167(7) . . .
156(7) . . .
154(7) . . .
164(7) . . .
156(7) . . .
155(7) . . .
161(7) . . .
158(7) . . .
164(7) . . .
152(7) . . .
166(7) . . .
156(7) . . .
173(7) . . .
143(6) . . .
161(7) . . .
168(7) . . .
162(7) . . .
171(7) . . .
166(7) . . .
156(7) . . .
164(7) . . .
161(7) . . .
162(7) . . .
176(8) . . .
165(7) . . .
159(7) . . .
155(6) . . .
159(7) . . .
173(7) . . .
146(7) . . .
164(7) . . .
168(7) . . .
166(7) . . .
181(7) . . .
167(7) . . .
152(6) . . .
183(7) . . .
174(7) . . .
168(7) . . .
161(7) . . .
164(7) . . .
160(7) . . .
152(7) . . .
145(6) . . .
153(6) . . .
166(7) . . .
163(7) . . .
142(6) . . .
149(6) . . .
170(7) . . .
148(6) . . .
162(7) . . .
168(7) . . .
162(7) . . .
151(6) . . .
164(7) . . .
156(7) . . .
181(7) . . .
162(7) . . .
147(6) . . .
150(6) . . .
158(7) . . .
172(7) . . .
148(6) . . .
154(6) . . .
149(6) . . .
151(6) . . .
181(7) . . .
153(7) . . .
145(6) . . .
156(7) . . .
155(7) . . .
175(7) . . .
167(7) . . .
152(6) . . .
145(6) . . .
155(7) . . .
179(7) . . .
160(7) . . .
154(6) . . .
154(7) . . .
152(7) . . .
165(7) . . .
147(6) . . .
159(7) . . .
166(7) . . .
152(7) . . .
155(7) . . .
168(7) . . .
156(6) . . .
144(6) . . .
148(7) . . .
153(7) . . .
149(6) . . .
168(7) . . .
152(7) . . .
150(7) . . .
169(7) . . .
161(7) . . .
168(7) . . .
158(7) . . .
163(7) . . .
146(6) . . .
164(7) . . .
159(7) . . .
148(6) . . .
154(7) . . .
130(6) . . .
166(7) . . .
162(7) . . .
157(7) . . .
151(7) . . .
157(7) . . .
170(7) . . .
148(6) . . .
161(7) . . .
149(7) . . .
139(6) . . .
151(6) . . .
150(6) . . .
164(7) . . .
153(7) . . .
146(6) . . .
147(6) . . .
152(7) . . .
137(6) . . .
156(7) . . .
164(7) . . .
161(7) . . .
167(7) . . .
180(7) . . .
167(7) . . .
152(6) . . .
176(7) . . .
151(7) . . .
160(7) . . .
155(7) . . .
157(7) . . .
147(6) . . .
160(7) . . .
157(7) . . .
148(6) . . .
155(7) . . .
172(7) . . .
166(7) . . .
156(7) . . .
162(7) . . .
158(7) . . .
165(7) . . .
138(6) . . .
153(7) . . .
138(6) . . .
169(7) . . .
163(7) . . .
159(7) . . .
154(7) . . .
166(7) . . .
151(6) . . .
168(7) . . .
157(7) . . .
152(7) . . .
165(7) . . .
178(7) . . .
173(7) . . .
150(6) . . .
161(7) . . .
155(7) . . .
157(7) . . .
165(7) . . .
153(7) . . .
150(7) . . .
151(7) . . .
149(6) . . .
148(6) . . .
147(6) . . .
169(7) . . .
175(7) . . .
153(6) . . .
151(6) . . .
147(6) . . .
136(6) . . .
147(7) . . .
143(6) . . .
167(7) . . .
158(7) . . .
146(6) . . .
171(7) . . .
150(6) . . .
164(7) . . .
164(7) . . .
140(7) . . .
155(7) . . .
157(6) . . .
133(6) . . .
143(7) . . .
145(7) . . .
154(7) . . .
152(6) . . .
155(7) . . .
146(7) . . .
130(6) . . .
140(6) . . .
152(6) . . .
171(7) . . .
166(7) . . .
151(7) . . .
153(6) . . .
150(6) . . .
147(6) . . .
154(7) . . .
161(7) . . .
154(6) . . .
149(6) . . .
156(7) . . .
159(7) . . .
157(7) . . .
170(7) . . .
176(7) . . .
164(7) . . .
156(7) . . .
160(7) . . .
162(7) . . .
157(7) . . .
162(7) . . .
142(7) . . .
149(7) . . .
136(6) . . .
152(7) . . .
148(6) . . .
163(7) . . .
172(7) . . .
160(7) . . .
168(7) . . .
152(7) . . .
149(7) . . .
160(7) . . .
153(6) . . .
162(7) . . .
159(7) . . .
168(7) . . .
160(7) . . .
157(7) . . .
156(7) . . .
169(7) . . .
144(6) . . .
167(7) . . .
161(7) . . .
161(7) . . .
166(7) . . .
154(7) . . .
152(6) . . .
160(7) . . .
156(7) . . .
174(7) . . .
166(7) . . .
152(6) . . .
161(7) . . .
178(7) . . .
151(7) . . .
141(6) . . .
164(7) . . .
158(7) . . .
159(7) . . .
166(7) . . .
156(7) . . .
180(7) . . .
149(6) . . .
144(6) . . .
153(7) . . .
149(7) . . .
139(6) . . .
150(6) . . .
139(6) . . .
167(7) . . .
167(7) . . .
152(6) . . .
158(7) . . .
147(7) . . .
160(7) . . .
158(7) . . .
161(7) . . .
149(6) . . .
150(7) . . .
143(6) . . .
145(6) . . .
165(7) . . .
148(7) . . .
174(7) . . .
183(7) . . .
162(7) . . .
149(6) . . .
156(7) . . .
170(7) . . .
148(7) . . .
158(7) . . .
157(7) . . .
147(7) . . .
153(7) . . .
150(7) . . .
171(7) . . .
157(7) . . .
148(6) . . .
164(7) . . .
164(7) . . .
155(7) . . .
144(6) . . .
164(7) . . .
156(7) . . .
171(7) . . .
172(7) . . .
180(7) . . .
165(7) . . .
166(7) . . .
138(6) . . .
162(7) . . .
170(7) . . .
173(7) . . .
170(7) . . .
162(7) . . .
177(7) . . .
166(7) . . .
150(6) . . .
167(7) . . .
186(7) . . .
178(7) . . .
161(7) . . .
167(7) . . .
141(6) . . .
148(6) . . .
171(7) . . .
174(7) . . .
163(7) . . .
162(7) . . .
164(7) . . .
158(7) . . .
182(7) . . .
163(7) . . .
156(7) . . .
171(7) . . .
158(7) . . .
157(7) . . .
165(7) . . .
167(7) . . .
160(7) . . .
133(6) . . .
161(7) . . .
151(7) . . .
161(7) . . .
144(6) . . .
149(6) . . .
156(7) . . .
161(7) . . .
164(7) . . .
159(6) . . .
164(7) . . .
155(7) . . .
143(7) . . .
175(7) . . .
147(6) . . .
143(6) . . .
161(7) . . .
166(7) . . .
169(7) . . .
161(7) . . .
155(7) . . .
150(6) . . .
160(7) . . .
164(7) . . .
159(7) . . .
171(7) . . .
166(7) . . .
168(7) . . .
171(7) . . .
167(7) . . .
144(6) . . .
173(7) . . .
175(7) . . .
157(7) . . .
169(7) . . .
178(7) . . .
192(7) . . .
172(7) . . .
178(7) . . .
160(7) . . .
181(7) . . .
198(8) . . .
195(8) . . .
185(7) . . .
182(7) . . .
183(7) . . .
192(8) . . .
180(7) . . .
188(7) . . .
180(7) . . .
177(7) . . .
174(7) . . .
169(7) . . .
164(7) . . .
178(7) . . .
184(7) . . .
175(7) . . .
175(7) . . .
176(7) . . .
171(7) . . .
168(7) . . .
171(7) . . .
189(7) . . .
169(7) . . .
167(7) . . .
162(7) . . .
167(7) . . .
168(7) . . .
156(6) . . .
174(7) . . .
179(7) . . .
174(7) . . .
179(7) . . .
175(7) . . .
168(7) . . .
183(7) . . .
179(7) . . .
178(7) . . .
172(7) . . .
151(7) . . .
167(7) . . .
173(7) . . .
163(7) . . .
166(7) . . .
176(7) . . .
176(7) . . .
163(7) . . .
178(7) . . .
179(7) . . .
166(7) . . .
171(7) . . .
181(7) . . .
180(7) . . .
157(7) . . .
157(7) . . .
166(7) . . .
169(7) . . .
157(7) . . .
172(7) . . .
161(7) . . .
156(7) . . .
177(7) . . .
173(7) . . .
184(7) . . .
161(7) . . .
162(7) . . .
172(7) . . .
155(7) . . .
183(7) . . .
180(7) . . .
171(7) . . .
170(7) . . .
193(7) . . .
168(7) . . .
176(7) . . .
156(7) . . .
168(7) . . .
165(7) . . .
158(6) . . .
172(7) . . .
164(7) . . .
180(7) . . .
144(6) . . .
150(6) . . .
144(6) . . .
173(7) . . .
158(7) . . .
167(7) . . .
172(7) . . .
174(7) . . .
160(7) . . .
158(7) . . .
154(6) . . .
165(7) . . .
155(7) . . .
154(7) . . .
154(7) . . .
148(6) . . .
156(7) . . .
163(7) . . .
146(6) . . .
156(7) . . .
138(6) . . .
169(7) . . .
158(7) . . .
170(7) . . .
158(7) . . .
169(7) . . .
149(7) . . .
156(7) . . .
162(7) . . .
169(7) . . .
155(6) . . .
151(7) . . .
166(7) . . .
152(7) . . .
154(6) . . .
160(7) . . .
161(7) . . .
171(7) . . .
150(6) . . .
154(6) . . .
172(7) . . .
162(7) . . .
142(7) . . .
147(7) . . .
141(6) . . .
154(7) . . .
164(7) . . .
173(7) . . .
155(7) . . .
148(6) . . .
137(6) . . .
166(7) . . .
163(7) . . .
155(7) . . .
167(7) . . .
169(7) . . .
165(7) . . .
154(7) . . .
142(6) . . .
156(7) . . .
148(6) . . .
141(6) . . .
149(7) . . .
166(7) . . .
161(7) . . .
155(7) . . .
146(6) . . .
166(7) . . .
162(7) . . .
157(7) . . .
145(6) . . .
146(7) . . .
148(7) . . .
148(6) . . .
156(6) . . .
158(7) . . .
151(7) . . .
159(7) . . .
153(7) . . .
143(6) . . .
155(7) . . .
153(7) . . .
153(7) . . .
156(7) . . .
162(7) . . .
169(7) . . .
171(7) . . .
161(7) . . .
151(6) . . .
166(7) . . .
158(7) . . .
163(7) . . .
176(7) . . .
158(7) . . .
162(7) . . .
167(7) . . .
157(7) . . .
148(7) . . .
167(7) . . .
163(7) . . .
188(8) . . .
153(7) . . .
156(7) . . .
164(7) . . .
169(7) . . .
180(7) . . .
156(7) . . .
152(7) . . .
146(6) . . .
173(7) . . .
169(7) . . .
155(7) . . .
161(7) . . .
160(7) . . .
146(6) . . .
146(7) . . .
150(7) . . .
163(7) . . .
173(7) . . .
151(6) . . .
156(7) . . .
160(7) . . .
170(7) . . .
174(7) . . .
160(7) . . .
172(7) . . .
162(7) . . .
168(7) . . .
166(7) . . .
164(7) . . .
163(7) . . .
156(7) . . .
163(7) . . .
157(7) . . .
178(7) . . .
168(7) . . .
158(7) . . .
170(7) . . .
168(7) . . .
159(7) . . .
166(7) . . .
165(7) . . .
168(7) . . .
174(7) . . .
176(7) . . .
169(7) . . .
159(7) . . .
144(6) . . .
167(7) . . .
159(7) . . .
163(7) . . .
165(7) . . .
165(7) . . .
146(6) . . .
171(7) . . .
162(7) . . .
149(7) . . .
158(7) . . .
172(7) . . .
159(7) . . .
175(7) . . .
166(7) . . .
159(7) . . .
165(7) . . .
149(7) . . .
153(7) . . .
142(6) . . .
155(6) . . .
163(7) . . .
155(7) . . .
166(7) . . .
167(7) . . .
169(7) . . .
158(7) . . .
147(6) . . .
167(7) . . .
173(7) . . .
157(6) . . .
159(7) . . .
161(7) . . .
153(7) . . .
142(6) . . .
179(7) . . .
162(7) . . .
165(7) . . .
150(7) . . .
162(7) . . .
156(6) . . .
158(7) . . .
155(7) . . .
164(7) . . .
157(6) . . .
178(7) . . .
162(7) . . .
146(7) . . .
160(7) . . .
174(7) . . .
154(6) . . .
170(7) . . .
172(7) . . .
174(7) . . .
158(7) . . .
159(7) . . .
156(7) . . .
168(7) . . .
172(7) . . .
145(6) . . .
177(7) . . .
161(7) . . .
146(7) . . .
157(7) . . .
151(6) . . .
164(7) . . .
165(7) . . .
173(7) . . .
158(7) . . .
149(6) . . .
142(6) . . .
165(7) . . .
167(7) . . .
152(7) . . .
164(7) . . .
143(6) . . .
161(7) . . .
172(7) . . .
163(7) . . .
161(7) . . .
168(7) . . .
143(7) . . .
144(7) . . .
162(7) . . .
150(6) . . .
154(7) . . .
154(7) . . .
148(6) . . .
155(6) . . .
164(7) . . .
148(6) . . .
166(7) . . .
156(7) . . .
168(7) . . .
149(6) . . .
156(7) . . .
149(7) . . .
160(7) . . .
170(7) . . .
165(7) . . .
163(7) . . .
147(7) . . .
162(7) . . .
149(6) . . .
123(6) . . .
147(7) . . .
153(7) . . .
154(7) . . .
172(7) . . .
178(7) . . .
154(7) . . .
151(7) . . .
156(7) . . .
161(7) . . .
157(7) . . .
166(7) . . .
142(6) . . .
153(7) . . .
146(6) . . .
140(6) . . .
156(7) . . .
173(7) . . .
158(7) . . .
150(6) . . .
157(7) . . .
144(6) . . .
155(7) . . .
160(7) . . .
149(6) . . .
154(7) . . .
160(7) . . .
137(6) . . .
152(6) . . .
145(6) . . .
163(7) . . .
145(7) . . .
140(6) . . .
161(7) . . .
160(7) . . .
139(6) . . .
156(7) . . .
165(7) . . .
158(7) . . .
142(6) . . .
162(7) . . .
172(7) . . .
153(7) . . .
147(6) . . .
151(6) . . .
172(7) . . .
153(7) . . .
153(7) . . .
168(7) . . .
166(7) . . .
174(7) . . .
149(7) . . .
173(7) . . .
138(6) . . .
158(7) . . .
153(7) . . .
154(7) . . .
145(6) . . .
133(6) . . .
151(7) . . .
163(7) . . .
169(7) . . .
166(7) . . .
167(7) . . .
158(7) . . .
147(6) . . .
167(7) . . .
149(6) . . .
156(7) . . .
157(7) . . .
174(7) . . .
164(7) . . .
172(7) . . .
139(6) . . .
169(7) . . .
134(6) . . .
149(7) . . .
135(6) . . .
157(7) . . .
153(7) . . .
147(7) . . .
152(6) . . .
163(7) . . .
164(7) . . .
147(7) . . .
154(7) . . .
168(7) . . .
157(6) . . .
158(7) . . .
160(7) . . .
160(7) . . .
160(7) . . .
149(6) . . .
143(6) . . .
152(7) . . .
160(7) . . .
169(7) . . .
152(6) . . .
162(7) . . .
146(7) . . .
164(7) . . .
150(7) . . .
162(7) . . .
155(7) . . .
147(6) . . .
168(7) . . .
154(7) . . .
168(7) . . .
180(7) . . .
154(7) . . .
143(6) . . .
162(7) . . .
167(7) . . .
155(7) . . .
136(6) . . .
166(7) . . .
157(7) . . .
167(7) . . .
155(7) . . .
151(7) . . .
153(7) . . .
147(6) . . .
153(6) . . .
146(6) . . .
155(7) . . .
149(7) . . .
163(7) . . .
149(6) . . .
161(7) . . .
150(7) . . .
164(7) . . .
155(7) . . .
160(7) . . .
151(7) . . .
163(7) . . .
132(6) . . .
143(6) . . .
141(6) . . .
165(7) . . .
154(7) . . .
164(7) . . .
146(6) . . .
147(6) . . .
155(7) . . .
146(7) . . .
155(7) . . .
148(6) . . .
158(7) . . .
155(7) . . .
158(7) . . .
170(7) . . .
130(6) . . .
155(7) . . .
154(7) . . .
162(7) . . .
140(6) . . .
168(7) . . .
170(7) . . .
160(7) . . .
139(6) . . .
141(7) . . .
151(6) . . .
179(7) . . .
163(7) . . .
146(6) . . .
140(6) . . .
148(6) . . .
158(7) . . .
147(6) . . .
159(7) . . .
151(7) . . .
163(7) . . .
151(7) . . .
156(7) . . .
156(7) . . .
158(7) . . .
146(6) . . .
147(6) . . .
159(7) . . .
146(7) . . .
147(6) . . .
162(7) . . .
145(7) . . .
154(7) . . .
148(6) . . .
155(7) . . .
152(6) . . .
148(7) . . .
161(7) . . .
167(7) . . .
158(7) . . .
157(6) . . .
160(7) . . .
146(7) . . .
163(7) . . .
188(7) . . .
161(7) . . .
158(7) . . .
160(7) . . .
158(7) . . .
147(6) . . .
153(6) . . .
144(6) . . .
149(7) . . .
157(7) . . .
155(6) . . .
165(7) . . .
157(7) . . .
159(7) . . .
151(7) . . .
155(7) . . .
148(7) . . .
150(6) . . .
159(7) . . .
160(7) . . .
136(6) . . .
147(6) . . .
152(6) . . .
148(7) . . .
145(6) . . .
155(7) . . .
142(6) . . .
149(6) . . .
133(6) . . .
143(6) . . .
148(6) . . .
149(6) . . .
156(6) . . .
165(7) . . .
166(7) . . .
157(7) . . .
156(6) . . .
146(6) . . .
145(7) . . .
168(7) . . .
142(6) . . .
156(7) . . .
145(6) . . .
155(7) . . .
169(7) . . .
159(7) . . .
141(6) . . .
144(6) . . .
160(7) . . .
151(7) . . .
135(6) . . .
161(7) . . .
162(7) . . .
149(7) . . .
145(7) . . .
137(6) . . .
131(6) . . .
160(7) . . .
142(6) . . .
154(7) . . .
151(7) . . .
145(6) . . .
156(7) . . .
153(7) . . .
153(7) . . .
148(7) . . .
143(6) . . .
153(7) . . .
161(7) . . .
144(6) . . .
153(7) . . .
142(6) . . .
142(6) . . .
147(7) . . .
149(7) . . .
137(6) . . .
159(6) . . .
143(6) . . .
145(7) . . .
132(6) . . .
146(6) . . .
149(6) . . .
154(7) . . .
146(6) . . .
155(7) . . .
149(6) . . .
136(6) . . .
136(6) . . .
136(6) . . .
141(6) . . .
135(6) . . .
151(6) . . .
149(7) . . .
140(7) . . .
145(7) . . .
147(6) . . .
146(6) . . .
155(7) . . .
155(7) . . .
143(6) . . .
161(7) . . .
152(6) . . .
152(7) . . .
149(7) . . .
158(7) . . .
139(6) . . .
134(6) . . .
142(6) . . .
143(6) . . .
145(6) . . .
147(6) . . .
164(7) . . .
161(7) . . .
156(7) . . .
150(7) . . .
140(6) . . .
151(6) . . .
167(7) . . .
156(7) . . .
166(7) . . .
155(6) . . .
159(7) . . .
145(6) . . .
148(7) . . .
147(6) . . .
159(7) . . .
167(7) . . .
165(7) . . .
166(7) . . .
157(7) . . .
150(6) . . .
140(6) . . .
132(6) . . .
139(6) . . .
160(7) . . .
147(6) . . .
161(7) . . .
155(7) . . .
152(7) . . .
158(7) . . .
149(6) . . .
150(7) . . .
164(7) . . .
163(7) . . .
153(6) . . .
170(7) . . .
161(7) . . .
169(7) . . .
163(7) . . .
136(6) . . .
140(6) . . .
146(7) . . .
131(6) . . .
153(7) . . .
150(6) . . .
145(6) . . .
166(7) . . .
159(7) . . .
146(7) . . .
140(6) . . .
154(6) . . .
155(7) . . .
158(7) . . .
148(6) . . .
127(6) . . .
139(6) . . .
160(7) . . .
148(7) . . .
147(7) . . .
143(6) . . .
139(6) . . .
144(6) . . .
143(6) . . .
146(6) . . .
153(6) . . .
143(6) . . .
150(7) . . .
149(7) . . .
151(7) . . .
150(6) . . .
155(7) . . .
146(7) . . .
168(7) . . .
147(6) . . .
134(6) . . .
153(7) . . .
135(6) . . .
150(7) . . .
156(7) . . .
149(6) . . .
151(7) . . .
136(6) . . .
139(6) . . .
133(6) . . .
133(6) . . .
149(7) . . .
149(7) . . .
132(6) . . .
141(6) . . .
141(6) . . .
131(6) . . .
132(6) . . .
117(6) . . .
140(6) . . .
130(6) . . .
146(7) . . .
136(6) . . .
151(7) . . .
143(6) . . .
165(7) . . .
149(7) . . .
149(7) . . .
138(6) . . .
150(6) . . .
143(6) . . .
139(6) . . .
140(7) . . .
149(7) . . .
145(6) . . .
148(6) . . .
160(7) . . .
161(7) . . .
151(7) . . .
139(6) . . .
147(6) . . .
148(7) . . .
164(7) . . .
158(7) . . .
151(6) . . .
161(7) . . .
154(7) . . .
144(6) . . .
153(6) . . .
150(6) . . .
132(6) . . .
140(6) . . .
155(7) . . .
144(6) . . .
148(6) . . .
160(7) . . .
147(7) . . .
138(6) . . .
157(7) . . .
152(6) . . .
141(7) . . .
148(7) . . .
151(7) . . .
145(6) . . .
142(6) . . .
144(6) . . .
137(6) . . .
142(6) . . .
151(6) . . .
156(6) . . .
137(6) . . .
141(7) . . .
152(7) . . .
147(6) . . .
150(6) . . .
153(6) . . .
145(7) . . .
135(6) . . .
145(6) . . .
155(7) . . .
163(7) . . .
148(7) . . .
138(6) . . .
128(6) . . .
151(6) . . .
158(7) . . .
141(7) . . .
133(6) . . .
139(6) . . .
139(6) . . .
145(7) . . .
147(7) . . .
133(6) . . .
146(6) . . .
151(7) . . .
139(6) . . .
129(6) . . .
160(7) . . .
147(6) . . .
134(6) . . .
144(7) . . .
130(6) . . .
151(7) . . .
117(6) . . .
130(6) . . .
145(7) . . .
136(6) . . .
150(6) . . .
137(6) . . .
149(6) . . .
136(6) . . .
167(7) . . .
141(6) . . .
161(7) . . .
148(6) . . .
141(7) . . .
145(7) . . .
133(6) . . .
157(7) . . .
139(6) . . .
135(6) . . .
146(6) . . .
152(6) . . .
149(6) . . .
128(6) . . .
154(7) . . .
159(7) . . .
139(6) . . .
145(6) . . .
145(6) . . .
136(6) . . .
134(6) . . .
135(6) . . .
141(6) . . .
158(7) . . .
152(7) . . .
124(6) . . .
163(7) . . .
159(7) . . .
140(6) . . .
145(6) . . .
143(6) . . .
140(6) . . .
132(6) . . .
138(7) . . .
152(7) . . .
140(6) . . .
161(7) . . .
162(7) . . .
146(7) . . .
142(6) . . .
144(6) . . .
169(7) . . .
150(7) . . .
150(7) . . .
144(6) . . .
153(7) . . .
137(6) . . .
135(6) . . .
140(7) . . .
140(6) . . .
154(7) . . .
141(6) . . .
152(7) . . .
141(6) . . .
155(7) . . .
146(6) . . .
142(6) . . .
123(6) . . .
150(7) . . .
121(6) . . .
131(6) . . .
156(6) . . .
150(7) . . .
144(6) . . .
163(7) . . .
155(7) . . .
139(6) . . .
134(6) . . .
157(7) . . .
144(7) . . .
150(6) . . .
142(6) . . .
140(6) . . .
143(7) . . .
141(6) . . .
161(7) . . .
137(6) . . .
148(7) . . .
162(7) . . .
138(6) . . .
132(6) . . .
134(6) . . .
154(7) . . .
163(7) . . .
162(7) . . .
167(7) . . .
151(7) . . .
144(7) . . .
139(6) . . .
135(6) . . .
141(6) . . .
162(7) . . .
158(7) . . .
144(7) . . .
131(6) . . .
150(6) . . .
145(6) . . .
131(6) . . .
137(6) . . .
148(6) . . .
143(6) . . .
149(6) . . .
139(7) . . .
143(6) . . .
138(6) . . .
144(6) . . .
137(6) . . .
151(7) . . .
152(6) . . .
142(6) . . .
140(6) . . .
154(7) . . .
128(6) . . .
140(6) . . .
148(6) . . .
145(6) . . .
156(7) . . .
137(6) . . .
142(6) . . .
154(6) . . .
147(6) . . .
148(7) . . .
137(6) . . .
148(6) . . .
154(6) . . .
146(6) . . .
141(6) . . .
137(6) . . .
170(7) . . .
138(6) . . .
135(6) . . .
129(6) . . .
158(7) . . .
135(6) . . .
135(6) . . .
147(7) . . .
135(6) . . .
156(7) . . .
151(6) . . .
146(6) . . .
157(7) . . .
151(7) . . .
152(7) . . .
145(6) . . .
137(6) . . .
132(6) . . .
146(7) . . .
152(7) . . .
140(6) . . .
142(6) . . .
143(6) . . .
156(7) . . .
160(7) . . .
145(6) . . .
152(6) . . .
140(6) . . .
144(7) . . .
142(6) . . .
154(6) . . .
149(7) . . .
154(7) . . .
155(7) . . .
153(7) . . .
156(7) . . .
155(6) . . .
140(7) . . .
149(7) . . .
144(6) . . .
170(7) . . .
163(7) . . .
153(7) . . .
139(6) . . .
153(7) . . .
143(6) . . .
143(6) . . .
157(7) . . .
156(7) . . .
137(7) . . .
155(6) . . .
151(7) . . .
156(7) . . .
148(7) . . .
140(6) . . .
151(6) . . .
161(7) . . .
155(7) . . .
140(6) . . .
153(7) . . .
160(7) . . .
134(6) . . .
147(7) . . .
137(6) . . .
141(6) . . .
144(6) . . .
157(7) . . .
144(7) . . .
166(7) . . .
138(6) . . .
161(7) . . .
150(6) . . .
152(7) . . .
130(6) . . .
163(7) . . .
147(6) . . .
148(7) . . .
150(7) . . .
147(6) . . .
150(6) . . .
162(7) . . .
150(7) . . .
152(7) . . .
154(7) . . .
139(6) . . .
146(6) . . .
152(7) . . .
154(7) . . .
139(6) . . .
163(7) . . .
142(6) . . .
149(7) . . .
144(6) . . .
139(6) . . .
161(7) . . .
148(6) . . .
151(6) . . .
151(7) . . .
161(7) . . .
153(6) . . .
151(6) . . .
172(7) . . .
149(7) . . .
142(6) . . .
137(6) . . .
150(7) . . .
168(7) . . .
149(7) . . .
156(7) . . .
139(6) . . .
165(7) . . .
135(6) . . .
146(7) . . .
161(7) . . .
138(6) . . .
160(7) . . .
155(7) . . .
164(7) . . .
166(7) . . .
166(7) . . .
168(7) . . .
169(7) . . .
168(7) . . .
165(7) . . .
194(7) . . .
186(8) . . .
178(8) . . .
172(7) . . .
157(7) . . .
152(6) . . .
166(7) . . .
162(7) . . .
164(7) . . .
161(7) . . .
141(6) . . .
171(7) . . .
160(7) . . .
156(7) . . .
151(6) . . .
161(7) . . .
160(7) . . .
162(7) . . .
130(6) . . .
157(6) . . .
154(6) . . .
125(6) . . .
162(7) . . .
162(7) . . .
136(6) . . .
143(6) . . .
167(7) . . .
157(7) . . .
161(7) . . .
171(7) . . .
155(7) . . .
151(7) . . .
153(7) . . .
153(6) . . .
146(6) . . .
156(7) . . .
154(7) . . .
143(6) . . .
153(6) . . .
160(7) . . .
158(7) . . .
144(7) . . .
149(7) . . .
151(6) . . .
174(7) . . .
154(7) . . .
157(7) . . .
145(6) . . .
160(7) . . .
147(6) . . .
144(6) . . .
153(7) . . .
159(7) . . .
152(7) . . .
173(7) . . .
155(7) . . .
143(7) . . .
141(6) . . .
159(7) . . .
150(6) . . .
159(7) . . .
140(7) . . .
146(7) . . .
157(6) . . .
138(6) . . .
158(7) . . .
144(6) . . .
154(7) . . .
150(6) . . .
170(7) . . .
147(6) . . .
139(6) . . .
152(7) . . .
152(6) . . .
152(7) . . .
156(7) . . .
164(7) . . .
165(7) . . .
165(7) . . .
172(7) . . .
175(7) . . .
161(7) . . .
165(7) . . .
159(7) . . .
163(7) . . .
152(7) . . .
136(6) . . .
164(7) . . .
164(7) . . .
164(7) . . .
164(7) . . .
157(7) . . .
152(7) . . .
149(6) . . .
159(7) . . .
160(7) . . .
146(6) . . .
159(7) . . .
171(7) . . .
157(7) . . .
142(6) . . .
164(7) . . .
155(6) . . .
182(7) . . .
165(7) . . .
169(7) . . .
155(7) . . .
185(7) . . .
162(7) . . .
154(6) . . .
160(7) . . .
159(7) . . .
164(7) . . .
157(7) . . .
151(7) . . .
157(7) . . .
171(7) . . .
164(7) . . .
138(6) . . .
156(7) . . .
139(6) . . .
149(7) . . .
176(7) . . .
156(6) . . .
159(7) . . .
136(6) . . .
154(7) . . .
157(6) . . .
152(7) . . .
153(7) . . .
162(7) . . .
152(7) . . .
151(6) . . .
138(6) . . .
161(7) . . .
146(7) . . .
149(6) . . .
165(7) . . .
144(7) . . .
150(7) . . .
145(6) . . .
135(6) . . .
154(6) . . .
152(7) . . .
141(7) . . .
152(7) . . .
154(7) . . .
154(6) . . .
151(6) . . .
165(7) . . .
143(6) . . .
163(7) . . .
155(6) . . .
153(7) . . .
132(6) . . .
143(6) . . .
144(6) . . .
151(6) . . .
139(6) . . .
155(7) . . .
147(6) . . .
140(6) . . .
138(6) . . .
144(6) . . .
158(7) . . .
150(6) . . .
154(6) . . .
143(6) . . .
170(7) . . .
156(7) . . .
165(7) . . .
145(6) . . .
139(6) . . .
124(6) . . .
131(6) . . .
148(7) . . .
142(6) . . .
148(6) . . .
163(7) . . .
161(7) . . .
155(7) . . .
152(6) . . .
146(6) . . .
151(7) . . .
145(6) . . .
157(7) . . .
152(6) . . .
141(6) . . .
145(7) . . .
152(7) . . .
162(7) . . .
141(6) . . .
154(7) . . .
160(7) . . .
137(6) . . .
151(7) . . .
153(6) . . .
160(7) . . .
146(7) . . .
145(7) . . .
148(6) . . .
165(7) . . .
179(7) . . .
165(7) . . .
136(6) . . .
143(6) . . .
151(6) . . .
141(6) . . .
144(7) . . .
147(7) . . .
151(6) . . .
145(6) . . .
161(7) . . .
160(7) . . .
152(6) . . .
154(6) . . .
152(6) . . .
167(7) . . .
160(7) . . .
151(7) . . .
157(6) . . .
179(7) . . .
144(6) . . .
159(7) . . .
159(7) . . .
153(6) . . .
144(6) . . .
162(7) . . .
152(7) . . .
153(7) . . .
157(7) . . .
143(6) . . .
145(7) . . .
154(7) . . .
147(6) . . .
174(7) . . .
165(7) . . .
164(7) . . .
153(7) . . .
150(6) . . .
160(7) . . .
157(7) . . .
152(7) . . .
155(7) . . .
143(6) . . .
131(6) . . .
145(6) . . .
147(7) . . .
147(6) . . .
140(6) . . .
138(6) . . .
149(6) . . .
173(7) . . .
153(7) . . .
153(6) . . .
145(6) . . .
138(6) . . .
152(7) . . .
154(7) . . .
144(6) . . .
153(6) . . .
151(7) . . .
148(7) . . .
161(7) . . .
161(7) . . .
153(7) . . .
155(7) . . .
160(7) . . .
142(6) . . .
138(6) . . .
154(7) . . .
157(7) . . .
163(7) . . .
155(7) . . .
162(7) . . .
152(7) . . .
150(7) . . .
142(6) . . .
142(6) . . .
161(7) . . .
146(6) . . .
147(6) . . .
159(7) . . .
171(7) . . .
147(6) . . .
151(7) . . .
143(6) . . .
137(6) . . .
142(6) . . .
141(6) . . .
144(7) . . .
152(7) . . .
133(6) . . .
142(6) . . .
141(6) . . .
142(6) . . .
150(7) . . .
145(6) . . .
149(6) . . .
138(6) . . .
144(6) . . .
141(7) . . .
152(7) . . .
137(6) . . .
144(6) . . .
160(7) . . .
151(7) . . .
148(7) . . .
129(6) . . .
148(6) . . .
145(6) . . .
154(7) . . .
147(6) . . .
151(6) . . .
175(7) . . .
151(7) . . .
137(6) . . .
148(6) . . .
174(7) . . .
153(6) . . .
153(7) . . .
149(7) . . .
148(7) . . .
142(6) . . .
136(6) . . .
155(6) . . .
158(7) . . .
150(6) . . .
163(7) . . .
161(7) . . .
146(7) . . .
135(6) . . .
146(6) . . .
139(6) . . .
159(7) . . .
158(7) . . .
141(6) . . .
143(6) . . .
147(6) . . .
161(7) . . .
161(7) . . .
143(6) . . .
139(6) . . .
133(6) . . .
144(6) . . .
166(7) . . .
141(6) . . .
150(7) . . .
167(7) . . .
153(7) . . .
150(7) . . .
151(7) . . .
143(6) . . .
153(6) . . .
139(6) . . .
163(7) . . .
170(7) . . .
151(6) . . .
156(7) . . .
153(7) . . .
143(7) . . .
144(6) . . .
143(6) . . .
140(6) . . .
155(7) . . .
160(7) . . .
149(7) . . .
158(7) . . .
157(7) . . .
149(7) . . .
149(7) . . .
146(7) . . .
149(6) . . .
148(6) . . .
145(6) . . .
151(7) . . .
145(7) . . .
146(6) . . .
153(7) . . .
139(7) . . .
147(7) . . .
150(6) . . .
133(6) . . .
134(6) . . .
131(6) . . .
157(7) . . .
142(6) . . .
155(6) . . .
135(6) . . .
150(7) . . .
156(7) . . .
150(6) . . .
145(6) . . .
149(7) . . .
153(7) . . .
145(6) . . .
149(6) . . .
153(6) . . .
153(7) . . .
144(7) . . .
129(6) . . .
141(6) . . .
141(6) . . .
157(7) . . .
163(7) . . .
146(6) . . .
150(6) . . .
155(6) . . .
127(6) . . .
154(7) . . .
135(6) . . .
145(6) . . .
157(6) . . .
138(6) . . .
137(6) . . .
132(6) . . .
151(6) . . .
159(7) . . .
154(7) . . .
145(7) . . .
149(7) . . .
143(6) . . .
143(6) . . .
141(6) . . .
160(7) . . .
148(6) . . .
141(6) . . .
139(6) . . .
138(6) . . .
135(6) . . .
141(6) . . .
143(6) . . .
141(6) . . .
145(7) . . .
148(6) . . .
148(6) . . .
156(6) . . .
147(7) . . .
139(6) . . .
141(6) . . .
158(7) . . .
138(6) . . .
155(7) . . .
155(7) . . .
142(6) . . .
153(7) . . .
150(6) . . .
155(7) . . .
139(7) . . .
136(6) . . .
147(6) . . .
167(7) . . .
157(7) . . .
143(7) . . .
144(6) . . .
133(6) . . .
164(7) . . .
141(6) . . .
158(7) . . .
138(6) . . .
158(6) . . .
155(6) . . .
158(7) . . .
148(7) . . .
141(6) . . .
146(6) . . .
143(6) . . .
160(7) . . .
154(7) . . .
163(7) . . .
147(6) . . .
146(6) . . .
136(6) . . .
149(7) . . .
144(6) . . .
146(6) . . .
155(7) . . .
152(7) . . .
155(7) . . .
156(7) . . .
141(6) . . .
150(7) . . .
151(7) . . .
164(7) . . .
160(7) . . .
146(6) . . .
143(6) . . .
159(7) . . .
145(7) . . .
123(6) . . .
140(6) . . .
152(7) . . .
139(6) . . .
140(6) . . .
141(6) . . .
148(6) . . .
159(7) . . .
152(7) . . .
139(6) . . .
140(6) . . .
135(6) . . .
141(6) . . .
137(6) . . .
144(6) . . .
165(7) . . .
128(6) . . .
157(7) . . .
148(7) . . .
141(6) . . .
148(6) . . .
136(6) . . .
152(6) . . .
161(7) . . .
146(7) . . .
150(6) . . .
132(6) . . .
151(7) . . .
148(7) . . .
155(7) . . .
165(7) . . .
166(7) . . .
142(6) . . .
159(7) . . .
158(7) . . .
163(7) . . .
145(6) . . .
153(7) . . .
140(6) . . .
141(6) . . .
150(6) . . .
168(7) . . .
147(6) . . .
159(7) . . .
153(7) . . .
153(6) . . .
161(7) . . .
154(7) . . .
162(7) . . .
152(7) . . .
128(6) . . .
139(6) . . .
177(7) . . .
146(7) . . .
141(6) . . .
147(6) . . .
170(7) . . .
146(7) . . .
162(7) . . .
145(6) . . .
128(6) . . .
156(7) . . .
169(7) . . .
164(7) . . .
164(7) . . .
155(6) . . .
158(7) . . .
154(7) . . .
168(7) . . .
136(6) . . .
148(6) . . .
136(6) . . .
139(6) . . .
145(6) . . .
159(7) . . .
156(7) . . .
149(6) . . .
172(7) . . .
143(6) . . .
148(6) . . .
142(6) . . .
148(7) . . .
152(7) . . .
159(7) . . .
177(7) . . .
143(6) . . .
142(6) . . .
169(7) . . .
151(6) . . .
131(6) . . .
152(7) . . .
151(7) . . .
157(7) . . .
136(6) . . .
157(6) . . .
146(6) . . .
148(7) . . .
172(7) . . .
154(7) . . .
145(6) . . .
150(7) . . .
153(7) . . .
153(7) . . .
163(7) . . .
162(7) . . .
151(7) . . .
168(7) . . .
142(6) . . .
154(7) . . .
147(6) . . .
156(7) . . .
149(7) . . .
145(7) . . .
135(6) . . .
162(7) . . .
144(6) . . .
157(7) . . .
140(6) . . .
162(7) . . .
154(6) . . .
155(7) . . .
145(7) . . .
144(6) . . .
149(6) . . .
152(6) . . .
151(7) . . .
148(7) . . .
169(7) . . .
153(6) . . .
150(6) . . .
164(7) . . .
173(7) . . .
146(7) . . .
152(6) . . .
141(6) . . .
156(7) . . .
149(7) . . .
162(7) . . .
135(6) . . .
145(6) . . .
165(7) . . .
155(7) . . .
161(7) . . .
153(6) . . .
156(7) . . .
162(7) . . .
162(7) . . .
150(6) . . .
156(7) . . .
155(7) . . .
155(7) . . .
146(7) . . .
149(7) . . .
145(6) . . .
142(6) . . .
154(7) . . .
157(7) . . .
139(6) . . .
155(6) . . .
139(6) . . .
148(7) . . .
163(7) . . .
153(6) . . .
146(6) . . .
138(6) . . .
160(7) . . .
148(7) . . .
150(6) . . .
141(6) . . .
147(6) . . .
150(7) . . .
143(6) . . .
136(6) . . .
136(6) . . .
160(7) . . .
146(7) . . .
149(7) . . .
155(6) . . .
146(6) . . .
161(7) . . .
144(7) . . .
142(6) . . .
145(6) . . .
143(6) . . .
139(6) . . .
147(7) . . .
163(7) . . .
143(6) . . .
147(6) . . .
163(7) . . .
147(7) . . .
131(6) . . .
143(6) . . .
150(7) . . .
140(7) . . .
146(7) . . .
168(7) . . .
155(6) . . .
153(7) . . .
148(6) . . .
145(6) . . .
141(6) . . .
138(6) . . .
151(7) . . .
135(6) . . .
130(6) . . .
142(6) . . .
138(6) . . .
155(7) . . .
134(6) . . .
161(7) . . .
143(6) . . .
143(6) . . .
158(7) . . .
152(7) . . .
151(7) . . .
151(6) . . .
144(6) . . .
153(7) . . .
149(7) . . .
152(7) . . .
145(6) . . .
153(6) . . .
154(7) . . .
152(7) . . .
140(6) . . .
149(6) . . .
155(7) . . .
169(7) . . .
147(7) . . .
165(7) . . .
143(6) . . .
140(6) . . .
140(6) . . .
150(7) . . .
148(7) . . .
139(6) . . .
141(6) . . .
146(6) . . .
150(7) . . .
158(7) . . .
144(6) . . .
164(7) . . .
185(7) . . .
167(7) . . .
158(7) . . .
147(6) . . .
152(7) . . .
169(7) . . .
144(6) . . .
145(6) . . .
171(7) . . .
154(7) . . .
153(7) . . .
162(7) . . .
166(7) . . .
158(6) . . .
153(7) . . .
161(7) . . .
133(6) . . .
163(7) . . .
155(7) . . .
144(6) . . .
149(7) . . .
160(7) . . .
158(7) . . .
123(6) . . .
150(6) . . .
159(7) . . .
143(6) . . .
151(6) . . .
157(7) . . .
163(7) . . .
151(7) . . .
161(7) . . .
148(6) . . .
141(6) . . .
150(7) . . .
137(7) . . .
125(6) . . .
149(6) . . .
151(6) . . .
134(6) . . .
155(7) . . .
158(7) . . .
150(6) . . .
141(6) . . .
145(7) . . .
153(7) . . .
149(7) . . .
147(6) . . .
138(6) . . .
159(7) . . .
154(7) . . .
164(7) . . .
152(6) . . .
156(7) . . .
163(7) . . .
135(6) . . .
144(6) . . .
140(6) . . .
140(6) . . .
143(7) . . .
147(7) . . .
153(7) . . .
151(6) . . .
148(7) . . .
138(6) . . .
148(7) . . .
144(6) . . .
142(6) . . .
146(7) . . .
138(7) . . .
147(7) . . .
150(6) . . .
139(6) . . .
136(7) . . .
145(7) . . .
152(6) . . .
161(7) . . .
139(6) . . .
152(7) . . .
129(6) . . .
139(6) . . .
139(6) . . .
142(6) . . .
130(6) . . .
158(7) . . .
149(6) . . .
148(6) . . .
143(6) . . .
164(7) . . .
155(7) . . .
163(7) . . .
145(6) . . .
142(6) . . .
120(6) . . .
127(6) . . .
129(6) . . .
151(6) . . .
135(6) . . .
147(7) . . .
151(7) . . .
140(6) . . .
143(6) . . .
141(6) . . .
152(7) . . .
137(6) . . .
147(7) . . .
155(6) . . .
125(6) . . .
132(6) . . .
137(6) . . .
148(6) . . .
153(6) . . .
147(6) . . .
150(7) . . .
159(7) . . .
150(6) . . .
158(7) . . .
149(6) . . .
149(7) . . .
144(6) . . .
148(6) . . .
145(6) . . .
152(7) . . .
149(7) . . .
154(7) . . .
144(6) . . .
155(6) . . .
147(7) . . .
152(7) . . .
150(6) . . .
143(6) . . .
138(6) . . .
142(7) . . .
156(7) . . .
146(7) . . .
153(6) . . .
162(7) . . .
156(7) . . .
159(7) . . .
145(7) . . .
146(6) . . .
137(6) . . .
136(6) . . .
143(7) . . .
146(6) . . .
146(6) . . .
143(6) . . .
150(7) . . .
143(6) . . .
147(6) . . .
153(6) . . .
142(6) . . .
133(6) . . .
154(7) . . .
148(6) . . .
157(7) . . .
145(6) . . .
132(6) . . .
155(7) . . .
129(6) . . .
145(6) . . .
158(7) . . .
152(6) . . .
174(7) . . .
151(6) . . .
153(6) . . .
161(7) . . .
155(7) . . .
137(6) . . .
134(6) . . .
145(6) . . .
160(7) . . .
151(7) . . .
153(7) . . .
144(6) . . .
167(7) . . .
144(7) . . .
148(7) . . .
156(7) . . .
137(6) . . .
155(7) . . .
153(7) . . .
153(7) . . .
165(7) . . .
147(6) . . .
147(6) . . .
142(6) . . .
139(7) . . .
158(7) . . .
161(6) . . .
149(6) . . .
154(7) . . .
159(7) . . .
157(7) . . .
151(6) . . .
165(7) . . .
151(7) . . .
137(6) . . .
139(6) . . .
161(7) . . .
156(7) . . .
144(6) . . .
159(7) . . .
152(7) . . .
144(6) . . .
141(6) . . .
145(6) . . .
139(6) . . .
147(6) . . .
160(7) . . .
143(6) . . .
153(7) . . .
143(6) . . .
134(6) . . .
152(6) . . .
157(7) . . .
164(7) . . .
141(6) . . .
140(6) . . .
146(6) . . .
142(6) . . .
155(7) . . .
135(7) . . .
152(7) . . .
136(6) . . .
171(7) . . .
153(7) . . .
130(6) . . .
150(6) . . .
146(6) . . .
137(6) . . .
145(7) . . .
137(6) . . .
134(6) . . .
129(6) . . .
146(6) . . .
155(7) . . .
162(7) . . .
130(6) . . .
136(6) . . .
147(6) . . .
139(7) . . .
144(6) . . .
152(6) . . .
158(7) . . .
172(7) . . .
139(6) . . .
153(7) . . .
140(6) . . .
158(7) . . .
142(7) . . .
144(7) . . .
138(6) . . .
141(6) . . .
163(7) . . .
140(6) . . .
159(7) . . .
143(6) . . .
134(6) . . .
144(7) . . .
150(7) . . .
143(7) . . .
136(6) . . .
145(6) . . .
151(6) . . .
141(6) . . .
152(7) . . .
140(6) . . .
132(6) . . .
127(6) . . .
149(7) . . .
137(6) . . .
147(6) . . .
138(6) . . .
139(6) . . .
151(7) . . .
141(7) . . .
144(6) . . .
154(7) . . .
153(7) . . .
149(7) . . .
154(7) . . .
153(6) . . .
150(6) . . .
134(6) . . .
155(7) . . .
161(7) . . .
146(6) . . .
137(6) . . .
136(6) . . .
152(7) . . .
166(7) . . .
151(6) . . .
125(6) . . .
156(7) . . .
146(7) . . .
139(6) . . .
148(6) . . .
140(6) . . .
141(6) . . .
153(7) . . .
143(6) . . .
145(6) . . .
139(6) . . .
141(6) . . .
150(7) . . .
136(6) . . .
146(6) . . .
145(7) . . .
140(6) . . .
140(6) . . .
148(7) . . .
151(6) . . .
152(7) . . .
152(7) . . .
141(6) . . .
153(6) . . .
150(6) . . .
154(7) . . .
155(7) . . .
144(7) . . .
148(6) . . .
142(6) . . .
153(7) . . .
148(7) . . .
133(6) . . .
153(6) . . .
122(6) . . .
138(6) . . .
159(7) . . .
152(7) . . .
156(6) . . .
159(7) . . .
161(7) . . .
145(7) . . .
143(6) . . .
147(6) . . .
147(6) . . .
126(6) . . .
157(7) . . .
154(7) . . .
150(6) . . .
143(6) . . .
149(7) . . .
152(7) . . .
153(7) . . .
155(6) . . .
128(6) . . .
148(7) . . .
161(7) . . .
149(7) . . .
140(6) . . .
139(6) . . .
133(6) . . .
138(6) . . .
139(6) . . .
159(7) . . .
144(6) . . .
130(6) . . .
138(6) . . .
147(6) . . .
141(6) . . .
143(6) . . .
137(6) . . .
150(7) . . .
154(6) . . .
147(6) . . .
155(7) . . .
154(7) . . .
142(7) . . .
129(6) . . .
152(6) . . .
127(6) . . .
130(6) . . .
161(7) . . .
151(6) . . .
149(6) . . .
132(6) . . .
141(7) . . .
150(7) . . .
144(6) . . .
144(6) . . .
155(7) . . .
160(7) . . .
161(7) . . .
149(6) . . .
150(6) . . .
135(6) . . .
152(7) . . .
149(7) . . .
132(6) . . .
134(6) . . .
135(6) . . .
134(6) . . .
135(6) . . .
146(6) . . .
134(6) . . .
129(6) . . .
147(7) . . .
162(7) . . .
143(6) . . .
153(7) . . .
140(6) . . .
143(7) . . .
127(6) . . .
145(6) . . .
162(7) . . .
159(7) . . .
131(6) . . .
133(6) . . .
140(6) . . .
136(6) . . .
147(7) . . .
142(6) . . .
152(6) . . .
165(7) . . .
154(7) . . .
139(6) . . .
133(6) . . .
138(6) . . .
138(6) . . .
156(7) . . .
137(6) . . .
133(6) . . .
134(6) . . .
142(6) . . .
136(6) . . .
144(7) . . .
146(6) . . .
144(6) . . .
145(6) . . .
141(6) . . .
134(6) . . .
150(7) . . .
162(7) . . .
150(6) . . .
162(7) . . .
139(7) . . .
148(6) . . .
156(7) . . .
141(6) . . .
153(7) . . .
142(6) . . .
129(6) . . .
157(7) . . .
146(7) . . .
151(7) . . .
125(6) . . .
146(6) . . .
146(6) . . .
148(6) . . .
150(6) . . .
135(6) . . .
140(6) . . .
157(7) . . .
164(7) . . .
135(6) . . .
142(7) . . .
152(7) . . .
145(6) . . .
147(6) . . .
151(7) . . .
140(6) . . .
154(7) . . .
144(6) . . .
144(6) . . .
136(6) . . .
150(7) . . .
157(7) . . .
155(6) . . .
151(6) . . .
145(6) . . .
153(7) . . .
147(6) . . .
158(7) . . .
147(6) . . .
152(7) . . .
142(6) . . .
144(6) . . .
143(6) . . .
174(7) . . .
149(7) . . .
142(6) . . .
149(6) . . .
144(6) . . .
143(6) . . .
146(7) . . .
137(6) . . .
129(6) . . .
153(6) . . .
149(7) . . .
137(7) . . .
145(6) . . .
138(6) . . .
154(6) . . .
142(7) . . .
145(7) . . .
160(7) . . .
147(6) . . .
157(7) . . .
131(6) . . .
131(6) . . .
152(6) . . .
150(6) . . .
147(6) . . .
146(7) . . .
136(6) . . .
148(7) . . .
151(6) . . .
142(6) . . .
145(7) . . .
157(7) . . .
161(7) . . .
163(7) . . .
136(6) . . .
157(7) . . .
145(6) . . .
143(6) . . .
153(6) . . .
155(7) . . .
135(6) . . .
167(7) . . .
138(6) . . .
159(7) . . .
144(6) . . .
147(7) . . .
132(6) . . .
126(6) . . .
144(6) . . .
154(7) . . .
143(6) . . .
171(7) . . .
149(6) . . .
144(6) . . .
159(7) . . .
151(7) . . .
153(7) . . .
164(7) . . .
147(6) . . .
132(6) . . .
157(7) . . .
151(7) . . .
139(6) . . .
158(7) . . .
141(6) . . .
138(6) . . .
139(6) . . .
153(6) . . .
145(6) . . .
160(7) . . .
142(6) . . .
141(6) . . .
152(6) . . .
151(6) . . .
150(7) . . .
143(6) . . .
138(6) . . .
130(6) . . .
126(6) . . .
134(6) . . .
150(7) . . .
153(7) . . .
145(6) . . .
116(6) . . .
137(6) . . .
150(7) . . .
135(6) . . .
145(6) . . .
145(6) . . .
133(6) . . .
131(6) . . .
150(7) . . .
161(7) . . .
153(7) . . .
150(7) . . .
148(6) . . .
150(6) . . .
164(7) . . .
137(6) . . .
149(7) . . .
144(7) . . .
164(7) . . .
159(7) . . .
152(6) . . .
144(6) . . .
136(6) . . .
135(6) . . .
146(6) . . .
139(6) . . .
156(7) . . .
140(6) . . .
141(6) . . .
142(6) . . .
163(7) . . .
137(6) . . .
149(7) . . .
151(6) . . .
166(7) . . .
158(7) . . .
149(6) . . .
155(7) . . .
145(6) . . .
167(7) . . .
157(7) . . .
150(7) . . .
144(6) . . .
155(6) . . .
152(7) . . .
149(7) . . .
145(6) . . .
155(7) . . .
156(6) . . .
154(7) . . .
164(7) . . .
147(7) . . .
133(6) . . .
149(6) . . .
162(7) . . .
155(7) . . .
146(6) . . .
149(6) . . .
153(7) . . .
132(6) . . .
153(7) . . .
144(6) . . .
154(6) . . .
153(6) . . .
140(6) . . .
150(7) . . .
156(7) . . .
153(6) . . .
134(6) . . .
168(7) . . .
143(6) . . .
165(7) . . .
144(6) . . .
152(6) . . .
151(7) . . .
152(7) . . .
142(6) . . .
130(6) . . .
133(6) . . .
149(6) . . .
163(7) . . .
137(6) . . .
146(6) . . .
135(6) . . .
155(7) . . .
155(7) . . .
163(7) . . .
141(6) . . .
163(7) . . .
146(7) . . .
136(6) . . .
140(6) . . .
163(7) . . .
160(7) . . .
129(6) . . .
130(6) . . .
144(6) . . .
125(6) . . .
131(6) . . .
137(6) . . .
133(6) . . .
140(6) . . .
123(6) . . .
128(6) . . .
134(6) . . .
149(7) . . .
133(6) . . .
151(6) . . .
146(7) . . .
138(6) . . .
156(7) . . .
141(6) . . .
153(6) . . .
147(7) . . .
145(7) . . .
152(7) . . .
150(6) . . .
135(6) . . .
140(6) . . .
145(7) . . .
165(7) . . .
153(6) . . .
133(6) . . .
135(6) . . .
131(6) . . .
151(7) . . .
156(6) . . .
138(6) . . .
120(6) . . .
138(6) . . .
157(7) . . .
140(6) . . .
135(6) . . .
131(6) . . .
138(6) . . .
143(6) . . .
136(6) . . .
147(6) . . .
148(6) . . .
135(6) . . .
128(6) . . .
140(6) . . .
143(6) . . .
149(7) . . .
147(7) . . .
146(7) . . .
150(6) . . .
142(6) . . .
150(7) . . .
148(6) . . .
153(7) . . .
161(7) . . .
147(6) . . .
142(7) . . .
136(6) . . .
135(6) . . .
137(6) . . .
128(6) . . .
147(7) . . .
166(7) . . .
146(6) . . .
152(6) . . .
152(6) . . .
135(6) . . .
141(6) . . .
139(6) . . .
166(7) . . .
141(6) . . .
148(7) . . .
146(6) . . .
140(6) . . .
176(7) . . .
174(7) . . .
156(7) . . .
160(7) . . .
170(7) . . .
158(7) . . .
144(6) . . .
175(7) . . .
146(7) . . .
142(6) . . .
160(7) . . .
142(6) . . .
145(7) . . .
152(7) . . .
159(7) . . .
139(6) . . .
149(7) . . .
161(7) . . .
146(7) . . .
138(6) . . .
149(6) . . .
150(7) . . .
149(7) . . .
155(7) . . .
138(6) . . .
159(7) . . .
154(7) . . .
170(7) . . .
146(6) . . .
132(6) . . .
149(6) . . .
149(7) . . .
138(6) . . .
138(6) . . .
121(6) . . .
153(7) . . .
148(7) . . .
156(7) . . .
131(6) . . .
121(6) . . .
131(6) . . .
134(6) . . .
140(6) . . .
155(7) . . .
154(6) . . .
148(7) . . .
139(7) . . .
145(6) . . .
145(6) . . .
141(6) . . .
145(6) . . .
137(6) . . .
151(7) . . .
141(6) . . .
150(6) . . .
147(6) . . .
149(6) . . .
155(7) . . .
144(6) . . .
167(7) . . .
133(6) . . .
142(7) . . .
138(6) . . .
155(6) . . .
136(6) . . .
139(6) . . .
136(6) . . .
146(7) . . .
137(6) . . .
148(6) . . .
151(7) . . .
142(6) . . .
164(7) . . .
147(6) . . .
139(6) . . .
129(6) . . .
151(7) . . .
135(6) . . .
135(6) . . .
144(7) . . .
147(7) . . .
152(7) . . .
161(7) . . .
142(6) . . .
144(6) . . .
132(6) . . .
136(6) . . .
140(6) . . .
152(6) . . .
130(6) . . .
145(7) . . .
145(6) . . .
153(6) . . .
147(6) . . .
125(6) . . .
147(7) . . .
135(6) . . .
138(6) . . .
147(6) . . .
146(6) . . .
146(7) . . .
149(7) . . .
139(6) . . .
151(6) . . .
156(7) . . .
135(6) . . .
152(7) . . .
143(6) . . .
134(6) . . .
135(6) . . .
142(7) . . .
134(6) . . .
140(6) . . .
159(7) . . .
130(6) . . .
137(6) . . .
125(6) . . .
126(6) . . .
140(6) . . .
147(7) . . .
153(7) . . .
140(6) . . .
130(6) . . .
142(6) . . .
153(7) . . .
128(6) . . .
135(6) . . .
130(6) . . .
140(6) . . .
140(6) . . .
128(6) . . .
125(6) . . .
125(6) . . .
137(6) . . .
149(7) . . .
135(6) . . .
133(6) . . .
139(6) . . .
146(7) . . .
162(7) . . .
140(6) . . .
145(6) . . .
134(6) . . .
140(6) . . .
142(7) . . .
137(6) . . .
150(6) . . .
132(6) . . .
134(6) . . .
133(6) . . .
145(7) . . .
142(6) . . .
139(6) . . .
118(6) . . .
146(7) . . .
148(6) . . .
140(6) . . .
134(6) . . .
154(7) . . .
146(7) . . .
118(6) . . .
129(6) . . .
138(6) . . .
131(6) . . .
121(6) . . .
143(7) . . .
132(6) . . .
138(6) . . .
156(7) . . .
133(6) . . .
147(6) . . .
146(6) . . .
139(6) . . .
144(6) . . .
155(7) . . .
143(6) . . .
139(6) . . .
134(6) . . .
150(6) . . .
160(7) . . .
153(6) . . .
152(6) . . .
152(7) . . .
154(7) . . .
116(6) . . .
133(6) . . .
145(6) . . .
132(6) . . .
147(6) . . .
132(6) . . .
133(6) . . .
144(6) . . .
141(6) . . .
145(7) . . .
132(6) . . .
140(6) . . .
153(6) . . .
136(6) . . .
138(7) . . .
130(6) . . .
120(6) . . .
135(6) . . .
136(6) . . .
138(7) . . .
137(6) . . .
151(6) . . .
133(6) . . .
144(6) . . .
147(7) . . .
147(6) . . .
123(6) . . .
131(6) . . .
122(6) . . .
130(6) . . .
141(6) . . .
130(6) . . .
132(6) . . .
139(6) . . .
146(7) . . .
160(7) . . .
144(6) . . .
151(7) . . .
142(6) . . .
135(6) . . .
126(6) . . .
147(6) . . .
128(6) . . .
165(7) . . .
138(6) . . .
158(7) . . .
136(6) . . .
136(6) . . .
145(7) . . .
138(6) . . .
139(6) . . .
126(6) . . .
139(6) . . .
146(7) . . .
132(6) . . .
132(6) . . .
137(6) . . .
140(6) . . .
157(7) . . .
137(6) . . .
143(6) . . .
138(6) . . .
140(6) . . .
144(7) . . .
131(6) . . .
144(6) . . .
138(6) . . .
138(6) . . .
151(7) . . .
139(6) . . .
148(6) . . .
151(6) . . .
139(6) . . .
141(7) . . .
134(6) . . .
134(6) . . .
131(6) . . .
153(6) . . .
137(6) . . .
124(6) . . .
124(6) . . .
131(6) . . .
158(7) . . .
140(7) . . .
130(6) . . .
134(6) . . .
141(6) . . .
133(6) . . .
140(6) . . .
127(6) . . .
140(6) . . .
135(6) . . .
138(6) . . .
134(6) . . .
133(6) . . .
130(6) . . .
139(6) . . .
139(6) . . .
135(6) . . .
136(6) . . .
131(6) . . .
147(7) . . .
138(6) . . .
143(7) . . .
143(6) . . .
130(6) . . .
139(6) . . .
169(7) . . .
138(7) . . .
147(7) . . .
137(6) . . .
136(6) . . .
131(6) . . .
147(6) . . .
146(6) . . .
149(6) . . .
143(7) . . .
141(6) . . .
157(7) . . .
133(6) . . .
133(6) . . .
130(6) . . .
145(7) . . .
140(6) . . .
140(6) . . .
120(6) . . .
131(6) . . .
139(6) . . .
135(6) . . .
123(6) . . .
145(6) . . .
154(7) . . .
139(6) . . .
138(6) . . .
130(6) . . .
128(6) . . .
156(7) . . .
142(6) . . .
150(7) . . .
148(6) . . .
137(6) . . .
142(6) . . .
138(6) . . .
127(6) . . .
147(6) . . .
137(6) . . .
132(6) . . .
133(6) . . .
134(6) . . .
153(6) . . .
128(6) . . .
126(6) . . .
122(6) . . .
149(6) . . .
125(6) . . .
134(6) . . .
123(6) . . .
138(6) . . .
133(6) . . .
134(6) . . .
142(6) . . .
161(7) . . .
134(6) . . .
137(6) . . .
120(6) . . .
127(6) . . .
121(6) . . .
127(6) . . .
141(6) . . .
148(6) . . .
155(7) . . .
142(7) . . .
139(6) . . .
148(6) . . .
136(6) . . .
141(6) . . .
138(6) . . .
128(6) . . .
142(6) . . .
142(6) . . .
142(6) . . .
144(6) . . .
141(6) . . .
132(6) . . .
136(6) . . .
129(6) . . .
132(6) . . .
131(6) . . .
145(6) . . .
123(6) . . .
141(6) . . .
138(6) . . .
131(6) . . .
141(6) . . .
127(6) . . .
141(6) . . .
152(7) . . .
128(6) . . .
136(6) . . .
135(6) . . .
119(6) . . .
138(6) . . .
147(7) . . .
131(6) . . .
125(6) . . .
141(7) . . .
141(6) . . .
141(6) . . .
136(6) . . .
137(6) . . .
118(6) . . .
142(6) . . .
136(6) . . .
147(6) . . .
145(6) . . .
122(6) . . .
133(6) . . .
142(6) . . .
152(7) . . .
137(6) . . .
156(7) . . .
146(6) . . .
143(6) . . .
140(6) . . .
140(6) . . .
138(7) . . .
143(7) . . .
143(6) . . .
143(6) . . .
123(6) . . .
132(6) . . .
135(6) . . .
132(6) . . .
134(6) . . .
150(7) . . .
128(6) . . .
138(6) . . .
133(6) . . .
142(6) . . .
139(6) . . .
139(6) . . .
135(6) . . .
128(6) . . .
132(6) . . .
136(6) . . .
127(6) . . .
137(6) . . .
143(6) . . .
159(7) . . .
127(6) . . .
140(6) . . .
133(6) . . .
151(6) . . .
134(6) . . .
131(6) . . .
151(7) . . .
141(6) . . .
130(6) . . .
137(6) . . .
130(6) . . .
147(7) . . .
145(6) . . .
159(7) . . .
143(6) . . .
132(6) . . .
140(7) . . .
140(6) . . .
143(6) . . .
136(6) . . .
141(7) . . .
133(6) . . .
140(6) . . .
146(6) . . .
128(6) . . .
127(6) . . .
127(6) . . .
136(6) . . .
141(6) . . .
141(6) . . .
143(7) . . .
143(6) . . .
137(6) . . .
153(7) . . .
129(6) . . .
125(6) . . .
141(6) . . .
127(6) . . .
139(6) . . .
137(6) . . .
149(7) . . .
123(6) . . .
124(6) . . .
134(6) . . .
136(6) . . .
135(6) . . .
133(6) . . .
124(6) . . .
133(6) . . .
138(6) . . .
139(7) . . .
125(6) . . .
153(6) . . .
132(6) . . .
123(6) . . .
128(6) . . .
129(6) . . .
150(6) . . .
153(7) . . .
140(7) . . .
123(6) . . .
139(6) . . .
127(6) . . .
121(6) . . .
123(6) . . .
130(6) . . .
126(6) . . .
141(6) . . .
129(6) . . .
134(6) . . .
134(6) . . .
146(6) . . .
125(6) . . .
125(6) . . .
148(7) . . .
122(6) . . .
147(6) . . .
127(6) . . .
127(6) . . .
151(7) . . .
138(6) . . .
144(6) . . .
128(6) . . .
135(7) . . .
124(6) . . .
136(6) . . .
143(6) . . .
151(6) . . .
133(6) . . .
129(6) . . .
137(6) . . .
127(6) . . .
141(6) . . .
145(6) . . .
132(6) . . .
145(6) . . .
120(6) . . .
117(6) . . .
119(6) . . .
133(6) . . .
144(6) . . .
140(6) . . .
130(6) . . .
128(6) . . .
125(6) . . .
124(6) . . .
149(6) . . .
145(7) . . .
134(6) . . .
137(6) . . .
129(6) . . .
139(6) . . .
146(6) . . .
120(6) . . .
145(7) . . .
127(6) . . .
150(6) . . .
153(7) . . .
142(7) . . .
116(6) . . .
140(6) . . .
133(6) . . .
128(6) . . .
143(7) . . .
136(6) . . .
130(6) . . .
133(6) . . .
135(6) . . .
148(7) . . .
141(6) . . .
130(6) . . .
152(6) . . .
122(6) . . .
130(6) . . .
138(7) . . .
144(6) . . .
144(6) . . .
139(6) . . .
136(6) . . .
140(6) . . .
125(6) . . .
137(6) . . .
136(6) . . .
140(6) . . .
129(6) . . .
137(6) . . .
139(6) . . .
133(6) . . .
131(6) . . .
138(6) . . .
161(7) . . .
147(6) . . .
161(7) . . .
141(6) . . .
138(6) . . .
135(6) . . .
138(6) . . .
135(6) . . .
125(6) . . .
138(6) . . .
136(6) . . .
142(6) . . .
131(6) . . .
129(6) . . .
139(6) . . .
146(6) . . .
144(7) . . .
130(7) . . .
139(6) . . .
150(6) . . .
135(6) . . .
131(6) . . .
139(6) . . .
137(6) . . .
147(6) . . .
138(6) . . .
142(6) . . .
145(7) . . .
120(6) . . .
132(6) . . .
129(6) . . .
140(6) . . .
145(7) . . .
152(7) . . .
148(6) . . .
120(6) . . .
124(6) . . .
123(6) . . .
137(6) . . .
153(6) . . .
130(6) . . .
143(6) . . .
136(6) . . .
131(6) . . .
138(6) . . .
160(7) . . .
134(6) . . .
141(7) . . .
140(6) . . .
132(6) . . .
138(6) . . .
144(7) . . .
131(6) . . .
143(6) . . .
133(6) . . .
125(6) . . .
137(6) . . .
121(6) . . .
136(6) . . .
128(6) . . .
123(6) . . .
136(6) . . .
134(6) . . .
135(6) . . .
133(6) . . .
146(7) . . .
131(6) . . .
141(6) . . .
140(6) . . .
149(6) . . .
138(6) . . .
138(7) . . .
127(6) . . .
143(6) . . .
133(6) . . .
128(6) . . .
144(7) . . .
129(6) . . .
131(6) . . .
138(6) . . .
141(6) . . .
140(7) . . .
146(7) . . .
148(6) . . .
147(6) . . .
134(6) . . .
138(7) . . .
125(6) . . .
119(6) . . .
126(6) . . .
135(6) . . .
142(7) . . .
138(6) . . .
137(6) . . .
133(6) . . .
120(6) . . .
131(6) . . .
136(6) . . .
129(6) . . .
137(6) . . .
127(6) . . .
136(6) . . .
129(6) . . .
140(6) . . .
137(6) . . .
149(7) . . .
133(6) . . .
131(6) . . .
126(6) . . .
131(6) . . .
127(6) . . .
123(6) . . .
131(6) . . .
154(6) . . .
129(6) . . .
119(6) . . .
138(6) . . .
139(6) . . .
129(6) . . .
145(6) . . .
145(7) . . .
119(6) . . .
134(6) . . .
141(6) . . .
142(6) . . .
135(6) . . .
141(6) . . .
133(6) . . .
134(6) . . .
144(6) . . .
126(6) . . .
124(6) . . .
136(6) . . .
136(6) . . .
133(6) . . .
136(6) . . .
132(6) . . .
129(6) . . .
127(6) . . .
124(6) . . .
140(6) . . .
135(6) . . .
126(6) . . .
122(6) . . .
131(6) . . .
130(6) . . .
135(6) . . .
129(6) . . .
135(6) . . .
132(6) . . .
122(6) . . .
144(7) . . .
142(6) . . .
144(7) . . .
119(6) . . .
143(6) . . .
136(6) . . .
164(7) . . .
138(6) . . .
132(6) . . .
141(6) . . .
128(6) . . .
140(6) . . .
130(6) . . .
127(6) . . .
139(6) . . .
132(6) . . .
136(6) . . .
121(6) . . .
134(7) . . .
147(7) . . .
129(6) . . .
145(6) . . .
130(6) . . .
124(6) . . .
141(6) . . .
124(6) . . .
131(6) . . .
134(6) . . .
142(7) . . .
138(6) . . .
130(6) . . .
134(6) . . .
125(6) . . .
118(6) . . .
117(6) . . .
130(6) . . .
127(6) . . .
139(6) . . .
147(7) . . .
141(6) . . .
140(6) . . .
151(7) . . .
126(6) . . .
143(7) . . .
137(6) . . .
142(6) . . .
124(6) . . .
144(7) . . .
136(6) . . .
123(6) . . .
125(6) . . .
146(6) . . .
121(6) . . .
136(6) . . .
143(6) . . .
136(6) . . .
132(6) . . .
116(6) . . .
121(6) . . .
128(6) . . .
123(6) . . .
143(6) . . .
140(7) . . .
142(7) . . .
139(6) . . .
144(6) . . .
131(6) . . .
138(7) . . .
132(6) . . .
127(6) . . .
148(6) . . .
134(6) . . .
132(6) . . .
127(6) . . .
126(6) . . .
120(6) . . .
126(6) . . .
141(7) . . .
140(6) . . .
132(6) . . .
133(6) . . .
134(6) . . .
156(7) . . .
138(6) . . .
144(6) . . .
136(6) . . .
124(6) . . .
124(6) . . .
134(6) . . .
135(6) . . .
146(7) . . .
140(7) . . .
136(6) . . .
134(6) . . .
113(6) . . .
123(6) . . .
127(6) . . .
139(7) . . .
139(6) . . .
139(6) . . .
126(6) . . .
137(6) . . .
130(6) . . .
135(6) . . .
128(6) . . .
142(6) . . .
125(6) . . .
127(6) . . .
136(6) . . .
141(6) . . .
138(6) . . .
143(7) . . .
154(7) . . .
128(6) . . .
119(6) . . .
124(6) . . .
135(6) . . .
135(6) . . .
145(6) . . .
142(6) . . .
144(7) . . .
132(6) . . .
139(6) . . .
121(6) . . .
140(6) . . .
135(6) . . .
128(6) . . .
130(6) . . .
139(6) . . .
120(6) . . .
126(6) . . .
132(6) . . .
138(6) . . .
140(6) . . .
131(6) . . .
145(7) . . .
144(7) . . .
128(6) . . .
131(6) . . .
143(6) . . .
135(6) . . .
119(6) . . .
135(6) . . .
123(6) . . .
131(6) . . .
133(6) . . .
123(6) . . .
131(6) . . .
132(6) . . .
129(6) . . .
130(6) . . .
130(6) . . .
117(6) . . .
129(6) . . .
141(6) . . .
138(6) . . .
125(6) . . .
128(6) . . .
138(6) . . .
120(6) . . .
132(6) . . .
144(6) . . .
149(6) . . .
135(6) . . .
139(6) . . .
131(6) . . .
135(6) . . .
132(6) . . .
137(6) . . .
110(6) . . .
129(6) . . .
135(6) . . .
147(6) . . .
144(6) . . .
131(6) . . .
126(6) . . .
131(6) . . .
150(6) . . .
125(6) . . .
124(6) . . .
132(6) . . .
149(7) . . .
133(6) . . .
129(6) . . .
128(6) . . .
132(6) . . .
121(6) . . .
115(6) . . .
130(6) . . .
130(6) . . .
130(6) . . .
125(6) . . .
149(6) . . .
141(6) . . .
131(6) . . .
123(6) . . .
131(6) . . .
130(6) . . .
142(6) . . .
131(6) . . .
140(6) . . .
131(6) . . .
137(6) . . .
141(6) . . .
124(6) . . .
130(6) . . .
126(6) . . .
114(6) . . .
131(6) . . .
129(6) . . .
131(6) . . .
137(6) . . .
144(6) . . .
125(6) . . .
130(6) . . .
119(6) . . .
131(6) . . .
144(6) . . .
129(6) . . .
135(6) . . .
131(6) . . .
138(6) . . .
107(5) . . .
134(7) . . .
126(6) . . .
132(6) . . .
123(6) . . .
131(6) . . .
132(6) . . .
141(7) . . .
131(6) . . .
135(6) . . .
138(6) . . .
127(6) . . .
120(6) . . .
140(6) . . .
136(6) . . .
131(6) . . .
131(6) . . .
137(6) . . .
132(6) . . .
134(6) . . .
125(6) . . .
132(6) . . .
137(6) . . .
118(6) . . .
143(6) . . .
150(7) . . .
127(6) . . .
121(6) . . .
129(6) . . .
151(6) . . .
127(6) . . .
122(6) . . .
142(6) . . .
133(6) . . .
139(6) . . .
122(6) . . .
128(6) . . .
141(7) . . .
116(6) . . .
133(6) . . .
127(6) . . .
145(7) . . .
104(5) . . .
129(6) . . .
130(6) . . .
141(6) . . .
142(7) . . .
137(6) . . .
127(6) . . .
136(6) . . .
123(6) . . .
144(7) . . .
143(6) . . .
132(6) . . .
129(6) . . .
136(6) . . .
118(6) . . .
138(6) . . .
132(6) . . .
141(6) . . .
125(6) . . .
140(7) . . .
127(6) . . .
132(6) . . .
128(6) . . .
122(6) . . .
128(6) . . .
106(6) . . .
133(6) . . .
133(6) . . .
152(7) . . .
136(6) . . .
130(6) . . .
145(6) . . .
116(6) . . .
127(6) . . .
131(6) . . .
130(6) . . .
131(6) . . .
140(6) . . .
126(6) . . .
135(6) . . .
131(6) . . .
127(6) . . .
136(6) . . .
126(6) . . .
129(6) . . .
130(6) . . .
129(6) . . .
138(6) . . .
140(6) . . .
131(6) . . .
130(6) . . .
126(6) . . .
124(6) . . .
121(6) . . .
133(6) . . .
126(6) . . .
134(6) . . .
150(7) . . .
127(6) . . .
125(6) . . .
127(6) . . .
134(6) . . .
132(6) . . .
143(7) . . .
127(6) . . .
131(6) . . .
133(6) . . .
131(6) . . .
129(6) . . .
140(7) . . .
144(6) . . .
134(6) . . .
138(6) . . .
121(6) . . .
136(7) . . .
117(6) . . .
126(6) . . .
106(5) . . .
133(6) . . .
130(6) . . .
116(6) . . .
133(6) . . .
129(6) . . .
115(6) . . .
146(6) . . .
139(6) . . .
160(7) . . .
129(6) . . .
129(6) . . .
136(6) . . .
132(6) . . .
131(6) . . .
120(6) . . .
123(6) . . .
141(6) . . .
131(6) . . .
109(5) . . .
120(6) . . .
139(6) . . .
132(6) . . .
136(6) . . .
134(6) . . .
123(6) . . .
129(6) . . .
126(6) . . .
124(6) . . .
113(6) . . .
146(7) . . .
144(7) . . .
146(6) . . .
137(6) . . .
120(6) . . .
128(6) . . .
143(6) . . .
134(6) . . .
134(6) . . .
126(6) . . .
119(6) . . .
125(6) . . .
145(6) . . .
123(6) . . .
127(6) . . .
122(6) . . .
129(6) . . .
142(6) . . .
146(6) . . .
143(6) . . .
123(6) . . .
131(6) . . .
127(6) . . .
138(6) . . .
135(6) . . .
129(6) . . .
134(6) . . .
129(6) . . .
137(6) . . .
134(6) . . .
144(6) . . .
166(7) . . .
144(6) . . .
134(6) . . .
132(6) . . .
138(6) . . .
129(6) . . .
134(6) . . .
132(6) . . .
141(7) . . .
131(6) . . .
129(6) . . .
135(6) . . .
142(6) . . .
139(6) . . .
135(6) . . .
142(6) . . .
140(6) . . .
133(6) . . .
126(6) . . .
138(6) . . .
126(6) . . .
128(6) . . .
143(6) . . .
120(6) . . .
116(6) . . .
142(6) . . .
123(6) . . .
132(6) . . .
120(6) . . .
126(6) . . .
118(6) . . .
123(6) . . .
131(6) . . .
137(6) . . .
145(6) . . .
140(6) . . .
131(6) . . .
125(6) . . .
136(6) . . .
137(6) . . .
126(6) . . .
132(6) . . .
142(7) . . .
127(6) . . .
126(6) . . .
129(6) . . .
142(6) . . .
140(6) . . .
140(6) . . .
145(6) . . .
131(6) . . .
139(6) . . .
130(6) . . .
120(6) . . .
120(6) . . .
132(6) . . .
110(6) . . .
133(6) . . .
139(6) . . .
146(6) . . .
133(6) . . .
136(6) . . .
134(7) . . .
132(6) . . .
135(6) . . .
124(6) . . .
123(6) . . .
134(7) . . .
128(6) . . .
137(6) . . .
133(6) . . .
135(6) . . .
123(6) . . .
134(6) . . .
139(6) . . .
138(6) . . .
128(6) . . .
130(6) . . .
143(6) . . .
113(6) . . .
125(6) . . .
135(6) . . .
119(6) . . .
121(6) . . .
129(6) . . .
137(6) . . .
133(6) . . .
130(6) . . .
129(6) . . .
109(5) . . .
127(6) . . .
139(6) . . .
136(6) . . .
112(6) . . .
135(6) . . .
130(6) . . .
125(6) . . .
135(6) . . .
136(6) . . .
144(6) . . .
136(6) . . .
125(6) . . .
141(6) . . .
138(6) . . .
122(6) . . .
111(6) . . .
129(6) . . .
152(7) . . .
147(6) . . .
121(6) . . .
135(6) . . .
138(6) . . .
136(6) . . .
140(6) . . .
114(6) . . .
132(6) . . .
117(6) . . .
134(6) . . .
133(6) . . .
124(6) . . .
126(6) . . .
126(6) . . .
121(6) . . .
121(6) . . .
125(6) . . .
138(6) . . .
129(6) . . .
128(6) . . .
132(6) . . .
129(6) . . .
129(6) . . .
122(6) . . .
130(6) . . .
126(6) . . .
130(6) . . .
138(6) . . .
126(6) . . .
118(6) . . .
128(6) . . .
137(6) . . .
124(6) . . .
114(6) . . .
139(6) . . .
120(6) . . .
127(6) . . .
125(6) . . .
129(6) . . .
125(6) . . .
108(5) . . .
131(6) . . .
129(6) . . .
129(6) . . .
116(6) . . .
132(6) . . .
111(6) . . .
148(7) . . .
135(6) . . .
122(6) . . .
118(6) . . .
119(6) . . .
121(6) . . .
126(6) . . .
120(6) . . .
124(6) . . .
131(6) . . .
129(6) . . .
121(6) . . .
111(6) . . .
125(6) . . .
127(6) . . .
131(7) . . .
111(6) . . .
128(6) . . .
118(6) . . .
126(6) . . .
133(6) . . .
131(6) . . .
133(6) . . .
123(6) . . .
132(6) . . .
125(6) . . .
126(6) . . .
132(6) . . .
134(6) . . .
130(6) . . .
125(6) . . .
115(6) . . .
118(6) . . .
133(6) . . .
138(7) . . .
130(6) . . .
121(6) . . .
135(6) . . .
128(6) . . .
132(6) . . .
125(6) . . .
129(6) . . .
127(6) . . .
132(6) . . .
122(6) . . .
126(6) . . .
132(6) . . .
122(6) . . .
106(5) . . .
122(6) . . .
131(6) . . .
116(6) . . .
128(6) . . .
154(7) . . .
143(7) . . .
131(6) . . .
129(6) . . .
123(6) . . .
121(6) . . .
111(6) . . .
137(6) . . .
111(5) . . .
122(6) . . .
135(6) . . .
120(6) . . .
117(6) . . .
123(6) . . .
118(6) . . .
150(7) . . .
105(6) . . .
114(6) . . .
129(6) . . .
123(6) . . .
124(6) . . .
141(7) . . .
115(6) . . .
130(6) . . .
117(6) . . .
135(6) . . .
119(6) . . .
108(6) . . .
117(6) . . .
123(6) . . .
131(6) . . .
112(6) . . .
117(6) . . .
136(6) . . .
132(6) . . .
123(6) . . .
132(6) . . .
129(6) . . .
116(6) . . .
125(6) . . .
138(6) . . .
134(6) . . .
127(6) . . .
132(6) . . .
139(6) . . .
114(6) . . .
106(6) . . .
122(6) . . .
134(6) . . .
131(6) . . .
135(6) . . .
118(6) . . .
122(6) . . .
130(6) . . .
116(6) . . .
115(6) . . .
120(6) . . .
131(6) . . .
136(6) . . .
119(6) . . .
114(6) . . .
131(6) . . .
124(6) . . .
116(6) . . .
117(6) . . .
132(6) . . .
124(6) . . .
126(6) . . .
140(6) . . .
134(6) . . .
127(6) . . .
132(6) . . .
108(5) . . .
148(6) . . .
137(6) . . .
132(6) . . .
133(6) . . .
133(6) . . .
138(6) . . .
136(6) . . .
123(6) . . .
122(6) . . .
134(6) . . .
123(6) . . .
132(6) . . .
127(6) . . .
127(6) . . .
133(6) . . .
137(6) . . .
119(6) . . .
132(6) . . .
131(6) . . .
127(6) . . .
141(6) . . .
124(6) . . .
111(6) . . .
119(6) . . .
117(6) . . .
117(6) . . .
126(6) . . .
133(6) . . .
135(6) . . .
109(5) . . .
130(6) . . .
137(6) . . .
117(6) . . .
137(6) . . .
122(6) . . .
136(6) . . .
129(6) . . .
142(6) . . .
112(5) . . .
123(6) . . .
126(6) . . .
127(6) . . .
138(6) . . .
128(6) . . .
133(6) . . .
127(6) . . .
127(6) . . .
133(6) . . .
113(5) . . .
113(6) . . .
128(6) . . .
121(6) . . .
123(6) . . .
121(6) . . .
140(6) . . .
129(6) . . .
128(6) . . .
127(6) . . .
116(6) . . .
113(6) . . .
115(6) . . .
115(6) . . .
137(6) . . .
131(6) . . .
136(6) . . .
122(6) . . .
134(6) . . .
125(6) . . .
143(6) . . .
136(6) . . .
110(6) . . .
131(6) . . .
127(6) . . .
134(6) . . .
137(6) . . .
132(6) . . .
130(6) . . .
126(6) . . .
122(6) . . .
123(6) . . .
128(6) . . .
116(6) . . .
137(6) . . .
135(6) . . .
138(6) . . .
130(6) . . .
118(6) . . .
125(6) . . .
126(6) . . .
121(6) . . .
116(6) . . .
134(6) . . .
123(6) . . .
127(6) . . .
118(6) . . .
128(6) . . .
119(6) . . .
123(6) . . .
131(6) . . .
121(6) . . .
141(7) . . .
134(6) . . .
134(6) . . .
126(6) . . .
123(6) . . .
137(6) . . .
126(6) . . .
123(6) . . .
127(6) . . .
127(6) . . .
128(6) . . .
119(6) . . .
117(6) . . .
134(6) . . .
103(5) . . .
127(6) . . .
126(6) . . .
115(6) . . .
120(6) . . .
136(6) . . .
122(6) . . .
133(6) . . .
120(6) . . .
132(6) . . .
112(6) . . .
116(6) . . .
115(6) . . .
124(6) . . .
117(6) . . .
123(6) . . .
121(6) . . .
116(6) . . .
116(6) . . .
114(6) . . .
121(6) . . .
128(6) . . .
133(6) . . .
110(5) . . .
113(6) . . .
123(6) . . .
112(6) . . .
121(6) . . .
114(6) . . .
130(6) . . .
127(6) . . .
130(6) . . .
107(5) . . .
122(6) . . .
129(6) . . .
136(6) . . .
122(6) . . .
123(6) . . .
124(6) . . .
108(6) . . .
132(6) . . .
110(5) . . .
110(5) . . .
106(5) . . .
134(6) . . .
122(6) . . .
120(6) . . .
133(6) . . .
131(6) . . .
143(6) . . .
119(6) . . .
118(6) . . .
109(5) . . .
131(6) . . .
128(6) . . .
113(6) . . .
118(6) . . .
133(6) . . .
141(6) . . .
138(6) . . .
125(6) . . .
139(6) . . .
128(6) . . .
123(6) . . .
116(6) . . .
115(6) . . .
120(6) . . .
143(6) . . .
123(6) . . .
110(6) . . .
131(6) . . .
123(6) . . .
121(6) . . .
121(6) . . .
117(6) . . .
120(6) . . .
126(6) . . .
115(6) . . .
120(6) . . .
124(6) . . .
138(6) . . .
135(6) . . .
127(6) . . .
116(6) . . .
123(6) . . .
112(5) . . .
139(6) . . .
123(6) . . .
129(6) . . .
124(6) . . .
119(6) . . .
116(6) . . .
131(6) . . .
129(6) . . .
126(6) . . .
112(6) . . .
121(6) . . .
112(6) . . .
126(6) . . .
144(6) . . .
132(6) . . .
120(6) . . .
121(6) . . .
122(6) . . .
125(6) . . .
132(6) . . .
117(6) . . .
108(5) . . .
134(6) . . .
125(6) . . .
107(5) . . .
112(6) . . .
117(6) . . .
115(6) . . .
114(6) . . .
120(6) . . .
119(6) . . .
120(6) . . .
122(6) . . .
139(6) . . .
133(6) . . .
133(6) . . .
124(6) . . .
113(6) . . .
98(5) . . .
121(6) . . .
115(6) . . .
108(5) . . .
108(6) . . .
114(6) . . .
117(6) . . .
119(6) . . .
121(6) . . .
122(6) . . .
122(6) . . .
127(6) . . .
134(6) . . .
137(6) . . .
125(6) . . .
130(6) . . .
126(6) . . .
124(6) . . .
130(6) . . .
120(6) . . .
135(6) . . .
139(6) . . .
124(6) . . .
131(6) . . .
127(6) . . .
132(6) . . .
113(6) . . .
127(6) . . .
130(6) . . .
129(6) . . .
120(6) . . .
118(6) . . .
116(6) . . .
109(5) . . .
130(6) . . .
124(6) . . .
113(6) . . .
123(6) . . .
129(6) . . .
130(6) . . .
115(6) . . .
106(5) . . .
113(6) . . .
130(6) . . .
110(5) . . .
135(6) . . .
124(6) . . .
115(6) . . .
123(6) . . .
127(6) . . .
118(6) . . .
117(6) . . .
124(6) . . .
124(6) . . .
114(6) . . .
128(6) . . .
124(6) . . .
119(6) . . .
139(7) . . .
130(6) . . .
135(6) . . .
118(6) . . .
113(6) . . .
131(6) . . .
122(6) . . .
124(6) . . .
121(6) . . .
107(6) . . .
115(6) . . .
115(6) . . .
117(6) . . .
117(6) . . .
118(6) . . .
112(6) . . .
145(7) . . .
121(6) . . .
118(6) . . .
114(6) . . .
118(6) . . .
114(6) . . .
126(6) . . .
124(6) . . .
125(6) . . .
117(6) . . .
124(6) . . .
122(6) . . .
124(6) . . .
124(6) . . .
124(6) . . .
115(6) . . .
111(5) . . .
122(6) . . .
114(6) . . .
128(6) . . .
132(6) . . .
115(6) . . .
119(6) . . .
137(7) . . .
136(6) . . .
127(6) . . .
114(6) . . .
131(6) . . .
134(6) . . .
138(6) . . .
135(6) . . .
105(5) . . .
129(6) . . .
114(6) . . .
111(6) . . .
122(6) . . .
124(6) . . .
109(6) . . .
120(6) . . .
119(6) . . .
106(5) . . .
109(5) . . .
118(6) . . .
115(6) . . .
113(6) . . .
113(6) . . .
130(6) . . .
115(6) . . .
127(6) . . .
126(6) . . .
109(5) . . .
119(6) . . .
121(6) . . .
134(6) . . .
138(6) . . .
111(5) . . .
110(6) . . .
114(6) . . .
109(6) . . .
120(6) . . .
135(6) . . .
122(6) . . .
135(6) . . .
121(6) . . .
123(6) . . .
116(6) . . .
126(6) . . .
131(6) . . .
124(6) . . .
118(6) . . .
112(6) . . .
115(6) . . .
108(6) . . .
115(6) . . .
119(6) . . .
130(6) . . .
129(6) . . .
114(6) . . .
130(6) . . .
127(6) . . .
117(6) . . .
115(6) . . .
117(6) . . .
124(6) . . .
117(6) . . .
118(6) . . .
110(6) . . .
141(7) . . .
126(6) . . .
116(6) . . .
116(6) . . .
113(6) . . .
123(6) . . .
105(5) . . .
111(5) . . .
128(6) . . .
143(6) . . .
122(6) . . .
130(6) . . .
124(6) . . .
116(6) . . .
116(6) . . .
124(6) . . .
109(6) . . .
125(6) . . .
119(6) . . .
117(6) . . .
112(6) . . .
120(6) . . .
121(6) . . .
111(5) . . .
129(6) . . .
126(6) . . .
120(6) . . .
108(5) . . .
120(6) . . .
122(6) . . .
122(6) . . .
119(6) . . .
103(5) . . .
112(6) . . .
119(6) . . .
109(6) . . .
102(5) . . .
116(6) . . .
110(5) . . .
123(6) . . .
115(6) . . .
121(6) . . .
116(6) . . .
112(6) . . .
112(6) . . .
125(6) . . .
127(6) . . .
115(6) . . .
123(6) . . .
138(7) . . .
112(6) . . .
113(6) . . .
112(5) . . .
116(6) . . .
125(6) . . .
122(6) . . .
132(6) . . .
121(6) . . .
115(6) . . .
110(6) . . .
117(6) . . .
108(5) . . .
132(6) . . .
122(6) . . .
111(6) . . .
131(6) . . .
124(6) . . .
128(6) . . .
134(6) . . .
130(6) . . .
137(6) . . .
129(6) . . .
127(6) . . .
120(6) . . .
123(6) . . .
129(6) . . .
124(6) . . .
126(6) . . .
119(6) . . .
124(6) . . .
128(6) . . .
115(6) . . .
116(6) . . .
114(6) . . .
129(6) . . .
114(6) . . .
111(5) . . .
120(6) . . .
127(6) . . .
113(6) . . .
111(6) . . .
127(6) . . .
124(6) . . .
119(6) . . .
129(6) . . .
129(6) . . .
117(6) . . .
125(6) . . .
122(6) . . .
134(6) . . .
122(6) . . .
125(6) . . .
117(6) . . .
118(6) . . .
113(6) . . .
109(5) . . .
108(6) . . .
116(6) . . .
112(6) . . .
116(6) . . .
117(6) . . .
127(6) . . .
127(6) . . .
122(6) . . .
108(6) . . .
125(6) . . .
128(6) . . .
106(6) . . .
115(6) . . .
118(6) . . .
121(6) . . .
130(6) . . .
134(6) . . .
118(6) . . .
127(6) . . .
124(6) . . .
115(6) . . .
126(6) . . .
114(6) . . .
131(6) . . .
134(6) . . .
117(6) . . .
115(6) . . .
115(6) . . .
119(6) . . .
116(6) . . .
104(5) . . .
117(6) . . .
121(6) . . .
131(6) . . .
137(6) . . .
108(5) . . .
119(6) . . .
102(5) . . .
119(6) . . .
120(6) . . .
118(6) . . .
112(6) . . .
128(6) . . .
113(6) . . .
114(6) . . .
110(6) . . .
131(6) . . .
122(6) . . .
111(5) . . .
124(6) . . .
135(6) . . .
115(6) . . .
111(5) . . .
107(5) . . .
120(6) . . .
112(6) . . .
106(6) . . .
123(6) . . .
100(5) . . .
123(6) . . .
114(6) . . .
122(6) . . .
116(6) . . .
115(6) . . .
127(6) . . .
123(6) . . .
120(6) . . .
102(5) . . .
111(6) . . .
123(6) . . .
123(6) . . .
114(6) . . .
125(6) . . .
127(6) . . .
104(5) . . .
119(6) . . .
108(5) . . .
122(6) . . .
116(6) . . .
136(6) . . .
112(6) . . .
119(6) . . .
128(6) . . .
110(5) . . .
104(5) . . .
124(6) . . .
122(6) . . .
116(6) . . .
113(6) . . .
121(6) . . .
121(6) . . .
111(6) . . .
120(6) . . .
114(6) . . .
114(6) . . .
116(6) . . .
133(6) . . .
116(6) . . .
122(6) . . .
92(5) . . .
126(6) . . .
101(6) . . .
133(6) . . .
148(6) . . .
107(5) . . .
120(6) . . .
114(6) . . .
118(6) . . .
113(6) . . .
109(6) . . .
127(6) . . .
113(6) . . .
127(6) . . .
121(6) . . .
111(6) . . .
113(6) . . .
136(6) . . .
116(6) . . .
112(6) . . .
107(6) . . .
114(6) . . .
105(5) . . .
120(6) . . .
120(6) . . .
130(6) . . .
128(6) . . .
113(6) . . .
116(6) . . .
105(5) . . .
106(6) . . .
112(6) . . .
123(6) . . .
116(6) . . .
116(6) . . .
122(6) . . .
116(6) . . .
119(6) . . .
117(6) . . .
115(6) . . .
135(7) . . .
122(6) . . .
135(6) . . .
124(6) . . .
127(6) . . .
124(6) . . .
126(6) . . .
130(6) . . .
118(6) . . .
131(6) . . .
130(6) . . .
127(6) . . .
108(5) . . .
113(6) . . .
107(6) . . .
104(6) . . .
126(6) . . .
121(6) . . .
126(6) . . .
110(6) . . .
135(6) . . .
123(6) . . .
113(6) . . .
106(5) . . .
131(6) . . .
123(6) . . .
116(6) . . .
123(6) . . .
128(6) . . .
103(5) . . .
113(6) . . .
117(6) . . .
130(6) . . .
119(6) . . .
114(6) . . .
129(6) . . .
118(6) . . .
132(6) . . .
118(6) . . .
126(6) . . .
119(6) . . .
122(6) . . .
132(6) . . .
130(6) . . .
115(6) . . .
112(6) . . .
119(6) . . .
115(6) . . .
128(6) . . .
120(6) . . .
120(6) . . .
131(6) . . .
136(6) . . .
121(6) . . .
123(6) . . .
110(6) . . .
111(5) . . .
111(6) . . .
113(6) . . .
120(6) . . .
114(6) . . .
126(6) . . .
122(6) . . .
123(6) . . .
120(6) . . .
121(6) . . .
113(6) . . .
104(5) . . .
112(6) . . .
116(6) . . .
124(6) . . .
103(5) . . .
113(6) . . .
118(6) . . .
117(6) . . .
118(6) . . .
118(6) . . .
125(6) . . .
125(6) . . .
123(6) . . .
120(6) . . .
116(6) . . .
118(6) . . .
115(6) . . .
118(6) . . .
124(6) . . .
124(6) . . .
117(6) . . .
105(6) . . .
106(5) . . .
103(5) . . .
128(6) . . .
127(6) . . .
113(6) . . .
114(6) . . .
113(6) . . .
113(5) . . .
116(6) . . .
132(6) . . .
125(6) . . .
128(6) . . .
119(6) . . .
129(6) . . .
121(6) . . .
121(6) . . .
115(6) . . .
115(6) . . .
113(6) . . .
116(6) . . .
107(5) . . .
116(6) . . .
115(6) . . .
105(5) . . .
124(6) . . .
125(6) . . .
126(6) . . .
110(5) . . .
122(6) . . .
122(6) . . .
118(6) . . .
108(5) . . .
106(5) . . .
123(6) . . .
126(6) . . .
118(6) . . .
124(6) . . .
116(6) . . .
116(6) . . .
127(6) . . .
116(6) . . .
115(5) . . .
128(6) . . .
122(6) . . .
125(6) . . .
125(6) . . .
109(5) . . .
120(6) . . .
111(6) . . .
111(6) . . .
112(6) . . .
113(6) . . .
136(6) . . .
120(6) . . .
107(6) . . .
110(5) . . .
107(5) . . .
103(6) . . .
120(6) . . .
114(6) . . .
104(5) . . .
102(5) . . .
132(6) . . .
124(6) . . .
116(6) . . .
116(6) . . .
118(6) . . .
119(6) . . .
119(6) . . .
108(6) . . .
123(6) . . .
124(6) . . .
123(6) . . .
105(6) . . .
111(6) . . .
110(5) . . .
126(6) . . .
117(6) . . .
138(7) . . .
126(6) . . .
108(5) . . .
104(5) . . .
113(6) . . .
122(6) . . .
106(6) . . .
115(6) . . .
111(6) . . .
119(6) . . .
113(6) . . .
120(6) . . .
108(5) . . .
121(6) . . .
125(6) . . .
103(5) . . .
117(6) . . .
108(5) . . .
122(6) . . .
113(6) . . .
123(6) . . .
102(5) . . .
115(6) . . .
112(6) . . .
112(6) . . .
129(6) . . .
134(6) . . .
113(6) . . .
109(6) . . .
112(6) . . .
111(6) . . .
103(5) . . .
106(5) . . .
109(6) . . .
116(6) . . .
98(5) . . .
114(6) . . .
124(6) . . .
120(6) . . .
118(6) . . .
129(6) . . .
129(6) . . .
126(6) . . .
102(5) . . .
113(6) . . .
116(6) . . .
124(6) . . .
115(6) . . .
117(6) . . .
114(6) . . .
95(5) . . .
114(6) . . .
134(6) . . .
115(6) . . .
103(5) . . .
111(6) . . .
104(5) . . .
112(6) . . .
109(6) . . .
107(6) . . .
120(6) . . .
116(6) . . .
115(6) . . .
112(6) . . .
121(6) . . .
120(6) . . .
121(6) . . .
135(6) . . .
126(6) . . .
111(6) . . .
109(5) . . .
123(6) . . .
120(6) . . .
112(6) . . .
117(6) . . .
114(6) . . .
118(6) . . .
115(6) . . .
113(6) . . .
124(6) . . .
130(6) . . .
118(6) . . .
127(6) . . .
116(6) . . .
115(6) . . .
117(6) . . .
104(5) . . .
120(6) . . .
114(6) . . .
97(5) . . .
113(5) . . .
118(6) . . .
117(6) . . .
122(6) . . .
116(6) . . .
105(5) . . .
117(6) . . .
116(6) . . .
107(6) . . .
118(6) . . .
110(5) . . .
112(6) . . .
109(6) . . .
119(6) . . .
117(6) . . .
105(5) . . .
109(6) . . .
119(6) . . .
109(6) . . .
118(6) . . .
129(6) . . .
112(6) . . .
108(6) . . .
105(5) . . .
108(6) . . .
113(5) . . .
109(6) . . .
128(6) . . .
110(6) . . .
115(6) . . .
102(5) . . .
119(6) . . .
102(6) . . .
100(5) . . .
126(6) . . .
114(6) . . .
111(6) . . .
112(6) . . .
96(5) . . .
101(5) . . .
98(5) . . .
105(6) . . .
116(6) . . .
115(6) . . .
119(6) . . .
105(5) . . .
112(6) . . .
113(6) . . .
126(6) . . .
126(6) . . .
120(6) . . .
117(6) . . .
106(6) . . .
115(6) . . .
110(5) . . .
107(5) . . .
104(5) . . .
106(6) . . .
118(6) . . .
106(5) . . .
115(6) . . .
117(6) . . .
106(6) . . .
98(5) . . .
109(5) . . .
113(6) . . .
102(5) . . .
100(5) . . .
107(6) . . .
126(6) . . .
132(6) . . .
109(6) . . .
105(5) . . .
104(5) . . .
107(5) . . .
99(5) . . .
111(6) . . .
124(6) . . .
107(5) . . .
108(5) . . .
117(6) . . .
104(5) . . .
110(6) . . .
120(6) . . .
119(6) . . .
118(6) . . .
115(6) . . .
112(6) . . .
111(6) . . .
102(5) . . .
109(6) . . .
123(6) . . .
115(6) . . .
117(6) . . .
100(5) . . .
118(6) . . .
103(6) . . .
112(6) . . .
118(6) . . .
106(5) . . .
135(6) . . .
104(6) . . .
106(6) . . .
109(5) . . .
102(5) . . .
112(6) . . .
113(6) . . .
111(6) . . .
102(5) . . .
101(5) . . .
107(5) . . .
118(6) . . .
106(6) . . .
119(6) . . .
131(6) . . .
114(6) . . .
112(6) . . .
110(6) . . .
118(6) . . .
133(6) . . .
110(6) . . .
106(6) . . .
121(6) . . .
116(6) . . .
122(6) . . .
127(6) . . .
117(6) . . .
124(6) . . .
116(6) . . .
118(6) . . .
113(6) . . .
117(6) . . .
116(6) . . .
119(6) . . .
117(6) . . .
111(6) . . .
98(5) . . .
120(6) . . .
100(5) . . .
116(6) . . .
107(6) . . .
103(5) . . .
103(5) . . .
103(5) . . .
134(6) . . .
119(6) . . .
128(6) . . .
112(5) . . .
112(6) . . .
108(6) . . .
95(5) . . .
119(6) . . .
120(6) . . .
110(5) . . .
124(6) . . .
111(6) . . .
100(5) . . .
114(6) . . .
105(5) . . .
118(6) . . .
114(6) . . .
108(6) . . .
104(5) . . .
106(5) . . .
128(6) . . .
109(6) . . .
114(6) . . .
105(5) . . .
105(5) . . .
119(6) . . .
108(6) . . .
124(6) . . .
120(6) . . .
120(6) . . .
107(6) . . .
105(6) . . .
98(5) . . .
117(6) . . .
111(6) . . .
122(6) . . .
113(6) . . .
111(6) . . .
116(6) . . .
117(6) . . .
98(6) . . .
95(5) . . .
109(5) . . .
114(6) . . .
118(6) . . .
115(6) . . .
98(5) . . .
108(5) . . .
108(5) . . .
116(6) . . .
116(6) . . .
116(6) . . .
113(6) . . .
120(6) . . .
107(5) . . .
121(6) . . .
119(6) . . .
117(6) . . .
123(6) . . .
127(6) . . .
115(6) . . .
109(6) . . .
114(6) . . .
110(5) . . .
112(6) . . .
108(6) . . .
110(6) . . .
121(6) . . .
118(6) . . .
102(5) . . .
101(5) . . .
113(6) . . .
124(6) . . .
110(6) . . .
104(6) . . .
109(6) . . .
112(6) . . .
104(5) . . .
122(6) . . .
107(5) . . .
115(6) . . .
104(5) . . .
101(5) . . .
101(5) . . .
117(6) . . .
119(6) . . .
108(5) . . .
117(6) . . .
136(6) . . .
114(6) . . .
109(6) . . .
106(5) . . .
125(6) . . .
106(6) . . .
120(6) . . .
119(6) . . .
108(5) . . .
120(6) . . .
110(6) . . .
133(7) . . .
108(6) . . .
117(6) . . .
108(6) . . .
119(6) . . .
97(5) . . .
108(6) . . .
104(5) . . .
103(5) . . .
95(5) . . .
112(6) . . .
117(6) . . .
112(6) . . .
112(6) . . .
102(5) . . .
105(6) . . .
115(6) . . .
110(5) . . .
116(6) . . .
103(6) . . .
113(6) . . .
109(5) . . .
106(5) . . .
105(6) . . .
103(6) . . .
113(6) . . .
122(6) . . .
131(6) . . .
114(6) . . .
125(6) . . .
120(6) . . .
123(6) . . .
116(6) . . .
109(6) . . .
120(6) . . .
113(6) . . .
109(6) . . .
110(5) . . .
116(6) . . .
121(6) . . .
115(6) . . .
104(5) . . .
125(6) . . .
93(5) . . .
110(6) . . .
114(6) . . .
133(6) . . .
122(6) . . .
120(6) . . .
113(6) . . .
113(6) . . .
127(6) . . .
120(6) . . .
114(6) . . .
105(6) . . .
119(6) . . .
122(6) . . .
116(6) . . .
120(6) . . .
123(6) . . .
128(6) . . .
118(6) . . .
112(6) . . .
108(6) . . .
106(6) . . .
113(6) . . .
98(5) . . .
105(5) . . .
118(6) . . .
111(6) . . .
108(6) . . .
125(6) . . .
123(6) . . .
105(5) . . .
102(5) . . .
118(6) . . .
105(5) . . .
106(5) . . .
105(6) . . .
107(6) . . .
100(5) . . .
102(5) . . .
104(6) . . .
104(5) . . .
118(6) . . .
113(6) . . .
121(6) . . .
102(5) . . .
107(6) . . .
115(6) . . .
118(6) . . .
123(6) . . .
118(6) . . .
124(6) . . .
122(6) . . .
123(6) . . .
111(6) . . .
109(6) . . .
118(6) . . .
110(6) . . .
110(6) . . .
114(6) . . .
113(6) . . .
111(6) . . .
105(6) . . .
105(5) . . .
130(6) . . .
106(6) . . .
113(6) . . .
108(5) . . .
113(5) . . .
103(5) . . .
134(6) . . .
118(6) . . .
116(6) . . .
114(6) . . .
99(5) . . .
127(6) . . .
119(6) . . .
110(6) . . .
113(5) . . .
115(6) . . .
106(6) . . .
101(5) . . .
120(6) . . .
103(5) . . .
101(5) . . .
111(6) . . .
100(5) . . .
122(6) . . .
109(5) . . .
103(6) . . .
100(5) . . .
110(6) . . .
111(6) . . .
106(5) . . .
107(6) . . .
108(6) . . .
109(6) . . .
100(5) . . .
118(6) . . .
108(6) . . .
106(6) . . .
108(6) . . .
116(6) . . .
108(5) . . .
102(5) . . .
107(6) . . .
109(6) . . .
98(5) . . .
116(6) . . .
123(6) . . .
94(5) . . .
107(5) . . .
120(6) . . .
108(5) . . .
113(6) . . .
115(6) . . .
114(6) . . .
112(5) . . .
109(5) . . .
117(6) . . .
129(6) . . .
102(5) . . .
105(5) . . .
117(6) . . .
109(6) . . .
105(6) . . .
93(5) . . .
96(5) . . .
106(6) . . .
90(5) . . .
103(6) . . .
110(6) . . .
119(6) . . .
111(5) . . .
115(6) . . .
110(6) . . .
110(6) . . .
112(5) . . .
116(6) . . .
114(6) . . .
123(6) . . .
114(6) . . .
112(5) . . .
100(5) . . .
111(6) . . .
110(5) . . .
121(6) . . .
88(5) . . .
100(5) . . .
124(6) . . .
113(6) . . .
103(5) . . .
113(6) . . .
118(6) . . .
121(6) . . .
119(6) . . .
100(5) . . .
96(5) . . .
97(5) . . .
99(5) . . .
109(6) . . .
112(6) . . .
89(5) . . .
118(6) . . .
97(5) . . .
114(6) . . .
105(5) . . .
117(6) . . .
118(6) . . .
111(6) . . .
101(5) . . .
114(6) . . .
105(5) . . .
107(6) . . .
92(5) . . .
103(5) . . .
112(6) . . .
119(6) . . .
105(5) . . .
117(6) . . .
104(6) . . .
120(6) . . .
108(5) . . .
106(6) . . .
105(6) . . .
100(5) . . .
106(5) . . .
97(5) . . .
101(6) . . .
109(6) . . .
102(5) . . .
101(5) . . .
122(6) . . .
114(6) . . .
105(6) . . .
118(6) . . .
103(5) . . .
112(6) . . .
120(6) . . .
111(6) . . .
119(6) . . .
106(5) . . .
114(6) . . .
104(6) . . .
106(6) . . .
109(6) . . .
114(6) . . .
112(6) . . .
110(6) . . .
102(5) . . .
122(6) . . .
111(6) . . .
115(6) . . .
104(6) . . .
111(6) . . .
105(5) . . .
109(5) . . .
117(6) . . .
114(6) . . .
102(6) . . .
115(6) . . .
115(6) . . .
113(6) . . .
117(6) . . .
90(5) . . .
90(5) . . .
114(6) . . .
116(6) . . .
107(6) . . .
98(5) . . .
105(5) . . .
115(6) . . .
98(5) . . .
116(6) . . .
113(6) . . .
96(5) . . .
101(5) . . .
108(6) . . .
98(5) . . .
107(5) . . .
107(5) . . .
123(6) . . .
121(6) . . .
105(5) . . .
119(6) . . .
109(5) . . .
104(5) . . .
108(6) . . .
103(5) . . .
113(6) . . .
99(5) . . .
103(5) . . .
109(6) . . .
103(6) . . .
105(5) . . .
112(5) . . .
99(5) . . .
109(6) . . .
109(6) . . .
104(5) . . .
108(5) . . .
108(5) . . .
108(6) . . .
112(6) . . .
113(6) . . .
107(5) . . .
118(6) . . .
97(6) . . .
112(6) . . .
109(5) . . .
103(5) . . .
115(6) . . .
115(6) . . .
110(6) . . .
94(5) . . .
109(5) . . .
107(5) . . .
108(6) . . .
116(6) . . .
110(5) . . .
116(6) . . .
109(5) . . .
112(6) . . .
121(6) . . .
114(6) . . .
115(6) . . .
110(6) . . .
104(6) . . .
107(6) . . .
108(5) . . .
120(6) . . .
114(6) . . .
110(6) . . .
106(5) . . .
116(6) . . .
114(6) . . .
114(6) . . .
107(5) . . .
108(5) . . .
114(6) . . .
118(6) . . .
101(5) . . .
108(6) . . .
110(6) . . .
110(6) . . .
106(6) . . .
126(6) . . .
114(6) . . .
100(5) . . .
111(5) . . .
96(5) . . .
108(6) . . .
100(5) . . .
96(5) . . .
115(6) . . .
119(6) . . .
117(6) . . .
100(5) . . .
94(5) . . .
97(5) . . .
109(6) . . .
116(6) . . .
103(6) . . .
111(6) . . .
121(6) . . .
99(5) . . .
112(6) . . .
109(5) . . .
107(5) . . .
106(5) . . .
115(6) . . .
106(6) . . .
103(5) . . .
96(5) . . .
83(5) . . .
99(5) . . .
103(6) . . .
111(6) . . .
106(5) . . .
111(6) . . .
110(6) . . .
122(6) . . .
108(5) . . .
119(6) . . .
87(5) . . .
93(5) . . .
103(5) . . .
109(5) . . .
111(5) . . .
119(6) . . .
116(6) . . .
97(5) . . .
116(6) . . .
104(5) . . .
130(6) . . .
117(6) . . .
101(5) . . .
107(6) . . .
93(5) . . .
109(6) . . .
107(6) . . .
110(6) . . .
94(5) . . .
105(5) . . .
105(5) . . .
115(6) . . .
106(6) . . .
93(5) . . .
119(6) . . .
116(6) . . .
91(5) . . .
104(5) . . .
109(5) . . .
89(5) . . .
104(6) . . .
98(6) . . .
108(6) . . .
107(5) . . .
101(5) . . .
99(5) . . .
103(6) . . .
105(5) . . .
109(5) . . .
110(6) . . .
95(5) . . .
118(6) . . .
111(6) . . .
92(5) . . .
104(5) . . .
113(6) . . .
115(6) . . .
117(6) . . .
97(5) . . .
120(6) . . .
123(6) . . .
100(5) . . .
105(6) . . .
114(6) . . .
111(6) . . .
108(6) . . .
114(6) . . .
102(5) . . .
101(5) . . .
106(5) . . .
103(5) . . .
109(6) . . .
98(5) . . .
104(5) . . .
94(5) . . .
103(6) . . .
88(5) . . .
93(5) . . .
90(5) . . .
96(5) . . .
105(6) . . .
105(6) . . .
100(5) . . .
101(5) . . .
100(5) . . .
91(5) . . .
96(5) . . .
98(5) . . .
103(5) . . .
115(6) . . .
113(6) . . .
105(6) . . .
97(5) . . .
113(6) . . .
102(5) . . .
98(6) . . .
93(5) . . .
91(5) . . .
102(5) . . .
113(6) . . .
101(6) . . .
107(6) . . .
110(5) . . .
104(5) . . .
120(6) . . .
109(6) . . .
85(5) . . .
110(5) . . .
107(5) . . .
102(5) . . .
109(6) . . .
108(6) . . .
83(5) . . .
107(6) . . .
108(6) . . .
100(5) . . .
112(6) . . .
104(5) . . .
95(5) . . .
103(6) . . .
111(6) . . .
113(5) . . .
99(5) . . .
105(6) . . .
95(5) . . .
111(6) . . .
108(5) . . .
106(5) . . .
113(6) . . .
105(6) . . .
102(5) . . .
106(5) . . .
107(5) . . .
97(5) . . .
101(6) . . .
104(5) . . .
118(6) . . .
116(6) . . .
118(6) . . .
120(6) . . .
109(6) . . .
105(5) . . .
89(5) . . .
97(5) . . .
102(5) . . .
98(5) . . .
91(5) . . .
109(5) . . .
111(6) . . .
115(6) . . .
121(6) . . .
94(5) . . .
105(5) . . .
102(5) . . .
116(6) . . .
111(6) . . .
113(6) . . .
104(5) . . .
115(6) . . .
111(6) . . .
116(6) . . .
108(5) . . .
106(5) . . .
99(5) . . .
101(5) . . .
98(5) . . .
106(5) . . .
110(6) . . .
100(6) . . .
104(5) . . .
116(6) . . .
114(6) . . .
113(6) . . .
119(6) . . .
115(6) . . .
112(6) . . .
108(5) . . .
118(6) . . .
119(6) . . .
115(6) . . .
112(5) . . .
114(6) . . .
103(5) . . .
102(5) . . .
106(5) . . .
114(6) . . .
106(5) . . .
106(6) . . .
97(5) . . .
92(5) . . .
97(5) . . .
112(6) . . .
113(6) . . .
92(5) . . .
99(6) . . .
107(5) . . .
108(6) . . .
108(6) . . .
113(6) . . .
119(6) . . .
106(5) . . .
101(5) . . .
109(6) . . .
91(5) . . .
107(6) . . .
99(5) . . .
122(6) . . .
103(5) . . .
113(6) . . .
108(6) . . .
108(5) . . .
96(5) . . .
103(5) . . .
96(5) . . .
94(5) . . .
112(6) . . .
114(6) . . .
101(5) . . .
115(6) . . .
95(5) . . .
101(5) . . .
98(5) . . .
93(5) . . .
99(5) . . .
105(6) . . .
94(5) . . .
109(6) . . .
99(6) . . .
115(6) . . .
120(6) . . .
101(5) . . .
113(6) . . .
118(6) . . .
109(6) . . .
104(5) . . .
93(5) . . .
107(6) . . .
93(5) . . .
114(6) . . .
109(5) . . .
104(5) . . .
90(5) . . .
94(5) . . .
110(6) . . .
105(5) . . .
98(5) . . .
110(6) . . .
97(5) . . .
107(6) . . .
96(5) . . .
105(5) . . .
120(6) . . .
100(5) . . .
94(5) . . .
87(5) . . .
102(5) . . .
109(6) . . .
96(5) . . .
107(6) . . .
103(5) . . .
98(5) . . .
106(6) . . .
103(5) . . .
101(5) . . .
102(5) . . .
112(6) . . .
88(5) . . .
88(5) . . .
92(5) . . .
92(5) . . .
102(6) . . .
96(6) . . .
95(5) . . .
109(6) . . .
102(5) . . .
102(6) . . .
111(6) . . .
113(6) . . .
101(5) . . .
97(5) . . .
113(6) . . .
97(5) . . .
112(6) . . .
99(5) . . .
102(5) . . .
112(6) . . .
88(5) . . .
102(5) . . .
111(5) . . .
100(5) . . .
95(5) . . .
106(6) . . .
94(5) . . .
96(5) . . .
102(5) . . .
91(5) . . .
96(5) . . .
106(6) . . .
106(5) . . .
106(5) . . .
100(5) . . .
109(6) . . .
87(5) . . .
106(5) . . .
104(5) . . .
96(5) . . .
119(6) . . .
109(6) . . .
98(5) . . .
114(6) . . .
117(6) . . .
89(5) . . .
106(5) . . .
102(5) . . .
110(6) . . .
97(5) . . .
98(5) . . .
94(5) . . .
103(5) . . .
104(5) . . .
103(6) . . .
95(5) . . .
112(6) . . .
108(5) . . .
91(5) . . .
98(5) . . .
92(5) . . .
100(5) . . .
115(6) . . .
114(6) . . .
108(6) . . .
104(6) . . .
90(5) . . .
100(5) . . .
104(5) . . .
111(6) . . .
98(5) . . .
99(5) . . .
101(5) . . .
99(5) . . .
109(6) . . .
102(5) . . .
104(5) . . .
108(5) . . .
98(5) . . .
99(5) . . .
113(6) . . .
106(5) . . .
101(5) . . .
102(5) . . .
112(6) . . .
89(5) . . .
95(5) . . .
109(6) . . .
102(5) . . .
118(6) . . .
101(5) . . .
104(5) . . .
93(5) . . .
92(5) . . .
99(5) . . .
100(5) . . .
115(6) . . .
100(5) . . .
104(5) . . .
107(5) . . .
110(5) . . .
108(5) . . .
95(5) . . .
103(6) . . .
99(5) . . .
91(5) . . .
102(5) . . .
104(5) . . .
102(6) . . .
87(5) . . .
93(5) . . .
114(6) . . .
104(6) . . .
119(6) . . .
109(5) . . .
89(5) . . .
109(5) . . .
104(6) . . .
95(6) . . .
94(5) . . .
109(6) . . .
104(5) . . .
104(5) . . .
95(5) . . .
96(5) . . .
109(6) . . .
116(6) . . .
113(6) . . .
97(5) . . .
91(5) . . .
112(5) . . .
103(5) . . .
104(6) . . .
87(5) . . .
101(5) . . .
97(5) . . .
90(5) . . .
103(6) . . .
97(5) . . .
104(5) . . .
111(5) . . .
116(6) . . .
119(6) . . .
93(5) . . .
108(5) . . .
98(5) . . .
99(5) . . .
101(5) . . .
107(6) . . .
107(5) . . .
115(6) . . .
91(5) . . .
96(5) . . .
111(6) . . .
94(5) . . .
90(5) . . .
99(6) . . .
100(5) . . .
97(5) . . .
97(5) . . .
87(5) . . .
106(5) . . .
98(6) . . .
85(5) . . .
98(5) . . .
100(5) . . .
95(5) . . .
94(5) . . .
111(6) . . .
106(5) . . .
102(5) . . .
86(5) . . .
103(6) . . .
105(6) . . .
87(5) . . .
98(5) . . .
103(5) . . .
108(6) . . .
101(6) . . .
106(5) . . .
99(5) . . .
110(6) . . .
96(5) . . .
108(6) . . .
107(5) . . .
100(5) . . .
102(5) . . .
97(5) . . .
100(5) . . .
92(5) . . .
103(6) . . .
111(6) . . .
108(6) . . .
105(5) . . .
111(5) . . .
117(6) . . .
94(5) . . .
94(5) . . .
92(5) . . .
114(6) . . .
99(5) . . .
103(6) . . .
103(6) . . .
99(5) . . .
91(5) . . .
97(5) . . .
101(6) . . .
100(5) . . .
96(5) . . .
91(5) . . .
81(5) . . .
98(6) . . .
113(6) . . .
89(5) . . .
95(5) . . .
95(5) . . .
97(6) . . .
94(5) . . .
94(5) . . .
117(6) . . .
101(5) . . .
93(5) . . .
98(5) . . .
93(5) . . .
111(5) . . .
91(5) . . .
85(5) . . .
94(5) . . .
104(5) . . .
101(5) . . .
95(5) . . .
92(5) . . .
105(5) . . .
100(5) . . .
102(5) . . .
98(5) . . .
103(6) . . .
94(5) . . .
104(5) . . .
104(5) . . .
109(6) . . .
86(5) . . .
104(5) . . .
106(5) . . .
100(5) . . .
104(5) . . .
122(6) . . .
98(5) . . .
109(5) . . .
102(5) . . .
98(5) . . .
107(6) . . .
95(5) . . .
87(5) . . .
105(6) . . .
109(6) . . .
106(6) . . .
94(5) . . .
99(5) . . .
107(6) . . .
104(5) . . .
99(5) . . .
93(5) . . .
100(5) . . .
94(5) . . .
93(5) . . .
96(5) . . .
89(5) . . .
101(5) . . .
106(5) . . .
117(6) . . .
101(5) . . .
112(5) . . .
119(6) . . .
95(5) . . .
100(6) . . .
94(5) . . .
99(5) . . .
101(5) . . .
112(6) . . .
97(5) . . .
98(5) . . .
96(5) . . .
92(5) . . .
97(5) . . .
90(5) . . .
109(6) . . .
104(5) . . .
96(5) . . .
91(5) . . .
96(5) . . .
87(5) . . .
80(5) . . .
92(5) . . .
105(6) . . .
93(5) . . .
91(5) . . .
103(5) . . .
103(5) . . .
106(6) . . .
104(6) . . .
96(5) . . .
92(5) . . .
118(6) . . .
103(6) . . .
84(5) . . .
93(5) . . .
102(5) . . .
87(5) . . .
104(6) . . .
97(5) . . .
112(6) . . .
93(5) . . .
99(5) . . .
93(5) . . .
100(5) . . .
104(5) . . .
97(5) . . .
104(6) . . .
97(5) . . .
105(6) . . .
101(5) . . .
99(5) . . .
99(5) . . .
113(6) . . .
98(6) . . .
111(5) . . .
99(5) . . .
96(5) . . .
89(5) . . .
100(6) . . .
107(5) . . .
105(5) . . .
99(5) . . .
89(5) . . .
97(5) . . .
92(5) . . .
105(5) . . .
107(6) . . .
97(5) . . .
103(5) . . .
106(5) . . .
108(5) . . .
90(5) . . .
108(6) . . .
96(5) . . .
92(5) . . .
103(5) . . .
109(6) . . .
103(5) . . .
125(6) . . .
106(5) . . .
103(5) . . .
106(6) . . .
91(5) . . .
96(5) . . .
97(5) . . .
80(5) . . .
100(6) . . .
96(5) . . .
98(5) . . .
101(5) . . .
100(5) . . .
95(5) . . .
98(5) . . .
99(5) . . .
97(5) . . .
105(6) . . .
95(6) . . .
106(6) . . .
105(5) . . .
115(6) . . .
97(5) . . .
95(5) . . .
90(5) . . .
112(5) . . .
109(5) . . .
100(5) . . .
93(5) . . .
92(5) . . .
92(5) . . .
87(5) . . .
108(6) . . .
110(6) . . .
99(5) . . .
101(5) . . .
98(5) . . .
86(5) . . .
104(6) . . .
86(5) . . .
94(5) . . .
95(5) . . .
90(5) . . .
96(5) . . .
106(6) . . .
100(5) . . .
112(6) . . .
110(6) . . .
108(6) . . .
97(5) . . .
105(5) . . .
105(5) . . .
97(5) . . .
86(5) . . .
83(5) . . .
109(5) . . .
92(5) . . .
112(6) . . .
103(6) . . .
91(5) . . .
103(5) . . .
97(5) . . .
93(5) . . .
93(5) . . .
94(5) . . .
98(5) . . .
111(6) . . .
105(6) . . .
97(5) . . .
99(5) . . .
100(5) . . .
91(5) . . .
89(5) . . .
93(5) . . .
110(5) . . .
96(5) . . .
89(5) . . .
102(6) . . .
97(5) . . .
92(5) . . .
103(5) . . .
91(5) . . .
94(5) . . .
99(5) . . .
103(5) . . .
96(5) . . .
99(5) . . .
106(6) . . .
96(5) . . .
91(5) . . .
111(6) . . .
104(6) . . .
88(5) . . .
93(5) . . .
105(5) . . .
110(6) . . .
92(5) . . .
96(5) . . .
87(5) . . .
90(5) . . .
97(5) . . .
105(6) . . .
102(5) . . .
96(5) . . .
104(5) . . .
97(5) . . .
100(5) . . .
101(5) . . .
89(5) . . .
103(5) . . .
92(5) . . .
88(5) . . .
92(5) . . .
98(5) . . .
88(5) . . .
89(5) . . .
97(6) . . .
98(5) . . .
89(5) . . .
95(5) . . .
103(6) . . .
97(5) . . .
95(5) . . .
100(5) . . .
101(5) . . .
105(5) . . .
100(6) . . .
96(5) . . .
94(5) . . .
86(5) . . .
105(5) . . .
93(5) . . .
103(5) . . .
107(5) . . .
108(5) . . .
95(5) . . .
92(5) . . .
101(5) . . .
96(5) . . .
101(5) . . .
126(6) . . .
114(6) . . .
96(5) . . .
102(5) . . .
97(5) . . .
100(5) . . .
97(5) . . .
91(5) . . .
88(5) . . .
100(5) . . .
102(5) . . .
94(5) . . .
94(5) . . .
90(5) . . .
90(5) . . .
94(5) . . .
93(5) . . .
97(5) . . .
89(5) . . .
100(6) . . .
92(5) . . .
96(5) . . .
106(5) . . .
108(5) . . .
100(5) . . .
105(6) . . .
100(5) . . .
108(5) . . .
90(5) . . .
103(5) . . .
108(6) . . .
104(5) . . .
100(5) . . .
100(5) . . .
84(5) . . .
89(5) . . .
113(6) . . .
94(5) . . .
95(5) . . .
92(5) . . .
99(5) . . .
109(6) . . .
105(5) . . .
97(5) . . .
87(5) . . .
90(5) . . .
100(5) . . .
105(5) . . .
85(5) . . .
87(5) . . .
109(6) . . .
102(5) . . .
115(6) . . .
98(5) . . .
105(6) . . .
98(5) . . .
98(5) . . .
108(5) . . .
98(5) . . .
94(5) . . .
97(5) . . .
107(6) . . .
101(5) . . .
99(5) . . .
111(6) . . .
109(6) . . .
91(5) . . .
95(5) . . .
97(5) . . .
102(6) . . .
94(5) . . .
88(5) . . .
101(5) . . .
109(6) . . .
107(6) . . .
94(5) . . .
98(5) . . .
102(5) . . .
88(5) . . .
82(5) . . .
84(5) . . .
90(5) . . .
98(5) . . .
108(6) . . .
104(6) . . .
105(5) . . .
77(5) . . .
99(5) . . .
93(5) . . .
99(5) . . .
108(6) . . .
114(6) . . .
90(5) . . .
109(6) . . .
115(6) . . .
86(5) . . .
99(5) . . .
101(5) . . .
100(5) . . .
111(6) . . .
102(5) . . .
109(5) . . .
102(5) . . .
95(5) . . .
87(5) . . .
98(5) . . .
90(5) . . .
90(5) . . .
106(6) . . .
106(6) . . .
95(5) . . .
95(5) . . .
88(5) . . .
103(6) . . .
118(6) . . .
95(5) . . .
85(5) . . .
85(5) . . .
102(6) . . .
104(6) . . .
91(5) . . .
95(5) . . .
98(5) . . .
98(5) . . .
108(6) . . .
97(5) . . .
108(5) . . .
99(5) . . .
101(6) . . .
98(5) . . .
107(5) . . .
98(5) . . .
108(6) . . .
95(5) . . .
95(5) . . .
87(5) . . .
95(5) . . .
95(5) . . .
96(6) . . .
109(6) . . .
89(5) . . .
87(5) . . .
99(5) . . .
101(5) . . .
95(5) . . .
89(5) . . .
84(5) . . .
93(5) . . .
89(5) . . .
76(5) . . .
98(5) . . .
93(5) . . .
83(5) . . .
104(6) . . .
86(5) . . .
91(5) . . .
96(5) . . .
95(5) . . .
98(5) . . .
96(5) . . .
86(5) . . .
98(5) . . .
89(5) . . .
105(6) . . .
83(5) . . .
96(5) . . .
81(5) . . .
102(5) . . .
97(5) . . .
87(5) . . .
89(5) . . .
101(5) . . .
98(6) . . .
94(5) . . .
100(5) . . .
99(5) . . .
94(5) . . .
99(6) . . .
84(5) . . .
81(5) . . .
99(5) . . .
98(5) . . .
86(5) . . .
86(5) . . .
92(5) . . .
91(5) . . .
86(5) . . .
92(5) . . .
100(6) . . .
99(5) . . .
94(5) . . .
101(5) . . .
82(5) . . .
86(5) . . .
86(5) . . .
90(5) . . .
95(5) . . .
107(6) . . .
94(5) . . .
99(5) . . .
88(5) . . .
99(5) . . .
94(5) . . .
104(5) . . .
107(5) . . .
109(6) . . .
90(5) . . .
97(6) . . .
95(5) . . .
93(5) . . .
105(5) . . .
95(5) . . .
98(5) . . .
97(5) . . .
92(5) . . .
91(5) . . .
101(6) . . .
82(5) . . .
87(5) . . .
92(5) . . .
91(5) . . .
116(6) . . .
107(6) . . .
106(5) . . .
90(5) . . .
98(5) . . .
108(6) . . .
97(5) . . .
100(5) . . .
81(5) . . .
85(5) . . .
87(5) . . .
108(6) . . .
92(5) . . .
105(5) . . .
103(5) . . .
92(5) . . .
93(5) . . .
109(5) . . .
83(5) . . .
93(5) . . .
96(5) . . .
87(5) . . .
83(5) . . .
99(5) . . .
93(5) . . .
98(6) . . .
100(5) . . .
101(5) . . .
110(6) . . .
93(5) . . .
86(5) . . .
82(5) . . .
90(5) . . .
106(5) . . .
95(5) . . .
94(5) . . .
106(5) . . .
102(5) . . .
84(5) . . .
87(5) . . .
95(5) . . .
98(5) . . .
93(5) . . .
103(5) . . .
123(6) . . .
100(5) . . .
104(5) . . .
93(5) . . .
92(5) . . .
95(6) . . .
95(5) . . .
81(5) . . .
74(4) . . .
100(5) . . .
110(6) . . .
99(5) . . .
86(5) . . .
91(5) . . .
99(5) . . .
88(5) . . .
100(5) . . .
91(5) . . .
89(5) . . .
88(5) . . .
81(5) . . .
87(5) . . .
93(5) . . .
92(5) . . .
84(5) . . .
90(5) . . .
96(5) . . .
96(5) . . .
90(5) . . .
101(6) . . .
101(5) . . .
94(5) . . .
95(5) . . .
92(5) . . .
102(5) . . .
88(5) . . .
83(5) . . .
94(5) . . .
92(5) . . .
87(5) . . .
94(5) . . .
109(6) . . .
95(5) . . .
92(5) . . .
96(5) . . .
96(5) . . .
81(5) . . .
106(5) . . .
103(6) . . .
93(5) . . .
91(5) . . .
98(5) . . .
87(5) . . .
95(5) . . .
77(5) . . .
81(5) . . .
98(5) . . .
103(5) . . .
86(5) . . .
93(5) . . .
104(5) . . .
92(5) . . .
116(6) . . .
98(5) . . .
103(6) . . .
98(5) . . .
91(5) . . .
93(5) . . .
94(5) . . .
87(5) . . .
90(5) . . .
99(5) . . .
102(5) . . .
95(5) . . .
96(6) . . .
83(5) . . .
81(5) . . .
94(5) . . .
92(5) . . .
88(5) . . .
91(5) . . .
91(5) . . .
101(5) . . .
96(5) . . .
91(5) . . .
100(5) . . .
100(5) . . .
84(5) . . .
95(5) . . .
100(6) . . .
100(6) . . .
89(5) . . .
72(5) . . .
89(5) . . .
91(5) . . .
85(5) . . .
91(5) . . .
91(5) . . .
96(5) . . .
99(5) . . .
90(5) . . .
90(5) . . .
81(5) . . .
76(5) . . .
87(5) . . .
95(5) . . .
91(5) . . .
99(5) . . .
94(5) . . .
96(5) . . .
96(5) . . .
86(5) . . .
111(6) . . .
98(5) . . .
94(5) . . .
88(5) . . .
99(5) . . .
92(5) . . .
87(5) . . .
85(5) . . .
92(5) . . .
98(5) . . .
112(6) . . .
94(5) . . .
98(5) . . .
96(5) . . .
95(5) . . .
95(5) . . .
108(6) . . .
98(5) . . .
99(5) . . .
106(5) . . .
97(5) . . .
92(5) . . .
93(5) . . .
91(5) . . .
98(5) . . .
90(5) . . .
94(5) . . .
101(5) . . .
101(5) . . .
99(5) . . .
92(5) . . .
104(6) . . .
93(5) . . .
97(5) . . .
90(5) . . .
88(5) . . .
101(6) . . .
92(5) . . .
86(5) . . .
101(5) . . .
86(5) . . .
95(5) . . .
102(5) . . .
92(5) . . .
83(5) . . .
82(5) . . .
96(5) . . .
85(5) . . .
89(5) . . .
94(5) . . .
90(5) . . .
93(5) . . .
91(5) . . .
109(5) . . .
92(5) . . .
95(6) . . .
98(5) . . .
102(5) . . .
97(5) . . .
90(5) . . .
90(5) . . .
106(5) . . .
106(5) . . .
96(5) . . .
99(5) . . .
88(5) . . .
92(5) . . .
94(5) . . .
95(5) . . .
97(5) . . .
96(5) . . .
98(5) . . .
105(5) . . .
99(5) . . .
99(5) . . .
88(5) . . .
96(5) . . .
107(5) . . .
99(5) . . .
91(5) . . .
90(5) . . .
97(5) . . .
93(5) . . .
88(5) . . .
84(5) . . .
90(5) . . .
90(5) . . .
92(5) . . .
91(5) . . .
101(5) . . .
100(5) . . .
98(5) . . .
96(5) . . .
112(6) . . .
101(6) . . .
87(5) . . .
84(5) . . .
100(5) . . .
97(5) . . .
93(5) . . .
88(5) . . .
86(5) . . .
85(5) . . .
104(6) . . .
97(6) . . .
104(5) . . .
104(5) . . .
93(5) . . .
102(6) . . .
85(5) . . .
94(5) . . .
88(5) . . .
97(5) . . .
92(5) . . .
95(5) . . .
98(5) . . .
91(5) . . .
97(5) . . .
98(5) . . .
97(5) . . .
89(5) . . .
96(5) . . .
102(5) . . .
89(5) . . .
110(6) . . .
113(6) . . .
83(5) . . .
83(5) . . .
94(5) . . .
103(5) . . .
100(5) . . .
95(5) . . .
94(5) . . .
98(5) . . .
105(6) . . .
96(5) . . .
95(5) . . .
91(5) . . .
94(5) . . .
107(6) . . .
94(5) . . .
99(5) . . .
87(5) . . .
99(5) . . .
91(5) . . .
91(5) . . .
92(5) . . .
108(6) . . .
101(6) . . .
99(5) . . .
99(5) . . .
98(5) . . .
97(5) . . .
97(6) . . .
85(5) . . .
97(5) . . .
86(5) . . .
85(5) . . .
85(5) . . .
96(5) . . .
85(5) . . .
99(5) . . .
90(5) . . .
91(5) . . .
95(5) . . .
95(5) . . .
101(5) . . .
94(5) . . .
100(5) . . .
87(5) . . .
90(5) . . .
101(5) . . .
97(5) . . .
103(6) . . .
86(5) . . .
85(5) . . .
93(5) . . .
102(5) . . .
115(6) . . .
90(5) . . .
95(5) . . .
96(5) . . .
92(5) . . .
84(5) . . .
88(5) . . .
104(5) . . .
112(6) . . .
94(5) . . .
100(5) . . .
96(5) . . .
89(5) . . .
100(6) . . .
100(5) . . .
90(5) . . .
87(5) . . .
83(5) . . .
85(5) . . .
92(5) . . .
97(5) . . .
90(5) . . .
105(5) . . .
87(5) . . .
94(6) . . .
99(6) . . .
94(5) . . .
88(5) . . .
90(5) . . .
84(5) . . .
91(5) . . .
92(5) . . .
93(5) . . .
99(5) . . .
87(5) . . .
83(5) . . .
84(5) . . .
83(5) . . .
87(5) . . .
95(5) . . .
93(5) . . .
94(5) . . .
92(5) . . .
93(5) . . .
105(6) . . .
91(5) . . .
112(5) . . .
107(6) . . .
93(5) . . .
91(5) . . .
94(5) . . .
94(5) . . .
103(5) . . .
83(5) . . .
81(5) . . .
90(5) . . .
102(5) . . .
108(6) . . .
108(6) . . .
88(5) . . .
94(5) . . .
103(5) . . .
94(5) . . .
99(5) . . .
99(5) . . .
102(5) . . .
92(5) . . .
110(6) . . .
103(6) . . .
98(5) . . .
89(5) . . .
89(5) . . .
87(5) . . .
84(5) . . .
88(5) . . .
97(5) . . .
100(5) . . .
84(5) . . .
101(6) . . .
105(5) . . .
94(5) . . .
110(5) . . .
91(5) . . .
91(5) . . .
104(6) . . .
114(6) . . .
95(5) . . .
97(5) . . .
86(5) . . .
84(5) . . .
90(5) . . .
98(5) . . .
100(6) . . .
98(5) . . .
99(5) . . .
99(5) . . .
99(5) . . .
97(5) . . .
90(5) . . .
95(5) . . .
100(5) . . .
89(5) . . .
86(5) . . .
90(5) . . .
97(5) . . .
98(5) . . .
81(5) . . .
87(5) . . .
94(5) . . .
94(5) . . .
92(5) . . .
94(5) . . .
93(5) . . .
90(5) . . .
103(6) . . .
97(5) . . .
93(5) . . .
97(6) . . .
90(5) . . .
97(5) . . .
95(5) . . .
91(5) . . .
90(5) . . .
101(5) . . .
100(5) . . .
91(5) . . .
93(5) . . .
89(5) . . .
94(5) . . .
87(5) . . .
102(5) . . .
109(6) . . .
83(5) . . .
98(5) . . .
94(5) . . .
99(5) . . .
99(5) . . .
83(5) . . .
92(5) . . .
98(5) . . .
92(5) . . .
79(5) . . .
89(5) . . .
83(5) . . .
98(5) . . .
92(5) . . .
91(5) . . .
104(6) . . .
87(5) . . .
89(5) . . .
88(5) . . .
89(5) . . .
84(5) . . .
95(5) . . .
100(5) . . .
89(5) . . .
90(5) . . .
95(5) . . .
80(5) . . .
95(5) . . .
96(5) . . .
94(5) . . .
96(5) . . .
96(5) . . .
90(5) . . .
96(5) . . .
108(6) . . .
89(5) . . .
88(5) . . .
90(5) . . .
101(5) . . .
85(5) . . .
74(4) . . .
89(5) . . .
91(5) . . .
102(5) . . .
98(6) . . .
75(5) . . .
73(4) . . .
94(5) . . .
95(5) . . .
91(5) . . .
98(5) . . .
91(5) . . .
113(5) . . .
100(5) . . .
111(6) . . .
104(5) . . .
107(5) . . .
93(5) . . .
93(5) . . .
97(5) . . .
77(4) . . .
93(5) . . .
103(5) . . .
96(5) . . .
88(5) . . .
95(5) . . .
98(5) . . .
97(5) . . .
84(5) . . .
96(5) . . .
97(5) . . .
83(5) . . .
87(5) . . .
93(5) . . .
80(5) . . .
98(5) . . .
87(5) . . .
86(5) . . .
87(5) . . .
100(6) . . .
82(5) . . .
89(5) . . .
90(5) . . .
90(5) . . .
89(5) . . .
87(5) . . .
96(5) . . .
96(5) . . .
90(5) . . .
95(5) . . .
81(5) . . .
85(5) . . .
92(5) . . .
92(5) . . .
92(5) . . .
105(5) . . .
97(5) . . .
93(5) . . .
95(6) . . .
95(5) . . .
103(5) . . .
94(5) . . .
82(5) . . .
100(6) . . .
88(5) . . .
93(5) . . .
89(5) . . .
89(5) . . .
93(5) . . .
92(5) . . .
76(5) . . .
79(5) . . .
83(5) . . .
102(6) . . .
79(5) . . .
102(5) . . .
95(5) . . .
101(6) . . .
88(5) . . .
85(5) . . .
88(5) . . .
107(5) . . .
100(5) . . .
100(5) . . .
95(5) . . .
99(5) . . .
87(5) . . .
94(5) . . .
97(5) . . .
89(5) . . .
93(5) . . .
90(5) . . .
77(5) . . .
89(5) . . .
88(5) . . .
100(5) . . .
86(5) . . .
103(6) . . .
84(5) . . .
80(5) . . .
92(5) . . .
86(5) . . .
93(5) . . .
110(6) . . .
99(5) . . .
90(5) . . .
94(5) . . .
84(5) . . .
84(5) . . .
97(5) . . .
79(5) . . .
90(5) . . .
87(5) . . .
87(5) . . .
100(5) . . .
86(5) . . .
89(5) . . .
86(5) . . .
86(5) . . .
88(5) . . .
96(5) . . .
95(5) . . .
109(6) . . .
102(5) . . .
79(5) . . .
89(5) . . .
90(5) . . .
88(5) . . .
85(5) . . .
94(5) . . .
87(5) . . .
85(5) . . .
88(5) . . .
96(5) . . .
91(5) . . .
90(5) . . .
89(5) . . .
88(5) . . .
84(5) . . .
89(5) . . .
91(5) . . .
96(5) . . .
89(5) . . .
94(5) . . .
91(5) . . .
96(5) . . .
102(6) . . .
103(6) . . .
93(5) . . .
94(5) . . .
86(5) . . .
87(5) . . .
88(5) . . .
91(5) . . .
96(5) . . .
99(5) . . .
87(5) . . .
92(5) . . .
103(5) . . .
84(5) . . .
80(5) . . .
95(5) . . .
92(5) . . .
107(5) . . .
100(5) . . .
97(5) . . .
96(5) . . .
91(5) . . .
96(5) . . .
96(5) . . .
82(5) . . .
93(5) . . .
92(5) . . .
78(5) . . .
84(5) . . .
83(5) . . .
87(5) . . .
93(5) . . .
94(5) . . .
91(5) . . .
81(5) . . .
85(5) . . .
84(5) . . .
95(5) . . .
84(5) . . .
90(5) . . .
100(5) . . .
99(5) . . .
95(5) . . .
87(5) . . .
95(5) . . .
98(5) . . .
84(5) . . .
91(5) . . .
102(6) . . .
93(5) . . .
84(5) . . .
84(5) . . .
102(5) . . .
88(5) . . .
101(6) . . .
94(5) . . .
93(5) . . .
92(5) . . .
88(5) . . .
85(5) . . .
89(5) . . .
81(5) . . .
81(5) . . .
81(5) . . .
75(5) . . .
82(5) . . .
94(5) . . .
81(5) . . .
78(5) . . .
86(5) . . .
87(5) . . .
87(5) . . .
80(5) . . .
94(5) . . .
89(5) . . .
96(5) . . .
88(5) . . .
78(5) . . .
86(5) . . .
90(5) . . .
85(5) . . .
95(5) . . .
87(5) . . .
97(5) . . .
90(5) . . .
85(5) . . .
82(5) . . .
93(5) . . .
97(5) . . .
90(5) . . .
92(5) . . .
80(5) . . .
88(5) . . .
81(5) . . .
94(5) . . .
87(5) . . .
81(5) . . .
79(5) . . .
87(5) . . .
84(5) . . .
87(5) . . .
80(5) . . .
85(5) . . .
89(5) . . .
93(5) . . .
82(5) . . .
93(5) . . .
89(5) . . .
84(5) . . .
96(5) . . .
86(5) . . .
84(5) . . .
90(5) . . .
85(5) . . .
81(5) . . .
80(5) . . .
81(5) . . .
76(4) . . .
93(5) . . .
86(5) . . .
86(5) . . .
82(5) . . .
102(6) . . .
86(5) . . .
85(5) . . .
80(5) . . .
98(5) . . .
87(5) . . .
93(5) . . .
88(5) . . .
88(5) . . .
96(5) . . .
86(5) . . .
80(5) . . .
97(5) . . .
86(5) . . .
81(5) . . .
86(5) . . .
102(5) . . .
86(5) . . .
99(5) . . .
100(5) . . .
109(6) . . .
89(5) . . .
88(5) . . .
80(5) . . .
82(5) . . .
86(5) . . .
88(5) . . .
90(5) . . .
77(5) . . .
100(5) . . .
90(5) . . .
84(5) . . .
79(5) . . .
98(5) . . .
99(5) . . .
91(5) . . .
96(5) . . .
81(5) . . .
73(4) . . .
90(5) . . .
78(5) . . .
83(5) . . .
88(5) . . .
88(5) . . .
90(5) . . .
83(5) . . .
85(5) . . .
95(5) . . .
94(5) . . .
86(5) . . .
83(5) . . .
83(5) . . .
89(5) . . .
87(5) . . .
81(5) . . .
87(5) . . .
96(5) . . .
95(5) . . .
91(5) . . .
99(6) . . .
92(5) . . .
89(5) . . .
86(5) . . .
112(6) . . .
93(5) . . .
85(5) . . .
86(5) . . .
90(5) . . .
93(5) . . .
85(5) . . .
77(5) . . .
87(5) . . .
94(5) . . .
90(5) . . .
84(5) . . .
99(5) . . .
100(5) . . .
92(5) . . .
88(5) . . .
93(5) . . .
96(5) . . .
88(5) . . .
94(5) . . .
79(5) . . .
89(5) . . .
84(5) . . .
85(5) . . .
85(5) . . .
81(5) . . .
82(5) . . .
89(5) . . .
84(5) . . .
80(5) . . .
94(5) . . .
97(6) . . .
88(5) . . .
83(5) . . .
81(5) . . .
91(5) . . .
91(5) . . .
84(5) . . .
98(5) . . .
75(5) . . .
86(5) . . .
84(5) . . .
89(6) . . .
79(5) . . .
91(5) . . .
107(6) . . .
92(5) . . .
76(5) . . .
76(5) . . .
96(5) . . .
90(5) . . .
90(5) . . .
84(5) . . .
82(5) . . .
97(5) . . .
101(5) . . .
98(5) . . .
99(5) . . .
85(5) . . .
94(5) . . .
89(5) . . .
88(5) . . .
72(5) . . .
101(5) . . .
92(5) . . .
92(5) . . .
87(5) . . .
86(5) . . .
87(5) . . .
102(5) . . .
94(5) . . .
84(5) . . .
87(5) . . .
86(5) . . .
99(5) . . .
83(5) . . .
93(5) . . .
92(5) . . .
89(5) . . .
87(5) . . .
90(5) . . .
89(5) . . .
94(5) . . .
86(5) . . .
82(5) . . .
88(5) . . .
81(5) . . .
85(5) . . .
80(5) . . .
85(5) . . .
99(5) . . .
78(5) . . .
93(5) . . .
84(5) . . .
77(4) . . .
89(5) . . .
89(5) . . .
91(5) . . .
91(5) . . .
91(5) . . .
92(5) . . .
101(5) . . .
88(5) . . .
75(5) . . .
80(5) . . .
84(5) . . .
79(5) . . .
91(5) . . .
82(5) . . .
81(5) . . .
72(4) . . .
93(5) . . .
94(5) . . .
92(5) . . .
84(5) . . .
80(5) . . .
83(5) . . .
84(5) . . .
87(5) . . .
80(5) . . .
77(5) . . .
75(5) . . .
92(5) . . .
90(5) . . .
92(5) . . .
80(5) . . .
89(5) . . .
88(5) . . .
80(5) . . .
91(5) . . .
90(5) . . .
90(5) . . .
86(5) . . .
101(6) . . .
83(5) . . .
78(5) . . .
84(5) . . .
80(5) . . .
72(4) . . .
89(5) . . .
93(5) . . .
101(5) . . .
91(5) . . .
95(5) . . .
92(5) . . .
82(5) . . .
93(5) . . .
88(5) . . .
96(5) . . .
98(5) . . .
88(5) . . .
101(5) . . .
84(5) . . .
87(5) . . .
88(5) . . .
87(5) . . .
84(5) . . .
71(5) . . .
73(5) . . .
75(5) . . .
94(5) . . .
91(5) . . .
95(5) . . .
87(5) . . .
91(5) . . .
95(5) . . .
86(5) . . .
84(5) . . .
79(5) . . .
83(5) . . .
84(5) . . .
90(5) . . .
110(6) . . .
94(5) . . .
86(5) . . .
81(5) . . .
88(5) . . .
91(5) . . .
79(5) . . .
84(5) . . .
89(5) . . .
89(5) . . .
70(4) . . .
84(5) . . .
86(5) . . .
90(5) . . .
78(5) . . .
79(5) . . .
87(5) . . .
83(5) . . .
82(5) . . .
89(5) . . .
84(5) . . .
74(5) . . .
83(5) . . .
96(5) . . .
90(5) . . .
94(5) . . .
71(4) . . .
103(6) . . .
94(5) . . .
80(5) . . .
80(5) . . .
85(5) . . .
81(5) . . .
76(5) . . .
91(5) . . .
78(5) . . .
87(5) . . .
78(5) . . .
95(5) . . .
86(5) . . .
90(5) . . .
83(5) . . .
102(5) . . .
83(5) . . .
88(5) . . .
83(5) . . .
83(5) . . .
84(5) . . .
78(5) . . .
77(5) . . .
75(5) . . .
88(5) . . .
89(5) . . .
85(5) . . .
89(5) . . .
85(5) . . .
98(5) . . .
87(5) . . .
83(5) . . .
83(5) . . .
88(5) . . .
96(5) . . .
86(5) . . .
90(5) . . .
97(5) . . .
88(5) . . .
88(5) . . .
88(5) . . .
91(5) . . .
84(5) . . .
78(5) . . .
80(5) . . .
85(5) . . .
80(5) . . .
78(5) . . .
89(5) . . .
85(5) . . .
102(5) . . .
102(5) . . .
92(5) . . .
83(5) . . .
82(5) . . .
81(5) . . .
79(5) . . .
93(5) . . .
91(5) . . .
89(5) . . .
94(5) . . .
84(5) . . .
76(5) . . .
78(5) . . .
89(5) . . .
77(5) . . .
85(5) . . .
88(5) . . .
73(5) . . .
77(5) . . .
83(5) . . .
86(5) . . .
87(5) . . .
86(5) . . .
70(4) . . .
87(5) . . .
80(5) . . .
91(5) . . .
76(5) . . .
87(5) . . .
79(5) . . .
88(5) . . .
88(5) . . .
95(5) . . .
96(5) . . .
91(5) . . .
77(5) . . .
86(5) . . .
86(5) . . .
71(4) . . .
80(5) . . .
93(5) . . .
102(6) . . .
92(5) . . .
91(5) . . .
80(5) . . .
84(5) . . .
88(5) . . .
102(5) . . .
89(5) . . .
82(5) . . .
93(6) . . .
89(5) . . .
93(5) . . .
92(5) . . .
82(5) . . .
84(5) . . .
90(5) . . .
81(5) . . .
79(5) . . .
80(5) . . .
92(5) . . .
75(5) . . .
78(5) . . .
93(5) . . .
83(5) . . .
100(5) . . .
82(5) . . .
85(5) . . .
83(5) . . .
78(5) . . .
84(5) . . .
86(5) . . .
96(5) . . .
94(5) . . .
77(5) . . .
84(5) . . .
91(5) . . .
88(5) . . .
91(5) . . .
83(5) . . .
82(5) . . .
85(5) . . .
79(5) . . .
89(5) . . .
88(5) . . .
83(5) . . .
83(5) . . .
86(5) . . .
73(4) . . .
85(5) . . .
76(5) . . .
85(5) . . .
76(5) . . .
87(5) . . .
85(5) . . .
78(5) . . .
75(5) . . .
85(5) . . .
89(5) . . .
74(5) . . .
75(5) . . .
80(5) . . .
82(5) . . .
83(5) . . .
94(5) . . .
85(5) . . .
91(5) . . .
85(5) . . .
87(5) . . .
83(5) . . .
84(5) . . .
75(5) . . .
88(5) . . .
90(5) . . .
75(5) . . .
82(5) . . .
97(5) . . .
86(5) . . .
84(5) . . .
86(5) . . .
108(6) . . .
92(5) . . .
84(5) . . .
87(5) . . .
90(5) . . .
81(5) . . .
88(5) . . .
74(4) . . .
79(5) . . .
104(6) . . .
83(5) . . .
82(5) . . .
79(5) . . .
82(5) . . .
80(5) . . .
80(5) . . .
86(5) . . .
88(5) . . .
75(5) . . .
93(5) . . .
87(5) . . .
80(5) . . .
80(5) . . .
101(5) . . .
85(5) . . .
94(5) . . .
84(5) . . .
89(5) . . .
84(5) . . .
89(5) . . .
70(5) . . .
83(5) . . .
83(5) . . .
78(5) . . .
74(5) . . .
77(5) . . .
70(4) . . .
82(5) . . .
89(5) . . .
83(5) . . .
92(5) . . .
78(5) . . .
78(5) . . .
85(5) . . .
90(5) . . .
82(5) . . .
71(4) . . .
85(5) . . .
78(5) . . .
91(5) . . .
95(5) . . .
95(5) . . .
88(5) . . .
88(5) . . .
90(5) . . .
85(5) . . .
81(5) . . .
79(5) . . .
74(5) . . .
82(5) . . .
79(5) . . .
92(5) . . .
80(5) . . .
89(5) . . .
91(5) . . .
93(5) . . .
83(5) . . .
90(5) . . .
69(5) . . .
71(4) . . .
91(5) . . .
81(5) . . .
87(5) . . .
85(5) . . .
86(5) . . .
81(5) . . .
78(5) . . .
94(6) . . .
77(5) . . .
70(5) . . .
71(4) . . .
96(5) . . .
87(5) . . .
92(5) . . .
87(5) . . .
98(5) . . .
89(5) . . .
93(5) . . .
88(5) . . .
88(5) . . .
97(5) . . .
96(5) . . .
88(5) . . .
82(5) . . .
83(5) . . .
77(5) . . .
73(5) . . .
83(5) . . .
90(5) . . .
82(5) . . .
81(5) . . .
83(5) . . .
83(5) . . .
82(5) . . .
90(5) . . .
92(5) . . .
79(5) . . .
77(5) . . .
85(5) . . .
89(5) . . .
80(5) . . .
88(5) . . .
71(5) . . .
89(5) . . .
98(5) . . .
87(5) . . .
78(5) . . .
86(5) . . .
88(5) . . .
82(5) . . .
80(5) . . .
86(5) . . .
85(5) . . .
81(5) . . .
85(5) . . .
91(5) . . .
88(5) . . .
83(5) . . .
96(5) . . .
90(5) . . .
89(5) . . .
94(5) . . .
80(5) . . .
86(5) . . .
91(5) . . .
88(5) . . .
86(5) . . .
83(5) . . .
85(5) . . .
94(5) . . .
92(5) . . .
84(5) . . .
77(5) . . .
76(5) . . .
82(5) . . .
82(5) . . .
81(5) . . .
84(5) . . .
81(5) . . .
82(5) . . .
82(5) . . .
82(5) . . .
84(5) . . .
88(5) . . .
78(5) . . .
83(5) . . .
82(5) . . .
80(5) . . .
75(5) . . .
79(5) . . .
83(5) . . .
85(5) . . .
80(5) . . .
80(5) . . .
88(5) . . .
77(5) . . .
89(5) . . .
78(5) . . .
75(4) . . .
85(5) . . .
72(4) . . .
72(5) . . .
85(5) . . .
78(5) . . .
76(5) . . .
83(5) . . .
74(5) . . .
76(5) . . .
72(4) . . .
79(5) . . .
89(5) . . .
95(5) . . .
83(5) . . .
83(5) . . .
88(5) . . .
90(5) . . .
78(5) . . .
73(5) . . .
83(5) . . .
82(5) . . .
73(5) . . .
84(5) . . .
77(5) . . .
79(5) . . .
80(5) . . .
85(5) . . .
86(5) . . .
84(5) . . .
92(5) . . .
74(5) . . .
84(5) . . .
70(5) . . .
72(5) . . .
80(5) . . .
83(5) . . .
89(5) . . .
82(5) . . .
79(5) . . .
76(5) . . .
76(5) . . .
72(5) . . .
77(5) . . .
89(5) . . .
83(5) . . .
89(5) . . .
88(5) . . .
89(5) . . .
92(5) . . .
77(5) . . .
76(5) . . .
85(5) . . .
85(5) . . .
77(5) . . .
96(5) . . .
76(5) . . .
79(5) . . .
70(5) . . .
92(5) . . .
84(5) . . .
76(5) . . .
86(5) . . .
85(5) . . .
81(5) . . .
89(5) . . .
85(5) . . .
78(5) . . .
80(5) . . .
80(5) . . .
79(5) . . .
92(5) . . .
90(5) . . .
82(5) . . .
77(5) . . .
85(5) . . .
82(5) . . .
90(5) . . .
81(5) . . .
81(5) . . .
84(5) . . .
104(6) . . .
86(5) . . .
80(5) . . .
88(5) . . .
88(5) . . .
88(5) . . .
88(5) . . .
74(5) . . .
89(5) . . .
83(5) . . .
79(5) . . .
80(5) . . .
72(4) . . .
66(4) . . .
81(5) . . .
82(5) . . .
73(4) . . .
74(4) . . .
77(5) . . .
86(5) . . .
88(5) . . .
75(5) . . .
78(5) . . .
93(5) . . .
84(5) . . .
79(5) . . .
83(5) . . .
88(5) . . .
90(5) . . .
79(5) . . .
94(6) . . .
92(5) . . .
82(5) . . .
91(5) . . .
79(5) . . .
86(5) . . .
91(5) . . .
78(5) . . .
92(5) . . .
66(4) . . .
77(5) . . .
80(5) . . .
78(5) . . .
89(5) . . .
76(5) . . .
80(5) . . .
88(5) . . .
85(5) . . .
83(5) . . .
90(5) . . .
75(5) . . .
83(5) . . .
70(4) . . .
74(5) . . .
76(5) . . .
81(5) . . .
74(4) . . .
79(5) . . .
89(5) . . .
69(4) . . .
85(5) . . .
84(5) . . .
76(5) . . .
90(5) . . .
82(5) . . .
85(5) . . .
99(5) . . .
85(5) . . .
72(4) . . .
74(5) . . .
82(5) . . .
96(5) . . .
86(5) . . .
85(5) . . .
85(5) . . .
88(5) . . .
78(5) . . .
73(5) . . .
76(5) . . .
75(5) . . .
80(5) . . .
81(5) . . .
91(5) . . .
84(5) . . .
87(5) . . .
90(5) . . .
78(5) . . .
82(5) . . .
76(5) . . .
72(4) . . .
100(5) . . .
82(5) . . .
87(5) . . .
77(5) . . .
78(5) . . .
67(4) . . .
74(4) . . .
86(5) . . .
79(5) . . .
87(5) . . .
84(5) . . .
89(5) . . .
76(5) . . .
94(6) . . .
80(5) . . .
81(5) . . .
100(5) . . .
85(5) . . .
92(6) . . .
76(5) . . .
74(4) . . .
85(5) . . .
79(5) . . .
81(5) . . .
82(5) . . .
79(5) . . .
90(5) . . .
75(5) . . .
82(5) . . .
85(5) . . .
76(5) . . .
72(4) . . .
75(5) . . .
90(5) . . .
79(5) . . .
78(5) . . .
74(4) . . .
86(5) . . .
81(5) . . .
84(5) . . .
81(5) . . .
85(5) . . .
82(5) . . .
80(5) . . .
90(5) . . .
86(5) . . .
91(5) . . .
83(5) . . .
80(5) . . .
69(4) . . .
86(5) . . .
88(5) . . .
75(5) . . .
82(5) . . .
83(5) . . .
74(4) . . .
91(5) . . .
89(5) . . .
74(5) . . .
78(5) . . .
88(5) . . .
84(5) . . .
70(5) . . .
73(5) . . .
85(5) . . .
85(5) . . .
87(5) . . .
79(5) . . .
84(5) . . .
92(5) . . .
79(5) . . .
74(5) . . .
77(5) . . .
69(4) . . .
97(5) . . .
86(5) . . .
79(5) . . .
80(5) . . .
82(5) . . .
89(5) . . .
89(5) . . .
84(5) . . .
90(5) . . .
74(5) . . .
99(5) . . .
79(5) . . .
81(5) . . .
71(5) . . .
86(5) . . .
82(5) . . .
76(5) . . .
67(4) . . .
74(5) . . .
87(5) . . .
81(5) . . .
63(4) . . .
70(4) . . .
87(5) . . .
84(5) . . .
76(5) . . .
89(5) . . .
85(5) . . .
83(5) . . .
90(5) . . .
77(5) . . .
82(5) . . .
78(5) . . .
77(5) . . .
81(5) . . .
74(5) . . .
62(4) . . .
81(5) . . .
80(5) . . .
73(4) . . .
81(5) . . .
77(5) . . .
94(5) . . .
82(5) . . .
79(5) . . .
85(5) . . .
84(5) . . .
85(5) . . .
83(5) . . .
72(4) . . .
86(5) . . .
81(5) . . .
88(5) . . .
84(5) . . .
85(5) . . .
82(5) . . .
75(5) . . .
83(5) . . .
85(5) . . .
79(5) . . .
74(4) . . .
85(5) . . .
83(5) . . .
85(5) . . .
86(5) . . .
85(5) . . .
76(5) . . .
83(5) . . .
83(5) . . .
80(5) . . .
77(5) . . .
91(5) . . .
82(5) . . .
73(5) . . .
88(5) . . .
74(5) . . .
79(5) . . .
78(5) . . .
74(5) . . .
81(5) . . .
86(5) . . .
79(5) . . .
81(5) . . .
87(5) . . .
78(5) . . .
78(5) . . .
68(4) . . .
77(5) . . .
83(5) . . .
71(4) . . .
79(5) . . .
84(5) . . .
82(5) . . .
84(5) . . .
77(5) . . .
82(5) . . .
80(5) . . .
83(5) . . .
84(5) . . .
76(5) . . .
69(4) . . .
80(5) . . .
82(5) . . .
76(5) . . .
90(5) . . .
96(5) . . .
74(5) . . .
102(6) . . .
85(5) . . .
84(5) . . .
75(5) . . .
82(5) . . .
79(5) . . .
78(5) . . .
81(5) . . .
74(5) . . .
82(5) . . .
81(5) . . .
87(5) . . .
98(5) . . .
78(5) . . .
75(5) . . .
82(5) . . .
74(5) . . .
83(5) . . .
85(5) . . .
83(5) . . .
78(5) . . .
80(5) . . .
85(5) . . .
71(5) . . .
88(5) . . .
75(5) . . .
81(5) . . .
82(5) . . .
73(5) . . .
76(5) . . .
84(5) . . .
85(5) . . .
82(5) . . .
77(5) . . .
78(5) . . .
80(5) . . .
80(5) . . .
79(5) . . .
84(5) . . .
91(5) . . .
84(5) . . .
82(5) . . .
82(5) . . .
72(5) . . .
75(5) . . .
93(5) . . .
87(5) . . .
77(5) . . .
85(5) . . .
77(5) . . .
77(5) . . .
80(5) . . .
82(5) . . .
83(5) . . .
82(5) . . .
96(5) . . .
84(5) . . .
82(5) . . .
91(5) . . .
86(5) . . .
78(5) . . .
75(4) . . .
83(5) . . .
74(5) . . .
68(4) . . .
82(5) . . .
93(5) . . .
80(5) . . .
78(5) . . .
85(5) . . .
85(5) . . .
72(4) . . .
72(5) . . .
79(5) . . .
78(5) . . .
90(5) . . .
69(4) . . .
86(5) . . .
92(5) . . .
87(5) . . .
70(4) . . .
76(5) . . .
83(5) . . .
87(5) . . .
71(5) . . .
85(5) . . .
81(5) . . .
78(5) . . .
90(5) . . .
62(4) . . .
89(5) . . .
75(5) . . .
88(5) . . .
101(5) . . .
90(5) . . .
97(5) . . .
86(5) . . .
77(5) . . .
79(5) . . .
88(5) . . .
77(5) . . .
73(5) . . .
67(4) . . .
79(5) . . .
65(4) . . .
68(4) . . .
74(4) . . .
70(4) . . .
85(5) . . .
88(5) . . .
71(4) . . .
82(5) . . .
74(5) . . .
74(5) . . .
82(5) . . .
85(5) . . .
79(5) . . .
80(5) . . .
89(5) . . .
84(5) . . .
73(4) . . .
81(5) . . .
69(5) . . .
74(4) . . .
90(5) . . .
81(5) . . .
73(5) . . .
70(5) . . .
80(5) . . .
89(5) . . .
80(5) . . .
64(4) . . .
76(5) . . .
76(5) . . .
78(5) . . .
81(5) . . .
81(5) . . .
82(5) . . .
67(4) . . .
78(5) . . .
64(4) . . .
73(5) . . .
93(5) . . .
85(5) . . .
81(5) . . .
80(5) . . .
82(5) . . .
71(4) . . .
70(4) . . .
75(4) . . .
73(5) . . .
73(5) . . .
78(5) . . .
74(4) . . .
81(5) . . .
78(5) . . .
73(5) . . .
75(5) . . .
76(4) . . .
74(4) . . .
87(5) . . .
85(5) . . .
84(5) . . .
83(5) . . .
89(5) . . .
69(4) . . .
80(5) . . .
71(4) . . .
89(5) . . .
70(4) . . .
77(5) . . .
85(5) . . .
85(5) . . .
84(5) . . .
84(5) . . .
77(5) . . .
57(4) . . .
79(5) . . .
88(5) . . .
83(5) . . .
65(4) . . .
74(5) . . .
79(5) . . .
75(4) . . .
71(4) . . .
78(5) . . .
88(5) . . .
74(4) . . .
86(5) . . .
89(5) . . .
81(5) . . .
69(4) . . .
88(5) . . .
80(5) . . .
95(5) . . .
89(5) . . .
78(5) . . .
76(5) . . .
79(5) . . .
82(5) . . .
81(5) . . .
74(5) . . .
87(5) . . .
88(5) . . .
80(5) . . .
85(5) . . .
86(5) . . .
81(5) . . .
78(5) . . .
66(4) . . .
96(6) . . .
76(5) . . .
86(5) . . .
79(5) . . .
84(5) . . .
106(6) . . .
65(4) . . .
72(4) . . .
83(5) . . .
78(5) . . .
71(5) . . .
73(5) . . .
95(5) . . .
91(5) . . .
82(5) . . .
78(5) . . .
81(5) . . .
80(5) . . .
101(5) . . .
88(5) . . .
75(5) . . .
90(5) . . .
67(4) . . .
72(5) . . .
76(5) . . .
81(5) . . .
83(5) . . .
93(5) . . .
79(5) . . .
82(5) . . .
85(5) . . .
75(5) . . .
66(4) . . .
79(5) . . .
96(5) . . .
82(5) . . .
68(4) . . .
67(4) . . .
86(5) . . .
75(5) . . .
80(5) . . .
88(5) . . .
82(5) . . .
67(4) . . .
85(5) . . .
85(5) . . .
73(4) . . .
65(4) . . .
75(5) . . .
85(5) . . .
77(5) . . .
82(5) . . .
66(4) . . .
72(4) . . .
65(4) . . .
84(5) . . .
82(5) . . .
74(5) . . .
77(5) . . .
89(5) . . .
72(5) . . .
70(4) . . .
80(5) . . .
82(5) . . .
57(4) . . .
74(5) . . .
83(5) . . .
75(5) . . .
89(5) . . .
80(5) . . .
73(5) . . .
81(5) . . .
90(5) . . .
74(5) . . .
74(5) . . .
79(5) . . .
79(5) . . .
80(5) . . .
78(5) . . .
78(5) . . .
77(4) . . .
66(4) . . .
73(5) . . .
81(5) . . .
69(4) . . .
68(4) . . .
70(4) . . .
80(5) . . .
89(5) . . .
81(5) . . .
73(4) . . .
84(5) . . .
70(5) . . .
86(5) . . .
86(5) . . .
82(5) . . .
83(5) . . .
79(5) . . .
76(5) . . .
70(5) . . .
87(5) . . .
63(4) . . .
70(4) . . .
75(5) . . .
91(5) . . .
77(5) . . .
82(5) . . .
82(5) . . .
83(5) . . .
73(5) . . .
72(4) . . .
84(5) . . .
87(5) . . .
74(5) . . .
72(5) . . .
73(4) . . .
77(5) . . .
71(5) . . .
75(5) . . .
78(5) . . .
72(4) . . .
77(5) . . .
72(5) . . .
75(5) . . .
76(5) . . .
84(5) . . .
79(5) . . .
83(5) . . .
100(5) . . .
72(4) . . .
69(4) . . .
80(5) . . .
75(5) . . .
70(4) . . .
77(5) . . .
69(4) . . .
80(5) . . .
85(5) . . .
89(5) . . .
95(5) . . .
85(5) . . .
83(5) . . .
85(5) . . .
78(5) . . .
82(5) . . .
73(4) . . .
74(5) . . .
70(4) . . .
73(4) . . .
72(4) . . .
80(5) . . .
76(5) . . .
83(5) . . .
82(5) . . .
69(4) . . .
75(4) . . .
76(5) . . .
77(5) . . .
77(5) . . .
76(5) . . .
76(5) . . .
72(5) . . .
66(5) . . .
82(5) . . .
85(5) . . .
73(5) . . .
71(5) . . .
81(5) . . .
71(5) . . .
77(5) . . .
69(4) . . .
75(5) . . .
91(5) . . .
87(5) . . .
78(5) . . .
68(4) . . .
87(5) . . .
74(5) . . .
91(5) . . .
72(4) . . .
77(5) . . .
93(5) . . .
76(5) . . .
64(4) . . .
79(5) . . .
83(5) . . .
75(5) . . .
78(5) . . .
72(4) . . .
85(5) . . .
78(5) . . .
70(5) . . .
72(4) . . .
69(4) . . .
80(5) . . .
88(5) . . .
78(5) . . .
78(5) . . .
82(5) . . .
62(4) . . .
89(5) . . .
70(5) . . .
82(5) . . .
80(5) . . .
81(5) . . .
74(5) . . .
68(4) . . .
80(5) . . .
64(4) . . .
82(5) . . .
87(5) . . .
77(5) . . .
71(4) . . .
88(5) . . .
84(5) . . .
72(5) . . .
80(5) . . .
76(5) . . .
65(4) . . .
75(5) . . .
75(5) . . .
77(5) . . .
75(5) . . .
72(4) . . .
73(5) . . .
80(5) . . .
80(5) . . .
86(5) . . .
80(5) . . .
79(5) . . .
77(5) . . .
86(5) . . .
76(5) . . .
84(5) . . .
88(5) . . .
75(5) . . .
85(5) . . .
82(5) . . .
73(4) . . .
78(5) . . .
79(5) . . .
82(5) . . .
77(5) . . .
88(5) . . .
87(5) . . .
78(5) . . .
77(5) . . .
81(5) . . .
70(4) . . .
64(4) . . .
77(5) . . .
81(5) . . .
72(4) . . .
81(5) . . .
74(5) . . .
73(5) . . .
76(5) . . .
81(5) . . .
82(5) . . .
87(5) . . .
65(4) . . .
69(5) . . .
65(4) . . .
70(4) . . .
72(5) . . .
74(5) . . .
71(4) . . .
73(5) . . .
85(5) . . .
80(5) . . .
78(5) . . .
77(5) . . .
64(4) . . .
80(5) . . .
62(4) . . .
72(5) . . .
89(5) . . .
82(5) . . .
74(5) . . .
77(5) . . .
80(5) . . .
72(4) . . .
75(4) . . .
72(4) . . .
71(5) . . .
66(4) . . .
79(5) . . .
76(5) . . .
79(5) . . .
74(5) . . .
73(5) . . .
78(5) . . .
88(5) . . .
82(5) . . .
77(5) . . .
84(5) . . .
87(5) . . .
77(5) . . .
76(5) . . .
81(5) . . .
71(5) . . .
75(4) . . .
80(5) . . .
79(5) . . .
77(5) . . .
73(5) . . .
77(5) . . .
73(4) . . .
78(5) . . .
88(5) . . .
101(5) . . .
93(5) . . .
75(4) . . .
89(5) . . .
77(5) . . .
69(4) . . .
85(5) . . .
83(5) . . .
83(5) . . .
77(5) . . .
81(5) . . .
84(5) . . .
81(5) . . .
82(5) . . .
75(5) . . .
77(5) . . .
77(5) . . .
72(5) . . .
80(5) . . .
88(5) . . .
86(5) . . .
88(5) . . .
77(5) . . .
75(5) . . .
73(4) . . .
81(5) . . .
68(4) . . .
87(5) . . .
72(5) . . .
68(4) . . .
69(4) . . .
96(5) . . .
84(5) . . .
85(5) . . .
79(5) . . .
71(4) . . .
72(4) . . .
67(4) . . .
67(4) . . .
74(5) . . .
85(5) . . .
68(4) . . .
71(4) . . .
77(5) . . .
96(6) . . .
78(5) . . .
69(4) . . .
66(4) . . .
69(4) . . .
69(4) . . .
85(5) . . .
73(5) . . .
73(5) . . .
71(4) . . .
68(4) . . .
80(5) . . .
91(5) . . .
71(5) . . .
78(5) . . .
89(5) . . .
81(5) . . .
80(5) . . .
76(5) . . .
73(5) . . .
63(4) . . .
72(4) . . .
85(5) . . .
67(4) . . .
79(5) . . .
63(4) . . .
86(5) . . .
85(5) . . .
68(4) . . .
86(5) . . .
72(4) . . .
73(4) . . .
78(5) . . .
81(5) . . .
76(5) . . .
87(5) . . .
70(4) . . .
92(5) . . .
68(5) . . .
70(5) . . .
85(5) . . .
79(5) . . .
78(5) . . .
80(5) . . .
75(5) . . .
75(5) . . .
85(5) . . .
77(5) . . .
80(5) . . .
79(5) . . .
91(5) . . .
91(5) . . .
81(5) . . .
75(5) . . .
74(5) . . .
78(5) . . .
71(4) . . .
84(5) . . .
86(5) . . .
85(5) . . .
86(5) . . .
81(5) . . .
84(5) . . .
94(5) . . .
74(5) . . .
83(5) . . .
92(5) . . .
74(5) . . .
80(5) . . .
90(5) . . .
67(4) . . .
84(5) . . .
69(5) . . .
66(4) . . .
74(5) . . .
66(4) . . .
79(5) . . .
70(5) . . .
65(4) . . .
85(5) . . .
77(5) . . .
74(5) . . .
65(4) . . .
78(5) . . .
84(5) . . .
82(5) . . .
76(5) . . .
82(5) . . .
76(5) . . .
72(4) . . .
71(4) . . .
74(5) . . .
89(5) . . .
82(5) . . .
79(5) . . .
88(5) . . .
80(5) . . .
80(5) . . .
69(4) . . .
88(5) . . .
81(5) . . .
71(5) . . .
66(5) . . .
78(5) . . .
71(4) . . .
85(5) . . .
77(5) . . .
71(4) . . .
82(5) . . .
81(5) . . .
80(5) . . .
66(4) . . .
62(4) . . .
76(5) . . .
73(4) . . .
74(5) . . .
76(5) . . .
73(5) . . .
78(5) . . .
80(5) . . .
89(5) . . .
76(5) . . .
78(5) . . .
66(4) . . .
65(4) . . .
75(5) . . .
66(5) . . .
69(5) . . .
81(5) . . .
72(4) . . .
91(5) . . .
61(4) . . .
71(5) . . .
76(5) . . .
76(5) . . .
71(5) . . .
62(4) . . .
80(5) . . .
90(5) . . .
85(5) . . .
68(4) . . .
78(5) . . .
78(5) . . .
87(5) . . .
92(5) . . .
79(5) . . .
87(5) . . .
78(5) . . .
76(5) . . .
70(4) . . .
71(4) . . .
84(5) . . .
64(4) . . .
82(5) . . .
81(5) . . .
71(4) . . .
71(5) . . .
64(4) . . .
81(5) . . .
77(5) . . .
76(5) . . .
62(4) . . .
62(4) . . .
80(5) . . .
79(5) . . .
72(5) . . .
69(5) . . .
65(4) . . .
82(5) . . .
79(5) . . .
76(5) . . .
81(5) . . .
70(4) . . .
64(4) . . .
78(5) . . .
76(5) . . .
80(5) . . .
81(5) . . .
72(4) . . .
70(4) . . .
64(4) . . .
70(5) . . .
82(5) . . .
81(5) . . .
78(5) . . .
84(5) . . .
77(5) . . .
72(4) . . .
75(5) . . .
66(4) . . .
78(5) . . .
74(5) . . .
74(5) . . .
71(4) . . .
72(4) . . .
80(5) . . .
60(4) . . .
74(4) . . .
72(4) . . .
84(5) . . .
69(5) . . .
76(5) . . .
67(4) . . .
74(5) . . .
83(5) . . .
79(5) . . .
100(5) . . .
85(5) . . .
79(5) . . .
80(5) . . .
85(5) . . .
67(4) . . .
79(5) . . .
63(4) . . .
70(5) . . .
84(5) . . .
73(4) . . .
81(5) . . .
80(5) . . .
79(5) . . .
81(5) . . .
94(5) . . .
77(5) . . .
86(5) . . .
67(5) . . .
64(4) . . .
78(5) . . .
77(5) . . .
78(5) . . .
80(5) . . .
88(5) . . .
75(4) . . .
69(4) . . .
71(5) . . .
77(5) . . .
74(5) . . .
76(5) . . .
85(5) . . .
78(5) . . .
68(5) . . .
79(5) . . .
76(4) . . .
91(5) . . .
74(5) . . .
78(5) . . .
76(5) . . .
83(5) . . .
78(5) . . .
73(5) . . .
73(5) . . .
60(4) . . .
81(5) . . .
73(4) . . .
68(4) . . .
69(4) . . .
90(5) . . .
70(4) . . .
79(5) . . .
76(5) . . .
63(4) . . .
76(5) . . .
75(5) . . .
80(5) . . .
72(5) . . .
73(5) . . .
67(4) . . .
67(4) . . .
72(5) . . .
72(5) . . .
75(5) . . .
83(5) . . .
68(4) . . .
73(5) . . .
78(5) . . .
73(5) . . .
67(4) . . .
77(5) . . .
77(5) . . .
77(5) . . .
73(5) . . .
77(5) . . .
68(4) . . .
72(4) . . .
75(5) . . .
81(5) . . .
66(4) . . .
69(4) . . .
74(5) . . .
78(5) . . .
87(5) . . .
71(4) . . .
88(5) . . .
67(4) . . .
73(5) . . .
89(5) . . .
87(5) . . .
77(5) . . .
79(5) . . .
91(5) . . .
79(5) . . .
82(5) . . .
80(5) . . .
61(4) . . .
69(5) . . .
60(4) . . .
66(4) . . .
73(4) . . .
79(5) . . .
73(5) . . .
74(5) . . .
77(5) . . .
65(4) . . .
73(5) . . .
72(5) . . .
68(4) . . .
63(4) . . .
77(5) . . .
76(5) . . .
81(5) . . .
80(5) . . .
74(4) . . .
67(4) . . .
63(4) . . .
64(4) . . .
73(4) . . .
83(5) . . .
66(4) . . .
79(5) . . .
67(4) . . .
78(5) . . .
76(5) . . .
81(5) . . .
80(5) . . .
69(4) . . .
79(5) . . .
79(5) . . .
78(5) . . .
78(5) . . .
83(5) . . .
81(5) . . .
79(5) . . .
78(5) . . .
67(5) . . .
75(5) . . .
72(4) . . .
71(4) . . .
73(5) . . .
72(5) . . .
65(4) . . .
74(4) . . .
77(5) . . .
70(4) . . .
77(5) . . .
64(4) . . .
77(5) . . .
76(5) . . .
76(5) . . .
82(5) . . .
67(4) . . .
68(4) . . .
72(5) . . .
68(4) . . .
71(4) . . .
83(5) . . .
66(4) . . .
72(5) . . .
75(5) . . .
78(5) . . .
74(5) . . .
69(4) . . .
80(5) . . .
73(5) . . .
68(5) . . .
71(4) . . .
78(5) . . .
75(5) . . .
76(5) . . .
72(4) . . .
70(4) . . .
69(4) . . .
84(5) . . .
77(5) . . .
84(5) . . .
83(5) . . .
79(5) . . .
71(5) . . .
76(5) . . .
90(5) . . .
77(5) . . .
79(5) . . .
81(5) . . .
90(6) . . .
72(5) . . .
71(4) . . .
78(5) . . .
76(5) . . .
71(5) . . .
77(5) . . .
67(4) . . .
68(4) . . .
86(5) . . .
92(5) . . .
78(5) . . .
85(5) . . .
77(5) . . .
82(5) . . .
80(5) . . .
76(5) . . .
69(4) . . .
68(4) . . .
76(5) . . .
74(5) . . .
87(5) . . .
70(4) . . .
73(5) . . .
71(5) . . .
69(5) . . .
73(5) . . .
70(4) . . .
66(5) . . .
84(5) . . .
72(5) . . .
70(4) . . .
75(5) . . .
73(5) . . .
70(5) . . .
61(4) . . .
72(4) . . .
81(5) . . .
77(5) . . .
79(5) . . .
72(4) . . .
77(5) . . .
76(5) . . .
77(5) . . .
76(5) . . .
78(5) . . .
87(5) . . .
79(5) . . .
77(5) . . .
73(5) . . .
82(5) . . .
78(5) . . .
68(4) . . .
67(4) . . .
82(5) . . .
73(5) . . .
75(4) . . .
66(4) . . .
84(5) . . .
72(5) . . .
71(5) . . .
75(4) . . .
74(4) . . .
65(4) . . .
73(5) . . .
73(5) . . .
60(4) . . .
56(4) . . .
75(5) . . .
73(5) . . .
74(5) . . .
72(4) . . .
60(4) . . .
79(5) . . .
83(5) . . .
75(5) . . .
85(5) . . .
70(4) . . .
74(5) . . .
77(5) . . .
76(5) . . .
75(5) . . .
74(5) . . .
69(4) . . .
79(5) . . .
71(4) . . .
75(5) . . .
84(5) . . .
75(5) . . .
84(5) . . .
75(5) . . .
84(5) . . .
93(5) . . .
86(5) . . .
66(4) . . .
79(5) . . .
82(5) . . .
77(5) . . .
71(5) . . .
91(5) . . .
79(5) . . .
71(5) . . .
73(5) . . .
69(5) . . .
74(5) . . .
88(5) . . .
84(5) . . .
85(5) . . .
78(5) . . .
74(5) . . .
78(5) . . .
64(4) . . .
70(5) . . .
76(5) . . .
74(4) . . .
72(4) . . .
75(5) . . .
72(4) . . .
74(5) . . .
85(5) . . .
73(4) . . .
79(5) . . .
72(5) . . .
85(5) . . .
82(5) . . .
72(4) . . .
78(5) . . .
67(4) . . .
72(5) . . .
82(5) . . .
81(5) . . .
71(5) . . .
76(5) . . .
69(5) . . .
68(4) . . .
68(4) . . .
75(5) . . .
75(5) . . .
73(4) . . .
85(5) . . .
92(5) . . .
79(5) . . .
77(5) . . .
59(4) . . .
75(4) . . .
70(4) . . .
76(5) . . .
72(5) . . .
84(5) . . .
69(4) . . .
77(5) . . .
70(4) . . .
64(4) . . .
76(5) . . .
79(5) . . .
79(5) . . .
70(4) . . .
68(5) . . .
70(4) . . .
69(4) . . .
76(5) . . .
78(5) . . .
70(5) . . .
68(5) . . .
78(5) . . .
64(4) . . .
76(5) . . .
77(5) . . .
76(5) . . .
79(5) . . .
86(5) . . .
77(5) . . .
77(5) . . .
69(4) . . .
83(5) . . .
87(5) . . .
85(5) . . .
78(5) . . .
78(5) . . .
78(5) . . .
81(5) . . .
70(5) . . .
77(5) . . .
78(5) . . .
83(5) . . .
70(4) . . .
75(5) . . .
78(5) . . .
83(5) . . .
76(5) . . .
76(5) . . .
75(5) . . .
74(5) . . .
68(4) . . .
73(4) . . .
74(5) . . .
67(4) . . .
78(5) . . .
66(4) . . .
68(4) . . .
76(5) . . .
80(5) . . .
76(5) . . .
69(4) . . .
66(4) . . .
70(4) . . .
74(5) . . .
71(5) . . .
75(4) . . .
75(5) . . .
75(5) . . .
75(5) . . .
69(5) . . .
68(4) . . .
75(5) . . .
73(4) . . .
83(5) . . .
74(5) . . .
73(4) . . .
73(4) . . .
75(5) . . .
63(4) . . .
72(5) . . .
79(5) . . .
75(5) . . .
79(5) . . .
69(4) . . .
75(5) . . .
75(5) . . .
80(5) . . .
79(5) . . .
74(5) . . .
76(5) . . .
83(5) . . .
84(5) . . .
73(5) . . .
65(4) . . .
69(4) . . .
80(5) . . .
82(5) . . .
86(5) . . .
78(5) . . .
81(5) . . .
78(5) . . .
71(5) . . .
83(5) . . .
75(5) . . .
84(5) . . .
66(4) . . .
72(5) . . .
72(5) . . .
85(5) . . .
70(4) . . .
74(4) . . .
77(5) . . .
74(5) . . .
75(5) . . .
78(5) . . .
69(4) . . .
66(4) . . .
71(5) . . .
77(5) . . .
79(5) . . .
75(5) . . .
71(5) . . .
68(5) . . .
83(5) . . .
82(5) . . .
70(4) . . .
76(5) . . .
74(5) . . .
86(5) . . .
76(5) . . .
72(4) . . .
90(5) . . .
73(5) . . .
73(5) . . .
69(4) . . .
73(5) . . .
77(5) . . .
86(5) . . .
70(4) . . .
80(5) . . .
68(4) . . .
67(5) . . .
76(5) . . .
82(5) . . .
73(4) . . .
72(4) . . .
78(5) . . .
74(5) . . .
68(4) . . .
88(5) . . .
81(5) . . .
78(5) . . .
73(5) . . .
74(4) . . .
70(4) . . .
83(5) . . .
76(5) . . .
82(5) . . .
72(5) . . .
85(5) . . .
81(5) . . .
76(5) . . .
74(4) . . .
86(5) . . .
80(5) . . .
65(4) . . .
68(5) . . .
75(5) . . .
76(5) . . .
82(5) . . .
67(4) . . .
81(5) . . .
75(5) . . .
65(4) . . .
79(5) . . .
78(5) . . .
71(5) . . .
72(5) . . .
71(4) . . .
72(4) . . .
71(5) . . .
80(5) . . .
63(4) . . .
73(4) . . .
80(5) . . .
74(5) . . .
81(5) . . .
72(5) . . .
70(4) . . .
68(4) . . .
73(5) . . .
67(4) . . .
80(5) . . .
62(4) . . .
77(5) . . .
76(5) . . .
64(4) . . .
67(4) . . .
68(4) . . .
65(4) . . .
83(5) . . .
61(4) . . .
73(4) . . .
63(4) . . .
78(5) . . .
85(5) . . .
76(5) . . .
74(5) . . .
58(4) . . .
73(5) . . .
68(4) . . .
70(4) . . .
73(4) . . .
72(4) . . .
72(5) . . .
72(4) . . .
86(5) . . .
76(5) . . .
70(4) . . .
61(4) . . .
74(5) . . .
63(4) . . .
61(4) . . .
59(4) . . .
66(4) . . .
80(5) . . .
67(5) . . .
82(5) . . .
72(4) . . .
79(5) . . .
73(5) . . .
71(5) . . .
74(5) . . .
79(5) . . .
72(5) . . .
76(5) . . .
73(5) . . .
60(4) . . .
70(4) . . .
72(4) . . .
86(5) . . .
79(5) . . .
72(4) . . .
74(5) . . .
79(5) . . .
80(5) . . .
78(5) . . .
68(4) . . .
83(5) . . .
77(5) . . .
65(4) . . .
75(5) . . .
65(4) . . .
77(5) . . .
77(5) . . .
71(5) . . .
72(4) . . .
63(4) . . .
71(5) . . .
76(5) . . .
67(4) . . .
75(4) . . .
71(5) . . .
68(4) . . .
62(4) . . .
82(5) . . .
68(4) . . .
71(4) . . .
70(4) . . .
76(5) . . .
76(5) . . .
66(4) . . .
65(4) . . .
83(5) . . .
71(5) . . .
74(5) . . .
69(4) . . .
80(5) . . .
72(5) . . .
72(5) . . .
75(5) . . .
79(5) . . .
83(5) . . .
74(5) . . .
88(5) . . .
79(5) . . .
83(5) . . .
73(5) . . .
75(5) . . .
90(5) . . .
76(5) . . .
62(4) . . .
77(5) . . .
71(5) . . .
77(5) . . .
67(4) . . .
63(4) . . .
76(5) . . .
70(5) . . .
74(4) . . .
78(5) . . .
75(5) . . .
68(4) . . .
75(5) . . .
62(4) . . .
66(4) . . .
76(5) . . .
75(5) . . .
81(5) . . .
78(5) . . .
61(4) . . .
68(4) . . .
68(5) . . .
77(5) . . .
84(5) . . .
72(4) . . .
68(4) . . .
69(4) . . .
75(5) . . .
66(4) . . .
77(5) . . .
77(5) . . .
78(5) . . .
74(5) . . .
62(5) . . .
62(4) . . .
77(5) . . .
69(4) . . .
70(5) . . .
73(5) . . .
69(4) . . .
58(4) . . .
78(5) . . .
64(4) . . .
85(5) . . .
71(4) . . .
85(5) . . .
85(5) . . .
80(5) . . .
67(4) . . .
66(4) . . .
80(5) . . .
84(5) . . .
91(5) . . .
82(5) . . .
74(4) . . .
78(5) . . .
71(5) . . .
79(5) . . .
75(5) . . .
67(4) . . .
81(5) . . .
71(5) . . .
74(5) . . .
75(5) . . .
64(4) . . .
64(4) . . .
72(5) . . .
72(5) . . .
75(5) . . .
61(4) . . .
71(5) . . .
86(5) . . .
77(5) . . .
67(4) . . .
79(5) . . .
78(5) . . .
65(4) . . .
78(5) . . .
77(5) . . .
70(4) . . .
71(5) . . .
76(5) . . .
76(5) . . .
73(4) . . .
59(4) . . .
63(4) . . .
74(5) . . .
80(5) . . .
72(4) . . .
69(4) . . .
60(4) . . .
55(4) . . .
58(4) . . .
64(4) . . .
60(4) . . .
69(5) . . .
74(5) . . .
74(4) . . .
68(4) . . .
75(5) . . .
76(5) . . .
78(5) . . .
67(4) . . .
73(4) . . .
75(5) . . .
68(5) . . .
70(5) . . .
67(4) . . .
80(5) . . .
84(5) . . .
77(5) . . .
73(4) . . .
77(5) . . .
68(4) . . .
75(5) . . .
64(4) . . .
78(5) . . .
75(4) . . .
68(4) . . .
77(5) . . .
67(4) . . .
71(5) . . .
70(4) . . .
76(5) . . .
70(5) . . .
69(5) . . .
69(5) . . .
49(4) . . .
69(4) . . .
81(5) . . .
72(5) . . .
79(5) . . .
80(5) . . .
71(4) . . .
80(5) . . .
79(5) . . .
67(4) . . .
78(5) . . .
88(5) . . .
66(4) . . .
62(4) . . .
67(4) . . .
77(5) . . .
68(4) . . .
78(5) . . .
77(5) . . .
78(5) . . .
78(5) . . .
75(5) . . .
70(4) . . .
80(5) . . .
74(5) . . .
75(5) . . .
73(5) . . .
76(5) . . .
71(5) . . .
76(5) . . .
77(5) . . .
71(4) . . .
69(5) . . .
70(4) . . .
72(4) . . .
60(4) . . .
72(5) . . .
63(4) . . .
73(4) . . .
67(4) . . .
67(4) . . .
77(5) . . .
73(5) . . .
73(5) . . .
73(5) . . .
74(4) . . .
89(5) . . .
80(5) . . .
71(4) . . .
86(5) . . .
83(5) . . .
70(5) . . .
75(5) . . .
72(5) . . .
76(5) . . .
71(4) . . .
81(5) . . .
79(5) . . .
71(4) . . .
79(5) . . .
68(4) . . .
72(4) . . .
77(5) . . .
63(4) . . .
71(4) . . .
63(4) . . .
73(5) . . .
69(5) . . .
65(4) . . .
57(4) . . .
66(4) . . .
77(5) . . .
68(4) . . .
71(5) . . .
74(4) . . .
73(5) . . .
85(5) . . .
88(5) . . .
87(5) . . .
69(4) . . .
73(5) . . .
78(5) . . .
72(5) . . .
63(4) . . .
65(4) . . .
59(4) . . .
64(4) . . .
78(5) . . .
72(4) . . .
76(5) . . .
76(5) . . .
64(4) . . .
68(4) . . .
73(4) . . .
69(4) . . .
76(5) . . .
72(5) . . .
78(5) . . .
65(4) . . .
67(4) . . .
76(5) . . .
69(4) . . .
73(5) . . .
76(5) . . .
76(5) . . .
74(5) . . .
70(5) . . .
67(4) . . .
86(5) . . .
69(4) . . .
79(5) . . .
79(5) . . .
72(5) . . .
71(4) . . .
77(5) . . .
66(4) . . .
72(5) . . .
74(5) . . .
70(4) . . .
66(4) . . .
80(5) . . .
70(5) . . .
77(5) . . .
71(4) . . .
79(5) . . .
70(5) . . .
73(5) . . .
75(4) . . .
73(4) . . .
79(5) . . .
71(5) . . .
76(5) . . .
59(4) . . .
72(4) . . .
77(5) . . .
71(5) . . .
84(5) . . .
70(4) . . .
68(4) . . .
75(5) . . .
62(5) . . .
70(5) . . .
72(4) . . .
68(4) . . .
61(4) . . .
74(5) . . .
63(4) . . .
80(5) . . .
74(5) . . .
81(5) . . .
80(5) . . .
82(5) . . .
85(5) . . .
75(5) . . .
72(5) . . .
74(5) . . .
78(5) . . .
71(4) . . .
71(4) . . .
65(4) . . .
61(4) . . .
67(4) . . .
83(5) . . .
71(5) . . .
82(5) . . .
86(5) . . .
78(5) . . .
74(4) . . .
71(4) . . .
69(4) . . .
77(5) . . .
67(4) . . .
68(4) . . .
69(5) . . .
77(5) . . .
77(5) . . .
59(4) . . .
69(4) . . .
74(5) . . .
76(5) . . .
71(4) . . .
65(4) . . .
53(4) . . .
71(5) . . .
72(5) . . .
75(5) . . .
76(5) . . .
74(4) . . .
69(4) . . .
75(5) . . .
75(4) . . .
70(4) . . .
63(4) . . .
63(4) . . .
65(4) . . .
65(4) . . .
77(5) . . .
74(4) . . .
86(5) . . .
86(5) . . .
71(4) . . .
65(4) . . .
75(5) . . .
78(5) . . .
61(4) . . .
65(4) . . .
76(5) . . .
61(4) . . .
84(5) . . .
67(4) . . .
62(4) . . .
70(4) . . .
76(5) . . .
76(5) . . .
75(5) . . .
73(4) . . .
77(5) . . .
85(5) . . .
66(4) . . .
72(5) . . .
67(4) . . .
72(4) . . .
77(5) . . .
68(4) . . .
63(4) . . .
65(4) . . .
60(4) . . .
74(5) . . .
74(5) . . .
77(5) . . .
83(5) . . .
67(4) . . .
70(5) . . .
66(5) . . .
75(5) . . .
77(5) . . .
75(5) . . .
82(5) . . .
80(5) . . .
83(5) . . .
68(4) . . .
67(4) . . .
72(5) . . .
84(5) . . .
79(5) . . .
76(5) . . .
70(4) . . .
72(4) . . .
72(5) . . .
72(5) . . .
78(5) . . .
76(5) . . .
71(5) . . .
67(4) . . .
84(5) . . .
59(4) . . .
73(4) . . .
76(5) . . .
88(5) . . .
71(4) . . .
58(4) . . .
76(5) . . .
63(4) . . .
85(5) . . .
76(5) . . .
71(4) . . .
74(5) . . .
79(5) . . .
72(5) . . .
83(5) . . .
75(5) . . .
77(5) . . .
71(4) . . .
76(5) . . .
72(4) . . .
58(4) . . .
72(5) . . .
76(5) . . .
69(4) . . .
77(5) . . .
64(4) . . .
66(4) . . .
68(4) . . .
72(5) . . .
61(4) . . .
74(5) . . .
78(5) . . .
67(5) . . .
79(5) . . .
75(5) . . .
80(5) . . .
61(4) . . .
56(4) . . .
74(5) . . .
75(4) . . .
69(4) . . .
68(4) . . .
87(5) . . .
83(5) . . .
69(4) . . .
82(5) . . .
80(5) . . .
64(4) . . .
71(5) . . .
72(4) . . .
83(5) . . .
80(5) . . .
67(4) . . .
76(5) . . .
64(4) . . .
61(4) . . .
82(5) . . .
79(5) . . .
84(5) . . .
80(5) . . .
75(5) . . .
70(5) . . .
68(5) . . .
77(5) . . .
84(5) . . .
61(4) . . .
72(5) . . .
91(5) . . .
68(4) . . .
81(5) . . .
73(5) . . .
82(5) . . .
75(5) . . .
66(4) . . .
78(5) . . .
76(5) . . .
82(5) . . .
80(5) . . .
67(4) . . .
68(4) . . .
64(4) . . .
61(4) . . .
75(5) . . .
61(4) . . .
84(5) . . .
74(5) . . .
75(5) . . .
74(5) . . .
73(4) . . .
82(5) . . .
72(4) . . .
63(4) . . .
71(5) . . .
78(5) . . .
90(5) . . .
82(5) . . .
63(4) . . .
71(5) . . .
63(4) . . .
80(5) . . .
77(5) . . .
77(5) . . .
70(4) . . .
75(4) . . .
71(4) . . .
70(4) . . .
77(5) . . .
69(4) . . .
80(5) . . .
71(4) . . .
70(5) . . .
70(5) . . .
72(5) . . .
73(4) . . .
63(4) . . .
72(5) . . .
71(5) . . .
80(5) . . .
75(4) . . .
69(4) . . .
75(5) . . .
73(5) . . .
74(4) . . .
76(4) . . .
72(5) . . .
70(5) . . .
68(4) . . .
75(5) . . .
61(4) . . .
67(4) . . .
58(4) . . .
55(4) . . .
74(4) . . .
73(4) . . .
56(4) . . .
83(5) . . .
70(4) . . .
72(4) . . .
67(4) . . .
71(5) . . .
76(5) . . .
70(4) . . .
80(5) . . .
80(5) . . .
75(5) . . .
56(4) . . .
67(4) . . .
61(4) . . .
68(4) . . .
74(5) . . .
74(5) . . .
75(5) . . .
53(4) . . .
63(4) . . .
66(4) . . .
82(5) . . .
78(5) . . .
73(4) . . .
73(5) . . .
70(4) . . .
71(4) . . .
74(5) . . .
73(4) . . .
66(4) . . .
75(5) . . .
81(5) . . .
74(5) . . .
82(5) . . .
72(4) . . .
72(5) . . .
68(5) . . .
76(5) . . .
76(4) . . .
77(5) . . .
73(5) . . .
64(4) . . .
67(4) . . .
73(4) . . .
80(5) . . .
78(5) . . .
67(4) . . .
68(4) . . .
70(4) . . .
72(5) . . .
59(4) . . .
75(5) . . .
66(4) . . .
61(4) . . .
75(5) . . .
79(5) . . .
61(4) . . .
78(5) . . .
63(4) . . .
65(4) . . .
72(5) . . .
81(5) . . .
63(4) . . .
70(4) . . .
70(4) . . .
71(5) . . .
74(5) . . .
80(5) . . .
70(4) . . .
66(4) . . .
69(4) . . .
73(5) . . .
71(4) . . .
61(4) . . .
64(4) . . .
66(5) . . .
68(5) . . .
65(4) . . .
67(4) . . .
67(4) . . .
81(5) . . .
65(4) . . .
60(4) . . .
67(4) . . .
73(5) . . .
76(5) . . .
61(4) . . .
73(4) . . .
80(5) . . .
63(4) . . .
73(4) . . .
74(4) . . .
71(4) . . .
74(5) . . .
76(5) . . .
72(5) . . .
65(4) . . .
62(4) . . .
67(4) . . .
62(4) . . .
59(4) . . .
75(5) . . .
65(4) . . .
82(5) . . .
70(5) . . .
61(4) . . .
60(4) . . .
70(4) . . .
70(4) . . .
64(4) . . .
73(5) . . .
72(4) . . .
78(5) . . .
75(5) . . .
75(5) . . .
76(5) . . .
72(4) . . .
68(4) . . .
56(4) . . .
72(5) . . .
85(5) . . .
71(4) . . .
62(4) . . .
87(5) . . .
73(5) . . .
67(4) . . .
68(4) . . .
64(4) . . .
67(4) . . .
76(5) . . .
70(5) . . .
71(4) . . .
64(4) . . .
65(4) . . .
70(5) . . .
77(5) . . .
70(4) . . .
64(4) . . .
75(5) . . .
84(5) . . .
62(4) . . .
81(5) . . .
62(4) . . .
55(4) . . .
63(4) . . .
66(4) . . .
74(4) . . .
65(4) . . .
71(5) . . .
64(4) . . .
74(5) . . .
67(4) . . .
72(4) . . .
68(4) . . .
72(5) . . .
78(5) . . .
78(5) . . .
75(5) . . .
74(5) . . .
90(5) . . .
74(4) . . .
83(5) . . .
74(5) . . .
81(5) . . .
81(5) . . .
60(4) . . .
66(4) . . .
82(5) . . .
64(4) . . .
68(4) . . .
64(4) . . .
72(4) . . .
96(6) . . .
74(5) . . .
76(5) . . .
60(4) . . .
80(5) . . .
79(5) . . .
69(4) . . .
76(5) . . .
69(4) . . .
72(5) . . .
76(5) . . .
64(4) . . .
72(5) . . .
65(4) . . .
65(4) . . .
69(5) . . .
74(5) . . .
68(4) . . .
63(4) . . .
77(5) . . .
78(5) . . .
93(5) . . .
72(4) . . .
69(4) . . .
70(4) . . .
77(5) . . .
75(5) . . .
74(5) . . .
68(4) . . .
83(5) . . .
68(4) . . .
65(4) . . .
80(5) . . .
76(5) . . .
67(4) . . .
73(5) . . .
73(5) . . .
74(4) . . .
70(4) . . .
65(4) . . .
65(4) . . .
77(5) . . .
66(4) . . .
73(4) . . .
67(4) . . .
71(5) . . .
67(4) . . .
63(4) . . .
62(4) . . .
72(5) . . .
63(4) . . .
61(4) . . .
74(5) . . .
73(5) . . .
76(5) . . .
71(5) . . .
79(5) . . .
58(4) . . .
82(5) . . .
69(4) . . .
65(4) . . .
67(4) . . .
70(4) . . .
64(5) . . .
64(4) . . .
67(5) . . .
70(4) . . .
83(5) . . .
72(5) . . .
70(4) . . .
66(4) . . .
69(4) . . .
54(4) . . .
75(5) . . .
65(4) . . .
64(4) . . .
75(5) . . .
81(5) . . .
68(4) . . .
71(5) . . .
78(5) . . .
85(5) . . .
73(4) . . .
83(5) . . .
63(5) . . .
71(5) . . .
61(4) . . .
72(5) . . .
73(5) . . .
68(5) . . .
76(5) . . .
62(4) . . .
60(4) . . .
55(4) . . .
78(5) . . .
72(4) . . .
66(4) . . .
62(4) . . .
68(4) . . .
67(4) . . .
72(5) . . .
78(5) . . .
56(4) . . .
70(4) . . .
70(5) . . .
62(4) . . .
71(4) . . .
69(5) . . .
71(5) . . .
65(4) . . .
83(5) . . .
68(4) . . .
65(4) . . .
78(5) . . .
65(4) . . .
69(4) . . .
64(4) . . .
74(5) . . .
70(5) . . .
66(5) . . .
66(4) . . .
79(5) . . .
78(5) . . .
60(4) . . .
72(5) . . .
62(4) . . .
67(4) . . .
71(5) . . .
74(5) . . .
67(4) . . .
69(4) . . .
70(4) . . .
62(4) . . .
64(5) . . .
76(5) . . .
74(4) . . .
50(4) . . .
60(4) . . .
65(5) . . .
76(5) . . .
78(5) . . .
64(4) . . .
65(4) . . .
69(5) . . .
67(4) . . .
70(4) . . .
63(4) . . .
69(5) . . .
73(5) . . .
75(5) . . .
60(4) . . .
69(4) . . .
71(5) . . .
63(4) . . .
67(4) . . .
68(4) . . .
76(5) . . .
75(5) . . .
63(4) . . .
71(5) . . .
64(4) . . .
59(4) . . .
58(4) . . .
78(5) . . .
78(5) . . .
78(5) . . .
65(4) . . .
71(5) . . .
82(5) . . .
67(4) . . .
69(4) . . .
71(5) . . .
73(5) . . .
63(4) . . .
66(4) . . .
68(4) . . .
71(4) . . .
62(5) . . .
66(4) . . .
72(4) . . .
68(4) . . .
62(4) . . .
81(5) . . .
74(5) . . .
67(4) . . .
74(4) . . .
76(5) . . .
69(5) . . .
80(5) . . .
65(4) . . .
69(4) . . .
72(5) . . .
72(5) . . .
62(4) . . .
61(4) . . .
70(4) . . .
76(5) . . .
71(5) . . .
70(5) . . .
68(4) . . .
77(5) . . .
71(4) . . .
75(5) . . .
69(5) . . .
71(4) . . .
77(5) . . .
64(4) . . .
77(5) . . .
74(5) . . .
69(4) . . .
72(4) . . .
69(4) . . .
66(5) . . .
69(4) . . .
66(4) . . .
67(4) . . .
70(4) . . .
77(5) . . .
73(5) . . .
71(4) . . .
61(4) . . .
76(5) . . .
67(4) . . .
67(4) . . .
69(4) . . .
70(4) . . .
79(5) . . .
70(4) . . .
63(4) . . .
63(4) . . .
71(5) . . .
73(5) . . .
82(5) . . .
65(4) . . .
60(4) . . .
53(4) . . .
58(4) . . .
72(5) . . .
77(5) . . .
69(4) . . .
69(4) . . .
66(5) . . .
63(4) . . .
67(4) . . .
84(5) . . .
64(4) . . .
61(4) . . .
65(4) . . .
74(4) . . .
58(4) . . .
70(5) . . .
76(5) . . .
76(5) . . .
77(5) . . .
63(4) . . .
71(5) . . .
79(5) . . .
79(5) . . .
83(5) . . .
71(4) . . .
80(5) . . .
68(5) . . .
61(4) . . .
71(4) . . .
65(4) . . .
64(4) . . .
57(4) . . .
68(4) . . .
65(4) . . .
78(5) . . .
64(4) . . .
82(5) . . .
59(4) . . .
63(4) . . .
80(5) . . .
60(4) . . .
70(5) . . .
60(4) . . .
67(4) . . .
73(5) . . .
66(4) . . .
76(5) . . .
64(4) . . .
70(5) . . .
74(5) . . .
69(4) . . .
69(4) . . .
64(4) . . .
69(5) . . .
79(5) . . .
88(5) . . .
70(4) . . .
73(5) . . .
78(5) . . .
70(4) . . .
69(4) . . .
67(4) . . .
75(5) . . .
64(4) . . .
78(5) . . .
66(4) . . .
69(5) . . .
70(4) . . .
66(4) . . .
78(5) . . .
63(4) . . .
71(4) . . .
69(4) . . .
79(5) . . .
57(4) . . .
63(4) . . .
64(4) . . .
86(5) . . .
79(5) . . .
80(5) . . .
68(4) . . .
69(4) . . .
69(5) . . .
67(5) . . .
67(4) . . .
83(5) . . .
67(5) . . .
70(5) . . .
62(4) . . .
72(4) . . .
68(4) . . .
69(4) . . .
67(4) . . .
76(5) . . .
84(5) . . .
83(5) . . .
77(5) . . .
68(5) . . .
69(4) . . .
63(4) . . .
68(4) . . .
64(4) . . .
61(4) . . .
67(4) . . .
66(4) . . .
62(4) . . .
76(5) . . .
69(5) . . .
75(5) . . .
80(5) . . .
80(5) . . .
75(4) . . .
72(5) . . .
79(5) . . .
90(5) . . .
64(4) . . .
66(4) . . .
69(5) . . .
67(5) . . .
71(4) . . .
68(4) . . .
77(5) . . .
76(5) . . .
73(5) . . .
70(4) . . .
68(4) . . .
68(5) . . .
62(4) . . .
73(5) . . .
62(4) . . .
65(4) . . .
69(5) . . .
68(4) . . .
75(5) . . .
60(4) . . .
70(5) . . .
80(5) . . .
77(5) . . .
62(4) . . .
68(4) . . .
64(4) . . .
54(4) . . .
63(4) . . .
72(4) . . .
69(4) . . .
64(4) . . .
76(5) . . .
65(4) . . .
70(4) . . .
79(5) . . .
63(4) . . .
71(5) . . .
62(4) . . .
73(5) . . .
68(4) . . .
69(4) . . .
63(4) . . .
56(4) . . .
72(4) . . .
59(4) . . .
64(5) . . .
58(4) . . .
73(5) . . .
70(4) . . .
69(4) . . .
72(5) . . .
67(4) . . .
64(4) . . .
73(4) . . .
68(4) . . .
83(5) . . .
76(5) . . .
80(5) . . .
66(4) . . .
73(5) . . .
74(5) . . .
70(5) . . .
80(5) . . .
59(4) . . .
65(4) . . .
65(4) . . .
74(5) . . .
76(5) . . .
72(4) . . .
79(5) . . .
81(5) . . .
60(4) . . .
60(4) . . .
57(4) . . .
62(4) . . .
60(4) . . .
67(4) . . .
75(5) . . .
71(4) . . .
68(5) . . .
64(4) . . .
60(4) . . .
69(4) . . .
66(4) . . .
79(5) . . .
61(4) . . .
63(4) . . .
72(4) . . .
63(4) . . .
80(5) . . .
77(5) . . .
67(4) . . .
78(5) . . .
59(4) . . .
79(5) . . .
71(5) . . .
68(4) . . .
73(4) . . .
67(4) . . .
63(4) . . .
72(5) . . .
62(4) . . .
85(5) . . .
78(5) . . .
65(4) . . .
70(5) . . .
67(5) . . .
66(4) . . .
71(4) . . .
62(4) . . .
75(5) . . .
69(4) . . .
71(4) . . .
61(4) . . .
79(5) . . .
72(4) . . .
77(5) . . .
75(5) . . .
72(5) . . .
72(5) . . .
68(4) . . .
65(4) . . .
71(4) . . .
63(4) . . .
76(5) . . .
83(5) . . .
73(4) . . .
76(5) . . .
78(5) . . .
67(4) . . .
71(5) . . .
66(4) . . .
77(5) . . .
64(4) . . .
62(4) . . .
73(5) . . .
67(4) . . .
70(4) . . .
72(4) . . .
73(5) . . .
67(4) . . .
79(5) . . .
69(4) . . .
69(4) . . .
73(5) . . .
68(5) . . .
64(4) . . .
65(4) . . .
66(5) . . .
70(5) . . .
62(4) . . .
66(4) . . .
74(5) . . .
72(5) . . .
69(5) . . .
62(4) . . .
67(4) . . .
78(5) . . .
66(4) . . .
74(5) . . .
62(4) . . .
70(4) . . .
67(4) . . .
77(5) . . .
78(5) . . .
68(4) . . .
73(4) . . .
73(5) . . .
66(4) . . .
68(4) . . .
69(4) . . .
72(4) . . .
75(5) . . .
79(5) . . .
73(5) . . .
79(5) . . .
67(4) . . .
76(5) . . .
68(5) . . .
71(5) . . .
71(4) . . .
75(4) . . .
64(4) . . .
67(5) . . .
61(4) . . .
68(4) . . .
76(5) . . .
82(5) . . .
65(4) . . .
71(5) . . .
69(4) . . .
67(4) . . .
72(5) . . .
63(4) . . .
66(4) . . .
69(4) . . .
71(4) . . .
66(4) . . .
66(4) . . .
55(4) . . .
67(4) . . .
63(4) . . .
62(4) . . .
72(5) . . .
73(5) . . .
61(4) . . .
75(5) . . .
64(4) . . .
67(5) . . .
72(5) . . .
66(4) . . .
77(5) . . .
67(4) . . .
74(5) . . .
71(4) . . .
61(4) . . .
71(5) . . .
63(4) . . .
62(4) . . .
55(4) . . .
64(4) . . .
69(4) . . .
64(4) . . .
67(5) . . .
60(4) . . .
60(4) . . .
66(4) . . .
75(5) . . .
74(5) . . .
71(4) . . .
74(4) . . .
82(5) . . .
71(5) . . .
57(4) . . .
68(4) . . .
66(4) . . .
68(4) . . .
64(4) . . .
65(4) . . .
68(4) . . .
75(5) . . .
70(4) . . .
79(5) . . .
61(4) . . .
51(4) . . .
66(4) . . .
74(5) . . .
74(5) . . .
68(4) . . .
78(5) . . .
70(4) . . .
76(5) . . .
66(4) . . .
66(5) . . .
68(4) . . .
65(4) . . .
60(4) . . .
76(5) . . .
72(5) . . .
59(4) . . .
66(4) . . .
75(5) . . .
73(5) . . .
76(5) . . .
61(4) . . .
65(4) . . .
59(4) . . .
62(4) . . .
69(4) . . .
63(4) . . .
68(4) . . .
76(5) . . .
80(5) . . .
64(4) . . .
73(4) . . .
70(5) . . .
82(5) . . .
86(5) . . .
68(4) . . .
70(4) . . .
68(4) . . .
74(5) . . .
75(5) . . .
65(4) . . .
68(4) . . .
71(5) . . .
61(4) . . .
57(4) . . .
65(4) . . .
73(5) . . .
68(4) . . .
60(4) . . .
60(4) . . .
59(4) . . .
69(5) . . .
66(4) . . .
60(4) . . .
68(5) . . .
73(4) . . .
61(4) . . .
67(4) . . .
67(5) . . .
59(4) . . .
67(4) . . .
61(4) . . .
66(4) . . .
77(5) . . .
60(4) . . .
61(4) . . .
65(4) . . .
68(4) . . .
70(4) . . .
72(5) . . .
70(4) . . .
65(4) . . .
70(5) . . .
73(4) . . .
74(5) . . .
79(5) . . .
54(4) . . .
56(4) . . .
68(5) . . .
60(4) . . .
68(4) . . .
56(4) . . .
63(4) . . .
71(4) . . .
63(4) . . .
68(4) . . .
71(5) . . .
70(5) . . .
73(5) . . .
58(4) . . .
66(4) . . .
63(4) . . .
72(5) . . .
52(4) . . .
71(4) . . .
65(4) . . .
72(4) . . .
69(5) . . .
69(4) . . .
68(4) . . .
80(5) . . .
69(4) . . .
71(5) . . .
64(4) . . .
64(4) . . .
61(4) . . .
68(4) . . .
68(5) . . .
54(4) . . .
56(4) . . .
71(4) . . .
74(5) . . .
78(5) . . .
75(5) . . .
70(4) . . .
61(4) . . .
76(5) . . .
64(4) . . .
74(5) . . .
84(5) . . .
70(4) . . .
74(5) . . .
74(5) . . .
63(4) . . .
69(4) . . .
78(5) . . .
64(4) . . .
66(5) . . .
75(5) . . .
61(4) . . .
71(5) . . .
77(5) . . .
65(4) . . .
81(5) . . .
69(4) . . .
67(4) . . .
64(5) . . .
53(4) . . .
58(4) . . .
62(4) . . .
75(5) . . .
66(4) . . .
71(4) . . .
79(5) . . .
72(4) . . .
82(5) . . .
77(5) . . .
59(4) . . .
64(4) . . .
78(5) . . .
64(4) . . .
60(4) . . .
75(5) . . .
79(5) . . .
67(4) . . .
69(5) . . .
72(5) . . .
64(4) . . .
54(4) . . .
77(5) . . .
70(4) . . .
63(4) . . .
77(5) . . .
73(4) . . .
60(4) . . .
66(4) . . .
77(5) . . .
64(4) . . .
65(4) . . .
56(4) . . .
60(4) . . .
68(5) . . .
67(4) . . .
68(4) . . .
63(4) . . .
66(4) . . .
69(4) . . .
65(4) . . .
60(4) . . .
58(4) . . .
70(5) . . .
65(4) . . .
68(4) . . .
68(4) . . .
57(4) . . .
56(4) . . .
68(5) . . .
73(5) . . .
70(4) . . .
73(5) . . .
67(5) . . .
53(4) . . .
70(4) . . .
65(4) . . .
73(5) . . .
77(5) . . .
60(4) . . .
69(4) . . .
80(5) . . .
64(4) . . .
69(5) . . .
72(5) . . .
66(4) . . .
70(4) . . .
75(5) . . .
59(4) . . .
66(4) . . .
66(4) . . .
68(4) . . .
64(4) . . .
67(5) . . .
57(4) . . .
64(4) . . .
58(4) . . .
69(4) . . .
71(4) . . .
74(4) . . .
71(4) . . .
85(5) . . .
68(4) . . .
64(4) . . .
73(4) . . .
73(4) . . .
72(5) . . .
78(5) . . .
71(5) . . .
62(4) . . .
74(4) . . .
68(4) . . .
64(4) . . .
64(4) . . .
69(4) . . .
73(4) . . .
73(5) . . .
57(4) . . .
64(4) . . .
64(4) . . .
61(4) . . .
58(4) . . .
62(4) . . .
63(4) . . .
64(4) . . .
76(5) . . .
69(4) . . .
58(4) . . .
59(4) . . .
74(4) . . .
73(4) . . .
73(5) . . .
72(5) . . .
69(5) . . .
62(4) . . .
75(4) . . .
68(4) . . .
69(5) . . .
66(4) . . .
60(4) . . .
59(4) . . .
71(5) . . .
57(4) . . .
71(4) . . .
69(4) . . .
74(5) . . .
67(4) . . .
79(5) . . .
58(4) . . .
74(4) . . .
72(4) . . .
65(4) . . .
69(4) . . .
74(5) . . .
72(4) . . .
82(5) . . .
69(5) . . .
55(4) . . .
61(4) . . .
69(4) . . .
68(4) . . .
70(4) . . .
82(5) . . .
78(5) . . .
65(4) . . .
70(5) . . .
64(4) . . .
73(5) . . .
62(4) . . .
66(4) . . .
76(5) . . .
68(5) . . .
72(4) . . .
70(4) . . .
76(5) . . .
66(4) . . .
60(4) . . .
74(5) . . .
69(4) . . .
67(4) . . .
64(4) . . .
61(4) . . .
60(4) . . .
63(4) . . .
76(5) . . .
69(4) . . .
74(5) . . .
65(4) . . .
75(4) . . .
76(5) . . .
54(4) . . .
69(5) . . .
66(4) . . .
60(4) . . .
60(4) . . .
68(4) . . .
68(5) . . .
67(4) . . .
69(4) . . .
76(5) . . .
69(5) . . .
71(5) . . .
60(4) . . .
58(4) . . .
65(4) . . .
57(4) . . .
59(4) . . .
61(4) . . .
61(4) . . .
64(4) . . .
60(4) . . .
67(5) . . .
66(4) . . .
55(4) . . .
68(4) . . .
59(4) . . .
67(5) . . .
73(5) . . .
74(4) . . .
69(4) . . .
69(4) . . .
69(4) . . .
71(4) . . .
72(4) . . .
59(4) . . .
56(4) . . .
59(4) . . .
69(4) . . .
69(4) . . .
72(4) . . .
78(5) . . .
65(4) . . .
68(4) . . .
74(5) . . .
73(5) . . .
79(5) . . .
65(4) . . .
63(4) . . .
69(5) . . .
63(4) . . .
74(5) . . .
53(4) . . .
62(4) . . .
71(4) . . .
75(5) . . .
59(4) . . .
69(4) . . .
70(4) . . .
57(4) . . .
63(4) . . .
58(4) . . .
53(4) . . .
53(4) . . .
58(4) . . .
73(5) . . .
62(4) . . .
61(4) . . .
68(4) . . .
69(4) . . .
67(4) . . .
68(5) . . .
74(4) . . .
66(4) . . .
73(5) . . .
63(4) . . .
65(4) . . .
72(5) . . .
71(4) . . .
69(4) . . .
68(5) . . .
76(5) . . .
81(5) . . .
70(4) . . .
49(4) . . .
72(5) . . .
72(4) . . .
73(4) . . .
68(4) . . .
67(4) . . .
61(4) . . .
64(4) . . .
68(4) . . .
63(4) . . .
75(5) . . .
68(5) . . .
63(4) . . .
64(4) . . .
70(4) . . .
71(4) . . .
67(5) . . .
71(5) . . .
68(4) . . .
63(4) . . .
77(5) . . .
70(5) . . .
62(4) . . .
75(4) . . .
75(5) . . .
68(4) . . .
60(4) . . .
58(4) . . .
61(4) . . .
68(4) . . .
69(4) . . .
67(4) . . .
68(5) . . .
70(4) . . .
75(5) . . .
64(4) . . .
65(4) . . .
61(4) . . .
59(4) . . .
64(4) . . .
62(4) . . .
63(4) . . .
63(4) . . .
71(4) . . .
67(4) . . .
64(4) . . .
67(4) . . .
67(4) . . .
69(4) . . .
64(4) . . .
72(5) . . .
66(4) . . .
67(4) . . .
55(4) . . .
63(4) . . .
72(5) . . .
65(4) . . .
59(4) . . .
68(4) . . .
71(5) . . .
69(5) . . .
67(4) . . .
71(4) . . .
69(4) . . .
66(4) . . .
77(5) . . .
66(4) . . .
65(4) . . .
65(4) . . .
67(4) . . .
61(4) . . .
59(4) . . .
59(4) . . .
69(4) . . .
69(4) . . .
59(4) . . .
68(4) . . .
64(4) . . .
71(4) . . .
63(4) . . .
69(5) . . .
64(4) . . .
64(4) . . .
60(4) . . .
73(5) . . .
57(4) . . .
62(4) . . .
59(4) . . .
54(4) . . .
61(4) . . .
66(4) . . .
68(4) . . .
62(4) . . .
60(4) . . .
62(4) . . .
73(5) . . .
62(4) . . .
67(4) . . .
69(4) . . .
67(4) . . .
72(5) . . .
68(4) . . .
67(4) . . .
63(4) . . .
66(5) . . .
64(4) . . .
62(4) . . .
60(4) . . .
64(4) . . .
68(4) . . .
62(4) . . .
71(4) . . .
64(4) . . .
78(5) . . .
76(5) . . .
63(4) . . .
57(4) . . .
67(4) . . .
58(4) . . .
79(5) . . .
67(4) . . .
63(4) . . .
67(4) . . .
56(4) . . .
68(5) . . .
71(5) . . .
63(4) . . .
60(4) . . .
70(5) . . .
62(4) . . .
73(5) . . .
72(4) . . .
63(4) . . .
57(4) . . .
71(5) . . .
66(5) . . .
64(4) . . .
67(4) . . .
63(4) . . .
69(5) . . .
63(4) . . .
76(5) . . .
67(4) . . .
64(4) . . .
62(4) . . .
66(4) . . .
57(4) . . .
61(4) . . .
65(5) . . .
64(4) . . .
72(4) . . .
67(4) . . .
77(5) . . .
63(4) . . .
68(4) . . .
78(5) . . .
62(4) . . .
74(4) . . .
66(4) . . .
64(4) . . .
73(5) . . .
61(4) . . .
72(4) . . .
66(5) . . .
61(4) . . .
63(4) . . .
62(4) . . .
63(4) . . .
74(5) . . .
67(4) . . .
56(4) . . .
70(4) . . .
59(4) . . .
61(4) . . .
67(4) . . .
68(4) . . .
69(4) . . .
70(5) . . .
55(4) . . .
53(4) . . .
67(4) . . .
68(4) . . .
69(5) . . .
61(4) . . .
63(4) . . .
62(4) . . .
63(4) . . .
63(4) . . .
81(5) . . .
81(5) . . .
63(4) . . .
56(4) . . .
65(5) . . .
59(4) . . .
77(5) . . .
71(4) . . .
63(4) . . .
67(5) . . .
57(4) . . .
59(4) . . .
59(4) . . .
65(4) . . .
56(4) . . .
66(4) . . .
59(4) . . .
57(4) . . .
48(4) . . .
58(4) . . .
63(4) . . .
57(4) . . .
73(4) . . .
66(4) . . .
65(5) . . .
58(4) . . .
61(4) . . .
64(4) . . .
61(4) . . .
55(4) . . .
71(5) . . .
62(4) . . .
61(4) . . .
60(4) . . .
57(4) . . .
73(5) . . .
70(4) . . .
75(5) . . .
63(4) . . .
69(5) . . .
66(4) . . .
69(4) . . .
62(4) . . .
60(4) . . .
58(4) . . .
77(5) . . .
69(4) . . .
62(4) . . .
66(4) . . .
68(4) . . .
71(4) . . .
55(4) . . .
64(4) . . .
67(5) . . .
55(4) . . .
75(4) . . .
80(5) . . .
63(4) . . .
64(4) . . .
63(4) . . .
66(4) . . .
58(4) . . .
53(4) . . .
54(4) . . .
80(5) . . .
63(4) . . .
65(4) . . .
56(4) . . .
69(5) . . .
66(4) . . .
67(4) . . .
68(4) . . .
54(4) . . .
74(5) . . .
66(4) . . .
68(4) . . .
67(4) . . .
61(4) . . .
65(5) . . .
61(4) . . .
67(4) . . .
66(5) . . .
79(5) . . .
70(5) . . .
60(4) . . .
65(4) . . .
66(4) . . .
75(5) . . .
65(5) . . .
73(5) . . .
49(4) . . .
61(4) . . .
61(4) . . .
63(4) . . .
63(4) . . .
57(4) . . .
60(4) . . .
58(4) . . .
56(4) . . .
62(4) . . .
67(4) . . .
65(4) . . .
62(4) . . .
57(4) . . .
64(4) . . .
73(4) . . .
61(4) . . .
56(4) . . .
70(5) . . .
69(4) . . .
57(4) . . .
70(5) . . .
57(4) . . .
65(4) . . .
63(4) . . .
60(4) . . .
65(4) . . .
62(4) . . .
61(4) . . .
65(4) . . .
57(4) . . .
63(4) . . .
64(4) . . .
72(5) . . .
66(4) . . .
70(4) . . .
56(4) . . .
53(4) . . .
64(4) . . .
59(4) . . .
52(4) . . .
59(4) . . .
62(4) . . .
68(5) . . .
63(4) . . .
61(4) . . .
53(4) . . .
58(4) . . .
67(5) . . .
72(4) . . .
61(4) . . .
84(5) . . .
62(4) . . .
72(5) . . .
65(4) . . .
65(4) . . .
68(4) . . .
55(4) . . .
54(4) . . .
64(4) . . .
68(4) . . .
59(4) . . .
62(4) . . .
62(4) . . .
62(4) . . .
65(4) . . .
73(5) . . .
69(4) . . .
50(4) . . .
63(4) . . .
66(4) . . .
73(5) . . .
65(4) . . .
69(4) . . .
67(4) . . .
62(4) . . .
68(5) . . .
63(4) . . .
63(4) . . .
63(4) . . .
65(4) . . .
59(4) . . .
68(5) . . .
66(4) . . .
73(4) . . .
73(5) . . .
76(5) . . .
64(4) . . .
69(4) . . .
64(4) . . .
66(5) . . .
64(4) . . .
55(4) . . .
51(4) . . .
69(4) . . .
73(5) . . .
59(4) . . .
53(4) . . .
81(5) . . .
57(4) . . .
71(5) . . .
67(4) . . .
62(4) . . .
67(4) . . .
65(4) . . .
64(4) . . .
66(4) . . .
69(4) . . .
65(4) . . .
69(5) . . .
56(4) . . .
63(4) . . .
68(4) . . .
69(4) . . .
68(4) . . .
62(4) . . .
68(4) . . .
71(4) . . .
67(4) . . .
62(4) . . .
70(5) . . .
71(5) . . .
69(4) . . .
51(4) . . .
63(4) . . .
58(4) . . .
63(4) . . .
65(4) . . .
71(4) . . .
64(4) . . .
71(4) . . .
65(4) . . .
62(4) . . .
63(4) . . .
66(4) . . .
60(4) . . .
59(4) . . .
58(4) . . .
71(4) . . .
66(5) . . .
67(4) . . .
63(4) . . .
75(4) . . .
65(4) . . .
61(4) . . .
61(4) . . .
61(4) . . .
57(4) . . .
58(4) . . .
63(4) . . .
74(5) . . .
70(5) . . .
80(5) . . .
62(4) . . .
57(4) . . .
59(4) . . .
70(4) . . .
69(4) . . .
62(4) . . .
61(4) . . .
60(4) . . .
70(4) . . .
62(4) . . .
60(4) . . .
51(4) . . .
66(4) . . .
67(4) . . .
67(4) . . .
70(5) . . .
62(4) . . .
53(4) . . .
57(4) . . .
58(4) . . .
51(4) . . .
57(4) . . .
61(4) . . .
63(4) . . .
58(4) . . .
57(4) . . .
70(5) . . .
62(4) . . .
57(4) . . .
65(4) . . .
57(4) . . .
64(5) . . .
61(4) . . .
63(4) . . .
60(4) . . .
60(4) . . .
62(4) . . .
56(4) . . .
60(4) . . .
72(5) . . .
62(4) . . .
71(5) . . .
70(5) . . .
63(4) . . .
66(4) . . .
60(4) . . .
61(4) . . .
63(4) . . .
58(4) . . .
62(4) . . .
60(4) . . .
64(4) . . .
68(4) . . .
55(4) . . .
60(4) . . .
70(5) . . .
65(4) . . .
65(4) . . .
52(4) . . .
72(5) . . .
71(5) . . .
67(4) . . .
64(4) . . .
68(4) . . .
57(4) . . .
69(5) . . .
61(4) . . .
66(4) . . .
55(4) . . .
67(4) . . .
59(4) . . .
66(4) . . .
70(4) . . .
60(4) . . .
64(5) . . .
59(4) . . .
60(4) . . .
74(4) . . .
72(4) . . .
61(4) . . .
65(5) . . .
56(4) . . .
75(5) . . .
68(4) . . .
71(5) . . .
59(4) . . .
59(4) . . .
61(4) . . .
64(4) . . .
68(4) . . .
72(5) . . .
67(5) . . .
59(4) . . .
69(4) . . .
69(5) . . .
67(5) . . .
65(4) . . .
65(4) . . .
56(4) . . .
60(4) . . .
55(4) . . .
66(4) . . .
63(4) . . .
59(4) . . .
54(4) . . .
62(4) . . .
59(4) . . .
60(4) . . .
59(4) . . .
61(4) . . .
60(4) . . .
78(5) . . .
60(4) . . .
66(5) . . .
56(4) . . .
50(4) . . .
73(5) . . .
68(4) . . .
62(4) . . .
63(4) . . .
68(5) . . .
58(4) . . .
61(4) . . .
54(4) . . .
67(5) . . .
60(4) . . .
69(4) . . .
70(4) . . .
66(4) . . .
65(4) . . .
61(4) . . .
55(4) . . .
68(4) . . .
64(4) . . .
60(4) . . .
58(4) . . .
64(4) . . .
62(4) . . .
64(4) . . .
64(4) . . .
68(4) . . .
57(4) . . .
61(4) . . .
65(4) . . .
70(5) . . .
55(4) . . .
55(4) . . .
57(4) . . .
67(4) . . .
66(4) . . .
62(4) . . .
66(4) . . .
59(4) . . .
72(5) . . .
67(4) . . .
59(4) . . .
65(4) . . .
73(5) . . .
65(4) . . .
72(5) . . .
63(4) . . .
63(4) . . .
45(4) . . .
59(4) . . .
65(4) . . .
66(4) . . .
66(4) . . .
66(4) . . .
74(5) . . .
70(5) . . .
66(4) . . .
58(4) . . .
63(4) . . .
62(4) . . .
58(4) . . .
71(4) . . .
48(4) . . .
59(4) . . .
57(4) . . .
55(4) . . .
67(4) . . .
59(4) . . .
66(4) . . .
68(4) . . .
81(5) . . .
63(4) . . .
54(4) . . .
59(4) . . .
57(4) . . .
53(4) . . .
57(4) . . .
59(4) . . .
62(4) . . .
73(5) . . .
64(4) . . .
72(4) . . .
53(4) . . .
59(4) . . .
61(4) . . .
71(4) . . .
75(5) . . .
59(4) . . .
59(4) . . .
69(5) . . .
69(4) . . .
57(4) . . .
66(4) . . .
55(4) . . .
61(4) . . .
65(4) . . .
61(4) . . .
56(4) . . .
72(5) . . .
65(4) . . .
67(4) . . .
64(4) . . .
53(4) . . .
60(4) . . .
59(4) . . .
51(4) . . .
58(4) . . .
71(5) . . .
63(4) . . .
57(4) . . .
66(4) . . .
59(4) . . .
75(5) . . .
49(4) . . .
65(4) . . .
57(4) . . .
61(4) . . .
61(4) . . .
58(4) . . .
54(4) . . .
59(4) . . .
54(4) . . .
60(4) . . .
62(4) . . .
64(4) . . .
53(4) . . .
70(4) . . .
56(4) . . .
68(5) . . .
65(5) . . .
64(4) . . .
65(4) . . .
65(4) . . .
63(4) . . .
73(5) . . .
64(4) . . .
65(4) . . .
69(5) . . .
62(4) . . .
72(5) . . .
60(4) . . .
60(4) . . .
58(4) . . .
61(4) . . .
62(4) . . .
64(4) . . .
61(4) . . .
51(4) . . .
65(4) . . .
66(4) . . .
67(4) . . .
54(4) . . .
61(4) . . .
63(4) . . .
56(4) . . .
66(4) . . .
61(4) . . .
63(4) . . .
69(4) . . .
76(5) . . .
63(4) . . .
69(4) . . .
75(5) . . .
67(4) . . .
75(5) . . .
66(4) . . .
68(4) . . .
71(5) . . .
59(4) . . .
65(4) . . .
57(4) . . .
59(4) . . .
55(4) . . .
63(4) . . .
48(4) . . .
52(4) . . .
63(4) . . .
55(4) . . .
66(4) . . .
65(4) . . .
68(4) . . .
72(5) . . .
69(4) . . .
64(4) . . .
66(4) . . .
58(4) . . .
60(4) . . .
64(5) . . .
63(4) . . .
48(4) . . .
56(4) . . .
75(5) . . .
66(5) . . .
58(4) . . .
62(4) . . .
70(4) . . .
77(5) . . .
69(5) . . .
71(5) . . .
65(4) . . .
62(4) . . .
65(5) . . .
54(4) . . .
61(4) . . .
70(4) . . .
64(4) . . .
59(4) . . .
56(4) . . .
55(4) . . .
63(4) . . .
63(4) . . .
74(5) . . .
72(5) . . .
63(4) . . .
58(4) . . .
62(4) . . .
57(4) . . .
62(4) . . .
55(4) . . .
71(4) . . .
65(4) . . .
61(4) . . .
59(4) . . .
56(4) . . .
59(4) . . .
54(4) . . .
58(4) . . .
62(4) . . .
66(4) . . .
69(4) . . .
62(4) . . .
62(4) . . .
55(4) . . .
65(4) . . .
71(5) . . .
69(4) . . .
60(4) . . .
58(4) . . .
62(4) . . .
65(4) . . .
58(4) . . .
57(4) . . .
61(4) . . .
50(4) . . .
52(4) . . .
60(4) . . .
49(4) . . .
57(4) . . .
53(4) . . .
62(4) . . .
57(4) . . .
66(4) . . .
64(4) . . .
58(4) . . .
63(4) . . .
71(5) . . .
58(4) . . .
54(4) . . .
52(4) . . .
49(4) . . .
56(4) . . .
52(4) . . .
64(4) . . .
61(4) . . .
59(4) . . .
64(5) . . .
65(4) . . .
68(4) . . .
60(4) . . .
63(4) . . .
57(4) . . .
69(4) . . .
46(4) . . .
63(4) . . .
60(4) . . .
80(5) . . .
57(4) . . .
63(4) . . .
66(4) . . .
54(4) . . .
53(4) . . .
63(4) . . .
68(4) . . .
74(5) . . .
58(4) . . .
59(4) . . .
61(4) . . .
62(4) . . .
56(4) . . .
66(5) . . .
54(4) . . .
57(4) . . .
58(4) . . .
66(5) . . .
64(4) . . .
68(4) . . .
60(4) . . .
62(4) . . .
66(4) . . .
68(4) . . .
63(4) . . .
54(4) . . .
66(4) . . .
62(4) . . .
66(4) . . .
59(4) . . .
60(4) . . .
62(4) . . .
63(4) . . .
61(4) . . .
66(4) . . .
64(4) . . .
60(4) . . .
69(4) . . .
63(4) . . .
66(4) . . .
70(4) . . .
60(4) . . .
67(4) . . .
66(4) . . .
70(4) . . .
54(4) . . .
64(4) . . .
62(4) . . .
57(4) . . .
61(4) . . .
74(5) . . .
59(4) . . .
56(4) . . .
54(4) . . .
62(4) . . .
57(4) . . .
62(4) . . .
55(4) . . .
72(5) . . .
76(5) . . .
65(4) . . .
66(4) . . .
47(4) . . .
74(5) . . .
70(5) . . .
60(4) . . .
66(4) . . .
71(5) . . .
68(5) . . .
68(4) . . .
59(4) . . .
59(4) . . .
70(5) . . .
65(4) . . .
54(4) . . .
60(4) . . .
68(4) . . .
62(4) . . .
68(5) . . .
56(4) . . .
72(4) . . .
66(4) . . .
58(4) . . .
66(4) . . .
52(4) . . .
60(4) . . .
60(4) . . .
64(4) . . .
56(4) . . .
58(4) . . .
66(4) . . .
64(4) . . .
56(4) . . .
61(4) . . .
61(4) . . .
55(4) . . .
54(4) . . .
65(4) . . .
74(5) . . .
59(4) . . .
59(4) . . .
73(5) . . .
63(5) . . .
53(4) . . .
66(4) . . .
57(4) . . .
55(4) . . .
69(5) . . .
62(4) . . .
59(4) . . .
56(4) . . .
55(4) . . .
58(4) . . .
60(4) . . .
55(4) . . .
57(4) . . .
60(4) . . .
75(5) . . .
73(4) . . .
63(4) . . .
68(4) . . .
62(4) . . .
69(5) . . .
65(4) . . .
65(4) . . .
68(4) . . .
57(4) . . .
61(4) . . .
56(4) . . .
68(4) . . .
69(4) . . .
66(5) . . .
56(4) . . .
65(4) . . .
64(4) . . .
61(4) . . .
57(4) . . .
55(4) . . .
59(4) . . .
69(4) . . .
60(4) . . .
59(4) . . .
56(4) . . .
49(4) . . .
59(4) . . .
54(4) . . .
66(5) . . .
68(4) . . .
53(4) . . .
62(4) . . .
69(4) . . .
68(4) . . .
63(4) . . .
65(4) . . .
58(4) . . .
68(4) . . .
62(4) . . .
59(4) . . .
58(4) . . .
73(5) . . .
69(4) . . .
67(4) . . .
62(4) . . .
65(4) . . .
62(4) . . .
59(4) . . .
63(4) . . .
51(4) . . .
64(4) . . .
63(4) . . .
63(4) . . .
68(4) . . .
62(4) . . .
60(4) . . .
73(5) . . .
66(4) . . .
60(4) . . .
55(4) . . .
66(4) . . .
53(4) . . .
52(4) . . .
64(5) . . .
64(4) . . .
59(4) . . .
66(4) . . .
51(4) . . .
57(4) . . .
60(4) . . .
57(4) . . .
65(4) . . .
55(4) . . .
57(4) . . .
57(4) . . .
51(4) . . .
66(5) . . .
67(5) . . .
66(4) . . .
58(4) . . .
66(4) . . .
57(4) . . .
61(4) . . .
58(4) . . .
52(4) . . .
64(4) . . .
68(4) . . .
66(5) . . .
56(4) . . .
53(4) . . .
55(4) . . .
70(5) . . .
63(4) . . .
55(4) . . .
59(4) . . .
55(4) . . .
65(4) . . .
63(4) . . .
57(4) . . .
60(4) . . .
58(4) . . .
55(4) . . .
60(4) . . .
54(4) . . .
65(4) . . .
64(4) . . .
58(4) . . .
63(4) . . .
56(4) . . .
53(4) . . .
59(4) . . .
53(4) . . .
58(4) . . .
62(4) . . .
48(4) . . .
62(4) . . .
55(4) . . .
57(4) . . .
66(4) . . .
61(4) . . .
58(4) . . .
58(4) . . .
54(4) . . .
61(4) . . .
51(4) . . .
62(4) . . .
68(5) . . .
67(4) . . .
58(4) . . .
64(4) . . .
68(4) . . .
66(5) . . .
57(4) . . .
68(4) . . .
64(4) . . .
59(4) . . .
49(4) . . .
58(4) . . .
56(4) . . .
55(4) . . .
59(4) . . .
65(4) . . .
68(5) . . .
67(4) . . .
76(5) . . .
56(4) . . .
68(5) . . .
61(4) . . .
54(4) . . .
60(4) . . .
51(4) . . .
66(4) . . .
55(4) . . .
59(4) . . .
60(4) . . .
61(4) . . .
64(4) . . .
67(4) . . .
60(4) . . .
60(4) . . .
60(4) . . .
57(4) . . .
60(4) . . .
63(4) . . .
58(4) . . .
71(5) . . .
60(4) . . .
61(4) . . .
58(4) . . .
63(4) . . .
65(5) . . .
63(4) . . .
58(4) . . .
58(4) . . .
63(4) . . .
61(4) . . .
55(4) . . .
59(4) . . .
73(5) . . .
63(4) . . .
62(4) . . .
66(4) . . .
59(4) . . .
60(4) . . .
58(4) . . .
66(5) . . .
44.8(35) . . .
43.7(35) . . .
63(4) . . .
62(4) . . .
64(4) . . .
62(4) . . .
59(4) . . .
61(4) . . .
53(4) . . .
63(4) . . .
57(4) . . .
57(4) . . .
56(4) . . .
66(4) . . .
64(5) . . .
63(4) . . .
55(4) . . .
61(4) . . .
60(4) . . .
61(4) . . .
70(5) . . .
53(4) . . .
49(4) . . .
56(4) . . .
56(4) . . .
59(4) . . .
64(4) . . .
65(4) . . .
51(4) . . .
52(4) . . .
59(4) . . .
63(4) . . .
67(4) . . .
68(5) . . .
51(4) . . .
53(4) . . .
55(4) . . .
65(4) . . .
59(4) . . .
63(4) . . .
63(4) . . .
60(4) . . .
63(4) . . .
62(4) . . .
63(4) . . .
54(4) . . .
51(4) . . .
61(4) . . .
60(4) . . .
71(5) . . .
64(4) . . .
59(4) . . .
64(4) . . .
62(4) . . .
59(4) . . .
61(4) . . .
68(4) . . .
74(5) . . .
57(4) . . .
44(4) . . .
67(4) . . .
61(4) . . .
55(4) . . .
56(4) . . .
58(4) . . .
60(4) . . .
63(4) . . .
59(4) . . .
57(4) . . .
66(4) . . .
60(4) . . .
68(5) . . .
59(4) . . .
56(4) . . .
57(4) . . .
61(4) . . .
63(4) . . .
66(5) . . .
55(4) . . .
48(4) . . .
62(4) . . .
60(4) . . .
65(4) . . .
59(4) . . .
64(4) . . .
68(4) . . .
67(5) . . .
69(5) . . .
63(4) . . .
59(4) . . .
53(4) . . .
56(4) . . .
58(4) . . .
64(4) . . .
58(4) . . .
53(4) . . .
52(4) . . .
53(4) . . .
56(4) . . .
57(4) . . .
59(4) . . .
67(4) . . .
61(4) . . .
61(4) . . .
64(4) . . .
61(4) . . .
59(4) . . .
64(4) . . .
59(4) . . .
53(4) . . .
63(4) . . .
61(4) . . .
59(4) . . .
65(4) . . .
71(4) . . .
65(4) . . .
58(4) . . .
56(4) . . .
58(4) . . .
56(4) . . .
66(4) . . .
60(4) . . .
60(4) . . .
58(4) . . .
53(4) . . .
58(4) . . .
61(4) . . .
55(4) . . .
62(4) . . .
63(4) . . .
56(4) . . .
55(4) . . .
55(4) . . .
67(4) . . .
64(4) . . .
57(4) . . .
54(4) . . .
57(4) . . .
59(4) . . .
62(4) . . .
54(4) . . .
62(4) . . .
66(5) . . .
49(4) . . .
53(4) . . .
50(4) . . .
55(4) . . .
69(5) . . .
65(4) . . .
61(4) . . .
74(5) . . .
74(5) . . .
65(4) . . .
54(4) . . .
51(4) . . .
59(4) . . .
62(4) . . .
66(4) . . .
48(4) . . .
56(4) . . .
51(4) . . .
46(4) . . .
60(4) . . .
66(4) . . .
55(4) . . .
63(4) . . .
57(4) . . .
54(4) . . .
64(4) . . .
60(4) . . .
71(5) . . .
57(4) . . .
64(4) . . .
56(4) . . .
60(4) . . .
57(4) . . .
66(4) . . .
59(4) . . .
65(4) . . .
62(4) . . .
57(4) . . .
66(4) . . .
68(4) . . .
61(4) . . .
60(4) . . .
59(4) . . .
50(4) . . .
63(4) . . .
69(4) . . .
58(4) . . .
72(5) . . .
57(4) . . .
49(4) . . .
55(4) . . .
54(4) . . .
57(4) . . .
49(4) . . .
58(4) . . .
57(4) . . .
50(4) . . .
69(5) . . .
65(4) . . .
60(4) . . .
59(4) . . .
57(4) . . .
60(4) . . .
61(4) . . .
58(4) . . .
61(4) . . .
55(4) . . .
68(5) . . .
66(4) . . .
63(4) . . .
56(4) . . .
58(4) . . .
61(4) . . .
55(4) . . .
64(4) . . .
64(4) . . .
53(4) . . .
56(4) . . .
59(4) . . .
57(4) . . .
54(4) . . .
50(4) . . .
61(4) . . .
56(4) . . .
58(4) . . .
56(4) . . .
71(5) . . .
52(4) . . .
61(4) . . .
54(4) . . .
55(4) . . .
63(4) . . .
57(4) . . .
57(4) . . .
59(4) . . .
55(4) . . .
58(4) . . .
71(5) . . .
65(4) . . .
67(4) . . .
67(4) . . .
53(4) . . .
53(4) . . .
57(4) . . .
64(4) . . .
57(4) . . .
59(4) . . .
65(4) . . .
61(4) . . .
58(4) . . .
56(4) . . .
57(4) . . .
66(5) . . .
70(4) . . .
61(4) . . .
63(4) . . .
59(4) . . .
65(4) . . .
69(4) . . .
58(4) . . .
67(5) . . .
63(4) . . .
68(5) . . .
62(4) . . .
69(4) . . .
66(5) . . .
66(4) . . .
53(4) . . .
63(4) . . .
69(5) . . .
71(5) . . .
56(4) . . .
64(4) . . .
69(4) . . .
67(4) . . .
52(4) . . .
48(4) . . .
58(4) . . .
67(4) . . .
64(5) . . .
52(4) . . .
58(4) . . .
56(4) . . .
54(4) . . .
52(4) . . .
63(4) . . .
67(5) . . .
60(4) . . .
62(4) . . .
58(4) . . .
48(4) . . .
67(4) . . .
66(4) . . .
53(4) . . .
57(4) . . .
60(4) . . .
54(4) . . .
52(4) . . .
59(4) . . .
61(4) . . .
51(4) . . .
58(4) . . .
55(4) . . .
76(5) . . .
63(4) . . .
54(4) . . .
57(4) . . .
56(4) . . .
59(4) . . .
54(4) . . .
61(4) . . .
63(4) . . .
61(4) . . .
65(4) . . .
59(4) . . .
63(4) . . .
68(4) . . .
62(4) . . .
54(4) . . .
57(4) . . .
60(4) . . .
61(4) . . .
60(4) . . .
60(4) . . .
57(4) . . .
54(4) . . .
75(5) . . .
57(4) . . .
67(5) . . .
58(4) . . .
60(4) . . .
71(4) . . .
61(4) . . .
60(4) . . .
58(4) . . .
56(4) . . .
65(4) . . .
54(4) . . .
60(4) . . .
57(4) . . .
58(4) . . .
66(4) . . .
63(4) . . .
63(4) . . .
69(5) . . .
57(4) . . .
66(4) . . .
63(4) . . .
58(4) . . .
60(4) . . .
56(4) . . .
52(4) . . .
61(4) . . .
56(4) . . .
60(4) . . .
63(4) . . .
65(4) . . .
58(4) . . .
54(4) . . .
53(4) . . .
56(4) . . .
52(4) . . .
61(4) . . .
55(4) . . .
73(5) . . .
56(4) . . .
58(4) . . .
68(4) . . .
58(4) . . .
58(4) . . .
63(4) . . .
64(4) . . .
56(4) . . .
60(4) . . .
58(4) . . .
54(4) . . .
54(4) . . .
64(4) . . .
62(4) . . .
53(4) . . .
56(4) . . .
63(4) . . .
67(4) . . .
54(4) . . .
66(4) . . .
70(4) . . .
72(4) . . .
63(4) . . .
52(4) . . .
69(5) . . .
61(4) . . .
65(4) . . .
67(4) . . .
60(4) . . .
59(4) . . .
61(4) . . .
57(4) . . .
54(4) . . .
69(5) . . .
60(4) . . .
60(4) . . .
54(4) . . .
64(4) . . .
67(4) . . .
62(4) . . .
52(4) . . .
53(4) . . .
50(4) . . .
64(4) . . .
68(4) . . .
54(4) . . .
64(4) . . .
53(4) . . .
59(4) . . .
61(4) . . .
70(4) . . .
63(4) . . .
67(5) . . .
65(5) . . .
59(4) . . .
53(4) . . .
56(4) . . .
58(4) . . .
56(4) . . .
59(4) . . .
56(4) . . .
59(4) . . .
58(4) . . .
69(5) . . .
48(4) . . .
54(4) . . .
56(4) . . .
63(5) . . .
54(4) . . .
56(4) . . .
69(4) . . .
64(4) . . .
60(4) . . .
44.2(34) . . .
66(4) . . .
51(4) . . .
62(4) . . .
61(4) . . .
60(4) . . .
67(4) . . .
68(4) . . .
55(4) . . .
66(5) . . .
55(4) . . .
60(4) . . .
63(4) . . .
59(4) . . .
58(4) . . .
54(4) . . .
68(4) . . .
57(4) . . .
52(4) . . .
53(4) . . .
58(4) . . .
66(4) . . .
51(4) . . .
64(4) . . .
53(4) . . .
59(4) . . .
59(4) . . .
58(4) . . .
57(4) . . .
61(4) . . .
60(4) . . .
63(4) . . .
68(5) . . .
63(4) . . .
57(4) . . .
58(4) . . .
58(4) . . .
61(4) . . .
60(4) . . .
52(4) . . .
61(4) . . .
66(4) . . .
77(5) . . .
72(5) . . .
61(4) . . .
60(4) . . .
59(4) . . .
65(4) . . .
67(5) . . .
65(4) . . .
62(4) . . .
59(4) . . .
60(4) . . .
61(4) . . .
69(5) . . .
51(4) . . .
53(4) . . .
64(4) . . .
71(5) . . .
64(4) . . .
59(4) . . .
58(4) . . .
62(4) . . .
61(4) . . .
58(4) . . .
64(4) . . .
54(4) . . .
57(4) . . .
57(4) . . .
49(4) . . .
60(4) . . .
66(4) . . .
58(4) . . .
47(4) . . .
53(4) . . .
57(4) . . .
60(4) . . .
67(5) . . .
53(4) . . .
52(4) . . .
58(4) . . .
59(4) . . .
61(4) . . .
62(4) . . .
70(4) . . .
63(4) . . .
60(4) . . .
60(4) . . .
65(4) . . .
57(4) . . .
56(4) . . .
62(4) . . .
63(4) . . .
57(4) . . .
57(4) . . .
53(4) . . .
57(4) . . .
61(4) . . .
69(4) . . .
63(4) . . .
54(4) . . .
61(4) . . .
58(4) . . .
59(4) . . .
62(4) . . .
69(4) . . .
66(4) . . .
68(5) . . .
53(4) . . .
51(4) . . .
61(4) . . .
72(5) . . .
60(5) . . .
58(4) . . .
63(4) . . .
70(4) . . .
58(4) . . .
64(4) . . .
55(4) . . .
54(4) . . .
59(4) . . .
54(4) . . .
54(4) . . .
57(4) . . .
59(4) . . .
58(4) . . .
60(4) . . .
60(4) . . .
52(4) . . .
76(5) . . .
60(4) . . .
48(4) . . .
57(4) . . .
57(4) . . .
74(5) . . .
56(4) . . .
59(4) . . .
61(4) . . .
52(4) . . .
61(4) . . .
52(4) . . .
61(4) . . .
58(4) . . .
58(4) . . .
54(4) . . .
50(4) . . .
56(4) . . .
50(4) . . .
44.6(35) . . .
52(4) . . .
59(4) . . .
48(4) . . .
57(4) . . .
54(4) . . .
56(4) . . .
55(4) . . .
56(4) . . .
61(4) . . .
45.8(35) . . .
55(4) . . .
62(4) . . .
70(5) . . .
56(4) . . .
65(4) . . .
53(4) . . .
54(4) . . .
59(4) . . .
67(4) . . .
61(4) . . .
48(4) . . .
61(4) . . .
49(4) . . .
61(4) . . .
66(4) . . .
65(4) . . .
56(4) . . .
64(4) . . .
67(4) . . .
59(4) . . .
64(4) . . .
59(4) . . .
55(4) . . .
59(4) . . .
62(4) . . .
61(4) . . .
59(4) . . .
66(4) . . .
60(4) . . .
55(4) . . .
48(4) . . .
50(4) . . .
57(4) . . .
55(4) . . .
54(4) . . .
46(4) . . .
60(4) . . .
58(4) . . .
62(4) . . .
63(4) . . .
64(4) . . .
59(4) . . .
67(4) . . .
52(4) . . .
58(4) . . .
56(4) . . .
63(4) . . .
55(4) . . .
72(4) . . .
60(4) . . .
59(4) . . .
56(4) . . .
50(4) . . .
55(4) . . .
69(4) . . .
50(4) . . .
49(4) . . .
53(4) . . .
55(4) . . .
50(4) . . .
62(4) . . .
62(4) . . .
58(4) . . .
63(4) . . .
63(4) . . .
56(4) . . .
72(5) . . .
53(4) . . .
51(4) . . .
58(4) . . .
58(4) . . .
62(4) . . .
60(4) . . .
66(4) . . .
69(4) . . .
57(4) . . .
55(4) . . .
58(4) . . .
50(4) . . .
47(4) . . .
64(4) . . .
59(4) . . .
55(4) . . .
51(4) . . .
63(4) . . .
56(4) . . .
61(4) . . .
68(4) . . .
56(4) . . .
55(4) . . .
55(4) . . .
55(4) . . .
59(4) . . .
49(4) . . .
53(4) . . .
54(4) . . .
61(4) . . .
52(4) . . .
51(4) . . .
56(4) . . .
52(4) . . .
62(4) . . .
65(4) . . .
57(4) . . .
45(4) . . .
49(4) . . .
68(5) . . .
58(4) . . .
67(4) . . .
59(4) . . .
65(4) . . .
47(4) . . .
56(4) . . .
56(4) . . .
57(4) . . .
56(4) . . .
65(4) . . .
69(4) . . .
63(4) . . .
55(4) . . .
49(4) . . .
58(4) . . .
64(4) . . .
49(4) . . .
60(4) . . .
53(4) . . .
57(4) . . .
62(4) . . .
51(4) . . .
56(4) . . .
68(4) . . .
64(4) . . .
65(4) . . .
58(4) . . .
70(5) . . .
63(4) . . .
62(4) . . .
63(4) . . .
62(4) . . .
65(4) . . .
65(4) . . .
58(4) . . .
61(4) . . .
55(4) . . .
50(4) . . .
62(4) . . .
62(4) . . .
49(4) . . .
64(4) . . .
57(4) . . .
53(4) . . .
48(4) . . .
44.3(35) . . .
59(4) . . .
62(4) . . .
55(4) . . .
60(4) . . .
60(4) . . .
49(4) . . .
58(4) . . .
61(4) . . .
58(4) . . .
55(4) . . .
63(4) . . .
69(5) . . .
61(4) . . .
57(4) . . .
68(4) . . .
62(4) . . .
52(4) . . .
62(4) . . .
62(4) . . .
50(4) . . .
52(4) . . .
59(4) . . .
64(4) . . .
53(4) . . .
60(4) . . .
55(4) . . .
50(4) . . .
71(4) . . .
53(4) . . .
65(4) . . .
60(4) . . .
57(4) . . .
53(4) . . .
63(4) . . .
64(4) . . .
57(4) . . .
62(4) . . .
54(4) . . .
65(4) . . .
61(4) . . .
54(4) . . .
62(4) . . .
65(4) . . .
55(4) . . .
49(4) . . .
57(4) . . .
70(4) . . .
59(4) . . .
65(4) . . .
74(5) . . .
68(5) . . .
47(4) . . .
70(4) . . .
58(4) . . .
62(4) . . .
48(4) . . .
57(4) . . .
62(4) . . .
67(4) . . .
61(4) . . .
59(4) . . .
54(4) . . .
52(4) . . .
67(4) . . .
58(4) . . .
54(4) . . .
51(4) . . .
55(4) . . .
65(4) . . .
67(5) . . .
63(5) . . .
52(4) . . .
68(4) . . .
61(4) . . .
63(4) . . .
58(4) . . .
51(4) . . .
69(4) . . .
63(4) . . .
53(4) . . .
57(4) . . .
57(4) . . .
59(4) . . .
56(4) . . .
57(4) . . .
57(4) . . .
64(4) . . .
61(4) . . .
52(4) . . .
64(4) . . .
61(4) . . .
51(4) . . .
64(4) . . .
50(4) . . .
55(4) . . .
61(4) . . .
65(4) . . .
59(4) . . .
62(4) . . .
52(4) . . .
55(4) . . .
60(4) . . .
55(4) . . .
57(4) . . .
63(4) . . .
55(4) . . .
56(4) . . .
55(4) . . .
53(4) . . .
63(5) . . .
53(4) . . .
54(4) . . .
68(4) . . .
61(4) . . .
58(4) . . .
58(4) . . .
56(4) . . .
63(4) . . .
56(4) . . .
60(4) . . .
68(4) . . .
63(4) . . .
54(4) . . .
48(4) . . .
52(4) . . .
54(4) . . .
56(4) . . .
56(4) . . .
59(4) . . .
55(4) . . .
53(4) . . .
62(4) . . .
62(4) . . .
64(5) . . .
45.2(35) . . .
58(4) . . .
57(4) . . .
62(4) . . .
58(4) . . .
66(4) . . .
68(4) . . .
57(4) . . .
57(4) . . .
52(4) . . .
59(4) . . .
66(4) . . .
52(4) . . .
60(4) . . .
57(4) . . .
70(5) . . .
52(4) . . .
49(4) . . .
51(4) . . .
54(4) . . .
61(4) . . .
48(4) . . .
55(4) . . .
62(4) . . .
52(4) . . .
44(4) . . .
53(4) . . .
54(4) . . .
53(4) . . .
58(4) . . .
49(4) . . .
52(4) . . .
44(4) . . .
50(4) . . .
61(4) . . .
50(4) . . .
60(4) . . .
70(5) . . .
59(4) . . .
59(4) . . .
61(4) . . .
60(4) . . .
63(4) . . .
59(4) . . .
54(4) . . .
51(4) . . .
59(4) . . .
53(4) . . .
56(4) . . .
55(4) . . .
53(4) . . .
57(4) . . .
51(4) . . .
50(4) . . .
66(4) . . .
56(4) . . .
58(4) . . .
59(4) . . .
51(4) . . .
58(4) . . .
68(4) . . .
61(4) . . .
57(4) . . .
56(4) . . .
62(4) . . .
65(4) . . .
63(4) . . .
61(4) . . .
66(4) . . .
58(4) . . .
58(4) . . .
67(4) . . .
58(4) . . .
52(4) . . .
57(4) . . .
58(4) . . .
56(4) . . .
57(4) . . .
63(4) . . .
58(4) . . .
56(4) . . .
55(4) . . .
58(4) . . .
59(4) . . .
58(4) . . .
60(4) . . .
71(5) . . .
60(4) . . .
47(4) . . .
68(4) . . .
63(4) . . .
60(4) . . .
63(4) . . .
63(4) . . .
64(4) . . .
57(4) . . .
51(4) . . .
53(4) . . .
53(4) . . .
60(4) . . .
55(4) . . .
58(4) . . .
67(5) . . .
62(4) . . .
54(4) . . .
55(4) . . .
66(5) . . .
62(4) . . .
62(4) . . .
68(4) . . .
74(5) . . .
56(4) . . .
55(4) . . .
57(4) . . .
55(4) . . .
59(4) . . .
61(4) . . .
52(4) . . .
57(4) . . .
58(4) . . .
53(4) . . .
56(4) . . .
52(4) . . .
51(4) . . .
54(4) . . .
67(4) . . .
63(4) . . .
55(4) . . .
59(4) . . .
63(4) . . .
53(4) . . .
51(4) . . .
55(4) . . .
58(4) . . .
59(4) . . .
47(4) . . .
48(4) . . .
65(4) . . .
66(4) . . .
55(4) . . .
54(4) . . .
47(4) . . .
56(4) . . .
57(4) . . .
64(4) . . .
69(5) . . .
56(4) . . .
61(4) . . .
56(4) . . .
55(4) . . .
54(4) . . .
51(4) . . .
57(4) . . .
59(4) . . .
62(4) . . .
53(4) . . .
56(4) . . .
59(4) . . .
61(4) . . .
58(4) . . .
57(4) . . .
51(4) . . .
52(4) . . .
57(4) . . .
64(4) . . .
56(4) . . .
55(4) . . .
60(4) . . .
60(4) . . .
69(4) . . .
63(4) . . .
67(5) . . .
56(4) . . .
59(4) . . .
66(4) . . .
59(4) . . .
60(4) . . .
55(4) . . .
67(4) . . .
49(4) . . .
58(4) . . .
56(4) . . .
50(4) . . .
62(4) . . .
56(4) . . .
60(4) . . .
63(5) . . .
47(4) . . .
59(4) . . .
48(4) . . .
58(4) . . .
58(4) . . .
64(4) . . .
57(4) . . .
58(4) . . .
51(4) . . .
51(4) . . .
56(4) . . .
58(4) . . .
58(4) . . .
49(4) . . .
65(4) . . .
55(4) . . .
56(4) . . .
60(4) . . .
62(4) . . .
60(4) . . .
58(4) . . .
64(4) . . .
47(4) . . .
50(4) . . .
65(5) . . .
61(4) . . .
68(4) . . .
49(4) . . .
50(4) . . .
61(4) . . .
65(4) . . .
57(4) . . .
65(4) . . .
66(5) . . .
60(4) . . .
61(4) . . .
54(4) . . .
65(4) . . .
57(4) . . .
56(4) . . .
58(4) . . .
60(4) . . .
63(4) . . .
60(4) . . .
59(4) . . .
66(4) . . .
56(4) . . .
58(4) . . .
58(4) . . .
66(4) . . .
52(4) . . .
49(4) . . .
62(4) . . .
66(5) . . .
57(4) . . .
55(4) . . .
59(4) . . .
55(4) . . .
65(4) . . .
47(4) . . .
58(4) . . .
58(4) . . .
53(4) . . .
46(4) . . .
64(4) . . .
54(4) . . .
49(4) . . .
59(4) . . .
59(4) . . .
51(4) . . .
50(4) . . .
67(4) . . .
57(4) . . .
69(4) . . .
71(4) . . .
69(4) . . .
63(4) . . .
58(4) . . .
66(4) . . .
62(4) . . .
47(4) . . .
61(4) . . .
55(4) . . .
66(5) . . .
56(4) . . .
63(4) . . .
54(4) . . .
49(4) . . .
55(4) . . .
52(4) . . .
50(4) . . .
53(4) . . .
61(4) . . .
54(4) . . .
57(4) . . .
61(4) . . .
44.7(34) . . .
59(4) . . .
50(4) . . .
49(4) . . .
49(4) . . .
55(4) . . .
59(4) . . .
68(4) . . .
57(4) . . .
55(4) . . .
51(4) . . .
50(4) . . .
68(4) . . .
64(4) . . .
53(4) . . .
75(5) . . .
55(4) . . .
57(4) . . .
65(4) . . .
70(4) . . .
67(4) . . .
81(5) . . .
56(4) . . .
60(4) . . .
49(4) . . .
59(4) . . .
54(4) . . .
61(4) . . .
61(4) . . .
64(5) . . .
55(4) . . .
50(4) . . .
58(4) . . .
62(4) . . .
56(4) . . .
54(4) . . .
57(4) . . .
56(4) . . .
61(4) . . .
56(4) . . .
51(4) . . .
59(4) . . .
53(4) . . .
53(4) . . .
51(4) . . .
58(4) . . .
54(4) . . .
61(4) . . .
60(4) . . .
55(4) . . .
56(4) . . .
57(4) . . .
68(4) . . .
47(4) . . .
55(4) . . .
55(4) . . .
72(5) . . .
50(4) . . .
52(4) . . .
60(4) . . .
59(4) . . .
60(4) . . .
58(4) . . .
57(4) . . .
55(4) . . .
63(4) . . .
63(4) . . .
56(4) . . .
59(4) . . .
56(4) . . .
58(4) . . .
51(4) . . .
60(4) . . .
56(4) . . .
59(4) . . .
51(4) . . .
54(4) . . .
53(4) . . .
50(4) . . .
61(4) . . .
56(4) . . .
54(4) . . .
54(4) . . .
56(4) . . .
49(4) . . .
56(4) . . .
57(4) . . .
56(4) . . .
64(4) . . .
62(4) . . .
49(4) . . .
55(4) . . .
61(4) . . .
55(4) . . .
56(4) . . .
43(4) . . .
47(4) . . .
54(4) . . .
62(4) . . .
57(4) . . .
54(4) . . .
55(4) . . .
63(4) . . .
64(4) . . .
61(4) . . .
50(4) . . .
63(4) . . .
54(4) . . .
63(4) . . .
58(4) . . .
50(4) . . .
63(4) . . .
55(4) . . .
61(4) . . .
66(4) . . .
59(4) . . .
51(4) . . .
61(4) . . .
52(4) . . .
61(4) . . .
60(4) . . .
57(4) . . .
57(4) . . .
53(4) . . .
55(4) . . .
55(4) . . .
42.7(34) . . .
55(4) . . .
59(4) . . .
48(4) . . .
48(4) . . .
55(4) . . .
64(4) . . .
49(4) . . .
54(4) . . .
62(4) . . .
65(5) . . .
55(4) . . .
57(4) . . .
63(4) . . .
58(4) . . .
56(4) . . .
63(4) . . .
70(5) . . .
60(4) . . .
60(4) . . .
48(4) . . .
55(4) . . .
60(4) . . .
53(4) . . .
57(4) . . .
44(4) . . .
58(4) . . .
58(4) . . .
51(4) . . .
52(4) . . .
57(4) . . .
61(4) . . .
51(4) . . .
51(4) . . .
47(4) . . .
59(4) . . .
56(4) . . .
53(4) . . .
62(4) . . .
57(4) . . .
47(4) . . .
52(4) . . .
59(4) . . .
57(4) . . .
53(4) . . .
53(4) . . .
58(4) . . .
44.2(34) . . .
55(4) . . .
58(4) . . .
55(4) . . .
56(4) . . .
54(4) . . .
53(4) . . .
71(4) . . .
48(4) . . .
50(4) . . .
57(4) . . .
59(4) . . .
66(4) . . .
60(4) . . .
57(4) . . .
60(4) . . .
59(4) . . .
56(4) . . .
59(4) . . .
61(4) . . .
61(4) . . .
65(4) . . .
64(4) . . .
62(4) . . .
51(4) . . .
60(4) . . .
53(4) . . .
63(4) . . .
58(4) . . .
51(4) . . .
58(4) . . .
52(4) . . .
44(4) . . .
49(4) . . .
57(4) . . .
50(4) . . .
64(4) . . .
59(4) . . .
45(4) . . .
60(4) . . .
63(4) . . .
61(4) . . .
60(4) . . .
55(4) . . .
67(5) . . .
62(4) . . .
68(4) . . .
62(4) . . .
54(4) . . .
68(5) . . .
61(4) . . .
55(4) . . .
60(4) . . .
59(4) . . .
58(4) . . .
49(4) . . .
52(4) . . .
52(4) . . .
51(4) . . .
53(4) . . .
46(4) . . .
66(4) . . .
60(4) . . .
56(4) . . .
51(4) . . .
61(4) . . .
48(4) . . .
60(4) . . .
50(4) . . .
60(4) . . .
69(4) . . .
55(4) . . .
64(4) . . .
51(4) . . .
52(4) . . .
62(4) . . .
58(4) . . .
54(4) . . .
56(4) . . .
53(4) . . .
60(4) . . .
59(4) . . .
47(4) . . .
55(4) . . .
61(4) . . .
50(4) . . .
54(4) . . .
63(4) . . .
57(4) . . .
59(4) . . .
61(4) . . .
63(4) . . .
53(4) . . .
64(4) . . .
56(4) . . .
54(4) . . .
54(4) . . .
63(4) . . .
69(5) . . .
67(4) . . .
41.2(34) . . .
56(4) . . .
50(4) . . .
54(4) . . .
49(4) . . .
59(4) . . .
61(4) . . .
68(5) . . .
60(4) . . .
56(4) . . .
53(4) . . .
54(4) . . .
60(4) . . .
60(4) . . .
53(4) . . .
51(4) . . .
50(4) . . .
48(4) . . .
48(4) . . .
52(4) . . .
61(4) . . .
54(4) . . .
57(4) . . .
65(5) . . .
63(4) . . .
53(4) . . .
58(4) . . .
58(4) . . .
55(4) . . .
53(4) . . .
55(4) . . .
57(4) . . .
57(4) . . .
52(4) . . .
42.8(34) . . .
49(4) . . .
50(4) . . .
48(4) . . .
51(4) . . .
54(4) . . .
52(4) . . .
65(5) . . .
55(4) . . .
59(4) . . .
64(4) . . .
52(4) . . .
46(4) . . .
68(4) . . .
54(4) . . .
51(4) . . .
49(4) . . .
57(4) . . .
54(4) . . .
48(4) . . .
56(4) . . .
57(4) . . .
52(4) . . .
56(4) . . .
48(4) . . .
54(4) . . .
55(4) . . .
58(5) . . .
53(4) . . .
59(4) . . .
65(4) . . .
69(4) . . .
51(4) . . .
61(4) . . .
58(4) . . .
62(4) . . .
58(4) . . .
59(4) . . .
66(5) . . .
60(4) . . .
64(4) . . .
51(4) . . .
65(4) . . .
54(4) . . .
52(4) . . .
51(4) . . .
55(4) . . .
62(4) . . .
58(4) . . .
49(4) . . .
58(4) . . .
53(4) . . .
63(4) . . .
61(4) . . .
62(4) . . .
52(4) . . .
62(4) . . .
54(4) . . .
61(4) . . .
52(4) . . .
54(4) . . .
53(4) . . .
66(5) . . .
51(4) . . .
60(4) . . .
46(4) . . .
54(4) . . .
57(4) . . .
59(4) . . .
62(4) . . .
61(4) . . .
61(4) . . .
49(4) . . .
52(4) . . .
46(4) . . .
44(4) . . .
66(4) . . .
55(4) . . .
61(4) . . .
52(4) . . .
59(4) . . .
53(4) . . .
45.2(35) . . .
62(4) . . .
52(4) . . .
67(4) . . .
64(5) . . .
60(4) . . .
61(4) . . .
53(4) . . .
61(4) . . .
61(4) . . .
60(4) . . .
56(4) . . .
57(4) . . .
53(4) . . .
59(4) . . .
57(4) . . .
64(4) . . .
58(4) . . .
53(4) . . .
55(4) . . .
61(4) . . .
57(4) . . .
62(4) . . .
54(4) . . .
57(4) . . .
59(4) . . .
64(4) . . .
54(4) . . .
57(4) . . .
56(4) . . .
52(4) . . .
62(4) . . .
54(4) . . .
54(4) . . .
49(4) . . .
58(4) . . .
47(4) . . .
57(4) . . .
72(5) . . .
59(4) . . .
48(4) . . .
57(4) . . .
71(5) . . .
53(4) . . .
66(4) . . .
53(4) . . .
56(4) . . .
60(4) . . .
54(4) . . .
49(4) . . .
56(4) . . .
54(4) . . .
57(4) . . .
54(4) . . .
64(4) . . .
56(4) . . .
60(4) . . .
56(4) . . .
56(4) . . .
45(4) . . .
61(4) . . .
51(4) . . .
57(4) . . .
56(4) . . .
52(4) . . .
50(4) . . .
54(4) . . .
52(4) . . .
47(4) . . .
59(4) . . .
47(4) . . .
57(4) . . .
56(4) . . .
55(4) . . .
66(4) . . .
65(4) . . .
54(4) . . .
59(4) . . .
58(4) . . .
57(4) . . .
64(4) . . .
60(4) . . .
50(4) . . .
57(4) . . .
58(4) . . .
50(4) . . .
58(4) . . .
40.1(33) . . .
51(4) . . .
48(4) . . .
56(4) . . .
55(4) . . .
56(4) . . .
53(4) . . .
52(4) . . .
50(4) . . .
56(4) . . .
55(4) . . .
53(4) . . .
48(4) . . .
62(4) . . .
57(4) . . .
51(4) . . .
54(4) . . .
64(4) . . .
58(4) . . .
60(4) . . .
60(4) . . .
64(4) . . .
54(4) . . .
63(4) . . .
55(4) . . .
58(4) . . .
56(4) . . .
52(4) . . .
59(4) . . .
51(4) . . .
58(4) . . .
65(4) . . .
57(4) . . .
52(4) . . .
52(4) . . .
52(4) . . .
54(4) . . .
49(4) . . .
55(4) . . .
53(4) . . .
57(4) . . .
50(4) . . .
58(4) . . .
63(4) . . .
66(5) . . .
55(4) . . .
61(4) . . .
59(4) . . .
46(4) . . .
55(4) . . .
50(4) . . .
54(4) . . .
55(4) . . .
58(4) . . .
62(4) . . .
57(4) . . .
50(4) . . .
54(4) . . .
54(4) . . .
56(4) . . .
62(4) . . .
52(4) . . .
52(4) . . .
49(4) . . .
46(4) . . .
47(4) . . .
64(4) . . .
48(4) . . .
54(4) . . .
61(4) . . .
59(4) . . .
58(4) . . .
51(4) . . .
55(4) . . .
58(4) . . .
59(4) . . .
57(4) . . .
58(4) . . .
50(4) . . .
60(4) . . .
55(4) . . .
51(4) . . .
59(4) . . .
63(4) . . .
60(4) . . .
56(4) . . .
48(4) . . .
50(4) . . .
63(5) . . .
56(4) . . .
56(4) . . .
62(4) . . .
54(4) . . .
57(4) . . .
49(4) . . .
51(4) . . .
52(4) . . .
50(4) . . .
52(4) . . .
58(4) . . .
56(4) . . .
47(4) . . .
57(4) . . .
52(4) . . .
56(4) . . .
63(4) . . .
61(4) . . .
49(4) . . .
56(4) . . .
59(4) . . .
57(4) . . .
49(4) . . .
48(4) . . .
59(4) . . .
69(4) . . .
54(4) . . .
55(4) . . .
59(4) . . .
54(4) . . .
60(4) . . .
53(4) . . .
61(4) . . .
58(4) . . .
48(4) . . .
46(4) . . .
48(4) . . .
61(4) . . .
62(4) . . .
54(4) . . .
64(4) . . .
64(4) . . .
51(4) . . .
50(4) . . .
59(4) . . .
65(4) . . .
48(4) . . .
52(4) . . .
56(4) . . .
56(4) . . .
58(4) . . .
64(4) . . .
58(4) . . .
56(4) . . .
46(4) . . .
53(4) . . .
48(4) . . .
47(4) . . .
55(4) . . .
53(4) . . .
64(4) . . .
54(4) . . .
65(4) . . .
61(4) . . .
53(4) . . .
48(4) . . .
57(4) . . .
62(4) . . .
60(4) . . .
58(4) . . .
44.0(34) . . .
56(4) . . .
64(4) . . .
57(4) . . .
57(4) . . .
51(4) . . .
58(4) . . .
58(4) . . .
48(4) . . .
60(4) . . .
56(4) . . .
52(4) . . .
56(4) . . .
54(4) . . .
62(4) . . .
51(4) . . .
50(4) . . .
58(4) . . .
59(4) . . .
60(4) . . .
53(4) . . .
54(4) . . .
55(4) . . .
65(5) . . .
54(4) . . .
63(4) . . .
59(4) . . .
53(4) . . .
56(4) . . .
51(4) . . .
63(4) . . .
60(4) . . .
56(4) . . .
56(4) . . .
65(4) . . .
61(4) . . .
59(4) . . .
58(4) . . .
65(4) . . .
60(4) . . .
63(4) . . .
58(4) . . .
56(4) . . .
57(4) . . .
62(4) . . .
54(4) . . .
57(4) . . .
59(4) . . .
58(4) . . .
50(4) . . .
56(4) . . .
49(4) . . .
60(4) . . .
64(4) . . .
52(4) . . .
59(4) . . .
55(4) . . .
57(4) . . .
57(4) . . .
60(4) . . .
61(4) . . .
55(4) . . .
62(4) . . .
55(4) . . .
58(4) . . .
54(4) . . .
63(4) . . .
62(4) . . .
56(4) . . .
53(4) . . .
62(4) . . .
45(4) . . .
51(4) . . .
61(4) . . .
51(4) . . .
58(4) . . .
57(4) . . .
67(4) . . .
55(4) . . .
59(4) . . .
64(4) . . .
52(4) . . .
70(5) . . .
70(4) . . .
58(4) . . .
51(4) . . .
45(4) . . .
61(4) . . .
62(4) . . .
60(4) . . .
59(4) . . .
54(4) . . .
52(4) . . .
40.8(33) . . .
58(4) . . .
48(4) . . .
57(4) . . .
62(4) . . .
55(4) . . .
63(4) . . .
54(4) . . .
51(4) . . .
56(4) . . .
55(4) . . .
51(4) . . .
57(4) . . .
66(4) . . .
64(4) . . .
66(4) . . .
64(4) . . .
61(4) . . .
56(4) . . .
51(4) . . .
63(4) . . .
57(4) . . .
62(4) . . .
45(4) . . .
48(4) . . .
50(4) . . .
53(4) . . .
57(4) . . .
58(4) . . .
48(4) . . .
56(4) . . .
56(4) . . .
61(4) . . .
63(4) . . .
56(4) . . .
58(4) . . .
58(4) . . .
62(4) . . .
49(4) . . .
63(4) . . .
62(4) . . .
71(5) . . .
59(4) . . .
58(4) . . .
56(4) . . .
50(4) . . .
57(4) . . .
55(4) . . .
56(4) . . .
48(4) . . .
56(4) . . .
57(4) . . .
57(4) . . .
55(4) . . .
52(4) . . .
66(4) . . .
55(4) . . .
48(4) . . .
50(4) . . .
55(4) . . .
55(4) . . .
60(4) . . .
50(4) . . .
60(4) . . .
69(4) . . .
52(4) . . .
52(4) . . .
63(5) . . .
64(4) . . .
55(4) . . .
61(4) . . .
61(4) . . .
55(4) . . .
41.5(34) . . .
47(4) . . .
51(4) . . .
55(4) . . .
64(4) . . .
64(4) . . .
52(4) . . .
60(4) . . .
56(4) . . .
55(4) . . .
63(4) . . .
48(4) . . .
58(4) . . .
61(4) . . .
52(4) . . .
61(4) . . .
61(4) . . .
58(4) . . .
55(4) . . .
49(4) . . .
56(4) . . .
57(4) . . .
57(4) . . .
52(4) . . .
48(4) . . .
54(4) . . .
57(4) . . .
62(4) . . .
53(4) . . .
64(5) . . .
56(4) . . .
64(4) . . .
58(4) . . .
58(4) . . .
49(4) . . .
62(4) . . .
65(4) . . .
61(4) . . .
56(4) . . .
53(4) . . .
60(4) . . .
56(4) . . .
56(4) . . .
48(4) . . .
58(4) . . .
49(4) . . .
61(4) . . .
57(4) . . .
51(4) . . .
66(4) . . .
56(4) . . .
59(4) . . .
53(4) . . .
66(5) . . .
50(4) . . .
55(4) . . .
63(4) . . .
58(4) . . .
57(4) . . .
65(4) . . .
55(4) . . .
51(4) . . .
48(4) . . .
65(4) . . .
61(4) . . .
54(4) . . .
47(4) . . .
55(4) . . .
61(4) . . .
66(4) . . .
56(4) . . .
57(4) . . .
55(4) . . .
59(4) . . .
55(4) . . .
63(4) . . .
45(4) . . .
57(4) . . .
51(4) . . .
61(4) . . .
56(4) . . .
54(4) . . .
51(4) . . .
61(4) . . .
53(4) . . .
59(4) . . .
59(4) . . .
54(4) . . .
57(4) . . .
62(4) . . .
59(4) . . .
50(4) . . .
55(4) . . .
52(4) . . .
47(4) . . .
46(4) . . .
54(4) . . .
51(4) . . .
69(5) . . .
68(4) . . .
57(4) . . .
46(4) . . .
58(4) . . .
57(4) . . .
46(4) . . .
58(4) . . .
49(4) . . .
54(4) . . .
57(4) . . .
54(4) . . .
51(4) . . .
51(4) . . .
48(4) . . .
48(4) . . .
60(4) . . .
46(4) . . .
68(5) . . .
49(4) . . .
53(4) . . .
45(4) . . .
57(4) . . .
50(4) . . .
48(4) . . .
62(4) . . .
57(4) . . .
60(4) . . .
58(4) . . .
54(4) . . .
59(4) . . .
49(4) . . .
57(4) . . .
50(4) . . .
61(4) . . .
67(4) . . .
51(4) . . .
49(4) . . .
55(4) . . .
58(4) . . .
61(4) . . .
50(4) . . .
54(4) . . .
57(4) . . .
60(4) . . .
49(4) . . .
51(4) . . .
68(4) . . .
64(4) . . .
54(4) . . .
54(4) . . .
53(4) . . .
58(4) . . .
52(4) . . .
61(4) . . .
62(4) . . .
48(4) . . .
57(4) . . .
56(4) . . .
54(4) . . .
48(4) . . .
48(4) . . .
50(4) . . .
52(4) . . .
61(4) . . .
55(4) . . .
58(4) . . .
60(4) . . .
67(4) . . .
66(4) . . .
55(4) . . .
51(4) . . .
49(4) . . .
58(4) . . .
69(4) . . .
55(4) . . .
51(4) . . .
54(4) . . .
51(4) . . .
57(4) . . .
57(4) . . .
56(4) . . .
54(4) . . .
51(4) . . .
55(4) . . .
60(4) . . .
55(4) . . .
55(4) . . .
53(4) . . .
64(4) . . .
55(4) . . .
58(4) . . .
58(4) . . .
65(4) . . .
63(4) . . .
72(4) . . .
64(4) . . .
58(4) . . .
63(4) . . .
59(4) . . .
59(4) . . .
55(4) . . .
62(4) . . .
49(4) . . .
55(4) . . .
60(4) . . .
57(4) . . .
60(4) . . .
52(4) . . .
52(4) . . .
58(4) . . .
47(4) . . .
56(4) . . .
53(4) . . .
61(4) . . .
49(4) . . .
53(4) . . .
63(4) . . .
61(4) . . .
48(4) . . .
56(4) . . .
47(4) . . .
59(4) . . .
55(4) . . .
54(4) . . .
53(4) . . .
49(4) . . .
55(4) . . .
48(4) . . .
58(4) . . .
67(4) . . .
62(4) . . .
51(4) . . .
52(4) . . .
68(4) . . .
51(4) . . .
56(4) . . .
51(4) . . .
65(4) . . .
60(4) . . .
56(4) . . .
52(4) . . .
50(4) . . .
58(4) . . .
62(4) . . .
53(4) . . .
55(4) . . .
52(4) . . .
56(4) . . .
53(4) . . .
57(4) . . .
54(4) . . .
57(4) . . .
49(4) . . .
61(4) . . .
67(5) . . .
56(4) . . .
49(4) . . .
55(4) . . .
57(4) . . .
56(4) . . .
51(4) . . .
56(4) . . .
64(4) . . .
56(4) . . .
52(4) . . .
61(4) . . .
55(4) . . .
44.0(34) . . .
55(4) . . .
56(4) . . .
59(4) . . .
62(4) . . .
59(4) . . .
53(4) . . .
54(4) . . .
56(4) . . .
52(4) . . .
58(4) . . .
53(4) . . .
56(4) . . .
58(4) . . .
59(4) . . .
54(4) . . .
60(4) . . .
61(4) . . .
51(4) . . .
57(4) . . .
60(4) . . .
48(4) . . .
51(4) . . .
48(4) . . .
50(4) . . .
55(4) . . .
58(4) . . .
51(4) . . .
54(4) . . .
49(4) . . .
55(4) . . .
59(4) . . .
57(4) . . .
59(4) . . .
52(4) . . .
46(4) . . .
63(4) . . .
58(4) . . .
65(4) . . .
62(4) . . .
64(4) . . .
53(4) . . .
54(4) . . .
46.8(35) . . .
49(4) . . .
55(4) . . .
61(4) . . .
53(4) . . .
60(4) . . .
53(4) . . .
55(4) . . .
61(4) . . .
67(4) . . .
55(4) . . .
53(4) . . .
51(4) . . .
52(4) . . .
61(4) . . .
50(4) . . .
62(4) . . .
61(4) . . .
44.1(35) . . .
52(4) . . .
59(4) . . .
60(4) . . .
55(4) . . .
59(4) . . .
60(4) . . .
49(4) . . .
58(4) . . .
52(4) . . .
57(4) . . .
51(4) . . .
58(4) . . .
66(4) . . .
62(4) . . .
67(5) . . .
59(4) . . .
55(4) . . .
70(4) . . .
54(4) . . .
57(4) . . .
62(4) . . .
56(4) . . .
63(4) . . .
47(4) . . .
58(4) . . .
56(4) . . .
59(4) . . .
61(4) . . .
45(4) . . .
65(4) . . .
64(4) . . .
54(4) . . .
60(4) . . .
54(4) . . .
67(5) . . .
53(4) . . .
57(4) . . .
59(4) . . .
53(4) . . .
64(4) . . .
54(4) . . .
68(4) . . .
50(4) . . .
58(4) . . .
63(4) . . .
70(4) . . .
58(4) . . .
60(4) . . .
69(5) . . .
59(4) . . .
57(4) . . .
56(4) . . .
53(4) . . .
54(4) . . .
64(4) . . .
55(4) . . .
65(4) . . .
67(4) . . .
61(4) . . .
53(4) . . .
60(4) . . .
52(4) . . .
59(4) . . .
52(4) . . .
61(4) . . .
54(4) . . .
58(4) . . .
67(4) . . .
67(4) . . .
59(4) . . .
57(4) . . .
56(4) . . .
51(4) . . .
66(4) . . .
53(4) . . .
46(4) . . .
64(4) . . .
64(4) . . .
60(4) . . .
54(4) . . .
54(4) . . .
48(4) . . .
54(4) . . .
62(4) . . .
57(4) . . .
60(4) . . .
52(4) . . .
45.0(35) . . .
54(4) . . .
56(4) . . .
61(4) . . .
56(4) . . .
55(4) . . .
51(4) . . .
46(4) . . .
57(4) . . .
55(4) . . .
61(4) . . .
62(4) . . .
50(4) . . .
51(4) . . .
58(4) . . .
58(4) . . .
61(4) . . .
53(4) . . .
51(4) . . .
63(4) . . .
65(5) . . .
58(4) . . .
62(4) . . .
57(4) . . .
50(4) . . .
49(4) . . .
57(4) . . .
53(4) . . .
48(4) . . .
55(4) . . .
57(4) . . .
59(4) . . .
59(4) . . .
58(4) . . .
52(4) . . .
65(5) . . .
59(4) . . .
56(4) . . .
63(4) . . .
62(4) . . .
74(5) . . .
56(4) . . .
48(4) . . .
58(4) . . .
62(4) . . .
66(4) . . .
61(4) . . .
57(4) . . .
51(4) . . .
59(4) . . .
53(4) . . .
52(4) . . .
56(4) . . .
57(4) . . .
52(4) . . .
50(4) . . .
62(4) . . .
56(4) . . .
52(4) . . .
57(4) . . .
61(4) . . .
68(4) . . .
60(4) . . .
50(4) . . .
48(4) . . .
54(4) . . .
53(4) . . .
55(4) . . .
56(4) . . .
57(4) . . .
55(4) . . .
54(4) . . .
68(4) . . .
55(4) . . .
69(5) . . .
56(4) . . .
69(4) . . .
55(4) . . .
65(4) . . .
56(4) . . .
55(4) . . .
56(4) . . .
59(4) . . .
59(4) . . .
57(4) . . .
64(4) . . .
55(4) . . .
55(4) . . .
60(4) . . .
53(4) . . .
53(4) . . .
58(4) . . .
57(4) . . .
64(4) . . .
50(4) . . .
59(4) . . .
58(4) . . .
46(4) . . .
50(4) . . .
43.7(35) . . .
60(4) . . .
69(4) . . .
64(4) . . .
59(4) . . .
48(4) . . .
60(4) . . .
59(4) . . .
51(4) . . .
57(4) . . .
48(4) . . .
63(4) . . .
57(4) . . .
59(4) . . .
66(4) . . .
59(4) . . .
55(4) . . .
43.7(34) . . .
58(4) . . .
64(5) . . .
63(4) . . .
47(4) . . .
56(4) . . .
58(4) . . .
57(4) . . .
54(4) . . .
51(4) . . .
55(4) . . .
46(4) . . .
52(4) . . .
50(4) . . .
48(4) . . .
70(4) . . .
64(4) . . .
64(4) . . .
66(4) . . .
63(4) . . .
55(4) . . .
59(4) . . .
60(4) . . .
57(4) . . .
55(4) . . .
65(4) . . .
61(4) . . .
62(4) . . .
55(4) . . .
55(4) . . .
58(4) . . .
61(4) . . .
56(4) . . .
57(4) . . .
64(4) . . .
48(4) . . .
49(4) . . .
54(4) . . .
52(4) . . .
62(4) . . .
50(4) . . .
55(4) . . .
61(4) . . .
53(4) . . .
67(4) . . .
51(4) . . .
54(4) . . .
65(4) . . .
60(4) . . .
61(4) . . .
56(4) . . .
50(4) . . .
64(4) . . .
50(4) . . .
48(4) . . .
57(4) . . .
52(4) . . .
57(4) . . .
54(4) . . .
57(4) . . .
52(4) . . .
53(4) . . .
60(4) . . .
50(4) . . .
51(4) . . .
58(4) . . .
53(4) . . .
56(4) . . .
51(4) . . .
55(4) . . .
63(4) . . .
51(4) . . .
49(4) . . .
52(4) . . .
54(4) . . .
55(4) . . .
61(4) . . .
49(4) . . .
61(4) . . .
61(4) . . .
55(4) . . .
48(4) . . .
56(4) . . .
60(4) . . .
49(4) . . .
50(4) . . .
51(4) . . .
61(4) . . .
54(4) . . .
56(4) . . .
54(4) . . .
51(4) . . .
61(4) . . .
59(4) . . .
59(4) . . .
60(4) . . .
61(4) . . .
55(4) . . .
60(4) . . .
61(4) . . .
58(4) . . .
64(4) . . .
68(4) . . .
59(4) . . .
64(4) . . .
53(4) . . .
65(4) . . .
54(4) . . .
57(4) . . .
58(4) . . .
46(4) . . .
51(4) . . .
46(4) . . .
49(4) . . .
58(4) . . .
60(4) . . .
54(4) . . .
62(4) . . .
57(4) . . .
56(4) . . .
52(4) . . .
56(4) . . .
65(4) . . .
57(4) . . .
55(4) . . .
53(4) . . .
65(4) . . .
57(4) . . .
59(4) . . .
54(4) . . .
54(4) . . .
64(4) . . .
58(4) . . .
52(4) . . .
53(4) . . .
41.8(33) . . .
60(4) . . .
54(4) . . .
60(4) . . .
55(4) . . .
52(4) . . .
53(4) . . .
58(4) . . .
52(4) . . .
58(4) . . .
55(4) . . .
69(4) . . .
59(4) . . .
47(4) . . .
53(4) . . .
58(4) . . .
58(4) . . .
59(4) . . .
62(4) . . .
47(4) . . .
49(4) . . .
51(4) . . .
57(4) . . .
55(4) . . .
50(4) . . .
48(4) . . .
51(4) . . .
54(4) . . .
54(4) . . .
55(4) . . .
51(4) . . .
57(4) . . .
44.7(34) . . .
61(4) . . .
52(4) . . .
60(4) . . .
52(4) . . .
54(4) . . .
56(4) . . .
60(4) . . .
61(4) . . .
53(4) . . .
43.5(34) . . .
47(4) . . .
54(4) . . .
51(4) . . .
57(4) . . .
57(4) . . .
56(4) . . .
50(4) . . .
61(4) . . .
56(4) . . .
66(4) . . .
64(4) . . .
66(4) . . .
63(4) . . .
53(4) . . .
57(4) . . .
64(4) . . .
58(4) . . .
60(4) . . .
64(4) . . .
52(4) . . .
60(4) . . .
64(4) . . .
52(4) . . .
49(4) . . .
61(4) . . .
68(5) . . .
52(4) . . .
60(4) . . .
57(4) . . .
60(4) . . .
46(4) . . .
42.9(33) . . .
58(4) . . .
56(4) . . .
62(4) . . .
54(4) . . .
55(4) . . .
63(4) . . .
56(4) . . .
61(4) . . .
64(4) . . .
56(4) . . .
55(4) . . .
62(4) . . .
46(4) . . .
61(4) . . .
61(4) . . .
63(4) . . .
60(4) . . .
57(4) . . .
61(4) . . .
54(4) . . .
44.8(35) . . .
56(4) . . .
56(4) . . .
61(4) . . .
58(4) . . .
53(4) . . .
49(4) . . .
48(4) . . .
56(4) . . .
57(4) . . .
59(4) . . .
56(4) . . .
56(4) . . .
56(4) . . .
55(4) . . .
62(4) . . .
45(4) . . .
48(4) . . .
65(4) . . .
53(4) . . .
46(4) . . .
47(4) . . .
55(4) . . .
52(4) . . .
56(4) . . .
60(4) . . .
56(4) . . .
60(5) . . .
62(4) . . .
60(4) . . .
56(4) . . .
56(4) . . .
44(4) . . .
42.0(35) . . .
56(4) . . .
66(4) . . .
73(5) . . .
66(4) . . .
66(4) . . .
54(4) . . .
57(4) . . .
52(4) . . .
49(4) . . .
50(4) . . .
49(4) . . .
54(4) . . .
54(4) . . .
55(4) . . .
55(4) . . .
60(4) . . .
65(4) . . .
51(4) . . .
51(4) . . .
62(4) . . .
57(4) . . .
52(4) . . .
53(4) . . .
47(4) . . .
58(4) . . .
53(4) . . .
50(4) . . .
57(4) . . .
58(4) . . .
60(4) . . .
58(4) . . .
60(4) . . .
47(4) . . .
54(4) . . .
55(4) . . .
69(4) . . .
50(4) . . .
64(5) . . .
51(4) . . .
60(4) . . .
59(4) . . .
55(4) . . .
49(4) . . .
50(4) . . .
63(4) . . .
54(4) . . .
53(4) . . .
56(4) . . .
57(4) . . .
60(4) . . .
58(4) . . .
58(4) . . .
58(4) . . .
59(4) . . .
52(4) . . .
48(4) . . .
54(4) . . .
63(4) . . .
51(4) . . .
58(4) . . .
55(4) . . .
54(4) . . .
51(4) . . .
51(4) . . .
55(4) . . .
60(4) . . .
56(4) . . .
50(4) . . .
57(4) . . .
60(4) . . .
53(4) . . .
53(4) . . .
48(4) . . .
44(4) . . .
62(4) . . .
58(4) . . .
50(4) . . .
49(4) . . .
56(4) . . .
48(4) . . .
60(4) . . .
57(4) . . .
62(4) . . .
50(4) . . .
51(4) . . .
50(4) . . .
52(4) . . .
45(4) . . .
47(4) . . .
56(4) . . .
66(4) . . .
58(4) . . .
59(4) . . .
52(4) . . .
53(4) . . .
56(4) . . .
68(5) . . .
68(4) . . .
58(4) . . .
53(4) . . .
52(4) . . .
55(4) . . .
60(4) . . .
56(4) . . .
56(4) . . .
57(4) . . .
62(4) . . .
56(4) . . .
52(4) . . .
58(4) . . .
55(4) . . .
64(4) . . .
61(4) . . .
58(4) . . .
60(4) . . .
49(4) . . .
52(4) . . .
58(4) . . .
62(4) . . .
53(4) . . .
44(4) . . .
53(4) . . .
52(4) . . .
62(4) . . .
61(4) . . .
55(4) . . .
68(5) . . .
46(4) . . .
53(4) . . .
55(4) . . .
57(4) . . .
52(4) . . .
63(4) . . .
51(4) . . .
59(4) . . .
57(4) . . .
55(4) . . .
63(4) . . .
60(4) . . .
61(4) . . .
61(4) . . .
50(4) . . .
57(4) . . .
57(4) . . .
53(4) . . .
62(4) . . .
52(4) . . .
58(4) . . .
58(4) . . .
57(4) . . .
58(4) . . .
59(4) . . .
55(4) . . .
55(4) . . .
52(4) . . .
59(4) . . .
51(4) . . .
53(4) . . .
53(4) . . .
58(4) . . .
61(4) . . .
52(4) . . .
62(4) . . .
63(4) . . .
68(5) . . .
57(4) . . .
55(4) . . .
53(4) . . .
44(4) . . .
58(4) . . .
62(4) . . .
61(4) . . .
47(4) . . .
73(5) . . .
68(4) . . .
50(4) . . .
58(4) . . .
56(4) . . .
48(4) . . .
61(4) . . .
52(4) . . .
60(4) . . .
47(4) . . .
51(4) . . .
50(4) . . .
53(4) . . .
53(4) . . .
56(4) . . .
59(4) . . .
55(4) . . .
47(4) . . .
53(4) . . .
52(4) . . .
59(4) . . .
63(4) . . .
50(4) . . .
48(4) . . .
57(4) . . .
51(4) . . .
52(4) . . .
58(4) . . .
57(4) . . .
57(4) . . .
55(4) . . .
68(5) . . .
51(4) . . .
57(4) . . .
60(4) . . .
62(4) . . .
56(4) . . .
59(4) . . .
57(4) . . .
60(4) . . .
65(4) . . .
63(4) . . .
53(4) . . .
47(4) . . .
44(4) . . .
54(4) . . .
56(4) . . .
54(4) . . .
49(4) . . .
45(4) . . .
53(4) . . .
48(4) . . .
52(4) . . .
54(4) . . .
53(4) . . .
68(4) . . .
57(4) . . .
53(4) . . .
53(4) . . .
50(4) . . .
51(4) . . .
50(4) . . .
51(4) . . .
55(4) . . .
51(4) . . .
54(4) . . .
63(4) . . .
52(4) . . .
51(4) . . .
54(4) . . .
61(4) . . .
66(4) . . .
55(4) . . .
55(4) . . .
63(4) . . .
50(4) . . .
55(4) . . .
65(4) . . .
58(4) . . .
52(4) . . .
55(4) . . .
60(4) . . .
54(4) . . .
53(4) . . .
53(4) . . .
54(4) . . .
57(4) . . .
57(4) . . .
63(4) . . .
51(4) . . .
56(4) . . .
59(4) . . .
51(4) . . .
55(4) . . .
46(4) . . .
60(4) . . .
55(4) . . .
54(4) . . .
59(4) . . .
68(4) . . .
57(4) . . .
42.3(34) . . .
49(4) . . .
54(4) . . .
51(4) . . .
61(4) . . .
48(4) . . .
62(4) . . .
69(5) . . .
51(4) . . .
44.4(35) . . .
65(4) . . .
60(4) . . .
60(4) . . .
68(5) . . .
48(4) . . .
52(4) . . .
56(4) . . .
66(4) . . .
50(4) . . .
44(4) . . .
52(4) . . .
56(4) . . .
49(4) . . .
49(4) . . .
59(4) . . .
67(4) . . .
52(4) . . .
53(4) . . .
60(4) . . .
57(4) . . .
52(4) . . .
66(4) . . .
47(4) . . .
54(4) . . .
54(4) . . .
59(4) . . .
58(4) . . .
52(4) . . .
54(4) . . .
47(4) . . .
44.7(35) . . .
56(4) . . .
58(4) . . .
53(4) . . .
57(4) . . .
63(4) . . .
57(4) . . .
50(4) . . .
56(4) . . .
57(4) . . .
64(4) . . .
63(4) . . .
57(4) . . .
59(4) . . .
60(4) . . .
56(4) . . .
52(4) . . .
68(5) . . .
59(4) . . .
46.6(35) . . .
58(4) . . .
56(4) . . .
59(4) . . .
49(4) . . .
50(4) . . .
54(4) . . .
62(4) . . .
56(4) . . .
54(4) . . .
60(4) . . .
61(4) . . .
56(4) . . .
56(4) . . .
64(4) . . .
51(4) . . .
52(4) . . .
51(4) . . .
47(4) . . .
54(4) . . .
58(4) . . .
57(4) . . .
58(4) . . .
51(4) . . .
55(4) . . .
62(4) . . .
54(4) . . .
55(4) . . .
48(4) . . .
56(4) . . .
53(4) . . .
55(4) . . .
56(4) . . .
58(4) . . .
50(4) . . .
51(4) . . .
52(4) . . .
63(4) . . .
52(4) . . .
51(4) . . .
47(4) . . .
45(4) . . .
52(4) . . .
57(4) . . .
55(4) . . .
55(4) . . .
55(4) . . .
44(4) . . .
59(4) . . .
59(4) . . .
59(4) . . .
56(4) . . .
51(4) . . .
49(4) . . .
53(4) . . .
49(4) . . .
65(4) . . .
62(4) . . .
54(4) . . .
49(4) . . .
51(4) . . .
47(4) . . .
58(4) . . .
57(4) . . .
64(4) . . .
64(4) . . .
56(4) . . .
62(4) . . .
66(4) . . .
50(4) . . .
56(4) . . .
45(4) . . .
49(4) . . .
54(4) . . .
59(4) . . .
54(4) . . .
58(4) . . .
54(4) . . .
50(4) . . .
54(4) . . .
47(4) . . .
52(4) . . .
63(4) . . .
56(4) . . .
57(4) . . .
52(4) . . .
60(4) . . .
48(4) . . .
53(4) . . .
66(4) . . .
44.2(35) . . .
50(4) . . .
61(4) . . .
53(4) . . .
56(4) . . .
62(4) . . .
58(4) . . .
54(4) . . .
54(4) . . .
48(4) . . .
56(4) . . .
69(5) . . .
54(4) . . .
44.3(35) . . .
47(4) . . .
54(4) . . .
59(4) . . .
54(4) . . .
63(4) . . .
58(4) . . .
50(4) . . .
54(4) . . .
58(4) . . .
52(4) . . .
51(4) . . .
47(4) . . .
62(5) . . .
54(4) . . .
57(4) . . .
53(4) . . .
56(4) . . .
49(4) . . .
53(4) . . .
49(4) . . .
52(4) . . .
50(4) . . .
50(4) . . .
48(4) . . .
43.8(34) . . .
48(4) . . .
56(4) . . .
61(4) . . .
58(4) . . .
50(4) . . .
58(4) . . .
45(4) . . .
53(4) . . .
61(4) . . .
49(4) . . .
64(4) . . .
60(4) . . .
58(4) . . .
63(4) . . .
52(4) . . .
51(4) . . .
57(4) . . .
56(4) . . .
47(4) . . .
54(4) . . .
48(4) . . .
59(4) . . .
56(4) . . .
55(4) . . .
52(4) . . .
61(4) . . .
54(4) . . .
61(4) . . .
59(4) . . .
63(4) . . .
62(4) . . .
55(4) . . .
59(4) . . .
48(4) . . .
55(4) . . .
50(4) . . .
51(4) . . .
50(4) . . .
58(4) . . .
50(4) . . .
58(4) . . .
59(4) . . .
65(4) . . .
62(4) . . .
54(4) . . .
52(4) . . .
47(4) . . .
56(4) . . .
54(4) . . .
50(4) . . .
66(4) . . .
64(4) . . .
59(4) . . .
53(4) . . .
47(4) . . .
48(4) . . .
54(4) . . .
59(4) . . .
52(4) . . .
51(4) . . .
55(4) . . .
62(4) . . .
59(4) . . .
61(4) . . .
63(4) . . .
57(4) . . .
62(4) . . .
63(4) . . .
50(4) . . .
55(4) . . .
53(4) . . .
56(4) . . .
65(4) . . .
53(4) . . .
51(4) . . .
56(4) . . .
60(4) . . .
61(4) . . .
49(4) . . .
52(4) . . .
61(5) . . .
61(4) . . .
55(4) . . .
49(4) . . .
64(4) . . .
50(4) . . .
48(4) . . .
54(4) . . .
41.9(34) . . .
59(4) . . .
64(5) . . .
51(4) . . .
57(4) . . .
59(4) . . .
51(4) . . .
56(4) . . .
55(4) . . .
62(4) . . .
51(4) . . .
63(5) . . .
52(4) . . .
55(4) . . .
61(4) . . .
62(4) . . .
62(4) . . .
52(4) . . .
65(4) . . .
51(4) . . .
59(4) . . .
61(4) . . .
48(4) . . .
45.1(35) . . .
47(4) . . .
54(4) . . .
59(4) . . .
59(4) . . .
67(4) . . .
58(4) . . .
55(4) . . .
59(4) . . .
58(4) . . .
45.0(35) . . .
50(4) . . .
60(4) . . .
51(4) . . .
55(4) . . .
47(4) . . .
53(4) . . .
59(4) . . .
65(4) . . .
56(4) . . .
59(4) . . .
66(4) . . .
65(4) . . .
61(5) . . .
55(4) . . .
63(4) . . .
62(4) . . .
51(4) . . .
55(4) . . .
47(4) . . .
50(4) . . .
60(4) . . .
68(4) . . .
59(4) . . .
50(4) . . .
58(4) . . .
60(4) . . .
62(4) . . .
55(4) . . .
52(4) . . .
64(4) . . .
52(4) . . .
61(4) . . .
57(4) . . .
54(4) . . .
53(4) . . .
61(4) . . .
50(4) . . .
51(4) . . .
64(4) . . .
59(4) . . .
50(4) . . .
54(4) . . .
63(4) . . .
61(4) . . .
58(4) . . .
56(4) . . .
53(4) . . .
54(4) . . .
49(4) . . .
50(4) . . .
59(4) . . .
56(4) . . .
63(4) . . .
54(4) . . .
49(4) . . .
53(4) . . .
63(4) . . .
56(4) . . .
61(4) . . .
59(4) . . .
58(4) . . .
53(4) . . .
52(4) . . .
59(4) . . .
60(4) . . .
59(4) . . .
56(4) . . .
71(5) . . .
60(4) . . .
51(4) . . .
60(4) . . .
52(4) . . .
45(4) . . .
61(4) . . .
58(4) . . .
58(4) . . .
59(4) . . .
54(4) . . .
61(4) . . .
59(4) . . .
76(5) . . .
59(4) . . .
58(4) . . .
49(4) . . .
48(4) . . .
48(4) . . .
37.2(32) . . .
47(4) . . .
62(4) . . .
54(4) . . .
58(4) . . .
54(4) . . .
62(4) . . .
51(4) . . .
59(4) . . .
47(4) . . .
56(4) . . .
50(4) . . .
59(4) . . .
61(4) . . .
54(4) . . .
57(4) . . .
63(4) . . .
59(4) . . .
63(4) . . .
60(4) . . .
58(4) . . .
66(4) . . .
52(4) . . .
51(4) . . .
59(5) . . .
59(4) . . .
49(4) . . .
42.8(34) . . .
44.8(35) . . .
57(4) . . .
59(4) . . .
52(4) . . .
61(4) . . .
53(4) . . .
57(4) . . .
55(4) . . .
46(4) . . .
49(4) . . .
55(4) . . .
46(4) . . .
47(4) . . .
54(4) . . .
58(4) . . .
55(4) . . .
54(4) . . .
62(4) . . .
58(4) . . .
49(4) . . .
49(4) . . .
56(4) . . .
65(4) . . .
64(4) . . .
56(4) . . .
58(4) . . .
54(4) . . .
56(4) . . .
65(4) . . .
44.0(34) . . .
53(4) . . .
56(4) . . .
47(4) . . .
49(4) . . .
56(4) . . .
52(4) . . .
56(4) . . .
55(4) . . .
58(4) . . .
57(4) . . .
62(4) . . .
50(4) . . .
50(4) . . .
52(4) . . .
46(4) . . .
52(4) . . .
57(4) . . .
48(4) . . .
54(4) . . .
51(4) . . .
51(4) . . .
62(4) . . .
58(4) . . .
48(4) . . .
53(4) . . .
49(4) . . .
48(4) . . .
57(4) . . .
53(4) . . .
57(4) . . .
42.0(35) . . .
48(4) . . .
56(4) . . .
62(4) . . .
45(4) . . .
50(4) . . .
60(4) . . .
55(4) . . .
61(4) . . .
50(4) . . .
49(4) . . .
62(4) . . .
57(4) . . .
49(4) . . .
55(4) . . .
64(4) . . .
59(4) . . .
53(4) . . .
46(4) . . .
60(4) . . .
56(4) . . .
48(4) . . .
53(4) . . .
41.4(34) . . .
66(5) . . .
69(5) . . .
69(4) . . .
60(4) . . .
55(4) . . .
51(4) . . .
67(4) . . .
62(4) . . .
62(4) . . .
53(4) . . .
60(4) . . .
55(4) . . .
48(4) . . .
56(4) . . .
55(4) . . .
61(4) . . .
52(4) . . .
55(4) . . .
61(4) . . .
52(4) . . .
52(4) . . .
62(4) . . .
60(4) . . .
50(4) . . .
43(4) . . .
57(4) . . .
55(4) . . .
61(4) . . .
55(4) . . .
44(4) . . .
46(4) . . .
55(4) . . .
66(4) . . .
51(4) . . .
55(4) . . .
52(4) . . .
58(4) . . .
57(4) . . .
67(4) . . .
62(4) . . .
61(4) . . .
56(4) . . .
50(4) . . .
54(4) . . .
64(4) . . .
61(4) . . .
52(4) . . .
56(4) . . .
60(4) . . .
55(4) . . .
55(4) . . .
59(4) . . .
57(4) . . .
49(4) . . .
65(5) . . .
50(4) . . .
58(4) . . .
55(4) . . .
59(4) . . .
53(4) . . .
58(4) . . .
41.1(33) . . .
51(4) . . .
55(4) . . .
54(4) . . .
61(4) . . .
56(4) . . .
61(4) . . .
56(4) . . .
59(4) . . .
60(4) . . .
48(4) . . .
58(4) . . .
58(4) . . .
43.3(35) . . .
58(4) . . .
55(4) . . .
50(4) . . .
64(5) . . .
47(4) . . .
55(4) . . .
71(4) . . .
63(4) . . .
60(4) . . .
63(4) . . .
58(4) . . .
58(4) . . .
46(4) . . .
55(4) . . .
62(4) . . .
45(4) . . .
51(4) . . .
55(4) . . .
65(4) . . .
54(4) . . .
53(4) . . .
63(4) . . .
49(4) . . .
45(4) . . .
58(4) . . .
50(4) . . .
53(4) . . .
57(4) . . .
56(4) . . .
55(4) . . .
65(4) . . .
54(4) . . .
56(4) . . .
50(4) . . .
51(4) . . .
53(4) . . .
55(4) . . .
63(4) . . .
59(4) . . .
51(4) . . .
52(4) . . .
56(4) . . .
64(4) . . .
56(4) . . .
59(4) . . .
55(4) . . .
61(4) . . .
47(4) . . .
61(4) . . .
56(4) . . .
53(4) . . .
60(4) . . .
60(4) . . .
59(4) . . .
67(5) . . .
65(4) . . .
52(4) . . .
52(4) . . .
43.2(35) . . .
56(4) . . .
44.0(35) . . .
53(4) . . .
53(4) . . .
63(4) . . .
56(4) . . .
66(4) . . .
57(4) . . .
49(4) . . .
57(4) . . .
64(4) . . .
52(4) . . .
58(4) . . .
49(4) . . .
52(4) . . .
64(4) . . .
55(4) . . .
61(4) . . .
58(4) . . .
55(4) . . .
58(4) . . .
61(4) . . .
58(4) . . .
57(4) . . .
49(4) . . .
51(4) . . .
51(4) . . .
64(5) . . .
50(4) . . .
54(4) . . .
56(4) . . .
62(4) . . .
62(4) . . .
64(5) . . .
60(4) . . .
62(4) . . .
45.7(35) . . .
63(4) . . .
55(4) . . .
55(4) . . .
58(4) . . .
54(4) . . .
55(4) . . .
57(4) . . .
50(4) . . .
57(4) . . .
60(4) . . .
63(4) . . .
66(4) . . .
63(4) . . .
66(4) . . .
55(4) . . .
50(4) . . .
53(4) . . .
54(4) . . .
60(4) . . .
54(4) . . .
51(4) . . .
51(4) . . .
57(4) . . .
66(4) . . .
55(4) . . .
50(4) . . .
56(4) . . .
52(4) . . .
62(4) . . .
51(4) . . .
59(4) . . .
51(4) . . .
58(4) . . .
61(4) . . .
57(4) . . .
49(4) . . .
56(4) . . .
44.6(35) . . .
54(4) . . .
59(4) . . .
66(5) . . .
54(4) . . .
46(4) . . .
46(4) . . .
45(4) . . .
49(4) . . .
54(4) . . .
60(4) . . .
60(4) . . .
56(4) . . .
56(4) . . .
55(4) . . .
44.9(35) . . .
55(4) . . .
63(4) . . .
71(5) . . .
53(4) . . .
58(4) . . .
58(4) . . .
51(4) . . .
50(4) . . .
52(4) . . .
55(4) . . .
48(4) . . .
48(4) . . .
52(4) . . .
53(4) . . .
64(4) . . .
60(4) . . .
48(4) . . .
53(4) . . .
55(4) . . .
52(4) . . .
61(4) . . .
62(4) . . .
54(4) . . .
53(4) . . .
60(4) . . .
52(4) . . .
63(4) . . .
55(4) . . .
41.5(33) . . .
58(4) . . .
55(4) . . .
58(4) . . .
55(4) . . .
60(4) . . .
59(4) . . .
64(4) . . .
57(4) . . .
58(4) . . .
47(4) . . .
55(4) . . .
55(4) . . .
59(4) . . .
62(4) . . .
49(4) . . .
53(4) . . .
52(4) . . .
44(4) . . .
55(4) . . .
51(4) . . .
64(4) . . .
46.7(35) . . .
53(4) . . .
54(4) . . .
52(4) . . .
56(4) . . .
49(4) . . .
44.1(34) . . .
61(4) . . .
53(4) . . .
54(4) . . .
55(4) . . .
56(4) . . .
59(4) . . .
61(4) . . .
52(4) . . .
58(4) . . .
51(4) . . .
47(4) . . .
60(4) . . .
50(4) . . .
44(4) . . .
56(4) . . .
64(4) . . .
48(4) . . .
53(4) . . .
56(4) . . .
58(4) . . .
56(4) . . .
53(4) . . .
55(4) . . .
59(4) . . .
58(4) . . .
52(4) . . .
56(4) . . .
62(4) . . .
61(4) . . .
59(4) . . .
54(4) . . .
59(4) . . .
68(4) . . .
57(4) . . .
65(4) . . .
60(4) . . .
57(4) . . .
52(4) . . .
56(4) . . .
56(4) . . .
64(4) . . .
60(4) . . .
58(4) . . .
51(4) . . .
53(4) . . .
56(4) . . .
59(4) . . .
61(4) . . .
61(4) . . .
59(4) . . .
56(4) . . .
55(4) . . .
57(4) . . .
63(4) . . .
58(4) . . .
47(4) . . .
60(4) . . .
52(4) . . .
53(4) . . .
59(4) . . .
58(4) . . .
58(4) . . .
46(4) . . .
53(4) . . .
51(4) . . .
45(4) . . .
62(4) . . .
55(4) . . .
49(4) . . .
63(4) . . .
44.8(35) . . .
56(4) . . .
45.3(35) . . .
61(4) . . .
51(4) . . .
52(4) . . .
55(4) . . .
54(4) . . .
46(4) . . .
59(4) . . .
48(4) . . .
45.2(34) . . .
52(4) . . .
50(4) . . .
64(4) . . .
51(4) . . .
55(4) . . .
56(4) . . .
51(4) . . .
58(4) . . .
60(4) . . .
56(4) . . .
49(4) . . .
56(4) . . .
70(4) . . .
60(4) . . .
54(4) . . .
64(4) . . .
60(4) . . .
62(4) . . .
59(4) . . .
56(4) . . .
51(4) . . .
55(4) . . .
57(4) . . .
54(4) . . .
43(4) . . .
60(5) . . .
45(4) . . .
50(4) . . .
56(4) . . .
59(4) . . .
59(4) . . .
53(4) . . .
64(4) . . .
47(4) . . .
46(4) . . .
52(4) . . .
52(4) . . .
51(4) . . .
51(4) . . .
49(4) . . .
56(4) . . .
53(4) . . .
53(4) . . .
50(4) . . .
55(4) . . .
51(4) . . .
50(4) . . .
51(4) . . .
49(4) . . .
67(5) . . .
57(4) . . .
71(4) . . .
52(4) . . .
50(4) . . .
53(4) . . .
54(4) . . .
55(4) . . .
40.7(33) . . .
61(4) . . .
54(4) . . .
55(4) . . .
65(4) . . .
49(4) . . .
50(4) . . .
53(4) . . .
62(5) . . .
49(4) . . .
62(4) . . .
56(4) . . .
53(4) . . .
58(4) . . .
51(4) . . .
50(4) . . .
48(4) . . .
56(4) . . .
54(4) . . .
59(4) . . .
64(4) . . .
56(4) . . .
57(4) . . .
44.0(34) . . .
54(4) . . .
60(4) . . .
55(4) . . .
54(4) . . .
65(4) . . .
56(4) . . .
47(4) . . .
49(4) . . .
49(4) . . .
60(4) . . .
58(4) . . .
63(4) . . .
53(4) . . .
56(4) . . .
61(4) . . .
54(4) . . .
59(4) . . .
51(4) . . .
50(4) . . .
59(4) . . .
58(4) . . .
48(4) . . .
51(4) . . .
54(4) . . .
62(4) . . .
63(4) . . .
54(4) . . .
46(4) . . .
54(4) . . .
54(4) . . .
52(4) . . .
57(4) . . .
59(4) . . .
54(4) . . .
54(4) . . .
57(4) . . .
50(4) . . .
56(4) . . .
45(4) . . .
62(4) . . .
57(4) . . .
57(4) . . .
55(4) . . .
52(4) . . .
57(4) . . .
52(4) . . .
50(4) . . .
58(4) . . .
55(4) . . .
56(4) . . .
56(4) . . .
48(4) . . .
57(4) . . .
59(4) . . .
56(4) . . .
56(4) . . .
61(4) . . .
59(4) . . .
68(4) . . .
55(4) . . .
54(4) . . .
56(4) . . .
67(4) . . .
54(4) . . .
48(4) . . .
58(4) . . .
49(4) . . .
40.2(33) . . .
48(4) . . .
58(4) . . .
67(4) . . .
60(4) . . .
44.2(34) . . .
57(4) . . .
49(4) . . .
58(4) . . .
54(4) . . .
52(4) . . .
53(4) . . .
58(4) . . .
55(4) . . .
47(4) . . .
49(4) . . .
56(4) . . .
61(4) . . .
51(4) . . .
56(4) . . .
52(4) . . .
47(4) . . .
47(4) . . .
55(4) . . .
60(4) . . .
47(4) . . .
50(4) . . .
56(4) . . .
65(5) . . .
49(4) . . .
56(4) . . .
53(4) . . .
52(4) . . .
54(4) . . .
55(4) . . .
54(4) . . .
48(4) . . .
63(4) . . .
65(4) . . .
58(4) . . .
51(4) . . .
51(4) . . .
62(4) . . .
56(4) . . .
57(4) . . .
57(4) . . .
47(4) . . .
62(4) . . .
53(4) . . .
58(4) . . .
54(4) . . .
48(4) . . .
61(4) . . .
56(4) . . .
49(4) . . .
59(4) . . .
57(4) . . .
60(4) . . .
62(5) . . .
49(4) . . .
55(4) . . .
49(4) . . .
45(4) . . .
50(4) . . .
45(4) . . .
65(4) . . .
51(4) . . .
47.6(35) . . .
61(4) . . .
66(4) . . .
57(4) . . .
57(4) . . .
47(4) . . .
71(5) . . .
58(4) . . .
48(4) . . .
58(4) . . .
57(4) . . .
51(4) . . .
51(4) . . .
60(4) . . .
64(4) . . .
52(4) . . .
64(4) . . .
60(4) . . .
62(4) . . .
62(4) . . .
50(4) . . .
59(4) . . .
55(4) . . .
51(4) . . .
55(4) . . .
58(4) . . .
55(4) . . .
43.8(35) . . .
42.3(35) . . .
41.4(34) . . .
49(4) . . .
50(4) . . .
51(4) . . .
56(4) . . .
50(4) . . .
56(4) . . .
52(4) . . .
72(4) . . .
44.7(35) . . .
42.0(34) . . .
45(4) . . .
67(5) . . .
62(4) . . .
58(4) . . .
50(4) . . .
56(4) . . .
43.8(34) . . .
51(4) . . .
67(4) . . .
52(4) . . .
50(4) . . .
54(4) . . .
55(4) . . .
52(4) . . .
52(4) . . .
56(4) . . .
54(4) . . .
51(4) . . .
60(4) . . .
57(4) . . .
51(4) . . .
45(4) . . .
55(4) . . .
50(4) . . .
57(4) . . .
60(4) . . .
63(4) . . .
51(4) . . .
55(4) . . .
56(4) . . .
53(4) . . .
43.0(34) . . .
55(4) . . .
55(4) . . .
56(4) . . .
54(4) . . .
49(4) . . .
49(4) . . .
53(4) . . .
59(4) . . .
54(4) . . .
51(4) . . .
52(4) . . .
54(4) . . .
59(4) . . .
59(4) . . .
50(4) . . .
59(4) . . .
50(4) . . .
51(4) . . .
47(4) . . .
48(4) . . .
48(4) . . .
56(4) . . .
59(4) . . .
53(4) . . .
52(4) . . .
65(4) . . .
53(4) . . .
58(4) . . .
54(4) . . .
48(4) . . .
40.5(33) . . .
51(4) . . .
61(4) . . .
54(4) . . .
61(4) . . .
60(4) . . .
53(4) . . .
62(5) . . .
62(4) . . .
52(4) . . .
47(4) . . .
51(4) . . .
58(4) . . .
45(4) . . .
44(4) . . .
54(4) . . .
61(4) . . .
62(4) . . .
53(4) . . .
50(4) . . .
50(4) . . .
58(4) . . .
60(4) . . .
65(4) . . .
62(4) . . .
55(4) . . .
44(4) . . .
48(4) . . .
53(4) . . .
59(4) . . .
56(4) . . .
66(4) . . .
59(4) . . .
51(4) . . .
54(4) . . .
59(4) . . .
55(4) . . .
55(4) . . .
51(4) . . .
61(4) . . .
55(4) . . .
54(4) . . .
53(4) . . .
54(4) . . .
53(4) . . .
61(4) . . .
57(4) . . .
50(4) . . .
61(4) . . .
58(4) . . .
56(4) . . .
60(4) . . .
57(4) . . .
56(4) . . .
60(4) . . .
52(4) . . .
61(4) . . .
52(4) . . .
54(4) . . .
55(4) . . .
55(4) . . .
62(4) . . .
53(4) . . .
50(4) . . .
44.6(35) . . .
59(4) . . .
56(4) . . .
46(4) . . .
59(4) . . .
63(4) . . .
49(4) . . .
48(4) . . .
53(4) . . .
49(4) . . .
52(4) . . .
54(4) . . .
49(4) . . .
56(4) . . .
63(4) . . .
53(4) . . .
62(5) . . .
52(4) . . .
54(4) . . .
55(4) . . .
47(4) . . .
55(4) . . .
63(5) . . .
56(4) . . .
59(4) . . .
62(4) . . .
64(4) . . .
54(4) . . .
53(4) . . .
57(4) . . .
49(4) . . .
51(4) . . .
55(4) . . .
53(4) . . .
45.3(35) . . .
52(4) . . .
57(4) . . .
62(4) . . .
63(4) . . .
64(4) . . .
53(4) . . .
67(5) . . .
53(4) . . .
51(4) . . .
62(4) . . .
48(4) . . .
53(4) . . .
49(4) . . .
51(4) . . .
44(4) . . .
52(4) . . .
56(4) . . .
58(4) . . .
52(4) . . .
49(4) . . .
58(4) . . .
50(4) . . .
48(4) . . .
53(4) . . .
48(4) . . .
52(4) . . .
58(4) . . .
48(4) . . .
49(4) . . .
53(4) . . .
54(4) . . .
65(4) . . .
48(4) . . .
56(4) . . .
52(4) . . .
57(4) . . .
51(4) . . .
55(4) . . .
55(4) . . .
60(4) . . .
62(4) . . .
48(4) . . .
49(4) . . .
62(4) . . .
49(4) . . .
52(4) . . .
60(4) . . .
56(4) . . .
46(4) . . .
59(4) . . .
54(4) . . .
55(4) . . .
61(4) . . .
50(4) . . .
53(4) . . .
43(4) . . .
54(4) . . .
54(4) . . .
50(4) . . .
48(4) . . .
54(4) . . .
64(4) . . .
66(4) . . .
64(4) . . .
52(4) . . .
60(4) . . .
50(4) . . .
55(4) . . .
65(4) . . .
64(4) . . .
62(4) . . .
45(4) . . .
56(4) . . .
50(4) . . .
51(4) . . .
55(4) . . .
53(4) . . .
58(4) . . .
51(4) . . .
51(4) . . .
57(4) . . .
53(4) . . .
60(4) . . .
52(4) . . .
49(4) . . .
51(4) . . .
60(4) . . .
52(4) . . .
58(4) . . .
55(4) . . .
66(4) . . .
57(4) . . .
62(4) . . .
55(4) . . .
57(4) . . .
56(4) . . .
55(4) . . .
72(4) . . .
61(4) . . .
55(4) . . .
47(4) . . .
55(4) . . .
54(4) . . .
58(4) . . .
52(4) . . .
50(4) . . .
61(4) . . .
43.9(35) . . .
54(4) . . .
55(4) . . .
58(4) . . .
54(4) . . .
50(4) . . .
50(4) . . .
51(4) . . .
46(4) . . .
44.0(34) . . .
53(4) . . .
60(4) . . .
61(4) . . .
58(4) . . .
50(4) . . .
48(4) . . .
57(4) . . .
55(4) . . .
47(4) . . .
50(4) . . .
53(4) . . .
53(4) . . .
57(4) . . .
49(4) . . .
61(4) . . .
63(4) . . .
52(4) . . .
52(4) . . .
54(4) . . .
51(4) . . .
51(4) . . .
50(4) . . .
60(4) . . .
65(4) . . .
59(4) . . .
60(4) . . .
60(4) . . .
56(4) . . .
58(4) . . .
53(4) . . .
55(4) . . .
64(5) . . .
48(4) . . .
44.1(35) . . .
53(4) . . .
58(4) . . .
57(4) . . .
56(4) . . .
53(4) . . .
60(4) . . .
59(4) . . .
50(4) . . .
49(4) . . .
58(4) . . .
50(4) . . .
56(4) . . .
53(4) . . .
51(4) . . .
59(4) . . .
56(4) . . .
58(4) . . .
57(4) . . .
52(4) . . .
57(4) . . .
59(4) . . .
53(4) . . .
55(4) . . .
55(4) . . .
48(4) . . .
61(4) . . .
56(4) . . .
58(4) . . .
52(4) . . .
52(4) . . .
54(4) . . .
56(4) . . .
59(4) . . .
51(4) . . .
55(4) . . .
61(4) . . .
54(4) . . .
46(4) . . .
52(4) . . .
54(4) . . .
53(4) . . .
52(4) . . .
63(4) . . .
58(4) . . .
54(4) . . .
62(4) . . .
53(4) . . .
49(4) . . .
57(4) . . .
52(4) . . .
49(4) . . .
49(4) . . .
48(4) . . .
48(4) . . .
56(4) . . .
71(5) . . .
64(4) . . .
60(4) . . .
54(4) . . .
62(4) . . .
59(4) . . .
48(4) . . .
65(4) . . .
56(4) . . .
51(4) . . .
58(4) . . .
58(4) . . .
55(4) . . .
49(4) . . .
45(4) . . .
58(4) . . .
58(4) . . .
45.9(35) . . .
48(4) . . .
52(4) . . .
45(4) . . .
48(4) . . .
50(4) . . .
52(4) . . .
57(4) . . .
67(5) . . .
52(4) . . .
51(4) . . .
47(4) . . .
50(4) . . .
62(4) . . .
54(4) . . .
40.3(32) . . .
57(4) . . .
52(4) . . .
60(4) . . .
48(4) . . .
41.4(34) . . .
51(4) . . .
54(4) . . .
51(4) . . .
52(4) . . .
48(4) . . .
49(4) . . .
58(4) . . .
63(4) . . .
55(4) . . .
47(4) . . .
52(4) . . .
58(4) . . .
58(4) . . .
55(4) . . .
59(4) . . .
57(4) . . .
51(4) . . .
54(4) . . .
46(4) . . .
56(4) . . .
46(4) . . .
52(4) . . .
51(4) . . .
57(4) . . .
42.8(34) . . .
41.3(33) . . .
51(4) . . .
55(4) . . .
47(4) . . .
52(4) . . .
58(4) . . .
63(4) . . .
51(4) . . .
58(4) . . .
62(4) . . .
62(4) . . .
51(4) . . .
53(4) . . .
64(4) . . .
58(4) . . .
56(4) . . .
63(4) . . .
60(4) . . .
41.3(33) . . .
51(4) . . .
60(4) . . .
60(4) . . .
49(4) . . .
53(4) . . .
62(4) . . .
54(4) . . .
55(4) . . .
55(4) . . .
60(4) . . .
53(4) . . .
47(4) . . .
54(4) . . .
59(4) . . .
49(4) . . .
46(4) . . .
43(4) . . .
51(4) . . .
51(4) . . .
62(4) . . .
55(4) . . .
51(4) . . .
50(4) . . .
50(4) . . .
48(4) . . .
58(4) . . .
45(4) . . .
52(4) . . .
51(4) . . .
53(4) . . .
52(4) . . .
53(4) . . .
51(4) . . .
42.2(34) . . .
58(4) . . .
44.0(34) . . .
54(4) . . .
53(4) . . .
47(4) . . .
51(4) . . .
52(4) . . .
49(4) . . .
55(4) . . .
61(4) . . .
62(4) . . .
61(4) . . .
68(5) . . .
43.0(35) . . .
56(4) . . .
59(4) . . .
62(4) . . .
45(4) . . .
42.7(35) . . .
52(4) . . .
53(4) . . .
58(4) . . .
61(4) . . .
40.3(33) . . .
52(4) . . .
49(4) . . .
51(4) . . .
54(4) . . .
57(4) . . .
58(4) . . .
57(4) . . .
53(4) . . .
52(4) . . .
62(4) . . .
55(4) . . .
42.4(34) . . .
51(4) . . .
49(4) . . .
55(4) . . .
54(4) . . .
57(4) . . .
62(5) . . .
47(4) . . .
57(4) . . .
50(4) . . .
53(4) . . .
54(4) . . .
43(4) . . .
53(4) . . .
50(4) . . .
50(4) . . .
51(4) . . .
48(4) . . .
51(4) . . .
62(4) . . .
59(4) . . .
54(4) . . .
57(4) . . .
54(4) . . .
49(4) . . .
53(4) . . .
49(4) . . .
58(4) . . .
55(4) . . .
41.8(34) . . .
54(4) . . .
50(4) . . .
52(4) . . .
51(4) . . .
48(4) . . .
50(4) . . .
45(4) . . .
53(4) . . .
60(4) . . .
55(4) . . .
54(4) . . .
53(4) . . .
55(4) . . .
65(4) . . .
44(4) . . .
52(4) . . .
58(4) . . .
50(4) . . .
54(4) . . .
51(4) . . .
47(4) . . .
47(4) . . .
51(4) . . .
51(4) . . .
50(4) . . .
53(4) . . .
47(4) . . .
46(4) . . .
60(4) . . .
49(4) . . .
48(4) . . .
53(4) . . .
56(4) . . .
54(4) . . .
49(4) . . .
57(4) . . .
57(4) . . .
57(4) . . .
60(4) . . .
62(4) . . .
65(5) . . .
48(4) . . .
45.7(35) . . .
47(4) . . .
54(4) . . .
77(5) . . .
51(4) . . .
47(4) . . .
50(4) . . .
53(4) . . .
54(4) . . .
58(4) . . .
50(4) . . .
51(4) . . .
50(4) . . .
51(4) . . .
55(4) . . .
58(4) . . .
58(4) . . .
54(4) . . .
58(4) . . .
57(4) . . .
57(4) . . .
48(4) . . .
45(4) . . .
55(4) . . .
55(4) . . .
49(4) . . .
64(4) . . .
59(4) . . .
53(4) . . .
60(4) . . .
52(4) . . .
64(4) . . .
54(4) . . .
55(4) . . .
52(4) . . .
49(4) . . .
59(4) . . .
56(4) . . .
52(4) . . .
53(4) . . .
58(4) . . .
61(4) . . .
52(4) . . .
62(4) . . .
61(4) . . .
56(4) . . .
54(4) . . .
59(4) . . .
47(4) . . .
61(4) . . .
61(4) . . .
52(4) . . .
56(4) . . .
59(4) . . .
69(4) . . .
61(4) . . .
51(4) . . .
56(4) . . .
48(4) . . .
44(4) . . .
47(4) . . .
55(4) . . .
55(4) . . .
58(4) . . .
66(4) . . .
59(4) . . .
55(4) . . .
58(4) . . .
57(4) . . .
60(4) . . .
59(4) . . .
56(4) . . .
57(4) . . .
46(4) . . .
48(4) . . .
57(4) . . .
53(4) . . .
66(5) . . .
61(4) . . .
54(4) . . .
58(4) . . .
53(4) . . .
55(4) . . .
55(4) . . .
51(4) . . .
52(4) . . .
51(4) . . .
61(4) . . .
50(4) . . .
54(4) . . .
59(4) . . .
46(4) . . .
57(4) . . .
47(4) . . .
51(4) . . .
59(4) . . .
62(4) . . .
60(4) . . .
55(4) . . .
56(4) . . .
60(4) . . .
64(5) . . .
58(4) . . .
60(4) . . .
56(4) . . .
53(4) . . .
37.6(32) . . .
56(4) . . .
56(4) . . .
56(4) . . .
46(4) . . .
56(4) . . .
49(4) . . .
55(4) . . .
55(4) . . .
45.0(35) . . .
52(4) . . .
65(4) . . .
47(4) . . .
57(4) . . .
51(4) . . .
49(4) . . .
47(4) . . .
57(4) . . .
47(4) . . .
60(4) . . .
52(4) . . .
56(4) . . .
50(4) . . .
50(4) . . .
53(4) . . .
60(4) . . .
62(4) . . .
51(4) . . .
60(4) . . .
68(4) . . .
58(4) . . .
62(4) . . .
52(4) . . .
50(4) . . .
59(4) . . .
56(4) . . .
54(4) . . .
56(4) . . .
52(4) . . .
52(4) . . .
64(4) . . .
45(4) . . .
48(4) . . .
53(4) . . .
55(4) . . .
53(4) . . .
47(4) . . .
45.0(35) . . .
45(4) . . .
50(4) . . .
56(4) . . .
53(4) . . .
53(4) . . .
50(4) . . .
57(4) . . .
65(5) . . .
48(4) . . .
51(4) . . .
64(4) . . .
65(5) . . .
59(4) . . .
53(4) . . .
59(4) . . .
56(4) . . .
53(4) . . .
57(4) . . .
58(4) . . .
63(4) . . .
56(4) . . .
56(4) . . .
53(4) . . .
49(4) . . .
44(4) . . .
40.1(34) . . .
42.4(35) . . .
54(4) . . .
43.0(34) . . .
48(4) . . .
54(4) . . .
44(4) . . .
49(4) . . .
61(4) . . .
54(4) . . .
47(4) . . .
51(4) . . .
61(4) . . .
43.9(34) . . .
49(4) . . .
65(5) . . .
56(4) . . .
50(4) . . .
44(4) . . .
53(4) . . .
63(4) . . .
64(4) . . .
59(4) . . .
68(4) . . .
55(4) . . .
59(4) . . .
49(4) . . .
49(4) . . .
46(4) . . .
46(4) . . .
53(4) . . .
51(4) . . .
47(4) . . .
50(4) . . .
51(4) . . .
51(4) . . .
49(4) . . .
52(4) . . .
55(4) . . .
54(4) . . .
54(4) . . .
56(4) . . .
36.8(32) . . .
55(4) . . .
54(4) . . .
48(4) . . .
51(4) . . .
60(4) . . .
64(4) . . .
48(4) . . .
55(4) . . .
59(4) . . .
50(4) . . .
52(4) . . .
63(4) . . .
54(4) . . .
60(4) . . .
67(4) . . .
59(4) . . .
52(4) . . .
53(4) . . .
53(4) . . .
53(4) . . .
56(4) . . .
49(4) . . .
56(4) . . .
60(4) . . .
62(4) . . .
52(4) . . .
49(4) . . .
54(4) . . .
55(4) . . .
56(4) . . .
62(4) . . .
51(4) . . .
53(4) . . .
41.6(35) . . .
48(4) . . .
53(4) . . .
50(4) . . .
65(4) . . .
61(4) . . .
56(4) . . .
50(4) . . .
51(4) . . .
47(4) . . .
49(4) . . .
57(4) . . .
58(4) . . .
59(4) . . .
54(4) . . .
48(4) . . .
52(4) . . .
50(4) . . .
56(4) . . .
46(4) . . .
59(4) . . .
51(4) . . .
52(4) . . .
56(4) . . .
51(4) . . .
56(4) . . .
54(4) . . .
56(4) . . .
47(4) . . .
47(4) . . .
58(4) . . .
60(4) . . .
52(4) . . .
52(4) . . .
47(4) . . .
42.8(34) . . .
53(4) . . .
51(4) . . .
60(4) . . .
60(4) . . .
48(4) . . .
56(4) . . .
56(4) . . .
59(4) . . .
59(4) . . .
61(4) . . .
58(4) . . .
62(4) . . .
51(4) . . .
50(4) . . .
60(4) . . .
58(4) . . .
53(4) . . .
61(4) . . .
59(4) . . .
49(4) . . .
55(4) . . .
51(4) . . .
51(4) . . .
61(4) . . .
51(4) . . .
56(4) . . .
57(4) . . .
49(4) . . .
62(4) . . .
54(4) . . .
50(4) . . .
46(4) . . .
52(4) . . .
49(4) . . .
46.7(35) . . .
62(4) . . .
71(5) . . .
50(4) . . .
58(4) . . .
56(4) . . .
60(4) . . .
49(4) . . .
45(4) . . .
56(4) . . .
48(4) . . .
57(4) . . .
51(4) . . .
51(4) . . .
53(4) . . .
53(4) . . .
51(4) . . .
44(4) . . .
56(4) . . .
51(4) . . .
43(4) . . .
48(4) . . .
49(4) . . .
52(4) . . .
44.2(35) . . .
48(4) . . .
52(4) . . .
53(4) . . .
52(4) . . .
47(4) . . .
44(4) . . .
43.2(35) . . .
51(4) . . .
45.8(35) . . .
50(4) . . .
51(4) . . .
60(4) . . .
59(4) . . .
58(4) . . .
49(4) . . .
49(4) . . .
55(4) . . .
55(4) . . .
45(4) . . .
54(4) . . .
50(4) . . .
51(4) . . .
54(4) . . .
58(4) . . .
52(4) . . .
54(4) . . .
56(4) . . .
47(4) . . .
54(4) . . .
55(4) . . .
63(4) . . .
60(4) . . .
67(5) . . .
52(4) . . .
51(4) . . .
63(4) . . .
54(4) . . .
60(4) . . .
52(4) . . .
53(4) . . .
46(4) . . .
53(4) . . .
50(4) . . .
59(4) . . .
48(4) . . .
54(4) . . .
57(4) . . .
61(4) . . .
55(4) . . .
58(4) . . .
53(4) . . .
61(4) . . .
58(4) . . .
48(4) . . .
51(4) . . .
45(4) . . .
46(4) . . .
50(4) . . .
52(4) . . .
45(4) . . .
54(4) . . .
55(4) . . .
55(4) . . .
52(4) . . .
54(4) . . .
55(4) . . .
44.8(35) . . .
57(4) . . .
44(4) . . .
63(4) . . .
53(4) . . .
51(4) . . .
50(4) . . .
40.5(33) . . .
54(4) . . .
53(4) . . .
57(4) . . .
55(4) . . .
70(4) . . .
56(4) . . .
59(4) . . .
65(5) . . .
51(4) . . .
58(4) . . .
53(4) . . .
50(4) . . .
51(4) . . .
63(4) . . .
61(4) . . .
52(4) . . .
47(4) . . .
51(4) . . .
47(4) . . .
44.0(34) . . .
49(4) . . .
49(4) . . .
51(4) . . .
58(4) . . .
65(4) . . .
67(4) . . .
51(4) . . .
62(4) . . .
53(4) . . .
60(4) . . .
52(4) . . .
56(4) . . .
52(4) . . .
58(4) . . .
63(4) . . .
51(4) . . .
61(4) . . .
46(4) . . .
54(4) . . .
47(4) . . .
47(4) . . .
55(4) . . .
56(4) . . .
58(4) . . .
49(4) . . .
61(4) . . .
51(4) . . .
55(4) . . .
69(4) . . .
56(4) . . .
62(4) . . .
50(4) . . .
60(4) . . .
51(4) . . .
54(4) . . .
48(4) . . .
45(4) . . .
54(4) . . .
61(4) . . .
65(5) . . .
51(4) . . .
50(4) . . .
48(4) . . .
52(4) . . .
53(4) . . .
51(4) . . .
52(4) . . .
57(4) . . .
65(5) . . .
50(4) . . .
58(4) . . .
53(4) . . .
63(4) . . .
52(4) . . .
52(4) . . .
56(4) . . .
63(4) . . .
61(4) . . .
54(4) . . .
45.2(35) . . .
48(4) . . .
54(4) . . .
64(4) . . .
55(4) . . .
49(4) . . .
54(4) . . .
46(4) . . .
48(4) . . .
70(4) . . .
55(4) . . .
56(4) . . .
50(4) . . .
67(4) . . .
53(4) . . .
57(4) . . .
59(4) . . .
60(4) . . .
58(4) . . .
55(4) . . .
44(4) . . .
55(4) . . .
57(4) . . .
55(4) . . .
67(4) . . .
52(4) . . .
47(4) . . .
46(4) . . .
53(4) . . .
55(4) . . .
57(4) . . .
53(4) . . .
39.1(33) . . .
41.1(34) . . .
44.3(35) . . .
60(4) . . .
57(4) . . .
62(4) . . .
57(4) . . .
58(4) . . .
57(4) . . .
55(4) . . .
57(4) . . .
48(4) . . .
53(4) . . .
57(4) . . .
50(4) . . .
45(4) . . .
51(4) . . .
45(4) . . .
48(4) . . .
41.8(34) . . .
52(4) . . .
51(4) . . .
49(4) . . .
51(4) . . .
63(4) . . .
54(4) . . .
58(4) . . .
52(4) . . .
54(4) . . .
66(4) . . .
59(4) . . .
49(4) . . .
60(4) . . .
45(4) . . .
40.7(33) . . .
54(4) . . .
56(4) . . .
47(4) . . .
47(4) . . .
55(4) . . .
63(4) . . .
59(4) . . .
57(4) . . .
53(4) . . .
49(4) . . .
54(4) . . .
51(4) . . .
51(4) . . .
50(4) . . .
50(4) . . .
53(4) . . .
64(4) . . .
48(4) . . .
49(4) . . .
43.5(35) . . .
48(4) . . .
62(4) . . .
72(5) . . .
64(4) . . .
55(4) . . .
50(4) . . .
44(4) . . .
55(4) . . .
53(4) . . .
48(4) . . .
49(4) . . .
63(4) . . .
60(4) . . .
69(4) . . .
62(4) . . .
56(4) . . .
56(4) . . .
58(4) . . .
58(4) . . .
50(4) . . .
44.1(35) . . .
59(4) . . .
55(4) . . .
58(4) . . .
53(4) . . .
53(4) . . .
49(4) . . .
53(4) . . .
56(4) . . .
57(4) . . .
48(4) . . .
42(4) . . .
53(4) . . .
49(4) . . .
54(4) . . .
48(4) . . .
54(4) . . .
58(4) . . .
64(4) . . .
55(4) . . .
55(4) . . .
57(4) . . .
60(4) . . .
57(4) . . .
58(4) . . .
59(4) . . .
56(4) . . .
55(4) . . .
48(4) . . .
58(4) . . .
61(4) . . .
62(4) . . .
54(4) . . .
54(4) . . .
41.1(34) . . .
57(4) . . .
48(4) . . .
53(4) . . .
49(4) . . .
52(4) . . .
52(4) . . .
53(4) . . .
54(4) . . .
49(4) . . .
67(5) . . .
54(4) . . .
58(4) . . .
57(4) . . .
54(4) . . .
55(4) . . .
50(4) . . .
51(4) . . .
58(4) . . .
65(4) . . .
39.4(32) . . .
57(4) . . .
49(4) . . .
57(4) . . .
60(4) . . .
54(4) . . .
61(4) . . .
58(4) . . .
51(4) . . .
55(4) . . .
57(4) . . .
57(4) . . .
43.0(35) . . .
55(4) . . .
50(4) . . .
50(4) . . .
44(4) . . .
52(4) . . .
61(4) . . .
62(4) . . .
56(4) . . .
63(5) . . .
46(4) . . .
52(4) . . .
55(4) . . .
51(4) . . .
49(4) . . .
51(4) . . .
58(4) . . .
53(4) . . .
57(4) . . .
50(4) . . .
48(4) . . .
46(4) . . .
40.6(34) . . .
63(5) . . .
56(4) . . .
57(4) . . .
49(4) . . .
51(4) . . .
46(4) . . .
52(4) . . .
67(4) . . .
46(4) . . .
63(4) . . .
62(4) . . .
54(4) . . .
45(4) . . .
57(4) . . .
52(4) . . .
58(4) . . .
61(4) . . .
60(4) . . .
57(4) . . .
48(4) . . .
55(4) . . .
48(4) . . .
55(4) . . .
55(4) . . .
44(4) . . .
46(4) . . .
53(4) . . .
49(4) . . .
59(4) . . .
56(4) . . .
61(4) . . .
50(4) . . .
58(4) . . .
58(4) . . .
60(4) . . .
61(4) . . .
51(4) . . .
44.4(35) . . .
55(4) . . .
58(4) . . .
46(4) . . .
51(4) . . .
56(4) . . .
54(4) . . .
54(4) . . .
60(4) . . .
66(4) . . .
53(4) . . .
48(4) . . .
59(4) . . .
46(4) . . .
54(4) . . .
55(4) . . .
52(4) . . .
46(4) . . .
47(4) . . .
54(4) . . .
57(4) . . .
50(4) . . .
55(4) . . .
48(4) . . .
51(4) . . .
52(4) . . .
49(4) . . .
47(4) . . .
47(4) . . .
63(4) . . .
51(4) . . .
49(4) . . .
63(4) . . .
63(4) . . .
59(4) . . .
53(4) . . .
53(4) . . .
53(4) . . .
55(4) . . .
49(4) . . .
61(4) . . .
44(4) . . .
50(4) . . .
57(4) . . .
59(4) . . .
55(4) . . .
49(4) . . .
48(4) . . .
53(4) . . .
46(4) . . .
50(4) . . .
50(4) . . .
53(4) . . .
49(4) . . .
49(4) . . .
57(4) . . .
59(4) . . .
47(4) . . .
56(4) . . .
44.3(35) . . .
52(4) . . .
51(4) . . .
54(4) . . .
62(4) . . .
41.3(34) . . .
49(4) . . .
42(4) . . .
49(4) . . .
44.5(35) . . .
49(4) . . .
53(4) . . .
64(5) . . .
58(4) . . .
52(4) . . .
51(4) . . .
61(4) . . .
51(4) . . .
42.4(34) . . .
51(4) . . .
53(4) . . .
50(4) . . .
50(4) . . .
56(4) . . .
48(4) . . .
52(4) . . .
63(4) . . .
48(4) . . .
50(4) . . .
50(4) . . .
46(4) . . .
48(4) . . .
61(5) . . .
58(4) . . .
46(4) . . .
48(4) . . .
49(4) . . .
58(4) . . .
53(4) . . .
62(4) . . .
51(4) . . .
62(4) . . .
49(4) . . .
35.5(31) . . .
48(4) . . .
64(4) . . .
61(4) . . .
48(4) . . .
57(4) . . .
53(4) . . .
49(4) . . .
49(4) . . .
50(4) . . .
48(4) . . .
55(4) . . .
55(4) . . .
50(4) . . .
59(4) . . .
59(4) . . .
55(4) . . .
53(4) . . .
60(4) . . .
50(4) . . .
61(4) . . .
63(4) . . .
69(4) . . .
54(4) . . .
52(4) . . .
48(4) . . .
53(4) . . .
61(4) . . .
57(4) . . .
53(4) . . .
45(4) . . .
47(4) . . .
61(4) . . .
57(4) . . .
41.2(33) . . .
52(4) . . .
47(4) . . .
55(4) . . .
54(4) . . .
48(4) . . .
57(4) . . .
52(4) . . .
49(4) . . .
52(4) . . .
49(4) . . .
61(4) . . .
56(4) . . .
51(4) . . .
50(4) . . .
57(4) . . .
54(4) . . .
58(4) . . .
54(4) . . .
52(4) . . .
58(4) . . .
53(4) . . .
50(4) . . .
50(4) . . .
64(4) . . .
48(4) . . .
44.0(35) . . .
42.9(35) . . .
51(4) . . .
46(4) . . .
45(4) . . .
54(4) . . .
49(4) . . .
50(4) . . .
49(4) . . .
55(4) . . .
43.5(34) . . .
54(4) . . .
52(4) . . .
52(4) . . .
48(4) . . .
54(4) . . .
54(4) . . .
47(4) . . .
49(4) . . .
45(4) . . .
45(4) . . .
52(4) . . .
53(4) . . .
49(4) . . .
50(4) . . .
52(4) . . .
50(4) . . .
48(4) . . .
53(4) . . .
52(4) . . .
53(4) . . .
55(4) . . .
53(4) . . .
46(4) . . .
53(4) . . .
51(4) . . .
57(4) . . .
64(4) . . .
56(4) . . .
60(4) . . .
53(4) . . .
51(4) . . .
47(4) . . .
47(4) . . .
49(4) . . .
41.9(33) . . .
51(4) . . .
45(4) . . .
43(4) . . .
43.8(35) . . .
45(4) . . .
45(4) . . .
57(4) . . .
54(4) . . .
50(4) . . .
46(4) . . .
55(4) . . .
55(4) . . .
57(4) . . .
55(4) . . .
58(4) . . .
54(4) . . .
52(4) . . .
47(4) . . .
52(4) . . .
57(4) . . .
66(5) . . .
57(4) . . .
48(4) . . .
55(4) . . .
58(4) . . .
55(4) . . .
52(4) . . .
54(4) . . .
57(4) . . .
55(4) . . .
52(4) . . .
48(4) . . .
55(4) . . .
55(4) . . .
50(4) . . .
53(4) . . .
48(4) . . .
62(4) . . .
49(4) . . .
35.7(31) . . .
57(4) . . .
57(4) . . .
53(4) . . .
63(4) . . .
65(4) . . .
50(4) . . .
52(4) . . .
48(4) . . .
51(4) . . .
54(4) . . .
53(4) . . .
48(4) . . .
48(4) . . .
46(4) . . .
70(5) . . .
57(4) . . .
47(4) . . .
58(4) . . .
68(5) . . .
49(4) . . .
47(4) . . .
38.3(32) . . .
50(4) . . .
45(4) . . .
51(4) . . .
51(4) . . .
54(4) . . .
59(4) . . .
62(4) . . .
52(4) . . .
49(4) . . .
49(4) . . .
49(4) . . .
42.5(34) . . .
58(4) . . .
55(4) . . .
52(4) . . .
44.5(34) . . .
55(4) . . .
51(4) . . .
55(4) . . .
53(4) . . .
45(4) . . .
43.6(35) . . .
50(4) . . .
61(4) . . .
45.0(34) . . .
50(4) . . .
50(4) . . .
55(4) . . .
60(4) . . .
47(4) . . .
51(4) . . .
61(4) . . .
60(4) . . .
50(4) . . .
60(4) . . .
58(4) . . .
43.2(34) . . .
54(4) . . .
51(4) . . .
55(4) . . .
50(4) . . .
49(4) . . .
51(4) . . .
61(4) . . .
64(4) . . .
62(4) . . .
51(4) . . .
63(4) . . .
50(4) . . .
49(4) . . .
47(4) . . .
48(4) . . .
50(4) . . .
55(4) . . .
50(4) . . .
53(4) . . .
57(4) . . .
54(4) . . .
59(4) . . .
60(4) . . .
45.6(35) . . .
53(4) . . .
50(4) . . .
52(4) . . .
53(4) . . .
48(4) . . .
42(4) . . .
46(4) . . .
53(4) . . .
51(4) . . .
56(4) . . .
53(4) . . .
53(4) . . .
58(4) . . .
56(4) . . .
52(4) . . .
54(4) . . .
58(4) . . .
40.4(33) . . .
52(4) . . .
55(4) . . .
47(4) . . .
61(4) . . .
40.1(33) . . .
42.3(34) . . .
52(4) . . .
62(4) . . .
59(4) . . .
42.2(34) . . .
51(4) . . .
61(4) . . .
55(4) . . .
58(4) . . .
49(4) . . .
61(4) . . .
54(4) . . .
55(4) . . .
60(4) . . .
57(4) . . .
43(4) . . .
49(4) . . .
47(4) . . .
56(4) . . .
50(4) . . .
60(4) . . .
58(4) . . .
47(4) . . .
57(4) . . .
55(4) . . .
51(4) . . .
53(4) . . .
50(4) . . .
47(4) . . .
52(4) . . .
56(4) . . .
52(4) . . .
53(4) . . .
54(4) . . .
56(4) . . .
55(4) . . .
46(4) . . .
48(4) . . .
50(4) . . .
50(4) . . .
57(4) . . .
46(4) . . .
52(4) . . .
47(4) . . .
55(4) . . .
55(4) . . .
56(4) . . .
49(4) . . .
47(4) . . .
55(4) . . .
51(4) . . .
53(4) . . .
59(4) . . .
46.7(35) . . .
57(4) . . .
60(4) . . .
57(4) . . .
54(4) . . .
47(4) . . .
59(4) . . .
50(4) . . .
48(4) . . .
56(4) . . .
48(4) . . .
48(4) . . .
57(4) . . .
56(4) . . .
46.6(35) . . .
53(4) . . .
54(4) . . .
60(4) . . .
47(4) . . .
53(4) . . .
51(4) . . .
53(4) . . .
49(4) . . .
60(4) . . .
55(4) . . .
51(4) . . .
48(4) . . .
57(4) . . .
57(4) . . .
51(4) . . .
39.4(32) . . .
56(4) . . .
58(4) . . .
55(4) . . .
43(4) . . .
56(4) . . .
56(4) . . .
53(4) . . .
53(4) . . .
55(4) . . .
51(4) . . .
56(4) . . .
58(4) . . .
48(4) . . .
45.0(35) . . .
56(4) . . .
46(4) . . .
43(4) . . .
51(4) . . .
56(4) . . .
52(4) . . .
50(4) . . .
53(4) . . .
55(4) . . .
56(4) . . .
45(4) . . .
49(4) . . .
56(4) . . .
46(4) . . .
55(4) . . .
64(4) . . .
65(4) . . .
53(4) . . .
58(4) . . .
46(4) . . .
56(4) . . .
59(4) . . .
52(4) . . .
52(4) . . .
37.8(31) . . .
46(4) . . .
47(4) . . .
41.5(33) . . .
43.9(35) . . .
48(4) . . .
52(4) . . .
63(5) . . .
52(4) . . .
51(4) . . .
56(4) . . .
49(4) . . .
49(4) . . .
41.9(35) . . .
54(4) . . .
51(4) . . .
48(4) . . .
48(4) . . .
53(4) . . .
62(4) . . .
51(4) . . .
47(4) . . .
54(4) . . .
56(4) . . .
48(4) . . .
48(4) . . .
51(4) . . .
52(4) . . .
47(4) . . .
44.6(35) . . .
41.1(34) . . .
52(4) . . .
57(4) . . .
56(4) . . .
49(4) . . .
49(4) . . .
55(4) . . .
41.7(34) . . .
49(4) . . .
52(4) . . .
45(4) . . .
50(4) . . .
59(4) . . .
56(4) . . .
55(4) . . .
40.3(33) . . .
61(4) . . .
49(4) . . .
45(4) . . .
57(4) . . .
44.2(34) . . .
47(4) . . .
48(4) . . .
56(4) . . .
60(4) . . .
58(4) . . .
54(4) . . .
50(4) . . .
51(4) . . .
48(4) . . .
60(4) . . .
61(4) . . .
53(4) . . .
51(4) . . .
48(4) . . .
54(4) . . .
46(4) . . .
50(4) . . .
56(4) . . .
51(4) . . .
50(4) . . .
46(4) . . .
46(4) . . .
59(4) . . .
51(4) . . .
54(4) . . .
50(4) . . .
50(4) . . .
52(4) . . .
52(4) . . .
43.2(35) . . .
44.8(35) . . .
47(4) . . .
40.3(33) . . .
40.5(33) . . .
51(4) . . .
48(4) . . .
54(4) . . .
46(4) . . .
48(4) . . .
49(4) . . .
51(4) . . .
54(4) . . .
51(4) . . .
63(4) . . .
50(4) . . .
53(4) . . .
46(4) . . .
45(4) . . .
50(4) . . .
47(4) . . .
65(4) . . .
56(4) . . .
56(4) . . .
59(4) . . .
51(4) . . .
49(4) . . .
56(4) . . .
46(4) . . .
58(4) . . .
53(4) . . .
50(4) . . .
50(4) . . .
49(4) . . .
62(4) . . .
56(4) . . .
52(4) . . .
52(4) . . .
47(4) . . .
48(4) . . .
47(4) . . .
49(4) . . .
55(4) . . .
43(4) . . .
56(4) . . .
55(4) . . .
48(4) . . .
55(4) . . .
51(4) . . .
52(4) . . .
41.8(34) . . .
55(4) . . .
52(4) . . .
50(4) . . .
48(4) . . .
43.8(35) . . .
49(4) . . .
45.7(35) . . .
50(4) . . .
54(4) . . .
56(4) . . .
49(4) . . .
53(4) . . .
50(4) . . .
49(4) . . .
57(4) . . .
53(4) . . .
38.0(33) . . .
46(4) . . .
43(4) . . .
44(4) . . .
47(4) . . .
64(4) . . .
48(4) . . .
57(4) . . .
60(4) . . .
48(4) . . .
56(4) . . .
40.3(33) . . .
51(4) . . .
50(4) . . .
53(4) . . .
43.5(34) . . .
55(4) . . .
50(4) . . .
54(4) . . .
57(4) . . .
56(4) . . .
56(4) . . .
53(4) . . .
45(4) . . .
44.9(35) . . .
41.2(34) . . .
51(4) . . .
57(4) . . .
56(4) . . .
48(4) . . .
50(4) . . .
48(4) . . .
55(4) . . .
58(4) . . .
53(4) . . .
53(4) . . .
52(4) . . .
45.8(34) . . .
50(4) . . .
53(4) . . .
55(4) . . .
48(4) . . .
50(4) . . .
49(4) . . .
50(4) . . .
60(4) . . .
51(4) . . .
46(4) . . .
61(4) . . .
55(4) . . .
57(4) . . .
52(4) . . .
52(4) . . .
44.6(35) . . .
43.8(34) . . .
56(4) . . .
58(4) . . .
41.1(34) . . .
52(4) . . .
47(4) . . .
61(4) . . .
51(4) . . .
42(4) . . .
43.2(34) . . .
42.3(34) . . .
51(4) . . .
50(4) . . .
54(4) . . .
52(4) . . .
54(4) . . .
68(4) . . .
52(4) . . .
53(4) . . .
45.3(35) . . .
47(4) . . .
52(4) . . .
50(4) . . .
59(4) . . .
37.3(32) . . .
54(4) . . .
58(4) . . .
50(4) . . .
56(4) . . .
42.8(34) . . .
43.6(35) . . .
43(4) . . .
50(4) . . .
44.5(35) . . .
53(4) . . .
53(4) . . .
61(4) . . .
50(4) . . .
49(4) . . .
54(4) . . .
51(4) . . .
49(4) . . .
46(4) . . .
48(4) . . .
43.0(35) . . .
46(4) . . .
51(4) . . .
58(4) . . .
52(4) . . .
46(4) . . .
56(4) . . .
50(4) . . .
57(4) . . .
48(4) . . .
49(4) . . .
47(4) . . .
46(4) . . .
49(4) . . .
57(4) . . .
53(4) . . .
47(4) . . .
58(4) . . .
59(4) . . .
53(4) . . .
48(4) . . .
53(4) . . .
48(4) . . .
59(4) . . .
48(4) . . .
52(4) . . .
49(4) . . .
58(4) . . .
49(4) . . .
61(4) . . .
47(4) . . .
53(4) . . .
55(4) . . .
59(4) . . .
55(4) . . .
56(4) . . .
51(4) . . .
41.0(35) . . .
54(4) . . .
53(4) . . .
51(4) . . .
43(4) . . .
57(4) . . .
50(4) . . .
55(4) . . .
51(4) . . .
55(4) . . .
50(4) . . .
49(4) . . .
52(4) . . .
47(4) . . .
50(4) . . .
48(4) . . .
49(4) . . .
52(4) . . .
50(4) . . .
44(4) . . .
45(4) . . .
40.0(33) . . .
43.8(34) . . .
44.5(35) . . .
54(4) . . .
60(4) . . .
45.3(35) . . .
55(4) . . .
56(4) . . .
57(4) . . .
48(4) . . .
58(4) . . .
52(4) . . .
52(4) . . .
54(4) . . .
49(4) . . .
48(4) . . .
60(4) . . .
46(4) . . .
45(4) . . .
44.4(35) . . .
46(4) . . .
56(4) . . .
50(4) . . .
54(4) . . .
45(4) . . .
49(4) . . .
49(4) . . .
43(4) . . .
37(4) . . .
40.8(34) . . .
54(4) . . .
53(4) . . .
43.4(35) . . .
56(4) . . .
60(4) . . .
55(4) . . .
49(4) . . .
46(4) . . .
43.3(35) . . .
66(4) . . .
56(4) . . .
52(4) . . .
56(4) . . .
53(4) . . .
47(4) . . .
51(4) . . .
59(4) . . .
47(4) . . .
37.7(33) . . .
57(4) . . .
61(4) . . .
48(4) . . .
43(4) . . .
45(4) . . .
51(4) . . .
47(4) . . .
52(4) . . .
56(4) . . .
52(4) . . .
61(4) . . .
48(4) . . .
52(4) . . .
46(4) . . .
55(4) . . .
52(4) . . .
47(4) . . .
50(4) . . .
48(4) . . .
53(4) . . .
46(4) . . .
46(4) . . .
54(4) . . .
49(4) . . .
50(4) . . .
53(4) . . .
47(4) . . .
45(4) . . .
49(4) . . .
50(4) . . .
49(4) . . .
61(4) . . .
60(4) . . .
50(4) . . .
52(4) . . .
48(4) . . .
52(4) . . .
57(4) . . .
49(4) . . .
42.8(35) . . .
45.2(35) . . .
44(4) . . .
48(4) . . .
50(4) . . .
41.5(33) . . .
47(4) . . .
49(4) . . .
52(4) . . .
53(4) . . .
38.6(34) . . .
43.7(35) . . .
51(4) . . .
44(4) . . .
55(4) . . .
49(4) . . .
55(4) . . .
53(4) . . .
52(4) . . .
47(4) . . .
51(4) . . .
53(4) . . .
43(4) . . .
51(4) . . .
52(4) . . .
46(4) . . .
61(4) . . .
40.0(34) . . .
38.0(33) . . .
50(4) . . .
45.7(35) . . .
43(4) . . .
54(4) . . .
58(4) . . .
52(4) . . .
43.9(34) . . .
44.5(35) . . .
53(4) . . .
47(4) . . .
55(4) . . .
55(4) . . .
56(4) . . .
56(4) . . .
48(4) . . .
44(4) . . .
51(4) . . .
49(4) . . .
49(4) . . .
51(4) . . .
51(4) . . .
54(4) . . .
50(4) . . .
49(4) . . .
60(4) . . .
52(4) . . .
47(4) . . .
50(4) . . .
46(4) . . .
48(4) . . .
52(4) . . .
49(4) . . .
48(4) . . .
48(4) . . .
43.6(35) . . .
46(4) . . .
47(4) . . .
52(4) . . .
39.5(34) . . .
38.8(33) . . .
51(4) . . .
51(4) . . .
53(4) . . .
57(4) . . .
44(4) . . .
53(4) . . .
57(4) . . .
52(4) . . .
48(4) . . .
52(4) . . .
43.9(34) . . .
61(4) . . .
56(4) . . .
50(4) . . .
50(4) . . .
54(4) . . .
40.2(33) . . .
47(4) . . .
41(4) . . .
59(4) . . .
57(4) . . .
41.5(35) . . .
54(4) . . .
49(4) . . .
49(4) . . .
41.9(33) . . .
40.6(35) . . .
63(5) . . .
53(4) . . .
51(4) . . .
49(4) . . .
47(4) . . .
54(4) . . .
48(4) . . .
49(4) . . .
51(4) . . .
52(4) . . .
46(4) . . .
47(4) . . .
53(4) . . .
51(4) . . .
49(4) . . .
55(4) . . .
49(4) . . .
44(4) . . .
48(4) . . .
38.8(32) . . .
46(4) . . .
52(4) . . .
48(4) . . .
43.0(34) . . .
63(5) . . .
52(4) . . .
67(5) . . .
47(4) . . .
48(4) . . .
54(4) . . .
57(4) . . .
43.1(35) . . .
61(4) . . .
52(4) . . .
46(4) . . .
46(4) . . .
54(4) . . .
62(4) . . .
54(4) . . .
56(4) . . .
51(4) . . .
47(4) . . .
64(4) . . .
48(4) . . .
42(4) . . .
46(4) . . .
60(4) . . .
56(4) . . .
40.6(33) . . .
51(4) . . .
51(4) . . .
59(4) . . .
45(4) . . .
48(4) . . .
63(4) . . .
61(4) . . .
55(4) . . .
45.0(35) . . .
47(4) . . .
45(4) . . .
48(4) . . .
57(4) . . .
58(4) . . .
44(4) . . .
48(4) . . .
52(4) . . .
51(4) . . .
49(4) . . .
53(4) . . .
60(4) . . .
50(4) . . .
47(4) . . .
58(4) . . .
42.9(34) . . .
52(4) . . .
52(4) . . .
59(4) . . .
52(4) . . .
49(4) . . .
51(4) . . .
45(4) . . .
42.7(33) . . .
47(4) . . .
53(4) . . .
58(4) . . .
53(4) . . .
50(4) . . .
46(4) . . .
61(4) . . .
53(4) . . .
54(4) . . .
42.9(34) . . .
41.5(35) . . .
40.2(34) . . .
56(4) . . .
45(4) . . .
56(4) . . .
49(4) . . .
54(4) . . .
44.2(35) . . .
43.3(34) . . .
56(4) . . .
50(4) . . .
56(4) . . .
51(4) . . .
51(4) . . .
37.4(32) . . .
46(4) . . .
52(4) . . .
46(4) . . .
55(4) . . .
50(4) . . .
41.8(34) . . .
48(4) . . .
48(4) . . .
49(4) . . .
53(4) . . .
53(4) . . .
42.1(35) . . .
45(4) . . .
48(4) . . .
42.4(34) . . .
54(4) . . .
45(4) . . .
35.1(33) . . .
50(4) . . .
51(4) . . .
46(4) . . .
53(4) . . .
52(4) . . .
48(4) . . .
50(4) . . .
50(4) . . .
47(4) . . .
46(4) . . .
45(4) . . .
49(4) . . .
46(4) . . .
57(4) . . .
54(4) . . .
49(4) . . .
44(4) . . .
47(4) . . .
45(4) . . .
44(4) . . .
44.3(35) . . .
46(4) . . .
44(4) . . .
46(4) . . .
48(4) . . .
53(4) . . .
46(4) . . .
38.5(31) . . .
47(4) . . .
58(4) . . .
60(4) . . .
50(4) . . .
53(4) . . .
50(4) . . .
55(4) . . .
55(4) . . .
62(4) . . .
45.0(35) . . .
47(4) . . .
45(4) . . .
56(4) . . .
49(4) . . .
55(4) . . .
55(4) . . .
45(4) . . .
41.9(33) . . .
47(4) . . .
54(4) . . .
50(4) . . .
43.3(35) . . .
45(4) . . .
59(4) . . .
48(4) . . .
54(4) . . .
44.1(34) . . .
48(4) . . .
48(4) . . .
57(4) . . .
51(4) . . .
45(4) . . .
41.9(34) . . .
53(4) . . .
57(4) . . .
55(4) . . .
35.7(31) . . .
50(4) . . .
44(4) . . .
44(4) . . .
34.3(31) . . .
52(4) . . .
44(4) . . .
36.7(33) . . .
43(4) . . .
47(4) . . .
51(4) . . .
56(4) . . .
50(4) . . .
50(4) . . .
47(4) . . .
53(4) . . .
49(4) . . .
47(4) . . .
49(4) . . .
42.2(35) . . .
56(4) . . .
59(4) . . .
42.3(34) . . .
50(4) . . .
55(4) . . .
49(4) . . .
42.4(34) . . .
41(4) . . .
50(4) . . .
53(4) . . .
54(4) . . .
56(4) . . .
51(4) . . .
53(4) . . .
45(4) . . .
44.2(34) . . .
47(4) . . .
53(4) . . .
51(4) . . .
54(4) . . .
42.8(35) . . .
54(4) . . .
54(4) . . .
60(4) . . .
40.9(34) . . .
49(4) . . .
48(4) . . .
50(4) . . .
50(4) . . .
47(4) . . .
44(4) . . .
42(4) . . .
46(4) . . .
51(4) . . .
51(4) . . .
44(4) . . .
48(4) . . .
46(4) . . .
48(4) . . .
42.7(34) . . .
46(4) . . .
55(4) . . .
47(4) . . .
48(4) . . .
52(4) . . .
48(4) . . .
43(4) . . .
52(4) . . .
60(4) . . .
53(4) . . .
52(4) . . .
56(4) . . .
42.6(34) . . .
46(4) . . .
48(4) . . .
39.5(34) . . .
40.8(35) . . .
50(4) . . .
54(4) . . .
55(4) . . .
51(4) . . .
44(4) . . .
44.4(35) . . .
59(4) . . .
50(4) . . .
53(4) . . .
42.3(35) . . .
57(4) . . .
47(4) . . .
40.3(33) . . .
49(4) . . .
47(4) . . .
48(4) . . .
49(4) . . .
56(4) . . .
53(4) . . .
49(4) . . .
40.5(33) . . .
53(4) . . .
46(4) . . .
44(4) . . .
47(4) . . .
52(4) . . .
53(4) . . .
48(4) . . .
52(4) . . .
46(4) . . .
43.5(35) . . .
53(4) . . .
42.5(34) . . .
52(4) . . .
43(4) . . .
43(4) . . .
47(4) . . .
52(4) . . .
39.5(34) . . .
41(4) . . .
52(4) . . .
51(4) . . .
43(4) . . .
51(4) . . .
45(4) . . .
53(4) . . .
48(4) . . .
47(4) . . .
49(4) . . .
47(4) . . .
51(4) . . .
42.1(34) . . .
45(4) . . .
53(4) . . .
59(4) . . .
51(4) . . .
52(4) . . .
46(4) . . .
41.9(35) . . .
42.4(35) . . .
45.1(35) . . .
50(4) . . .
51(4) . . .
45(4) . . .
51(4) . . .
40.7(33) . . .
44.4(35) . . .
63(4) . . .
45(4) . . .
54(4) . . .
55(4) . . .
55(4) . . .
55(4) . . .
41(4) . . .
40.7(35) . . .
56(4) . . .
59(4) . . .
56(4) . . .
39.5(34) . . .
47(4) . . .
53(4) . . .
53(4) . . .
50(4) . . .
46(4) . . .
54(4) . . .
45.0(35) . . .
46(4) . . .
49(4) . . .
43(4) . . .
41.0(34) . . .
50(4) . . .
48(4) . . .
37.3(32) . . .
46(4) . . .
53(4) . . .
53(4) . . .
59(4) . . .
50(4) . . .
46(4) . . .
49(4) . . .
49(4) . . .
59(4) . . .
53(4) . . .
42.3(34) . . .
45(4) . . .
57(4) . . .
56(4) . . .
46(4) . . .
57(4) . . .
50(4) . . .
48(4) . . .
46(4) . . .
43(4) . . .
60(4) . . .
56(4) . . .
47(4) . . .
53(4) . . .
48(4) . . .
40.1(34) . . .
50(4) . . .
48(4) . . .
53(4) . . .
57(4) . . .
50(4) . . .
44.3(35) . . .
49(4) . . .
46(4) . . .
55(4) . . .
52(4) . . .
54(4) . . .
52(4) . . .
42.9(34) . . .
49(4) . . .
41.1(34) . . .
62(4) . . .
46(4) . . .
57(4) . . .
52(4) . . .
49(4) . . .
37.6(32) . . .
49(4) . . .
55(4) . . .
52(4) . . .
56(4) . . .
58(4) . . .
46(4) . . .
39.6(34) . . .
46(4) . . .
40.9(34) . . .
49(4) . . .
49(4) . . .
47(4) . . .
57(4) . . .
59(4) . . .
41.8(34) . . .
43(4) . . .
51(4) . . .
51(4) . . .
41.0(34) . . .
54(4) . . .
60(4) . . .
52(4) . . .
54(4) . . .
49(4) . . .
46(4) . . .
39.0(33) . . .
48(4) . . .
50(4) . . .
61(4) . . .
49(4) . . .
45(4) . . .
44(4) . . .
45(4) . . .
47(4) . . .
56(4) . . .
37.4(32) . . .
58(4) . . .
41.7(34) . . .
43.6(34) . . .
44(4) . . .
37.4(31) . . .
47(4) . . .
44.2(35) . . .
54(4) . . .
58(4) . . .
58(4) . . .
55(4) . . .
49(4) . . .
47(4) . . .
50(4) . . .
51(4) . . .
50(4) . . .
54(4) . . .
51(4) . . .
51(4) . . .
45(4) . . .
53(4) . . .
49(4) . . .
46(4) . . .
49(4) . . .
60(5) . . .
50(4) . . .
47(4) . . .
48(4) . . .
48(4) . . .
41(4) . . .
38.1(35) . . .
40.6(34) . . .
38.8(32) . . .
45(4) . . .
52(4) . . .
46(4) . . .
57(4) . . .
57(4) . . .
46(4) . . .
56(4) . . .
54(4) . . .
50(4) . . .
56(4) . . .
55(4) . . .
35.9(33) . . .
40.6(35) . . .
53(4) . . .
54(4) . . .
56(4) . . .
40(4) . . .
43(4) . . .
52(4) . . .
50(4) . . .
53(4) . . .
45(4) . . .
45(4) . . .
37.4(32) . . .
52(4) . . .
46(4) . . .
54(4) . . .
46(4) . . .
49(4) . . .
46(4) . . .
52(4) . . .
50(4) . . .
46(4) . . .
45(4) . . .
45(4) . . .
45(4) . . .
41(4) . . .
47(4) . . .
41.1(33) . . .
40.5(34) . . .
37.0(33) . . .
58(5) . . .
50(4) . . .
42.3(34) . . .
46(4) . . .
50(4) . . .
40.9(33) . . .
53(4) . . .
40.7(33) . . .
57(4) . . .
42.2(34) . . .
54(4) . . .
52(4) . . .
46(4) . . .
43(4) . . .
48(4) . . .
48(4) . . .
40.6(33) . . .
47(4) . . .
42.7(35) . . .
50(4) . . .
54(4) . . .
49(4) . . .
46(4) . . .
45(4) . . .
37.9(34) . . .
43(4) . . .
48(4) . . .
52(4) . . .
48(4) . . .
51(4) . . .
40.5(34) . . .
36.6(31) . . .
41.4(34) . . .
55(4) . . .
53(4) . . .
49(4) . . .
45(4) . . .
51(4) . . .
50(4) . . .
44(4) . . .
59(4) . . .
55(4) . . .
48(4) . . .
41.8(34) . . .
56(4) . . .
49(4) . . .
63(4) . . .
50(4) . . .
51(4) . . .
50(4) . . .
45(4) . . .
52(4) . . .
48(4) . . .
32.1(31) . . .
56(4) . . .
51(4) . . .
42.3(34) . . .
54(4) . . .
56(4) . . .
54(4) . . .
49(4) . . .
43.3(34) . . .
42.5(35) . . .
56(4) . . .
52(4) . . .
47(4) . . .
48(4) . . .
58(4) . . .
46(4) . . .
48(4) . . .
48(4) . . .
44.7(35) . . .
46(4) . . .
54(4) . . .
49(4) . . .
44(4) . . .
50(4) . . .
50(4) . . .
49(4) . . .
41(4) . . .
40.1(33) . . .
46.1(35) . . .
51(4) . . .
45(4) . . .
39.9(33) . . .
45(4) . . .
56(4) . . .
58(4) . . .
50(4) . . .
55(4) . . .
46(4) . . .
52(4) . . .
50(4) . . .
52(4) . . .
54(4) . . .
55(4) . . .
55(4) . . .
48(4) . . .
41.6(34) . . .
46(4) . . .
49(4) . . .
44(4) . . .
49(4) . . .
53(4) . . .
55(4) . . .
47(4) . . .
39.5(34) . . .
49(4) . . .
46(4) . . .
61(4) . . .
42.1(33) . . .
46(4) . . .
52(4) . . .
46(4) . . .
44.8(35) . . .
44.7(35) . . .
48(4) . . .
43(4) . . .
41.2(34) . . .
50(4) . . .
46(4) . . .
41.1(34) . . .
44(4) . . .
44(4) . . .
48(4) . . .
56(4) . . .
47(4) . . .
52(4) . . .
46(4) . . .
52(4) . . .
51(4) . . .
52(4) . . .
48(4) . . .
52(4) . . .
51(4) . . .
56(4) . . .
49(4) . . .
47(4) . . .
52(4) . . .
50(4) . . .
46(4) . . .
41.0(34) . . .
50(4) . . .
49(4) . . .
47(4) . . .
44(4) . . .
41.6(34) . . .
52(4) . . .
43.8(34) . . .
50(4) . . .
46(4) . . .
52(4) . . .
48(4) . . .
48(4) . . .
48(4) . . .
46(4) . . .
33.4(34) . . .
40.8(34) . . .
49(4) . . .
56(4) . . .
52(4) . . .
41(4) . . .
43.7(35) . . .
49(4) . . .
50(4) . . .
55(4) . . .
52(4) . . .
44.2(34) . . .
53(4) . . .
56(4) . . .
46(4) . . .
51(4) . . .
52(4) . . .
45.2(35) . . .
51(4) . . .
47(4) . . .
50(4) . . .
44(4) . . .
49(4) . . .
49(4) . . .
41.8(33) . . .
46(4) . . .
49(4) . . .
41.0(33) . . .
42.4(35) . . .
47(4) . . .
44(4) . . .
52(4) . . .
49(4) . . .
43.8(35) . . .
44(4) . . .
42(4) . . .
51(4) . . .
53(4) . . .
53(4) . . .
46(4) . . .
48(4) . . .
44.3(34) . . .
54(4) . . .
41.8(34) . . .
53(4) . . .
46(4) . . .
44(4) . . .
56(4) . . .
44(4) . . .
45(4) . . .
44(4) . . .
42.0(34) . . .
45.0(35) . . .
51(4) . . .
53(4) . . .
60(4) . . .
46(4) . . .
52(4) . . .
51(4) . . .
48(4) . . .
48(4) . . .
54(4) . . .
49(4) . . .
49(4) . . .
49(4) . . .
38.8(34) . . .
45(4) . . .
44.0(35) . . .
45.3(35) . . .
49(4) . . .
52(4) . . .
48(4) . . .
49(4) . . .
49(4) . . .
50(4) . . .
51(4) . . .
45(4) . . .
40.9(34) . . .
46(4) . . .
44(4) . . .
40.7(35) . . .
49(4) . . .
48(4) . . .
43.0(35) . . .
50(4) . . .
47(4) . . .
53(4) . . .
47(4) . . .
50(4) . . .
49(4) . . .
53(4) . . .
45(4) . . .
45(4) . . .
47(4) . . .
44.0(35) . . .
37.9(32) . . .
50(4) . . .
38.2(32) . . .
53(4) . . .
50(4) . . .
53(4) . . .
40.3(33) . . .
49(4) . . .
48(4) . . .
42(4) . . .
47(4) . . .
44.8(35) . . .
54(4) . . .
54(4) . . .
52(4) . . .
56(4) . . .
54(4) . . .
50(4) . . .
44(4) . . .
46(4) . . .
49(4) . . .
52(4) . . .
36.1(32) . . .
43(4) . . .
52(4) . . .
49(4) . . .
56(4) . . .
42.9(35) . . .
40(4) . . .
51(4) . . .
56(4) . . .
44.5(35) . . .
60(4) . . .
44.9(35) . . .
45(4) . . .
48(4) . . .
51(4) . . .
53(4) . . .
54(4) . . .
47(4) . . .
57(4) . . .
53(4) . . .
54(4) . . .
62(4) . . .
55(4) . . .
39.0(33) . . .
51(4) . . .
45.8(35) . . .
55(4) . . .
44(4) . . .
53(4) . . .
55(4) . . .
49(4) . . .
49(4) . . .
47(4) . . .
53(4) . . .
50(4) . . .
48(4) . . .
49(4) . . .
40.3(34) . . .
52(4) . . .
50(4) . . .
48(4) . . .
57(4) . . .
51(4) . . .
54(4) . . .
44(4) . . .
44(4) . . .
37.9(32) . . .
55(4) . . .
57(4) . . .
41.2(35) . . .
44(4) . . .
44.3(35) . . .
52(4) . . .
44(4) . . .
58(4) . . .
52(4) . . .
48(4) . . .
45.5(35) . . .
44(4) . . .
51(4) . . .
48(4) . . .
47(4) . . .
48(4) . . .
45(4) . . .
46(4) . . .
49(4) . . .
44(4) . . .
43.4(35) . . .
52(4) . . .
53(4) . . .
43.4(34) . . .
55(4) . . .
50(4) . . .
48(4) . . .
52(4) . . .
58(4) . . .
50(4) . . .
51(4) . . .
42.7(34) . . .
56(4) . . .
46.7(35) . . .
54(4) . . .
36.5(31) . . .
53(4) . . .
37.5(32) . . .
39.4(34) . . .
39.2(33) . . .
41.6(33) . . .
47(4) . . .
46(4) . . .
49(4) . . .
40.6(33) . . .
53(4) . . .
48(4) . . .
45(4) . . .
48(4) . . .
36.4(31) . . .
54(4) . . .
52(4) . . .
49(4) . . .
46(4) . . .
43.9(34) . . .
47(4) . . .
42.0(33) . . .
46.4(35) . . .
50(4) . . .
48(4) . . .
46(4) . . .
57(4) . . .
50(4) . . .
46(4) . . .
40.1(33) . . .
49(4) . . .
41.9(33) . . .
48(4) . . .
53(4) . . .
39.9(33) . . .
50(4) . . .
39.1(33) . . .
47(4) . . .
39.4(33) . . .
54(4) . . .
52(4) . . .
47(4) . . .
42(4) . . .
47(4) . . .
40.1(33) . . .
46(4) . . .
45(4) . . .
40.3(34) . . .
51(4) . . .
37.8(32) . . .
46(4) . . .
44(4) . . .
44(4) . . .
46(4) . . .
47(4) . . .
37.8(33) . . .
51(4) . . .
47(4) . . .
36.6(31) . . .
52(4) . . .
54(4) . . .
50(4) . . .
50(4) . . .
38.1(32) . . .
48(4) . . .
55(4) . . .
48(4) . . .
52(4) . . .
50(4) . . .
45.4(34) . . .
48(4) . . .
54(4) . . .
51(4) . . .
51(4) . . .
50(4) . . .
40(4) . . .
41(4) . . .
47(4) . . .
43.9(34) . . .
52(4) . . .
40.8(34) . . .
46(4) . . .
47(4) . . .
47(4) . . .
51(4) . . .
46(4) . . .
49(4) . . .
42.4(34) . . .
38.8(33) . . .
49(4) . . .
50(4) . . .
51(4) . . .
41.6(34) . . .
39.8(33) . . .
48(4) . . .
38.2(34) . . .
44(4) . . .
54(4) . . .
43.0(34) . . .
48(4) . . .
51(4) . . .
46(4) . . .
48(4) . . .
33.2(30) . . .
46(4) . . .
48(4) . . .
44(4) . . .
47(4) . . .
49(4) . . .
47(4) . . .
44(4) . . .
43(4) . . .
37.9(33) . . .
41.7(34) . . .
41(4) . . .
41(4) . . .
46(4) . . .
52(4) . . .
59(4) . . .
48(4) . . .
48(4) . . .
41.6(33) . . .
49(4) . . .
49(4) . . .
48(4) . . .
48(4) . . .
47(4) . . .
56(4) . . .
45(4) . . .
47(4) . . .
51(4) . . .
53(4) . . .
41.3(33) . . .
44(4) . . .
64(4) . . .
48(4) . . .
49(4) . . .
41.9(34) . . .
37.7(34) . . .
48(4) . . .
53(4) . . .
37.5(31) . . .
49(4) . . .
40.8(35) . . .
53(4) . . .
43.0(34) . . .
44(4) . . .
47(4) . . .
45(4) . . .
48(4) . . .
42.5(34) . . .
49(4) . . .
47(4) . . .
45(4) . . .
41(4) . . .
49(4) . . .
48(4) . . .
45.1(35) . . .
39.6(32) . . .
53(4) . . .
51(4) . . .
49(4) . . .
54(4) . . .
51(4) . . .
42(4) . . .
45(4) . . .
46(4) . . .
42.1(35) . . .
41(4) . . .
42(4) . . .
47(4) . . .
49(4) . . .
42.8(34) . . .
53(4) . . .
47(4) . . .
49(4) . . .
49(4) . . .
52(4) . . .
40.8(33) . . .
56(4) . . .
49(4) . . .
43.8(35) . . .
47(4) . . .
57(4) . . .
46(4) . . .
48(4) . . .
44.5(35) . . .
36.4(31) . . .
49(4) . . .
44(4) . . .
48(4) . . .
55(4) . . .
44.1(35) . . .
53(4) . . .
51(4) . . .
42.0(34) . . .
62(4) . . .
42.8(34) . . .
38.5(32) . . .
43(4) . . .
52(4) . . .
50(4) . . .
44(4) . . .
54(4) . . .
53(4) . . .
46(4) . . .
39.0(33) . . .
48(4) . . .
42(4) . . .
40.0(33) . . .
40.9(33) . . .
44.0(35) . . .
47(4) . . .
53(4) . . .
52(4) . . .
58(4) . . .
43.7(35) . . .
41.7(33) . . .
49(4) . . .
48(4) . . .
48(4) . . .
43.6(35) . . .
46.0(35) . . .
50(4) . . .
40.9(34) . . .
37.7(32) . . .
40.1(33) . . .
46(4) . . .
44(4) . . .
42.8(34) . . .
37.8(32) . . .
53(4) . . .
51(4) . . .
52(4) . . .
48(4) . . .
45(4) . . .
46(4) . . .
54(4) . . .
42.7(34) . . .
44(4) . . .
48(4) . . .
49(4) . . .
43(4) . . .
41(4) . . .
49(4) . . .
49(4) . . .
43(4) . . .
55(4) . . .
59(4) . . .
41.3(33) . . .
47(4) . . .
41(4) . . .
49(4) . . .
49(4) . . .
44(4) . . .
43.8(35) . . .
45(4) . . .
59(5) . . .
40.7(33) . . .
40.4(34) . . .
49(4) . . .
42.1(34) . . .
48(4) . . .
47(4) . . .
40.3(34) . . .
50(4) . . .
50(4) . . .
46(4) . . .
50(4) . . .
45.7(35) . . .
52(4) . . .
41.8(33) . . .
51(4) . . .
49(4) . . .
49(4) . . .
44(4) . . .
47(4) . . .
43(4) . . .
49(4) . . .
43.0(34) . . .
40.0(35) . . .
47(4) . . .
40(4) . . .
48(4) . . .
41.9(35) . . .
48(4) . . .
42.7(35) . . .
44(4) . . .
35.7(33) . . .
37.9(32) . . .
51(4) . . .
45(4) . . .
51(4) . . .
43(4) . . .
49(4) . . .
43(4) . . .
48(4) . . .
37.7(32) . . .
39.5(35) . . .
44.7(35) . . .
52(4) . . .
38.6(34) . . .
40.3(33) . . .
47(4) . . .
49(4) . . .
36.5(32) . . .
43(4) . . .
49(4) . . .
42.7(34) . . .
54(4) . . .
57(4) . . .
45(4) . . .
51(4) . . .
48(4) . . .
44.9(35) . . .
39.0(33) . . .
45(4) . . .
42.2(34) . . .
44.1(35) . . .
45.0(35) . . .
44(4) . . .
40(4) . . .
52(4) . . .
46(4) . . .
49(4) . . .
41.6(35) . . .
41.8(35) . . .
46(4) . . .
48(4) . . .
45(4) . . .
45(4) . . .
43(4) . . .
42.1(35) . . .
43.5(34) . . .
37.2(32) . . .
47(4) . . .
43(4) . . .
47(4) . . .
43.6(35) . . .
44(4) . . .
36.6(33) . . .
41(4) . . .
44.0(35) . . .
42.4(34) . . .
45(4) . . .
41.9(34) . . .
50(4) . . .
43.8(35) . . .
50(4) . . .
53(4) . . .
49(4) . . .
41(4) . . .
49(4) . . .
53(4) . . .
48(4) . . .
45(4) . . .
42.4(34) . . .
50(4) . . .
48(4) . . .
39.9(34) . . .
43(4) . . .
45(4) . . .
42.6(35) . . .
45.5(35) . . .
50(4) . . .
40.9(34) . . .
48(4) . . .
48(4) . . .
53(4) . . .
48(4) . . .
52(4) . . .
48(4) . . .
52(4) . . .
47(4) . . .
47(4) . . .
56(4) . . .
53(4) . . .
42.6(34) . . .
51(4) . . .
49(4) . . .
43(4) . . .
39.0(34) . . .
49(4) . . .
48(4) . . .
55(4) . . .
52(4) . . .
49(4) . . .
41.4(34) . . .
54(4) . . .
41.5(34) . . .
46(4) . . .
52(4) . . .
46(4) . . .
51(4) . . .
50(4) . . .
56(4) . . .
43.2(34) . . .
55(4) . . .
52(4) . . .
46(4) . . .
49(4) . . .
51(4) . . .
46(4) . . .
50(4) . . .
46(4) . . .
43(4) . . .
34.5(30) . . .
45(4) . . .
47(4) . . .
52(4) . . .
56(4) . . .
55(4) . . .
45.4(35) . . .
40.8(35) . . .
49(4) . . .
51(4) . . .
35.8(31) . . .
45(4) . . .
49(4) . . .
35.8(33) . . .
44(4) . . .
41.6(34) . . .
35.3(30) . . .
47(4) . . .
43(4) . . .
56(4) . . .
43.1(34) . . .
42.4(34) . . .
46(4) . . .
45(4) . . .
51(4) . . .
54(4) . . .
56(4) . . .
64(4) . . .
46(4) . . .
45(4) . . .
38.2(32) . . .
42.8(35) . . .
44(4) . . .
44(4) . . .
52(4) . . .
56(4) . . .
59(4) . . .
47(4) . . .
44(4) . . .
44(4) . . .
46(4) . . .
40.4(35) . . .
48(4) . . .
39.8(33) . . .
49(4) . . .
52(4) . . .
50(4) . . .
51(4) . . .
42.3(35) . . .
46(4) . . .
50(4) . . .
46(4) . . .
50(4) . . .
53(4) . . .
44(4) . . .
45(4) . . .
50(4) . . .
48(4) . . .
60(4) . . .
50(4) . . .
44.1(34) . . .
44(4) . . .
49(4) . . .
46(4) . . .
42.4(34) . . .
51(4) . . .
55(4) . . .
46(4) . . .
46(4) . . .
43.5(35) . . .
42.8(35) . . .
46(4) . . .
47(4) . . .
40.4(34) . . .
38.5(33) . . .
39.3(34) . . .
46(4) . . .
42(4) . . .
48(4) . . .
46.9(35) . . .
37.4(32) . . .
47(4) . . .
44.4(35) . . .
41.0(34) . . .
47(4) . . .
47(4) . . .
41.8(34) . . .
50(4) . . .
46(4) . . .
46(4) . . .
49(4) . . .
47(4) . . .
39.4(32) . . .
44.0(35) . . .
60(4) . . .
55(4) . . .
49(4) . . .
47(4) . . .
43.9(34) . . .
56(4) . . .
49(4) . . .
43(4) . . .
44.5(35) . . .
50(4) . . .
40.9(33) . . .
47(4) . . .
49(4) . . .
49(4) . . .
36.8(32) . . .
46(4) . . .
47(4) . . .
47(4) . . .
42.6(33) . . .
54(4) . . .
49(4) . . .
48(4) . . .
47(4) . . .
40.1(33) . . .
56(4) . . .
44(4) . . .
51(4) . . .
44(4) . . .
56(4) . . .
46(4) . . .
42.1(34) . . .
53(4) . . .
57(4) . . .
49(4) . . .
47(4) . . .
52(4) . . .
53(4) . . .
51(4) . . .
48(4) . . .
48(4) . . .
44(4) . . .
56(4) . . .
41.3(33) . . .
57(4) . . .
53(4) . . .
47(4) . . .
47(4) . . .
42.4(33) . . .
45(4) . . .
42.8(34) . . .
40.2(35) . . .
45(4) . . .
46.1(35) . . .
47(4) . . .
50(4) . . .
49(4) . . .
55(4) . . .
49(4) . . .
44.5(35) . . .
38.0(32) . . .
41(4) . . .
47(4) . . .
46(4) . . .
36.2(31) . . .
40.0(33) . . .
40.2(33) . . .
36.3(33) . . .
39.3(34) . . .
44.4(34) . . .
50(4) . . .
39.0(33) . . .
45(4) . . .
47(4) . . .
40.3(33) . . .
40.8(34) . . .
40.3(34) . . .
46(4) . . .
49(4) . . .
43.8(34) . . .
48(4) . . .
43(4) . . .
47(4) . . .
53(4) . . .
45(4) . . .
41.1(33) . . .
40.2(35) . . .
50(4) . . .
40.4(33) . . .
38.5(32) . . .
49(4) . . .
44(4) . . .
50(4) . . .
52(4) . . .
54(4) . . .
47(4) . . .
38.8(33) . . .
46(4) . . .
54(4) . . .
45(4) . . .
47(4) . . .
45(4) . . .
38.2(33) . . .
42.1(34) . . .
47(4) . . .
41.0(33) . . .
51(4) . . .
51(4) . . .
49(4) . . .
42.5(34) . . .
45(4) . . .
55(4) . . .
56(4) . . .
42.9(34) . . .
45.2(34) . . .
41.5(34) . . .
47(4) . . .
42(4) . . .
41.7(34) . . .
44.5(35) . . .
46(4) . . .
46(4) . . .
54(4) . . .
45.9(35) . . .
44.7(35) . . .
53(4) . . .
42(4) . . .
44(4) . . .
47(4) . . .
48(4) . . .
40.6(34) . . .
49(4) . . .
48(4) . . .
50(4) . . .
53(4) . . .
50(4) . . .
47(4) . . .
49(4) . . .
48(4) . . .
44(4) . . .
53(4) . . .
58(4) . . .
57(4) . . .
41.4(34) . . .
44.3(35) . . .
49(4) . . .
52(4) . . .
43(4) . . .
39.4(33) . . .
52(4) . . .
51(4) . . .
54(4) . . .
54(4) . . .
56(4) . . .
52(4) . . .
50(4) . . .
48(4) . . .
44.7(35) . . .
47(4) . . .
50(4) . . .
43(4) . . .
45(4) . . .
43.1(34) . . .
39.0(32) . . .
49(4) . . .
42(4) . . .
48(4) . . .
41.1(33) . . .
41.2(33) . . .
44.3(35) . . .
46(4) . . .
42.8(34) . . .
50(4) . . .
47(4) . . .
51(4) . . .
44(4) . . .
47(4) . . .
54(4) . . .
36.8(32) . . .
51(4) . . .
52(4) . . .
43(4) . . .
41.1(34) . . .
50(4) . . .
48(4) . . .
45(4) . . .
56(4) . . .
50(4) . . .
45(4) . . .
53(4) . . .
51(4) . . .
49(4) . . .
37.9(33) . . .
40(4) . . .
47(4) . . .
47(4) . . .
55(4) . . .
43.3(35) . . .
53(4) . . .
42(4) . . .
38.5(33) . . .
44(4) . . .
42.7(34) . . .
44(4) . . .
40.3(33) . . .
43(4) . . .
43.7(34) . . .
44.2(34) . . .
45(4) . . .
50(4) . . .
49(4) . . .
49(4) . . .
42.1(33) . . .
38.7(33) . . .
49(4) . . .
50(4) . . .
44(4) . . .
41.5(33) . . .
53(4) . . .
50(4) . . .
36.0(32) . . .
39.1(33) . . .
48(4) . . .
38.9(33) . . .
37.8(33) . . .
43(4) . . .
44.4(35) . . .
52(4) . . .
38.0(33) . . .
41(4) . . .
45(4) . . .
57(4) . . .
41.1(33) . . .
49(4) . . .
56(4) . . .
57(4) . . .
45.0(35) . . .
49(4) . . .
55(4) . . .
51(4) . . .
46(4) . . .
44.5(35) . . .
46(4) . . .
45(4) . . .
40.8(34) . . .
35.6(31) . . .
43.6(34) . . .
44(4) . . .
43(4) . . .
48(4) . . .
50(4) . . .
39.4(33) . . .
46(4) . . .
38.4(33) . . .
42(4) . . .
53(4) . . .
50(4) . . .
49(4) . . .
45(4) . . .
43(4) . . .
50(4) . . .
47(4) . . .
44(4) . . .
38(4) . . .
46(4) . . .
46(4) . . .
41.5(34) . . .
48(4) . . .
48(4) . . .
45(4) . . .
33.5(30) . . .
41.4(34) . . .
43(4) . . .
46(4) . . .
40(4) . . .
38.2(33) . . .
45(4) . . .
45(4) . . .
46(4) . . .
45(4) . . .
44.1(34) . . .
45(4) . . .
51(4) . . .
47(4) . . .
37.3(33) . . .
53(4) . . .
40.0(33) . . .
50(4) . . .
43(4) . . .
38(4) . . .
35.1(31) . . .
33.9(30) . . .
40.5(34) . . .
49(4) . . .
48(4) . . .
47(4) . . .
52(4) . . .
51(4) . . .
49(4) . . .
49(4) . . .
54(4) . . .
53(4) . . .
41.3(35) . . .
40.0(35) . . .
49(4) . . .
51(4) . . .
47(4) . . .
43(4) . . .
41.0(34) . . .
46(4) . . .
42.4(34) . . .
44(4) . . .
45(4) . . .
42.1(34) . . .
50(4) . . .
51(4) . . .
45(4) . . .
45(4) . . .
50(4) . . .
46(4) . . .
48(4) . . .
51(4) . . .
55(4) . . .
46(4) . . .
51(4) . . .
50(4) . . .
47(4) . . .
38.3(35) . . .
42.2(35) . . .
40.3(33) . . .
39.4(33) . . .
43(4) . . .
53(4) . . .
39.2(33) . . .
42.7(34) . . .
49(4) . . .
48(4) . . .
49(4) . . .
49(4) . . .
44.9(35) . . .
51(4) . . .
37.8(33) . . .
43(4) . . .
51(4) . . .
53(4) . . .
44(4) . . .
57(4) . . .
56(4) . . .
51(4) . . .
47(4) . . .
49(4) . . .
36.2(31) . . .
36.9(32) . . .
42.4(34) . . .
47(4) . . .
44(4) . . .
44(4) . . .
36.1(31) . . .
43.8(34) . . .
61(4) . . .
38.2(32) . . .
39.6(33) . . .
44(4) . . .
45.4(35) . . .
41.6(34) . . .
49(4) . . .
51(4) . . .
49(4) . . .
49(4) . . .
54(4) . . .
45(4) . . .
50(4) . . .
50(4) . . .
47(4) . . .
38.4(33) . . .
44(4) . . .
46(4) . . .
44(4) . . .
39.9(32) . . .
35.2(33) . . .
37.9(32) . . .
39(4) . . .
36.8(32) . . .
40.8(34) . . .
42.7(33) . . .
50(4) . . .
48(4) . . .
44.0(35) . . .
42.0(34) . . .
45(4) . . .
46(4) . . .
41(4) . . .
39.6(35) . . .
38.8(32) . . .
38.8(33) . . .
47(4) . . .
37.8(33) . . .
40.1(33) . . .
54(4) . . .
43(4) . . .
41(4) . . .
43(4) . . .
45(4) . . .
42.0(35) . . .
42.3(35) . . .
38.4(32) . . .
42.0(34) . . .
41.7(34) . . .
33.5(30) . . .
34.2(31) . . .
43(4) . . .
44.4(35) . . .
52(4) . . .
50(4) . . .
56(4) . . .
41.2(35) . . .
36.5(33) . . .
39.6(32) . . .
45(4) . . .
47(4) . . .
40.0(33) . . .
54(4) . . .
39.4(33) . . .
52(4) . . .
52(4) . . .
43(4) . . .
49(4) . . .
46(4) . . .
44.9(34) . . .
42.3(34) . . .
47(4) . . .
49(4) . . .
52(4) . . .
53(4) . . .
34.4(31) . . .
41.7(35) . . .
47(4) . . .
37.9(32) . . .
32.9(30) . . .
48(4) . . .
47(4) . . .
52(4) . . .
37.9(33) . . .
35.1(31) . . .
44(4) . . .
43(4) . . .
47(4) . . .
32.8(30) . . .
42(4) . . .
42.4(35) . . .
51(4) . . .
43.0(34) . . .
48(4) . . .
47(4) . . .
43(4) . . .
49(4) . . .
53(4) . . .
48(4) . . .
51(4) . . .
43(4) . . .
45(4) . . .
42.5(34) . . .
42.4(34) . . .
40.9(35) . . .
37.5(34) . . .
41.0(34) . . .
40.3(33) . . .
36.7(32) . . .
39.5(33) . . .
43(4) . . .
44(4) . . .
44.6(35) . . .
51(4) . . .
47(4) . . .
39.1(34) . . .
50(4) . . .
39.5(33) . . .
41.4(33) . . .
37.7(33) . . .
40(4) . . .
45(4) . . .
41.6(34) . . .
35.1(30) . . .
40.4(34) . . .
42.8(35) . . .
41.3(34) . . .
40.4(33) . . .
47(4) . . .
35.5(31) . . .
44(4) . . .
42(4) . . .
41.8(34) . . .
47(4) . . .
46(4) . . .
52(4) . . .
44(4) . . .
41.6(34) . . .
41.2(33) . . .
52(4) . . .
37.0(32) . . .
34.7(32) . . .
46(4) . . .
35.9(31) . . .
48(4) . . .
43.7(35) . . .
54(4) . . .
44.6(35) . . .
46(4) . . .
43(4) . . .
51(4) . . .
47(4) . . .
45.7(35) . . .
49(4) . . .
47(4) . . .
40.2(33) . . .
44(4) . . .
44.6(35) . . .
46(4) . . .
38.0(33) . . .
42(4) . . .
47(4) . . .
36.2(32) . . .
52(4) . . .
46(4) . . .
50(4) . . .
51(4) . . .
53(4) . . .
49(4) . . .
50(4) . . .
44(4) . . .
41.0(34) . . .
43.0(34) . . .
47(4) . . .
46(4) . . .
48(4) . . .
43.5(35) . . .
51(4) . . .
47(4) . . .
47(4) . . .
59(4) . . .
42.4(34) . . .
45(4) . . .
45(4) . . .
37.5(32) . . .
34.5(30) . . .
40.9(33) . . .
55(4) . . .
44(4) . . .
48(4) . . .
46(4) . . .
44(4) . . .
34.5(32) . . .
42(4) . . .
42(4) . . .
42.3(34) . . .
53(4) . . .
56(4) . . .
41(4) . . .
41.2(34) . . .
49(4) . . .
53(4) . . .
41(4) . . .
48(4) . . .
45(4) . . .
41.4(33) . . .
52(4) . . .
51(4) . . .
44(4) . . .
41.4(34) . . .
50(4) . . .
39.3(33) . . .
49(4) . . .
51(4) . . .
49(4) . . .
47(4) . . .
45(4) . . .
42(4) . . .
35.8(33) . . .
52(4) . . .
46(4) . . .
48(4) . . .
48(4) . . .
44(4) . . .
40.3(34) . . .
40.4(34) . . .
45.8(35) . . .
40.5(33) . . .
36.5(34) . . .
37.6(33) . . .
40.0(33) . . .
46(4) . . .
36.0(33) . . .
44(4) . . .
44(4) . . .
42.6(34) . . .
38.6(33) . . .
57(4) . . .
46(4) . . .
43.9(35) . . .
46(4) . . .
35.5(31) . . .
36.9(32) . . .
37.6(33) . . .
40.0(33) . . .
39.8(33) . . .
41.6(33) . . .
47(4) . . .
39.2(32) . . .
44(4) . . .
41.4(34) . . .
40.4(34) . . .
33.5(31) . . .
44(4) . . .
50(4) . . .
46(4) . . .
35.4(32) . . .
38.7(33) . . .
42.9(35) . . .
46(4) . . .
55(4) . . .
45(4) . . .
56(4) . . .
48(4) . . .
43.4(34) . . .
43.8(34) . . .
46(4) . . .
42(4) . . .
43(4) . . .
42.0(34) . . .
47(4) . . .
39.1(34) . . .
43(4) . . .
48(4) . . .
40.5(33) . . .
37.2(32) . . .
40.8(34) . . .
36.5(33) . . .
39.0(34) . . .
36.5(31) . . .
52(4) . . .
48(4) . . .
39.2(32) . . .
44.3(35) . . .
48(4) . . .
40.0(34) . . .
54(4) . . .
50(4) . . .
45(4) . . .
47(4) . . .
46(4) . . .
43(4) . . .
47(4) . . .
45.0(35) . . .
50(4) . . .
52(4) . . .
39.1(34) . . .
40(4) . . .
40.8(33) . . .
37.7(32) . . .
36.2(32) . . .
38.7(35) . . .
34.4(33) . . .
49(4) . . .
39.5(33) . . .
38.9(35) . . .
49(4) . . .
42(4) . . .
39.0(33) . . .
46(4) . . .
41(4) . . .
43(4) . . .
51(4) . . .
49(4) . . .
42.0(33) . . .
46(4) . . .
35.3(32) . . .
50(4) . . .
44.5(35) . . .
39.4(33) . . .
43(4) . . .
35.9(33) . . .
35.8(33) . . .
41.8(34) . . .
44.7(35) . . .
38.3(33) . . .
34.2(31) . . .
50(4) . . .
40.8(34) . . .
52(4) . . .
50(4) . . .
44(4) . . .
46(4) . . .
44.8(35) . . .
53(4) . . .
48(4) . . .
42(4) . . .
46(4) . . .
40.8(33) . . .
34.9(32) . . .
33.2(32) . . .
33.1(31) . . .
37.5(34) . . .
40.6(33) . . .
36.9(32) . . .
42(4) . . .
44.4(35) . . .
45(4) . . .
44.7(35) . . .
43.3(35) . . .
42(4) . . .
34.9(31) . . .
35.6(32) . . .
38.4(32) . . .
36.6(32) . . .
37.1(33) . . .
50(4) . . .
48(4) . . .
46(4) . . .
42.4(34) . . .
42(4) . . .
47(4) . . .
53(4) . . .
37.1(32) . . .
48(4) . . .
47(4) . . .
39.2(33) . . .
47(4) . . .
40.4(34) . . .
36.1(32) . . .
44(4) . . .
47(4) . . .
44.5(34) . . .
53(4) . . .
42(4) . . .
37.2(34) . . .
39.9(35) . . .
35.1(31) . . .
44.6(35) . . .
37.8(31) . . .
45(4) . . .
38.7(35) . . .
39.2(33) . . .
40.1(33) . . .
37.2(32) . . .
41.8(35) . . .
51(4) . . .
42.0(33) . . .
40.5(35) . . .
42(4) . . .
40.2(35) . . .
42.0(34) . . .
37.5(32) . . .
44(4) . . .
45(4) . . .
33.7(30) . . .
45.7(35) . . .
41.5(34) . . .
41.2(35) . . .
51(4) . . .
38.6(33) . . .
44.0(34) . . .
45(4) . . .
43(4) . . .
41(4) . . .
43(4) . . .
42.4(34) . . .
45.2(35) . . .
41.9(34) . . .
45(4) . . .
42.8(34) . . .
40.8(34) . . .
45(4) . . .
40.0(34) . . .
43(4) . . .
55(4) . . .
37.4(32) . . .
33.1(31) . . .
54(4) . . .
49(4) . . .
50(4) . . .
47(4) . . .
42.2(34) . . .
43.2(34) . . .
47(4) . . .
41.9(33) . . .
43.0(34) . . .
39.7(34) . . .
43(4) . . .
45(4) . . .
46(4) . . .
43.7(34) . . .
45(4) . . .
37.8(33) . . .
38.1(34) . . .
49(4) . . .
46(4) . . .
42.6(35) . . .
40(4) . . .
34.5(30) . . .
35.2(31) . . .
42.0(33) . . .
50(4) . . .
51(4) . . .
46(4) . . .
47(4) . . .
37.3(32) . . .
48(4) . . .
50(4) . . .
46(4) . . .
44.2(35) . . .
44.7(35) . . .
45(4) . . .
42(4) . . .
40.0(33) . . .
46(4) . . .
45(4) . . .
42.0(34) . . .
49(4) . . .
43.3(34) . . .
44(4) . . .
44.2(35) . . .
40.9(35) . . .
44(4) . . .
46(4) . . .
48(4) . . .
49(4) . . .
47(4) . . .
43(4) . . .
39.8(32) . . .
38.7(32) . . .
39.6(33) . . .
36.6(32) . . .
42(4) . . .
46(4) . . .
45(4) . . .
45(4) . . .
43.7(34) . . .
50(4) . . .
45(4) . . .
48(4) . . .
43(4) . . .
42.6(35) . . .
45(4) . . .
34.1(31) . . .
35.3(31) . . .
50(4) . . .
41.2(34) . . .
44(4) . . .
50(4) . . .
47(4) . . .
37.5(32) . . .
39.6(34) . . .
43.2(34) . . .
57(4) . . .
44.7(34) . . .
39.4(33) . . .
55(4) . . .
51(4) . . .
38.1(33) . . .
39.2(32) . . .
40.5(34) . . .
38.7(34) . . .
37.5(34) . . .
37.3(32) . . .
39.9(33) . . .
41.6(35) . . .
43(4) . . .
35.2(32) . . .
49(4) . . .
47(4) . . .
49(4) . . .
37.4(33) . . .
42.3(34) . . .
41.5(34) . . .
45(4) . . .
48(4) . . .
54(4) . . .
49(4) . . .
42.5(34) . . .
45(4) . . .
39.3(35) . . .
45(4) . . .
45(4) . . .
40.6(33) . . .
34.5(30) . . .
43(4) . . .
52(4) . . .
44(4) . . .
38.6(32) . . .
53(4) . . .
42.5(34) . . .
44(4) . . .
49(4) . . .
46.8(35) . . .
48(4) . . .
49(4) . . .
51(4) . . .
33.3(31) . . .
49(4) . . .
48(4) . . .
49(4) . . .
50(4) . . .
42.1(34) . . .
45.3(35) . . .
45(4) . . .
42(4) . . .
32.2(31) . . .
30.4(29) . . .
42.1(34) . . .
44(4) . . .
42(4) . . .
44(4) . . .
54(4) . . .
36.3(31) . . .
37.0(33) . . .
43(4) . . .
45(4) . . .
41.5(33) . . .
40.4(33) . . .
37.7(32) . . .
47(4) . . .
33.6(30) . . .
39.1(32) . . .
44.4(34) . . .
41.5(33) . . .
48(4) . . .
49(4) . . .
41.7(34) . . .
39.4(34) . . .
53(4) . . .
41(4) . . .
43.1(35) . . .
31.8(29) . . .
50(4) . . .
43(4) . . .
46(4) . . .
48(4) . . .
40.8(34) . . .
35.6(31) . . .
35.8(32) . . .
44(4) . . .
51(4) . . .
46(4) . . .
34.2(30) . . .
43(4) . . .
42(4) . . .
47(4) . . .
41.5(34) . . .
48(4) . . .
40.9(34) . . .
36.7(31) . . .
48(4) . . .
43.1(34) . . .
46(4) . . .
38(4) . . .
39.9(34) . . .
42.2(33) . . .
37.4(32) . . .
42(4) . . .
48(4) . . .
41.8(33) . . .
40.7(33) . . .
35.2(31) . . .
45(4) . . .
44(4) . . .
45(4) . . .
44.3(34) . . .
45(4) . . .
39.5(34) . . .
46(4) . . .
45(4) . . .
38.1(32) . . .
48(4) . . .
37.1(32) . . .
45(4) . . .
49(4) . . .
35.0(30) . . .
38.4(34) . . .
36.8(34) . . .
48(4) . . .
42(4) . . .
48(4) . . .
38.7(33) . . .
52(4) . . .
47(4) . . .
46(4) . . .
33.4(31) . . .
37.6(34) . . .
47(4) . . .
44(4) . . .
38.7(32) . . .
42.1(34) . . .
43.8(35) . . .
36.5(34) . . .
36.7(33) . . .
42.9(34) . . .
38.4(32) . . .
36.0(31) . . .
45(4) . . .
35.6(33) . . .
45(4) . . .
50(4) . . .
54(4) . . .
40.3(35) . . .
50(4) . . .
49(4) . . .
48(4) . . .
51(4) . . .
43(4) . . .
38.8(33) . . .
34.4(30) . . .
37.8(32) . . .
43.1(35) . . .
45(4) . . .
45(4) . . .
40.5(33) . . .
38.6(33) . . .
35.7(31) . . .
55(4) . . .
46(4) . . .
45(4) . . .
46(4) . . .
47(4) . . .
41.4(34) . . .
47(4) . . .
47(4) . . .
46.3(35) . . .
43.3(34) . . .
48(4) . . .
48(4) . . .
37.5(33) . . .
35.7(32) . . .
35.3(33) . . .
50(4) . . .
40.3(34) . . .
45.6(34) . . .
33.2(30) . . .
36.8(32) . . .
41(4) . . .
48(4) . . .
40.3(33) . . .
35.1(31) . . .
36.6(33) . . .
42(4) . . .
29.0(29) . . .
36.5(32) . . .
48(4) . . .
38.6(33) . . .
38.9(33) . . .
40.2(33) . . .
43.6(35) . . .
46(4) . . .
32.9(29) . . .
41.5(33) . . .
52(4) . . .
46(4) . . .
44(4) . . .
45(4) . . .
39.6(33) . . .
38.2(32) . . .
45.4(35) . . .
38.5(33) . . .
44(4) . . .
44(4) . . .
51(4) . . .
44.2(35) . . .
32.0(32) . . .
40.0(34) . . .
46(4) . . .
37.9(32) . . .
37.9(32) . . .
47(4) . . .
46(4) . . .
42.2(35) . . .
48(4) . . .
45.9(35) . . .
43(4) . . .
41.4(35) . . .
44.1(35) . . .
35.2(32) . . .
41.2(34) . . .
45(4) . . .
46(4) . . .
43.0(34) . . .
42.3(33) . . .
57(4) . . .
45(4) . . .
44(4) . . .
43(4) . . .
40.7(33) . . .
37.0(32) . . .
38(4) . . .
36.3(32) . . .
43.1(34) . . .
36.2(32) . . .
46(4) . . .
40.0(34) . . .
47(4) . . .
32.2(30) . . .
38.3(32) . . .
37.3(31) . . .
49(4) . . .
38.1(33) . . .
50(4) . . .
35.3(31) . . .
46(4) . . .
43(4) . . .
51(4) . . .
41.0(34) . . .
46(4) . . .
49(4) . . .
42.3(35) . . .
46(4) . . .
54(4) . . .
43.1(34) . . .
37.0(33) . . .
41(4) . . .
47(4) . . .
34.7(31) . . .
32.4(30) . . .
45(4) . . .
43(4) . . .
40.9(34) . . .
44.9(34) . . .
41.3(35) . . .
37.3(32) . . .
45(4) . . .
42(4) . . .
47(4) . . .
45(4) . . .
36.0(31) . . .
42(4) . . .
42.7(34) . . .
55(4) . . .
44.9(35) . . .
41.3(35) . . .
32.0(30) . . .
43(4) . . .
46(4) . . .
38.2(33) . . .
39.0(32) . . .
49(4) . . .
37.6(33) . . .
36.0(31) . . .
35.0(31) . . .
40.7(35) . . .
35.1(33) . . .
38.6(33) . . .
43.8(34) . . .
35.3(32) . . .
44(4) . . .
40.5(34) . . .
47(4) . . .
45.7(35) . . .
38.6(33) . . .
32.8(31) . . .
41.5(34) . . .
44.5(35) . . .
50(4) . . .
46(4) . . .
32.0(31) . . .
37.6(33) . . .
45(4) . . .
41.8(33) . . .
45(4) . . .
42(4) . . .
38.8(33) . . .
36.3(32) . . .
42.6(34) . . .
48(4) . . .
38.5(33) . . .
38.8(33) . . .
41.6(33) . . .
37.9(33) . . .
44(4) . . .
46(4) . . .
43(4) . . .
38.4(32) . . .
40.2(34) . . .
32.2(33) . . .
34.6(33) . . .
44.3(35) . . .
52(4) . . .
47(4) . . .
43.6(34) . . .
57(4) . . .
35.7(31) . . .
49(4) . . .
46(4) . . .
52(4) . . .
48(4) . . .
40.3(35) . . .
42.5(34) . . .
39.8(33) . . .
39.2(34) . . .
40.5(34) . . .
49(4) . . .
47(4) . . .
47(4) . . .
50(4) . . .
44(4) . . .
34.3(30) . . .
45(4) . . .
36.4(33) . . .
41(4) . . .
46(4) . . .
48(4) . . .
46(4) . . .
40.8(34) . . .
49(4) . . .
39.9(33) . . .
42(4) . . .
43.1(34) . . .
48(4) . . .
39.3(33) . . .
50(4) . . .
56(4) . . .
48(4) . . .
36.9(31) . . .
39(4) . . .
47(4) . . .
42.0(34) . . .
40.4(33) . . .
43(4) . . .
51(4) . . .
39.2(32) . . .
43.9(34) . . .
40.7(33) . . .
39.4(35) . . .
41(4) . . .
40(4) . . .
48(4) . . .
50(4) . . .
43(4) . . .
48(4) . . .
38.7(32) . . .
35.8(32) . . .
43.4(34) . . .
35.4(32) . . .
43(4) . . .
42(4) . . .
41.7(34) . . .
44.5(35) . . .
41.5(33) . . .
42.5(35) . . .
47(4) . . .
46(4) . . .
53(4) . . .
51(4) . . .
37.8(33) . . .
50(4) . . .
41.5(33) . . .
47(4) . . .
50(4) . . .
39.5(33) . . .
37.0(33) . . .
38.1(32) . . .
43(4) . . .
43(4) . . .
38.6(33) . . .
41.2(34) . . .
42.0(34) . . .
38.9(32) . . .
44(4) . . .
38.0(31) . . .
47(4) . . .
49(4) . . .
42.5(33) . . .
41.2(34) . . .
44(4) . . .
57(4) . . .
48(4) . . .
41(4) . . .
39.2(35) . . .
43(4) . . .
35.0(31) . . .
43.5(34) . . .
48(4) . . .
44(4) . . .
40.6(34) . . .
39.9(33) . . .
42.9(34) . . .
44.1(35) . . .
47(4) . . .
40.4(35) . . .
42.0(34) . . .
42.3(34) . . .
33.0(31) . . .
44(4) . . .
43(4) . . .
43.4(35) . . .
47(4) . . .
38.6(34) . . .
34.2(34) . . .
32.3(33) . . .
43.7(34) . . .
33.1(30) . . .
34.5(31) . . .
44(4) . . .
46(4) . . .
49(4) . . .
37.1(33) . . .
36.3(32) . . .
45(4) . . .
44(4) . . .
34.5(31) . . .
46(4) . . .
51(4) . . .
48(4) . . .
46(4) . . .
41.8(34) . . .
41(4) . . .
47(4) . . .
36.6(31) . . .
44.5(34) . . .
42.7(34) . . .
36.6(31) . . .
42(4) . . .
44(4) . . .
39.2(33) . . .
38.1(33) . . .
44(4) . . .
47(4) . . .
43(4) . . .
48(4) . . .
36.9(31) . . .
43(4) . . .
47(4) . . .
35.2(31) . . .
47(4) . . .
38.5(32) . . .
53(4) . . .
39(4) . . .
46(4) . . .
42.2(33) . . .
42.4(34) . . .
42(4) . . .
31.5(30) . . .
44(4) . . .
42.3(33) . . .
46(4) . . .
43.8(35) . . .
49(4) . . .
45(4) . . .
36.4(31) . . .
51(4) . . .
48(4) . . .
42.1(33) . . .
48(4) . . .
45.0(35) . . .
40.4(34) . . .
32.2(31) . . .
37.0(33) . . .
34.8(31) . . .
38.9(33) . . .
45(4) . . .
40.1(35) . . .
35.5(32) . . .
44.8(35) . . .
35.3(31) . . .
32.5(31) . . .
39(4) . . .
41.3(35) . . .
37.1(32) . . .
38.3(33) . . .
45(4) . . .
45(4) . . .
41.0(34) . . .
48(4) . . .
37.9(33) . . .
37.9(33) . . .
43(4) . . .
39.8(34) . . .
35.3(31) . . .
42.1(34) . . .
45(4) . . .
52(4) . . .
41.1(35) . . .
41.4(33) . . .
43(4) . . .
38.6(34) . . .
43(4) . . .
49(4) . . .
47(4) . . .
38.0(33) . . .
40.1(34) . . .
38.5(33) . . .
42.4(34) . . .
42.9(34) . . .
50(4) . . .
40.5(34) . . .
38(4) . . .
31.8(31) . . .
47(4) . . .
40.0(33) . . .
39.6(34) . . .
43(4) . . .
40.1(35) . . .
35.8(31) . . .
38.2(33) . . .
39.0(34) . . .
44(4) . . .
46(4) . . .
47(4) . . .
46(4) . . .
49(4) . . .
45(4) . . .
41.4(33) . . .
37.1(32) . . .
38.7(33) . . .
36.3(33) . . .
35.0(33) . . .
36.2(32) . . .
36.0(31) . . .
47(4) . . .
49(4) . . .
31.9(29) . . .
40.6(33) . . .
43.1(34) . . .
43(4) . . .
38.2(34) . . .
37.2(32) . . .
42.6(34) . . .
47(4) . . .
46(4) . . .
48(4) . . .
37.4(32) . . .
40.2(32) . . .
38.5(32) . . .
43.5(34) . . .
48(4) . . .
48(4) . . .
45(4) . . .
40.3(34) . . .
36.4(31) . . .
45(4) . . .
42.4(34) . . .
46(4) . . .
43.3(34) . . .
44(4) . . .
40.7(34) . . .
48(4) . . .
49(4) . . .
50(4) . . .
43(4) . . .
39.0(34) . . .
43.9(35) . . .
46(4) . . .
34.8(31) . . .
50(4) . . .
34.2(30) . . .
38.9(33) . . .
37.7(32) . . .
49(4) . . .
39.1(32) . . .
37.8(31) . . .
41.3(34) . . .
48(4) . . .
38.8(33) . . .
40(4) . . .
46(4) . . .
46(4) . . .
45.8(35) . . .
41.0(34) . . .
38.6(32) . . .
47(4) . . .
45.7(35) . . .
36.8(32) . . .
34.1(31) . . .
41.3(35) . . .
46(4) . . .
44.5(35) . . .
39.7(33) . . .
47(4) . . .
38.9(34) . . .
45(4) . . .
43.3(34) . . .
34.0(30) . . .
38.7(33) . . .
46(4) . . .
43(4) . . .
32.7(30) . . .
37.1(32) . . .
42.8(34) . . .
44(4) . . .
42.4(35) . . .
44.9(35) . . .
40.9(34) . . .
41.3(35) . . .
44(4) . . .
40.4(34) . . .
49(4) . . .
44.4(34) . . .
39(4) . . .
43(4) . . .
40.7(34) . . .
48(4) . . .
39.4(33) . . .
44(4) . . .
32.4(30) . . .
50(4) . . .
37.6(32) . . .
47(4) . . .
40.1(35) . . .
53(4) . . .
44.7(35) . . .
42.6(34) . . .
35.6(32) . . .
43(4) . . .
44(4) . . .
44(4) . . .
38.1(34) . . .
31.1(30) . . .
43(4) . . .
51(4) . . .
48(4) . . .
33.8(32) . . .
38.2(34) . . .
46(4) . . .
47(4) . . .
35.8(31) . . .
32.6(30) . . .
45(4) . . .
43(4) . . .
37.5(33) . . .
43.1(34) . . .
36.9(32) . . .
39.0(35) . . .
32.9(33) . . .
37.7(33) . . .
49(4) . . .
32.6(31) . . .
42.9(35) . . .
43(4) . . .
42(4) . . .
43.5(34) . . .
34.7(31) . . .
35.8(32) . . .
50(4) . . .
45(4) . . .
42.4(34) . . .
45(4) . . .
35.9(33) . . .
40(4) . . .
42(4) . . .
47(4) . . .
41.0(33) . . .
52(4) . . .
52(4) . . .
38.0(33) . . .
40.3(33) . . .
40.4(34) . . .
44(4) . . .
37.2(33) . . .
40.7(35) . . .
44(4) . . .
38.8(32) . . .
43(4) . . .
55(4) . . .
44.0(35) . . .
40.5(33) . . .
38.3(34) . . .
45(4) . . .
42(4) . . .
43.0(34) . . .
35.1(31) . . .
42.5(35) . . .
39.8(35) . . .
40.7(34) . . .
52(4) . . .
41.0(34) . . .
35.3(31) . . .
49(4) . . .
48(4) . . .
37.0(32) . . .
42.6(34) . . .
42.8(34) . . .
43(4) . . .
40(4) . . .
38.1(31) . . .
45(4) . . .
47(4) . . .
46(4) . . .
47(4) . . .
42.1(34) . . .
46(4) . . .
39(4) . . .
38.7(33) . . .
40.6(33) . . .
43.2(34) . . .
53(4) . . .
48(4) . . .
34.8(31) . . .
46(4) . . .
36.9(32) . . .
53(4) . . .
43(4) . . .
35.2(31) . . .
41.2(35) . . .
43.7(35) . . .
39.1(32) . . .
40.4(35) . . .
45(4) . . .
43(4) . . .
47(4) . . .
52(4) . . .
35.7(32) . . .
43(4) . . .
53(4) . . .
55(4) . . .
42(4) . . .
42(4) . . .
46(4) . . .
39.6(34) . . .
46(4) . . .
42(4) . . .
44(4) . . .
40.5(34) . . .
40.2(33) . . .
38.2(32) . . .
42(4) . . .
37.7(34) . . .
40.4(34) . . .
35.7(31) . . .
34.5(30) . . .
41.5(33) . . .
41.0(35) . . .
51(4) . . .
44.8(35) . . .
34.6(30) . . .
44(4) . . .
46(4) . . .
47(4) . . .
43.4(35) . . .
42.3(34) . . .
41(4) . . .
40(4) . . .
36.8(34) . . .
48(4) . . .
41.2(34) . . .
32.8(31) . . .
48(4) . . .
52(4) . . .
37.5(33) . . .
41.3(34) . . .
35.7(31) . . .
46(4) . . .
53(4) . . .
37.8(32) . . .
45(4) . . .
40(4) . . .
40.0(34) . . .
46(4) . . .
45(4) . . .
39.4(33) . . .
41.5(35) . . .
44.0(35) . . .
39.5(33) . . .
40.7(33) . . .
31.4(30) . . .
31.6(31) . . .
38.8(35) . . .
41.0(34) . . .
42.5(34) . . .
38.3(34) . . .
44(4) . . .
35.0(31) . . .
41.2(35) . . .
49(4) . . .
42.4(34) . . .
48(4) . . .
40.5(33) . . .
41.0(33) . . .
37.3(31) . . .
36.5(32) . . .
45(4) . . .
39.0(34) . . .
41.2(34) . . .
38.8(33) . . .
34.5(32) . . .
35.3(33) . . .
46(4) . . .
41.0(35) . . .
43.5(35) . . .
36.0(34) . . .
43(4) . . .
41.4(35) . . .
36.3(32) . . .
45.3(35) . . .
45(4) . . .
33.6(32) . . .
31.4(30) . . .
44.4(34) . . .
44(4) . . .
35.4(33) . . .
38.3(35) . . .
39.9(34) . . .
34.4(31) . . .
47(4) . . .
40.2(34) . . .
39.9(34) . . .
47(4) . . .
38.5(32) . . .
45(4) . . .
47(4) . . .
46(4) . . .
42.9(34) . . .
44.6(34) . . .
37.0(32) . . .
46(4) . . .
50(4) . . .
40.3(34) . . .
41.0(33) . . .
39.3(33) . . .
43(4) . . .
32.1(30) . . .
37.9(32) . . .
45.4(35) . . .
37.6(33) . . .
41.0(35) . . .
41.3(34) . . .
36.6(31) . . .
37.3(32) . . .
39.4(34) . . .
45(4) . . .
40.6(34) . . .
35.3(32) . . .
42.8(34) . . .
45(4) . . .
49(4) . . .
46(4) . . .
44.8(35) . . .
36.1(31) . . .
44.4(35) . . .
39.0(33) . . .
39.1(33) . . .
47(4) . . .
40.7(34) . . .
42.0(34) . . .
47(4) . . .
50(4) . . .
53(4) . . .
34.8(31) . . .
48(4) . . .
49(4) . . .
46(4) . . .
49(4) . . .
37.0(31) . . .
45(4) . . .
42(4) . . .
40.1(34) . . .
41.7(34) . . .
47(4) . . .
43.5(35) . . .
48(4) . . .
40.6(35) . . .
35.9(31) . . .
39.2(33) . . .
34.7(32) . . .
39.4(34) . . .
39.3(32) . . .
40.7(33) . . .
34.2(31) . . .
47(4) . . .
46(4) . . .
43.1(34) . . .
41.9(33) . . .
39.9(34) . . .
47(4) . . .
39.1(33) . . .
37.6(31) . . .
39.1(33) . . .
45(4) . . .
45(4) . . .
41.7(35) . . .
26.9(27) . . .
40.9(33) . . .
44(4) . . .
42(4) . . .
51(4) . . .
41.7(33) . . .
40.7(33) . . .
44(4) . . .
33.1(33) . . .
37.1(34) . . .
32.4(30) . . .
36.4(31) . . .
43(4) . . .
40(4) . . .
46(4) . . .
37.9(33) . . .
41.2(33) . . .
44(4) . . .
35.3(32) . . .
40.3(34) . . .
40.5(33) . . .
43.0(35) . . .
49(4) . . .
51(4) . . .
35.2(31) . . .
38.4(33) . . .
46(4) . . .
32.6(31) . . .
40.3(35) . . .
26.7(27) . . .
38.5(33) . . .
43(4) . . .
38.3(34) . . .
41(4) . . .
36.8(33) . . .
42.2(34) . . .
44(4) . . .
46(4) . . .
34.5(31) . . .
37.7(33) . . .
39.5(33) . . .
36.3(33) . . .
38(4) . . .
43(4) . . .
37.3(33) . . .
33.9(30) . . .
39(4) . . .
41(4) . . .
43(4) . . .
39.4(33) . . .
44(4) . . .
44(4) . . .
39.0(35) . . .
45(4) . . .
40.8(33) . . .
48(4) . . .
41.8(34) . . .
39(4) . . .
35.6(33) . . .
40(4) . . .
41.7(34) . . .
49(4) . . .
49(4) . . .
46(4) . . .
37.7(32) . . .
39.2(33) . . .
41(4) . . .
44(4) . . .
43(4) . . .
45.1(34) . . .
44.0(34) . . .
38.1(32) . . .
35.0(31) . . .
39.9(35) . . .
43.8(34) . . .
37.9(32) . . .
43(4) . . .
38.1(34) . . .
40.1(34) . . .
40.2(33) . . .
45(4) . . .
45(4) . . .
42(4) . . .
41.1(34) . . .
48(4) . . .
39.0(33) . . .
51(4) . . .
41(4) . . .
30.1(30) . . .
43(4) . . .
44(4) . . .
39(4) . . .
35.8(32) . . .
45.0(35) . . .
43.3(34) . . .
38.8(33) . . .
40.0(34) . . .
39.8(33) . . .
49(4) . . .
41.4(33) . . .
40.4(33) . . .
49(4) . . .
45(4) . . .
37.9(32) . . .
32.1(30) . . .
35.7(33) . . .
36.9(34) . . .
35.0(31) . . .
32.3(30) . . .
47(4) . . .
29.3(29) . . .
41(4) . . .
36.9(32) . . .
45(4) . . .
42.3(35) . . .
28.8(28) . . .
41(4) . . .
52(4) . . .
33.9(30) . . .
41.5(34) . . .
28.6(27) . . .
40(4) . . .
45(4) . . .
45(4) . . .
42.9(35) . . .
41.7(34) . . .
35.4(32) . . .
46(4) . . .
42.9(34) . . .
43(4) . . .
39.6(33) . . .
43(4) . . .
32.1(30) . . .
39.1(33) . . .
46(4) . . .
48(4) . . .
50(4) . . .
40.0(34) . . .
47(4) . . .
41.6(35) . . .
41.9(34) . . .
36.5(31) . . .
49(4) . . .
48(4) . . .
36.0(32) . . .
37.5(33) . . .
42(4) . . .
43.4(35) . . .
40.7(33) . . .
46(4) . . .
51(4) . . .
39.3(33) . . .
39.2(32) . . .
45(4) . . .
35.9(31) . . .
40(4) . . .
40.0(34) . . .
39.4(33) . . .
37.4(32) . . .
44(4) . . .
42(4) . . .
31.1(30) . . .
35.7(32) . . .
41.9(34) . . .
41(4) . . .
38.5(34) . . .
35.7(31) . . .
38.9(33) . . .
39.5(33) . . .
37.2(35) . . .
32.3(32) . . .
44(4) . . .
36.4(31) . . .
37.2(33) . . .
31.2(30) . . .
36.1(33) . . .
40.0(34) . . .
43.9(34) . . .
40.5(35) . . .
40(4) . . .
43(4) . . .
41.0(34) . . .
40.3(32) . . .
41.6(34) . . .
40.0(34) . . .
44(4) . . .
39.0(32) . . .
35.4(31) . . .
47(4) . . .
32.6(31) . . .
35.7(31) . . .
43.9(35) . . .
40.5(33) . . .
40.4(34) . . .
45(4) . . .
42.3(35) . . .
40.9(33) . . .
45.1(35) . . .
43(4) . . .
43(4) . . .
39.5(35) . . .
43.0(34) . . .
34.4(31) . . .
44(4) . . .
36.0(32) . . .
48(4) . . .
40.0(33) . . .
40.3(33) . . .
45(4) . . .
47(4) . . .
42.7(35) . . .
37.4(33) . . .
37.5(32) . . .
38.7(34) . . .
31.3(31) . . .
38.1(33) . . .
40.2(33) . . .
47(4) . . .
37.1(31) . . .
42(4) . . .
38.3(33) . . .
36.2(31) . . .
39.3(34) . . .
46(4) . . .
41(4) . . .
44(4) . . .
37.3(33) . . .
44(4) . . .
38.9(33) . . .
40.2(35) . . .
30.0(30) . . .
33.7(30) . . .
35.2(31) . . .
35.8(31) . . .
43(4) . . .
37.8(32) . . .
38.9(32) . . .
35.1(35) . . .
34.2(33) . . .
39.3(34) . . .
47(4) . . .
38.8(32) . . .
34.5(31) . . .
43(4) . . .
37.6(34) . . .
36.5(31) . . .
42.0(34) . . .
37.3(32) . . .
45(4) . . .
42.8(35) . . .
41.6(34) . . .
37.7(32) . . .
41.4(34) . . .
45(4) . . .
40.9(35) . . .
37.6(33) . . .
40.1(33) . . .
38.1(34) . . .
39.0(35) . . .
38.7(34) . . .
47(4) . . .
49(4) . . .
49(4) . . .
31.5(31) . . .
35.7(31) . . .
40.6(33) . . .
47(4) . . .
46(4) . . .
43.1(35) . . .
37.5(33) . . .
41.8(34) . . .
42.6(34) . . .
49(4) . . .
53(4) . . .
32.3(30) . . .
38.2(32) . . .
41(4) . . .
36.0(34) . . .
31.8(31) . . .
34.5(34) . . .
40.8(33) . . .
44(4) . . .
35.2(33) . . .
38.7(35) . . .
50(4) . . .
47(4) . . .
45(4) . . .
36.4(32) . . .
40.5(34) . . .
35.8(34) . . .
43.2(34) . . .
36(4) . . .
36.9(34) . . .
37.9(31) . . .
41.5(34) . . .
25.1(27) . . .
41(4) . . .
35.1(32) . . .
42.0(34) . . .
34.1(31) . . .
34.3(30) . . .
37.1(32) . . .
39.0(35) . . .
39(4) . . .
43.7(35) . . .
50(4) . . .
37.2(33) . . .
44(4) . . .
38.1(33) . . .
44.6(34) . . .
39.5(33) . . .
38.9(35) . . .
34.9(32) . . .
34.8(30) . . .
40.5(33) . . .
48(4) . . .
43.9(34) . . .
44(4) . . .
39.4(34) . . .
43.8(34) . . .
32.3(30) . . .
47(4) . . .
41(4) . . .
30.3(30) . . .
39.9(34) . . .
32.1(30) . . .
43(4) . . .
37.4(32) . . .
38.3(32) . . .
42.0(34) . . .
45.0(35) . . .
40.6(34) . . .
35.1(33) . . .
45(4) . . .
38.7(32) . . .
42(4) . . .
51(4) . . .
39.3(33) . . .
38.0(32) . . .
42.5(34) . . .
32.8(30) . . .
36.5(32) . . .
33.3(29) . . .
37.0(31) . . .
39.1(32) . . .
47(4) . . .
39.6(35) . . .
40(4) . . .
32.1(30) . . .
43.2(34) . . .
34.3(32) . . .
38.7(34) . . .
49(4) . . .
44(4) . . .
38.2(33) . . .
38.3(34) . . .
44(4) . . .
31.8(29) . . .
46(4) . . .
32.7(29) . . .
41.5(35) . . .
43.4(34) . . .
45(4) . . .
42.0(34) . . .
38.7(33) . . .
54(4) . . .
34.1(32) . . .
46(4) . . .
48(4) . . .
44.2(35) . . .
46(4) . . .
36.8(35) . . .
33.5(32) . . .
37.2(32) . . .
39.5(34) . . .
31.3(29) . . .
42.0(35) . . .
46(4) . . .
42.7(34) . . .
43.3(35) . . .
43(4) . . .
38.4(34) . . .
35.7(31) . . .
39.6(33) . . .
39.5(33) . . .
39.4(35) . . .
51(4) . . .
43.0(34) . . .
29.7(29) . . .
42(4) . . .
40.7(34) . . .
41(4) . . .
29.1(28) . . .
41.5(34) . . .
41.5(33) . . .
44(4) . . .
39.7(33) . . .
50(4) . . .
43.5(34) . . .
36.8(34) . . .
35.1(33) . . .
42(4) . . .
37.4(32) . . .
39.2(32) . . .
33.5(30) . . .
34.9(33) . . .
35.8(32) . . .
40.7(33) . . .
42.8(34) . . .
34.2(32) . . .
40(4) . . .
39.0(34) . . .
48(4) . . .
41.6(34) . . .
32.0(31) . . .
42(4) . . .
39.5(34) . . .
34.4(31) . . .
42.2(34) . . .
38.5(34) . . .
33.7(31) . . .
36.6(33) . . .
41.3(34) . . .
47(4) . . .
40(4) . . .
39.1(35) . . .
39.0(32) . . .
42.0(33) . . .
36.9(32) . . .
35.5(32) . . .
37.4(35) . . .
37.2(34) . . .
45.0(35) . . .
41.2(33) . . .
49(4) . . .
36.7(32) . . .
37.6(32) . . .
34.4(31) . . .
37.4(34) . . .
35.4(33) . . .
35.3(33) . . .
35.5(33) . . .
45.6(35) . . .
42.0(33) . . .
47(4) . . .
47(4) . . .
43.0(34) . . .
49(4) . . .
46(4) . . .
48(4) . . .
30.3(28) . . .
35.9(31) . . .
36.4(31) . . .
40.9(34) . . .
39.6(34) . . .
37.0(33) . . .
35.3(31) . . .
34.5(31) . . .
37.9(33) . . .
38.4(34) . . .
41(4) . . .
44.5(35) . . .
41.7(34) . . .
37.4(32) . . .
39(4) . . .
38.6(34) . . .
42.9(34) . . .
41.4(33) . . .
42.7(35) . . .
35.4(31) . . .
43.2(34) . . .
42.9(34) . . .
39.9(35) . . .
38.9(34) . . .
41.8(34) . . .
36.4(31) . . .
43.7(34) . . .
35.2(32) . . .
45(4) . . .
44(4) . . .
47(4) . . .
37.6(32) . . .
49(4) . . .
34.5(31) . . .
37.3(32) . . .
38.3(32) . . .
51(4) . . .
46(4) . . .
46(4) . . .
39.5(33) . . .
47(4) . . .
50(4) . . .
29.1(29) . . .
46(4) . . .
35.7(32) . . .
33.0(30) . . .
42.1(34) . . .
36.3(34) . . .
41(4) . . .
32.2(31) . . .
37.5(34) . . .
30.8(28) . . .
36.1(33) . . .
38.4(35) . . .
41(4) . . .
37.6(33) . . .
44(4) . . .
44(4) . . .
35.9(31) . . .
39.6(32) . . .
39.1(33) . . .
39.1(33) . . .
33.2(32) . . .
37.2(34) . . .
37.7(33) . . .
33.5(30) . . .
37.7(32) . . .
39.1(34) . . .
37.8(34) . . .
41.7(34) . . .
41.0(34) . . .
44(4) . . .
43.8(35) . . .
27.9(27) . . .
34.5(32) . . .
31.5(30) . . .
44(4) . . .
35.7(33) . . .
33.4(30) . . .
52(4) . . .
46(4) . . .
37.0(34) . . .
36.6(34) . . .
36.2(34) . . .
42(4) . . .
43.4(34) . . .
36(4) . . .
29.7(29) . . .
41.4(34) . . .
36.9(33) . . .
48(4) . . .
40.0(34) . . .
47(4) . . .
52(4) . . .
34.1(31) . . .
35.1(31) . . .
42.7(34) . . .
47(4) . . .
46(4) . . .
33.2(30) . . .
42.3(34) . . .
40.4(33) . . .
43(4) . . .
41.3(34) . . .
40.8(34) . . .
48(4) . . .
51(4) . . .
36.7(34) . . .
39.2(33) . . .
48(4) . . .
30.9(29) . . .
37.7(32) . . .
45(4) . . .
34.1(33) . . .
45.0(35) . . .
48(4) . . .
49(4) . . .
37.8(35) . . .
34.9(32) . . .
51(4) . . .
37.6(33) . . .
41.8(33) . . .
53(4) . . .
38.3(32) . . .
34.7(30) . . .
51(4) . . .
43(4) . . .
39(4) . . .
40(4) . . .
38.6(32) . . .
44.6(35) . . .
42(4) . . .
42(4) . . .
48(4) . . .
46(4) . . .
45(4) . . .
34.4(31) . . .
52(4) . . .
46(4) . . .
41.7(33) . . .
38(4) . . .
33.3(31) . . .
39.2(34) . . .
36.9(32) . . .
48(4) . . .
43(4) . . .
42(4) . . .
47(4) . . .
43.6(35) . . .
37.6(32) . . .
43(4) . . .
43(4) . . .
47(4) . . .
40.0(33) . . .
38.6(32) . . .
33.3(33) . . .
34.3(33) . . .
40.3(35) . . .
37.2(31) . . .
46(4) . . .
32.8(30) . . .
36.9(34) . . .
35.9(32) . . .
45.8(35) . . .
39.9(33) . . .
44(4) . . .
39.5(34) . . .
41.8(35) . . .
45.7(35) . . .
43.5(35) . . .
43.0(34) . . .
40.4(33) . . .
43(4) . . .
37.1(32) . . .
43.5(35) . . .
39.0(33) . . .
40.6(34) . . .
37.9(34) . . .
47(4) . . .
38.8(33) . . .
38.8(34) . . .
39(4) . . .
33.2(31) . . .
44.3(35) . . .
39.3(34) . . .
30.1(30) . . .
41(4) . . .
38.6(34) . . .
35.4(31) . . .
44(4) . . .
37.5(34) . . .
43.3(35) . . .
44(4) . . .
36.9(31) . . .
35.3(32) . . .
43(4) . . .
35.3(33) . . .
37.3(33) . . .
43(4) . . .
39.7(33) . . .
44(4) . . .
32.6(30) . . .
39.1(34) . . .
45.0(35) . . .
48(4) . . .
42(4) . . .
42.0(35) . . .
34.3(30) . . .
41.8(34) . . .
39(4) . . .
45(4) . . .
41.9(34) . . .
42.7(34) . . .
47(4) . . .
45(4) . . .
34.6(35) . . .
36.8(33) . . .
38.5(32) . . .
37.0(32) . . .
33.2(29) . . .
39.1(35) . . .
35.4(31) . . .
38.4(33) . . .
41.7(34) . . .
41.0(34) . . .
40.2(34) . . .
48(4) . . .
55(4) . . .
46(4) . . .
37.2(34) . . .
48(4) . . .
33.1(31) . . .
37.3(32) . . .
36.8(33) . . .
32.0(31) . . .
38.0(32) . . .
41.8(34) . . .
40.7(33) . . .
36.7(33) . . .
39.4(34) . . .
36.4(31) . . .
42.3(35) . . .
34.9(31) . . .
37.6(34) . . .
31.9(31) . . .
38.3(32) . . .
42.7(34) . . .
45.1(35) . . .
38.9(34) . . .
40(4) . . .
36.7(34) . . .
37.5(32) . . .
42.7(35) . . .
39.7(35) . . .
40(4) . . .
39.1(33) . . .
36.8(31) . . .
37.8(33) . . .
35.5(32) . . .
39(4) . . .
36.6(33) . . .
42.5(34) . . .
41.1(33) . . .
46(4) . . .
30.5(31) . . .
36.2(32) . . .
36.6(31) . . .
46(4) . . .
50(4) . . .
43(4) . . .
28.2(28) . . .
41.5(34) . . .
29.4(28) . . .
34.5(32) . . .
37.9(34) . . .
47(4) . . .
44.5(34) . . .
42.4(34) . . .
33.8(31) . . .
26.8(28) . . .
39.5(34) . . .
36.2(31) . . .
38.3(32) . . .
45(4) . . .
35.5(32) . . .
38.7(33) . . .
33.8(30) . . .
40.4(35) . . .
31.8(32) . . .
40.2(35) . . .
36.5(32) . . .
36.7(32) . . .
30.1(29) . . .
47(4) . . .
32.1(30) . . .
42(4) . . .
41.9(34) . . .
35.1(33) . . .
36.5(33) . . .
40(4) . . .
34.0(30) . . .
30.6(30) . . .
41.6(35) . . .
38.1(34) . . .
41.4(35) . . .
40.9(33) . . .
40.0(33) . . .
36.8(33) . . .
38(4) . . .
41(4) . . .
36.7(32) . . .
42.1(33) . . .
39.8(35) . . .
43(4) . . .
45(4) . . .
40.9(33) . . .
46(4) . . .
38.1(34) . . .
45(4) . . .
40.1(34) . . .
34.5(30) . . .
39.7(33) . . .
43.1(35) . . .
46(4) . . .
37.0(34) . . .
37.2(32) . . .
38.0(32) . . .
38.5(33) . . .
43(4) . . .
51(4) . . .
39.0(32) . . .
40.4(34) . . .
30.7(30) . . .
40.3(35) . . .
42.1(34) . . .
39.0(32) . . .
43(4) . . .
42(4) . . .
41(4) . . .
36.0(32) . . .
48(4) . . .
32.8(34) . . .
33.9(30) . . .
45(4) . . .
34.1(30) . . .
41.7(34) . . .
42.5(34) . . .
42(4) . . .
46(4) . . .
47(4) . . .
41.3(33) . . .
37.4(31) . . .
36.0(31) . . .
42(4) . . .
49(4) . . .
36.4(31) . . .
43(4) . . .
34.9(33) . . .
34.1(30) . . .
36.1(31) . . .
45(4) . . .
39.7(34) . . .
37.1(34) . . .
48(4) . . .
44.6(35) . . .
38.5(32) . . .
49(4) . . .
42(4) . . .
43(4) . . .
39.1(32) . . .
37.2(32) . . .
41.2(34) . . .
36.5(34) . . .
35.2(33) . . .
43.3(35) . . .
41.9(35) . . .
34.9(32) . . .
39.7(34) . . .
41(4) . . .
41.5(34) . . .
40.2(33) . . .
39.8(34) . . .
41(4) . . .
43(4) . . .
43.0(34) . . .
29.0(29) . . .
31.8(30) . . .
39.5(34) . . .
42.3(34) . . .
35.5(31) . . .
41.8(35) . . .
45(4) . . .
29.2(28) . . .
37.5(33) . . .
48(4) . . .
41(4) . . .
36.1(33) . . .
41(4) . . .
30.3(29) . . .
44.7(34) . . .
46(4) . . .
42.2(35) . . .
34.0(32) . . .
42(4) . . .
37.6(31) . . .
47(4) . . .
37.4(35) . . .
32.1(31) . . .
40.5(34) . . .
37.3(32) . . .
49(4) . . .
37.1(33) . . .
42.0(34) . . .
32.4(29) . . .
38.0(33) . . .
32.7(30) . . .
33.0(34) . . .
38(4) . . .
39.7(32) . . .
48(4) . . .
41(4) . . .
45(4) . . .
43(4) . . .
37.0(33) . . .
40.8(33) . . .
36.8(32) . . .
40(4) . . .
37.7(32) . . .
51(4) . . .
38.6(32) . . .
40.6(34) . . .
36.9(31) . . .
47(4) . . .
38.7(33) . . .
41(4) . . .
39.0(33) . . .
38.3(34) . . .
45(4) . . .
43.5(34) . . .
42(4) . . .
36.5(33) . . .
33.5(31) . . .
36.2(32) . . .
40.5(33) . . .
37.9(32) . . .
41.8(35) . . .
42(4) . . .
48(4) . . .
35.6(31) . . .
47(4) . . .
37.7(34) . . .
31.5(31) . . .
36.8(32) . . .
44.9(35) . . .
41.5(34) . . .
33.8(31) . . .
41.6(34) . . .
47(4) . . .
46(4) . . .
47(4) . . .
43(4) . . .
39.0(34) . . .
28.0(27) . . .
41.8(34) . . .
37.1(33) . . .
37.3(35) . . .
36.0(33) . . .
42.7(34) . . .
34.5(32) . . .
32.6(30) . . .
30.1(31) . . .
26.0(29) . . .
38.3(32) . . .
35.0(32) . . .
35.1(33) . . .
35.7(32) . . .
37.4(34) . . .
38.5(33) . . .
32.3(29) . . .
33.2(31) . . .
33.7(31) . . .
35.0(31) . . .
37.6(32) . . .
38.7(34) . . .
46(4) . . .
34.6(31) . . .
38.3(32) . . .
43.8(34) . . .
44(4) . . .
50(4) . . .
32.4(29) . . .
39.2(33) . . .
45.1(35) . . .
38.4(33) . . .
44(4) . . .
36.9(32) . . .
39.7(33) . . .
40.5(33) . . .
43.1(35) . . .
48(4) . . .
43(4) . . .
37.5(32) . . .
43.3(34) . . .
38.6(33) . . .
37.3(33) . . .
43(4) . . .
45.7(35) . . .
46(4) . . .
44(4) . . .
46(4) . . .
40.8(34) . . .
44.6(35) . . .
47(4) . . .
31.6(28) . . .
49(4) . . .
43.1(35) . . .
35.7(32) . . .
38.5(34) . . .
34.8(31) . . .
42(4) . . .
42(4) . . .
33.8(30) . . .
37.2(33) . . .
35.6(32) . . .
34.1(33) . . .
38.3(33) . . .
38.3(32) . . .
38.5(33) . . .
40.6(35) . . .
35.4(33) . . .
27.3(27) . . .
38.3(32) . . .
50(4) . . .
36.9(32) . . .
38.2(34) . . .
42(4) . . .
33.2(29) . . .
32.9(30) . . .
33.4(31) . . .
29.8(29) . . .
37.8(32) . . .
39.0(33) . . .
36.1(32) . . .
39.7(34) . . .
43(4) . . .
42.8(35) . . .
39.2(32) . . .
40.4(34) . . .
35.4(33) . . .
38.8(34) . . .
43(4) . . .
32.0(29) . . .
33.5(31) . . .
34.4(32) . . .
39.5(33) . . .
46(4) . . .
31.3(29) . . .
39.2(34) . . .
34.9(32) . . .
35.0(31) . . .
45(4) . . .
39.0(33) . . .
41.9(34) . . .
36.2(33) . . .
37.6(32) . . .
40.6(33) . . .
43.1(34) . . .
40.2(33) . . .
44(4) . . .
44(4) . . .
40.0(33) . . .
35.7(31) . . .
34.8(33) . . .
36(4) . . .
34.7(31) . . .
39.0(33) . . .
40.4(33) . . .
40.4(34) . . .
43(4) . . .
45(4) . . .
34.9(31) . . .
45(4) . . .
41.3(34) . . .
42.4(34) . . .
43(4) . . .
39.8(33) . . .
49(4) . . .
51(4) . . .
37.4(35) . . .
37.8(32) . . .
41.7(34) . . .
37.7(33) . . .
43(4) . . .
34.1(32) . . .
40.0(34) . . .
46(4) . . .
46(4) . . .
51(4) . . .
43.8(35) . . .
43(4) . . .
43.2(35) . . .
46(4) . . .
39(4) . . .
36.0(33) . . .
42(4) . . .
40.2(33) . . .
34.5(32) . . .
42(4) . . .
41.1(34) . . .
40.5(34) . . .
34.6(30) . . .
33.5(32) . . .
40(4) . . .
40(4) . . .
43.1(34) . . .
38.4(33) . . .
37.6(34) . . .
38.4(35) . . .
33.5(31) . . .
40.5(33) . . .
43.5(35) . . .
43(4) . . .
40(4) . . .
28.9(32) . . .
35.3(31) . . .
47(4) . . .
42(4) . . .
29.9(30) . . .
37.1(33) . . .
38.1(32) . . .
40.3(34) . . .
42.5(35) . . .
34.8(30) . . .
34.0(31) . . .
34.6(31) . . .
39.0(33) . . .
38.6(33) . . .
43(4) . . .
38.5(33) . . .
47(4) . . .
43.3(35) . . .
44(4) . . .
37.6(34) . . .
37.1(32) . . .
36.3(32) . . .
28.5(28) . . .
37.9(34) . . .
40.8(35) . . .
39.1(33) . . .
43.9(34) . . .
40(4) . . .
35.5(31) . . .
41.4(34) . . .
33.3(31) . . .
30.1(28) . . .
38.5(33) . . .
39.8(34) . . .
41(4) . . .
38.1(33) . . .
39.6(33) . . .
44(4) . . .
40.2(35) . . .
43(4) . . .
43.6(35) . . .
35.1(31) . . .
38.9(32) . . .
39(4) . . .
38.2(33) . . .
41.3(34) . . .
39.9(33) . . .
38.5(33) . . .
41.1(35) . . .
35.1(31) . . .
37.0(32) . . .
41.8(34) . . .
33.9(31) . . .
29.3(30) . . .
33.8(33) . . .
33.5(30) . . .
31.0(29) . . .
36.3(31) . . .
48(4) . . .
45(4) . . .
37.7(32) . . .
42.1(34) . . .
38.3(34) . . .
38.1(35) . . .
43(4) . . .
42.1(34) . . .
38.3(33) . . .
36.4(35) . . .
40.1(35) . . .
40.6(33) . . .
33.3(30) . . .
34.5(31) . . .
36.9(32) . . .
43(4) . . .
42(4) . . .
48(4) . . .
35.1(35) . . .
36.6(33) . . .
39.6(33) . . .
33.8(29) . . .
54(4) . . .
42.0(35) . . .
35.4(35) . . .
30.8(30) . . .
42.2(33) . . .
37.9(33) . . .
49(4) . . .
45(4) . . .
39.7(35) . . .
39.1(33) . . .
38.1(33) . . .
43.4(35) . . .
34.8(32) . . .
38.0(33) . . .
31.0(29) . . .
45(4) . . .
52(4) . . .
39.8(35) . . .
36.3(33) . . .
41.6(34) . . .
37.3(32) . . .
38.2(34) . . .
30.6(30) . . .
33.8(31) . . .
47(4) . . .
47(4) . . .
44(4) . . .
46(4) . . .
48(4) . . .
51(4) . . .
33.9(31) . . .
41(4) . . .
30.7(29) . . .
36.6(33) . . .
41.5(34) . . .
34.0(33) . . .
39(4) . . .
42(4) . . .
35.3(31) . . .
39.6(33) . . .
38.8(32) . . .
40.6(34) . . .
37.3(32) . . .
39.1(34) . . .
34.1(31) . . .
37.0(35) . . .
45(4) . . .
37.0(32) . . .
37.4(32) . . .
55(4) . . .
36.5(32) . . .
36.0(32) . . .
40.3(33) . . .
43(4) . . .
36.8(32) . . .
22.9(25) . . .
35.3(34) . . .
36.8(33) . . .
42(4) . . .
39.8(33) . . .
40.0(34) . . .
40(4) . . .
39.0(34) . . .
39.9(34) . . .
47(4) . . .
48(4) . . .
41.5(35) . . .
46(4) . . .
34.7(31) . . .
41.3(34) . . .
39.4(33) . . .
36.7(31) . . .
44(4) . . .
46(4) . . .
49(4) . . .
42.2(35) . . .
36.1(32) . . .
35.0(31) . . .
41.5(33) . . .
39.8(34) . . .
43(4) . . .
37.7(34) . . .
38.6(33) . . .
35.2(31) . . .
36.1(31) . . .
30.8(30) . . .
23.3(26) . . .
36.1(33) . . .
38.9(33) . . .
39.2(35) . . .
33.0(31) . . .
40.6(34) . . .
41.7(34) . . .
46(4) . . .
38.8(34) . . .
32.8(30) . . .
38.4(32) . . .
42.4(35) . . .
44.3(35) . . .
34.7(31) . . .
32.4(33) . . .
39(4) . . .
29.2(28) . . .
42.8(34) . . .
35.7(32) . . .
45(4) . . .
41(4) . . .
38.4(34) . . .
33.8(30) . . .
35.9(32) . . .
39(4) . . .
39.2(34) . . .
41.0(33) . . .
36.0(32) . . .
44(4) . . .
36.0(35) . . .
40(4) . . .
34.1(31) . . .
44(4) . . .
42(4) . . .
37.4(34) . . .
40.6(34) . . .
39.7(33) . . .
29.5(29) . . .
38.0(33) . . .
30.7(30) . . .
30.6(29) . . .
52(4) . . .
46(4) . . .
37.4(33) . . .
33.8(31) . . .
28.1(29) . . .
38.3(33) . . .
42.6(34) . . .
38.7(33) . . .
45(4) . . .
46(4) . . .
48(4) . . .
35.8(31) . . .
36.0(31) . . .
40.1(34) . . .
39.5(33) . . .
30.5(30) . . .
37.7(32) . . .
40.3(34) . . .
43(4) . . .
30.4(31) . . .
37.6(32) . . .
36.0(32) . . .
36.5(31) . . .
47(4) . . .
40.5(34) . . .
34.7(31) . . .
42.0(35) . . .
40.2(34) . . .
37.5(32) . . .
38.3(33) . . .
38.6(32) . . .
35.9(34) . . .
43(4) . . .
41.8(35) . . .
42.3(34) . . .
43.7(35) . . .
50(4) . . .
39.5(34) . . .
38.5(33) . . .
40.8(33) . . .
37.5(32) . . .
35.2(33) . . .
34.8(33) . . .
39.2(34) . . .
31.9(30) . . .
38.2(32) . . .
34.4(31) . . .
39.8(35) . . .
42.3(35) . . .
34.2(30) . . .
30.9(29) . . .
37.3(34) . . .
37.2(33) . . .
32.5(31) . . .
39.7(34) . . .
36.1(33) . . .
37.0(32) . . .
30.1(28) . . .
36.6(32) . . .
46(4) . . .
40.4(33) . . .
43(4) . . .
34.8(31) . . .
38.8(32) . . .
49(4) . . .
39.7(33) . . .
36.6(33) . . .
46(4) . . .
31.5(29) . . .
40.9(33) . . .
55(4) . . .
33.0(33) . . .
32.2(34) . . .
33.5(31) . . .
43.6(35) . . .
34.1(31) . . .
31.1(31) . . .
32.7(30) . . .
27.9(27) . . .
33.6(30) . . .
34.8(31) . . .
32.5(31) . . .
38.5(34) . . .
38.1(33) . . .
33.4(30) . . .
38.1(33) . . .
40(4) . . .
42(4) . . .
33.0(30) . . .
36.9(32) . . .
40.3(34) . . .
37.1(35) . . .
30.5(29) . . .
34.7(31) . . .
43(4) . . .
35.7(32) . . .
40.5(34) . . .
44.6(35) . . .
43.1(34) . . .
28.7(29) . . .
43(4) . . .
35.3(33) . . .
40.1(34) . . .
34.0(30) . . .
34.3(31) . . .
42(4) . . .
34.2(30) . . .
45(4) . . .
34.5(31) . . .
38.0(33) . . .
34.3(31) . . .
36.4(31) . . .
33.9(31) . . .
42.2(34) . . .
38.3(34) . . .
34.6(33) . . .
35.7(32) . . .
38.0(31) . . .
36.7(31) . . .
39.5(34) . . .
39(4) . . .
30.9(30) . . .
41.3(33) . . .
31.8(30) . . .
41(4) . . .
37.8(34) . . .
41.4(34) . . .
34.0(30) . . .
37.5(32) . . .
35.6(32) . . .
36.9(32) . . .
47(4) . . .
34.0(30) . . .
40.7(33) . . .
34.5(31) . . .
37.8(34) . . .
36.5(32) . . .
32.5(30) . . .
40.6(33) . . .
46(4) . . .
44(4) . . .
42(4) . . .
37.8(32) . . .
40.7(33) . . .
51(4) . . .
42(4) . . .
36.3(31) . . .
47(4) . . .
47(4) . . .
29.9(28) . . .
34.4(34) . . .
35.6(32) . . .
37.3(32) . . .
41.2(34) . . .
39.6(34) . . .
38.6(32) . . .
36.9(31) . . .
39.1(33) . . .
35.7(32) . . .
41(4) . . .
47(4) . . .
43.3(35) . . .
40.8(33) . . .
33.8(31) . . .
37.0(33) . . .
45(4) . . .
39.8(32) . . .
40.1(33) . . .
36.3(33) . . .
37.0(33) . . .
42.9(35) . . .
40.1(34) . . .
51(4) . . .
31.1(29) . . .
42(4) . . .
41(4) . . .
31.8(30) . . .
42.0(34) . . .
36.8(33) . . .
33.8(32) . . .
40.5(35) . . .
33.2(30) . . .
40.5(33) . . .
40.5(35) . . .
36.1(32) . . .
46(4) . . .
36.8(31) . . .
41.4(33) . . .
37.2(33) . . .
35.1(35) . . .
37.4(33) . . .
38.7(32) . . .
51(4) . . .
36.9(32) . . .
34.7(33) . . .
44(4) . . .
40.1(33) . . .
44(4) . . .
41.6(35) . . .
40(4) . . .
38.9(33) . . .
35.6(31) . . .
41.2(34) . . .
37.2(34) . . .
33.0(31) . . .
43(4) . . .
34.8(31) . . .
34.7(31) . . .
39.7(34) . . .
46(4) . . .
31.0(29) . . .
38.3(32) . . .
37.5(33) . . .
40.1(34) . . .
48(4) . . .
39.2(33) . . .
37.3(32) . . .
41(4) . . .
40.4(34) . . .
38.5(32) . . .
43.5(35) . . .
38.3(32) . . .
38.2(33) . . .
27.8(27) . . .
39.0(34) . . .
40.4(34) . . .
38.4(32) . . .
39.8(34) . . .
38.3(35) . . .
42.9(34) . . .
39.0(32) . . .
40.1(35) . . .
42.1(35) . . .
45(4) . . .
40.1(34) . . .
40.5(32) . . .
34.5(32) . . .
41.0(34) . . .
45(4) . . .
37.4(33) . . .
33.7(30) . . .
38.5(33) . . .
39.0(35) . . .
38.8(35) . . .
37.4(33) . . .
35.6(31) . . .
30.0(29) . . .
40.3(33) . . .
50(4) . . .
48(4) . . .
37.0(31) . . .
40.3(35) . . .
38.0(32) . . .
48(4) . . .
38.6(34) . . .
36.5(32) . . .
41.9(35) . . .
36.9(31) . . .
37.6(33) . . .
41.1(35) . . .
43.2(35) . . .
43(4) . . .
42(4) . . .
41.5(34) . . .
39.8(34) . . .
45.8(35) . . .
40.1(35) . . .
33.6(33) . . .
28.7(28) . . .
50(4) . . .
38.0(32) . . .
37.2(32) . . .
44(4) . . .
38.6(35) . . .
32.4(30) . . .
33.4(31) . . .
34.8(31) . . .
35.2(32) . . .
42(4) . . .
41.1(33) . . .
36.8(32) . . .
38.4(34) . . .
41(4) . . .
31.1(29) . . .
54(4) . . .
38.8(32) . . .
40.6(34) . . .
39.3(35) . . .
47(4) . . .
41.9(34) . . .
33.9(32) . . .
33.0(32) . . .
41(4) . . .
33.6(31) . . .
46(4) . . .
41.9(34) . . .
39.1(33) . . .
36.2(34) . . .
34.7(32) . . .
41.3(33) . . .
38.1(32) . . .
41.1(33) . . .
50(4) . . .
33.0(31) . . .
39.8(32) . . .
34.3(31) . . .
35.7(33) . . .
37.2(33) . . .
35.0(32) . . .
41.5(33) . . .
33.1(31) . . .
39(4) . . .
44(4) . . .
30.7(30) . . .
44.4(34) . . .
44(4) . . .
36.1(32) . . .
38.4(33) . . .
39.6(33) . . .
39.4(32) . . .
30.7(29) . . .
36.8(33) . . .
43(4) . . .
35.3(31) . . .
41.5(33) . . .
35.7(32) . . .
48(4) . . .
42(4) . . .
37.1(31) . . .
51(4) . . .
37.1(32) . . .
35.3(31) . . .
36.6(32) . . .
36.4(31) . . .
35.5(31) . . .
40.2(34) . . .
33.9(32) . . .
37.7(33) . . .
39.5(33) . . .
28.8(28) . . .
31.3(29) . . .
39.9(35) . . .
45(4) . . .
39.2(32) . . .
32.8(29) . . .
35.7(32) . . .
43(4) . . .
29.0(28) . . .
36.1(32) . . .
33.2(30) . . .
40.5(34) . . .
32.9(31) . . .
39.4(34) . . .
41.0(34) . . .
29.3(28) . . .
35.4(31) . . .
45(4) . . .
45(4) . . .
33.9(31) . . .
50(4) . . .
32.0(29) . . .
35.0(32) . . .
35.5(31) . . .
47(4) . . .
53(4) . . .
37.5(32) . . .
47(4) . . .
51(4) . . .
33.2(30) . . .
34.7(32) . . .
47(4) . . .
45(4) . . .
34.3(31) . . .
44.5(34) . . .
39.7(33) . . .
31.8(32) . . .
34.2(34) . . .
38.0(33) . . .
40.0(33) . . .
45(4) . . .
38.3(34) . . .
35.1(31) . . .
39.6(33) . . .
39.6(33) . . .
44(4) . . .
42(4) . . .
34.8(32) . . .
39.7(34) . . .
35.1(31) . . .
32.7(30) . . .
40.2(34) . . .
43(4) . . .
43.4(34) . . .
49(4) . . .
33.1(31) . . .
39.3(34) . . .
39.7(33) . . .
44.0(34) . . .
33.4(31) . . .
37.8(32) . . .
46(4) . . .
39.4(33) . . .
33.7(30) . . .
39.0(33) . . .
38.3(34) . . .
43(4) . . .
42(4) . . .
34.5(31) . . .
44(4) . . .
38.9(33) . . .
41.8(33) . . .
43.4(34) . . .
40.9(34) . . .
37.3(33) . . .
47(4) . . .
36.2(32) . . .
46(4) . . .
38.4(33) . . .
40.2(34) . . .
28.2(28) . . .
31.1(29) . . .
36.1(34) . . .
44.9(35) . . .
37.1(33) . . .
31.6(32) . . .
35.8(32) . . .
34.8(32) . . .
39.9(33) . . .
46(4) . . .
35.1(33) . . .
39.5(35) . . .
45.0(35) . . .
43.5(34) . . .
36.8(32) . . .
44(4) . . .
31.0(33) . . .
35.5(33) . . .
30.6(29) . . .
37.8(33) . . .
41(4) . . .
43(4) . . .
29.1(28) . . .
41.8(35) . . .
46(4) . . .
44(4) . . .
52(4) . . .
38.1(32) . . .
36.8(32) . . .
39.9(34) . . .
49(4) . . .
43.6(35) . . .
34.0(30) . . .
32.2(31) . . .
44(4) . . .
34.7(32) . . .
43.3(35) . . .
39.4(32) . . .
36.2(31) . . .
47(4) . . .
42.3(34) . . .
35.2(32) . . .
38.7(32) . . .
46(4) . . .
44(4) . . .
37.7(35) . . .
44(4) . . .
46(4) . . .
34.2(31) . . .
37.3(33) . . .
48(4) . . .
41.7(34) . . .
50(4) . . .
42.2(35) . . .
35.6(34) . . .
46(4) . . .
36.0(30) . . .
34.5(32) . . .
34.5(31) . . .
35.6(34) . . .
42(4) . . .
35.4(31) . . .
26.5(27) . . .
36.8(33) . . .
48(4) . . .
34.7(30) . . .
41.2(33) . . .
43.6(34) . . .
35.2(31) . . .
38.8(34) . . .
38.6(32) . . .
36.9(32) . . .
45(4) . . .
35.7(32) . . .
37.2(35) . . .
33.5(31) . . .
46(4) . . .
37.8(32) . . .
40.3(33) . . .
48(4) . . .
48(4) . . .
35.4(31) . . .
36.3(31) . . .
27.9(28) . . .
38.0(35) . . .
45(4) . . .
40.9(34) . . .
37.3(31) . . .
34.8(33) . . .
32.5(33) . . .
39.2(34) . . .
40.3(33) . . .
42.0(33) . . .
45(4) . . .
28.1(27) . . .
40.8(34) . . .
43.8(34) . . .
37.8(32) . . .
38.9(34) . . .
43(4) . . .
38.1(33) . . .
34.4(31) . . .
36.7(34) . . .
38.9(35) . . .
40.9(33) . . .
52(4) . . .
37.5(32) . . .
26.5(27) . . .
43(4) . . .
36.1(31) . . .
36.9(32) . . .
32.1(29) . . .
37.9(34) . . .
39.2(35) . . .
42(4) . . .
35.2(32) . . .
32.0(29) . . .
38.9(34) . . .
41(4) . . .
42.6(34) . . .
42.8(34) . . .
34.0(30) . . .
38.4(33) . . .
36.4(34) . . .
33.6(30) . . .
34.9(31) . . .
38.5(32) . . .
38.5(33) . . .
36.6(33) . . .
36.3(33) . . .
36.2(31) . . .
26.0(28) . . .
27.3(29) . . .
39.8(35) . . .
36.7(34) . . .
23.0(25) . . .
31.1(29) . . .
34.4(31) . . .
32.2(31) . . .
35.7(33) . . .
35.1(30) . . .
33.7(31) . . .
34.5(31) . . .
30.6(28) . . .
40.5(34) . . .
35.1(31) . . .
41.3(35) . . .
36.8(33) . . .
40.3(35) . . .
43.5(34) . . .
35.8(31) . . .
42(4) . . .
39.6(34) . . .
48(4) . . .
35.0(32) . . .
38.5(32) . . .
43(4) . . .
40(4) . . .
36.1(31) . . .
50(4) . . .
38.2(33) . . .
34.6(32) . . .
32.0(30) . . .
44.4(34) . . .
36.3(32) . . .
36.8(31) . . .
45(4) . . .
47(4) . . .
45.6(35) . . .
49(4) . . .
40.1(33) . . .
34.5(30) . . .
43(4) . . .
33.2(30) . . .
35.0(31) . . .
40.4(33) . . .
41.9(35) . . .
36.0(32) . . .
31.6(33) . . .
34.9(31) . . .
40.6(35) . . .
33.4(30) . . .
33.3(31) . . .
45(4) . . .
37.7(32) . . .
39.3(33) . . .
38.8(35) . . .
43(4) . . .
41.2(34) . . .
44.1(34) . . .
38.2(34) . . .
33.7(32) . . .
36.3(31) . . .
35.0(31) . . .
38.9(32) . . .
34.3(32) . . .
39(4) . . .
33.3(31) . . .
37.1(32) . . .
39.5(33) . . .
34.2(31) . . .
33.3(32) . . .
43(4) . . .
36.9(33) . . .
48(4) . . .
39.2(34) . . .
41(4) . . .
40(4) . . .
29.8(29) . . .
33.8(31) . . .
43(4) . . .
37.2(33) . . .
48(4) . . .
38.2(33) . . .
33.9(30) . . .
36.0(32) . . .
37.6(33) . . .
44.0(35) . . .
38.3(33) . . .
40.6(33) . . .
39.7(34) . . .
34.8(32) . . .
35.3(31) . . .
39.7(33) . . .
37.5(33) . . .
28.0(28) . . .
40(4) . . .
42.0(34) . . .
37.2(32) . . .
43(4) . . .
25.8(26) . . .
42(4) . . .
40.9(34) . . .
40.1(33) . . .
39.5(33) . . .
41.7(35) . . .
35.0(33) . . .
37.4(34) . . .
41.0(34) . . .
35.3(31) . . .
46(4) . . .
30.0(31) . . .
32.6(31) . . .
33.9(31) . . .
40(4) . . .
36.9(33) . . .
39.4(35) . . .
30.1(29) . . .
31.2(29) . . .
41.9(34) . . .
32.0(31) . . .
30.5(30) . . .
38.3(33) . . .
30.1(28) . . .
30.8(31) . . .
40(4) . . .
27.6(27) . . .
35.1(31) . . .
29.6(28) . . .
37.1(33) . . .
43(4) . . .
34.4(34) . . .
34.7(31) . . .
40.6(33) . . .
40(4) . . .
40(4) . . .
35.1(30) . . .
44.2(35) . . .
33.8(32) . . .
33.7(31) . . .
49(4) . . .
42.0(35) . . .
38.0(32) . . .
37.3(33) . . .
36.1(34) . . .
37.4(33) . . .
35.7(32) . . .
39.8(33) . . .
28.9(28) . . .
45(4) . . .
34.3(31) . . .
38.8(33) . . .
38.5(33) . . .
33.1(30) . . .
37.8(32) . . .
38.3(32) . . .
38.9(32) . . .
37.7(32) . . .
35.3(35) . . .
37.0(33) . . .
44(4) . . .
57(4) . . .
45.3(35) . . .
45(4) . . .
40(4) . . .
38.7(34) . . .
40(4) . . .
45.2(35) . . .
36.0(33) . . .
37.7(34) . . .
34.8(32) . . .
35.7(34) . . .
37.2(32) . . .
45(4) . . .
40(4) . . .
38.0(34) . . .
35.3(31) . . .
32.9(30) . . .
41.9(34) . . .
40.2(33) . . .
40.3(34) . . .
36.0(32) . . .
40.9(33) . . .
38.4(33) . . .
40.5(35) . . .
37.5(32) . . .
49(4) . . .
47(4) . . .
35.0(31) . . .
44(4) . . .
38.0(32) . . .
34.2(31) . . .
45(4) . . .
43.0(35) . . .
37.1(32) . . .
33.7(30) . . .
42.5(34) . . .
28.9(28) . . .
39.6(34) . . .
29.0(28) . . .
32.7(31) . . .
36.7(32) . . .
40.8(33) . . .
39(4) . . .
33.0(32) . . .
39.8(34) . . .
51(4) . . .
45(4) . . .
38.9(34) . . .
33.5(32) . . .
37.3(33) . . .
36.1(31) . . .
30.6(30) . . .
34.4(34) . . .
33.1(31) . . .
34.8(31) . . .
37.1(32) . . .
34.1(32) . . .
38.2(34) . . .
43(4) . . .
37.1(33) . . .
38.7(33) . . .
45(4) . . .
40.2(34) . . .
41.3(34) . . .
42.4(35) . . .
30.6(29) . . .
30.8(30) . . .
31.7(31) . . .
35.8(33) . . .
37.6(32) . . .
41.1(33) . . .
43(4) . . .
37.0(32) . . .
41.8(35) . . .
35.4(31) . . .
37.8(32) . . .
42(4) . . .
36.1(34) . . .
31.0(30) . . .
35.6(31) . . .
40.0(33) . . .
45(4) . . .
34.8(31) . . .
41.0(34) . . .
35.2(32) . . .
34.8(31) . . .
39.3(34) . . .
35.1(31) . . .
34.6(31) . . .
40.0(33) . . .
38.6(33) . . .
43(4) . . .
43(4) . . .
30.6(31) . . .
41.3(33) . . .
38.6(32) . . .
43(4) . . .
38.5(33) . . .
38.8(33) . . .
41.2(34) . . .
37.1(32) . . .
44(4) . . .
37.2(32) . . .
35.3(30) . . .
33.7(30) . . .
30.9(30) . . .
40(4) . . .
46(4) . . .
27.4(27) . . .
38.3(33) . . .
36.5(31) . . .
36.6(31) . . .
32.3(30) . . .
40.1(34) . . .
33.1(30) . . .
47(4) . . .
39.3(35) . . .
41.9(34) . . .
34.9(31) . . .
40.0(33) . . .
40.5(33) . . .
36.3(31) . . .
38.4(31) . . .
38.4(32) . . .
42.5(34) . . .
33.3(32) . . .
45(4) . . .
49(4) . . .
37.3(32) . . .
43.6(34) . . .
44(4) . . .
34.4(34) . . .
41.9(34) . . .
35.7(32) . . .
42.0(34) . . .
39.7(35) . . .
32.2(31) . . .
46(4) . . .
26.0(26) . . .
35.0(31) . . .
35.2(32) . . .
44(4) . . .
38.3(32) . . .
52(4) . . .
38.8(33) . . .
38.8(33) . . .
40.6(34) . . .
41.3(33) . . .
38.4(32) . . .
33.5(31) . . .
43(4) . . .
37.5(31) . . .
46.0(35) . . .
36.7(31) . . .
38.6(32) . . .
39.7(35) . . .
30.9(31) . . .
42.6(35) . . .
41.3(34) . . .
45(4) . . .
34.3(31) . . .
36.0(33) . . .
34.9(31) . . .
36.3(31) . . .
30.3(30) . . .
35.3(33) . . .
41.8(35) . . .
37.4(32) . . .
36.5(32) . . .
42.3(35) . . .
41(4) . . .
37.7(34) . . .
38.0(32) . . .
44.6(35) . . .
37.7(33) . . .
42(4) . . .
34.5(30) . . .
48(4) . . .
36.7(32) . . .
35.7(31) . . .
38.8(34) . . .
35.5(32) . . .
44.2(35) . . .
32.8(30) . . .
37.6(33) . . .
37.4(33) . . .
41.2(34) . . .
42.1(34) . . .
42.5(34) . . .
36.8(32) . . .
37.3(33) . . .
38.7(34) . . .
35.4(31) . . .
38.3(34) . . .
31.7(30) . . .
43(4) . . .
34.6(32) . . .
36.6(32) . . .
41(4) . . .
41.7(35) . . .
41.2(35) . . .
44(4) . . .
37.4(33) . . .
35.8(32) . . .
40(4) . . .
35.7(33) . . .
33.8(30) . . .
33.9(31) . . .
45(4) . . .
39.8(35) . . .
34.8(31) . . .
35.2(31) . . .
42.5(34) . . .
39.4(33) . . .
40.4(35) . . .
41.5(35) . . .
40.1(33) . . .
36.3(31) . . .
41(4) . . .
43(4) . . .
29.2(28) . . .
30.6(29) . . .
39.7(33) . . .
41.2(34) . . .
38(4) . . .
38.9(34) . . .
37.5(32) . . .
48(4) . . .
50(4) . . .
38.8(34) . . .
39.9(33) . . .
43.8(34) . . .
30.0(30) . . .
31.3(30) . . .
46(4) . . .
39.0(35) . . .
46(4) . . .
36.8(32) . . .
31.7(31) . . .
42(4) . . .
41.9(34) . . .
36.9(32) . . .
34.4(31) . . .
38.7(33) . . .
39.2(32) . . .
38(4) . . .
34.7(30) . . .
34.5(30) . . .
36.9(33) . . .
35.6(34) . . .
44(4) . . .
39.2(33) . . .
38.2(34) . . .
30.1(29) . . .
38.2(34) . . .
41.9(35) . . .
39.4(34) . . .
34.5(31) . . .
37(4) . . .
32.7(31) . . .
36.2(31) . . .
42.2(34) . . .
37.8(32) . . .
45(4) . . .
29.9(28) . . .
30.8(29) . . .
42.7(34) . . .
53(4) . . .
45(4) . . .
32.2(29) . . .
40.0(33) . . .
36.5(32) . . .
40.7(34) . . .
38(4) . . .
31.8(31) . . .
36.0(32) . . .
38.1(33) . . .
40(4) . . .
31.5(32) . . .
34.2(31) . . .
41.8(34) . . .
41.3(34) . . .
46(4) . . .
46(4) . . .
42.6(34) . . .
51(4) . . .
36.9(32) . . .
38.4(33) . . .
37.8(33) . . .
36.2(32) . . .
33.9(30) . . .
41.8(34) . . .
41.7(34) . . .
46(4) . . .
40.3(33) . . .
46(4) . . .
37.5(32) . . .
36.4(33) . . .
31.3(29) . . .
35.0(32) . . .
33.9(31) . . .
40.5(33) . . .
38.1(33) . . .
39.6(33) . . .
41.1(34) . . .
45.4(35) . . .
41.9(35) . . .
37.8(33) . . .
44(4) . . .
34.6(31) . . .
40.7(34) . . .
36.9(35) . . .
34.3(31) . . .
40(4) . . .
30.4(29) . . .
32.0(29) . . .
40(4) . . .
37.0(33) . . .
51(4) . . .
31.1(31) . . .
35.9(31) . . .
32.5(30) . . .
39.5(35) . . .
49(4) . . .
35.8(31) . . .
39.0(33) . . .
36.8(33) . . .
36.7(34) . . .
32.1(32) . . .
32.4(30) . . .
42.1(34) . . .
42.0(35) . . .
32.8(30) . . .
38.2(32) . . .
38.5(33) . . .
33.9(31) . . .
35.6(34) . . .
38(4) . . .
36.0(33) . . .
37.0(31) . . .
46(4) . . .
40.5(35) . . .
35.8(32) . . .
28.6(28) . . .
32.0(30) . . .
37.2(33) . . .
36.2(32) . . .
40.9(35) . . .
33.4(32) . . .
34.2(30) . . .
48(4) . . .
38.6(32) . . .
36.8(31) . . .
41.4(33) . . .
42.8(34) . . .
38.4(33) . . .
33.3(30) . . .
37.5(33) . . .
34.8(31) . . .
42.8(34) . . .
37(4) . . .
37.9(34) . . .
30.1(30) . . .
36.5(32) . . .
35.5(31) . . .
40.2(33) . . .
40.3(34) . . .
30.9(29) . . .
32.6(30) . . .
30.9(28) . . .
48(4) . . .
35.8(31) . . .
39.3(34) . . .
38.1(32) . . .
37.8(32) . . .
35.9(34) . . .
39.9(35) . . .
43(4) . . .
40.7(33) . . .
35.2(31) . . .
40.1(34) . . .
36.3(34) . . .
31.9(30) . . .
36.7(31) . . .
44.0(35) . . .
40.7(34) . . .
39.6(35) . . .
46(4) . . .
37.7(32) . . .
40.4(34) . . .
33.5(31) . . .
37.8(33) . . .
38.2(33) . . .
31.9(30) . . .
35.1(31) . . .
41.1(35) . . .
41(4) . . .
35.0(32) . . .
34.0(31) . . .
34.6(32) . . .
44(4) . . .
31.2(30) . . .
39.0(33) . . .
34.0(31) . . .
35.1(31) . . .
37.0(33) . . .
33.2(30) . . .
41.1(34) . . .
36.7(32) . . .
33.3(31) . . .
49(4) . . .
45(4) . . .
47(4) . . .
37.4(33) . . .
33.3(30) . . .
35.9(34) . . .
33.9(32) . . .
34.9(33) . . .
33.5(30) . . .
40.6(34) . . .
47(4) . . .
39.5(32) . . .
38.9(32) . . .
45.5(35) . . .
37.0(32) . . .
40(4) . . .
44(4) . . .
30.1(28) . . .
33.2(30) . . .
35.7(31) . . .
30.9(29) . . .
38.3(33) . . .
40.6(33) . . .
45.6(35) . . .
36.1(33) . . .
43(4) . . .
37.4(33) . . .
33.5(30) . . .
36.0(31) . . .
35.3(30) . . .
49(4) . . .
34.4(32) . . .
32.6(30) . . .
37.6(32) . . .
40(4) . . .
30.8(29) . . .
37.4(32) . . .
33.8(30) . . .
40.9(34) . . .
33.9(31) . . .
33.3(33) . . .
31.7(29) . . .
33.5(31) . . .
35.6(31) . . .
31.4(28) . . .
35.9(33) . . .
32.7(30) . . .
30.2(29) . . .
37.1(32) . . .
36.1(31) . . .
33.7(30) . . .
40.6(33) . . .
35.8(31) . . .
38.5(34) . . .
36.1(32) . . .
30.1(28) . . .
36.2(32) . . .
35.9(31) . . .
33.0(31) . . .
35.7(32) . . .
31.1(29) . . .
31.8(30) . . .
36.0(31) . . .
38.8(34) . . .
34.9(33) . . .
42(4) . . .
34.0(30) . . .
37.2(32) . . .
35.8(32) . . .
35.3(33) . . .
32.5(30) . . .
39.0(33) . . .
44.8(34) . . .
39.7(34) . . .
40(4) . . .
35.5(34) . . .
33.8(31) . . .
26.9(27) . . .
43(4) . . .
34.2(33) . . .
31.0(30) . . .
34.6(30) . . .
44(4) . . .
30.2(32) . . .
31.9(32) . . .
44(4) . . .
32.5(30) . . .
38.8(32) . . .
36.7(31) . . .
34.3(29) . . .
39.4(34) . . .
35.3(31) . . .
47(4) . . .
44(4) . . .
27.3(27) . . .
40.7(35) . . .
41.1(33) . . .
29.1(30) . . .
34.4(33) . . .
33.3(30) . . .
35.1(32) . . .
29.9(28) . . .
36.3(34) . . .
38.9(34) . . .
40(4) . . .
34.9(32) . . .
44.0(35) . . .
36.2(33) . . .
33.3(33) . . .
36.7(32) . . .
37.4(32) . . .
39.2(32) . . .
32.8(30) . . .
35.0(33) . . .
42.5(34) . . .
36.5(31) . . .
34.0(31) . . .
27.3(27) . . .
42(4) . . .
31.8(31) . . .
32.6(30) . . .
39.2(33) . . .
38.6(34) . . .
37.8(34) . . .
37.2(32) . . .
30.6(30) . . .
37.7(32) . . .
33.9(31) . . .
32.2(30) . . .
38.4(34) . . .
36.6(32) . . .
33.8(30) . . .
27.8(28) . . .
26.8(28) . . .
37.4(33) . . .
34.0(30) . . .
37.9(33) . . .
42.5(34) . . .
43(4) . . .
35.0(31) . . .
37.2(31) . . .
38.1(32) . . .
34.7(31) . . .
36.5(35) . . .
37.6(34) . . .
36.6(32) . . .
27.9(29) . . .
39(4) . . .
32.1(31) . . .
37.0(33) . . .
38.4(32) . . .
40(4) . . .
42(4) . . .
37.2(33) . . .
35.4(32) . . .
39.6(33) . . .
39.3(34) . . .
40(4) . . .
37.1(34) . . .
29.2(28) . . .
34.8(30) . . .
38.2(33) . . .
40.2(35) . . .
29.0(27) . . .
41.5(33) . . .
32.4(30) . . .
42(4) . . .
37.7(33) . . .
40.6(34) . . .
46(4) . . .
39.7(33) . . .
33.0(31) . . .
46(4) . . .
36.1(32) . . .
28.5(28) . . .
35.3(31) . . .
40.4(34) . . .
37.7(34) . . .
35.4(32) . . .
41.4(33) . . .
42.8(35) . . .
34.5(31) . . .
44(4) . . .
25.3(26) . . .
30.7(28) . . .
34.3(30) . . .
40.0(33) . . .
34.7(31) . . .
35.4(32) . . .
41.0(33) . . .
42(4) . . .
45(4) . . .
37.7(35) . . .
34.8(33) . . .
40.8(33) . . .
31.6(29) . . .
37.6(34) . . .
36.3(32) . . .
47(4) . . .
40.2(33) . . .
41(4) . . .
45(4) . . .
44.5(34) . . .
35.2(31) . . .
43.2(34) . . .
37.2(33) . . .
34.5(32) . . .
47(4) . . .
41.7(34) . . .
37.5(31) . . .
34.1(30) . . .
42(4) . . .
41.0(34) . . .
31.1(30) . . .
40.1(32) . . .
46(4) . . .
31.5(30) . . .
36.3(33) . . .
37.0(31) . . .
52(4) . . .
40.3(33) . . .
34.4(32) . . .
43.2(35) . . .
52(4) . . .
43.2(34) . . .
35.6(31) . . .
33.1(33) . . .
31.9(30) . . .
33.8(31) . . .
40.2(34) . . .
33.2(31) . . .
37(4) . . .
32.0(30) . . .
37.5(32) . . .
37.8(32) . . .
39.6(33) . . .
32.7(31) . . .
31.4(32) . . .
35.7(32) . . .
37.7(33) . . .
33.3(30) . . .
33.1(31) . . .
41.0(35) . . .
37.4(32) . . .
46(4) . . .
41.4(34) . . .
40.8(35) . . .
41.8(35) . . .
45(4) . . .
42.6(35) . . .
48(4) . . .
41(4) . . .
40.1(33) . . .
36.3(32) . . .
36.8(33) . . .
39.4(33) . . .
40(4) . . .
36.7(33) . . .
43.1(35) . . .
40(4) . . .
37.9(34) . . .
36.7(34) . . .
41.1(33) . . .
36.8(32) . . .
30.7(29) . . .
38(4) . . .
32.1(30) . . .
35.4(31) . . .
27.0(28) . . .
34.2(32) . . .
38(4) . . .
37(4) . . .
38.5(32) . . .
32.5(30) . . .
28.5(29) . . .
32.2(32) . . .
38.1(33) . . .
38.6(33) . . .
32.5(30) . . .
37.6(33) . . .
36.4(32) . . .
35.3(33) . . .
39.2(33) . . .
32.8(31) . . .
34.1(32) . . .
31.8(31) . . .
43(4) . . .
41.0(34) . . .
36.1(33) . . .
40(4) . . .
37.2(35) . . .
31.2(29) . . .
39.4(33) . . .
31.0(31) . . .
36(4) . . .
33.7(32) . . .
39.7(35) . . .
30.3(29) . . .
40.8(33) . . .
43(4) . . .
37.8(35) . . .
37.0(31) . . .
32.0(30) . . .
38(4) . . .
33.7(30) . . .
37.0(32) . . .
41.3(34) . . .
35.3(31) . . .
46(4) . . .
45(4) . . .
40(4) . . .
32.6(30) . . .
31.7(30) . . .
37.0(32) . . .
33.7(31) . . .
35.4(31) . . .
25.7(27) . . .
43.0(34) . . .
36.8(32) . . .
36.3(33) . . .
30.0(29) . . .
32.8(31) . . .
34.7(31) . . .
32.7(30) . . .
37.6(35) . . .
33.8(33) . . .
34.7(30) . . .
33.2(31) . . .
47(4) . . .
50(4) . . .
37.6(33) . . .
34.6(31) . . .
26.1(26) . . .
30.4(30) . . .
41(4) . . .
41.8(34) . . .
38.3(32) . . .
36.9(33) . . .
36.1(32) . . .
35.1(32) . . .
40.4(34) . . .
31.0(30) . . .
39.1(33) . . .
32.2(30) . . .
40.4(35) . . .
37.7(34) . . .
45.2(35) . . .
34.7(31) . . .
31.6(31) . . .
36.3(33) . . .
41.8(34) . . .
37.8(32) . . .
45(4) . . .
29.5(28) . . .
32.2(31) . . .
41.9(34) . . .
35.8(31) . . .
42(4) . . .
32.1(32) . . .
36.3(32) . . .
34.3(30) . . .
30.5(29) . . .
32.2(31) . . .
32.0(31) . . .
45(4) . . .
41.5(34) . . .
35.0(31) . . .
45(4) . . .
42.5(35) . . .
36.0(34) . . .
38.3(33) . . .
29.4(28) . . .
35.1(33) . . .
44(4) . . .
32.5(30) . . .
37.9(32) . . .
42.4(34) . . .
40.8(33) . . .
35.4(31) . . .
38.8(34) . . .
40.8(34) . . .
37.2(32) . . .
37.5(34) . . .
36.7(34) . . .
41(4) . . .
36.9(32) . . .
35.0(30) . . .
45(4) . . .
35.7(33) . . .
38.2(33) . . .
31.7(29) . . .
35.3(31) . . .
43(4) . . .
44(4) . . .
31.4(30) . . .
37.7(32) . . .
38.4(34) . . .
34.4(32) . . .
46(4) . . .
37.6(33) . . .
33.6(30) . . .
37.9(33) . . .
39(4) . . .
37.2(34) . . .
41(4) . . .
33.8(31) . . .
41.2(34) . . .
33.5(31) . . .
45(4) . . .
29.3(27) . . .
41.5(34) . . .
41.4(34) . . .
33.9(30) . . .
40.2(34) . . .
34.9(31) . . .
37.5(32) . . .
42.5(34) . . .
29.1(28) . . .
32.9(30) . . .
34.5(32) . . .
38.5(33) . . .
35.8(31) . . .
31.9(33) . . .
36.7(32) . . .
43.8(35) . . .
36.8(31) . . .
33.7(33) . . .
37.8(34) . . .
36.8(31) . . .
39.4(33) . . .
36.6(31) . . .
35.0(33) . . .
32.6(30) . . .
36.1(32) . . .
26.9(28) . . .
45(4) . . .
40.6(35) . . .
40(4) . . .
36.2(31) . . .
44.8(35) . . .
44(4) . . .
41.0(35) . . .
39.3(35) . . .
40.7(33) . . .
43.6(35) . . .
44.1(35) . . .
29.6(28) . . .
34.1(33) . . .
39.1(34) . . .
43.6(34) . . .
44(4) . . .
35.0(34) . . .
37.5(33) . . .
35.6(32) . . .
40.9(34) . . .
42(4) . . .
36.8(34) . . .
30.9(30) . . .
43(4) . . .
29.6(29) . . .
46(4) . . .
36.1(34) . . .
37.1(33) . . .
35.6(31) . . .
33.3(31) . . .
38.7(34) . . .
30.0(29) . . .
37.9(33) . . .
39.5(34) . . .
38.1(32) . . .
36.5(32) . . .
46(4) . . .
38.2(33) . . .
39.0(32) . . .
32.7(30) . . .
42(4) . . .
41(4) . . .
41.4(35) . . .
41.4(34) . . .
45(4) . . .
31.8(31) . . .
30.7(32) . . .
44(4) . . .
37.8(32) . . .
31.5(30) . . .
28.9(29) . . .
33.1(33) . . .
39.8(33) . . .
45(4) . . .
32.4(31) . . .
36.2(34) . . .
42(4) . . .
39.7(33) . . .
40.2(33) . . .
34.3(33) . . .
34.5(32) . . .
41.9(35) . . .
48(4) . . .
32.8(30) . . .
30.4(28) . . .
31.6(31) . . .
34.4(32) . . .
31.2(29) . . .
33.4(29) . . .
29.8(30) . . .
32.7(30) . . .
36.7(32) . . .
41.7(35) . . .
41.0(33) . . .
32.9(30) . . .
37.4(34) . . .
33.2(32) . . .
34.2(31) . . .
36.5(32) . . .
37.8(34) . . .
36.8(33) . . .
40.5(34) . . .
33.0(30) . . .
39.5(33) . . .
37.5(33) . . .
43(4) . . .
39.7(33) . . .
34.5(31) . . .
33.0(29) . . .
30.4(30) . . .
29.6(32) . . .
36.7(34) . . .
42.8(34) . . .
36.5(32) . . .
33.6(30) . . .
40(4) . . .
37.3(33) . . .
31.4(29) . . .
40.2(35) . . .
35.7(31) . . .
35.4(34) . . .
40(4) . . .
33.6(31) . . .
37.5(32) . . .
42(4) . . .
39.1(32) . . .
40.2(33) . . .
37.4(32) . . .
38.6(33) . . .
41(4) . . .
23.7(26) . . .
36.8(33) . . .
44.7(35) . . .
39.8(33) . . .
34.8(32) . . .
34.7(33) . . .
32.3(29) . . .
34.2(30) . . .
39.0(35) . . .
38(4) . . .
28.9(28) . . .
39.0(33) . . .
44.6(35) . . .
36.8(32) . . .
34.1(31) . . .
35.8(31) . . .
41.8(33) . . .
38.8(33) . . .
36.0(33) . . .
37.3(34) . . .
38(4) . . .
34.6(31) . . .
35.7(31) . . .
38.0(33) . . .
37.0(34) . . .
40.6(34) . . .
36.8(32) . . .
33.4(30) . . .
32.4(30) . . .
32.4(33) . . .
42(4) . . .
33.4(30) . . .
45.3(35) . . .
42.2(34) . . .
35.2(32) . . .
34.0(31) . . .
31.6(30) . . .
32.5(30) . . .
41(4) . . .
41(4) . . .
35.7(33) . . .
33.7(30) . . .
34.6(31) . . .
32.9(32) . . .
34.0(32) . . .
32.3(32) . . .
24.1(26) . . .
45(4) . . .
47(4) . . .
40.3(34) . . .
42.8(34) . . .
35.3(31) . . .
45(4) . . .
32.7(31) . . .
35.8(34) . . .
33.2(33) . . .
35.1(31) . . .
41.3(34) . . .
26.8(27) . . .
44(4) . . .
38.7(32) . . .
40.7(33) . . .
43(4) . . .
38(4) . . .
37.3(32) . . .
41.3(33) . . .
36.7(31) . . .
32.8(31) . . .
41.3(35) . . .
36.3(31) . . .
47(4) . . .
34.6(30) . . .
37.2(32) . . .
40.4(34) . . .
39.7(33) . . .
29.1(28) . . .
38.7(33) . . .
42.8(35) . . .
32.4(29) . . .
40.5(35) . . .
38.0(32) . . .
34.2(30) . . .
43(4) . . .
36(4) . . .
36.2(32) . . .
35.4(32) . . .
35.5(31) . . .
37.8(34) . . .
37.0(33) . . .
38.5(35) . . .
41.9(35) . . .
37.0(31) . . .
32.5(31) . . .
33.4(32) . . .
27.3(28) . . .
43.3(34) . . .
34.6(31) . . .
35.1(32) . . .
35.7(33) . . .
39.6(33) . . .
42.0(34) . . .
37.3(33) . . .
42(4) . . .
37.1(34) . . .
31.9(29) . . .
32.6(30) . . .
37.0(31) . . .
40.4(34) . . .
35.8(33) . . .
32.9(29) . . .
45(4) . . .
26.8(30) . . .
36.9(34) . . .
38.9(34) . . .
38.6(33) . . .
41.5(34) . . .
33.8(30) . . .
32.9(31) . . .
38.3(32) . . .
37.5(33) . . .
37.0(32) . . .
28.2(29) . . .
34.2(33) . . .
35.7(32) . . .
40.5(33) . . .
48(4) . . .
41.4(34) . . .
41(4) . . .
39(4) . . .
43.1(35) . . .
33.3(30) . . .
31.2(30) . . .
28.6(32) . . .
45(4) . . .
27.2(27) . . .
33.1(31) . . .
38.9(34) . . .
43(4) . . .
37.9(33) . . .
40.8(34) . . .
33.8(30) . . .
36.0(32) . . .
33.3(31) . . .
35.4(32) . . .
33.9(31) . . .
32.0(31) . . .
23.9(26) . . .
33.7(34) . . .
33.0(32) . . .
37.8(32) . . .
29.0(28) . . .
39.6(33) . . .
33.9(30) . . .
39.5(34) . . .
37.3(32) . . .
32.8(30) . . .
39.5(34) . . .
40.3(34) . . .
36.5(31) . . .
40.0(34) . . .
31.9(31) . . .
34.3(33) . . .
32.1(29) . . .
41.2(35) . . .
37.3(32) . . .
39.7(34) . . .
36.2(32) . . .
32.7(29) . . .
49(4) . . .
39.7(32) . . .
34.7(31) . . .
37.0(33) . . .
46(4) . . .
35.4(32) . . .
39.0(32) . . .
30.7(31) . . .
39(4) . . .
32.9(30) . . .
31.9(31) . . .
36.1(32) . . .
39.2(35) . . .
34.1(34) . . .
29.8(30) . . .
39.7(33) . . .
51(4) . . .
37.3(32) . . .
32.5(32) . . .
42.2(35) . . .
35.6(31) . . .
32.2(30) . . .
33.6(31) . . .
36.3(32) . . .
34.4(32) . . .
35.4(31) . . .
31.3(30) . . .
36.4(32) . . .
39(4) . . .
40(4) . . .
36.5(31) . . .
32.0(30) . . .
38.8(34) . . .
34.8(31) . . .
32.6(30) . . .
37.3(32) . . .
33.1(30) . . .
34.5(32) . . .
35.3(33) . . .
40.0(33) . . .
32.6(29) . . .
45(4) . . .
39.2(33) . . .
42.9(35) . . .
39.2(33) . . .
35.3(31) . . .
37.6(33) . . .
38.8(34) . . .
38.7(34) . . .
50(4) . . .
43.3(34) . . .
35(4) . . .
31.6(31) . . .
37.3(32) . . .
43.6(35) . . .
31.2(30) . . .
36.0(32) . . .
29.9(28) . . .
37.9(32) . . .
44.7(34) . . .
47(4) . . .
48(4) . . .
38.0(34) . . .
36.3(33) . . .
38.9(33) . . .
39.0(32) . . .
39.8(34) . . .
46(4) . . .
40.8(34) . . .
34.9(31) . . .
33.3(31) . . .
38.6(35) . . .
31.5(31) . . .
37.0(33) . . .
38.0(32) . . .
33.0(31) . . .
38.0(34) . . .
29.6(28) . . .
50(4) . . .
44.1(34) . . .
46(4) . . .
41.3(33) . . .
45(4) . . .
36.5(32) . . .
33.3(30) . . .
38.5(33) . . .
37.6(35) . . .
28.4(30) . . .
40.8(35) . . .
37.1(32) . . .
45(4) . . .
33.2(29) . . .
47(4) . . .
35.9(31) . . .
37.1(32) . . .
38.8(33) . . .
37.7(32) . . .
32.7(31) . . .
34.3(30) . . .
42.5(33) . . .
30.7(30) . . .
34.5(34) . . .
36.2(35) . . .
30.6(28) . . .
29.5(28) . . .
37.3(34) . . .
33.3(29) . . .
31.1(30) . . .
34.9(31) . . .
35.1(31) . . .
26.6(27) . . .
29.3(31) . . .
38(4) . . .
36.5(32) . . .
30.5(29) . . .
32.7(32) . . .
30.7(29) . . .
41.5(34) . . .
39.2(32) . . .
37.5(32) . . .
37.1(33) . . .
34.8(34) . . .
37.1(32) . . .
35.5(31) . . .
33.2(30) . . .
35.2(32) . . .
37.6(33) . . .
34.0(32) . . .
27.8(28) . . .
39.3(33) . . .
44(4) . . .
40.5(33) . . .
39.8(34) . . .
40.0(33) . . .
47(4) . . .
39.3(34) . . .
40.7(34) . . .
34.1(31) . . .
37.3(32) . . .
34.8(32) . . .
39.3(34) . . .
47(4) . . .
44(4) . . .
36.4(32) . . .
31.5(30) . . .
38.9(35) . . .
37.4(32) . . .
40.4(34) . . .
41.3(34) . . .
39.7(34) . . .
33.9(33) . . .
38.2(34) . . .
34.4(31) . . .
34.2(31) . . .
30.9(30) . . .
43(4) . . .
40.2(34) . . .
37.8(33) . . .
33.3(30) . . .
38.5(34) . . .
29.6(30) . . .
33.9(32) . . .
30.3(28) . . .
36.2(32) . . .
31.2(31) . . .
39(4) . . .
37.1(33) . . .
37.8(31) . . .
36.8(32) . . .
36.3(32) . . .
40(4) . . .
37.5(33) . . .
34.5(31) . . .
36.3(32) . . .
43(4) . . .
41.6(35) . . .
36.4(32) . . .
46(4) . . .
37.5(33) . . .
36.4(32) . . .
36.4(33) . . .
37.1(33) . . .
33.4(30) . . .
41.5(34) . . .
45(4) . . .
30.7(30) . . .
32.3(30) . . .
33.1(30) . . .
36.3(35) . . .
37.4(34) . . .
36.0(32) . . .
41.6(35) . . .
29.4(28) . . .
32.4(31) . . .
31.0(30) . . .
39.9(34) . . .
41(4) . . .
35.8(31) . . .
34.1(31) . . .
29.5(31) . . .
36.3(34) . . .
39.5(34) . . .
30.6(29) . . .
36.1(32) . . .
33.8(32) . . .
36.0(33) . . .
35.6(33) . . .
33.4(30) . . .
32.1(30) . . .
23.6(26) . . .
33.7(32) . . .
38.0(32) . . .
39.0(32) . . .
38.9(32) . . .
41(4) . . .
38.7(33) . . .
35.0(31) . . .
47(4) . . .
39.7(35) . . .
50(4) . . .
30.4(30) . . .
26.8(27) . . .
28.3(28) . . .
39.8(34) . . .
36.6(34) . . .
36.4(32) . . .
38.0(32) . . .
35.4(31) . . .
39.5(34) . . .
38.8(34) . . .
39.1(33) . . .
31.9(30) . . .
30.7(30) . . .
37.5(35) . . .
39.2(33) . . .
44(4) . . .
33.3(30) . . .
42(4) . . .
36.7(32) . . .
32.7(29) . . .
38.2(33) . . .
48(4) . . .
41.6(33) . . .
36.8(33) . . .
46(4) . . .
44.8(35) . . .
37.3(32) . . .
33.0(32) . . .
37(4) . . .
34.4(32) . . .
26.6(28) . . .
32.8(30) . . .
35.5(31) . . .
39.2(35) . . .
31.8(30) . . .
34.7(33) . . .
45.5(35) . . .
32.8(34) . . .
35.0(32) . . .
35.6(31) . . .
36.2(32) . . .
34.2(30) . . .
35.6(31) . . .
32.5(30) . . .
40.6(33) . . .
41.2(33) . . .
36.8(32) . . .
31.1(31) . . .
33.2(33) . . .
34.6(34) . . .
39.2(33) . . .
33.6(30) . . .
38.6(32) . . .
40.0(35) . . .
34.9(31) . . .
34.2(30) . . .
35.2(31) . . .
37.0(32) . . .
32.0(31) . . .
39(4) . . .
35.9(31) . . .
34.9(30) . . .
33.9(31) . . .
41(4) . . .
38.9(32) . . .
37.8(32) . . .
38.5(33) . . .
43(4) . . .
37.9(34) . . .
33.2(31) . . .
46(4) . . .
27.6(29) . . .
28.3(31) . . .
34.0(34) . . .
43(4) . . .
39.6(33) . . .
33.5(30) . . .
45(4) . . .
41.3(34) . . .
38.2(32) . . .
38.3(32) . . .
35.9(34) . . .
36.1(33) . . .
38.4(33) . . .
29.0(29) . . .
31.6(30) . . .
31.5(30) . . .
32.4(32) . . .
37.4(34) . . .
39.0(32) . . .
27.9(27) . . .
30.5(29) . . .
28.9(29) . . .
39.6(34) . . .
45(4) . . .
40.7(33) . . .
35.4(32) . . .
37.6(34) . . .
32.2(29) . . .
35.6(31) . . .
35.3(32) . . .
43(4) . . .
33.5(33) . . .
32.8(31) . . .
38.2(32) . . .
30.0(29) . . .
30.9(29) . . .
31.5(31) . . .
36.0(32) . . .
32.4(30) . . .
36.9(32) . . .
33.1(29) . . .
35.1(32) . . .
30.4(31) . . .
29.3(28) . . .
42(4) . . .
33.0(30) . . .
28.9(28) . . .
38.0(33) . . .
38.2(32) . . .
35.7(31) . . .
39.3(34) . . .
37.7(33) . . .
32.0(30) . . .
45.1(34) . . .
36.6(33) . . .
41(4) . . .
36.1(31) . . .
36.0(31) . . .
34.2(30) . . .
31.6(31) . . .
46(4) . . .
36.3(32) . . .
34.9(31) . . .
43.2(34) . . .
31.7(29) . . .
30.3(31) . . .
28.7(29) . . .
31.6(29) . . .
32.4(29) . . .
31.0(30) . . .
31.1(30) . . .
43(4) . . .
36.5(31) . . .
31.8(30) . . .
35.2(33) . . .
42(4) . . .
49(4) . . .
44(4) . . .
33.9(30) . . .
41(4) . . .
32.4(32) . . .
34.8(32) . . .
43.4(34) . . .
32.6(31) . . .
42(4) . . .
40(4) . . .
40(4) . . .
32.0(29) . . .
30.0(28) . . .
32.8(31) . . .
41(4) . . .
35.4(31) . . .
38.7(33) . . .
42(4) . . .
37.1(33) . . .
32.9(31) . . .
37.0(34) . . .
35.2(31) . . .
31.4(29) . . .
46(4) . . .
37.0(33) . . .
25.7(27) . . .
31.4(30) . . .
32.0(29) . . .
32.3(29) . . .
43(4) . . .
33.3(30) . . .
42.2(35) . . .
39.4(34) . . .
35.1(32) . . .
39.2(33) . . .
43.1(34) . . .
34.3(31) . . .
32.5(30) . . .
28.5(29) . . .
37.2(35) . . .
33.3(30) . . .
38.2(32) . . .
37.2(33) . . .
38(4) . . .
33.5(31) . . .
30.0(29) . . .
29.0(28) . . .
33.7(30) . . .
38(4) . . .
36.2(33) . . .
40.3(33) . . .
39.3(33) . . .
53(4) . . .
37.7(35) . . .
37.9(35) . . .
35.2(31) . . .
41.5(33) . . .
44(4) . . .
39.0(35) . . .
42(4) . . .
33.9(30) . . .
42.2(35) . . .
40(4) . . .
35.4(32) . . .
35.1(33) . . .
33.2(30) . . .
37.8(32) . . .
42(4) . . .
46(4) . . .
42(4) . . .
34.6(31) . . .
45(4) . . .
28.6(27) . . .
37.9(34) . . .
40.6(35) . . .
43.5(34) . . .
34.1(31) . . .
35.7(33) . . .
29.3(28) . . .
34.8(31) . . .
36.5(31) . . .
42.1(35) . . .
32.9(29) . . .
38.0(32) . . .
35.8(32) . . .
32.8(30) . . .
31.2(30) . . .
44(4) . . .
33.7(30) . . .
30.9(29) . . .
37.0(31) . . .
35.1(32) . . .
37.7(34) . . .
33.4(30) . . .
37.9(32) . . .
37.3(32) . . .
35.8(32) . . .
32.2(32) . . .
38.8(34) . . .
38.7(32) . . .
37.4(31) . . .
34.0(32) . . .
23.6(25) . . .
34.0(33) . . .
39.1(32) . . .
36.2(31) . . .
33.8(32) . . .
36.9(35) . . .
34.2(33) . . .
29.7(28) . . .
29.1(29) . . .
44(4) . . .
50(4) . . .
36.4(32) . . .
39.3(33) . . .
31.1(29) . . .
35.5(32) . . .
38.2(34) . . .
34.7(31) . . .
31.7(29) . . .
38.7(33) . . .
30.5(32) . . .
35.4(33) . . .
37.0(31) . . .
36.7(32) . . .
28.1(29) . . .
36.2(34) . . .
38.4(33) . . .
38.8(33) . . .
37.4(32) . . .
35.5(33) . . .
37.0(33) . . .
31.8(31) . . .
32.7(30) . . .
44.5(34) . . .
34.0(33) . . .
31.1(32) . . .
31.8(31) . . .
38.0(32) . . .
45(4) . . .
38.3(33) . . .
31.7(31) . . .
40.4(34) . . .
43.7(34) . . .
33.1(30) . . .
32.2(31) . . .
34.4(31) . . .
36.5(31) . . .
40.6(34) . . .
36.9(31) . . .
34.2(30) . . .
35.1(32) . . .
47(4) . . .
45.5(35) . . .
36.0(32) . . .
31.5(31) . . .
26.3(29) . . .
36.0(34) . . .
39.7(33) . . .
36.6(32) . . .
36.5(32) . . .
37.2(34) . . .
42(4) . . .
31.9(30) . . .
43.0(35) . . .
37.0(35) . . .
34.4(33) . . .
34.3(31) . . .
32.8(30) . . .
38.8(33) . . .
36.5(31) . . .
41(4) . . .
33.4(32) . . .
35.9(31) . . .
34.9(31) . . .
30.4(28) . . .
33.2(31) . . .
28.9(29) . . .
30.0(29) . . .
39.6(33) . . .
41.3(35) . . .
31.8(30) . . .
40.0(34) . . .
32.6(30) . . .
30.7(31) . . .
36.5(34) . . .
44(4) . . .
32.1(30) . . .
40.6(33) . . .
45(4) . . .
41(4) . . .
39.2(34) . . .
37.1(32) . . .
35.3(30) . . .
36.5(32) . . .
36.3(32) . . .
37.0(32) . . .
33.1(31) . . .
37.0(32) . . .
37.2(32) . . .
36.1(33) . . .
36.4(32) . . .
36.2(31) . . .
32.8(29) . . .
35.5(32) . . .
30.2(29) . . .
37.6(32) . . .
44.1(35) . . .
30.4(28) . . .
31.4(30) . . .
39.0(35) . . .
43(4) . . .
33.8(30) . . .
34.5(31) . . .
44(4) . . .
41(4) . . .
37.3(33) . . .
28.9(28) . . .
41(4) . . .
34.0(31) . . .
38(4) . . .
39(4) . . .
36.2(33) . . .
35.1(32) . . .
36.3(31) . . .
36.0(33) . . .
30.9(29) . . .
29.4(28) . . .
31.6(30) . . .
28.7(30) . . .
33.0(30) . . .
32.0(30) . . .
40.5(33) . . .
37.5(34) . . .
32.9(30) . . .
40.1(34) . . .
39.8(33) . . .
39.6(33) . . .
37.2(32) . . .
35.5(31) . . .
29.1(28) . . .
34.4(32) . . .
41.5(34) . . .
33.8(30) . . .
31.8(30) . . .
39.3(34) . . .
41.7(33) . . .
25.5(26) . . .
41(4) . . .
32.9(32) . . .
38.5(35) . . .
29.6(29) . . .
41.2(34) . . .
40(4) . . .
36.2(34) . . .
38.1(32) . . .
34.2(31) . . .
40.8(33) . . .
41(4) . . .
31.0(31) . . .
31.2(31) . . .
39.6(33) . . .
33.7(30) . . .
40(4) . . .
39.2(34) . . .
41.7(35) . . .
41.6(34) . . .
39.0(32) . . .
50(4) . . .
44(4) . . .
24.1(27) . . .
37.0(31) . . .
33.6(32) . . .
41(4) . . .
46(4) . . .
37.4(32) . . .
31.6(29) . . .
32.9(30) . . .
36.7(33) . . .
37.7(32) . . .
43(4) . . .
36.1(31) . . .
29.7(28) . . .
34.2(33) . . .
33.5(32) . . .
39.5(35) . . .
41.8(34) . . .
31.8(30) . . .
34.0(31) . . .
37.7(32) . . .
32.8(31) . . .
34.4(31) . . .
31.7(31) . . .
38(4) . . .
39.3(33) . . .
39.1(32) . . .
44(4) . . .
45(4) . . .
45(4) . . .
28.7(27) . . .
30.2(28) . . .
45.3(35) . . .
44(4) . . .
32.1(30) . . .
31.9(30) . . .
37.7(32) . . .
38.7(33) . . .
37.3(32) . . .
40(4) . . .
28.0(28) . . .
34.0(30) . . .
31.9(29) . . .
33.5(30) . . .
43(4) . . .
36.7(33) . . .
25.2(27) . . .
35.9(31) . . .
27.9(27) . . .
38.6(34) . . .
38.9(34) . . .
36.9(32) . . .
30.6(32) . . .
36.4(32) . . .
34.3(31) . . .
36.2(33) . . .
38.2(33) . . .
44(4) . . .
41(4) . . .
40.5(35) . . .
39.5(32) . . .
37.1(32) . . .
38.2(34) . . .
34.5(31) . . .
28.9(28) . . .
36.4(33) . . .
36.4(32) . . .
38.5(33) . . .
38.9(34) . . .
31.8(30) . . .
39.2(34) . . .
46(4) . . .
45(4) . . .
28.7(30) . . .
42.4(34) . . .
47(4) . . .
35.2(31) . . .
36.4(33) . . .
32.4(32) . . .
48(4) . . .
34.0(30) . . .
33.9(30) . . .
36(4) . . .
27.0(30) . . .
30.8(31) . . .
33.1(30) . . .
34.9(31) . . .
36.9(32) . . .
37.3(33) . . .
48(4) . . .
44(4) . . .
44.6(34) . . .
35.0(32) . . .
46(4) . . .
39.0(33) . . .
33.5(30) . . .
35.9(31) . . .
44(4) . . .
36.3(33) . . .
32.1(30) . . .
31.6(30) . . .
31.9(30) . . .
32.3(30) . . .
45(4) . . .
45(4) . . .
30.3(29) . . .
34.8(31) . . .
37.6(32) . . .
35.2(32) . . .
30.8(29) . . .
35.0(31) . . .
34.3(31) . . .
35.3(32) . . .
34.8(33) . . .
30.3(31) . . .
32.2(29) . . .
42(4) . . .
39.3(35) . . .
36.2(32) . . .
32.6(31) . . .
38.0(32) . . .
30.2(28) . . .
33.9(32) . . .
33.2(31) . . .
32.2(30) . . .
26.8(27) . . .
45(4) . . .
39.0(34) . . .
35.3(33) . . .
35.5(31) . . .
44(4) . . .
43(4) . . .
39.7(34) . . .
37.4(32) . . .
39.4(34) . . .
35.2(32) . . .
35.1(33) . . .
33.7(31) . . .
31.7(31) . . .
40.1(33) . . .
41.0(33) . . .
34.8(33) . . .
27.3(27) . . .
38.0(32) . . .
33.1(30) . . .
40(4) . . .
31.9(30) . . .
32.3(31) . . .
39.1(34) . . .
40.4(33) . . .
32.6(30) . . .
38.6(34) . . .
30.3(29) . . .
33.1(32) . . .
29.4(28) . . .
42.5(35) . . .
37.2(35) . . .
39(4) . . .
29.5(30) . . .
37.1(32) . . .
36.9(32) . . .
39.0(34) . . .
38.1(33) . . .
31.5(30) . . .
30.5(29) . . .
30.5(30) . . .
40.0(35) . . .
36.3(32) . . .
31.1(30) . . .
30.5(29) . . .
32.2(34) . . .
24.4(29) . . .
28.8(29) . . .
32.9(30) . . .
30.5(30) . . .
34.2(31) . . .
30.4(30) . . .
43(4) . . .
37.1(32) . . .
38.7(32) . . .
32.7(30) . . .
36.9(33) . . .
47(4) . . .
39.4(33) . . .
37.7(32) . . .
37.2(34) . . .
38.4(34) . . .
45(4) . . .
33.8(30) . . .
36.0(32) . . .
34.7(32) . . .
37.8(35) . . .
36.9(32) . . .
40.5(33) . . .
42.6(35) . . .
37.1(34) . . .
34.4(33) . . .
34.1(33) . . .
26.1(27) . . .
34.5(31) . . .
32.5(32) . . .
30.4(30) . . .
34.7(31) . . .
40.7(34) . . .
39.1(32) . . .
27.1(27) . . .
35.6(35) . . .
31.1(29) . . .
37.9(32) . . .
36.6(32) . . .
37.5(33) . . .
32.7(30) . . .
33.1(31) . . .
33.7(30) . . .
44(4) . . .
38.3(34) . . .
41(4) . . .
38.8(34) . . .
43.0(34) . . .
37.5(32) . . .
37.8(33) . . .
39.3(34) . . .
33.3(30) . . .
29.4(28) . . .
45(4) . . .
35.2(32) . . .
35.0(31) . . .
32.8(31) . . .
38.2(32) . . .
27.1(28) . . .
34.7(33) . . .
40.2(34) . . .
44(4) . . .
29.3(28) . . .
34.3(35) . . .
37(4) . . .
40(4) . . .
37.1(32) . . .
31.1(31) . . .
36.8(34) . . .
34.5(32) . . .
38.4(32) . . .
36.7(32) . . .
41.8(34) . . .
38.4(33) . . .
41(4) . . .
28.9(27) . . .
38.6(33) . . .
48(4) . . .
44(4) . . .
38.9(33) . . .
34.3(31) . . .
40.0(33) . . .
31.6(30) . . .
40(4) . . .
36.7(32) . . .
39.1(33) . . .
36.9(32) . . .
34.5(31) . . .
36.5(33) . . .
38.3(33) . . .
39.3(34) . . .
34.5(32) . . .
28.7(31) . . .
41(4) . . .
30.9(30) . . .
44.8(35) . . .
31.9(31) . . .
27.2(28) . . .
34.4(34) . . .
39.8(34) . . .
36.7(31) . . .
31.4(30) . . .
38.1(34) . . .
35.9(34) . . .
31.5(29) . . .
44.3(35) . . .
27.5(28) . . .
35.9(31) . . .
38.1(35) . . .
40.3(35) . . .
38.8(33) . . .
30.4(29) . . .
38(4) . . .
32.8(32) . . .
36.7(32) . . .
45.3(35) . . .
40.7(33) . . .
35.3(31) . . .
36.5(33) . . .
41.0(35) . . .
50(4) . . .
38.5(32) . . .
34.7(32) . . .
38.4(34) . . .
36.7(34) . . .
30.3(29) . . .
34.7(31) . . .
28.9(29) . . .
31.5(32) . . .
39.6(34) . . .
29.7(29) . . .
33.9(31) . . .
37.5(32) . . .
31.5(29) . . .
23.8(25) . . .
34.7(31) . . .
29.0(29) . . .
30.6(29) . . .
41.0(34) . . .
38.4(32) . . .
28.9(28) . . .
33.1(30) . . .
34.3(33) . . .
31.7(31) . . .
33.1(30) . . .
36.4(31) . . .
42(4) . . .
35.4(33) . . .
34.3(31) . . .
38.5(33) . . .
39.4(32) . . .
33.6(30) . . .
39(4) . . .
31.1(30) . . .
41.5(35) . . .
39.5(32) . . .
40.7(33) . . .
35.5(33) . . .
37.1(32) . . .
47(4) . . .
44.3(35) . . .
47(4) . . .
45(4) . . .
28.4(28) . . .
34.9(31) . . .
30.9(29) . . .
35.0(31) . . .
36.0(35) . . .
37.1(34) . . .
37.2(33) . . .
37.9(33) . . .
33.2(31) . . .
30.1(31) . . .
38(4) . . .
47(4) . . .
35.7(32) . . .
35.9(32) . . .
34.3(33) . . .
32.2(31) . . .
39.6(33) . . .
35.8(32) . . .
37.4(33) . . .
40.6(34) . . .
37.8(33) . . .
34.2(31) . . .
33.6(31) . . .
41.2(35) . . .
33.8(32) . . .
40.6(34) . . .
32.5(30) . . .
33.9(30) . . .
35.8(31) . . .
37.6(33) . . .
31.0(30) . . .
34.3(31) . . .
36.7(32) . . .
34.6(34) . . .
41(4) . . .
44(4) . . .
24.6(26) . . .
49(4) . . .
39.4(35) . . .
33.3(29) . . .
30.3(28) . . .
37.9(32) . . .
37.2(33) . . .
35.2(32) . . .
30.0(29) . . .
34.2(31) . . .
37.2(32) . . .
42(4) . . .
34.0(33) . . .
35.3(32) . . .
27.4(27) . . .
36.8(32) . . .
44(4) . . .
33.1(32) . . .
44(4) . . .
44.5(35) . . .
31.7(31) . . .
32.0(29) . . .
36.6(33) . . .
40.2(34) . . .
34.2(30) . . .
38.6(32) . . .
43(4) . . .
31.3(29) . . .
37.1(35) . . .
34.3(30) . . .
32.7(30) . . .
36.0(34) . . .
40(4) . . .
34.0(30) . . .
36.5(31) . . .
35.1(31) . . .
47(4) . . .
37.2(32) . . .
37.3(33) . . .
30.0(29) . . .
26.5(27) . . .
41(4) . . .
35.8(34) . . .
32.2(30) . . .
34.5(31) . . .
35(4) . . .
34.1(33) . . .
35.9(32) . . .
36.1(32) . . .
47(4) . . .
43(4) . . .
35.5(31) . . .
41.7(33) . . .
38.0(32) . . .
40.0(33) . . .
31.2(29) . . .
34.5(34) . . .
44(4) . . .
41.6(34) . . .
31.8(30) . . .
36.4(35) . . .
42(4) . . .
35.5(33) . . .
34.5(31) . . .
37.3(32) . . .
33.6(31) . . .
42(4) . . .
36.2(32) . . .
33.0(30) . . .
31.4(29) . . .
33.2(32) . . .
36.1(34) . . .
35.1(32) . . .
31.3(30) . . .
34.9(31) . . .
37.8(33) . . .
30.1(28) . . .
45(4) . . .
34.9(32) . . .
32.6(30) . . .
36.1(33) . . .
37(4) . . .
27.6(28) . . .
29.3(29) . . .
31.0(30) . . .
27.3(29) . . .
33.0(31) . . .
39.5(34) . . .
35.8(31) . . .
32.4(30) . . .
38.2(33) . . .
46(4) . . .
45.0(34) . . .
43.5(35) . . .
35.6(32) . . .
38.4(34) . . .
35.3(32) . . .
37.0(31) . . .
44.4(35) . . .
27.8(28) . . .
41(4) . . .
32.2(31) . . .
27.2(27) . . .
35.6(31) . . .
41.7(34) . . .
34.9(31) . . .
30.0(29) . . .
37.6(32) . . .
35.8(31) . . .
43(4) . . .
37.6(35) . . .
33.7(31) . . .
30.8(29) . . .
24.6(26) . . .
43(4) . . .
33.5(31) . . .
31.6(30) . . .
44(4) . . .
35.5(32) . . .
35.3(32) . . .
41(4) . . .
33.8(31) . . .
39.3(33) . . .
28.2(28) . . .
37.5(33) . . .
33.8(31) . . .
35.2(32) . . .
32.3(30) . . .
40.2(34) . . .
42(4) . . .
35.0(34) . . .
35.2(32) . . .
35.3(31) . . .
35.8(32) . . .
32.3(31) . . .
35.2(33) . . .
41(4) . . .
32.8(30) . . .
31.2(29) . . .
33.7(32) . . .
36.5(34) . . .
33.9(32) . . .
29.4(28) . . .
35.5(33) . . .
37.4(35) . . .
29.5(28) . . .
36.8(33) . . .
33.8(30) . . .
32.2(31) . . .
28.6(31) . . .
28.1(29) . . .
40.0(33) . . .
39.0(33) . . .
32.6(31) . . .
40(4) . . .
42.0(34) . . .
36.7(31) . . .
40.8(34) . . .
38.0(34) . . .
33.2(31) . . .
36.5(33) . . .
31.9(29) . . .
34.0(30) . . .
32.6(30) . . .
37.8(34) . . .
38.5(33) . . .
32.8(30) . . .
33.6(31) . . .
32.5(32) . . .
32.3(32) . . .
42(4) . . .
31.2(29) . . .
32.1(30) . . .
46(4) . . .
32.2(30) . . .
36.3(32) . . .
28.9(28) . . .
30.3(31) . . .
28.3(29) . . .
33.6(34) . . .
29.5(31) . . .
29.3(29) . . .
39.4(33) . . .
36.8(33) . . .
37.0(32) . . .
31.4(29) . . .
37.1(32) . . .
26.6(27) . . .
40(4) . . .
28.5(28) . . .
32.8(33) . . .
30.9(29) . . .
34.4(31) . . .
28.0(29) . . .
35.3(31) . . .
45(4) . . .
34.6(31) . . .
42(4) . . .
33.3(31) . . .
42(4) . . .
26.7(26) . . .
30.3(29) . . .
32.1(30) . . .
40.0(35) . . .
43.3(35) . . .
32.1(29) . . .
35.4(32) . . .
32.9(30) . . .
38.0(34) . . .
38.4(35) . . .
34.1(31) . . .
37.4(32) . . .
27.0(27) . . .
41(4) . . .
43(4) . . .
37.2(32) . . .
38.6(33) . . .
31.0(29) . . .
33.0(31) . . .
32.0(32) . . .
33.3(30) . . .
43(4) . . .
38.9(34) . . .
32.5(32) . . .
29.3(28) . . .
36.8(32) . . .
43.0(34) . . .
36.7(31) . . .
32.4(33) . . .
30.5(33) . . .
37.5(32) . . .
42.5(35) . . .
36.3(33) . . .
39.2(34) . . .
46(4) . . .
33.2(30) . . .
30.7(29) . . .
34.1(32) . . .
39.6(34) . . .
39.5(35) . . .
35.4(31) . . .
41(4) . . .
34.7(32) . . .
37.6(32) . . .
35.1(32) . . .
29.0(28) . . .
27.5(28) . . .
33.7(33) . . .
34.5(32) . . .
28.7(28) . . .
34.5(31) . . .
32.0(30) . . .
29.9(30) . . .
40(4) . . .
33.1(30) . . .
31.3(29) . . .
28.7(30) . . .
38.3(34) . . .
37.3(31) . . .
38.3(32) . . .
34.0(32) . . .
31.8(29) . . .
34.1(33) . . .
35.3(32) . . .
40.7(33) . . .
33.0(30) . . .
39.6(34) . . .
35.9(32) . . .
30.6(29) . . .
30.1(29) . . .
32.5(30) . . .
26.6(26) . . .
32.6(32) . . .
36.0(32) . . .
43.0(34) . . .
33.5(30) . . .
34.4(31) . . .
32.3(31) . . .
40.1(34) . . .
35.6(31) . . .
37.7(32) . . .
26.2(26) . . .
26.9(26) . . .
40.3(34) . . .
31.9(30) . . .
40.8(34) . . .
43(4) . . .
33.1(31) . . .
34.6(31) . . .
31.4(29) . . .
35.2(32) . . .
38.9(34) . . .
31.3(31) . . .
33.6(31) . . .
30.7(29) . . .
35.6(32) . . .
31.2(29) . . .
32.8(33) . . .
40.3(34) . . .
50(4) . . .
36.5(32) . . .
37.8(34) . . .
30.8(29) . . .
37.6(33) . . .
38.2(33) . . .
41.3(34) . . .
39(4) . . .
31.1(30) . . .
40.0(34) . . .
34.8(30) . . .
37.9(32) . . .
40(4) . . .
38.3(34) . . .
32.6(30) . . .
36.9(31) . . .
46(4) . . .
34.9(33) . . .
33.7(31) . . .
31.5(29) . . .
32.5(30) . . .
38.0(33) . . .
30.8(30) . . .
31.3(30) . . .
33.9(30) . . .
42(4) . . .
32.7(31) . . .
34.3(33) . . .
35.4(32) . . .
37.9(33) . . .
34.5(31) . . .
29.3(31) . . .
33.5(33) . . .
32.6(32) . . .
30.5(29) . . .
32.3(30) . . .
38.9(33) . . .
34.1(33) . . .
37.2(32) . . .
42.0(35) . . .
44(4) . . .
31.8(29) . . .
39.3(35) . . .
41.7(35) . . .
41.6(34) . . .
39.1(34) . . .
39.0(34) . . .
39.2(35) . . .
43.0(34) . . .
42.7(33) . . .
34.7(31) . . .
34.7(32) . . .
37.2(35) . . .
35.3(32) . . .
33.4(30) . . .
33.0(31) . . .
39.1(35) . . .
36.5(32) . . .
38.5(33) . . .
30.4(29) . . .
38.9(33) . . .
33.8(33) . . .
36.0(33) . . .
40.2(33) . . .
36.3(31) . . .
36.1(33) . . .
35.0(34) . . .
35.0(32) . . .
33.5(29) . . .
33.6(32) . . .
37.7(33) . . .
40.0(35) . . .
30.5(31) . . .
26.5(27) . . .
37.1(31) . . .
36.0(34) . . .
34.0(32) . . .
35.0(32) . . .
43.0(34) . . .
33.8(30) . . .
40.0(34) . . .
34.6(30) . . .
39.7(33) . . .
36.8(31) . . .
33.5(32) . . .
36.3(34) . . .
35.4(33) . . .
34.3(32) . . .
35.8(31) . . .
38.2(32) . . .
35.5(31) . . .
40(4) . . .
31.4(30) . . .
31.7(29) . . .
42.3(35) . . .
33.3(32) . . .
40.8(35) . . .
31.8(29) . . .
34.1(31) . . .
35.5(32) . . .
28.5(27) . . .
37.3(34) . . .
25.3(26) . . .
23.9(25) . . .
29.5(33) . . .
46(4) . . .
49(4) . . .
35.5(31) . . .
32.4(30) . . .
22.1(24) . . .
34.2(34) . . .
32.3(30) . . .
41.5(33) . . .
35.4(31) . . .
40.1(34) . . .
37(4) . . .
25.2(27) . . .
37.9(32) . . .
37.3(32) . . .
39.1(34) . . .
41(4) . . .
29.4(29) . . .
33.5(29) . . .
39.5(34) . . .
46(4) . . .
39(4) . . .
35.7(32) . . .
39.3(33) . . .
43.7(34) . . .
37.0(33) . . .
33.5(31) . . .
37.8(34) . . .
37.6(32) . . .
35.4(34) . . .
38.2(33) . . .
36.4(32) . . .
40(4) . . .
41.6(32) . . .
36.5(33) . . .
40(4) . . .
42.5(35) . . .
35.9(31) . . .
39.1(33) . . .
35.7(31) . . .
42(4) . . .
39.3(34) . . .
34.5(31) . . .
23.6(25) . . .
27.8(29) . . .
33.8(34) . . .
33.9(31) . . .
38.1(34) . . .
32.8(30) . . .
35.6(35) . . .
35.9(35) . . .
38.8(34) . . .
33.5(30) . . .
33.7(31) . . .
33.1(30) . . .
39(4) . . .
30.4(31) . . .
35.1(31) . . .
36.5(32) . . .
35.3(32) . . .
30.8(30) . . .
37.8(33) . . .
31.6(29) . . .
31.6(30) . . .
34.6(32) . . .
42(4) . . .
37.7(33) . . .
33.2(30) . . .
41.4(33) . . .
40(4) . . .
37.2(33) . . .
37.3(32) . . .
27.9(27) . . .
33.5(30) . . .
45(4) . . .
31.6(31) . . .
32.8(32) . . .
25.2(26) . . .
37.4(33) . . .
37.1(31) . . .
32.7(29) . . .
39.6(34) . . .
30.8(29) . . .
33.3(31) . . .
36.9(33) . . .
37.2(33) . . .
36.7(32) . . .
24.7(26) . . .
32.8(32) . . .
36.8(33) . . .
38.7(33) . . .
31.8(30) . . .
32.0(30) . . .
46(4) . . .
35.8(34) . . .
29.7(30) . . .
43(4) . . .
35.4(32) . . .
39.8(34) . . .
38(4) . . .
33.4(31) . . .
35.5(32) . . .
40.5(32) . . .
37.4(35) . . .
28.4(28) . . .
39.2(34) . . .
38.5(32) . . .
40.6(33) . . .
35.6(32) . . .
41(4) . . .
33.1(31) . . .
27.8(28) . . .
38.2(32) . . .
34.9(34) . . .
25.3(28) . . .
27.9(28) . . .
32.7(30) . . .
36.0(32) . . .
31.4(30) . . .
38(4) . . .
45(4) . . .
43.7(35) . . .
37.1(32) . . .
38.6(33) . . .
42(4) . . .
38.0(33) . . .
39.2(33) . . .
37.7(32) . . .
35.1(32) . . .
31.0(31) . . .
38.1(34) . . .
36.5(32) . . .
32.3(32) . . .
36.6(32) . . .
38.7(34) . . .
37(4) . . .
37.5(32) . . .
30.2(30) . . .
31.7(31) . . .
35.0(31) . . .
37.4(32) . . .
37.0(32) . . .
32.5(30) . . .
50(4) . . .
29.0(29) . . .
33.5(31) . . .
37.2(32) . . .
30.9(29) . . .
34.9(30) . . .
29.1(29) . . .
34.6(33) . . .
33.1(30) . . .
33.1(30) . . .
38.6(34) . . .
35.9(33) . . .
40.7(34) . . .
42.6(34) . . .
31.4(29) . . .
27.5(28) . . .
37.2(34) . . .
31.3(30) . . .
31.7(29) . . .
32.2(31) . . .
33.4(34) . . .
21.8(26) . . .
30.9(29) . . .
36.5(31) . . .
32.3(31) . . .
47(4) . . .
42.9(35) . . .
29.9(29) . . .
40.9(34) . . .
35.3(33) . . .
42(4) . . .
39.3(33) . . .
37.4(32) . . .
36.0(32) . . .
44(4) . . .
42(4) . . .
35.0(32) . . .
36.2(31) . . .
36.4(33) . . .
38.0(33) . . .
31.0(29) . . .
26.8(27) . . .
29.8(29) . . .
41.7(34) . . .
42(4) . . .
31.8(31) . . .
33.9(32) . . .
32.0(30) . . .
39.2(34) . . .
30.5(30) . . .
38.1(34) . . .
37.4(32) . . .
31.1(29) . . .
37.8(33) . . .
36.2(33) . . .
31.9(29) . . .
39.3(34) . . .
36.0(30) . . .
32.6(31) . . .
34.9(33) . . .
38.1(32) . . .
35.4(31) . . .
35.2(31) . . .
34.8(31) . . .
32.5(30) . . .
28.2(28) . . .
36.0(33) . . .
39.0(32) . . .
34.9(32) . . .
30.6(32) . . .
38(4) . . .
32.0(30) . . .
35.3(31) . . .
30.3(29) . . .
36.3(34) . . .
33.0(31) . . .
38.8(32) . . .
35.0(31) . . .
30.2(28) . . .
26.4(28) . . .
35.3(34) . . .
34.6(30) . . .
35.9(32) . . .
37.4(32) . . .
45(4) . . .
38.4(32) . . .
38.5(32) . . .
39.5(34) . . .
39.8(34) . . .
36.3(34) . . .
31.8(30) . . .
35.7(31) . . .
31.4(31) . . .
35.6(34) . . .
32.7(33) . . .
31.7(31) . . .
34.8(31) . . .
31.9(32) . . .
31.8(30) . . .
40.4(33) . . .
31.5(29) . . .
24.3(26) . . .
32.6(30) . . .
34.9(33) . . .
39(4) . . .
37.0(32) . . .
38.3(32) . . .
36(4) . . .
47(4) . . .
35.8(32) . . .
34.3(30) . . .
30.5(29) . . .
27.0(27) . . .
32.4(32) . . .
33.3(32) . . .
38.3(35) . . .
33.8(30) . . .
43.5(34) . . .
46(4) . . .
28.8(28) . . .
37.8(32) . . .
36.6(32) . . .
32.1(30) . . .
40(4) . . .
36.6(33) . . .
31.4(30) . . .
32.5(29) . . .
36.4(31) . . .
38(4) . . .
34.9(32) . . .
26.7(27) . . .
35.2(31) . . .
39.4(35) . . .
31.9(32) . . .
35.6(32) . . .
41.6(33) . . .
34.6(31) . . .
40.1(34) . . .
41(4) . . .
37.5(34) . . .
40.3(33) . . .
35.7(31) . . .
31.2(31) . . .
40.8(35) . . .
30.1(28) . . .
39.0(32) . . .
32.1(30) . . .
33.4(33) . . .
30.3(29) . . .
30.6(28) . . .
32.3(30) . . .
36.7(34) . . .
31.7(29) . . .
33.8(30) . . .
32.7(30) . . .
32.7(30) . . .
39.8(33) . . .
35.7(32) . . .
35.1(32) . . .
25.3(26) . . .
35.3(31) . . .
31.3(32) . . .
30.9(32) . . .
34.8(32) . . .
38.9(32) . . .
35.0(31) . . .
28.0(28) . . .
30.2(30) . . .
31.6(30) . . .
39.3(33) . . .
44.8(35) . . .
45(4) . . .
36.2(33) . . .
34.7(33) . . .
43.7(34) . . .
33.0(30) . . .
34.8(33) . . .
31.5(30) . . .
35.9(34) . . .
33.7(30) . . .
33.2(30) . . .
32.3(32) . . .
30.8(29) . . .
38.9(33) . . .
35.7(31) . . .
30.9(28) . . .
47(4) . . .
30.3(30) . . .
31.9(29) . . .
36.4(32) . . .
33.1(31) . . .
32.6(31) . . .
28.1(28) . . .
37.3(33) . . .
40.8(33) . . .
35.0(31) . . .
29.8(30) . . .
34.0(31) . . .
41.7(33) . . .
35.5(31) . . .
40.9(34) . . .
36.5(34) . . .
28.8(30) . . .
30.4(30) . . .
41.9(33) . . .
35.2(32) . . .
37(4) . . .
32.8(32) . . .
29.7(29) . . .
34.3(31) . . .
29.1(29) . . .
37.4(32) . . .
38.9(34) . . .
38.8(34) . . .
39.7(33) . . .
31.7(30) . . .
36.2(33) . . .
31.9(30) . . .
32.2(30) . . .
28.5(27) . . .
29.4(28) . . .
41(4) . . .
33.1(30) . . .
39.7(34) . . .
36.0(32) . . .
36.2(32) . . .
39(4) . . .
39(4) . . .
33.5(30) . . .
34.8(31) . . .
28.9(29) . . .
33.4(34) . . .
37(4) . . .
34.9(30) . . .
38.7(34) . . .
33.2(31) . . .
27.8(31) . . .
32.0(31) . . .
34.2(30) . . .
31.9(30) . . .
43(4) . . .
36.7(34) . . .
30.9(29) . . .
32.1(30) . . .
25.7(28) . . .
32.0(34) . . .
33.1(33) . . .
36.8(32) . . .
29.9(29) . . .
33.6(32) . . .
32.4(31) . . .
44(4) . . .
38.6(32) . . .
34.7(31) . . .
30.8(28) . . .
32.9(32) . . .
28.9(29) . . .
28.2(28) . . .
31.0(29) . . .
28.6(30) . . .
32.7(33) . . .
35.1(33) . . .
33.6(32) . . .
32.6(30) . . .
31.0(29) . . .
37.2(34) . . .
40(4) . . .
38.8(33) . . .
40.0(33) . . .
39(4) . . .
34.1(31) . . .
30.1(28) . . .
29.3(28) . . .
36.6(31) . . .
29.3(28) . . .
41(4) . . .
36.1(33) . . .
32.6(31) . . .
35.3(31) . . .
29.2(28) . . .
25.4(28) . . .
34.0(34) . . .
32.6(30) . . .
34.1(30) . . .
38.0(33) . . .
38.5(34) . . .
34.9(33) . . .
36.0(31) . . .
35.2(31) . . .
40.2(35) . . .
45(4) . . .
31.9(31) . . .
28.7(28) . . .
25.5(27) . . .
28.5(28) . . .
44(4) . . .
35.8(32) . . .
31.9(30) . . .
34.0(31) . . .
35.9(32) . . .
39.9(32) . . .
47(4) . . .
28.1(28) . . .
40.9(35) . . .
39.9(34) . . .
39.6(33) . . .
37.1(31) . . .
36.1(31) . . .
43(4) . . .
40.4(35) . . .
36.8(32) . . .
33.1(30) . . .
32.8(30) . . .
33.4(31) . . .
30.1(29) . . .
40(4) . . .
35.4(32) . . .
34.3(31) . . .
35.8(31) . . .
37.4(34) . . .
38.0(34) . . .
35.9(31) . . .
43(4) . . .
37.3(34) . . .
35.2(32) . . .
41.7(34) . . .
40.1(33) . . .
31.4(29) . . .
31.9(30) . . .
35.1(33) . . .
36.1(34) . . .
28.3(29) . . .
29.9(29) . . .
29.4(31) . . .
35.9(34) . . .
34.5(32) . . .
32.7(30) . . .
30.1(29) . . .
40(4) . . .
36.8(33) . . .
32.4(33) . . .
36.8(32) . . .
31.1(29) . . .
31.9(31) . . .
32.5(30) . . .
41.1(35) . . .
31.0(29) . . .
34.0(30) . . .
41.1(34) . . .
29.4(27) . . .
47(4) . . .
45.5(35) . . .
38.5(33) . . .
30.4(29) . . .
33.7(31) . . .
41.2(34) . . .
38.8(32) . . .
39.8(33) . . .
36.2(32) . . .
26.6(26) . . .
35.8(32) . . .
26.8(27) . . .
35.0(34) . . .
38(4) . . .
38(4) . . .
29.2(30) . . .
35.2(31) . . .
33.4(31) . . .
35.8(32) . . .
35.7(31) . . .
33.4(30) . . .
33.2(30) . . .
32.5(30) . . .
29.8(30) . . .
31.5(30) . . .
42.1(34) . . .
39.6(34) . . .
34.4(34) . . .
35.0(33) . . .
34.1(31) . . .
35.5(31) . . .
34.0(31) . . .
36.2(32) . . .
31.6(31) . . .
32.8(30) . . .
47(4) . . .
33.3(31) . . .
25.3(27) . . .
32.0(32) . . .
38.8(34) . . .
41.4(34) . . .
42.6(35) . . .
31.6(31) . . .
28.1(28) . . .
49(4) . . .
36.4(31) . . .
39.1(34) . . .
34.8(33) . . .
34.2(32) . . .
33.2(31) . . .
27.1(27) . . .
37.3(33) . . .
38.7(33) . . .
37.6(34) . . .
30.0(30) . . .
40.2(33) . . .
29.2(29) . . .
33.9(32) . . .
30.1(29) . . .
38.5(34) . . .
36.7(31) . . .
46(4) . . .
29.7(29) . . .
34.0(31) . . .
29.9(28) . . .
34.5(31) . . .
34.8(31) . . .
33.6(31) . . .
35.2(32) . . .
26.0(27) . . .
32.0(29) . . .
30.1(28) . . .
39(4) . . .
30.7(30) . . .
32.7(30) . . .
33.1(31) . . .
32.8(33) . . .
36.4(34) . . .
36.8(32) . . .
34.9(31) . . .
31.6(29) . . .
35.1(31) . . .
30.5(31) . . .
30.3(29) . . .
31.5(29) . . .
36.3(31) . . .
39.0(34) . . .
31.4(32) . . .
23.3(26) . . .
37.5(32) . . .
36.3(32) . . .
41(4) . . .
33.0(33) . . .
40(4) . . .
30.2(29) . . .
32.5(30) . . .
39.5(35) . . .
38.7(34) . . .
35.8(31) . . .
31.8(30) . . .
37.5(33) . . .
37.4(34) . . .
30.2(31) . . .
23.0(26) . . .
39.3(33) . . .
26.6(27) . . .
27.7(30) . . .
29.4(29) . . .
37.3(32) . . .
34.5(31) . . .
35.4(31) . . .
35.4(33) . . .
39.5(34) . . .
33.8(30) . . .
38.1(32) . . .
32.7(30) . . .
38.7(35) . . .
32.8(30) . . .
30.3(29) . . .
34.6(31) . . .
33.2(30) . . .
28.9(30) . . .
27.1(27) . . .
30.1(30) . . .
30.2(28) . . .
30.2(29) . . .
34.8(32) . . .
30.3(28) . . .
28.6(27) . . .
39.3(33) . . .
40(4) . . .
44(4) . . .
46(4) . . .
40.0(32) . . .
34.5(31) . . .
36.6(33) . . .
30.7(30) . . .
33.9(30) . . .
36.9(32) . . .
36.4(32) . . .
28.3(28) . . .
28.6(29) . . .
31.1(29) . . .
36.7(31) . . .
33.2(31) . . .
35.7(33) . . .
31.3(29) . . .
37.5(32) . . .
37.7(32) . . .
36.1(32) . . .
36.9(34) . . .
36.0(32) . . .
52(4) . . .
30.9(29) . . .
35.8(34) . . .
31.7(30) . . .
29.8(29) . . .
35.4(31) . . .
36.1(31) . . .
42(4) . . .
30.7(29) . . .
31.8(30) . . .
34.7(32) . . .
31.4(29) . . .
33.9(31) . . .
28.9(30) . . .
38.4(33) . . .
34.7(30) . . .
32.9(30) . . .
24.3(26) . . .
24.0(26) . . .
41(4) . . .
38.4(35) . . .
41.7(33) . . .
41.2(34) . . .
36.7(33) . . .
35.1(32) . . .
33.5(31) . . .
29.0(28) . . .
34.1(31) . . .
40(4) . . .
35.1(31) . . .
34.8(31) . . .
38.1(33) . . .
31.7(31) . . .
46(4) . . .
32.6(29) . . .
43.7(35) . . .
44.5(34) . . .
40(4) . . .
31.8(33) . . .
34.4(32) . . .
36.2(31) . . .
40(4) . . .
43(4) . . .
39.6(34) . . .
35.9(32) . . .
33.4(30) . . .
37.4(33) . . .
40.8(35) . . .
38.9(34) . . .
31.0(30) . . .
34.6(30) . . .
30.0(30) . . .
35.2(33) . . .
31.0(30) . . .
35.1(33) . . .
46(4) . . .
30.2(29) . . .
37.3(33) . . .
39.0(33) . . .
46(4) . . .
41.4(33) . . .
35.5(34) . . .
37.5(34) . . .
32.0(33) . . .
31.8(30) . . .
41.1(34) . . .
36.1(32) . . .
40(4) . . .
32.3(30) . . .
31.3(29) . . .
44(4) . . .
42(4) . . .
37.4(33) . . .
38.6(33) . . .
36.3(31) . . .
35.6(31) . . .
34.0(29) . . .
37.2(34) . . .
31.1(30) . . .
39.9(34) . . .
31.9(29) . . .
33.9(32) . . .
43(4) . . .
33.7(32) . . .
42.7(34) . . .
39.2(34) . . .
36.1(34) . . .
36.1(35) . . .
41.4(35) . . .
38.8(32) . . .
37.6(32) . . .
33.8(31) . . .
25.1(26) . . .
42(4) . . .
41.1(33) . . .
39.8(33) . . .
35.9(32) . . .
31.2(29) . . .
30.5(30) . . .
42.1(33) . . .
29.6(29) . . .
38.9(34) . . .
31.1(30) . . .
31.5(31) . . .
32.5(29) . . .
39.1(34) . . .
42(4) . . .
34.6(32) . . .
31.8(30) . . .
29.6(29) . . .
37.3(32) . . .
38.9(32) . . .
35.5(32) . . .
34.1(31) . . .
31.9(29) . . .
29.7(30) . . .
31.1(30) . . .
39.5(35) . . .
36.3(32) . . .
38.6(33) . . .
35.7(33) . . .
39(4) . . .
34.7(31) . . .
30.1(28) . . .
38.7(32) . . .
33.9(31) . . .
36.3(34) . . .
45(4) . . .
37.3(33) . . .
26.0(26) . . .
36.1(32) . . .
27.5(27) . . .
30.8(29) . . .
28.8(28) . . .
30.7(31) . . .
32.7(32) . . .
34.8(32) . . .
34.9(33) . . .
33.5(30) . . .
34.8(32) . . .
37.0(33) . . .
35.8(32) . . .
28.8(28) . . .
37.8(32) . . .
34.2(31) . . .
32.6(31) . . .
32.9(30) . . .
30.4(29) . . .
33.3(30) . . .
39.1(34) . . .
28.3(30) . . .
28.2(30) . . .
29.3(29) . . .
32.4(30) . . .
32.4(31) . . .
35.6(33) . . .
32.2(31) . . .
33.8(30) . . .
33.7(31) . . .
34.3(32) . . .
34.3(33) . . .
39(4) . . .
35.1(31) . . .
34.7(31) . . .
41.1(34) . . .
28.2(29) . . .
30.8(30) . . .
35.9(32) . . .
37.7(32) . . .
29.2(28) . . .
34.0(32) . . .
31.8(32) . . .
25.0(26) . . .
39.6(33) . . .
32.8(32) . . .
38(4) . . .
31.6(30) . . .
31.9(30) . . .
40.0(35) . . .
37.6(34) . . .
33.3(33) . . .
33.8(34) . . .
36.3(32) . . .
24.8(26) . . .
31.9(33) . . .
27.7(28) . . .
36.1(33) . . .
29.2(29) . . .
33.0(30) . . .
40(4) . . .
48(4) . . .
49(4) . . .
43.5(34) . . .
40.4(34) . . .
34.5(31) . . .
33.4(30) . . .
41.8(34) . . .
39.1(32) . . .
38(4) . . .
38.3(34) . . .
34.2(30) . . .
28.1(27) . . .
36.2(32) . . .
30.7(29) . . .
37.0(34) . . .
25.1(27) . . .
34.3(33) . . .
33.2(30) . . .
34.6(31) . . .
31.0(29) . . .
30.8(29) . . .
34.9(31) . . .
34.4(30) . . .
28.7(28) . . .
34.0(31) . . .
28.2(28) . . .
31.0(30) . . .
36.7(32) . . .
30.5(32) . . .
32.0(31) . . .
32.4(31) . . .
34.4(33) . . .
32.7(29) . . .
32.1(30) . . .
39(4) . . .
26.7(26) . . .
33.7(30) . . .
32.5(30) . . .
31.4(31) . . .
36(4) . . .
33.2(30) . . .
40.3(33) . . .
37.9(32) . . .
40.3(35) . . .
39.3(34) . . .
49(4) . . .
40.7(33) . . .
46(4) . . .
31.0(29) . . .
30.6(31) . . .
35.0(32) . . .
41.6(34) . . .
40.0(34) . . .
31.0(29) . . .
32.6(31) . . .
26.6(27) . . .
34.7(31) . . .
29.7(29) . . .
38.7(34) . . .
31.2(31) . . .
32.4(30) . . .
36.5(32) . . .
35.3(32) . . .
33.1(29) . . .
38.9(34) . . .
31.3(29) . . .
33.8(30) . . .
31.1(30) . . .
31.7(32) . . .
30.5(30) . . .
31.5(29) . . .
43.2(35) . . .
39.1(34) . . .
36.0(32) . . .
32.2(30) . . .
32.4(30) . . .
28.2(28) . . .
35.2(32) . . .
36.8(33) . . .
29.8(29) . . .
36.8(32) . . .
45.0(35) . . .
39.5(34) . . .
33.6(32) . . .
26.8(28) . . .
36.9(31) . . .
33.1(30) . . .
33.8(34) . . .
28.2(28) . . .
29.3(28) . . .
33.5(30) . . .
34.5(31) . . .
40.0(35) . . .
31.2(33) . . .
32.9(31) . . .
30.9(29) . . .
34.7(31) . . .
38.2(32) . . .
40.1(35) . . .
36.8(32) . . .
42.2(34) . . .
35.0(30) . . .
34.4(31) . . .
36.8(33) . . .
39.3(33) . . .
35.8(31) . . .
34.8(30) . . .
38.8(35) . . .
40(4) . . .
34.4(31) . . .
35.2(31) . . .
28.5(28) . . .
35.0(31) . . .
33.3(31) . . .
28.8(28) . . .
34.1(31) . . .
37.2(35) . . .
31.6(30) . . .
36.7(32) . . .
34.6(30) . . .
31.3(30) . . .
32.9(31) . . .
28.5(29) . . .
35.1(31) . . .
35.0(32) . . .
36.7(32) . . .
32.6(30) . . .
31.6(29) . . .
43(4) . . .
36.4(31) . . .
27.3(27) . . .
35.8(32) . . .
42(4) . . .
35.7(33) . . .
30.6(29) . . .
31.0(29) . . .
28.8(29) . . .
29.4(32) . . .
30.1(29) . . .
29.0(28) . . .
34.4(30) . . .
39.5(34) . . .
40(4) . . .
39.0(34) . . .
39.0(32) . . .
28.8(28) . . .
34.0(31) . . .
36.6(33) . . .
43(4) . . .
41.9(34) . . .
31.3(29) . . .
39(4) . . .
25.6(29) . . .
40(4) . . .
32.0(29) . . .
31.9(30) . . .
29.9(30) . . .
36.0(31) . . .
39.5(33) . . .
35.8(31) . . .
33.8(31) . . .
27.7(29) . . .
32.0(31) . . .
39.2(34) . . .
37.8(32) . . .
38.0(34) . . .
30.8(30) . . .
39.1(35) . . .
37.6(32) . . .
33.6(31) . . .
35.8(34) . . .
35.2(31) . . .
37.3(32) . . .
37.1(32) . . .
37.5(32) . . .
29.2(28) . . .
33.0(30) . . .
43.0(34) . . .
43.4(34) . . .
31.3(30) . . .
31.4(32) . . .
35.9(34) . . .
31.8(31) . . .
32.7(30) . . .
34.9(31) . . .
29.4(30) . . .
34.9(34) . . .
41(4) . . .
32.5(29) . . .
36.9(33) . . .
28.5(28) . . .
36.3(34) . . .
37.0(33) . . .
35.2(32) . . .
34.2(30) . . .
34.3(31) . . .
32.6(32) . . .
44(4) . . .
39.3(33) . . .
37.8(33) . . .
27.8(29) . . .
37.8(34) . . .
36.8(32) . . .
29.4(29) . . .
27.9(27) . . .
31.8(31) . . .
46(4) . . .
42.9(34) . . .
39.0(33) . . .
39.9(33) . . .
36.3(34) . . .
38(4) . . .
33.8(32) . . .
37.8(32) . . .
31.7(30) . . .
31.5(29) . . .
36.6(30) . . .
35.4(31) . . .
29.1(28) . . .
38.3(32) . . .
32.3(30) . . .
34.5(33) . . .
36.2(33) . . .
42.9(35) . . .
31.9(29) . . .
39.7(34) . . .
29.9(27) . . .
31.6(30) . . .
28.1(27) . . .
34.5(33) . . .
35.1(35) . . .
26.2(27) . . .
30.4(29) . . .
32.6(29) . . .
33.3(33) . . .
36.1(34) . . .
33.9(30) . . .
41.9(33) . . .
33.3(30) . . .
35.8(33) . . .
25.9(27) . . .
34.0(33) . . .
35.7(31) . . .
38.1(32) . . .
36.7(32) . . .
34.8(32) . . .
35.4(32) . . .
35.9(31) . . .
40.4(33) . . .
31.6(29) . . .
30.2(30) . . .
29.6(29) . . .
36.0(32) . . .
24.2(27) . . .
40(4) . . .
40(4) . . .
30.9(30) . . .
30.9(29) . . .
31.3(30) . . .
31.8(31) . . .
35.5(34) . . .
40.9(34) . . .
38.8(33) . . .
33.8(33) . . .
35.3(32) . . .
36.6(33) . . .
37.1(32) . . .
45(4) . . .
32.3(30) . . .
34.5(33) . . .
32.5(30) . . .
32.2(30) . . .
39.3(33) . . .
35.2(31) . . .
37.3(34) . . .
35.3(30) . . .
39.7(33) . . .
31.3(30) . . .
30.8(31) . . .
40(4) . . .
37.2(33) . . .
39.3(34) . . .
38.6(32) . . .
35.9(32) . . .
33.5(33) . . .
33.3(30) . . .
47(4) . . .
31.0(30) . . .
28.8(28) . . .
40(4) . . .
34.4(33) . . .
34.6(31) . . .
37.5(32) . . .
35.9(32) . . .
40(4) . . .
37.7(33) . . .
31.1(29) . . .
33.9(32) . . .
35.0(33) . . .
33.8(31) . . .
35.7(32) . . .
34.2(31) . . .
31.8(29) . . .
43(4) . . .
39.1(33) . . .
44(4) . . .
38.6(32) . . .
29.3(31) . . .
36.0(33) . . .
33.2(32) . . .
39.1(34) . . .
32.6(31) . . .
45(4) . . .
33.0(30) . . .
31.0(31) . . .
37.8(32) . . .
37.4(32) . . .
42(4) . . .
35.9(33) . . .
40.5(35) . . .
37.9(33) . . .
36.2(31) . . .
35.9(34) . . .
39.6(35) . . .
30.0(28) . . .
41.3(34) . . .
31.5(29) . . .
34.0(31) . . .
24.7(28) . . .
38.5(34) . . .
41.8(34) . . .
47(4) . . .
34.1(31) . . .
32.8(33) . . .
36.1(34) . . .
39.8(33) . . .
37.7(32) . . .
41.2(34) . . .
39.4(34) . . .
38.0(32) . . .
30.3(29) . . .
29.3(28) . . .
30.0(31) . . .
34.3(35) . . .
37.4(34) . . .
31.2(29) . . .
31.2(29) . . .
35.2(31) . . .
29.9(29) . . .
41(4) . . .
39.1(33) . . .
30.8(29) . . .
27.8(31) . . .
29.5(30) . . .
38.4(35) . . .
37.3(32) . . .
31.1(30) . . .
37.7(35) . . .
31.6(32) . . .
19.6(24) . . .
33.5(30) . . .
37.0(32) . . .
34.7(31) . . .
34.6(32) . . .
35.4(32) . . .
33.8(31) . . .
31.8(30) . . .
29.6(31) . . .
35.3(31) . . .
38.8(32) . . .
32.9(29) . . .
36.1(32) . . .
39.9(34) . . .
34.7(33) . . .
34.5(31) . . .
40.2(33) . . .
37.5(32) . . .
30.3(31) . . .
36.0(34) . . .
36.0(32) . . .
35.1(30) . . .
26.5(28) . . .
31.1(31) . . .
29.8(29) . . .
34.1(30) . . .
29.7(30) . . .
29.9(28) . . .
38.6(34) . . .
37.5(35) . . .
31.3(30) . . .
35.5(31) . . .
41(4) . . .
29.8(30) . . .
37.0(32) . . .
34.2(30) . . .
37.4(34) . . .
30.7(29) . . .
35.2(33) . . .
31.9(30) . . .
40.7(33) . . .
33.0(30) . . .
34.5(32) . . .
31.4(30) . . .
29.3(31) . . .
50(4) . . .
30.2(29) . . .
30.0(29) . . .
39(4) . . .
32.4(30) . . .
32.0(30) . . .
45(4) . . .
37(4) . . .
33.9(33) . . .
33.5(31) . . .
34.3(31) . . .
32.7(31) . . .
27.2(30) . . .
34.3(32) . . .
44.5(35) . . .
36.2(31) . . .
32.3(30) . . .
33.9(31) . . .
24.4(25) . . .
31.5(29) . . .
31.4(29) . . .
30.9(30) . . .
38.5(34) . . .
37.7(33) . . .
32.2(29) . . .
23.3(25) . . .
31.6(31) . . .
29.9(30) . . .
34.4(31) . . .
37.3(32) . . .
33.8(30) . . .
37.6(34) . . .
33.4(31) . . .
34.9(32) . . .
34.1(32) . . .
38.5(33) . . .
36(4) . . .
31.3(30) . . .
37.7(34) . . .
37.1(31) . . .
42.7(34) . . .
32.6(30) . . .
33.2(33) . . .
35.3(34) . . .
40.4(34) . . .
35.7(31) . . .
32.2(31) . . .
32.4(31) . . .
26.7(27) . . .
27.2(27) . . .
38.9(32) . . .
36.0(33) . . .
32.1(32) . . .
33.5(32) . . .
31.7(29) . . .
26.7(27) . . .
38.1(33) . . .
42.2(35) . . .
30.3(30) . . .
36.2(31) . . .
44(4) . . .
37.5(34) . . .
26.6(28) . . .
23.7(26) . . .
38.9(32) . . .
41(4) . . .
40.3(34) . . .
42.5(34) . . .
34.3(30) . . .
28.5(28) . . .
39.3(34) . . .
31.4(30) . . .
32.6(29) . . .
45.6(35) . . .
41.7(34) . . .
32.9(31) . . .
30.2(30) . . .
30.6(28) . . .
31.2(29) . . .
28.3(28) . . .
31.9(29) . . .
40.0(34) . . .
35.9(31) . . .
35.7(31) . . .
33.2(30) . . .
36.4(32) . . .
39.8(35) . . .
29.8(30) . . .
31.2(29) . . .
37.3(32) . . .
36.8(34) . . .
32.6(31) . . .
28.5(28) . . .
29.1(28) . . .
27.6(28) . . .
41(4) . . .
35.4(33) . . .
31.1(29) . . .
39.8(33) . . .
32.2(29) . . .
39(4) . . .
34.3(31) . . .
35.8(32) . . .
41.3(33) . . .
39.5(33) . . .
32.6(30) . . .
35.8(32) . . .
31.2(30) . . .
35.4(31) . . .
37.0(33) . . .
31.9(32) . . .
30.4(30) . . .
40(4) . . .
36.2(31) . . .
29.3(30) . . .
28.3(29) . . .
31.7(32) . . .
30.5(30) . . .
34.2(30) . . .
36.2(32) . . .
45(4) . . .
36.3(33) . . .
31.7(29) . . .
28.3(28) . . .
36.1(34) . . .
25.4(26) . . .
34.8(31) . . .
32.2(29) . . .
36.5(32) . . .
39.3(33) . . .
32.6(33) . . .
36.2(32) . . .
42.9(34) . . .
28.5(28) . . .
39.3(34) . . .
38.9(35) . . .
34.1(30) . . .
28.7(29) . . .
29.9(28) . . .
32.4(30) . . .
38.2(34) . . .
35.2(31) . . .
25.1(27) . . .
35.9(32) . . .
33.4(30) . . .
35.1(30) . . .
29.5(28) . . .
34.4(31) . . .
37.9(33) . . .
36.5(33) . . .
32.3(31) . . .
34.4(31) . . .
28.1(28) . . .
39.0(34) . . .
40(4) . . .
34.3(32) . . .
35.5(33) . . .
35.7(31) . . .
32.9(31) . . .
27.4(28) . . .
39(4) . . .
29.9(29) . . .
29.4(29) . . .
35.7(34) . . .
40(4) . . .
32.8(32) . . .
28.1(29) . . .
41.0(35) . . .
36.3(33) . . .
38.1(34) . . .
43(4) . . .
32.1(29) . . .
39.5(33) . . .
34.0(31) . . .
37.5(34) . . .
42(4) . . .
30.8(29) . . .
33.7(30) . . .
40.2(33) . . .
35.0(31) . . .
36.5(32) . . .
40.2(33) . . .
34.6(31) . . .
48(4) . . .
38.9(35) . . .
29.1(29) . . .
25.4(26) . . .
34.0(30) . . .
32.8(31) . . .
28.2(30) . . .
45(4) . . .
33.9(30) . . .
42.5(34) . . .
40.8(35) . . .
35.0(32) . . .
36.4(31) . . .
33.4(30) . . .
37.2(32) . . .
32.0(29) . . .
35.8(34) . . .
32.7(31) . . .
27.7(28) . . .
38.9(34) . . .
49(4) . . .
32.9(32) . . .
35.9(33) . . .
41.6(34) . . .
36.1(31) . . .
42(4) . . .
39.4(34) . . .
30.5(28) . . .
36.0(31) . . .
46(4) . . .
36.8(32) . . .
29.8(29) . . .
26.7(29) . . .
44.4(35) . . .
26.3(27) . . .
32.1(30) . . .
33.4(30) . . .
36.3(32) . . .
41.4(34) . . .
33.4(30) . . .
32.4(32) . . .
31.9(30) . . .
34.1(30) . . .
32.0(29) . . .
35.9(31) . . .
32.9(30) . . .
30.0(29) . . .
39.4(33) . . .
29.0(28) . . .
34.0(33) . . .
37.2(33) . . .
35.0(33) . . .
42.9(34) . . .
36.6(31) . . .
33.6(31) . . .
34.1(32) . . .
37.9(32) . . .
35.0(31) . . .
34.5(31) . . .
33.5(31) . . .
32.0(32) . . .
33.3(32) . . .
39.3(33) . . .
34.5(30) . . .
37.1(32) . . .
46(4) . . .
37.0(32) . . .
34.6(30) . . .
29.1(29) . . .
37(4) . . .
36.4(33) . . .
36.7(32) . . .
39.8(33) . . .
32.4(30) . . .
37.0(32) . . .
35.0(31) . . .
40.7(34) . . .
36.1(32) . . .
33.0(30) . . .
34.8(31) . . .
34.5(32) . . .
37.3(33) . . .
31.4(29) . . .
32.0(31) . . .
35.7(33) . . .
41.3(35) . . .
44.1(35) . . .
40.5(33) . . .
34.2(31) . . .
34.6(33) . . .
39(4) . . .
27.2(27) . . .
38.3(33) . . .
27.8(29) . . .
46(4) . . .
35.2(32) . . .
45.8(35) . . .
36.4(32) . . .
38.2(35) . . .
32.8(32) . . .
37.7(33) . . .
33.7(31) . . .
33.1(31) . . .
34.0(31) . . .
32.7(30) . . .
37.3(31) . . .
40.7(33) . . .
34.7(31) . . .
31.4(28) . . .
31.0(29) . . .
33.2(32) . . .
36.0(31) . . .
40.4(33) . . .
37.1(32) . . .
40(4) . . .
42.3(35) . . .
35.2(31) . . .
27.9(28) . . .
33.4(31) . . .
35.1(33) . . .
28.8(29) . . .
29.6(29) . . .
30.0(29) . . .
33.1(31) . . .
38.5(33) . . .
35.7(31) . . .
41.5(33) . . .
30.7(30) . . .
43(4) . . .
36.5(32) . . .
31.3(30) . . .
43.5(35) . . .
37.2(32) . . .
40(4) . . .
43(4) . . .
38.4(32) . . .
33.2(30) . . .
34.6(32) . . .
31.5(29) . . .
30.6(29) . . .
36.5(31) . . .
32.5(30) . . .
31.6(30) . . .
34.6(33) . . .
33.6(31) . . .
31.8(31) . . .
32.4(29) . . .
33.8(31) . . .
39(4) . . .
36.9(32) . . .
35.4(31) . . .
31.9(29) . . .
33.1(32) . . .
33.0(32) . . .
36.9(32) . . .
48(4) . . .
33.3(31) . . .
26.7(28) . . .
33.2(33) . . .
39.1(34) . . .
40.8(33) . . .
39.0(33) . . .
35.3(33) . . .
40(4) . . .
29.1(29) . . .
42.1(35) . . .
35.1(31) . . .
34.0(34) . . .
36.3(35) . . .
31.7(31) . . .
27.8(28) . . .
30.9(30) . . .
32.3(33) . . .
24.8(25) . . .
34.3(33) . . .
29.6(28) . . .
32.2(29) . . .
32.5(32) . . .
31.4(30) . . .
34.9(32) . . .
32.9(30) . . .
44.0(35) . . .
34.2(32) . . .
35.3(33) . . .
31.9(30) . . .
28.7(28) . . .
36.0(31) . . .
43(4) . . .
33.3(31) . . .
34.3(30) . . .
31.4(29) . . .
33.6(31) . . .
26.4(27) . . .
35.8(34) . . .
41.5(34) . . .
40.2(33) . . .
38(4) . . .
35.0(34) . . .
40.0(32) . . .
38.0(32) . . .
30.0(28) . . .
36.4(32) . . .
42(4) . . .
34.8(32) . . .
31.8(29) . . .
30.0(28) . . .
34.4(30) . . .
39.0(35) . . .
33.5(31) . . .
27.5(28) . . .
32.4(30) . . .
35.0(33) . . .
29.4(29) . . .
32.2(30) . . .
34.6(31) . . .
38.1(32) . . .
39.6(35) . . .
39.3(33) . . .
42.4(35) . . .
35.3(31) . . .
41.4(35) . . .
38.7(35) . . .
35.5(34) . . .
28.6(28) . . .
39.6(33) . . .
35.7(32) . . .
26.1(26) . . .
33.0(32) . . .
30.8(30) . . .
30.9(29) . . .
33.1(30) . . .
33.2(30) . . .
37.3(32) . . .
34.6(31) . . .
35.3(31) . . .
34.8(33) . . .
35.0(33) . . .
35.1(32) . . .
40.0(33) . . .
39.6(32) . . .
34.9(32) . . .
36.4(34) . . .
33.9(33) . . .
32.5(30) . . .
31.2(29) . . .
34.4(31) . . .
31.7(31) . . .
31.6(29) . . .
32.6(30) . . .
33.6(30) . . .
40.8(34) . . .
36.1(32) . . .
44(4) . . .
37.2(31) . . .
30.3(30) . . .
41(4) . . .
36.7(33) . . .
33.9(31) . . .
26.8(27) . . .
43.0(35) . . .
36.7(33) . . .
31.0(33) . . .
35.5(33) . . .
32.5(29) . . .
33.0(31) . . .
36.3(32) . . .
32.0(31) . . .
33.5(31) . . .
26.5(28) . . .
36.3(31) . . .
40.0(33) . . .
38.1(33) . . .
34.2(32) . . .
37.6(31) . . .
37.9(32) . . .
28.8(28) . . .
35.9(35) . . .
21.7(24) . . .
30.2(29) . . .
31.0(30) . . .
38.5(34) . . .
38.7(34) . . .
34.8(33) . . .
29.4(30) . . .
39.0(35) . . .
31.4(30) . . .
34.1(32) . . .
31.9(32) . . .
41.2(33) . . .
34.5(31) . . .
28.7(29) . . .
30.9(30) . . .
30.9(30) . . .
36.1(31) . . .
32.5(30) . . .
33.6(30) . . .
39.1(34) . . .
35.3(31) . . .
28.9(28) . . .
35.6(31) . . .
36.3(33) . . .
35.7(34) . . .
34.0(30) . . .
34.0(30) . . .
37.4(33) . . .
38.2(34) . . .
30.5(29) . . .
34.0(30) . . .
38.7(35) . . .
34.3(31) . . .
35.3(33) . . .
34.8(32) . . .
31.0(29) . . .
29.0(29) . . .
31.1(30) . . .
32.6(32) . . .
27.5(28) . . .
30.8(29) . . .
35.7(31) . . .
25.7(27) . . .
25.6(28) . . .
31.3(30) . . .
41.5(34) . . .
33.5(31) . . .
34.0(33) . . .
40(4) . . .
34.9(31) . . .
33.7(30) . . .
44(4) . . .
35.6(32) . . .
25.0(28) . . .
32.0(30) . . .
35.4(31) . . .
37(4) . . .
36.3(34) . . .
39.6(34) . . .
35.4(32) . . .
32.0(29) . . .
34.7(33) . . .
33.5(32) . . .
38.0(33) . . .
32.6(29) . . .
29.0(28) . . .
34.8(31) . . .
34.2(32) . . .
38.2(33) . . .
30.1(29) . . .
37.2(32) . . .
36.4(32) . . .
27.4(29) . . .
35.3(35) . . .
30.9(30) . . .
32.2(29) . . .
38.2(34) . . .
28.8(28) . . .
40.7(33) . . .
35.0(31) . . .
35.7(31) . . .
32.4(31) . . .
29.2(29) . . .
31.2(29) . . .
41.3(35) . . .
29.7(28) . . .
40.2(34) . . .
45(4) . . .
30.3(30) . . .
51(4) . . .
35.3(31) . . .
38.5(34) . . .
42(4) . . .
36.6(33) . . .
41.6(34) . . .
35.3(31) . . .
32.8(30) . . .
37.0(32) . . .
34.4(30) . . .
35.7(31) . . .
32.8(31) . . .
37.4(35) . . .
42(4) . . .
43(4) . . .
30.1(29) . . .
35.9(34) . . .
32.7(32) . . .
46(4) . . .
36.5(33) . . .
46(4) . . .
37.9(33) . . .
34.1(32) . . .
39(4) . . .
32.4(29) . . .
33.5(30) . . .
39.6(33) . . .
30.7(30) . . .
39.8(35) . . .
31.3(29) . . .
38.7(33) . . .
30.1(28) . . .
25.4(25) . . .
28.3(28) . . .
35.0(31) . . .
38.5(32) . . .
27.2(27) . . .
29.1(28) . . .
43(4) . . .
39.8(33) . . .
36.2(31) . . .
35.3(34) . . .
35.9(33) . . .
44(4) . . .
31.7(31) . . .
31.0(30) . . .
36.0(32) . . .
31.4(30) . . .
36.9(33) . . .
40.2(34) . . .
38.5(33) . . .
36.1(33) . . .
38.0(34) . . .
38.3(33) . . .
39.5(33) . . .
34.3(31) . . .
32.1(31) . . .
41(4) . . .
29.0(28) . . .
32.7(30) . . .
37.3(33) . . .
28.7(29) . . .
37.5(34) . . .
41(4) . . .
37.0(31) . . .
41.0(35) . . .
26.6(28) . . .
27.0(28) . . .
29.4(28) . . .
28.0(27) . . .
30.6(29) . . .
39(4) . . .
33.3(31) . . .
38.1(32) . . .
23.6(26) . . .
29.2(28) . . .
37.1(33) . . .
27.6(28) . . .
35.2(31) . . .
37.5(32) . . .
32.7(31) . . .
37(4) . . .
33.6(32) . . .
31.1(30) . . .
38.4(32) . . .
30.8(29) . . .
33.1(32) . . .
40.0(34) . . .
39.3(33) . . .
33.2(30) . . .
33.3(31) . . .
35.0(33) . . .
33.6(31) . . .
36.6(31) . . .
37.7(32) . . .
29.4(29) . . .
30.8(31) . . .
40(4) . . .
36.4(32) . . .
39.0(33) . . .
43.9(35) . . .
38.0(34) . . .
26.5(27) . . .
33.0(30) . . .
37.0(34) . . .
34.5(30) . . .
33.8(31) . . .
44(4) . . .
31.3(29) . . .
35.7(32) . . .
32.9(31) . . .
30.6(29) . . .
33.5(31) . . .
33.5(30) . . .
32.5(30) . . .
40.0(34) . . .
44(4) . . .
36.8(32) . . .
30.6(28) . . .
22.1(24) . . .
30.5(30) . . .
30.5(30) . . .
26.3(29) . . .
32.3(29) . . .
33.5(31) . . .
28.5(31) . . .
27.3(29) . . .
38.3(34) . . .
35.5(31) . . .
27.2(27) . . .
31.9(29) . . .
36.2(32) . . .
29.0(28) . . .
33.1(29) . . .
38.3(35) . . .
39.9(35) . . .
35.5(32) . . .
34.0(31) . . .
26.0(26) . . .
35.9(32) . . .
43(4) . . .
33.2(33) . . .
38.7(33) . . .
37.2(32) . . .
33.3(31) . . .
27.1(27) . . .
35.4(32) . . .
34.9(31) . . .
37.3(32) . . .
33.6(30) . . .
34.5(34) . . .
36.9(32) . . .
45.4(35) . . .
36.3(31) . . .
38.8(34) . . .
29.7(29) . . .
35.7(32) . . .
37.3(32) . . .
39.2(32) . . .
36.8(33) . . .
34.9(31) . . .
37.3(32) . . .
34.9(31) . . .
29.5(28) . . .
30.8(28) . . .
32.7(32) . . .
34.0(32) . . .
33.6(30) . . .
34.7(31) . . .
42(4) . . .
31.3(30) . . .
38.6(33) . . .
39.2(33) . . .
34.2(31) . . .
29.1(28) . . .
32.4(33) . . .
29.4(29) . . .
34.6(31) . . .
40.5(34) . . .
34.3(31) . . .
32.4(30) . . .
38.8(33) . . .
28.2(29) . . .
34.2(32) . . .
35.5(33) . . .
44(4) . . .
30.7(29) . . .
26.0(27) . . .
40(4) . . .
42(4) . . .
38.2(34) . . .
38.5(33) . . .
32.9(30) . . .
27.3(27) . . .
39(4) . . .
36.9(33) . . .
42.5(34) . . .
30.4(29) . . .
27.9(29) . . .
27.2(31) . . .
37.1(34) . . .
35.6(31) . . .
36.7(34) . . .
38.5(35) . . .
37.0(33) . . .
39(4) . . .
34.0(30) . . .
41.8(35) . . .
37.7(34) . . .
31.0(31) . . .
34.0(31) . . .
26.8(27) . . .
35.0(31) . . .
35.4(32) . . .
34.2(34) . . .
32.8(31) . . .
32.8(31) . . .
27.5(28) . . .
29.7(30) . . .
34.9(32) . . .
37.8(33) . . .
30.2(29) . . .
27.3(28) . . .
30.7(31) . . .
37.1(34) . . .
42(4) . . .
45.6(35) . . .
33.9(32) . . .
33.6(31) . . .
45(4) . . .
33.7(30) . . .
30.9(29) . . .
42.1(35) . . .
34.3(31) . . .
32.3(30) . . .
36.9(32) . . .
43.3(35) . . .
39.5(33) . . .
34.4(32) . . .
39.0(34) . . .
32.5(30) . . .
34.2(31) . . .
31.4(30) . . .
25.0(26) . . .
28.6(28) . . .
41.2(34) . . .
34.7(33) . . .
29.9(29) . . .
32.4(30) . . .
31.7(30) . . .
35.2(31) . . .
38.6(33) . . .
38.5(34) . . .
33.8(30) . . .
43(4) . . .
35.6(31) . . .
28.0(27) . . .
41(4) . . .
35.9(32) . . .
36.6(33) . . .
35.4(31) . . .
31.8(30) . . .
31.7(31) . . .
38.3(34) . . .
40.2(34) . . .
34.6(30) . . .
39.8(35) . . .
30.7(29) . . .
34.6(33) . . .
35.8(31) . . .
33.7(30) . . .
26.6(30) . . .
25.6(28) . . .
33.0(32) . . .
29.8(30) . . .
30.1(29) . . .
35.0(31) . . .
33.2(31) . . .
36.9(33) . . .
35.5(33) . . .
33.1(30) . . .
34.2(33) . . .
26.7(29) . . .
35.6(32) . . .
29.7(28) . . .
33.9(32) . . .
38.7(34) . . .
38.3(34) . . .
30.5(31) . . .
31.9(29) . . .
30.4(29) . . .
30.5(29) . . .
34.8(33) . . .
37.9(33) . . .
31.4(29) . . .
32.6(30) . . .
37.7(34) . . .
31.6(30) . . .
32.8(30) . . .
33.7(30) . . .
39.9(33) . . .
28.9(27) . . .
30.8(30) . . .
29.8(29) . . .
30.3(29) . . .
36.5(32) . . .
44(4) . . .
33.2(31) . . .
28.2(27) . . .
41.3(34) . . .
33.0(31) . . .
31.1(32) . . .
35.3(34) . . .
32.7(30) . . .
40.4(34) . . .
36.4(32) . . .
40(4) . . .
33.6(30) . . .
36.0(31) . . .
42.7(34) . . .
31.2(29) . . .
37.0(33) . . .
29.7(29) . . .
35.7(31) . . .
35.9(31) . . .
34.1(32) . . .
29.8(30) . . .
35.0(32) . . .
32.1(30) . . .
40.9(33) . . .
46(4) . . .
37.8(35) . . .
28.9(28) . . .
29.4(28) . . .
31.7(29) . . .
40.3(33) . . .
33.8(30) . . .
36.0(31) . . .
34.4(30) . . .
37.4(32) . . .
34.3(32) . . .
32.8(30) . . .
42.6(35) . . .
34.9(31) . . .
35.5(32) . . .
34.2(32) . . .
31.2(29) . . .
34.5(32) . . .
30.2(29) . . .
28.5(29) . . .
28.3(28) . . .
31.9(31) . . .
34.4(31) . . .
40.2(33) . . .
40.7(34) . . .
44(4) . . .
31.7(31) . . .
29.9(29) . . .
28.2(28) . . .
34.5(30) . . .
39.1(34) . . .
34.4(30) . . .
41.6(34) . . .
44.7(35) . . .
38.3(34) . . .
37.6(34) . . .
31.5(29) . . .
32.8(31) . . .
42.1(34) . . .
34.8(32) . . .
36.8(32) . . .
34.1(31) . . .
34.9(30) . . .
40.1(34) . . .
33.2(33) . . .
29.7(30) . . .
37.3(32) . . .
32.5(30) . . .
31.9(29) . . .
39(4) . . .
32.3(33) . . .
29.8(29) . . .
33.9(31) . . .
33.8(30) . . .
34.6(31) . . .
33.1(32) . . .
34.7(31) . . .
36.7(31) . . .
38.5(32) . . .
29.2(29) . . .
37.4(33) . . .
35.7(32) . . .
33.1(31) . . .
39.5(34) . . .
35.5(32) . . .
33.3(30) . . .
38(4) . . .
29.8(28) . . .
33.7(30) . . .
34.9(31) . . .
37.3(33) . . .
38.6(33) . . .
30.2(29) . . .
28.8(30) . . .
36.5(33) . . .
30.6(31) . . .
28.6(28) . . .
37.7(33) . . .
38.5(32) . . .
43(4) . . .
30.6(30) . . .
28.1(28) . . .
34.7(31) . . .
29.9(29) . . .
36.7(33) . . .
39.4(35) . . .
27.0(28) . . .
27.0(27) . . .
23.8(25) . . .
33.5(32) . . .
32.5(31) . . .
25.6(27) . . .
26.7(27) . . .
34.5(32) . . .
41(4) . . .
25.6(26) . . .
40.8(33) . . .
31.3(29) . . .
35.1(32) . . .
34.4(32) . . .
28.3(28) . . .
31.5(29) . . .
30.3(28) . . .
36.2(35) . . .
33.8(34) . . .
38.9(34) . . .
39.8(33) . . .
32.4(30) . . .
30.0(30) . . .
41(4) . . .
39.3(35) . . .
29.5(28) . . .
33.7(30) . . .
35.2(32) . . .
33.6(31) . . .
37.2(32) . . .
34.3(31) . . .
26.1(27) . . .
33.4(32) . . .
28.1(28) . . .
30.9(29) . . .
30.8(29) . . .
38.6(32) . . .
30.5(29) . . .
32.5(32) . . .
31.5(30) . . .
29.6(29) . . .
30.4(31) . . .
28.5(30) . . .
32.2(30) . . .
39.4(34) . . .
37.4(32) . . .
21.5(27) . . .
37.7(34) . . .
43(4) . . .
32.2(31) . . .
36.5(32) . . .
34.1(31) . . .
26.4(28) . . .
41(4) . . .
35.2(30) . . .
32.3(30) . . .
24.1(25) . . .
33.5(32) . . .
32.8(30) . . .
47(4) . . .
32.7(29) . . .
33.4(31) . . .
46(4) . . .
39(4) . . .
36.0(32) . . .
29.2(28) . . .
38.9(34) . . .
34.9(31) . . .
31.2(30) . . .
31.0(30) . . .
31.3(29) . . .
29.9(29) . . .
32.1(31) . . .
27.8(28) . . .
35.4(31) . . .
31.5(31) . . .
40.0(34) . . .
29.0(27) . . .
35.3(31) . . .
34.6(31) . . .
37.0(32) . . .
35.5(32) . . .
34.0(31) . . .
39.9(34) . . .
38.5(32) . . .
30.4(28) . . .
43(4) . . .
40(4) . . .
31.8(32) . . .
28.8(28) . . .
39.6(33) . . .
34.7(31) . . .
38(4) . . .
33.7(32) . . .
32.4(30) . . .
28.8(29) . . .
36.8(34) . . .
36.3(34) . . .
27.2(28) . . .
32.6(30) . . .
44.7(34) . . .
35.4(31) . . .
36.1(33) . . .
37.7(32) . . .
39.5(32) . . .
32.0(30) . . .
33.3(32) . . .
30.4(30) . . .
34.3(31) . . .
31.3(29) . . .
28.9(28) . . .
40(4) . . .
36.6(33) . . .
28.2(27) . . .
29.6(29) . . .
41(4) . . .
27.5(32) . . .
29.2(29) . . .
38.5(32) . . .
28.9(28) . . .
30.2(30) . . .
43(4) . . .
35.0(32) . . .
31.3(29) . . .
36.7(32) . . .
31.0(29) . . .
39(4) . . .
25.4(27) . . .
28.6(28) . . .
27.5(28) . . .
38.6(35) . . .
33.4(33) . . .
38.1(33) . . .
30.9(29) . . .
33.4(33) . . .
23.8(26) . . .
38.7(35) . . .
35.8(32) . . .
28.6(28) . . .
37.7(33) . . .
32.7(29) . . .
34.8(31) . . .
47(4) . . .
38.0(33) . . .
38.9(33) . . .
40(4) . . .
32.2(31) . . .
37.1(34) . . .
31.4(29) . . .
33.8(34) . . .
27.3(29) . . .
42(4) . . .
32.7(30) . . .
28.7(28) . . .
38.6(33) . . .
35.2(34) . . .
41.6(35) . . .
38.4(32) . . .
39.9(33) . . .
38.0(35) . . .
30.5(30) . . .
37.7(33) . . .
38.5(32) . . .
36.2(31) . . .
30.2(31) . . .
34.0(30) . . .
32.2(29) . . .
33.1(31) . . .
32.2(30) . . .
33.5(31) . . .
41(4) . . .
36.6(32) . . .
36.8(31) . . .
33.5(31) . . .
36.6(33) . . .
36.1(33) . . .
30.0(30) . . .
27.9(28) . . .
37.2(33) . . .
31.8(31) . . .
33.9(34) . . .
37(4) . . .
35.6(31) . . .
31.0(29) . . .
33.3(32) . . .
30.2(30) . . .
28.8(28) . . .
43.5(35) . . .
29.9(28) . . .
36.9(32) . . .
34.6(34) . . .
32.6(31) . . .
42.6(34) . . .
32.3(31) . . .
34.1(32) . . .
36.4(35) . . .
34.9(32) . . .
42.9(34) . . .
23.8(25) . . .
28.5(28) . . .
39.6(34) . . .
35.8(32) . . .
34.6(31) . . .
39.7(34) . . .
38.7(33) . . .
31.2(30) . . .
32.8(30) . . .
42.8(35) . . .
35.0(33) . . .
32.4(33) . . .
38.0(33) . . .
31.6(29) . . .
36.0(31) . . .
35.8(33) . . .
29.9(31) . . .
23.0(24) . . .
37.3(32) . . .
38.8(32) . . .
37.7(34) . . .
40(4) . . .
35.3(32) . . .
36.6(32) . . .
28.1(27) . . .
23.3(26) . . .
34.6(34) . . .
31.2(29) . . .
35.5(31) . . .
33.7(30) . . .
38.6(33) . . .
39(4) . . .
34.3(31) . . .
46(4) . . .
35.1(31) . . .
40(4) . . .
32.2(32) . . .
30.3(31) . . .
40.5(33) . . .
38.9(34) . . .
31.9(30) . . .
35.8(33) . . .
37(4) . . .
30.5(28) . . .
29.6(31) . . .
35.5(32) . . .
34.3(31) . . .
33.0(30) . . .
47(4) . . .
42.0(34) . . .
33.3(32) . . .
37.5(33) . . .
35.4(31) . . .
29.6(29) . . .
33.6(30) . . .
40(4) . . .
35.9(33) . . .
34.4(31) . . .
36.9(31) . . .
34.7(31) . . .
35.7(35) . . .
32.8(31) . . .
25.3(26) . . .
36.8(32) . . .
33.8(33) . . .
36(4) . . .
34.0(32) . . .
35.8(33) . . .
30.3(28) . . .
42(4) . . .
33.8(33) . . .
36.4(34) . . .
37.3(32) . . .
32.0(29) . . .
37.2(33) . . .
41(4) . . .
32.1(29) . . .
42.8(34) . . .
31.3(30) . . .
38.1(33) . . .
33.1(30) . . .
35.8(32) . . .
42.1(34) . . .
28.1(28) . . .
37.7(34) . . .
29.2(29) . . .
29.4(30) . . .
39.8(33) . . .
35.0(31) . . .
39.8(34) . . .
31.3(32) . . .
34.6(33) . . .
39.2(33) . . .
32.3(30) . . .
29.9(29) . . .
27.8(27) . . .
32.9(32) . . .
27.3(28) . . .
33.1(29) . . .
44(4) . . .
35.7(33) . . .
37.1(32) . . .
33.8(31) . . .
36.5(33) . . .
33.0(30) . . .
36.9(32) . . .
29.8(30) . . .
37.6(32) . . .
35.7(31) . . .
30.1(29) . . .
35.1(32) . . .
29.5(29) . . .
30.1(29) . . .
37.5(33) . . .
28.6(31) . . .
28.9(31) . . .
29.8(29) . . .
31.0(29) . . .
26.1(28) . . .
33.0(31) . . .
40(4) . . .
32.8(30) . . .
34.3(30) . . .
44(4) . . .
33.2(32) . . .
29.4(28) . . .
28.8(29) . . .
31.5(30) . . .
32.9(31) . . .
34.0(32) . . .
33.2(33) . . .
34.7(31) . . .
30.3(28) . . .
35.1(31) . . .
35.6(34) . . .
32.5(32) . . .
38.5(32) . . .
41.0(33) . . .
32.3(31) . . .
29.7(28) . . .
41(4) . . .
29.1(28) . . .
28.0(28) . . .
34.0(32) . . .
25.4(26) . . .
31.7(29) . . .
33.9(30) . . .
38.8(33) . . .
35.9(33) . . .
37.7(33) . . .
37.0(32) . . .
33.2(30) . . .
45(4) . . .
36.9(35) . . .
27.6(29) . . .
31.6(30) . . .
46(4) . . .
41.3(34) . . .
36.0(32) . . .
38.9(34) . . .
35.2(32) . . .
40.6(33) . . .
33.5(32) . . .
30.4(30) . . .
26.6(27) . . .
35.2(31) . . .
38.9(33) . . .
32.9(30) . . .
31.9(30) . . .
47(4) . . .
33.1(30) . . .
31.2(29) . . .
26.1(27) . . .
38(4) . . .
20.3(23) . . .
35.5(32) . . .
30.8(29) . . .
41.5(35) . . .
30.8(31) . . .
36.0(32) . . .
37.9(32) . . .
32.8(30) . . .
34.9(31) . . .
33.2(34) . . .
31.5(30) . . .
39.7(33) . . .
39.7(33) . . .
35.1(31) . . .
41(4) . . .
29.9(29) . . .
25.9(26) . . .
37.5(32) . . .
33.6(30) . . .
29.8(29) . . .
44(4) . . .
35.2(31) . . .
41.2(34) . . .
27.4(30) . . .
32.8(32) . . .
37.8(33) . . .
32.2(30) . . .
30.0(29) . . .
34.3(32) . . .
37.3(32) . . .
38.3(32) . . .
31.3(29) . . .
26.9(27) . . .
34.6(34) . . .
23.2(25) . . .
29.8(29) . . .
30.1(29) . . .
33.3(30) . . .
45(4) . . .
40.8(33) . . .
46(4) . . .
39.5(32) . . .
38.3(32) . . .
36.3(33) . . .
36.8(33) . . .
35.9(32) . . .
38.0(32) . . .
36.9(31) . . .
33.8(31) . . .
43(4) . . .
34.6(31) . . .
34.1(30) . . .
39.9(35) . . .
33.8(31) . . .
31.7(30) . . .
31.9(30) . . .
35.5(31) . . .
40.0(32) . . .
38.7(34) . . .
33.7(32) . . .
28.7(27) . . .
35.7(31) . . .
29.7(28) . . .
37.6(34) . . .
35.1(34) . . .
31.5(30) . . .
39.8(33) . . .
45(4) . . .
39.6(34) . . .
44(4) . . .
31.1(29) . . .
34.5(31) . . .
29.3(29) . . .
32.3(30) . . .
32.4(31) . . .
33.2(30) . . .
37.3(33) . . .
32.4(31) . . .
38.3(33) . . .
36.2(32) . . .
24.4(26) . . .
32.8(30) . . .
47(4) . . .
34.2(32) . . .
25.1(28) . . .
39.5(33) . . .
36.2(33) . . .
39.6(34) . . .
37.3(32) . . .
35.7(32) . . .
37.5(32) . . .
32.6(32) . . .
26.2(30) . . .
28.1(30) . . .
27.1(27) . . .
33.8(31) . . .
31.9(30) . . .
31.4(29) . . .
30.3(29) . . .
26.9(27) . . .
34.5(31) . . .
27.1(26) . . .
40(4) . . .
41(4) . . .
31.9(29) . . .
37.0(32) . . .
47(4) . . .
37.5(34) . . .
30.1(30) . . .
38.5(33) . . .
27.4(29) . . .
28.7(28) . . .
39.0(35) . . .
35.0(33) . . .
37.5(32) . . .
35.8(31) . . .
42(4) . . .
27.5(29) . . .
35.3(31) . . .
29.9(29) . . .
30.9(29) . . .
30.2(28) . . .
35.9(32) . . .
41.8(34) . . .
45.2(35) . . .
36.1(31) . . .
44(4) . . .
42(4) . . .
33.6(31) . . .
34.0(30) . . .
38.7(33) . . .
36.1(32) . . .
36.8(34) . . .
33.3(30) . . .
34.4(31) . . .
37.8(35) . . .
39.5(34) . . .
37.6(34) . . .
32.1(29) . . .
44.2(35) . . .
32.8(30) . . .
27.8(28) . . .
37.5(34) . . .
23.9(26) . . .
34.3(31) . . .
32.5(31) . . .
31.7(31) . . .
30.0(29) . . .
31.2(29) . . .
33.5(31) . . .
29.2(30) . . .
35.8(31) . . .
38.3(34) . . .
36.7(35) . . .
29.1(28) . . .
31.3(32) . . .
39(4) . . .
41(4) . . .
33.0(30) . . .
38.1(32) . . .
34.1(31) . . .
35.0(34) . . .
25.5(27) . . .
26.5(27) . . .
30.9(28) . . .
33.4(32) . . .
34.8(33) . . .
29.0(28) . . .
24.9(26) . . .
38.7(34) . . .
33.3(31) . . .
33.6(32) . . .
38.1(33) . . .
39.3(33) . . .
39.7(34) . . .
31.6(29) . . .
28.5(28) . . .
42(4) . . .
33.4(31) . . .
37.8(33) . . .
35.0(31) . . .
31.3(32) . . .
31.5(29) . . .
30.9(29) . . .
24.6(26) . . .
33.8(31) . . .
34.4(31) . . .
37.8(32) . . .
41.0(33) . . .
32.0(31) . . .
35.1(32) . . .
29.4(29) . . .
25.6(27) . . .
36.4(32) . . .
37.2(34) . . .
33.0(32) . . .
32.3(30) . . .
30.9(30) . . .
41.5(34) . . .
36.7(32) . . .
37.3(34) . . .
38.2(34) . . .
30.8(29) . . .
35.3(31) . . .
30.3(28) . . .
39.6(34) . . .
30.0(29) . . .
38.7(32) . . .
34.0(30) . . .
38.3(33) . . .
35.9(33) . . .
29.3(28) . . .
34.5(31) . . .
31.5(30) . . .
38(4) . . .
34.8(32) . . .
39(4) . . .
42.7(35) . . .
34.5(31) . . .
35.7(34) . . .
34.3(33) . . .
33.0(32) . . .
32.0(29) . . .
35.2(32) . . .
32.6(33) . . .
37.0(34) . . .
32.4(31) . . .
26.9(27) . . .
36.0(32) . . .
42(4) . . .
34.6(31) . . .
32.9(30) . . .
36.2(32) . . .
34.9(32) . . .
33.8(32) . . .
29.0(28) . . .
27.8(27) . . .
38.1(32) . . .
32.1(30) . . .
35.8(32) . . .
35.0(31) . . .
32.6(30) . . .
31.6(30) . . .
35.2(32) . . .
37.6(33) . . .
39.7(33) . . .
35.4(31) . . .
40.7(33) . . .
34.9(32) . . .
37.9(34) . . .
38.2(35) . . .
37.1(32) . . .
30.3(28) . . .
35.9(32) . . .
38(4) . . .
40(4) . . .
37.0(32) . . .
30.2(29) . . .
38.3(34) . . .
31.3(30) . . .
32.3(30) . . .
38.6(33) . . .
37.4(33) . . .
30.0(29) . . .
31.4(31) . . .
42.4(34) . . .
31.1(29) . . .
38.0(33) . . .
32.1(30) . . .
38.0(34) . . .
35.2(31) . . .
37.7(32) . . .
32.0(29) . . .
31.8(31) . . .
26.1(30) . . .
25.4(27) . . .
41.6(34) . . .
39(4) . . .
31.7(30) . . .
37.0(33) . . .
29.1(29) . . .
30.2(29) . . .
37.8(32) . . .
29.1(30) . . .
25.4(30) . . .
31.6(30) . . .
40.6(33) . . .
35.0(31) . . .
34.6(32) . . .
27.8(28) . . .
28.3(28) . . .
36.5(32) . . .
33.9(31) . . .
29.4(28) . . .
34.1(31) . . .
26.8(27) . . .
36.9(32) . . .
36.1(33) . . .
31.3(31) . . .
30.0(29) . . .
34.3(30) . . .
33.8(30) . . .
30.4(29) . . .
31.8(31) . . .
39(4) . . .
31.0(29) . . .
27.9(27) . . .
35.1(34) . . .
27.5(30) . . .
29.0(29) . . .
30.6(29) . . .
32.7(30) . . .
27.6(28) . . .
29.6(32) . . .
27.9(28) . . .
32.5(29) . . .
34.0(31) . . .
33.9(34) . . .
33.8(32) . . .
35.6(33) . . .
34.3(30) . . .
28.8(28) . . .
26.4(29) . . .
29.1(30) . . .
25.7(27) . . .
36.9(32) . . .
37.1(32) . . .
33.5(32) . . .
41(4) . . .
40(4) . . .
33.1(30) . . .
28.7(30) . . .
29.3(30) . . .
33.1(31) . . .
34.8(31) . . .
35.4(31) . . .
29.1(29) . . .
43(4) . . .
35.9(33) . . .
37.8(33) . . .
39.2(32) . . .
33.5(33) . . .
31.1(31) . . .
32.2(31) . . .
36.8(32) . . .
47(4) . . .
40.7(34) . . .
34.4(34) . . .
25.2(27) . . .
29.0(28) . . .
43.8(34) . . .
35.2(31) . . .
36.5(35) . . .
33.7(31) . . .
32.7(30) . . .
41.0(34) . . .
39.8(35) . . .
29.4(32) . . .
24.3(26) . . .
26.9(28) . . .
34.3(32) . . .
32.8(31) . . .
35.1(35) . . .
33.0(30) . . .
34.8(31) . . .
36.6(32) . . .
32.3(29) . . .
35.0(31) . . .
28.6(28) . . .
37.0(32) . . .
35.8(32) . . .
39(4) . . .
41.1(35) . . .
30.5(29) . . .
34.1(30) . . .
34.6(31) . . .
40.3(33) . . .
35.5(31) . . .
32.4(30) . . .
37.5(32) . . .
41.9(35) . . .
34.7(30) . . .
33.1(30) . . .
42(4) . . .
29.3(28) . . .
36.4(33) . . .
33.6(31) . . .
34.0(31) . . .
32.7(33) . . .
40.8(34) . . .
41.7(34) . . .
31.0(31) . . .
24.1(27) . . .
31.4(32) . . .
32.9(29) . . .
30.1(29) . . .
33.8(33) . . .
24.1(27) . . .
33.7(31) . . .
28.9(28) . . .
32.6(31) . . .
39(4) . . .
28.2(27) . . .
38.2(33) . . .
39.9(33) . . .
33.0(31) . . .
34.9(33) . . .
40(4) . . .
42.5(34) . . .
23.6(26) . . .
37.0(33) . . .
36.3(35) . . .
43(4) . . .
34.7(31) . . .
38.0(33) . . .
35.7(32) . . .
27.7(28) . . .
42.8(35) . . .
32.6(30) . . .
29.0(28) . . .
38.9(34) . . .
36.4(35) . . .
30.0(28) . . .
36.4(31) . . .
37.3(33) . . .
34.8(34) . . .
27.9(28) . . .
35.6(32) . . .
31.7(30) . . .
32.8(32) . . .
35.2(31) . . .
46(4) . . .
38.5(32) . . .
38.1(32) . . .
31.3(29) . . .
42(4) . . .
35.3(31) . . .
37.4(31) . . .
40.2(34) . . .
41(4) . . .
31.4(29) . . .
37.5(33) . . .
34.6(31) . . .
38.6(32) . . .
37.8(34) . . .
29.9(30) . . .
23.2(25) . . .
29.1(28) . . .
36.6(32) . . .
27.6(29) . . .
40(4) . . .
30.4(29) . . .
27.3(28) . . .
27.9(29) . . .
34.7(33) . . .
30.1(30) . . .
28.9(28) . . .
34.8(31) . . .
26.6(27) . . .
36.1(32) . . .
38.2(34) . . .
37.1(31) . . .
37.2(32) . . .
36.8(31) . . .
35.7(32) . . .
30.4(31) . . .
33.4(32) . . .
46(4) . . .
31.9(29) . . .
37.6(34) . . .
30.6(30) . . .
34.5(32) . . .
38.1(32) . . .
33.1(30) . . .
34.6(30) . . .
40(4) . . .
39(4) . . .
36.4(31) . . .
30.8(28) . . .
33.8(31) . . .
37.5(35) . . .
32.8(30) . . .
36.3(31) . . .
32.8(31) . . .
28.2(30) . . .
36.8(33) . . .
28.8(29) . . .
31.8(29) . . .
29.0(30) . . .
35.0(31) . . .
33.7(31) . . .
34.1(32) . . .
35.5(31) . . .
41.5(34) . . .
35.5(33) . . .
35.8(35) . . .
28.9(28) . . .
31.6(30) . . .
33.9(31) . . .
37.7(34) . . .
39.0(33) . . .
33.2(30) . . .
25.9(26) . . .
37.8(34) . . .
36.0(32) . . .
38.3(33) . . .
40.2(33) . . .
36.9(32) . . .
24.4(26) . . .
25.9(28) . . .
34.8(33) . . .
35.2(31) . . .
34.4(30) . . .
31.2(31) . . .
23.8(25) . . .
30.4(31) . . .
34.9(32) . . .
32.3(30) . . .
28.2(31) . . .
37(4) . . .
25.5(28) . . .
36.7(32) . . .
36.4(32) . . .
35.9(33) . . .
32.6(32) . . .
25.4(26) . . .
42.7(35) . . .
37.5(33) . . .
33.6(31) . . .
47(4) . . .
36.7(31) . . .
31.6(30) . . .
32.0(31) . . .
33.6(33) . . .
34.0(30) . . .
40.6(34) . . .
48(4) . . .
35.9(31) . . .
41(4) . . .
29.1(28) . . .
36.7(32) . . .
34.2(30) . . .
37.4(33) . . .
29.9(30) . . .
29.6(29) . . .
42(4) . . .
30.7(29) . . .
26.9(29) . . .
35.7(34) . . .
35.8(33) . . .
32.0(30) . . .
36.4(31) . . .
38.9(33) . . .
37.5(34) . . .
36.5(31) . . .
31.7(30) . . .
36.4(33) . . .
31.5(30) . . .
42(4) . . .
39.6(34) . . .
26.7(27) . . .
36.7(31) . . .
29.0(28) . . .
26.9(28) . . .
25.3(26) . . .
37.1(32) . . .
31.1(32) . . .
28.7(28) . . .
32.9(31) . . .
36.5(33) . . .
36.6(31) . . .
30.3(29) . . .
23.1(25) . . .
41(4) . . .
39(4) . . .
34.2(31) . . .
30.5(29) . . .
30.9(32) . . .
33.0(33) . . .
36.5(32) . . .
42.1(34) . . .
30.7(30) . . .
33.4(30) . . .
37.9(32) . . .
36.6(32) . . .
32.1(29) . . .
31.5(30) . . .
37.1(34) . . .
24.8(26) . . .
36.1(32) . . .
37.4(32) . . .
29.3(28) . . .
32.5(33) . . .
30.2(29) . . .
30.1(29) . . .
28.4(27) . . .
39.8(35) . . .
34.7(34) . . .
30.5(30) . . .
40.3(34) . . .
29.2(28) . . .
33.5(32) . . .
35.0(34) . . .
46(4) . . .
39.3(32) . . .
37.0(32) . . .
34.5(31) . . .
31.7(32) . . .
41(4) . . .
36.9(31) . . .
33.7(31) . . .
32.2(33) . . .
36(4) . . .
28.5(29) . . .
32.9(30) . . .
32.8(30) . . .
29.8(29) . . .
27.5(28) . . .
36.1(33) . . .
38.8(33) . . .
37.4(33) . . .
32.0(31) . . .
27.7(30) . . .
31.2(31) . . .
30.9(29) . . .
30.6(30) . . .
34.5(30) . . .
26.9(26) . . .
28.5(28) . . .
29.7(28) . . .
37.3(34) . . .
32.5(33) . . .
38.5(34) . . .
32.6(30) . . .
31.1(29) . . .
39.0(33) . . .
38.7(33) . . .
29.6(28) . . .
29.6(28) . . .
34.2(31) . . .
23.1(26) . . .
29.1(28) . . .
35.6(31) . . .
36.5(34) . . .
33.7(30) . . .
31.2(32) . . .
30.6(31) . . .
34.0(31) . . .
25.0(26) . . .
33.4(32) . . .
35.1(33) . . .
34.7(33) . . .
37.4(32) . . .
36.8(32) . . .
33.8(30) . . .
26.3(27) . . .
33.9(32) . . .
35.2(31) . . .
26.8(27) . . .
38.1(33) . . .
31.1(31) . . .
26.1(27) . . .
32.1(30) . . .
28.7(28) . . .
38.5(32) . . .
30.0(28) . . .
37.2(34) . . .
38.0(33) . . .
33.4(30) . . .
40(4) . . .
31.9(32) . . .
31.1(30) . . .
35.4(33) . . .
26.1(27) . . .
35.8(32) . . .
30.0(28) . . .
33.2(31) . . .
38.1(32) . . .
39.3(33) . . .
30.6(29) . . .
34.5(31) . . .
37.5(35) . . .
37.0(33) . . .
30.7(29) . . .
40.6(34) . . .
41(4) . . .
41.8(34) . . .
32.0(29) . . .
35.2(31) . . .
30.7(29) . . .
30.3(31) . . .
25.6(28) . . .
34.6(31) . . .
34.4(31) . . .
46(4) . . .
33.0(29) . . .
32.2(32) . . .
41.6(34) . . .
34.1(30) . . .
32.4(32) . . .
35.2(34) . . .
34.5(30) . . .
40.3(33) . . .
37.7(32) . . .
45(4) . . .
33.9(32) . . .
30.5(29) . . .
33.4(30) . . .
35.7(31) . . .
34.9(32) . . .
32.5(32) . . .
32.0(30) . . .
40.9(34) . . .
27.6(27) . . .
40(4) . . .
30.1(31) . . .
31.1(30) . . .
32.0(30) . . .
48(4) . . .
46(4) . . .
32.4(29) . . .
33.6(33) . . .
30.2(29) . . .
31.8(29) . . .
32.4(31) . . .
38(4) . . .
35.0(31) . . .
39.7(33) . . .
34.8(33) . . .
38.7(35) . . .
41.6(35) . . .
39.7(35) . . .
34.1(30) . . .
34.0(31) . . .
29.3(28) . . .
33.1(33) . . .
43(4) . . .
31.0(29) . . .
34.2(33) . . .
26.9(28) . . .
40(4) . . .
30.8(29) . . .
26.0(27) . . .
25.3(26) . . .
39(4) . . .
30.8(29) . . .
32.2(29) . . .
32.0(30) . . .
40.4(33) . . .
40.5(35) . . .
27.2(27) . . .
27.8(28) . . .
27.6(27) . . .
38.1(32) . . .
32.3(31) . . .
38.9(34) . . .
34.7(32) . . .
33.9(30) . . .
35.6(31) . . .
42(4) . . .
34.8(31) . . .
28.5(28) . . .
32.2(30) . . .
30.2(30) . . .
37(4) . . .
39(4) . . .
29.8(29) . . .
35.1(30) . . .
34.9(31) . . .
39.8(34) . . .
36.3(32) . . .
23.0(25) . . .
31.1(29) . . .
40(4) . . .
32.9(30) . . .
30.8(32) . . .
27.9(28) . . .
33.2(31) . . .
39.0(33) . . .
37.7(33) . . .
32.9(30) . . .
33.4(30) . . .
31.0(28) . . .
35.8(33) . . .
37.4(32) . . .
36.9(34) . . .
28.3(28) . . .
33.6(31) . . .
28.1(30) . . .
32.3(31) . . .
36.2(32) . . .
32.3(30) . . .
33.4(31) . . .
37.0(33) . . .
35.9(32) . . .
36.8(32) . . .
31.0(30) . . .
34.3(32) . . .
38(4) . . .
37.6(34) . . .
35.4(30) . . .
35.4(31) . . .
32.3(31) . . .
28.9(31) . . .
21.6(24) . . .
31.8(29) . . .
35.5(32) . . .
37.5(32) . . .
32.6(32) . . .
39.6(34) . . .
39.2(34) . . .
28.9(28) . . .
29.6(29) . . .
33.0(31) . . .
36.1(32) . . .
37.0(32) . . .
40.3(34) . . .
34.7(32) . . .
30.5(30) . . .
38.5(33) . . .
33.8(31) . . .
40.0(33) . . .
34.1(32) . . .
31.8(31) . . .
36.5(33) . . .
35.1(31) . . .
37.9(32) . . .
34.0(32) . . .
36.2(33) . . .
39.2(34) . . .
36.3(31) . . .
30.8(30) . . .
28.6(29) . . .
40(4) . . .
29.1(31) . . .
29.7(29) . . .
47(4) . . .
31.3(29) . . .
29.2(29) . . .
33.0(30) . . .
25.8(27) . . .
25.2(27) . . .
30.9(31) . . .
31.4(30) . . .
29.1(28) . . .
34.5(31) . . .
32.7(30) . . .
30.5(29) . . .
34.3(32) . . .
39.5(34) . . .
31.1(29) . . .
36.7(33) . . .
36.9(35) . . .
30.7(30) . . .
34.5(32) . . .
38.9(33) . . .
37.5(33) . . .
33.1(34) . . .
29.6(30) . . .
27.0(28) . . .
33.7(31) . . .
36.3(33) . . .
26.7(28) . . .
30.9(29) . . .
32.7(30) . . .
30.4(30) . . .
44(4) . . .
44(4) . . .
41.0(34) . . .
29.0(28) . . .
34.2(31) . . .
30.6(30) . . .
33.7(33) . . .
31.8(29) . . .
32.8(30) . . .
36.7(32) . . .
37.3(33) . . .
35.3(34) . . .
32.1(31) . . .
38.2(32) . . .
34.2(32) . . .
27.9(29) . . .
29.1(30) . . .
32.0(30) . . .
33.2(30) . . .
33.4(30) . . .
45(4) . . .
39(4) . . .
33.3(31) . . .
32.5(30) . . .
34.3(32) . . .
34.5(34) . . .
37.1(34) . . .
29.8(29) . . .
35.0(31) . . .
29.6(29) . . .
28.5(30) . . .
33.6(32) . . .
37.9(32) . . .
32.9(30) . . .
25.3(26) . . .
34.8(32) . . .
41(4) . . .
44.0(35) . . .
34.2(30) . . .
28.1(29) . . .
30.5(32) . . .
30.0(30) . . .
37.4(32) . . .
33.3(30) . . .
30.8(29) . . .
38.5(34) . . .
34.0(32) . . .
30.2(30) . . .
34.3(31) . . .
41(4) . . .
29.2(28) . . .
34.0(31) . . .
38.0(32) . . .
31.8(29) . . .
31.1(30) . . .
29.7(28) . . .
38.9(33) . . .
37.2(31) . . .
36.7(32) . . .
35.8(31) . . .
32.7(31) . . .
33.8(34) . . .
39.5(33) . . .
29.9(29) . . .
36.2(33) . . .
38.5(35) . . .
34.7(33) . . .
34.9(30) . . .
34.1(34) . . .
29.4(31) . . .
35.1(31) . . .
38.5(34) . . .
31.5(29) . . .
34.5(32) . . .
31.1(33) . . .
46(4) . . .
48(4) . . .
36.0(31) . . .
38.4(33) . . .
32.8(29) . . .
32.2(31) . . .
29.8(29) . . .
32.3(30) . . .
36.8(33) . . .
31.7(32) . . .
39.4(35) . . .
31.2(29) . . .
33.2(30) . . .
40.2(33) . . .
39(4) . . .
27.4(27) . . .
39.6(33) . . .
26.2(27) . . .
38.1(34) . . .
37.7(35) . . .
33.2(31) . . .
32.8(29) . . .
37.0(32) . . .
29.5(28) . . .
46(4) . . .
36.9(33) . . .
27.5(28) . . .
35.9(31) . . .
33.3(31) . . .
31.0(30) . . .
34.7(32) . . .
35.5(31) . . .
35.5(31) . . .
39.2(34) . . .
35.1(33) . . .
30.5(29) . . .
28.7(28) . . .
30.7(31) . . .
37.1(33) . . .
28.3(28) . . .
36.3(33) . . .
37.2(32) . . .
37.9(32) . . .
28.6(30) . . .
41(4) . . .
37.3(34) . . .
38.0(32) . . .
34.8(33) . . .
40(4) . . .
38.5(34) . . .
33.2(30) . . .
28.2(28) . . .
32.7(31) . . .
33.3(31) . . .
33.2(32) . . .
39.3(33) . . .
27.5(27) . . .
35.3(33) . . .
34.2(31) . . .
31.7(32) . . .
34.0(31) . . .
44(4) . . .
40.5(34) . . .
26.3(29) . . .
29.7(29) . . .
26.9(26) . . .
34.3(31) . . .
36.2(32) . . .
31.3(30) . . .
37.6(33) . . .
33.4(30) . . .
36.9(33) . . .
33.3(30) . . .
40(4) . . .
32.1(31) . . .
32.5(29) . . .
35.8(33) . . .
32.1(32) . . .
32.1(32) . . .
32.4(31) . . .
39.9(33) . . .
34.9(31) . . .
31.5(31) . . .
32.2(33) . . .
30.1(29) . . .
30.9(29) . . .
34.3(32) . . .
46(4) . . .
32.8(30) . . .
37.7(34) . . .
35.2(31) . . .
36.3(32) . . .
31.9(29) . . .
30.4(30) . . .
28.1(30) . . .
36.5(32) . . .
38.0(35) . . .
30.6(29) . . .
39.1(34) . . .
32.3(30) . . .
31.1(29) . . .
39.6(35) . . .
32.0(30) . . .
36.3(32) . . .
34.7(31) . . .
31.4(29) . . .
32.4(30) . . .
34.5(32) . . .
41.7(35) . . .
36.5(31) . . .
32.2(29) . . .
29.8(30) . . .
30.2(31) . . .
39.4(34) . . .
29.4(28) . . .
33.4(30) . . .
37.1(32) . . .
37.7(33) . . .
46(4) . . .
39.8(33) . . .
28.9(28) . . .
35.2(32) . . .
30.3(31) . . .
31.3(31) . . .
41.2(33) . . .
38(4) . . .
22.4(24) . . .
39(4) . . .
35.8(32) . . .
33.5(30) . . .
35.6(32) . . .
26.6(28) . . .
27.2(28) . . .
28.1(28) . . .
25.1(27) . . .
34.3(31) . . .
30.5(29) . . .
30.9(30) . . .
37.1(32) . . .
41.9(35) . . .
33.3(31) . . .
28.3(27) . . .
37.1(34) . . .
48(4) . . .
34.4(31) . . .
35.2(32) . . .
27.9(28) . . .
27.0(29) . . .
28.3(30) . . .
31.8(29) . . .
37.0(33) . . .
31.8(29) . . .
35.6(33) . . .
33.3(31) . . .
33.8(30) . . .
32.0(30) . . .
34.0(33) . . .
27.9(29) . . .
34.1(32) . . .
34.2(30) . . .
29.0(27) . . .
32.9(32) . . .
34.7(32) . . .
34.2(30) . . .
35.5(30) . . .
32.8(31) . . .
33.8(32) . . .
45(4) . . .
32.1(30) . . .
32.9(30) . . .
30.2(28) . . .
34.6(33) . . .
28.8(29) . . .
27.6(27) . . .
28.5(28) . . .
37.1(34) . . .
36.4(34) . . .
37.8(33) . . .
34.2(30) . . .
29.1(29) . . .
30.6(32) . . .
29.6(30) . . .
33.3(30) . . .
34.5(31) . . .
29.1(28) . . .
31.3(30) . . .
37.7(32) . . .
42.6(34) . . .
35.4(31) . . .
30.5(29) . . .
34.9(32) . . .
39.0(34) . . .
26.3(28) . . .
35.3(31) . . .
27.6(28) . . .
32.6(31) . . .
35.3(32) . . .
30.9(30) . . .
33.5(30) . . .
29.0(30) . . .
33.0(31) . . .
33.5(32) . . .
32.8(30) . . .
39.4(33) . . .
32.9(32) . . .
28.9(31) . . .
33.9(31) . . .
32.8(32) . . .
39.0(32) . . .
30.3(30) . . .
36.0(34) . . .
31.5(30) . . .
36.7(32) . . .
36.0(31) . . .
39.3(32) . . .
36.1(32) . . .
32.4(30) . . .
29.8(28) . . .
30.8(29) . . .
32.8(31) . . .
36.6(34) . . .
38.3(33) . . .
36.4(32) . . .
26.1(27) . . .
36.1(33) . . .
35.9(34) . . .
27.6(28) . . .
29.8(28) . . .
33.1(30) . . .
36.1(33) . . .
41(4) . . .
27.5(28) . . .
32.4(30) . . .
30.6(30) . . .
32.3(31) . . .
37.6(34) . . .
36.9(34) . . .
37.1(32) . . .
32.3(30) . . .
33.5(31) . . .
34.2(32) . . .
36.7(32) . . .
22.2(25) . . .
35.2(31) . . .
35.3(32) . . .
38.6(34) . . .
40.4(33) . . .
35.8(31) . . .
27.8(28) . . .
22.3(24) . . .
30.2(30) . . .
39.0(32) . . .
31.7(30) . . .
35.8(35) . . .
30.1(29) . . .
36.1(33) . . .
29.5(28) . . .
29.0(28) . . .
38.2(35) . . .
28.5(30) . . .
32.3(32) . . .
33.5(31) . . .
31.2(29) . . .
38(4) . . .
34.0(33) . . .
35.2(33) . . .
32.0(29) . . .
41.2(34) . . .
34.8(32) . . .
38.0(34) . . .
36.5(33) . . .
32.7(30) . . .
28.6(28) . . .
30.5(29) . . .
40(4) . . .
34.3(31) . . .
35.9(31) . . .
28.2(31) . . .
38.3(35) . . .
43(4) . . .
33.0(30) . . .
36.1(32) . . .
35.3(30) . . .
35.0(33) . . .
32.9(33) . . .
28.5(29) . . .
42.9(34) . . .
40.4(34) . . .
38.8(35) . . .
34.2(33) . . .
34.5(34) . . .
30.1(29) . . .
26.2(26) . . .
33.6(31) . . .
34.7(31) . . .
39(4) . . .
26.1(27) . . .
29.1(29) . . .
32.5(32) . . .
32.5(30) . . .
36.3(31) . . .
42.7(33) . . .
31.0(29) . . .
35.2(32) . . .
32.9(31) . . .
28.1(28) . . .
33.6(30) . . .
38.9(34) . . .
30.0(28) . . .
30.6(29) . . .
27.7(27) . . .
31.2(29) . . .
31.5(31) . . .
38(4) . . .
32.0(32) . . .
33.3(30) . . .
38.0(32) . . .
31.0(29) . . .
28.3(29) . . .
29.3(29) . . .
35.5(31) . . .
31.0(29) . . .
34.9(31) . . .
30.1(29) . . .
32.2(32) . . .
32.3(29) . . .
39.5(33) . . .
35.2(34) . . .
31.2(30) . . .
33.1(30) . . .
25.2(27) . . .
35.4(32) . . .
32.9(30) . . .
38.8(33) . . .
37.9(33) . . .
35.1(31) . . .
39.0(34) . . .
35.5(32) . . .
40(4) . . .
39.2(34) . . .
32.7(30) . . .
32.8(31) . . .
35.5(31) . . .
31.2(30) . . .
26.7(27) . . .
35.9(31) . . .
40.3(34) . . .
32.3(31) . . .
23.8(25) . . .
38.8(34) . . .
35.6(31) . . .
32.1(30) . . .
34.7(34) . . .
36.9(34) . . .
37.2(32) . . .
37.3(32) . . .
37.2(32) . . .
41(4) . . .
35.8(32) . . .
29.5(28) . . .
32.6(30) . . .
36.5(32) . . .
36.2(34) . . .
30.2(29) . . .
30.4(29) . . .
33.0(29) . . .
31.6(30) . . .
34.4(33) . . .
29.6(30) . . .
34.8(31) . . .
34.3(31) . . .
29.8(29) . . .
37(4) . . .
36.8(33) . . .
30.7(29) . . .
34.0(30) . . .
29.8(30) . . .
32.5(32) . . .
29.5(29) . . .
32.1(30) . . .
36.4(33) . . .
27.2(28) . . .
35.1(34) . . .
29.5(28) . . .
32.9(30) . . .
35.4(32) . . .
42(4) . . .
33.0(31) . . .
35.3(34) . . .
32.6(30) . . .
22.4(26) . . .
27.5(28) . . .
38.6(33) . . .
39.7(34) . . .
37.0(32) . . .
45(4) . . .
47(4) . . .
32.3(30) . . .
37.9(32) . . .
37.0(32) . . .
38.0(34) . . .
37.3(34) . . .
31.1(30) . . .
33.5(31) . . .
28.9(29) . . .
28.5(30) . . .
28.4(31) . . .
33.6(32) . . .
38.1(32) . . .
24.7(26) . . .
34.4(34) . . .
36.8(34) . . .
35.3(31) . . .
40.6(33) . . .
38.9(32) . . .
35.7(33) . . .
38(4) . . .
39.7(34) . . .
37.1(31) . . .
34.6(31) . . .
36.2(32) . . .
28.7(28) . . .
31.4(29) . . .
33.4(29) . . .
39.3(35) . . .
33.4(32) . . .
30.1(32) . . .
33.8(32) . . .
33.5(30) . . .
23.4(26) . . .
23.4(29) . . .
26.7(29) . . .
36.1(33) . . .
32.3(30) . . .
36.7(31) . . .
40(4) . . .
35.3(32) . . .
39.2(34) . . .
32.6(30) . . .
36.5(33) . . .
34.0(31) . . .
30.3(30) . . .
25.9(27) . . .
40.1(33) . . .
32.3(30) . . .
24.2(25) . . .
32.5(31) . . .
36.4(32) . . .
39.7(32) . . .
37.2(32) . . .
38(4) . . .
40(4) . . .
26.9(27) . . .
32.0(29) . . .
29.6(31) . . .
32.0(32) . . .
33.5(31) . . .
34.9(31) . . .
28.9(28) . . .
27.9(27) . . .
37.3(33) . . .
41.4(33) . . .
35.4(31) . . .
30.9(30) . . .
31.2(30) . . .
26.4(28) . . .
35.6(33) . . .
36.2(32) . . .
31.9(30) . . .
37.2(33) . . .
35.3(32) . . .
29.2(30) . . .
29.9(30) . . .
31.8(29) . . .
42.8(35) . . .
33.6(33) . . .
38(4) . . .
29.0(28) . . .
34.5(32) . . .
38.0(33) . . .
36.9(33) . . .
26.4(27) . . .
32.1(30) . . .
35.4(33) . . .
40(4) . . .
30.1(30) . . .
38.0(35) . . .
29.3(28) . . .
32.5(30) . . .
28.7(28) . . .
30.2(29) . . .
31.8(30) . . .
36.9(32) . . .
28.5(28) . . .
35.5(34) . . .
33.9(33) . . .
32.9(30) . . .
36.5(32) . . .
36.6(32) . . .
31.2(30) . . .
32.7(31) . . .
32.5(31) . . .
27.8(28) . . .
30.9(33) . . .
30.6(29) . . .
39.3(34) . . .
36.9(32) . . .
42.6(34) . . .
36.8(32) . . .
31.6(32) . . .
27.3(29) . . .
28.0(29) . . .
36.7(32) . . .
34.3(32) . . .
31.5(31) . . .
30.2(31) . . .
29.4(29) . . .
34.0(31) . . .
35.2(32) . . .
33.0(31) . . .
39.1(33) . . .
34.7(30) . . .
42.1(35) . . .
33.0(30) . . .
40(4) . . .
35.6(32) . . .
37.7(32) . . .
32.2(29) . . .
37.5(33) . . .
35.2(32) . . .
35.0(31) . . .
32.9(30) . . .
35.0(32) . . .
22.5(25) . . .
37.9(35) . . .
loop_
_refln_index_h
_refln_index_k
_refln_index_l
_refln_observed_status
_refln_F_squared_meas
_refln_F_squared_calc
_refln_phase_calc
_refln_d_spacing
_gsas_i100_meas
0 2 0 o 787.419 1387.713 180.00 8.35602 3.48
0 0 2 o 5.806 10.540 180.00 6.42648 0.02
1 0 1 o 13557.587 14334.220 0.00 5.89124 59.67
0 2 2 o 30372.498 31051.020 0.00 5.09414 100.00
0 1 3 o 81.337 24.071 0.00 4.15011 0.18
0 3 1 o 1345.002 1357.811 180.00 5.11126 4.46
1 1 2 o 4403.310 4184.268 0.00 4.44759 22.12
0 4 0 o 1769.929 889.350 0.00 4.17801 1.96
1 2 1 o 1782.567 1798.856 0.00 4.81489 10.49
1 0 3 o 206.957 175.532 180.00 3.59816 0.34
0 0 4 o 252.837 103.860 180.00 3.21324 0.17
0 2 4 o 1573.087 2026.363 0.00 2.99914 1.80
0 3 3 o 11658.612 11378.703 0.00 3.39610 17.10
1 2 3 o 1064.406 1288.490 0.00 3.30479 2.96
1 4 1 o 870.526 892.619 180.00 3.40798 2.57
0 5 1 o 41.098 54.118 180.00 3.23482 0.05
1 1 4 o 44.584 32.307 0.00 2.84909 0.09
1 3 2 o 3631.165 3582.672 0.00 3.55341 11.66
0 4 2 o 0.664 0.241 0.00 3.50283 0.00
0 1 5 o 1616.181 1832.406 180.00 2.54071 1.33
2 0 0 o 2021.262 1971.702 180.00 3.31427 1.41
0 6 0 o 994.683 1237.031 0.00 2.78534 0.49
1 0 5 o 504.441 264.620 180.00 2.39668 0.37
2 1 1 o 840.445 965.395 180.00 3.15171 2.13
2 0 2 o 308.720 449.561 0.00 2.94562 0.34
2 2 0 o 24.448 229.222 0.00 3.08079 0.03
1 3 4 o 53.534 101.897 0.00 2.56632 0.09
0 0 6 o 2582.917 3781.445 0.00 2.14216 0.76
1 2 5 o 390.262 496.167 0.00 2.30379 0.53
0 3 5 o 66.365 219.953 0.00 2.33407 0.05
2 1 3 o 1394.854 1387.309 0.00 2.58978 2.39
2 3 1 o 851.507 933.948 0.00 2.78083 1.68
2 2 2 o 2140.006 2211.371 180.00 2.77806 4.21
0 4 4 o 9243.130 11407.480 0.00 2.54707 7.66
1 4 3 o 4950.565 5069.209 0.00 2.72643 9.39
0 2 6 o 105.997 101.810 180.00 2.07506 0.06
1 5 2 o 2992.691 2806.937 180.00 2.70681 5.59
1 6 1 o 695.614 681.814 0.00 2.51809 1.13
0 6 2 o 78.648 125.619 0.00 2.55563 0.07
2 4 0 o 1692.062 1810.716 180.00 2.59652 1.46
1 1 6 o 787.869 733.055 180.00 2.02336 0.83
2 0 4 o 1957.557 2288.430 180.00 2.30699 1.33
0 7 1 o 58.123 261.888 0.00 2.34728 0.04
0 5 3 o 567.871 588.792 180.00 2.63531 0.50
2 2 4 o 10.184 46.678 0.00 2.22380 0.01
0 1 7 o 305.983 530.483 0.00 1.82515 0.13
2 3 3 o 0.000 132.461 180.00 2.37194 0.00
0 8 0 o 39.608 30.864 180.00 2.08901 0.01
2 5 1 o 3.323 5.554 180.00 2.31494 0.00
2 4 2 o 54.758 44.033 180.00 2.40744 0.08
1 0 7 o 1316.048 1138.655 0.00 1.76950 0.53
2 1 5 o 388.606 356.204 180.00 2.01639 0.41
1 4 5 o 5.498 5.449 180.00 2.07892 0.01
1 3 6 o 664.217 604.366 0.00 1.91424 0.63
0 4 6 o 1808.516 1505.731 180.00 1.90621 0.84
2 6 0 o 1318.438 1234.372 180.00 2.13232 0.77
1 5 4 o 5101.210 5308.667 0.00 2.18674 6.25
1 7 2 o 2460.036 2398.786 0.00 2.12040 2.83
0 3 7 o 1496.668 1427.077 0.00 1.74385 0.59
0 5 5 o 19414.811 20223.768 0.00 2.03766 10.34
1 2 7 o 628.727 586.701 180.00 1.73111 0.49
2 0 6 o 1.275 1.145 180.00 1.79908 0.00
0 0 8 o 103.671 132.742 0.00 1.60662 0.02
1 8 1 o 758.412 770.217 180.00 1.96889 0.76
0 8 2 o 3241.706 2537.013 180.00 1.98668 1.64
1 6 3 o 4747.264 4598.063 180.00 2.20253 5.90
2 3 5 o 1175.491 940.895 0.00 1.90833 1.10
0 2 8 o 627.160 500.547 180.00 1.57772 0.20
3 0 1 o 2855.982 2653.193 180.00 2.17757 1.73
0 7 3 o 6521.316 5550.925 0.00 2.08549 3.64
2 4 4 o 1271.594 1264.517 180.00 2.01957 1.33
1 1 8 o 792.435 764.573 0.00 1.55464 0.50
2 2 6 o 1680.400 1408.254 180.00 1.75878 1.34
0 6 4 o 9416.845 7445.999 180.00 2.10468 5.35
2 6 2 o 533.347 486.803 180.00 2.02382 0.56
0 9 1 o 2807.205 2879.954 0.00 1.83781 1.22
3 1 2 o 2892.468 2897.109 180.00 2.07332 3.19
2 7 1 o 300.409 279.421 180.00 1.91553 0.28
3 2 1 o 52.287 52.351 0.00 2.10720 0.06
2 5 3 o 343.016 331.449 0.00 2.06271 0.37
3 0 3 o 2488.744 2620.088 0.00 1.96375 1.23
2 1 7 o 289.779 347.174 0.00 1.59876 0.19
1 4 7 o 282.307 260.542 180.00 1.62939 0.19
1 5 6 o 1301.608 1371.730 0.00 1.74027 1.02
0 1 9 o 2152.418 2204.074 0.00 1.42292 0.57
3 2 3 o 4861.540 4183.895 180.00 1.91167 4.57
1 3 8 o 147.604 173.593 0.00 1.50347 0.09
2 8 0 o 61.562 53.708 0.00 1.76725 0.02
3 4 1 o 953.421 490.675 180.00 1.93103 0.91
0 10 0 o 10704.688 10450.841 180.00 1.67120 1.93
3 1 4 o 3028.365 3030.489 0.00 1.80991 2.55
0 5 7 o 7.782 11.819 0.00 1.60930 0.00
3 3 2 o 1154.081 735.761 0.00 1.95638 1.13
1 0 9 o 274.523 402.772 180.00 1.39607 0.07
1 6 5 o 238.445 354.875 0.00 1.81671 0.20
0 4 8 o 0.843 0.853 0.00 1.49957 0.00
1 9 2 o 6.645 5.091 0.00 1.72262 0.01
1 8 3 o 116.343 103.872 0.00 1.80660 0.10
2 3 7 o 1877.672 1938.117 180.00 1.54326 1.16
2 4 6 o 1985.634 1786.352 0.00 1.65239 1.40
3 0 5 o 2862.943 2551.469 180.00 1.67561 1.04
0 6 6 o 4873.856 5937.823 0.00 1.69805 1.81
2 0 8 o 1257.657 1044.943 180.00 1.44571 0.34
2 5 5 o 2270.844 2430.710 180.00 1.73583 1.76
0 3 9 o 17.139 41.259 0.00 1.38337 0.00
1 2 9 o 21.533 31.386 180.00 1.37699 0.01
2 2 8 o 703.671 673.656 0.00 1.42455 0.37
3 3 4 o 252.897 246.490 180.00 1.73055 0.20
1 10 1 o 395.569 521.802 180.00 1.60777 0.26
2 8 2 o 9.351 9.818 0.00 1.70399 0.01
0 9 3 o 144.748 154.167 180.00 1.70375 0.05
0 0 10 o 4427.567 4816.293 180.00 1.28530 0.48
3 2 5 o 38.531 43.223 0.00 1.64290 0.03
0 10 2 o 282.161 368.173 0.00 1.61741 0.10
1 7 4 o 396.276 437.455 180.00 1.84097 0.35
2 7 3 o 1684.361 1510.649 180.00 1.76512 1.35
0 7 5 o 1769.463 1362.435 180.00 1.74934 0.70
3 4 3 o 311.159 265.707 180.00 1.77722 0.25
2 6 4 o 1543.206 1298.053 0.00 1.77670 1.26
3 5 2 o 438.043 380.255 0.00 1.77175 0.35
3 6 1 o 1973.942 1455.048 180.00 1.71552 1.50
2 9 1 o 35.335 44.603 180.00 1.60725 0.02
3 1 6 o 4.700 8.277 180.00 1.53152 0.00
0 8 4 o 1095.215 780.800 0.00 1.75141 0.43
0 2 10 o 376.643 366.981 0.00 1.27036 0.08
1 5 8 o 70.305 72.468 180.00 1.41466 0.04
0 11 1 o 3880.395 4725.420 180.00 1.50877 1.15
2 1 9 o 781.899 1218.583 180.00 1.30751 0.35
1 1 10 o 94.519 67.295 0.00 1.25821 0.04
1 6 7 o 695.511 692.746 0.00 1.49359 0.40
1 4 9 o 17.723 36.475 0.00 1.32411 0.01
3 0 7 o 1193.766 1210.046 180.00 1.41217 0.31
2 10 0 o 262.427 262.391 0.00 1.49223 0.08
2 5 7 o 2480.572 2050.898 0.00 1.44766 1.35
3 4 5 o 40.877 37.666 180.00 1.55520 0.03
3 3 6 o 3.530 4.547 180.00 1.48253 0.00
1 3 10 o 1.294 0.866 0.00 1.23062 0.00
0 6 8 o 7.410 9.273 180.00 1.39170 0.00
2 4 8 o 2054.683 1907.663 180.00 1.36623 1.00
0 5 9 o 56.704 69.204 0.00 1.31326 0.01
2 6 6 o 2156.088 2904.319 180.00 1.51124 1.28
1 7 6 o 319.497 326.943 0.00 1.55021 0.20
0 12 0 o 1852.373 2371.359 0.00 1.39267 0.23
3 7 2 o 1858.783 1971.600 180.00 1.57233 1.19
3 2 7 o 25.166 32.025 0.00 1.39242 0.01
1 10 3 o 26.242 37.782 180.00 1.51570 0.02
0 7 7 o 3749.948 4537.199 0.00 1.45547 1.03
3 5 4 o 275.748 470.660 180.00 1.59882 0.18
2 3 9 o 694.297 733.709 0.00 1.27663 0.30
4 0 0 o 1545.499 1800.374 0.00 1.65714 0.27
0 4 10 o 11.140 9.177 180.00 1.22848 0.00
1 11 2 o 208.267 162.416 180.00 1.44306 0.11
4 1 1 o 1028.413 749.627 0.00 1.63564 0.71
3 6 3 o 529.272 665.607 0.00 1.60496 0.35
1 9 4 o 223.422 245.664 0.00 1.56244 0.14
4 0 2 o 101.206 132.029 180.00 1.60465 0.03
2 10 2 o 226.066 245.523 180.00 1.45356 0.12
4 2 0 o 529.127 214.876 180.00 1.62548 0.18
3 8 1 o 123.559 138.407 0.00 1.50749 0.07
2 9 3 o 184.215 260.916 0.00 1.51526 0.11
3 1 8 o 948.661 1294.542 180.00 1.29551 0.42
0 11 3 o 524.463 424.021 0.00 1.43191 0.14
2 7 5 o 2000.542 1992.662 0.00 1.54706 1.24
4 3 1 o 725.614 736.156 180.00 1.57636 0.47
4 1 3 o 472.795 517.786 180.00 1.53898 0.29
4 2 2 o 1339.124 1469.943 0.00 1.57585 0.86
1 8 5 o 480.574 536.408 180.00 1.57477 0.31
0 12 2 o 4481.084 4112.299 180.00 1.36108 1.08
1 12 1 o 28.038 23.895 180.00 1.35532 0.01
0 10 4 o 209.193 273.572 180.00 1.48266 0.06
4 4 0 o 1252.294 1503.758 0.00 1.54039 0.39
2 11 1 o 446.587 464.342 0.00 1.37318 0.22
0 8 6 o 1619.629 1459.153 180.00 1.49559 0.47
2 8 4 o 2065.517 2268.405 180.00 1.54850 1.28
4 0 4 o 739.238 1116.855 0.00 1.47281 0.21
3 4 7 o 66.687 65.975 0.00 1.33782 0.03
1 7 8 o 464.334 797.398 0.00 1.30675 0.21
1 6 9 o 328.462 150.710 180.00 1.24807 0.13
3 5 6 o 132.300 299.584 180.00 1.39718 0.07
3 3 8 o 12.399 9.998 180.00 1.26544 0.01
2 5 9 o 1432.291 1335.699 180.00 1.22090 0.56
4 2 4 o 1007.431 747.766 180.00 1.45045 0.55
4 3 3 o 2364.781 1903.008 0.00 1.48929 1.36
4 4 2 o 1689.775 1306.257 180.00 1.49796 0.98
4 5 1 o 2182.909 2393.323 0.00 1.47487 1.23
3 6 5 o 36.201 23.599 180.00 1.43582 0.02
3 9 2 o 2.920 3.519 180.00 1.38800 0.00
4 1 5 o 1070.191 1296.741 0.00 1.38800 0.54
2 6 8 o 1715.243 1692.537 0.00 1.28316 0.74
0 13 1 o 2510.354 2545.982 0.00 1.27916 0.54
0 9 5 o 562.658 874.089 0.00 1.50525 0.17
3 8 3 o 659.697 644.553 180.00 1.43081 0.35
2 12 0 o 582.783 561.620 180.00 1.28392 0.13
4 6 0 o 4051.865 3861.291 180.00 1.42415 1.07
1 8 7 o 42.377 47.192 0.00 1.35021 0.02
2 7 7 o 2475.908 2708.970 180.00 1.33263 1.15
0 7 9 o 417.505 416.192 0.00 1.22558 0.08
4 0 6 o 843.045 1305.957 180.00 1.31072 0.19
3 10 1 o 48.077 161.048 0.00 1.32577 0.02
4 3 5 o 157.375 153.363 180.00 1.35122 0.08
3 7 4 o 81.209 66.058 0.00 1.44771 0.04
1 12 3 o 91.081 115.547 180.00 1.29878 0.04
4 2 6 o 342.635 472.463 0.00 1.29489 0.15
0 8 8 o 724.671 838.615 0.00 1.27354 0.15
1 13 2 o 89.100 20.086 180.00 1.23837 0.04
4 4 4 o 627.278 697.874 0.00 1.38903 0.32
1 11 4 o 30.512 18.388 180.00 1.34492 0.01
2 11 3 o 784.584 784.464 180.00 1.31448 0.36
4 6 2 o 898.956 1124.842 0.00 1.39041 0.45
3 5 8 o 215.176 279.966 0.00 1.21111 0.08
2 8 6 o 2586.246 2307.170 0.00 1.36322 1.26
2 12 2 o 1143.099 1070.723 0.00 1.25904 0.48
4 7 1 o 2966.475 2459.146 180.00 1.35376 1.42
2 10 4 o 1011.150 844.351 0.00 1.35341 0.48
4 5 3 o 499.232 430.155 180.00 1.40283 0.26
1 9 6 o 185.298 190.868 180.00 1.37270 0.09
3 6 7 o 691.199 683.749 180.00 1.25954 0.29
4 1 7 o 479.602 506.636 180.00 1.22688 0.19
1 10 5 o 108.447 95.620 0.00 1.37084 0.05
0 12 4 o 129.832 128.269 180.00 1.27781 0.03
0 9 7 o 15.548 33.563 180.00 1.30562 0.00
0 13 3 o 1056.911 790.816 180.00 1.23131 0.21
4 8 0 o 1449.963 1730.211 0.00 1.29826 0.32
2 9 5 o 3060.635 2894.549 180.00 1.37052 1.50
3 7 6 o 53.159 75.895 0.00 1.29294 0.02
4 4 6 o 70.809 32.441 180.00 1.25063 0.03
4 5 5 o 321.435 286.587 0.00 1.28565 0.14
0 11 5 o 119.791 200.015 0.00 1.30792 0.03
3 10 3 o 157.750 184.718 180.00 1.27271 0.07
3 11 2 o 514.530 568.281 0.00 1.22879 0.20
4 8 2 o 1395.635 1618.506 180.00 1.27255 0.59
3 9 4 o 64.776 83.513 180.00 1.30001 0.03
3 8 5 o 24.027 40.558 180.00 1.30708 0.01
4 7 3 o 441.157 543.285 0.00 1.29742 0.19
5 0 1 o 1764.418 1760.240 0.00 1.31871 0.40
4 9 1 o 1443.992 1268.532 0.00 1.23071 0.58
0 10 6 o 16.054 9.893 180.00 1.31765 0.00
4 6 4 o 91.665 142.509 180.00 1.30200 0.04
5 1 2 o 260.273 340.989 0.00 1.29447 0.11
5 2 1 o 373.661 457.538 0.00 1.30259 0.17
5 0 3 o 34.221 28.420 0.00 1.26646 0.01
2 9 7 o 115.619 99.439 0.00 1.21476 0.05
5 2 3 o 393.133 317.042 0.00 1.25216 0.16
5 4 1 o 9.462 10.398 180.00 1.25756 0.00
5 1 4 o 17.957 18.260 0.00 1.22222 0.01
5 3 2 o 520.180 447.211 0.00 1.26448 0.22
1 10 7 o 111.480 83.254 180.00 1.21499 0.04
2 11 5 o 18.232 19.194 180.00 1.21661 0.01
2 10 6 o 180.011 242.266 180.00 1.22443 0.07
5 4 3 o 828.305 911.280 0.00 1.21200 0.32
5 5 2 o 279.644 238.923 180.00 1.21027 0.11
1 11 6 o 35.748 42.101 0.00 1.21814 0.01
