#------------------------------------------------------------------------------
#$Date: 2016-03-21 01:21:50 +0200 (Mon, 21 Mar 2016) $
#$Revision: 178377 $
#$URL: svn://www.crystallography.net/cod/cif/4/00/21/4002190.cif $
#------------------------------------------------------------------------------
#
# This file is available in the Crystallography Open Database (COD),
# http://www.crystallography.net/
#
# All data on this site have been placed in the public domain by the
# contributors.
#
data_4002190
loop_
_publ_author_name
'Rai, Binod K.'
'Oswald, Iain W. H.'
'Wang, Jiakui K.'
'McCandless, Gregory T.'
'Chan, Julia Y.'
'Morosan, E.'
_publ_section_title
;
 Superconductivity in Single Crystals of Lu3T4Ge13--x(T= Co, Rh, Os) and
 Y3T4Ge13--x(T= Ir, Rh, Os)
;
_journal_issue                   7
_journal_name_full               'Chemistry of Materials'
_journal_page_first              2488
_journal_paper_doi               10.1021/cm504658h
_journal_volume                  27
_journal_year                    2015
_chemical_formula_sum            'Ge13 Ir4 Y3'
_chemical_formula_weight         1979.20
_space_group_crystal_system      cubic
_space_group_IT_number           223
_space_group_name_Hall           '-P 4n 2 3'
_space_group_name_H-M_alt        'P m -3 n'
_symmetry_space_group_name_Hall  '-P 4n 2 3'
_symmetry_space_group_name_H-M   'P m -3 n'
_audit_creation_method           SHELXL-2014
_audit_update_record
;
2014-10-31 # Formatted by publCIF

;
_cell_angle_alpha                90
_cell_angle_beta                 90
_cell_angle_gamma                90
_cell_formula_units_Z            2
_cell_length_a                   8.954(2)
_cell_length_b                   8.954(2)
_cell_length_c                   8.954(2)
_cell_measurement_reflns_used    2293
_cell_measurement_temperature    299(2)
_cell_measurement_theta_max      30.13
_cell_measurement_theta_min      3.22
_cell_volume                     717.9(3)
_computing_cell_refinement       'Bruker SAINT'
_computing_data_collection       'Bruker APEX2'
_computing_data_reduction        'Bruker SAINT'
_computing_molecular_graphics    CrystalMaker
_computing_publication_material  'publCIF (Westrip, 2010)'
_computing_structure_refinement  'SHELXL-2014 (Sheldrick, 2014)'
_computing_structure_solution    'SHELXS Direct Methods (Sheldrick, 2013)'
_diffrn_ambient_temperature      299(2)
_diffrn_measured_fraction_theta_full 1.000
_diffrn_measured_fraction_theta_max 1.000
_diffrn_measurement_device_type  'Bruker Kappa D8 Quest CMOS'
_diffrn_measurement_method       '\f scan'
_diffrn_radiation_monochromator  'HELIOS optics'
_diffrn_radiation_type           MoK\a
_diffrn_radiation_wavelength     0.71073
_diffrn_reflns_av_R_equivalents  0.0663
_diffrn_reflns_av_unetI/netI     0.0285
_diffrn_reflns_Laue_measured_fraction_full 1.000
_diffrn_reflns_Laue_measured_fraction_max 1.000
_diffrn_reflns_limit_h_max       12
_diffrn_reflns_limit_h_min       -12
_diffrn_reflns_limit_k_max       12
_diffrn_reflns_limit_k_min       -10
_diffrn_reflns_limit_l_max       12
_diffrn_reflns_limit_l_min       -12
_diffrn_reflns_number            5046
_diffrn_reflns_point_group_measured_fraction_full 1.000
_diffrn_reflns_point_group_measured_fraction_max 1.000
_diffrn_reflns_theta_full        25.242
_diffrn_reflns_theta_max         30.341
_diffrn_reflns_theta_min         3.218
_diffrn_source                   'I\mS microfocus tube'
_exptl_absorpt_coefficient_mu    75.567
_exptl_absorpt_correction_T_max  0.7461
_exptl_absorpt_correction_T_min  0.1440
_exptl_absorpt_correction_type   multi-scan
_exptl_absorpt_process_details   SADABS(2014)
_exptl_crystal_colour            Silver
_exptl_crystal_density_diffrn    9.156
_exptl_crystal_description       Fragment
_exptl_crystal_F_000             1682
_exptl_crystal_size_max          0.18
_exptl_crystal_size_mid          0.10
_exptl_crystal_size_min          0.06
_refine_diff_density_max         1.868
_refine_diff_density_min         -2.342
_refine_diff_density_rms         0.496
_refine_ls_extinction_method     none
_refine_ls_goodness_of_fit_ref   1.245
_refine_ls_hydrogen_treatment    undef
_refine_ls_matrix_type           full
_refine_ls_number_constraints    0
_refine_ls_number_parameters     15
_refine_ls_number_reflns         220
_refine_ls_number_restraints     0
_refine_ls_restrained_S_all      1.245
_refine_ls_R_factor_all          0.0343
_refine_ls_R_factor_gt           0.0321
_refine_ls_shift/su_max          0.000
_refine_ls_shift/su_mean         0.000
_refine_ls_structure_factor_coef Fsqd
_refine_ls_weighting_details
'w=1/[\s^2^(Fo^2^)+(0.0347P)^2^+19.2421P] where P=(Fo^2^+2Fc^2^)/3'
_refine_ls_weighting_scheme      calc
_refine_ls_wR_factor_gt          0.0861
_refine_ls_wR_factor_ref         0.0879
_reflns_Friedel_coverage         0.000
_reflns_number_gt                207
_reflns_number_total             220
_reflns_threshold_expression     'I > 2\s(I)'
_cod_data_source_file            Y3Ir4Ge13_CIF.cif
_cod_data_source_block           shelx
_cod_depositor_comments
'Adding full bibliography for 4002190--4002195.cif.'
_cod_original_cell_volume        717.9(5)
_cod_database_code               4002190
#BEGIN Tags that were not found in dictionaries:
_publcif_datablock.id            {5cd56e1d-e424-4226-8096-e99a3fb56cb3}
_shelx_space_group_comment
;
The symmetry employed for this shelxl refinement is uniquely defined
by the following loop, which should always be used as a source of
symmetry information in preference to the above space-group names.
They are only intended as comments.
;
_shelxl_version_number           2014-3
_shelx_res_file
;
TITL scd0281_223 in Pm-3n
CELL 0.71073   8.95400   8.95400   8.95400  90.0000  90.0000  90.0000
ZERR    2.00   0.00228   0.00228   0.00228   0.0000   0.0000   0.0000
LATT  1
REM xtral size = .18 x .10 x .06
REM VOLUME = 717.88(55)
SYMM -X, -Y, Z
SYMM -X, Y, -Z
SYMM X, -Y, -Z
SYMM Z, X, Y
SYMM Z, -X, -Y
SYMM -Z, -X, Y
SYMM -Z, X, -Y
SYMM Y, Z, X
SYMM -Y, Z, -X
SYMM Y, -Z, -X
SYMM -Y, -Z, X
SYMM 0.5+Y, 0.5+X, 0.5-Z
SYMM 0.5-Y, 0.5-X, 0.5-Z
SYMM 0.5+Y, 0.5-X, 0.5+Z
SYMM 0.5-Y, 0.5+X, 0.5+Z
SYMM 0.5+X, 0.5+Z, 0.5-Y
SYMM 0.5-X, 0.5+Z, 0.5+Y
SYMM 0.5-X, 0.5-Z, 0.5-Y
SYMM 0.5+X, 0.5-Z, 0.5+Y
SYMM 0.5+Z, 0.5+Y, 0.5-X
SYMM 0.5+Z, 0.5-Y, 0.5+X
SYMM 0.5-Z, 0.5+Y, 0.5+X
SYMM 0.5-Z, 0.5-Y, 0.5-X
SFAC GE Y IR
UNIT 26 6 8
TEMP 25.800

L.S. 25
BOND
FMAP 2
PLAN 20
acta
EADP GE2A GE2B
REM EXTI    0.000518
WGHT    0.034700   19.242104
FVAR       0.04402   0.42670
Y1    2    0.250000    0.500000    0.000000    10.12500    0.00632    0.00283 =
         0.00283    0.00000    0.00000    0.00000
IR1   3    0.250000    0.250000    0.250000    10.16667    0.00094    0.00094 =
         0.00094   -0.00014   -0.00014   -0.00014
GE1   1    0.000000    0.000000    0.000000    10.04167    0.01172    0.01172 =
         0.01172    0.00000    0.00000    0.00000
GE2A  1    0.000000    0.269212    0.131972    20.50000    0.00131    0.02121 =
         0.00618    0.00660    0.00000    0.00000
GE2B  1    0.000000    0.332752    0.155303   -20.50000    0.00131    0.02121 =
         0.00618    0.00660    0.00000    0.00000

HKLF 4

REM  scd0281_223 in Pm-3n
REM R1 =  0.0321 for     207 Fo > 4sig(Fo)  and  0.0343 for all     220 data
REM     15 parameters refined using      0 restraints

END

WGHT      0.0347     19.2420

REM Highest difference peak  1.868,  deepest hole -2.342,  1-sigma level  0.496
Q1    1   0.0000  0.2135  0.1497  10.50000  0.05    1.87
Q2    1   0.1612  0.1612  0.1612  10.33333  0.05    1.60
Q3    1   0.0000  0.4402  0.1210  10.50000  0.05    1.44
Q4    1  -0.0865  0.3923  0.1777  11.00000  0.05    1.23
Q5    1   0.0000  0.3857  0.0711  10.50000  0.05    1.21
Q6    1   0.0000  0.4105  0.0997  10.50000  0.05    1.20
Q7    1   0.2599  0.3695  0.1550  11.00000  0.05    1.19
Q8    1   0.0000  0.3551  0.1940  10.50000  0.05    1.16
Q9    1   0.0759  0.0759  0.0759  10.33333  0.05    1.11
Q10   1   0.0000  0.1078  0.0000  10.25000  0.05    1.09
Q11   1   0.0000  0.2342  0.2710  10.50000  0.05    1.08
Q12   1   0.3068  0.2098  0.1349  11.00000  0.05    1.06
Q13   1   0.1596  0.2473  0.2491  11.00000  0.05    1.05
Q14   1   0.1725  0.3795  0.0929  11.00000  0.05    1.02
Q15   1   0.1568  0.3117  0.1510  11.00000  0.05    1.00
Q16   1  -0.1276  0.3400  0.0859  11.00000  0.05    0.92
Q17   1   0.0890  0.3286  0.0000  10.50000  0.05    0.92
Q18   1   0.2631  0.1214  0.1610  11.00000  0.05    0.88
Q19   1  -0.0858  0.3621  0.0295  11.00000  0.05    0.86
Q20   1   0.0000  0.2336  0.0443  10.50000  0.05    0.84
;
_shelx_res_checksum              57430
_shelx_hkl_file
;
  -1  -1   0    0.17    0.09
  -1   0  -1    0.06    0.08
  -1   0   1    0.09    0.08
  -1   1   0    0.22    0.22
   0  -1  -1    0.14    0.09
   0  -1   1    0.33    0.21
   0   1  -1    0.13    0.18
   0   1   1    0.22    0.09
   1  -1   0    0.63    0.27
   1  -1   0   -0.06    0.13
   1   1   0    0.21    0.10
  -1  -1  -1   -0.82    0.05
  -1  -1   1   -0.62    0.07
  -1   1  -1   -1.10    0.20
  -1   1   1   -0.80    0.11
  -1   1   1   -0.80    0.05
   1  -1  -1   -0.81    0.05
   1  -1   1   -0.72    0.29
   1   1  -1   -0.85    0.04
   1   1   1   -0.81    0.04
  -2   0   0  367.34   29.70
   0  -2   0  359.31   29.67
   0   0   2  361.50   29.70
   0   2   0  359.66   29.63
   0   2   0  365.62   29.75
   2   0   0  341.07   29.69
  -2   0  -1   -0.41    0.08
  -2   0   1   -0.37    0.05
  -1  -2   0   -0.56    0.07
  -1  -2   0   -0.46    0.12
  -1   2   0   -0.41    0.29
   0  -1  -2   -0.41    0.07
   0  -1   2   -0.48    0.32
   0   1  -2   -0.28    0.24
   0   1   2   -0.44    0.07
   1  -2   0   -0.34    0.25
   1  -2   0    0.38    0.30
   1   2   0   -0.52    0.12
  -2  -1   0   -0.48    0.06
  -2   1   0   -0.31    0.21
  -1   0  -2   -0.28    0.28
  -1   0  -2   -0.44    0.09
  -1   0   2   -0.40    0.15
   0  -2  -1   -0.33    0.08
   0  -2  -1   -0.24    0.14
   0  -2   1   -0.23    0.20
   0  -2   1   -0.68    0.14
   0   2  -1   -0.54    0.19
   0   2   1   -0.34    0.08
   1   0  -2   -0.43    0.07
   1   0   2   -0.53    0.07
   2  -1   0   -0.55    0.11
   2   1   0   -0.37    0.07
  -2  -1  -1   -0.90    0.07
  -2  -1   1   -0.78    0.06
  -2   1  -1   -1.26    0.23
  -2   1   1   -0.94    0.16
  -1  -2  -1   -0.94    0.08
  -1  -2   1   -0.90    0.11
  -1  -2   1   -0.84    0.22
  -1  -1  -2   -0.81    0.09
  -1  -1   2   -0.85    0.15
  -1   1  -2   -0.94    0.34
  -1   1   2   -0.85    0.05
  -1   2  -1   -0.97    0.32
  -1   2   1   -0.88    0.18
   1  -2  -1   -0.80    0.19
   1  -2  -1   -0.65    0.19
   1  -2   1   -0.33    0.37
   1  -1  -2   -0.83    0.05
   1  -1   2   -0.80    0.42
   1   1  -2   -0.76    0.11
   1   2  -1   -0.97    0.08
   2  -1  -1   -0.89    0.09
   2  -1   1   -0.71    0.15
   2   1   1   -0.94    0.08
  -2  -2   0  249.14   20.76
  -2   0  -2  262.91   20.78
  -2   0   2  252.55   20.75
  -2   2   0  225.50   20.94
   0  -2  -2  245.21   20.76
   0  -2   2  252.28   20.95
   0   2   2  275.26   20.76
   2  -2   0  260.36   20.89
   2   0   2  243.24   20.77
  -2  -2  -1    0.01    0.09
  -2  -2   1    0.07    0.12
  -2  -2   1   -0.13    0.12
  -2  -1  -2   -0.05    0.10
  -2  -1   2   -0.12    0.10
  -2   1  -2    0.09    0.37
  -2   1   2   -0.08    0.06
  -2   2  -1   -0.44    0.42
  -2   2   1   -0.05    0.25
  -2   2   1   -0.15    0.22
  -1  -2  -2   -0.18    0.09
  -1   2  -2    0.03    0.38
   1  -2  -2   -0.23    0.12
   1  -2  -2   -0.22    0.09
   1  -2   2   -0.98    0.41
   1   2  -2   -0.23    0.13
   1   2   2   -0.14    0.09
   2  -2  -1   -0.18    0.34
   2  -2  -1   -0.18    0.25
   2  -2   1    0.73    0.53
   2  -1   2   -0.05    0.39
   2  -1   2   -0.32    0.16
   2   1   2   -0.14    0.10
   2   2  -1    0.07    0.20
  -2  -2  -2  489.00   45.82
  -2  -2   2  561.32   45.87
  -2   2  -2  498.39   46.15
  -2   2   2  632.12   46.02
   2  -2  -2  560.39   45.83
   2   2  -2  600.86   46.12
   2   2   2  561.44   46.05
  -3   0   0    0.27    0.09
   0  -3   0    0.01    0.15
   0  -3   0    0.22    0.35
   0   0  -3   -0.10    0.28
   0   0   3   -0.01    0.34
   0   3   0    0.00    0.16
  -3   0  -1   10.91    1.02
  -3   0   1   11.49    0.98
  -1  -3   0   10.37    1.04
  -1  -3   0    9.63    1.13
  -1   3   0   11.27    1.30
   0  -1  -3    8.93    1.21
   0  -1   3   11.53    1.47
   0   1  -3   11.03    1.23
   1  -3   0    8.93    1.16
   1   3   0    9.47    1.04
   1   3   0   11.83    1.20
   3   0  -1   11.21    0.97
   3   0   1   11.25    1.03
   3  -1   0   10.81    1.06
   0   3  -1   11.89    1.18
   0   3   1   12.16    1.05
   0   3   1   12.19    1.10
   1   0   3   13.49    1.04
   0  -3  -1   10.92    1.03
   0  -3   1   10.04    1.13
  -1   0   3   14.11    1.33
  -1   0   3   13.10    0.98
  -1   0  -3    9.39    1.33
  -3  -1   0   10.14    0.99
   3   1  -1   -0.38    0.14
   3  -1   1   -0.65    0.17
   3  -1  -1   -0.59    0.28
   3  -1  -1   -0.63    0.11
   1   3  -1   -0.58    0.15
   1   3  -1   -0.41    0.34
   1   3   1   -0.53    0.15
   1  -1  -3   -0.71    0.08
   1  -1   3   -0.96    0.49
   1   1  -3   -0.81    0.14
   1   1   3   -0.81    0.10
   3   1   1   -0.53    0.13
  -3  -1  -1   -0.39    0.12
  -3  -1   1   -0.50    0.08
  -3   1  -1   -0.54    0.24
  -1  -3  -1   -0.51    0.12
  -1  -3  -1   -0.68    0.16
  -1  -3   1   -0.57    0.19
  -1  -3   1   -0.93    0.32
  -1  -1  -3   -0.76    0.10
  -1  -1   3   -1.00    0.34
  -1   1  -3   -0.74    0.36
  -1   1   3   -0.75    0.07
  -1   3  -1   -0.90    0.38
  -1   3   1   -0.12    0.25
  -1   3   1   -0.66    0.21
   1  -3  -1   -0.57    0.22
   1  -3  -1   -0.53    0.32
   1  -3   1   -0.29    0.38
   1  -3   1   -0.38    0.26
  -3   0   2  321.24   25.20
  -3   0   2  323.04   25.16
  -2  -3   0  300.87   25.21
  -2  -3   0  288.99   25.22
   0  -2  -3  315.54   25.18
   0  -2   3  267.36   25.47
   0   2  -3  334.38   25.42
   0   2   3  323.72   25.18
   2  -3   0  259.29   25.41
   2   3   0  324.90   25.28
   3   0   2  319.68   25.21
  -3   0  -2  307.29   25.20
   0  -3   2  275.34   25.34
   0   3  -2  326.14   25.39
   0   3   2  301.25   25.20
   2   0   3  302.47   25.20
   3  -2   0  313.81   25.32
   3   2   0  313.12   25.20
   0  -3  -2  308.36   25.16
   0  -3  -2  295.33   25.23
  -3   2   0  269.23   25.35
  -2   0  -3  290.22   25.42
  -2   0  -3  309.78   25.21
  -2   0   3  357.78   25.23
  -3  -2   0  297.36   25.17
  -1   2   3   62.95    5.35
   1   3   2   63.65    5.39
  -1  -3   2   64.68    5.48
   2   3  -1   65.84    5.41
   2   3  -1   53.66    5.61
   3  -2  -1   62.14    5.59
   1  -3  -2   66.12    5.39
  -2  -3  -1   61.79    5.40
  -2   3   1   69.70    5.60
  -1  -2  -3   61.63    5.37
  -3   1   2   64.92    5.45
  -3   2  -1   58.77    5.60
  -3  -2   1   67.05    5.42
  -3  -2   1   63.59    5.35
   1  -3  -2   64.86    5.45
  -2  -1   3   68.13    5.45
   3   2   1   70.25    5.39
  -1   3  -2   73.12    5.77
  -2  -3   1   65.21    5.41
  -1   2  -3   66.81    5.78
   2   3   1   67.87    5.41
   3   1   2   65.86    5.38
  -2  -3   1   62.98    5.47
  -3   2   1   66.06    5.49
  -2  -1  -3   64.30    5.38
  -3   1  -2   59.75    5.59
  -1  -2   3   61.76    5.55
  -2   1   3   72.13    5.38
  -2   1   3   65.09    5.32
  -1  -3  -2   63.11    5.40
   2  -3  -1   54.72    5.56
   2  -3  -1   56.93    5.60
  -3  -2  -1   69.53    5.38
  -1   3   2   60.23    5.36
  -1   3   2   61.80    5.41
  -3  -1   2   65.82    5.40
  -3  -1   2   65.73    5.32
   1   3  -2   60.24    5.45
   1   2   3   66.01    5.37
   2  -1   3   55.38    5.74
   2  -1   3   61.31    5.44
   3  -2   1   75.79    5.95
   3   2  -1   61.53    5.47
   1  -2  -3   62.70    5.35
  -3  -2  -2   -0.17    0.13
  -3  -2   2   -0.40    0.12
  -3  -2   2   -0.30    0.13
  -3   2   2   -0.50    0.23
  -3   2   2   -0.19    0.27
  -2  -3  -2   -0.34    0.13
  -2  -3   2   -0.32    0.17
  -2  -3   2   -0.23    0.41
  -2  -2  -3   -0.34    0.11
  -2  -2   3   -0.33    0.24
  -2   2  -3   -0.25    0.40
  -2   2   3   -0.36    0.10
  -2   3  -2   -0.18    0.48
  -2   3   2   -0.32    0.33
  -2   3   2   -0.13    0.20
   2  -3  -2   -0.36    0.37
   2  -3  -2   -0.06    0.26
   2  -3   2   -0.66    0.67
   2  -2  -3   -0.20    0.10
   2  -2   3   -0.05    0.71
   2   2  -3   -0.33    0.12
   2   2   3   -0.21    0.13
   2   3  -2   -0.46    0.13
   2   3   2   -0.17    0.16
   3  -2  -2   -0.13    0.20
   3  -2   2   -0.41    0.68
  -3  -3   0   60.67    4.89
  -3   0  -3   58.55    5.13
  -3   0  -3   57.51    4.90
  -3   0   3   58.84    4.89
  -3   3   0   58.80    5.15
   0  -3  -3   58.96    4.83
   0  -3  -3   54.41    4.89
   0  -3   3   48.59    5.17
   0   3  -3   53.20    5.11
   0   3   3   58.77    4.88
   3   0   3   57.04    4.90
   3   3   0   63.93    4.95
  -3  -3  -1   -0.33    0.13
  -3  -3   1   -0.32    0.18
  -3  -3   1   -0.36    0.15
  -3  -1  -3   -0.33    0.15
  -3  -1   3   -0.18    0.19
  -3   1  -3   -0.33    0.41
  -3   1   3    0.01    0.15
  -3   1   3   -0.26    0.10
  -3   3  -1    0.02    0.41
  -3   3   1    0.25    0.50
  -1  -3  -3   -0.27    0.16
  -1  -3   3   -0.21    0.42
  -1   3  -3    0.27    0.55
  -1   3   3    0.04    0.17
   1  -3  -3   -0.08    0.15
   1  -3  -3   -0.21    0.16
   1  -3   3    0.14    0.63
   1   3  -3   -0.33    0.23
   1   3   3   -0.18    0.16
   3  -3  -1    0.18    0.63
   3  -3  -1   -0.65    0.39
   3  -3   1   -0.93    0.64
   3  -3   1   -0.46    0.27
   3  -1   3   -0.12    0.25
   3   1   3   -0.32    0.14
   3   3  -1   -0.49    0.46
   3   3   1   -0.43    0.16
  -3  -3  -2    3.52    0.52
  -3  -3   2    3.41    0.51
  -3  -3   2    4.45    0.57
  -3  -2  -3    2.96    0.52
  -3  -2   3    3.95    0.56
  -3   2  -3    2.11    0.78
  -3   2   3    3.22    0.46
  -3   2   3    3.91    0.47
  -3   3  -2    4.61    0.91
  -3   3   2    3.57    0.64
  -2  -3  -3    3.07    0.62
  -2  -3   3    4.08    0.65
  -2   3  -3    5.58    1.17
  -2   3   3    3.43    0.46
   2  -3  -3    3.20    0.48
   2  -3   3    3.27    1.14
   2   3  -3    3.36    0.50
   3  -3  -2    3.79    0.67
   3  -2  -3    3.22    0.36
   3  -2  -3    2.91    0.41
   3  -2   3    4.35    1.20
   3  -2   3    2.17    0.62
   3   2   3    3.27    0.46
   3   3   2    3.80    0.48
  -3  -3  -3   -0.32    0.15
  -3  -3   3   -0.18    0.23
  -3  -3   3    0.54    0.43
  -3   3  -3   -0.13    0.52
  -3   3   3    0.00    0.21
   3  -3  -3   -0.10    0.21
   3  -3   3   -1.20    0.95
   3   3  -3   -0.03    0.16
   3   3   3   -0.11    0.16
  -4   0   0  981.68   77.74
   0  -4   0  929.22   77.68
   0   0   4  858.42   77.73
   0   0   4  906.28   77.68
   0   4   0  995.60   77.67
   4   0   0  990.88   77.78
  -4   0  -1   82.02    6.29
  -4   0   1   79.66    6.25
  -1  -4   0   68.91    6.32
  -1  -4   0   62.68    6.45
  -1   4   0   80.70    6.55
   0  -1  -4   74.61    6.28
   0  -1   4   66.54    6.75
   0   1  -4   62.36    6.47
   0   1   4   73.89    6.26
   1  -4   0   63.86    6.40
   1   4   0   67.28    6.33
   1   4   0   76.19    6.53
   4   0  -1   85.06    6.33
   4   0  -1   82.02    6.25
   4   0   1   85.43    6.31
   4  -1   0   69.49    6.30
   4   1   0   76.22    6.28
   0  -4  -1   75.30    6.49
   0  -4   1   79.27    6.42
   0   4  -1   82.28    6.49
   0   4   1   80.84    6.35
   0   4   1   80.66    6.44
   1   0  -4   77.17    6.31
   1   0   4   75.61    6.28
  -1   0   4   73.29    6.24
  -4  -1   0   70.38    6.26
  -1   0   4   67.59    6.54
   0  -4  -1   82.14    6.32
   4   1  -1    1.37    0.26
  -1  -4   1    0.91    0.57
  -1  -1  -4    0.33    0.59
  -1  -1  -4    0.61    0.23
  -1  -1   4    0.79    0.75
  -1   1  -4    0.03    0.55
  -1   4  -1    1.50    0.59
  -1   4   1    1.40    0.41
  -1  -4   1    1.24    0.39
  -1   4   1    1.09    0.43
  -4  -1  -1    1.34    0.25
  -4  -1   1    1.13    0.20
  -1  -4  -1    1.74    0.29
  -1  -4  -1    1.85    0.40
   1   4  -1    1.47    0.35
   1   4  -1    2.45    0.67
   1   4   1    1.53    0.37
   4  -1  -1    2.65    0.50
   4  -1   1    1.12    0.32
   1  -4  -1    1.58    0.39
   1  -4  -1    0.88    0.54
   1  -4   1    0.94    0.51
   1  -4   1    2.03    0.56
   1  -1   4    0.79    0.73
   1   1  -4    0.77    0.31
   4   1   1    1.48    0.30
   2  -4   0  497.99   36.79
   2   4   0  446.33   36.62
   4   0   2  442.80   36.47
  -4  -2   0  442.21   36.42
   2  -4   0  371.03   36.65
  -4   0  -2  452.89   36.45
   0  -2  -4  396.58   36.60
   0  -2  -4  440.88   36.43
   0  -2   4  372.83   36.87
   0   2  -4  454.34   36.70
   0   2   4  497.73   36.52
  -4   0   2  455.79   36.42
  -2  -4   0  448.91   36.49
  -2  -4   0  417.96   36.52
   2   0   4  434.77   36.45
   4  -2   0  429.26   36.56
   4   2   0  432.91   36.44
   0  -4   2  474.09   36.66
   0   4  -2  499.46   36.71
  -4   2   0  441.20   36.59
   0  -4  -2  434.25   36.55
   0  -4   2  386.95   36.59
   0   4   2  450.51   36.49
  -2   0   4  489.04   36.68
  -2   0   4  457.85   36.40
   0  -4  -2  442.25   36.43
  -2   4   1    0.92    0.57
  -1  -4   2    0.33    0.32
  -2  -4  -1    0.10    0.23
   4  -1   2    0.32    0.25
  -1  -4   2    0.45    0.55
  -4  -1  -2    0.47    0.18
   4   2   1    0.09    0.16
   2  -4   1   -0.17    0.66
  -2  -1   4    0.64    0.50
  -2   1  -4    0.87    0.68
   1  -4  -2    0.43    0.26
   1  -4  -2    0.75    0.41
  -1   2   4    0.28    0.13
  -2   4   1    0.39    0.35
   1   2  -4    0.47    0.30
   1   4   2    0.33    0.20
  -1  -2  -4    0.56    0.20
  -1   4  -2    0.13    0.50
   4  -2  -1    0.18    0.42
   2   4  -1    0.31    0.20
   2   4  -1    0.25    0.43
  -4   2  -1   -0.05    0.31
  -4  -2   1    0.30    0.12
   4  -2  -1   -0.11    0.24
   2   1   4    0.21    0.16
  -2  -4  -1    0.50    0.22
  -4   1  -2    0.49    0.39
  -1  -2   4   -0.32    0.66
  -2   1   4    0.17    0.30
   1  -2  -4    0.37    0.15
   1  -4   2    0.71    0.41
   1   4  -2    0.66    0.31
   1   2   4    0.29    0.16
   2  -1   4    0.26    0.24
   2   1  -4    0.35    0.16
  -2  -1  -4    0.27    0.18
  -1  -4  -2    0.29    0.14
   4   1   2    0.63    0.22
   4  -2   1   -0.38    0.28
   4   2  -1    0.10    0.24
  -4  -1   2    0.58    0.12
  -2  -4   1    0.10    0.18
  -2  -4   1   -0.08    0.30
  -2   4  -1    0.68    0.49
  -1  -4  -2    0.33    0.30
   2   4   1    0.16    0.22
  -2   1   4    0.45    0.10
  -1   4   2    0.39    0.19
   2  -4  -1    0.31    0.44
  -4   2   1    0.30    0.28
   2  -4  -1   -0.13    0.43
  -1   4   2    0.80    0.31
  -4  -2  -1    0.27    0.15
  -1   2  -4    0.24    0.62
   1  -4   2    0.28    0.51
  -2  -1  -4    0.25    0.45
   2   4  -2  684.76   55.72
   2   2  -4  735.74   55.85
  -2  -4  -2  652.80   55.65
   2   2   4  673.12   55.64
  -4  -2  -2  638.35   55.64
  -4  -2   2  710.34   55.71
  -4  -2   2  715.30   55.71
  -4   2  -2  698.33   55.95
  -2  -4  -2  618.58   55.68
  -2  -4   2  725.56   55.75
  -2  -2  -4  685.61   55.66
  -2  -2   4  719.22   55.86
  -2   4   2  778.68   55.79
  -2   4   2  746.71   55.81
   2  -4  -2  623.31   55.77
   2  -4  -2  628.89   55.86
   2  -4   2  610.72   56.03
   2  -4   2  584.19   55.81
   2  -2  -4  637.53   55.60
   4  -2   2  641.75   55.82
   2   4   2  693.65   55.77
   4  -2  -2  638.64   55.70
   4   2   2  728.80   55.73
  -4   0  -3   21.32    1.96
  -3   0   4   24.65    2.05
  -4   0   3   24.15    1.99
   0  -4  -3   20.97    2.01
   0  -4   3   18.49    2.20
   0   4  -3   20.57    2.22
   0   4   3   21.13    1.95
   3   0   4   24.29    1.98
   4   3   0   21.78    1.99
   0   3  -4   23.64    2.28
   0   3   4   23.65    1.93
   3   4   0   21.03    2.08
   4   0   3   22.25    1.98
   0  -4  -3   21.52    1.89
   0  -3  -4   24.35    1.95
  -4  -3   0   20.83    1.92
  -4   3   0   21.27    2.18
  -4   0   3   23.47    1.95
  -4   0   3   23.19    1.85
  -3  -4   0   19.89    1.96
  -3  -4   0   21.17    2.00
  -3   0  -4   19.27    2.04
   0  -3   4   21.43    2.50
  -3   0  -4   23.14    2.35
   1   3  -4    2.80    0.56
  -3   1  -4    2.19    0.78
  -4   3  -1    2.72    0.67
   3  -4   1    4.17    1.09
   3  -4   1    3.67    0.68
   3   4  -1    2.32    0.70
  -4  -1  -3    3.10    0.43
   4  -3  -1    3.03    0.71
  -1  -4   3    4.73    0.80
   4  -1   3    2.99    0.54
   1   4   3    3.69    0.46
  -4  -3   1    3.08    0.51
  -4  -3   1    2.73    0.38
   1  -4  -3    2.83    0.51
  -4   1   3    3.38    0.53
  -3  -1   4    3.52    0.58
  -1   3   4    3.06    0.40
   1  -4  -3    3.25    0.44
   3   1   4    2.89    0.44
  -1  -3  -4    2.94    0.44
   4   3   1    3.63    0.48
  -1   4  -3    4.13    0.96
  -1  -4   3    2.05    0.58
  -3  -4  -1    3.28    0.45
   1  -3   4    2.17    1.15
  -3   1   4    3.02    0.60
  -3   1   4    3.10    0.31
   3  -1   4    3.01    0.52
  -1  -4  -3    2.88    0.49
  -4   1  -3    2.70    0.67
   4   1   3    2.80    0.45
   1   4  -3    2.55    0.54
   1   3   4    3.20    0.42
   3  -4  -1    5.94    1.03
   3  -4  -1    2.15    0.72
  -4   3   1    2.69    0.58
  -3  -1  -4    2.85    0.45
   1  -4   3    3.31    0.94
  -1  -4  -3    3.26    0.38
  -3  -4   1    3.09    0.46
  -3  -4   1    2.71    0.51
  -3   4  -1    4.72    1.00
  -4  -1   3    2.74    0.48
   4  -3   1    2.48    0.59
   4   3  -1    2.42    0.64
  -1  -3   4    2.86    0.80
  -1   3  -4    4.48    1.00
  -1   4   3    3.52    0.48
   1  -3  -4    2.58    0.42
   3   4   1    3.12    0.51
  -4  -3  -1    2.70    0.40
  -4  -2  -3   10.32    1.04
   4  -2   3    9.86    1.29
  -4  -3   2   12.85    1.03
   2  -4  -3    9.67    1.22
  -4   3  -2   11.33    1.44
  -3   2  -4    8.62    1.57
  -2   3   4   11.04    1.03
   4  -3  -2   10.72    1.33
   2  -3   4   12.30    2.24
   2   3  -4   10.96    1.11
  -3  -4  -2   10.90    1.08
  -2  -3  -4   10.46    1.07
  -4  -3   2   11.24    1.13
   2   4   3   12.03    1.08
  -2  -4   3   10.62    1.24
  -4   2   3   11.88    1.08
  -4   2   3   10.60    1.16
   4   3   2   11.82    1.08
   3   2   4   10.64    1.06
   2  -4  -3   10.42    1.20
  -4  -2   3    9.85    1.12
   2   3   4   10.79    1.05
   3   4   2   11.93    1.10
   4   2   3   10.51    1.07
  -2  -3   4   11.17    1.40
  -3  -2  -4   10.25    1.06
  -2   3  -4   16.18    1.93
  -3   2   4   12.02    1.01
  -2  -4  -3   10.08    1.08
  -4  -2   3   10.38    0.98
  -4   2  -3    9.58    1.45
   3  -4  -2    9.01    1.43
  -2   4   3   10.37    1.02
  -2   4   3   10.58    1.11
  -3  -4   2   11.41    1.15
  -3  -4   2   11.80    1.23
   2  -4   3    7.78    1.69
   2   4  -3    9.35    1.13
   3  -2   4   14.53    2.28
   3  -2   4   10.45    1.30
   3   2  -4   10.67    1.04
   2  -3  -4   11.25    1.03
  -4  -3  -2   12.13    1.06
  -4  -3  -3   87.32    6.98
  -4  -3   3   76.20    7.04
  -4  -3   3   91.21    6.96
  -4   3  -3   90.17    7.46
  -4   3   3   96.97    7.05
  -4   3   3   84.56    7.09
  -3  -4  -3   87.23    7.00
  -3  -4   3   73.43    7.21
  -3  -3  -4   76.40    6.97
  -3  -3   4   80.10    7.12
  -3   3  -4   71.04    7.48
  -3   3   4   81.20    6.96
  -3   4   3   89.57    7.01
  -3   4   3   84.86    7.08
   3  -4  -3   92.97    7.14
   3  -3  -4   72.31    6.90
   3   3  -4   72.94    6.97
   3   3   4   76.63    6.96
   3   4  -3   82.83    7.02
   3   4   3   89.03    6.99
   4  -3  -3   87.46    6.99
   4  -3  -3   82.96    7.03
   4  -3   3   73.63    7.28
   4   3   3   92.38    6.99
  -4  -4   0  417.43   35.05
  -4  -4   0  411.30   34.99
  -4   0  -4  419.64   35.31
  -4   0  -4  405.52   35.01
  -4   0   4  436.07   35.03
  -4   4   0  488.65   35.33
   0  -4  -4  420.65   34.92
   0  -4  -4  364.83   35.05
   0   4  -4  436.01   35.31
   0   4   4  413.13   34.98
   4   0   4  445.80   35.04
   4   4   0  440.89   35.10
  -4  -4  -1    0.02    0.18
  -4  -4   1   -0.01    0.21
  -4  -4   1    0.13    0.31
  -4  -1  -4    0.27    0.23
  -4   1  -4    0.47    0.61
  -4   1   4    0.40    0.24
  -4   1   4    0.00    0.13
  -4   4  -1    0.21    0.51
  -4   4   1    0.01    0.46
  -1  -4  -4    0.42    0.27
  -1  -4   4    0.43    0.77
  -1   4  -4    0.01    0.66
  -1   4   4    0.26    0.21
   1  -4  -4    0.17    0.18
   1  -4  -4    0.23    0.25
   1  -4   4    0.55    0.93
   1   4  -4    0.30    0.41
   1   4   4    0.42    0.23
   4  -4   1    0.31    1.00
   4  -4   1    0.13    0.42
   4  -1   4    0.19    0.32
   4   1   4    0.13    0.22
   4   4  -1   -0.68    0.54
   4   4   1    0.42    0.26
  -4  -4  -2  147.49   11.88
  -4  -4   2  149.11   12.02
  -4  -4   2  141.40   11.86
  -4  -2  -4  138.12   11.87
  -4  -2   4  143.15   11.98
  -4   2  -4  129.07   12.28
  -4   2   4  145.61   11.81
  -4   2   4  148.53   11.81
  -4   2   4  149.67   11.86
  -2  -4  -4  138.62   11.89
  -2   4   4  145.12   11.87
   2  -4  -4  141.76   11.90
   2  -4   4  129.73   12.55
   2   4  -4  153.20   11.98
   2   4   4  144.30   11.87
   4  -4  -2  132.91   12.11
   4  -2   4  140.82   12.05
   4   2   4  136.90   11.87
   4   4   2  148.20   11.89
  -4  -4  -3   -0.08    0.22
  -4  -4   3    0.17    0.29
  -4  -3  -4    0.25    0.23
  -4  -3   4   -0.04    0.36
  -4  -3   4   -0.09    0.36
  -4   3  -4    0.17    0.56
  -4   3   4    0.22    0.28
  -4   4  -3    0.25    0.63
  -4   4   3    0.90    0.61
  -4   4   3    0.28    0.33
  -3  -4  -4    0.27    0.24
  -3  -4   4    0.65    0.49
  -3  -4   4    1.12    0.65
  -3   4  -4    0.01    0.75
  -3   4   4    0.39    0.26
   3  -4  -4   -0.27    0.28
   3  -4   4   -0.77    1.21
   3   4  -4    0.11    0.22
   3   4   4    0.00    0.21
   4  -4  -3    0.44    0.46
   4  -3   4    0.25    1.45
   4  -3   4   -0.27    0.62
   4   3   4   -0.09    0.19
   4   4   3    0.08    0.22
  -4  -4   4  449.10   37.67
  -4  -4   4  459.63   37.63
  -4   4  -4  528.64   38.21
  -4   4   4  442.59   37.59
   4  -4  -4  424.12   37.50
   4   4   4  435.21   37.51
  -5   0   0   -0.15    0.12
   0  -5   0   -0.05    0.25
   0  -5   0   -0.53    0.53
   0   0  -5   -0.61    0.44
   0   0   5   -0.08    0.12
   0   5   0   -0.24    0.26
   0   5   0   -0.41    0.40
   5   0   0   -0.19    0.15
  -5   0  -1    9.57    0.86
  -5   0   1    9.06    0.81
  -1  -5   0    5.50    1.12
  -1   5   0    7.06    1.16
  -1   5   0   11.21    1.41
   0  -1  -5    6.56    1.30
   0  -1   5    8.60    1.67
   0  -1   5    8.56    0.89
   0   1  -5    7.85    1.20
   0   1   5    9.23    0.82
   1   5   0    7.22    1.24
   5   0  -1    8.46    0.91
   5   0   1    9.94    0.90
  -1   0   5    9.30    1.37
  -1   0   5    8.29    0.80
   0  -5  -1    9.89    0.96
   0  -5  -1    5.53    1.07
   0  -5   1    8.61    1.06
   0  -5   1    7.32    1.38
   0   5  -1    8.77    1.13
   0   5   1    9.41    0.98
   0   5   1    8.71    1.10
   1   0   5    8.96    0.85
  -1   0  -5    8.30    1.51
   1  -5  -1    0.06    0.58
   1  -5  -1    0.38    0.35
   5   1   1   -0.01    0.19
  -1  -5   1   -0.50    0.57
  -1  -1  -5   -0.33    0.76
  -1  -1  -5   -0.21    0.19
  -1  -1   5   -0.23    1.07
  -1   1  -5   -0.85    0.65
  -1   1   5   -0.13    0.11
  -1   5  -1   -0.19    0.51
  -1   5   1   -0.51    0.31
  -1   5   1   -0.55    0.37
   5  -1  -1    0.22    0.30
   5  -1  -1   -0.17    0.17
   5  -1   1   -0.28    0.25
   5   1  -1   -0.22    0.15
  -5  -1  -1   -0.24    0.14
  -5  -1   1   -0.27    0.11
  -1  -5  -1    0.14    0.20
  -1  -5  -1    0.24    0.40
   1   5  -1   -0.12    0.26
   1   5  -1    0.10    0.58
   1   5   1   -0.33    0.27
   1  -1   5   -0.30    0.21
   1   1  -5   -0.48    0.24
   1   1   5   -0.24    0.14
   1  -5   1    0.03    0.39
  -1  -5   1   -0.24    0.25
   1  -5   1    0.01    0.52
   1  -1  -5   -0.34    0.18
   1  -1   5   -0.50    0.96
  -5  -2   0   20.91    1.94
  -5   2   0   22.56    2.17
   0   2  -5   21.98    2.32
   0   2   5   24.14    1.96
   2   0  -5   24.31    1.95
   2  -5   0   17.25    2.25
   2   5   0   23.28    2.31
   5   0   2   22.52    2.03
   0   5   2   23.36    2.10
  -5   0   2   22.75    1.92
   0  -2  -5   18.52    2.33
   0  -2  -5   21.74    1.98
   0  -2   5   17.78    3.06
   5  -2   0   21.26    2.12
   5   2   0   22.54    1.99
  -2  -5   0   26.83    2.06
  -2  -5   0   21.28    2.16
  -2   0   5   23.16    1.90
   0  -5  -2   22.24    2.00
   0  -5  -2   22.24    2.22
   0  -5   2   20.71    2.19
   0  -5   2   27.51    2.48
   0   5  -2   20.31    2.26
   2   0   5   22.99    2.00
   5  -2   0   19.64    2.12
  -5   0  -2   23.21    2.00
  -2  -5  -1    6.75    0.67
  -5   2  -1    6.98    0.93
  -1  -5   2    5.41    0.84
  -2   5   1    7.44    1.02
  -1  -2  -5    3.03    1.03
  -2  -1   5    6.33    1.32
  -2   1  -5    2.96    1.09
  -1   2   5    5.18    0.57
   1   2  -5    5.16    0.80
  -5  -1  -2    4.79    0.61
   1   5   2    5.90    0.72
   2  -1  -5    4.91    0.51
   1  -5  -2    5.04    0.73
   1  -5  -2    5.21    1.00
   2   1   5    4.71    0.61
   2   5  -1    6.33    0.77
  -1  -5   2    3.78    1.04
  -1   5  -2    5.18    1.11
   5  -1   2    5.29    0.77
  -2  -5  -1    6.79    0.82
   2  -5   1    6.24    1.14
  -1  -2  -5    4.74    0.64
   1  -2   5    7.68    1.82
  -1   5   2    5.67    0.82
   1   2   5    5.77    0.62
  -5  -1   2    4.80    0.53
   2  -5  -1    6.95    1.17
  -1  -5  -2    5.34    0.82
  -1  -5  -2    4.05    0.68
   1  -5   2    3.69    0.92
  -2  -5   1    4.88    0.94
   2   5   1    6.60    0.81
  -2  -5   1    7.15    0.77
   1   5  -2    4.88    0.79
  -2   1   5    4.34    0.67
   5  -2   1    6.04    0.92
   5   2  -1    6.33    0.72
  -5   1  -2    4.43    0.89
   1  -2  -5    4.75    0.60
   2  -1   5    4.85    0.71
   2   1  -5    4.76    0.62
   1  -2  -5    6.03    0.58
  -5   2   1    6.68    0.83
  -2  -1  -5    3.88    1.11
  -2  -1  -5    4.54    0.65
  -5  -2  -1    6.84    0.62
  -1  -2   5    6.20    1.53
  -1   2  -5    5.72    1.26
  -2   1   5    4.90    0.57
   2  -5  -1    6.76    1.03
  -1   5   2    6.18    0.74
   2  -1   5    4.09    1.20
   5   1   2    4.60    0.66
   1  -5   2    7.81    1.10
  -5  -2   2    0.09    0.11
  -5  -2   2   -0.44    0.24
   5  -2   2   -0.12    0.36
   5   2   2    0.62    0.24
   2  -5  -2   -0.33    0.55
  -5   2  -2   -0.14    0.42
   2  -5   2   -0.03    0.47
  -2  -2   5   -0.88    0.82
   2  -2   5   -0.56    0.35
   2   2  -5   -0.19    0.18
   2   2   5   -0.03    0.17
   2   5  -2    0.19    0.25
   2   5   2    0.28    0.27
   5  -2  -2    0.27    0.36
   5  -2  -2    0.09    0.22
  -2  -5   2   -0.22    0.65
  -2   2  -5   -0.93    0.72
  -2   2   5    0.11    0.12
  -2   5  -2    1.37    0.82
  -2   5   2    0.40    0.40
  -2   5   2    0.33    0.40
   2  -5  -2    0.68    0.45
  -2  -2  -5    0.39    0.25
   2  -2   5   -0.18    1.26
   2  -5   2    0.69    0.84
  -5  -2  -2    0.35    0.21
  -2  -5  -2    0.52    0.30
  -2  -2  -5    0.00    0.60
  -2  -5  -2    0.16    0.15
  -2  -5   2    0.37    0.34
  -5   2   2    0.36    0.28
   3  -5   0    2.79    0.78
   3  -5   0    2.98    0.88
   3   5   0    2.55    0.68
  -3   0  -5    3.22    1.00
   0  -3  -5    2.60    0.85
   0  -3  -5    2.55    0.45
   0  -3   5    2.60    1.33
   0   3  -5    2.30    0.71
   0   3   5    3.26    0.40
   0  -5   3    3.84    0.80
  -3   0   5    1.89    0.85
  -3   0   5    2.30    0.25
   0  -5  -3    2.92    0.42
  -3  -5   0    1.50    0.45
  -3   5   0    5.31    1.11
  -5   3   0    1.47    0.53
   0  -5  -3    2.39    0.59
   0  -5   3    3.02    0.79
   5   0   3    3.06    0.51
  -5   0  -3    3.06    0.48
   0   5  -3    2.23    0.66
   5  -3   0    3.21    0.62
   5  -3   0    1.32    0.61
   5   3   0    2.10    0.44
  -5   0   3    2.63    0.29
  -5  -3   0    1.70    0.34
   0   5   3    3.00    0.51
   3   0   5    2.47    0.46
  -1  -3  -5    7.10    0.79
   5  -1   3    7.50    0.92
   1  -5  -3    6.65    0.80
   1  -5  -3    6.97    1.09
  -1  -5   3    6.83    1.14
  -1  -5   3    8.25    1.32
  -1   5  -3    8.64    1.45
  -3  -1   5    7.68    1.21
  -3   1  -5    6.57    1.39
   1   5   3    7.41    0.81
  -3  -5  -1    6.01    0.81
   5   3   1    6.25    0.78
  -1   3   5    7.02    0.71
   5  -3  -1    4.98    0.94
   1   3  -5    7.25    0.97
  -5  -3   1    5.63    0.68
  -5   3  -1    4.91    1.05
  -5  -1  -3    7.30    0.77
   3   5  -1    6.84    1.26
   3   1   5    7.42    0.77
   3  -5   1    6.35    1.30
  -5  -1   3    6.64    0.62
   1  -5   3    6.16    1.71
  -1  -3   5    5.57    1.53
   3  -5  -1    7.02    1.25
   3  -5  -1    5.87    1.20
  -5  -1   3    7.33    0.90
   1   3   5    7.30    0.74
  -3  -5   1    6.56    0.89
  -5  -3  -1    5.35    0.71
  -1  -5  -3    7.12    0.71
  -1  -5  -3    6.82    0.90
  -5   3   1    4.83    0.91
  -3  -1  -5    6.91    1.30
  -3  -1  -5    7.22    0.80
  -1   5   3    6.87    0.86
  -5   1  -3    6.18    1.09
   3  -1   5    7.40    0.88
   3   1  -5    7.21    0.71
  -3  -5   1    5.00    0.91
   1  -3  -5    7.42    0.75
   5  -3   1    5.17    0.97
   5   3  -1    6.00    1.05
  -1   3  -5    7.97    1.45
  -3   1   5    7.15    0.63
   5   1   3    7.17    0.80
   1  -5   3    6.75    1.11
   3   5   1    6.21    0.87
   1   5  -3    7.21    1.03
  -5   3  -2   49.96    5.04
  -3  -5  -2   53.72    4.77
  -3  -5  -2   52.95    4.80
   5   3   2   56.18    4.77
  -3   2  -5   52.74    5.39
  -2  -3  -5   56.49    4.77
  -5  -3   2   54.54    4.69
   2  -5  -3   50.81    4.84
  -2   3   5   61.00    4.71
   5  -2   3   56.96    4.97
   2   3  -5   56.66    4.83
   2   5   3   58.81    4.79
   5  -3  -2   47.06    4.89
   3   2   5   60.54    4.76
  -3  -2   5   54.72    5.08
  -5  -2  -3   57.69    4.75
   3  -5   2   67.18    5.08
   5  -3  -2   53.38    4.86
   2  -5  -3   56.86    5.02
  -3   5   2   62.01    4.99
  -5   2   3   61.11    4.79
   2  -5   3   52.82    5.02
  -2  -5  -3   58.08    4.74
  -2  -5  -3   54.63    4.82
  -3  -5   2   53.89    4.95
   5  -3   2   46.48    5.03
   2   5  -3   58.22    4.89
   2   3   5   61.03    4.75
   3   2  -5   63.02    4.76
   3  -5  -2   46.70    5.07
  -5  -3  -2   54.76    4.74
  -3  -5   2   53.06    4.84
  -5   3   2   47.39    4.82
  -2   5   3   55.34    4.76
  -2   5   3   57.39    4.87
   2  -3  -5   61.73    4.71
  -5  -2   3   51.37    4.83
  -5  -2   3   58.03    4.66
   5   2   3   58.38    4.78
  -2  -3   5   53.88    5.19
   3   5   2   56.96    4.81
  -5   2  -3   51.87    5.07
  -3  -2  -5   57.73    4.77
  -3   2   5   62.05    4.68
  -5  -3   3    0.73    0.35
  -5  -3  -3    1.11    0.30
   3   5  -3    0.76    0.30
  -3   3  -5    0.18    0.87
  -3   3   5    0.45    0.21
   5  -3  -3    0.64    0.35
   5  -3   3    0.33    0.63
   5   3   3    0.91    0.30
   3  -5  -3    1.38    0.67
   3  -5   3    0.70    0.59
   5  -3  -3    1.26    0.34
   3  -3   5   -0.62    0.55
   3   3  -5    0.59    0.27
  -3   5   3    0.61    0.36
  -3   5   3    0.93    0.42
   3  -5  -3    2.32    0.81
  -3   5  -3    2.40    0.97
  -5  -3   3    0.79    0.18
  -5   3  -3    0.95    0.64
  -5   3   3    1.99    0.54
  -3  -5  -3    0.41    0.26
  -3  -5  -3    0.87    0.32
  -3  -5   3    0.19    0.67
  -3  -3  -5    1.23    0.33
  -3  -3   5    1.00    0.86
   3   5   3    1.05    0.33
   3   3   5    0.35    0.23
   5   0   4   42.23    3.97
  -5   0   4   46.99    4.00
   0  -4  -5   50.58    3.97
   0   4  -5   47.72    4.31
   0   4   5   50.76    3.92
  -5  -4   0   50.88    3.92
  -5   0  -4   42.62    3.94
  -5   4   0   47.67    4.19
  -4   0  -5   48.15    4.43
  -4   0   5   49.91    4.11
   4   5   0   46.34    4.16
   0  -4  -5   52.87    3.84
  -5   0  -4   43.61    4.26
   0   5  -4   40.58    4.24
   0   5   4   40.83    3.93
   4   0   5   49.86    3.98
  -5   0   4   43.47    3.81
  -4  -5   0   46.72    3.96
   0  -5   4   39.44    4.13
   5   4   0   50.37    4.06
  -5  -4   0   48.25    4.03
   0  -5  -4   37.99    4.00
   0  -5  -4   39.54    3.85
  -4   5   1    1.63    0.67
   1  -5  -4   -0.28    0.34
   4  -5   1    0.38    1.13
  -5  -1  -4    1.24    0.30
   1   4  -5    0.07    0.36
  -4  -1   5    0.46    0.55
  -1   5  -4    0.61    0.73
   4   5  -1    0.56    0.62
  -1  -4  -5    0.48    0.29
  -5  -4   1    0.36    0.19
  -5   4  -1    0.98    0.56
  -5   1   4    0.42    0.29
  -4  -5  -1    0.39    0.25
   5  -1   4    0.23    0.36
   4   1   5    0.11    0.21
   5   4   1    0.38    0.28
  -4   1  -5    0.33    0.73
  -5   1   4    0.22    0.30
   4  -5   1    1.15    0.62
   1  -5  -4    0.28    0.27
  -1  -5   4    0.12    0.50
  -1   4   5    0.26    0.20
   5  -4  -1    0.65    0.62
   1   5   4    0.43    0.27
   4  -1   5    0.69    0.37
  -4   1   5    0.49    0.54
   5   1   4    0.32    0.30
   5  -4   1    0.75    0.49
   5   4  -1    0.36    0.59
  -1  -5  -4    0.26    0.16
  -1   5   4    0.25    0.23
  -4   1   5    0.33    0.12
   4  -5  -1    3.11    1.13
  -5  -1   4    0.12    0.34
  -5  -1   4    0.18    0.07
   4  -5  -1    0.84    0.68
   4   5   1    0.71    0.37
  -4  -5   1    0.51    0.26
  -4   5  -1    0.72    0.66
   1   5  -4   -0.22    0.36
  -5  -4  -1    0.62    0.23
  -1  -4   5    0.67    0.87
  -1   4  -5    0.49    0.81
  -5   4   1    0.15    0.45
  -4  -1  -5   -0.64    0.56
  -4  -1  -5    0.33    0.25
  -5   1  -4   -0.23    0.43
  -1  -5  -4    0.46    0.36
   1   4   5    0.45    0.23
   1  -4  -5    0.47    0.28
  -4  -5   1    0.55    0.30
  -5  -2  -4   16.62    1.70
  -5  -4   2   16.75    1.69
  -2  -4  -5   17.31    1.72
   5  -4  -2   17.03    2.04
   5   4   2   18.59    1.74
   2  -5  -4   17.40    1.80
   4  -5   2   20.50    2.69
  -5   4  -2   22.26    2.17
   5  -2   4   15.37    1.93
   2  -5  -4   17.35    1.89
  -4  -2   5   21.01    2.06
  -4   2  -5   16.67    2.27
   2   5   4   18.22    1.71
  -4  -5  -2   19.70    1.74
  -2   4   5   18.83    1.68
   2   4  -5   17.45    1.81
   4   2   5   19.62    1.71
  -5   2   4   20.63    1.69
  -4   2   5   20.53    1.63
   4  -5  -2   18.61    2.18
   5   2   4   17.12    1.71
  -5   4   2   21.03    1.91
  -5  -2   4   19.33    1.87
  -2  -5  -4   17.59    1.66
  -5   2  -4   16.87    2.15
   2   5  -4   17.30    1.83
  -2  -5  -4   15.69    1.75
   4  -2   5   20.92    1.98
  -4  -5   2   17.79    1.76
  -5  -4  -2   19.50    1.70
  -4  -2  -5   18.66    1.72
   4   5   2   20.68    1.78
  -2  -4   5   17.20    2.29
   2   4   5   19.77    1.70
  -2   5   4   19.11    1.76
   2  -4  -5   19.68    1.72
  -5  -2   4   16.42    1.55
  -5   3   4    0.35    0.34
  -4   3  -5    0.64    0.90
  -3   5  -4    0.25    0.94
   4  -5   3   -0.17    0.58
  -3  -5   4   -0.52    0.81
   5  -3   4   -0.50    0.61
  -4   5   3    0.35    0.41
  -3  -4  -5   -0.37    0.31
  -5   4  -3    0.18    0.64
   5  -4  -3    0.08    0.44
   5  -4  -3    0.17    0.52
  -3   4   5    0.25    0.23
  -4  -3   5   -0.22    0.61
   3   4  -5    0.11    0.26
  -5  -3  -4    0.41    0.28
   3  -5  -4    0.37    0.86
   3   5   4    0.07    0.24
   4   3   5    0.09    0.22
  -5   3   4    0.00    0.47
  -4  -3   5   -0.10    0.39
  -4  -5  -3    0.30    0.31
  -5  -4   3    0.10    0.20
   5   4   3    0.24    0.27
  -5  -3   4    0.11    0.44
  -5   3  -4   -0.29    0.59
  -3  -4   5    0.89    0.95
  -5   4   3    0.43    0.43
  -4  -5   3    0.28    0.43
  -4  -3  -5   -0.14    0.25
   3  -4  -5    0.26    0.28
   5   3   4    0.32    0.29
   3   4   5    0.67    0.29
  -4   3   5    0.29    0.24
  -3  -5  -4    0.39    0.31
   4   5   3    0.25    0.29
   4  -5  -3   -0.16    0.65
  -3   5   4    0.73    0.35
  -5  -4  -3    0.14    0.25
   3   5  -4   -0.18    0.29
  -5  -3   4    0.09    0.17
   4  -3   5    0.34    0.66
  -5   4   3    0.16    0.45
  -3  -4   5    0.50    0.52
  -3   4  -5    0.37    0.87
   5  -4   3   -0.17    0.84
  -4   5  -3    0.11    0.76
  -5  -4   4    0.80    0.52
  -5  -4   4   -0.02    0.25
  -5   4  -4    0.07    0.76
  -5   4   4    0.34    0.48
  -5   4   4    0.21    0.37
  -4  -5   4    0.16    0.60
  -4  -4  -5    0.53    0.35
  -4  -4   5    0.24    0.73
  -4  -4   5    0.46    0.65
  -4   4  -5    0.00    0.88
  -4   4   5    0.13    0.31
  -4   5  -4    1.27    1.10
  -4   5   4   -0.04    0.23
  -4   5   4   -0.21    0.38
   4  -5  -4    0.52    0.54
   4  -4  -5    0.05    0.25
   4  -4   5    0.73    1.00
   4   4   5    0.26    0.27
   4   5   4    0.22    0.29
   5  -4  -4   -0.02    0.32
   5  -4  -4   -0.25    0.44
   5  -4   4    0.20    0.86
   5   4   4    0.01    0.28
  -5   0  -5   16.89    2.08
  -5   0   5   17.41    1.76
  -5   0   5   15.15    1.42
  -5   5   0   13.93    1.87
   0  -5  -5   16.10    1.45
   0  -5  -5   17.62    1.69
   0   5  -5   17.22    2.03
   0   5   5   17.20    1.56
   5   0   5   18.42    1.65
  -5  -5  -1   -0.21    0.23
  -5  -5   1    0.01    0.25
  -5  -1  -5    0.05    0.63
  -5  -1  -5    0.21    0.27
  -5  -1   5    0.32    0.54
  -5   1  -5   -0.65    0.68
  -5   1   5    0.34    0.39
  -5   1   5    0.35    0.36
  -5   5  -1   -0.39    0.53
  -5   5   1    0.15    0.53
  -1  -5  -5   -0.08    0.15
  -1  -5  -5   -0.41    0.37
  -1   5  -5   -0.32    0.78
  -1   5   5   -0.20    0.20
   1  -5  -5    0.72    0.44
   1   5  -5   -0.12    0.42
   1   5   5    0.11    0.25
   5  -5  -1   -0.24    0.63
   5  -5   1   -0.60    0.57
   5  -1   5   -0.02    0.36
   5   1   5    0.14    0.27
   5   5  -1    0.26    0.63
   5   5   1   -0.25    0.34
  -5  -5  -2   26.87    2.70
  -5  -5   2   26.42    2.68
  -5  -2  -5   31.87    2.74
  -5  -2   5   32.85    3.03
  -5   2  -5   30.80    3.31
  -5   2   5   35.20    2.65
  -5   2   5   30.24    2.71
  -5   5  -2   36.67    3.23
  -2  -5  -5   30.24    2.80
  -2  -5   5   24.21    2.92
  -2   5   5   32.78    2.74
   2  -5  -5   29.49    2.83
   2   5  -5   30.17    2.88
   2   5   5   31.56    2.72
   5  -5  -2   28.05    3.05
   5  -5   2   32.25    3.05
   5  -2   5   33.48    3.00
   5   2   5   32.27    2.74
   5   5   2   29.91    2.77
  -5  -5  -3   -0.11    0.30
  -5  -5   3   -0.36    0.25
  -5  -3   5   -0.46    0.67
  -5  -3   5    0.17    0.27
  -5   3  -5    0.84    0.74
  -5   3   5   -0.23    0.35
  -5   5  -3   -0.01    0.78
  -5   5   3    0.09    0.55
  -5   5   3    0.10    0.47
  -3  -5  -5    0.29    0.40
  -3  -5   5   -0.64    1.33
  -3  -5   5    1.21    0.77
  -3   5  -5    0.37    1.08
  -3   5   5    0.06    0.32
   3  -5  -5    0.68    0.50
   3   5  -5    0.08    0.36
   3   5   5   -0.09    0.25
   5  -5  -3   -1.22    0.66
   5  -3   5   -0.47    0.68
   5   3   5   -0.01    0.24
   5   5   3   -0.10    0.31
  -5  -5  -4    0.88    0.46
  -5  -5   4    1.41    0.77
  -5  -5   4    2.15    0.49
  -5  -4  -5    1.92    0.49
  -5  -4   5    1.61    0.86
  -5  -4   5    0.89    0.42
  -5   4  -5    1.42    0.91
  -5   4   5    0.94    0.46
  -5   5  -4    2.17    0.97
  -5   5   4    1.62    0.46
  -5   5   4    0.86    0.52
  -4  -5  -5    1.42    0.48
  -4  -5   5    1.90    0.92
  -4  -5   5    1.20    0.85
  -4   5  -5    1.67    1.21
  -4   5   5    1.33    0.48
   4  -5  -5    1.38    0.53
   4   5   5    0.96    0.40
   5  -5  -4    2.11    0.61
   5  -4   5    1.46    1.12
   5   4   5    1.03    0.38
   5   5   4    1.18    0.42
  -5  -5   5    1.56    0.90
  -5  -5   5   -0.01    0.47
  -5   5  -5    0.76    0.85
  -5   5   5   -0.14    0.45
   5  -5  -5    0.07    0.48
   5  -5  -5    0.44    0.63
   5  -5   5    1.28    1.42
   5   5   5   -0.07    0.33
  -6   0   0    5.67    0.62
   0  -6   0    5.48    0.86
   0   0  -6    3.07    0.90
   0   0   6    7.13    1.17
   0   0   6    4.08    0.59
   0   6   0    4.73    0.96
   6   0   0    5.37    0.68
  -6   0  -1    9.98    1.00
  -6   0   1    7.92    1.07
  -1  -6   0   10.18    1.23
  -1  -6   0    9.93    1.59
  -1   6   0   11.46    1.56
   0  -1  -6    6.96    1.33
   0  -1   6    9.76    1.85
   0  -1   6    9.96    1.01
   0   1  -6    8.66    1.41
   0   1   6   10.18    0.96
   1  -6   0    9.67    1.25
   1  -6   0    9.19    1.63
   1   6   0   10.02    1.19
   1   6   0   12.12    1.49
   6   0  -1   11.24    1.07
   6   0  -1    9.43    0.97
   6   0   1   10.55    1.08
  -1   0   6   11.65    0.95
   0  -6  -1   10.13    1.11
   0  -6  -1    8.63    1.51
   0  -6   1    7.05    1.49
   0   6  -1   11.07    1.42
   0   6   1   11.63    1.23
   0   6   1    8.66    1.30
   1   0  -6   10.81    1.10
   1   0   6    9.27    0.99
   6  -1   0   11.49    1.10
   6   1   0   10.89    1.02
  -1   0   6    9.33    1.47
  -6  -1   0   10.49    0.97
   1   1  -6    1.10    0.44
   1   6  -1    0.67    0.43
   1   6  -1    1.64    1.00
   1   6   1    0.53    0.45
   6  -1  -1    1.25    0.45
   6  -1  -1    0.48    0.27
   1   1   6    0.90    0.26
   6   1   1    0.38    0.27
   1  -6   1    0.35    0.70
  -6  -1  -1    0.34    0.21
  -6  -1   1    0.51    0.20
  -1  -6  -1   -0.13    0.29
  -1  -6  -1    0.06    0.58
  -1  -6   1   -1.31    0.74
  -1  -1  -6    0.91    0.96
   1  -6  -1    0.54    0.47
   1  -6  -1   -0.18    0.72
  -1  -1   6    0.91    0.26
  -1   1  -6    0.63    0.84
  -1   1   6    1.02    0.21
  -1   6  -1    1.61    0.71
  -1   6   1    0.13    0.42
  -1   6   1   -0.01    0.44
  -1  -1   6    0.20    1.31
   6  -1   1    0.65    0.37
   1  -1   6   -0.18    1.05
   1  -1   6    0.94    0.32
   0   6  -2  277.92   22.95
   6  -2   0  288.35   22.71
   6   2   0  284.05   22.61
   2   6   0  277.54   22.92
   6   0   2  267.70   22.65
   0  -2   6  258.04   23.52
  -6   0  -2  272.67   22.61
  -6   0   2  268.80   22.54
  -2  -6   0  255.69   22.83
   0   6   2  266.04   22.74
   2   0  -6  286.09   22.55
   2   0   6  272.70   22.60
   6  -2   0  238.34   22.77
  -2   0   6  279.33   22.89
  -2   0   6  269.89   22.52
   0  -6  -2  279.54   22.63
   0  -6  -2  239.42   22.85
   0  -6   2  317.43   23.14
  -6  -2   0  280.44   22.56
  -6   2   0  268.98   22.76
   0  -2  -6  275.98   22.61
   0   2  -6  275.27   22.90
   0   2   6  292.80   22.56
  -6   2  -1    6.85    1.03
   2   6  -1    6.99    0.91
  -6  -2   1    7.15    0.68
  -2   6   1    9.05    1.43
  -1  -2  -6    5.05    1.48
  -1  -2  -6    7.40    0.82
   6  -2  -1    7.44    0.89
  -2  -1   6   11.45    2.01
  -2   1  -6    4.76    1.46
   6   2   1    7.75    0.80
   6  -1   2    4.67    0.89
  -2  -6  -1    7.27    1.06
   2  -6   1    7.14    1.25
  -1   2   6    7.63    0.69
   1   6   2    5.56    0.91
   1   2  -6    7.55    0.99
  -2  -6  -1    6.86    0.80
   2   1   6    6.80    0.75
   1  -2   6   13.20    2.25
  -6  -1  -2    5.53    0.71
  -1   6  -2    5.53    1.23
   1  -2   6    6.85    0.96
   2   1  -6    8.13    0.76
  -2  -1  -6    6.17    0.84
   2   6   1    6.48    1.01
  -1   6   2    6.34    0.93
  -6   2   1    6.21    0.94
  -2  -1  -6    5.31    1.52
  -1  -2   6    7.55    2.11
  -1   2  -6    7.28    1.41
   1  -2  -6    7.74    0.70
   6   1   2    5.83    0.81
  -6   1  -2    5.76    1.01
   2  -1   6    6.67    0.83
   1   2   6    7.86    0.74
   2  -6  -1    5.56    1.00
  -2  -6   1    4.97    1.07
   6  -2   1    7.76    1.09
  -6  -2  -1    6.86    0.72
  -1   6   2    6.59    1.01
  -2   1   6    8.02    0.80
  -2   1   6    6.85    0.65
   1   6  -2    6.27    1.01
  -1  -6  -2    6.22    1.08
  -6  -2  -2  594.60   49.24
  -2  -6  -2  577.11   49.41
  -2  -6   2  502.77   49.62
  -6  -2   2  609.55   49.18
  -2  -6  -2  596.39   49.27
   2  -2   6  623.61   49.40
   2   2  -6  595.94   49.29
   2   2   6  626.39   49.25
   2   6  -2  603.14   49.42
   2   6   2  622.10   49.37
   6  -2  -2  533.52   49.28
   6  -2  -2  626.83   49.22
   6  -2   2  605.84   49.45
   6   2   2  611.43   49.29
  -2   2   6  627.52   49.19
  -6   2  -2  568.26   49.50
  -6   2   2  665.72   49.36
  -2   6   2  595.43   49.47
  -2   2  -6  663.69   50.07
  -2   6   2  578.33   49.44
  -2  -2   6  545.05   49.87
  -2  -2  -6  605.37   49.29
   0   6   3   57.66    5.15
   0   3   6   56.66    5.01
   3  -6   0   58.76    5.51
   0   6  -3   60.84    5.46
   0  -6  -3   60.31    5.34
  -3   0   6   56.17    4.93
   6  -3   0   59.34    5.31
   6   3   0   67.10    5.14
  -3  -6   0   64.30    5.23
   0  -3  -6   50.97    5.05
   0  -3   6   49.82    6.38
   0   3  -6   54.36    5.39
   3   6   0   62.28    5.43
  -6  -3   0   64.16    5.02
  -6   3   0   58.03    5.25
  -3   0   6   69.89    5.62
   6   0   3   60.68    5.14
   3   0   6   54.40    5.07
  -6   0  -3   64.80    5.10
  -6   0   3   63.25    4.98
  -1  -3  -6   32.30    3.07
   1  -6  -3   37.84    3.50
  -6  -3   1   36.19    3.00
  -1  -3  -6   30.62    3.84
   6  -1   3   40.38    3.24
  -3  -1   6   41.17    3.90
   1  -3   6   33.27    4.85
   1  -6  -3   39.14    3.13
  -6  -1  -3   37.37    3.08
  -1  -6   3   30.95    3.66
  -1   3   6   34.34    3.01
  -3  -6  -1   34.21    3.19
   1   3  -6   37.46    3.29
   6   3   1   36.62    3.10
   3  -6   1   30.34    3.61
   1   6   3   38.49    3.16
   6  -3  -1   33.11    3.25
  -6   3  -1   31.28    3.27
   3   1   6   34.28    3.06
  -6  -1   3   38.75    2.96
  -1  -6  -3   39.55    3.32
  -3  -1  -6   32.55    3.10
   1  -3  -6   31.11    3.04
   3  -6  -1   34.89    3.53
   1   6  -3   38.26    3.37
  -3   1   6   34.72    2.95
   3  -1   6   33.40    3.12
  -3  -6   1   32.43    3.27
   6   3  -1   32.55    3.20
   6  -3   1   32.06    3.24
   6  -3   1   33.73    3.38
  -6  -1   3   39.00    3.23
   3   6   1   37.07    3.27
  -3  -1  -6   28.73    3.68
   3  -6  -1   32.37    3.47
   6   1   3   39.66    3.13
   1   3   6   37.25    3.04
  -1   6   3   37.42    3.21
   3   1  -6   32.13    3.00
  -6  -3  -1   35.03    3.03
  -1  -3   6   35.91    4.37
  -6   3   1   31.92    3.20
  -1  -6  -3   38.29    3.05
  -6   1  -3   39.98    3.43
  -1   3  -6   34.79    3.67
  -3   6   2   43.22    3.52
  -6  -2  -3   37.52    3.22
  -6  -3   2   38.45    3.40
  -6   3  -2   36.85    3.55
  -2   3   6   36.73    3.16
  -3   2  -6   29.41    3.95
   2   3  -6   39.79    3.33
   2  -6  -3   39.45    3.73
  -2  -3  -6   39.42    4.01
   2   6   3   40.59    3.31
   6  -2   3   39.13    3.51
   3   2   6   37.81    3.23
   6  -3  -2   33.98    3.37
   6  -3  -2   36.71    3.32
   2  -6  -3   33.29    3.35
   6   3   2   39.26    3.27
  -2  -3  -6   34.92    3.25
  -3  -6  -2   36.83    3.35
  -2  -6   3   31.13    3.92
  -6  -2   3   40.50    3.41
   2   3   6   38.03    3.22
   3  -6  -2   32.72    3.68
  -2  -6  -3   38.54    3.22
   3   2  -6   35.54    3.21
   6   2   3   41.09    3.29
  -3   2   6   38.38    3.14
  -6  -3  -2   36.93    3.21
   6  -3   2   32.28    3.57
   2  -3  -6   36.22    3.17
  -6  -2   3   39.23    3.12
  -6   2  -3   37.04    3.57
   3  -2   6   39.21    3.43
  -3  -2  -6   36.99    3.90
  -3  -6   2   33.88    3.55
   3   6   2   38.55    3.34
   2   6  -3   40.73    3.44
   3  -6  -2   39.46    3.68
  -2  -3   6   36.02    4.21
  -6   3   2   32.59    3.32
  -2   6   3   38.33    3.41
  -3  -2  -6   37.50    3.27
  -2   6   3   34.58    3.29
  -3  -3   6   -0.88    1.16
  -6  -3  -3    0.86    0.30
  -6  -3   3    0.48    0.45
  -6  -3   3    0.88    0.19
  -6   3  -3    0.82    0.71
  -6   3   3    0.18    0.35
  -3  -6   3   -0.53    0.84
   3  -3   6    0.00    0.63
   3   3  -6    1.74    0.38
  -3   3  -6    1.03    1.10
  -3  -3  -6    0.21    0.32
   3  -6   3    0.92    0.75
   6  -3  -3    0.75    0.30
   6  -3   3    0.04    0.67
   6   3   3    0.90    0.33
   3   6   3    0.58    0.37
   3   3   6    0.28    0.24
  -3   3   6    0.53    0.22
  -3   6   3    0.35    0.40
  -3   6   3    0.24    0.47
   3  -6  -3    1.95    0.86
   3  -6  -3    0.85    0.87
   3   6  -3    0.68    0.41
   0   4   6  221.23   18.52
  -4   0  -6  190.82   19.07
  -4  -6   0  203.88   18.60
  -6   0   4  247.85   18.45
   0  -6  -4  242.98   18.78
   0   6  -4  224.04   18.95
   0   6   4  230.80   18.61
   4   0   6  219.60   18.58
   6   4   0  221.32   18.66
   0  -4  -6  209.19   18.56
   0  -4   6  202.87   19.88
   0   4  -6  222.31   18.92
   0  -4  -6  222.14   18.44
   4   6   0  218.20   18.84
   6   0   4  225.91   18.63
  -6   0   4  254.19   18.70
  -6   0  -4  232.08   18.91
  -6   0  -4  230.03   18.59
  -4   0   6  227.35   18.41
  -6  -4   0  214.37   18.51
  -6   4   0  220.49   18.76
   0  -6  -4  243.49   18.52
   1  -6  -4   21.76    2.07
  -1   4   6   24.74    2.03
  -6  -1  -4   21.81    2.08
  -1   6  -4   26.83    2.78
   6   4   1   25.12    2.17
   1   4  -6   25.65    2.36
   6  -1   4   21.65    2.22
   4   1   6   22.81    2.08
  -6  -4   1   24.33    2.02
  -6   4  -1   22.37    2.36
   4   6  -1   27.38    2.65
  -1  -4  -6   23.15    2.12
  -4  -1   6   16.33    2.85
  -4   1  -6   20.71    2.88
   1   6   4   23.52    2.12
   1  -6  -4   22.92    2.43
  -4  -6  -1   22.24    2.14
  -1  -6  -4   21.80    2.28
   6   4  -1   17.26    2.31
   1   4   6   24.73    2.05
  -6  -1   4   21.88    1.92
  -6   1  -4   21.56    2.46
  -4  -1  -6   23.00    2.82
  -6   4   1   22.36    2.27
  -4  -6   1   20.67    2.14
   4   6   1   23.30    2.28
   1  -4  -6   24.04    2.11
   1  -6   4   26.27    2.53
   4  -1   6   24.35    2.19
  -6  -4  -1   21.91    2.04
  -1   4  -6   23.79    2.79
  -6  -1   4   21.61    2.25
   6  -4   1   26.42    2.37
  -1  -4   6   19.11    3.32
   1   6  -4   22.06    2.40
  -4  -1  -6   24.65    2.14
   6   1   4   20.65    2.11
  -1  -6  -4   21.09    2.01
  -1   6   4   22.81    2.14
   4   2   6  277.71   23.17
  -6   4  -2  279.53   23.49
   6   4   2  273.06   23.20
  -4  -6  -2  266.93   23.22
   2   6   4  288.34   23.21
  -6  -2  -4  272.39   23.25
  -2   4   6  282.66   23.13
  -4   2  -6  272.31   23.87
   2   4  -6  304.43   23.32
  -4  -2   6  261.83   23.52
   6  -2   4  289.83   23.40
   2  -6  -4  257.31   23.20
  -6  -4   2  275.73   23.10
  -2  -4  -6  261.84   23.19
   2  -6  -4  297.36   23.47
  -4   2   6  279.75   23.08
  -2  -6  -4  283.39   23.13
  -2  -6  -4  286.15   23.29
   6   2   4  291.44   23.21
  -6  -2   4  290.54   23.34
  -6  -4  -2  278.98   23.15
  -6   2  -4  273.39   23.55
  -2  -4   6  245.03   23.67
  -4  -6   2  266.57   23.27
   2  -4  -6  273.58   23.15
  -6   4   2  292.16   23.29
   2   4   6  287.71   23.16
  -6  -2   4  290.80   23.04
   4  -6  -2  260.12   23.46
   4  -2   6  272.60   23.33
   6  -4   2  309.47   23.43
   2   6  -4  311.35   23.40
  -4  -2  -6  289.02   23.72
  -4  -2  -6  278.15   23.20
   2  -6   4  261.84   23.45
  -2   6   4  290.80   23.28
   4   6   2  301.23   23.27
  -3  -6   4    1.01    1.11
   3   6   4    1.25    0.38
  -6   3   4    1.12    0.40
   6  -4  -3    1.52    0.57
  -4  -3   6    0.14    1.29
  -4   3  -6    0.93    1.13
   6   4   3    1.83    0.45
  -3  -4  -6    1.49    0.47
   6  -3   4    0.81    0.80
   4  -6   3    1.73    0.84
  -6  -4   3    1.29    0.29
  -6   4  -3    2.40    0.71
  -6   3   4    1.94    0.67
  -4  -6  -3    1.26    0.48
   3  -6  -4   -0.11    0.75
  -4   6   3    2.55    0.66
  -4   6   3    1.32    0.53
   6  -4  -3    1.93    0.66
  -6  -3  -4    1.10    0.36
   4   3   6    0.91    0.35
  -3   4   6    1.50    0.35
  -6  -4   3    1.83    0.64
   3   4  -6    1.41    0.44
  -3   6  -4    4.08    1.42
   3   6  -4    0.91    0.50
  -3   4  -6    2.37    1.31
  -3  -4   6    0.46    1.36
   3  -4  -6    1.11    0.35
  -6   3  -4    2.09    0.84
   6  -4   3    2.73    0.95
  -4   3   6    1.34    0.32
  -6  -3   4    1.11    0.23
   3  -6   4    1.17    0.89
  -4   6  -3    4.24    1.23
  -6   4   3    2.01    0.54
  -4  -6   3    1.66    0.70
  -3  -6  -4    1.64    0.37
   4  -3   6    0.25    0.73
   6   3   4    1.24    0.41
   3   4   6    1.32    0.35
   4  -6  -3    0.59    0.88
  -4  -3  -6    0.83    0.41
   4   6   3    1.49    0.42
  -6  -4  -3    1.55    0.39
  -6  -3   4    1.06    0.69
  -3   6   4    1.10    0.52
  -6  -4   4  242.20   21.00
  -6   4  -4  265.97   21.58
   4  -4   6  255.35   21.72
   4   4   6  286.61   21.12
   4   6   4  258.02   21.14
   6   4   4  263.08   21.13
  -4  -4   6  237.71   21.51
  -4   6   4  250.24   21.24
   4  -6  -4  230.00   21.30
  -4  -6   4  238.48   21.31
  -4  -4  -6  266.82   21.14
  -4   4   6  287.82   21.11
  -6  -4   4  228.76   21.27
  -5  -6   0   26.96    2.29
  -6   0  -5   21.80    2.69
  -5   0   6   22.96    2.66
  -5   0   6   22.85    2.05
   0  -6  -5   25.83    2.16
  -6   0   5   27.02    2.51
   0  -5  -6   23.84    2.10
   0  -5  -6   21.20    2.31
   0   5  -6   23.08    2.70
  -6  -5   0   26.03    2.21
  -6   5   0   29.55    2.57
  -5   0  -6   22.47    2.89
   0  -6   5   20.08    2.58
   0   6   5   25.99    2.27
   5   0   6   23.68    2.30
   6   5   0   27.09    2.60
   0   5   6   23.00    2.20
   5   6   0   26.90    2.72
   6   0   5   23.92    2.34
   0   6  -5   26.62    2.76
   0  -6  -5   26.51    2.53
  -5  -1   6    1.52    0.98
   1   6   5    1.04    0.36
   1  -6  -5    1.02    0.38
  -6   5  -1    2.02    0.70
   5   1   6    1.74    0.43
  -5   6   1    3.70    0.88
  -6   1   5    1.68    0.59
  -6  -1  -5    1.20    0.73
  -6  -5   1    1.85    0.37
   1  -6  -5    1.37    0.70
  -6   1   5    2.48    0.56
  -5  -6  -1    2.00    0.45
   6  -5  -1    3.27    0.90
   6  -5  -1    4.65    1.04
  -5   1  -6    1.33    1.01
  -1  -5  -6    1.66    0.31
  -1  -5  -6    1.29    0.51
   5   6  -1    1.17    0.89
  -1  -6   5    1.98    0.83
  -1   5   6    1.72    0.38
   6   5   1    2.16    0.59
   1   5  -6    1.89    0.72
  -1   6  -5    2.10    1.03
   6  -1   5    0.80    0.55
   5  -6   1    2.57    0.88
  -6  -1   5    1.50    0.67
   1  -5  -6    2.07    0.57
   5  -6  -1    3.45    1.00
   6   1   5    1.02    0.40
  -5   1   6    1.75    0.28
  -1  -6  -5    1.13    0.31
  -1  -6  -5    2.07    0.62
  -1   5  -6    2.72    1.07
   1   5   6    1.61    0.37
  -5   1   6    3.39    0.84
   1  -6   5    2.19    0.85
  -1  -5   6    2.23    1.56
  -5  -6   1    1.92    0.45
  -6  -1   5    1.40    0.21
  -6   1  -5    1.24    0.79
  -6  -5  -1    1.23    0.34
  -5  -1  -6    1.67    0.96
  -5  -1  -6    1.56    0.46
   6  -5   1    3.28    0.99
   6   5  -1    0.71    0.73
  -1   6   5    1.52    0.40
   5  -1   6    1.74    0.56
  -5   6  -1    3.40    0.91
   5   6   1    1.99    0.65
   1   6  -5    1.49    0.66
   6  -5   1    2.68    0.81
  -6   5   1    2.01    0.67
  -2  -5  -6    0.46    0.50
  -6   2   5    1.11    0.46
   5   2   6    0.27    0.34
  -5   6   2    2.86    0.88
   6  -5  -2    0.68    0.71
  -2  -6   5    0.70    0.85
   2  -6  -5    1.21    0.69
  -6  -5   2    1.00    0.30
  -6   5  -2    0.89    0.60
   2   5  -6    0.34    0.43
   2   6   5    1.19    0.38
  -6   2   5    1.82    0.51
  -5  -6  -2    1.51    0.43
  -5   2  -6    1.39    1.00
   6  -5  -2    1.49    0.79
   5  -6   2    0.88    0.83
   2  -6  -5    1.68    0.61
  -6  -2  -5    1.21    0.41
  -2   6  -5    2.79    1.28
  -5  -2   6    0.17    0.96
  -2   5   6    0.37    0.28
  -2   5  -6    0.61    1.05
  -5   6  -2    2.00    0.85
  -6   5   2    1.81    0.64
   2   5   6    0.70    0.32
   5  -6  -2    1.61    0.89
  -2  -6  -5    0.59    0.26
   5   6   2    0.86    0.48
  -2  -5   6    2.22    1.42
   6   2   5    0.71    0.38
  -5   2   6    0.46    0.28
  -5  -2  -6    0.19    0.98
  -6  -2   5    1.00    0.15
  -5  -6   2    0.27    0.37
   6  -5   2    1.28    0.71
   6  -5   2    1.93    1.01
  -6   2  -5    0.88    0.73
  -6  -5  -2    0.62    0.34
  -6  -2   5    1.62    0.80
  -2   6   5    0.91    0.40
  -2  -6  -5    1.66    0.58
   5  -2   6    1.16    0.67
   2   6  -5    1.04    0.54
  -5  -2  -6    0.67    0.41
   3   6   5   22.46    2.05
   5   3   6   19.16    2.00
   3   5  -6   20.81    2.13
  -3  -6   5   16.90    2.82
   3  -6  -5   21.98    2.39
   6  -3   5   19.72    2.58
  -6   5  -3   26.93    2.60
  -5   3  -6   21.43    2.80
  -3   5   6   21.58    2.00
  -6   3   5   27.51    2.29
  -3  -5  -6   17.13    2.10
  -5  -3   6   20.95    2.01
   6   5   3   21.76    2.09
  -6   3   5   21.97    1.96
  -6  -5   3   21.94    1.95
  -3  -5   6   14.27    2.91
   3  -5  -6   19.45    2.09
   6   3   5   21.38    2.05
  -5  -6   3   21.66    2.07
  -5  -3  -6   26.67    2.13
   5  -6  -3   20.83    2.51
  -3   6   5   22.90    2.15
   5   6   3   22.41    2.11
   3   6  -5   22.54    2.19
  -6  -3   5   19.26    2.46
  -6  -3   5   21.56    1.84
  -6   3  -5   22.20    2.63
   5  -3   6   20.22    2.54
   3   5   6   19.13    1.99
  -3  -6  -5   25.07    2.02
  -5   3   6   21.04    2.01
  -5  -4   6   32.23    4.03
  -5   4  -6   46.71    4.32
   6  -4   5   41.88    4.13
  -4  -6   5   33.22    3.76
  -5  -4   6   33.69    3.34
  -4   5   6   37.68    3.32
  -6  -5   4   35.69    3.18
   6  -5  -4   31.28    3.32
  -6   5  -4   42.74    3.88
   4  -6  -5   34.87    3.51
  -6   4   5   44.62    3.47
   5   4   6   37.80    3.28
  -5   6   4   39.17    3.26
  -5   6   4   41.37    3.48
   4   6   5   38.28    3.30
   6   5   4   35.07    3.30
  -5  -6   4   31.26    3.32
   4  -5  -6   41.61    3.25
   4   5   6   36.90    3.28
   5  -6  -4   29.05    3.53
   5   6   4   36.78    3.33
   6   4   5   39.60    3.32
  -4   6   5   34.80    3.42
  -6   4  -5   40.38    3.92
   5  -4   6   37.01    4.15
  -6  -4   5   32.83    3.78
  -6  -4   5   35.46    3.13
  -4  -5   6   34.01    4.16
  -6  -5   5    5.94    0.84
  -6   5  -5    9.38    1.66
  -6   5   5    9.54    1.22
  -5  -6   5    6.02    1.05
  -5  -5   6    6.83    1.08
  -5   5   6    6.63    1.11
  -5   6   5    5.49    0.99
   5  -6  -5    7.09    1.14
   5  -5   6   13.97    2.45
   5   5   6    6.21    0.94
   5   6   5    7.65    1.01
   6   5   5    6.02    1.01
  -6  -6   0  500.32   42.85
  -6   0  -6  496.77   43.36
  -6   0   6  465.60   43.00
  -6   0   6  593.09   42.79
   0  -6  -6  551.57   42.76
   0  -6  -6  501.79   42.98
   0   6  -6  523.57   43.32
   0   6   6  536.00   42.87
   6   0   6  509.17   42.94
   6   6   0  522.42   43.19
  -6  -6  -1    0.04    0.35
  -6  -6   1    0.20    0.34
  -6  -1  -6   -0.06    0.93
  -6  -1  -6    0.38    0.48
  -6  -1   6   -0.21    0.90
  -6   1  -6    0.33    0.90
  -6   1   6    0.19    0.77
  -6   1   6   -0.64    0.35
  -6   6  -1    0.08    0.65
  -6   6   1    0.47    0.64
  -1  -6  -6    0.33    0.24
  -1  -6  -6    0.29    0.64
  -1  -6   6    0.45    0.80
  -1   6  -6   -1.32    0.86
  -1   6   6    0.23    0.32
   1  -6  -6    0.44    0.32
   1  -6  -6   -0.36    0.67
   1   6  -6    0.67    0.67
   1   6   6    0.61    0.35
   6  -6  -1   -1.15    0.76
   6  -6   1    0.35    0.83
   6  -1   6   -0.07    0.49
   6   1   6    0.45    0.42
   6   6  -1    0.75    0.83
   6   6   1    0.52    0.60
  -6  -6   2  388.79   32.50
  -6  -2  -6  403.27   33.06
  -6  -2   6  378.65   32.85
  -6   2  -6  410.96   33.15
  -6   2   6  413.72   32.53
  -2  -6  -6  413.88   32.46
  -2  -6   6  370.56   32.73
  -2   6   6  399.37   32.54
   2  -6  -6  361.54   32.62
   2   6  -6  408.63   32.77
   2   6   6  401.55   32.53
   6  -2   6  371.63   32.74
   6   2   6  385.65   32.55
   6   6   2  409.02   32.63
  -6  -6   3    0.03    0.35
  -6  -3   6    1.94    1.33
  -6  -3   6   -0.04    0.17
  -6   3  -6    1.17    1.08
  -6   3   6    0.08    0.43
  -6   6  -3    0.89    0.82
  -6   6   3   -0.63    0.61
  -3  -6  -6   -0.35    0.38
  -3  -6   6    1.86    1.09
  -3   6  -6    0.99    1.35
  -3   6   6    0.44    0.42
   3  -6  -6   -0.23    0.70
   3   6  -6    0.11    0.48
   3   6   6    0.07    0.52
   6  -6  -3   -0.30    0.77
   6  -3   6   -0.65    1.32
   6   3   6   -0.28    0.41
   6   6   3    0.39    0.47
  -6  -6   4  231.04   19.59
  -6  -4   6  266.05   20.23
  -6  -4   6  253.79   19.51
  -6   4   6  230.53   19.69
  -4   6   6  236.93   19.73
   4  -6  -6  224.71   19.69
   4   6   6  243.74   19.66
   6  -6  -4  209.58   19.71
   6  -4   6  228.16   20.26
   6   4   6  242.65   19.67
  -6  -6   5    0.22    0.46
  -6  -5   6    0.63    0.44
  -6   5  -6    0.93    1.03
  -6   5   6    0.33    0.54
  -6   6  -5   -0.12    0.93
  -6   6   5    0.14    0.57
  -5  -6   6   -1.13    0.79
  -5   6  -6    0.59    1.24
  -5   6   6   -0.14    0.55
   5  -6  -6   -0.30    0.67
   5  -6  -6    0.16    0.81
   5  -6   6    2.26    1.91
   5   6   6    0.78    0.47
   6  -6  -5    0.58    0.74
   6  -6  -5    0.34    0.87
   6  -6   5    2.88    1.83
   6  -5   6    1.86    1.68
   6   5   6    0.15    0.47
   6   6   5   -0.29    0.46
  -6  -6   6  115.51   10.80
  -6   6   6  140.87   11.01
   6   6   6  131.70   10.91
  -7   0   0    0.60    0.23
   0  -7   0    0.27    0.89
   0   0  -7    0.11    0.62
   0   0   7    0.18    0.20
   0   7   0    0.70    0.57
   0   7   0    1.24    0.65
   7   0   0    0.69    0.34
  -7   0  -1    7.32    0.83
  -7   0   1    7.79    0.79
  -1  -7   0    5.37    1.27
  -1   7   0    8.46    1.50
   0  -1  -7    7.38    1.26
   0  -1   7    7.27    1.71
   0  -1   7    8.17    0.86
   0   1  -7    7.22    1.28
   0   1   7    8.20    0.79
   1  -7   0    5.16    1.29
   1   7   0    9.41    1.16
   1   7   0    8.45    1.38
   7   0  -1    8.13    0.87
   7   0   1    7.69    0.97
   1   0   7    7.76    0.83
   7  -1   0    6.68    1.02
   7  -1   0    8.19    0.99
   7   1   0    7.74    0.91
   0   7   1    6.78    1.15
   1   0  -7    8.42    0.95
  -7  -1   0    7.23    0.78
  -1   0  -7    5.20    1.46
  -1   0   7    9.94    1.38
  -1   0   7    8.45    0.77
   0  -7  -1    7.29    1.01
   0  -7  -1    5.36    1.28
   0  -7   1    6.26    1.38
   0   7  -1    7.05    1.30
   0   7   1    7.83    1.20
   7  -1  -1    0.92    0.47
   7  -1  -1    0.43    0.31
   1  -7  -1   -0.58    0.82
   1  -7   1    0.27    0.73
   1  -1  -7    0.02    0.25
   1  -1   7    1.24    1.11
   1  -1   7    0.26    0.29
   1   1  -7    0.26    0.37
  -1  -7  -1   -0.17    0.77
  -1  -7   1   -0.39    0.84
  -1  -1  -7   -1.44    0.92
  -1  -1   7    1.46    1.40
  -1   7   1    0.59    0.62
  -1   7   1   -0.30    0.38
   1  -7  -1    0.26    0.46
   1   1   7    0.03    0.21
   1   7  -1    0.19    0.44
   1   7  -1    0.47    0.91
   1   7   1    0.37    0.54
  -7  -1  -1    0.28    0.22
  -7  -1   1    0.19    0.19
  -1   7  -1   -0.10    0.65
   7  -1   1   -0.11    0.38
   7   1  -1    0.19    0.28
   7   1  -1    0.36    0.40
   7   1   1    0.28    0.31
  -1  -1   7    0.40    0.23
  -1   1  -7   -0.02    0.97
  -1   1   7    0.10    0.16
   0  -7   2   -0.44    0.87
   0   7  -2    0.19    0.61
  -7   0  -2    0.37    0.25
  -7   0   2    0.35    0.19
  -2  -7   0   -0.81    0.75
   0   2   7    0.28    0.21
   2  -7   0    0.59    0.67
   0   7   2    0.16    0.42
   2   0  -7    0.24    0.19
   2   0   7    0.03    0.24
   0  -7  -2    0.53    0.38
   7  -2   0   -0.12    0.42
   0  -2  -7    0.31    0.56
  -7  -2   0    0.63    0.20
  -7   2   0    0.54    0.49
  -2   0  -7   -1.21    1.20
  -2   0   7    0.26    0.82
  -2   0   7    0.30    0.17
   7  -2   0    0.02    0.45
   7   2   0    0.70    0.39
  -2   7   0    0.85    0.84
   2  -7   0    0.42    0.86
   2   7   0    0.61    0.61
   7   0   2    0.21    0.38
   0  -7  -2   -0.89    0.84
   0   2  -7   -0.15    0.63
   0  -2   7    0.11    0.38
   0  -2   7    2.75    2.01
   7  -1   2    0.47    0.50
   1  -2   7    0.38    0.41
   7   2   1    0.44    0.34
  -7  -1  -2   -0.26    0.22
   1  -7  -2   -0.10    0.86
  -1   2   7    0.37    0.19
  -7  -2   1    0.54    0.20
   7  -2  -1    1.06    0.58
   7  -2  -1    0.31    0.40
   2   7  -1    1.26    0.99
  -2   7   1    0.68    0.80
  -2   7   1    1.03    0.55
   1   7   2    0.52    0.42
   2  -1  -7    0.20    0.13
   1   2  -7    0.22    0.43
  -7   2  -1    0.30    0.50
   2   1   7    0.42    0.27
  -1  -7   2   -0.41    1.03
  -1   7  -2    0.20    0.75
  -2   1  -7    0.13    1.13
  -2  -7  -1    0.99    0.69
   1  -7  -2    0.46    0.44
  -1  -2  -7    1.63    1.27
   1  -2   7   -1.74    1.58
  -1  -2  -7    0.44    0.40
  -2  -1   7   -0.28    1.85
  -2  -1   7    0.24    0.21
   2   7  -1    0.60    0.44
   2  -7  -1    0.29    0.55
   2   7   1    0.40    0.56
  -1   7   2    0.28    0.49
   2  -1   7    0.53    0.33
   7  -2   1    0.75    0.55
  -1  -7  -2    0.41    0.79
   1   2   7    0.24    0.22
  -7  -1   2    0.18    0.16
  -7   1  -2   -0.23    0.50
  -1   7   2   -0.05    0.45
  -2  -7   1    0.73    0.92
  -2   7  -1    0.90    0.81
   1  -7   2   -0.16    0.81
   1   7  -2    0.46    0.48
   2   1  -7    0.59    0.26
  -2   1   7    0.14    0.17
  -1  -2   7   -2.66    2.18
  -1   2  -7    0.62    1.00
  -7  -2  -1    0.36    0.22
   1  -2  -7    0.14    0.21
   2  -7  -1   -1.96    0.84
  -7   2   1    0.06    0.44
  -2  -1  -7    0.70    1.36
   7   1   2    0.41    0.35
  -1  -7  -2    0.55    0.38
  -7  -2  -2    0.13    0.22
  -7   2   2    0.08    0.38
  -2  -7   2    0.98    1.18
  -7   2  -2    0.58    0.54
  -7  -2   2   -0.08    0.16
   2   2  -7    0.00    0.27
   2   2   7    0.12    0.23
   2   7  -2   -0.25    0.45
  -2   2   7    0.08    0.16
  -2   7  -2    0.67    0.92
  -2   7   2    0.03    0.52
   2  -7   2    0.42    0.75
   7   2   2    0.27    0.36
  -2  -2  -7   -0.63    1.38
   2   7   2   -0.41    0.42
   7  -2  -2    0.05    0.34
   7  -2  -2    0.26    0.32
   7  -2   2    0.04    0.54
   2  -2   7   -0.31    0.37
   2  -7  -2    0.19    0.56
   2  -2   7    1.58    1.89
  -2   7   2   -0.12    0.43
  -2  -2   7   -0.39    1.92
  -2   2  -7   -0.29    1.14
   2  -7  -2   -0.82    0.88
   7   3   0   12.74    1.35
   7  -3   0    9.08    1.55
   3   0   7   12.01    1.19
  -3  -7   0    9.83    1.49
   3   7   0   12.31    1.76
   3  -7   0    8.25    1.54
  -7  -3   0   10.30    1.09
  -7   3   0   10.34    1.42
   0  -3  -7   11.27    1.27
   0  -3   7   13.86    3.48
   0   3  -7   12.01    1.75
   0   3   7   11.77    1.10
  -3   0   7   10.36    1.66
  -3   0   7   12.93    1.00
  -3   0  -7   10.69    2.20
   7   3   1    7.16    0.88
  -3  -1   7    4.08    0.62
  -3   1  -7    2.56    1.56
  -1  -3  -7    4.18    1.71
  -3  -1   7    8.71    2.05
  -7   3  -1    5.58    0.96
  -3  -7  -1    5.83    0.99
   1  -7  -3    6.28    1.43
  -1   7  -3    6.13    1.30
   1  -3   7    9.96    3.03
   1   3  -7    6.20    1.01
  -1  -7   3    2.76    1.43
  -7  -3   1    6.27    0.62
   1   7   3    5.73    0.91
   7  -1   3    6.40    1.06
   3   1   7    3.99    0.68
  -7  -1  -3    4.39    0.69
   7  -3  -1    6.62    1.10
  -1   3   7    5.08    0.62
  -1  -3  -7    5.61    0.86
   1  -7  -3    4.80    0.87
   3  -7  -1    8.99    1.41
  -3   1   7    5.05    0.53
   1   3   7    5.36    0.66
  -3  -1  -7    1.96    1.45
  -3  -7   1    4.35    0.99
   1  -3  -7    4.79    0.84
  -1   7   3    4.43    0.83
  -7   1  -3    6.08    1.08
  -3   1   7    5.32    0.70
   7  -3   1    4.58    0.90
   3   7   1    7.07    1.15
  -1   3  -7    5.55    1.38
   7   1   3    5.85    0.86
   3  -1   7    5.02    0.81
   7  -3   1    5.66    1.07
  -7  -1   3    4.89    0.55
  -1  -3   7    2.57    2.55
  -7  -3  -1    5.59    0.66
   3  -7  -1    5.00    1.19
   1   7  -3    6.16    1.14
  -1  -7  -3    4.85    0.74
  -1  -7  -3    4.85    1.06
   3   1  -7    5.03    0.61
  -7   3   1    5.85    0.96
  -7   3  -2   16.65    2.04
   3   2   7   17.41    1.70
  -2  -3  -7   17.56    3.15
   7  -3  -2   20.88    1.87
  -2  -7   3   17.16    2.86
  -3  -2   7   20.56    3.62
  -3   2  -7   20.34    3.06
   2  -7  -3   17.32    1.95
  -7  -2  -3   16.88    1.70
   7   3   2   20.22    1.80
  -7  -3   2   18.44    2.03
   2   7   3   20.06    1.87
   7  -2   3   19.51    2.13
  -7  -3   2   18.19    1.61
   2  -3   7   16.79    2.08
   2   3  -7   18.82    1.82
   2  -7  -3   17.05    2.55
   7  -3  -2   20.29    1.90
  -7   2   3   21.20    1.87
  -2   3   7   17.01    1.62
  -2  -3  -7   15.74    1.79
   3  -7  -2   15.90    2.43
  -3  -2  -7   12.79    2.61
  -3  -7   2   17.01    2.36
   2   7  -3   19.39    2.04
   3  -7  -2   17.50    2.25
   3   7   2   20.95    1.95
  -2  -7  -3   19.71    1.73
   2   3   7   18.99    1.70
  -2  -3   7   17.25    3.26
  -2   7   3   17.42    1.87
   3  -2   7   20.52    1.95
   3   2  -7   18.34    1.69
  -7   3   2   17.53    1.85
  -7  -2   3   18.93    2.05
  -7  -2   3   14.74    1.66
  -7   2  -3   18.80    2.12
  -2   7   3   18.15    1.98
  -7  -3  -2   18.47    1.69
  -3  -2  -7   17.00    1.83
   7   2   3   21.40    1.83
   7  -3   2   16.54    2.24
  -3   2   7   16.59    1.64
  -3  -3  -7   -0.17    1.37
  -3  -3  -7   -0.40    0.43
  -3  -3   7    0.49    2.02
  -3  -7   3    0.28    1.01
  -3   3   7   -0.04    0.19
  -7   3   3   -0.10    0.38
  -3  -7  -3   -0.14    0.59
  -7  -3  -3    0.06    0.31
   3   7   3    0.60    0.43
   7  -3   3    0.12    0.86
   7   3   3   -0.25    0.34
  -7   3  -3    0.34    0.63
  -3   7  -3    0.29    1.00
   3   3   7   -0.11    0.27
   3   7  -3    0.24    0.41
   3  -3   7    0.26    0.70
   3   3  -7   -0.24    0.28
  -7  -3   3    0.17    0.18
   3  -7   3    0.56    0.86
   3  -3   7    0.97    2.42
   3  -7  -3   -0.55    1.06
  -3   7   3    0.02    0.45
  -3   7   3    0.18    0.49
  -7  -3   3   -0.62    0.55
  -3   3  -7    0.48    1.37
  -4   0   7   25.74    2.75
  -4   0   7   21.21    1.79
  -7   4   0   22.03    2.24
  -4   0  -7   15.74    3.04
   0   4   7   21.35    1.92
  -7  -4   0   21.47    1.92
   0   4  -7   21.24    2.57
   0  -4  -7   20.87    2.09
   0  -4   7   20.85    4.01
  -4  -7   0   17.96    2.13
   0  -4  -7   23.19    1.81
   4   7   0   20.64    2.52
   7   0   4   20.72    2.13
   7   4   0   24.42    2.25
   4   0   7   20.72    2.02
   0  -7  -4   20.73    1.98
  -7   0  -4   20.16    2.38
  -7   0   4   18.64    2.24
   0   7  -4   19.92    2.49
   0   7   4   20.07    2.08
   0  -7  -4   21.70    2.52
   7  -4   0   27.36    2.56
   4  -7   1    0.44    0.96
   7   4   1    0.23    0.44
  -7  -4   1    0.33    0.24
  -7   4  -1    0.56    0.58
   7  -4  -1   -0.42    0.70
  -1  -4  -7    0.34    0.45
   7  -1   4    0.29    0.54
   1  -4   7    3.69    2.74
  -4  -7  -1    1.11    0.58
   4   7  -1    1.04    0.95
   1   7   4    0.29    0.33
  -1   4   7    0.06    0.22
   4   1   7    0.08    0.28
  -1   7  -4   -0.10    0.81
  -1  -7   4   -0.13    1.07
   7  -4  -1    0.20    0.66
  -4  -1   7    0.16    1.46
  -4   1  -7    0.58    1.21
  -7  -1  -4    0.23    0.36
   1   4  -7   -0.11    0.51
  -4   7   1    0.31    0.86
   1  -7  -4   -0.28    0.60
   1  -7  -4    0.84    0.95
  -1  -4  -7   -0.03    1.41
  -7  -4  -1    0.35    0.28
  -1   7   4    0.42    0.42
  -4  -1  -7    0.96    1.17
  -1  -4   7    0.95    2.14
   1   4   7    0.02    0.25
   1  -7   4    0.10    0.89
  -7   1  -4   -0.30    0.57
  -4   1   7    0.84    0.43
  -4  -7   1   -0.51    0.51
  -4   7  -1   -0.52    0.78
  -1  -7  -4    0.53    0.73
  -7  -1   4    0.24    0.17
   4  -7  -1    1.34    0.89
   7   1   4    0.20    0.43
   7  -4   1   -0.89    0.57
   7  -4   1    0.92    0.87
  -4   1   7    0.18    0.15
  -1  -7  -4    0.21    0.32
   1  -4  -7    0.66    0.44
   1   7  -4    0.47    0.62
   7   4  -1   -0.20    0.62
   4  -1   7    0.67    0.40
   4  -7  -1    0.38    1.17
   4   7   1    0.26    0.59
  -7   4   1    0.32    0.48
  -1   4  -7   -0.14    0.98
   7  -4  -2    3.06    0.78
  -4  -2   7    0.01    1.56
  -2   4   7    2.17    0.39
   7  -4  -2    2.80    0.81
  -7  -2  -4    0.93    0.42
   7   4   2    2.33    0.57
  -2  -4  -7    5.52    1.86
   2   7   4    1.20    0.44
  -7   2   4    1.23    0.49
  -4  -7  -2    2.45    0.63
   2   4  -7    2.08    0.57
   2  -7  -4    1.41    0.60
   2  -7  -4   -1.33    1.01
  -4   2  -7    1.20    1.34
  -4   7   2    3.50    0.98
  -2  -4  -7    2.20    0.57
   4   2   7    2.00    0.44
  -4   7   2    2.81    0.82
  -2  -7   4   -0.88    1.35
  -7  -4   2    1.86    0.34
  -7   4  -2    1.56    0.65
   7  -2   4    0.46    0.69
   4   7   2    0.99    0.58
  -7   2  -4    3.12    0.89
   7   2   4    1.20    0.50
  -4  -7   2    0.48    0.68
  -4   7  -2    4.97    1.28
   2   7  -4    1.34    0.56
  -2   7   4    1.87    0.59
  -2   4  -7    4.28    1.43
   2  -4  -7    2.54    0.55
   7  -4   2    1.31    0.74
   7  -4   2    3.46    1.11
  -7  -2   4    0.80    0.69
   4  -2   7    3.03    0.70
  -2  -4   7    3.28    2.17
  -7  -2   4    1.32    0.24
   4  -7  -2    3.15    1.20
   4  -7  -2    1.02    0.94
  -7   4   2    1.59    0.57
  -4  -2  -7    4.35    1.56
  -4  -2  -7    1.58    0.56
   2   4   7    2.39    0.43
   2  -7   4    2.84    1.05
  -4   2   7    1.81    0.30
  -2  -7  -4    1.09    0.38
  -2  -7  -4    1.05    0.76
  -3  -4  -7    0.23    0.55
  -7  -4   3    0.75    0.63
   4   3   7    0.62    0.34
  -7   4  -3   -0.34    0.62
  -4   7   3    0.19    0.48
  -4   3  -7    0.37    1.34
   7  -3   4    0.07    0.86
  -4   7   3    0.04    0.51
  -3  -7   4    0.12    1.24
  -3   7  -4    0.15    1.09
   7   4   3    0.73    0.45
   3   7   4    0.61    0.43
  -4  -3   7   -0.90    1.62
   3   4  -7    0.63    0.41
  -7   3   4    0.02    0.43
   3  -4   7    0.41    1.06
   7  -4  -3    0.41    0.50
   7  -4  -3   -0.28    0.56
   3  -7  -4   -0.33    0.87
   3  -7  -4    0.27    1.09
  -7  -4   3   -0.10    0.23
  -3   4   7    0.75    0.32
  -3   4  -7    1.81    1.44
  -4  -7   3    0.21    0.82
  -7   3  -4    0.70    0.69
   3   4   7    0.31    0.27
   4  -7  -3    0.68    1.76
   4  -7  -3   -0.64    1.00
   4   7   3    0.20    0.44
  -4   3   7    0.30    0.27
   7   3   4   -0.06    0.37
  -3   7   4    0.10    0.50
  -7   4   3    0.44    0.47
  -4  -3  -7    0.18    1.41
   3   7  -4    0.81    0.50
  -4   7  -3    0.61    0.96
  -3  -7  -4    0.17    0.33
  -7  -3   4    0.35    0.18
   4  -3   7    0.56    0.80
  -3  -4   7   -0.43    1.81
  -7  -3   4    0.56    0.74
   7  -4   3    1.48    1.09
  -4  -3  -7   -0.11    0.48
  -4  -7  -4    0.37    0.42
  -7   4   4    0.11    0.47
   4   4  -7    0.90    0.39
   4   4   7   -0.11    0.34
   4   7   4    0.44    0.44
   7  -4   4    1.21    1.24
   7   4   4    0.44    0.46
  -4   7   4    0.28    0.40
  -4   7   4    0.59    0.52
   4  -7  -4    2.34    1.21
  -7  -4   4    0.75    0.26
  -4   7  -4    2.71    1.29
  -4  -4  -7    0.40    0.60
  -4  -4   7   -2.24    1.98
  -4   4  -7   -0.43    1.24
   4  -4   7   -0.29    1.12
  -7   4  -4    0.42    0.75
  -4  -7   4    0.14    0.95
  -4   4   7    0.47    0.35
   5  -7   0    5.28    1.16
   0  -7   5    4.04    1.12
   0   7  -5    2.29    0.97
  -7   5   0    1.10    0.60
  -7   0   5    1.52    0.80
  -7  -5   0    1.72    0.40
  -5   0  -7    2.92    1.53
   0  -5  -7    2.52    0.71
  -5  -7   0    2.91    0.65
   0   5  -7    2.34    1.00
   5  -7   0    2.22    1.66
  -7   0  -5    1.63    0.82
  -5   0   7    4.14    1.22
  -5   0   7    2.14    0.26
   0  -7  -5    2.04    0.49
   7  -5   0    3.54    1.15
  -5   7   0    4.12    1.10
   0  -5  -7    2.14    0.35
   7  -5   0    5.38    1.11
   0  -5   7    1.09    3.06
   7   0   5    2.38    0.68
   0  -7  -5    1.54    0.96
   7   5   0    0.86    0.86
   5   0   7    2.81    0.61
   0   5   7    2.40    0.45
   5   7   0    1.68    1.02
   0   7   5    1.84    0.49
  -7  -1  -5    0.65    0.83
   1   5  -7    1.18    0.70
   7  -5  -1    2.19    0.92
   7   5   1    0.65    0.54
   5   1   7    2.37    0.54
   7  -5  -1    1.77    0.83
   1  -7  -5    0.28    0.45
  -7  -5   1    0.49    0.32
  -5  -1   7    0.06    1.40
  -5   1  -7    2.65    1.39
   5  -7   1    2.35    1.09
  -1   7  -5    0.91    1.02
  -1  -7   5    2.32    1.06
  -7   1   5    0.67    0.68
   1   7   5    0.78    0.39
  -1  -5  -7    1.27    0.66
  -7   5  -1    0.22    0.60
   7  -1   5    2.07    0.71
   5   7  -1    1.14    1.05
   1  -7  -5    0.60    0.93
  -1   5   7    1.85    0.40
  -1  -5  -7   -0.24    1.63
  -5   7   1    2.31    0.91
  -5  -7   1    0.50    0.53
  -5   1   7    1.77    0.67
  -1  -7  -5    0.90    0.35
   7   5  -1    0.33    0.68
  -7   1  -5    0.64    0.83
   5  -1   7    1.45    0.59
  -1  -5   7    3.68    2.18
  -1   5  -7    2.66    1.18
  -7  -1   5    0.98    0.21
   1  -5  -7    2.11    0.72
   1   7  -5   -0.09    0.63
   1   5   7    1.24    0.37
   5  -7  -1    2.00    1.59
   5  -7  -1    0.67    0.92
  -7  -5  -1    0.97    0.39
  -5   7  -1    0.96    0.90
   5   7   1    1.64    0.79
  -1  -7  -5   -0.13    0.82
   7   1   5    0.65    0.50
   1  -7   5    0.58    0.99
  -5   1   7    1.54    0.26
  -7  -1   5    1.78    0.89
   7  -5   1    1.75    1.01
  -7   5   1   -0.33    0.54
  -1   7   5    0.95    0.44
  -5  -1  -7    1.78    1.19
   7  -5   1    2.00    0.87
  -7   5  -2   -0.68    0.55
  -7  -5   2   -0.06    0.28
  -2   7  -5    0.39    0.96
  -2  -7   5    0.01    1.25
   2  -7  -5   -0.82    0.60
   2  -7  -5   -0.10    1.01
  -5  -2   7   -1.42    1.60
   2   7   5    0.37    0.38
  -7   2   5    0.23    0.61
   5   2   7    0.37    0.38
   7  -5  -2    0.11    0.69
  -2  -5  -7   -0.03    0.60
   7  -5  -2    0.20    0.77
  -5   2  -7    0.94    1.19
   7   5   2    0.47    0.47
  -5   7   2   -0.58    0.76
  -2   5   7    0.16    0.29
   2   5  -7    0.11    0.47
  -7   2   5   -0.28    0.39
   7  -2   5   -0.18    0.71
   5  -2   7   -0.05    0.60
   2   5   7    0.46    0.34
  -2  -7  -5    0.50    0.32
  -7   2  -5   -0.66    0.74
  -5  -7   2    0.67    0.53
   2  -5  -7    0.17    0.59
  -5  -2  -7   -0.02    0.56
  -5   2   7    0.24    0.27
   5   7   2    0.20    0.57
  -2   5  -7   -0.11    1.36
  -2  -7  -5    1.21    1.35
   2   7  -5    0.30    0.57
   7  -5   2    0.71    1.05
  -5   7  -2    0.35    0.86
   7   2   5    0.24    0.41
  -2  -5   7    0.60    2.87
   7  -5   2   -0.82    0.79
  -2   7   5    0.05    0.41
  -7   5   2    0.36    0.51
  -5  -2  -7   -0.86    1.13
   5  -7  -2    0.14    0.92
  -7  -2   5    0.92    0.93
  -7  -2   5    0.05    0.15
   5   3   7    6.02    1.14
   7   5   3    9.29    1.25
  -3   5   7    8.71    1.01
  -3  -5  -7    8.30    1.40
  -7   5  -3    8.64    1.52
   7  -5  -3    7.46    1.19
  -7   3   5    8.12    1.23
  -3  -7   5    7.72    1.88
  -5  -3   7    7.10    2.28
  -5   3  -7    6.77    1.78
   3  -7  -5   11.73    1.72
   3   7   5   10.96    1.28
  -7  -5   3    8.91    0.96
   7  -3   5    7.17    2.22
   3   5  -7    8.58    1.22
   5  -7  -3    8.33    1.59
   7   3   5    9.74    1.20
  -7   5   3   12.28    1.30
   3  -5  -7    9.52    1.26
  -5  -7   3    6.76    1.12
   3   5   7    7.98    1.28
  -5  -3  -7    9.04    2.06
  -7  -3   5    8.15    1.48
  -5   3   7    8.06    1.01
  -7   3  -5   11.35    1.74
   5   7   3    8.93    1.27
  -3   7   5    9.62    1.31
   5  -3   7    8.97    1.85
   3   7  -5   10.29    1.38
  -3  -7  -5   10.26    1.08
  -5   7   4    3.02    0.57
  -4   7  -5    5.17    1.87
   4   5  -7    2.52    0.61
  -5   7   4    4.02    0.85
   4  -5   7    2.22    1.81
  -5   4  -7    0.91    2.09
  -7  -5   4    2.82    0.47
  -7   5  -4    1.95    0.99
   7  -4   5    2.34    1.47
  -5  -4   7    0.72    2.15
  -4  -7   5    1.53    1.23
   4   7   5    2.75    0.65
  -5  -4   7    2.89    0.76
   5   4   7    2.00    0.54
   7  -5  -4    2.77    0.60
   7  -5  -4    2.55    0.80
  -7   4   5    3.78    0.62
   7   5   4    1.74    0.72
   4  -7  -5    2.32    1.14
  -7   4   5    1.96    0.57
  -4   7   5    1.91    0.71
   5   7   4    2.28    0.67
  -5   4   7    2.60    0.60
   7  -5   4    4.96    1.60
  -4   5  -7    4.89    3.03
  -7   4  -5    1.83    1.16
   4   5   7    2.24    0.54
   5  -7  -4    4.05    1.25
  -5  -7   4    0.38    0.74
  -5   7  -4    5.78    1.54
   5  -4   7    1.69    1.34
  -4  -7  -5    4.36    0.72
   7   4   5    2.32    0.65
  -7  -4   5    3.43    0.49
  -4  -5   7    1.71    0.83
  -5   7  -5    1.28    1.22
   7  -5   5    1.62    1.58
  -5  -7   5    0.56    0.94
   5   7   5    0.26    0.46
  -5  -5   7   -0.90    0.86
  -5   5  -7    1.30    1.48
  -5   5   7    0.15    0.57
   5   5   7   -0.13    0.42
  -7  -5   5   -0.33    0.31
  -7   5  -5   -0.89    0.78
   5  -5   7    0.05    1.68
   7   5   5    0.01    0.56
   5  -7  -5    0.16    0.96
   7   0   6    5.41    0.96
   0  -6  -7    7.26    0.74
   0   7   6    5.45    0.95
  -6   0  -7    6.37    1.71
  -6   0   7    6.07    0.72
   0  -7   6    8.85    1.50
   0   7  -6    4.03    1.19
  -7   0  -6    4.68    1.36
   6   7   0    5.00    1.47
   7   6   0    6.34    1.50
   0  -7  -6    7.50    1.36
   0   6   7    6.59    0.89
   0  -6  -7    5.88    1.20
  -6   0   7   10.53    1.68
   6   0   7    6.67    1.06
   0   6  -7    5.44    1.24
  -7   0   6    3.64    1.27
   0  -7  -6    7.12    0.88
  -6  -1   7    1.58    1.41
  -1  -6  -7    2.22    0.88
   1  -7  -6    2.70    0.59
   7  -6  -1    5.24    1.14
   7  -1   6    1.96    0.75
  -7  -6   1    1.58    0.49
   1   6  -7    2.25    0.85
  -6   1  -7    3.00    1.41
  -1   7  -6    4.95    1.32
   1   7   6    2.36    0.56
  -1  -6  -7    2.91    0.53
  -1  -7   6    4.51    1.20
   1  -7  -6    3.33    1.15
   6   7  -1    2.04    1.16
  -7  -1  -6    2.89    1.10
   7  -6  -1    5.20    1.24
  -7   1   6    0.25    0.95
   6   1   7    2.18    0.59
   7   6   1    1.72    0.89
  -6   7   1    4.24    0.98
  -1   6   7    1.79    0.46
  -7   6  -1    2.65    0.87
  -7   6   1    2.84    0.78
   1  -6  -7    0.22    0.87
  -7  -1   6    2.94    0.39
   7   1   6    2.25    0.66
  -6   1   7    2.05    0.47
  -1  -7  -6    2.34    0.47
   7  -6   1    3.59    1.23
  -1  -7  -6    3.02    1.16
  -1   6  -7    2.74    1.29
   1   7  -6    3.36    0.94
  -1   7   6    2.48    0.58
  -6   1   7    3.65    0.93
   6  -7  -1    4.99    1.23
  -7   1  -6    2.08    1.10
   6   7   1    2.40    0.94
   6  -1   7    1.67    0.69
   1   6   7    2.06    0.54
   7   6  -1    1.59    0.84
  -6  -1  -7    3.32    1.41
  -7  -1   6    1.02    1.13
  -6  -7   1    2.54    0.65
   7  -2   6    3.35    1.02
  -2   7  -6   11.43    2.79
  -7   2   6    4.08    0.90
   7   6   2    3.76    0.93
  -7  -6   2    3.23    0.64
  -7   6  -2    4.83    1.16
  -2   6   7    3.42    0.64
  -2  -6  -7    3.85    0.71
  -7  -2  -6    6.19    1.43
  -2  -7   6    5.36    1.51
  -2  -6  -7    6.08    1.09
   2   7   6    4.46    0.76
  -6  -2   7    3.64    1.83
   6   2   7    4.12    0.75
  -6   2  -7    5.72    1.67
   2   6  -7    5.09    1.00
   2  -7  -6    6.86    1.40
   7  -6  -2    6.73    1.16
   6  -2   7    4.35    1.06
  -7  -2   6    2.65    1.46
  -6  -2  -7    4.71    1.49
  -7   2  -6    4.68    1.73
   2   7  -6    6.13    1.22
   2  -6  -7    4.01    1.07
   7   2   6    4.57    0.81
  -2   6  -7    9.24    2.59
  -2   7   6    5.49    0.88
   6   7   2    4.14    0.94
  -2  -7  -6    5.36    0.78
  -6  -7   2    5.12    0.82
  -6   2   7    4.41    0.72
  -2  -6   7    3.59    1.07
   2   6   7    4.55    0.73
  -7   6   2    7.05    1.14
   6  -7  -2    7.55    1.35
  -7  -6   3   22.98    1.98
   3   6  -7   23.44    2.28
   7   6   3   24.32    2.25
  -3   6   7   20.44    2.05
   7  -3   6   16.89    2.70
   6   3   7   19.01    2.03
   3  -7  -6   22.24    2.71
   3   7   6   19.75    2.04
  -6   3  -7   22.09    2.93
  -6  -3   7   20.02    3.72
   6  -3   7   19.89    2.69
  -7  -3   6   19.12    1.77
  -6   3   7   22.07    2.11
  -6  -3  -7   18.99    3.06
   6   7   3   24.92    2.69
  -3   7   6   20.97    2.18
  -3  -7  -6   19.70    1.98
  -7  -3   6   13.86    2.67
   7   3   6   19.76    2.08
  -7   3  -6   20.92    2.70
   3   7  -6   21.72    2.44
  -6  -7   3   25.67    2.14
   3   6   7   19.69    2.02
   3  -6  -7   20.08    2.37
   7  -4   6    6.79    2.00
  -7  -6   4    5.94    0.97
  -7   6  -4   10.48    1.64
  -6  -4   7    5.08    0.86
  -4   6   7    7.20    1.13
   6   4   7    6.15    1.02
   7  -6  -4    8.22    1.36
   7   6   4    9.52    1.30
  -4  -7   6    3.85    1.60
   4   7   6    7.33    1.09
  -6   4  -7   10.61    1.98
   4  -7  -6    6.83    1.37
  -4  -6   7    4.73    1.51
  -4   7   6    5.87    1.58
  -7  -4   6    6.80    0.75
  -7   4  -6    6.84    1.51
  -6   4   7    6.50    1.05
  -6  -7   4    5.84    0.97
   7   4   6    6.16    1.10
   6   7   4    8.02    1.24
   6  -4   7    3.78    1.61
   4  -6  -7    6.67    1.06
   4   6   7    6.75    1.02
   6  -7  -4    7.14    1.35
  -7  -6   5    0.75    0.50
   6   5   7    0.04    0.46
  -5  -7   6    0.07    1.04
  -7   5   6   -0.15    0.71
  -6  -5   7   -0.44    0.68
   5   7   6    0.86    0.55
  -6   7   5    0.70    0.69
   7  -5   6    1.86    1.83
  -5   7  -6   -0.22    1.37
  -5   6   7    0.11    0.63
   5  -6   7    1.23    2.23
  -6   5  -7    0.06    1.16
   7   6   5    0.30    0.61
   6  -7   5    1.86    1.80
  -7   6  -5    0.13    1.06
   6  -7  -5    2.51    1.09
   7   5   6    0.38    0.56
  -5  -6   7   -0.57    1.00
  -6  -7   5    0.10    0.67
   5   6   7    0.42    0.50
  -6   5   7   -0.21    0.60
  -7   5  -6   -0.15    1.05
  -5   6  -7    1.50    1.50
  -5   7   6    0.15    0.61
  -6   7  -5    0.61    1.15
   6  -5   7    3.09    1.91
  -7  -5   6    0.71    0.39
   7  -6   5    0.63    1.76
   6   7   5    0.68    0.60
  -7   6  -6   -0.62    1.11
  -7   6   6   -0.16    0.79
  -6   6  -7    0.45    1.37
  -6   7  -6    0.17    1.22
  -6   7   6    0.33    0.70
   6  -7   6    1.06    2.18
   6  -6   7    0.33    2.24
   6   6   7    0.34    0.59
   6   7   6    0.47    0.69
   7  -6   6    4.54    2.13
   7   6   6   -0.09    0.62
  -7   0  -7   15.81    2.70
  -7   0   7   23.62    2.88
   0  -7  -7   19.75    1.77
   0  -7  -7   22.48    2.73
   0   7  -7   15.81    2.64
   0   7   7   18.10    1.87
   7   0   7   17.68    2.04
   7   7   0   14.46    2.51
  -7  -1  -7    1.03    1.17
  -7  -1   7    1.29    1.67
  -7   1  -7   -0.40    1.18
  -7   1   7    0.72    1.07
  -7   1   7    0.51    0.61
  -7   7  -1    0.06    0.72
  -7   7   1    0.70    0.74
  -1  -7  -7    0.22    0.38
  -1  -7   7    0.52    1.24
  -1   7  -7   -0.40    1.15
  -1   7   7    0.39    0.45
   1  -7  -7    0.32    1.18
   1   7  -7    0.51    0.72
   1   7   7   -0.04    0.41
   7  -7  -1    0.27    1.08
   7  -1   7    0.97    0.76
   7   1   7   -0.32    0.51
   7   7  -1   -0.86    0.98
   7   7   1    0.99    1.07
  -7  -2  -7    1.06    1.41
  -7  -2   7   -0.72    1.91
  -7   2  -7    1.29    1.20
  -7   2   7    0.56    0.59
  -7   7  -2    0.87    0.78
  -7   7   2   -0.31    0.73
  -2  -7  -7    0.44    0.42
  -2  -7   7   -0.52    1.16
  -2   7  -7   -0.74    1.37
  -2   7   7    0.78    0.49
   2  -7  -7    0.77    1.15
   2   7  -7    0.36    0.72
   2   7   7    0.25    0.44
   7  -7  -2    0.69    1.02
   7  -7  -2    1.62    1.12
   7  -7   2    1.25    1.25
   7  -2   7   -0.59    0.83
   7   2   7   -0.34    0.48
   7   7   2    0.73    0.82
  -7  -3  -7   -1.25    1.31
  -7  -3   7   -0.52    2.26
  -7  -3   7    0.16    0.18
  -7   3  -7   -0.96    1.13
  -7   3   7    0.23    0.59
  -7   7  -3    0.07    0.87
  -7   7   3   -0.25    0.75
  -3  -7  -7   -0.64    0.48
  -3  -7   7   -0.32    1.45
  -3   7  -7   -0.27    1.44
  -3   7   7    0.03    0.52
   3  -7  -7   -0.73    1.13
   3   7  -7    0.36    0.73
   3   7   7    0.03    0.47
   7  -7  -3   -0.86    0.98
   7  -7  -3   -0.15    1.09
   7  -7   3    0.89    1.42
   7  -3   7    1.13    1.13
   7   3   7    0.24    0.49
   7   7   3    0.57    0.72
  -7  -7   4   -0.03    0.83
  -7   4  -7   -0.52    1.12
  -7   4   7    0.79    0.68
  -7   7  -4    0.94    0.95
  -7   7   4    0.29    0.55
  -4  -7   7   -1.78    1.58
  -4   7  -7   -0.01    1.61
  -4   7   7    0.01    0.64
   4   7  -7   -0.08    0.62
   4   7   7    0.54    0.58
   7  -7  -4    1.69    1.14
   7  -7   4    1.48    1.58
   7  -4   7   -0.11    1.56
   7   4   7    0.45    0.54
   7   7   4    0.45    0.73
  -7   5  -7    1.66    1.33
  -7   5   7    0.80    0.75
  -7   7  -5    0.28    1.04
  -5   7  -7    0.36    1.57
  -5   7   7   -1.24    0.64
   5  -7   7    3.18    2.49
   5   7   7   -0.36    0.56
   7  -7  -5   -0.37    1.47
   7  -7   5    0.19    1.88
   7  -5   7    2.76    2.03
   7   5   7    0.06    0.59
   7   7   5    1.23    0.75
  -7   6  -7    7.87    1.81
  -7   6   7    6.27    1.24
  -7   7   6    9.33    1.44
  -6   7  -7   11.37    2.27
  -6   7   7    4.42    1.08
   6   7   7    5.23    1.03
   7   6   7    4.57    1.03
   7   7   6    5.38    1.15
  -7   7  -7    0.61    1.56
  -7   7   7   -0.68    0.97
   7  -7   7    3.50    2.59
   7   7   7   -0.18    0.84
  -8   0   0  955.98   80.02
   0  -8   0  973.59   80.55
   0   0  -8  987.86   80.26
   0   0   8 1000.00   80.00
   0   8   0  962.77   80.47
   8   0   0  965.74   80.08
  -8   0  -1    1.43    0.38
  -1  -8   0   -0.14    1.12
  -1   8   0    1.86    1.01
   0  -1  -8    1.93    0.72
   0  -1   8    2.62    1.42
   0  -1   8    1.87    0.41
   0   1  -8    1.74    0.79
   0   1   8    1.96    0.37
   1  -8   0    0.46    1.21
   1   8   0    2.07    0.74
   1   8   0    4.78    1.06
   8   0  -1    2.09    0.51
   8   0   1    1.68    0.56
   8  -1   0    2.35    0.60
   8   1   0    2.24    0.56
   8  -1   0    2.16    0.60
   1   0  -8    2.40    0.48
   1   0   8    1.57    0.39
   0   8   1    1.43    0.69
  -8  -1   0    1.40    0.34
  -1   0  -8    1.26    1.17
  -1   0   8    2.20    0.36
   0  -8  -1    0.33    1.18
   0  -8   1    0.73    1.24
   0   8  -1    1.60    0.93
   0   8   1    2.63    0.90
  -1  -8  -1    2.02    1.29
   8   1  -1    4.23    0.59
   8   1   1    2.56    0.61
   8  -1   1    2.91    0.74
   1  -1  -8    3.53    0.57
   1  -1   8    3.49    0.56
   1   1  -8    3.05    0.64
   1   1   8    3.00    0.47
   1   8  -1    2.41    0.82
   1   8   1    2.31    0.81
  -1   1   8    3.00    0.45
  -1   8  -1    4.23    1.24
  -1   8   1    2.85    0.94
  -1   8   1    3.70    0.80
   1  -8  -1    2.10    0.72
   1  -8  -1    2.99    1.20
   1  -8   1    3.07    1.20
   8  -1  -1    3.23    0.60
  -8  -1  -1    2.26    0.43
  -8  -1   1    2.44    0.41
  -8   1  -1    3.29    0.79
  -1  -1   8    0.26    1.32
  -1   1  -8    2.36    1.23
  -1  -1  -8    2.30    1.29
   0  -2   8  266.68   25.70
   0  -2   8  305.38   23.56
   2   0   8  285.18   23.52
   8  -2   0  291.58   23.66
   8   2   0  304.16   23.59
   0  -2  -8  255.33   23.59
   8   0   2  270.60   23.62
   0   8   2  245.35   23.71
   2   0  -8  287.56   23.44
  -2  -8   0  314.10   24.06
  -8  -2   0  286.50   23.47
  -8   2   0  298.17   23.74
  -2   0   8  283.75   23.67
  -2   0   8  300.76   23.42
   0  -8  -2  253.66   23.58
   0  -8  -2  301.15   24.07
   0   8  -2  256.44   23.98
   0   2  -8  307.85   23.88
   0   2   8  296.00   23.47
  -8   0   2  279.02   23.46
  -1   8  -2   11.15    1.80
   8  -1   2    7.77    1.18
  -8  -2   1    8.30    0.83
  -8  -1  -2   10.45    0.97
   1  -8  -2    3.50    1.52
  -2   8   1   11.98    1.77
   8  -2  -1    8.67    1.17
   1  -2   8    7.86    2.63
   1  -2   8    9.12    1.09
   8   2   1    8.24    1.13
  -2   8   1   11.39    1.58
   1   8   2    6.89    1.20
  -8   2  -1    6.77    1.28
   1   2  -8    7.77    1.14
   2   1   8    7.62    0.90
  -2  -1   8    8.40    0.82
  -1  -8   2    5.75    1.84
  -1   2   8    7.76    0.82
  -2  -8  -1    9.04    1.59
   1  -8  -2    5.70    1.15
  -2   1  -8    8.28    2.20
  -1  -2  -8    4.72    1.62
  -2  -1   8    7.79    1.93
   2  -8  -1    6.61    1.24
  -8  -2  -1    7.88    0.89
  -1   8   2    5.06    1.17
  -2  -1  -8    5.51    2.09
   2  -1   8    8.22    1.01
   2   8   1    7.24    1.26
  -2   1   8    8.35    0.80
   8   1   2    6.63    1.08
  -1  -8  -2    8.05    1.66
   1   2   8    8.97    0.90
  -8  -1   2    5.93    0.80
  -8   1  -2    7.07    1.32
  -1   8   2    6.81    1.17
  -2  -8   1    7.40    1.57
   1   8  -2    9.21    1.53
   2  -8  -1    9.06    1.61
  -1  -2   8   12.64    2.80
  -1  -2   8    7.97    0.97
  -1   2  -8    7.79    1.76
   2   1  -8    7.51    0.89
   1  -2  -8    8.37    0.79
   8  -2   1    7.41    1.24
   8  -2   1    7.64    1.21
  -8   2   1    8.60    1.27
  -8  -2   2  218.97   18.38
  -8   2  -2  203.43   18.73
  -8   2   2  236.46   18.62
  -2  -8   2  248.33   19.24
  -2  -2   8  201.09   19.52
  -2  -2   8  232.86   18.43
   2  -8  -2  252.23   19.04
   2  -2   8  213.70   19.65
   2  -2   8  207.77   18.54
   8   2   2  234.84   18.56
   2   2  -8  216.55   18.49
   2   2   8  213.33   18.44
   2   8  -2  217.36   18.79
   2   8   2  205.37   18.68
   8  -2   2  210.57   18.70
  -2   8   2  223.27   18.76
  -2   8   2  232.46   18.72
  -2   2   8  218.32   18.42
  -2   2  -8  255.55   19.57
   0   8   3   34.95    3.40
   8   0   3   41.30    3.40
   3   8   0   40.34    3.74
   0   3  -8   38.34    3.70
   0   3   8   37.43    3.13
   3   0   8   36.88    3.20
  -3  -8   0   41.51    3.85
   0  -3  -8   30.00    3.26
   0  -3   8   53.23    6.62
   0  -3   8   36.97    3.36
  -8   0   3   36.32    3.10
  -3   0   8   36.07    3.49
  -3   0   8   38.56    3.04
   0  -8  -3   36.05    3.26
   0   8  -3   38.23    3.82
   8   3   0   31.88    3.35
  -8  -3   0   29.82    3.09
   8  -3   0   29.89    3.45
   8  -3  -1    7.14    1.08
  -8  -3   1    5.91    0.67
   1  -8  -3    4.17    0.84
  -1  -3  -8    5.92    1.65
   1  -8  -3    7.26    1.68
   8  -1   3    5.79    1.05
   1   8   3    6.41    1.00
  -1   3   8    4.99    0.65
   1  -3   8    8.65    3.44
   3   1   8    4.17    0.74
   1   3  -8    4.70    0.93
  -1  -8   3    4.58    1.74
   8   3   1    6.64    1.07
  -3   1  -8    4.09    2.03
  -8   3  -1    5.27    1.01
  -3  -1   8    2.79    1.81
  -3  -1   8    4.77    0.57
  -1  -3  -8    4.71    0.93
  -1   8  -3    7.59    1.48
   1  -3   8    5.83    0.99
   3   1  -8    4.22    0.64
  -1   3  -8    4.23    1.44
  -8  -1   3    4.93    0.61
   1   8  -3    5.06    1.11
  -8   1  -3    5.07    1.09
   8  -3   1    6.02    1.20
  -3   1   8    4.87    0.57
  -1  -8  -3    5.85    0.92
  -3  -8   1    6.71    1.44
   8  -3   1    5.18    0.98
  -8   3   1    5.86    1.07
  -3  -1  -8    4.39    2.14
   3  -1   8    4.98    0.86
   8   1   3    5.23    0.87
   3  -8  -1    4.60    1.26
  -1   8   3    5.27    1.02
  -1  -3   8    2.33    4.15
   1   3   8    5.08    0.69
   3   8   1    4.96    1.08
  -2   3   8   42.05    3.80
   2  -3   8   43.09    4.14
  -8  -3   2   40.06    3.78
   2   8   3   46.38    4.12
  -2  -8   3   54.71    5.13
  -2  -3  -8   42.44    4.05
  -3  -2   8   46.17    5.63
  -8   2   3   50.65    4.04
   2  -8  -3   40.70    4.09
  -3  -2   8   47.03    3.81
   2   3  -8   49.49    4.01
  -8   3  -2   38.61    4.18
   8   3   2   45.27    4.00
   8  -3  -2   50.59    4.00
   8  -2   3   48.95    4.30
  -3   2  -8   57.41    5.57
   3   2   8   43.64    3.88
  -2  -8  -3   45.34    3.94
  -3  -8   2   46.70    4.65
   2   8  -3   48.13    4.29
  -3   2   8   43.51    3.77
  -2   8   3   39.84    4.09
  -8  -2   3   44.80    3.77
   8  -3   2   39.90    4.28
   2   3   8   45.58    3.87
  -8   3   2   41.56    4.03
   3   8   2   46.25    4.19
  -8   2  -3   43.07    4.24
   8   2   3   49.30    4.03
   3   2  -8   44.89    3.86
  -2  -3   8   31.54    6.25
  -8  -2   3   36.53    4.19
   3  -2   8   44.37    4.04
   3  -8  -2   54.13    4.63
   3  -8  -2   38.96    4.28
  -8   3   3    6.84    1.12
   3   3  -8    7.13    0.96
  -3  -8   3    5.76    1.86
  -3  -3  -8    1.83    2.28
  -3  -3  -8    7.34    1.12
  -3  -3   8   11.07    3.06
  -3   3  -8   14.01    2.63
  -3   3   8    7.76    0.80
  -8  -3   3    7.12    0.76
  -3   8   3    6.82    1.21
   3  -8  -3    6.99    1.33
   3  -8  -3    7.95    1.71
   3  -3   8    7.03    1.22
   3   8   3    7.50    1.24
  -8   3  -3    6.58    1.26
   8   3   3    6.98    1.13
  -3   8   3    6.72    1.21
   8  -3   3    7.28    1.45
   3   3   8    7.18    0.90
   4   8   0  499.47   38.76
   0   4  -8  451.35   38.72
   0  -4  -8  500.59   38.17
  -8   4   0  430.25   38.50
  -8   0  -4  481.63   38.72
   0   4   8  465.06   38.28
   0  -4   8  409.47   39.89
  -4   0   8  487.97   38.17
   0  -8  -4  441.83   38.33
   0   8  -4  458.43   38.86
   0   8   4  442.21   38.50
   4   0   8  442.11   38.35
   8  -4   0  533.07   38.67
   8   4   0  450.18   38.50
  -4   0   8  464.11   38.47
   8   0   4  484.37   38.50
   0  -4  -8  455.07   38.41
  -8  -4   1    2.46    0.42
  -1  -8   4    1.86    1.53
  -1  -4  -8    0.70    1.51
  -1  -4  -8    1.93    0.72
   1  -8  -4    2.14    0.67
  -1   4   8    1.81    0.44
  -1   8  -4    4.48    1.31
   4   1   8    1.54    0.50
  -4   1  -8   -0.25    1.56
   4  -8   1    4.43    1.62
   8  -4  -1    2.62    0.93
   1  -8  -4    5.48    1.67
   8  -1   4    1.88    0.81
  -8   4  -1    2.90    0.84
   8   4   1    2.95    0.80
   1   4  -8    1.94    0.79
  -4  -1   8    1.31    1.68
   8  -4   1    4.65    0.92
   1   4   8    1.88    0.44
  -4   1   8    1.86    0.31
  -1   4  -8    2.67    1.32
  -8   1  -4    2.66    0.89
  -8  -4  -1    2.89    0.67
  -8   4   1    2.37    0.73
   4  -8  -1    3.50    1.47
  -1   8   4    2.16    0.74
  -1  -4   8   -0.96    3.55
   4   8   1    2.52    0.96
   1   8  -4    1.88    0.80
   4  -1   8    1.16    0.58
  -4  -1  -8   -0.08    1.67
   1  -4  -8    1.99    0.79
  -8  -1   4    1.57    0.96
   8  -4   1    2.92    1.13
  -1  -8  -4    3.39    0.65
   8   1   4    2.98    0.75
  -8  -1   4    2.42    0.37
  -8   4  -2  117.02   10.26
   2   8   4  122.94   10.12
  -2   4   8  114.58    9.87
   2  -4   8  103.87   10.31
   2   4  -8  128.53   10.12
   2  -8  -4  107.07   10.06
   8  -4  -2  132.41   10.15
  -8  -4   2  117.11    9.86
   8  -2   4  115.79   10.29
   8   4   2  125.63   10.07
  -4  -2   8  115.74   11.03
  -2  -8   4  139.43   10.95
   4   2   8  112.76    9.96
  -2  -4  -8  120.09   10.08
  -2  -4  -8  113.27   11.18
  -8   2   4  132.53   10.04
  -4   2  -8  110.39   11.12
   8   2   4  124.87   10.07
   4  -2   8  119.28   10.12
  -8  -2   4  127.82    9.82
  -2  -4   8   97.23   11.70
   2   4   8  122.17    9.94
  -8   4   2  114.31   10.08
   4   8   2  117.37   10.20
  -8  -2   4  107.21   10.24
   2   8  -4  130.62   10.37
  -2   8   4  116.84   10.64
  -8   2  -4  111.24   10.34
  -4   2   8  119.56    9.83
  -2  -8  -4  111.48    9.94
  -3  -4  -8    0.35    1.98
  -4   8   3    0.79    0.62
   8   4   3   -0.15    0.50
   3   8   4    0.39    0.55
  -8  -4   3    0.53    0.29
   8  -3   4   -0.25    0.88
  -4   3  -8    1.62    1.69
  -3  -4  -8   -0.15    0.69
  -3  -8   4   -2.16    1.61
  -3   8  -4    0.87    1.44
  -8   4  -3    0.56    0.73
  -8   3   4    0.69    0.54
   3   4  -8    0.37    0.45
  -4  -3   8   -0.77    2.55
   3  -4   8   -0.39    0.96
   4   3   8   -0.02    0.36
   3  -8  -4   -0.36    1.37
  -3   4   8    0.45    0.33
  -4   8   3    0.75    0.66
  -8  -3   4    0.54    0.25
  -8   4   3    0.15    0.57
  -4   8  -3    0.68    1.08
  -4  -3  -8    0.84    0.74
   4  -8  -3    0.43    1.33
  -3   8   4    0.51    0.59
  -4   3   8    0.53    0.29
  -3  -8  -4    1.18    0.51
  -3  -4   8    5.13    2.93
  -3   4  -8    0.53    1.60
  -4  -8   3    0.04    1.03
   3   4   8   -0.03    0.33
   8  -4   3    1.49    1.73
   4  -8  -3    0.37    1.31
   4  -3   8   -0.92    0.96
   3   8  -4    0.62    0.90
   8   3   4    0.66    0.52
  -8   3  -4    0.23    1.39
  -4  -3  -8    0.25    1.84
   4   8   3    0.20    0.65
  -4   4   8  440.73   35.37
   8   4   4  387.26   35.62
  -8  -4   4  421.13   35.29
  -8   4  -4  441.34   35.86
  -8   4   4  475.67   35.48
   4  -8  -4  439.75   35.84
   4  -4   8  390.74   35.87
   4   4  -8  466.06   35.47
   4   4   8  407.92   35.42
  -4   8   4  458.69   35.63
  -4  -4  -8  384.86   36.38
   4   8   4  430.57   35.55
  -5   0   8    0.49    1.19
   0  -8  -5    0.97    0.57
  -5   0  -8    1.36    1.56
   5   8   0    1.74    1.13
   8   0   5    1.19    0.73
  -8   5   0   -0.51    0.56
  -8   0   5    1.02    0.95
  -5   8   0    0.74    0.93
   0  -5  -8    0.63    0.20
   0  -5  -8    0.49    0.58
   0   8  -5    0.40    1.23
   8  -5   0    0.24    1.04
   8   5   0    0.06    1.04
   5  -8   0   -0.80    1.66
   0   5  -8    1.68    0.93
   0   5   8    0.93    0.39
  -8   0  -5    0.70    1.19
   8  -5   0    1.25    0.98
   0  -5  -8    0.64    0.85
   5   0   8    0.46    0.47
   0   8   5    1.51    0.55
   8  -5  -1    6.92    1.38
   1   5  -8    4.62    1.08
   5   1   8    4.86    0.79
   1  -8  -5    6.18    1.75
  -1   5   8    4.30    0.74
   1  -8  -5    4.86    0.82
   5   8  -1    7.98    1.74
  -8  -1  -5    5.12    1.45
   1   8   5    5.18    0.86
  -8  -5   1    5.13    0.81
   8   5   1    4.99    1.07
  -8   1   5    3.59    1.05
  -1  -5  -8    4.43    1.83
  -8   5  -1    4.54    1.00
  -5   1  -8    5.41    1.86
   8  -1   5    5.09    1.15
  -1  -5  -8    4.04    1.07
  -5  -1   8    5.07    1.90
  -1  -5  -8    4.02    0.62
  -1   8  -5    6.53    1.54
   8   1   5    4.49    0.89
  -1   8   5    5.14    0.92
   1  -5  -8    4.73    1.27
  -8  -1   5    4.49    1.31
  -8  -1   5    4.81    0.75
   5  -1   8    3.82    0.83
  -8   5   1    4.78    0.91
  -5  -1  -8    3.78    1.95
   1   8  -5    4.70    1.25
   5   8   1    4.35    1.21
  -5   1   8    4.83    0.57
   8  -5   1    9.67    1.61
  -8   1  -5    5.12    1.30
  -1   5  -8    6.05    1.57
   1   5   8    3.53    0.66
  -1  -8  -5    5.41    0.95
  -2  -5  -8   11.98    1.90
  -2   5   8   16.43    1.39
  -8   2   5   10.01    1.79
   2   5  -8   11.34    1.66
   8   5   2   13.43    1.76
  -5  -2   8   18.42    2.87
  -8  -5   2   11.20    1.31
  -2  -5  -8   12.71    2.83
  -2  -8   5    9.52    2.53
   8  -2   5   12.14    2.01
  -8   2   5   16.18    1.56
   5   2   8   13.64    1.44
   2   8   5   13.38    1.57
  -8   5  -2   12.45    1.74
  -5   2  -8   10.15    2.46
   2  -8  -5   12.66    1.78
  -5  -2  -8   13.00    2.79
  -2   8   5   14.11    1.72
  -5   2   8   14.00    1.27
   2  -5  -8   13.29    1.85
   2   8  -5   15.94    1.93
   8   2   5   12.99    1.61
  -8   5   2   12.42    1.63
   5   8   2   13.97    1.90
  -2   5  -8   20.91    3.36
   2   5   8   12.61    1.39
  -8  -2   5    9.93    1.89
  -8   2  -5   13.72    2.13
   5  -2   8   13.61    1.75
   3   8   5    0.74    0.56
  -5   3  -8    1.55    1.59
   5   3   8    0.59    0.42
   8  -5  -3    0.99    0.63
  -3  -8   5   -1.29    2.32
  -8   3   5    0.44    0.51
   8   5   3    0.10    0.66
  -5   8   3    0.18    0.63
  -3   8  -5    1.09    1.41
   3  -8  -5    1.93    1.16
  -8  -5   3    0.44    0.37
  -8   5  -3    0.52    0.81
   8  -3   5    0.52    1.09
  -5  -3   8   -0.84    2.38
   8  -5  -3   -0.46    0.88
  -8   3   5    0.92    0.75
   3  -5   8    0.38    1.50
   3   5  -8    0.96    0.59
  -3   5   8    0.56    0.37
  -5   8   3    0.21    0.73
   3  -8  -5    1.12    1.38
  -3  -5  -8    0.33    2.22
  -3   8   5    1.00    0.66
   5   8   3    0.83    0.69
  -8   3  -5    1.17    0.95
  -3   5  -8    0.02    1.77
  -5  -3  -8    1.18    1.86
  -3  -8  -5    0.44    0.52
   3   8  -5    0.74    0.70
   3   5   8    0.64    0.44
   5  -8  -3   -0.14    1.27
  -8   5   3    0.46    0.63
   5  -3   8    1.22    1.02
  -8  -3   5    0.76    0.27
   8  -5   3    0.61    1.29
  -5   8  -3    0.32    1.32
   8   3   5    0.15    0.56
  -5   3   8    0.99    0.37
  -8  -5   4    7.18    0.99
   4   5  -8    9.45    1.26
   4  -5   8    7.87    2.20
  -5   8   4    8.77    1.17
  -5   8   4   10.28    1.60
  -4  -5  -8    7.50    2.65
   5   4   8    6.54    1.09
  -5   4  -8   15.81    2.71
  -4   5   8    7.48    1.12
   4  -8  -5    9.97    1.84
   4   8   5    9.03    1.30
  -8   5  -4    5.77    1.38
   8   5   4    7.63    1.33
   8  -4   5   10.60    1.99
   8  -5   4   14.37    2.20
  -8  -4   5    9.53    0.92
   5  -4   8    6.23    1.76
   5  -8  -4    7.51    1.71
   5   8   4    7.91    1.41
  -5  -4  -8    8.29    2.51
  -8   4  -5   11.39    1.86
   4   5   8    8.64    1.13
  -5   4   8    8.79    1.15
  -4   8   5    8.17    1.42
   8   4   5    8.57    1.35
  -8  -5   5    2.65    0.78
   5   8   5    2.50    0.81
  -8   5  -5    2.47    1.01
   8   5   5    3.06    0.89
  -5  -5  -8    1.98    2.46
   8  -5   5    7.10    2.07
  -5   8   5    3.52    0.82
   5  -8  -5    4.65    1.55
   5  -5   8    3.33    1.96
  -5   5  -8    3.39    1.78
  -5   5   8    2.72    0.73
  -5   8  -5    7.10    1.71
   6   0   8  102.93    8.51
   6   8   0  110.93    9.05
   8   0   6  101.67    8.61
  -8   0  -6   87.22    8.86
  -6   0  -8   98.12    9.54
  -8   0   6   84.64    8.74
   8   6   0   95.06    8.95
   0  -6  -8  104.07    8.67
   0   6  -8  112.33    9.04
   0   6   8  110.39    8.39
   0   8   6   99.68    8.48
   0  -6  -8   93.08    8.32
  -6   0   8   92.08    8.23
   0  -8  -6   99.81    8.36
   0   8  -6   95.84    8.99
   1  -8  -6   19.00    3.13
   1  -8  -6   11.83    1.57
  -6   1  -8   15.40    2.68
  -8  -1  -6   12.59    2.17
  -8   6  -1   13.01    1.80
  -8   1   6   12.94    2.15
  -6  -1   8   20.88    3.15
  -1  -6  -8   12.33    2.17
   8  -1   6   11.29    1.86
   1   6  -8   12.07    1.98
   1   8   6   14.23    1.58
   8   6   1   15.50    2.30
   6   8  -1   20.44    2.78
  -1  -6  -8   10.02    1.29
   6   1   8   11.97    1.50
  -1   6   8   12.15    1.45
  -6   1   8   15.22    1.33
  -1   6  -8   16.09    2.58
  -1  -8  -6   13.43    1.48
  -1   8   6   12.50    1.60
   6  -1   8   13.57    1.72
   1   6   8   12.87    1.42
   1  -6  -8   11.76    1.82
   6   8   1   13.10    2.05
  -8   1  -6   12.17    2.19
   8   1   6   14.21    1.71
   1   8  -6   11.03    2.01
  -2  -6  -8  120.88   11.17
   2   8   6  111.30   10.12
   8   6   2  126.00   10.33
  -6  -2   8  105.74   10.98
  -8  -2  -6  118.64   10.68
  -8   2   6  130.09   10.04
   6   2   8  110.23   10.10
  -6   2  -8  116.38   11.06
  -2  -6  -8  120.93    9.97
   8  -2   6  115.94   10.48
   2   6  -8  131.37   10.41
   8   2   6  120.21   10.21
   2   6   8  117.84   10.06
   6  -2   8  113.86   10.34
  -8   2  -6  117.02   10.64
  -8  -2   6  122.91    9.88
   2   8  -6  119.80   10.47
  -2   8   6  119.58   10.22
  -6   2   8  128.22   10.03
  -6   3  -8    2.60    1.50
  -6  -3   8   -0.59    2.69
  -6   8   3    0.57    0.71
  -8  -6   3    1.59    0.54
   8   6   3    0.17    0.78
  -3  -6  -8   -0.68    0.56
   8  -3   6   -1.00    1.10
   3   8   6    1.15    0.57
  -3   8  -6    1.90    1.53
  -8   3   6    1.50    0.93
  -8   3   6    0.88    0.52
   8  -6  -3    1.91    1.05
   8  -6  -3    2.52    1.20
   3   6  -8    1.06    0.73
  -8   6  -3    0.29    0.88
   6   3   8    0.49    0.51
   3  -8  -6    0.70    1.56
  -6  -3  -8    4.40    2.41
  -8   6   3    1.62    0.74
  -8   3  -6    0.88    1.07
   6   8   3    1.26    0.80
  -8  -3   6    0.91    0.30
   8  -6   3    2.82    1.53
   3   6   8    1.55    0.53
   3   8  -6    0.68    0.89
  -6   3   8    0.79    0.58
   8   3   6    0.11    0.60
  -3  -6   8   -1.85    1.01
   6  -3   8    0.86    1.14
  -3   8   6    0.50    0.65
  -6   8  -3    1.38    1.12
  -3   6  -8    3.09    1.93
   6  -8  -3   -0.48    1.27
  -3  -8  -6    1.08    0.61
   6   4   8  134.81   12.41
   8   6   4  151.70   12.56
   4   8   6  149.81   12.49
   4   6  -8  144.84   12.53
   8  -4   6  167.45   13.31
  -8   4  -6  162.72   13.04
   4   6   8  138.16   12.40
   6   8   4  158.31   12.60
   6  -4   8  134.66   13.12
  -6  -4  -8  150.29   13.68
  -6   4   8  152.84   12.46
  -4   8   6  127.44   12.53
   8   4   6  154.02   12.53
  -8   6  -5   14.07    2.15
   5   8   6    9.28    1.51
   6   5   8    9.05    1.42
   8   6   5   11.17    1.71
  -6   8   5   14.35    1.93
  -5   6   8   10.64    1.66
  -8   5  -6   10.33    1.94
   6  -5   8   14.07    2.94
  -6   5   8    8.71    1.61
   5   6   8   11.29    1.45
  -5   8   6   10.06    1.52
  -6  -5  -8   11.14    3.04
   6   8   5   10.96    1.68
   8   5   6   10.69    1.60
   6   8   6  143.85   12.08
   6   6   8  139.65   11.99
   8   6   6  144.00   12.08
  -6   6   8  139.71   12.08
   0   7  -8    0.34    1.16
   0   8  -7    3.21    1.35
   0   7   8    2.51    0.64
   7   0   8    1.22    0.76
   8   7   0    1.28    1.61
   8   0   7    3.96    0.97
   7   8   0    5.55    1.77
   0  -7  -8    3.45    1.45
  -8   0  -7    2.13    1.32
  -7   0  -8    2.42    1.72
   0   8   7    3.78    0.75
   1   7  -8    0.16    0.97
   8  -1   7   -0.11    0.88
  -1   8  -7   -0.47    1.21
   8   7   1    1.10    1.50
  -8  -1  -7    2.26    1.33
   8  -7  -1    0.11    1.24
  -7   8   1    0.03    0.85
   1  -8  -7    2.29    1.97
   1   8   7    0.10    0.51
  -7   1  -8    1.53    1.58
   7   1   8   -0.67    0.62
  -1   7   8    0.49    0.47
  -1  -7  -8    1.25    1.76
   1   8  -7   -0.54    0.92
  -1   7  -8    0.52    1.36
  -7   8  -1    0.72    1.44
   1  -7  -8    1.57    1.55
   7  -1   8    0.62    0.87
  -8   1  -7    0.01    1.17
  -7  -1  -8    0.50    1.54
   1   7   8    0.75    0.51
  -7   1   8   -0.23    0.58
   7   8   1   -0.29    1.38
  -8   7   1    0.39    0.79
   8   1   7    0.54    0.71
   8  -7   1    1.38    1.31
  -8  -1   7    2.51    2.05
  -1   8   7   -0.41    0.54
   8  -2   7   11.98    1.94
  -2   7   8    7.75    1.24
  -7   2  -8    8.74    2.05
  -8  -2  -7    8.34    1.89
   2  -8  -7   10.40    2.38
   2   8   7    8.45    1.29
  -8   7  -2    9.20    1.63
   2   7  -8    8.67    1.63
   7   2   8    7.66    1.26
   8   7   2    6.38    1.72
   8  -7  -2   14.35    2.07
  -8   2  -7    8.87    1.89
  -2   7  -8   13.16    2.46
  -7   2   8    8.21    1.36
  -7   8  -2   12.42    1.74
  -7  -2  -8    6.75    2.21
   8   2   7    9.55    1.46
   2   8  -7   10.82    1.92
   7   8   2    6.49    1.61
   2   7   8    7.40    1.22
  -8  -2   7    8.36    2.89
  -8   7   2   11.68    1.59
  -2   8   7    8.04    1.27
   7  -2   8    8.50    1.63
  -7   3  -8    2.26    1.60
   3   7  -8    3.71    1.08
  -3   7   8    3.24    0.82
   8   7   3    3.90    1.17
   3   8   7    3.92    0.81
  -8   7  -3    7.13    1.38
   8  -3   7    2.40    1.55
  -8  -3  -7    2.75    1.57
   7   3   8    2.73    0.76
   7   8   3    4.85    1.22
  -7  -3  -8    1.57    1.94
  -3   7  -8    6.88    2.29
  -3   8   7    4.00    0.94
  -8   3  -7    6.41    1.57
   8   3   7    2.92    0.93
   3   8  -7    4.77    1.28
   3   7   8    3.08    0.77
   7  -3   8    1.95    1.40
  -7   3   8    3.90    0.94
  -4   8  -7    1.39    1.70
   7   4   8    0.23    0.59
  -8   7  -4    1.18    1.05
   4   8   7    0.28    0.67
  -7   4  -8    0.41    2.01
   4  -7   8    2.40    2.69
   8  -4   7    3.52    1.96
  -4   7   8    1.37    0.78
   8  -7  -4    0.88    1.48
   7  -8   4    0.78    1.67
   8   7   4    0.80    0.92
   4   7  -8    0.46    0.71
  -4   7  -8    0.80    1.97
   8   4   7    0.62    0.67
   7  -4   8    0.53    1.83
  -7   4   8   -0.39    0.76
   7  -8  -4    0.82    1.25
   8  -7   4    0.49    1.64
  -8   4  -7    0.60    1.35
  -7  -4  -8    1.48    2.18
   4   7   8    0.72    0.63
  -7   8  -4    0.43    1.05
   7   8   4    1.06    0.92
  -4   8   7    0.48    0.85
   7   5   8    2.44    0.87
   8   7   5    3.39    1.05
   5   8   7    2.08    0.83
  -7   5  -8    3.95    1.90
  -8   7  -5    6.63    1.41
  -5   8  -7    7.17    1.96
   7  -8   5   10.87    2.56
   5  -7   8   10.94    3.59
   8  -5   7    6.14    2.42
  -5   7   8    2.09    1.01
  -7   5   8    3.88    1.07
   5   7   8    2.86    0.83
   8   5   7    3.31    0.97
   7   8   5    3.56    1.03
  -5   8   7    2.73    0.98
  -7   8  -5    6.69    1.52
  -7  -5  -8    5.82    2.89
  -8   5  -7    3.75    1.45
  -5   7  -8    6.68    2.19
   7  -5   8    5.40    2.58
   8   7   6   13.63    2.04
  -6   7   8   12.55    1.97
   6   8   7    8.73    1.57
   7   6   8   10.61    1.78
  -8   6  -7   16.97    2.60
  -7   6   8   16.31    2.09
   8   6   7   11.51    1.95
  -6   8   7   15.57    2.04
   6   7   8   12.74    1.83
   7   8   6   12.39    2.03
  -8   7  -7    1.69    1.66
  -7   7  -8    1.64    1.93
  -7   7   8   -0.02    1.15
  -7   8  -7   -0.30    1.75
  -7   8   7    0.08    1.24
   7   8   7    0.50    1.06
   8   7   7    1.84    1.14
  -8   0  -8  363.65   31.64
   0   8  -8  357.54   31.45
   0   8   8  371.83   30.85
   8   0   8  356.54   31.00
   8   8   0  412.40   31.38
  -8  -1  -8   -0.92    1.55
  -8   1  -8   -0.33    1.48
  -8   8  -1    0.32    0.87
  -8   8   1   -0.27    0.95
  -1   8  -8   -0.22    1.37
  -1   8   8    0.37    0.63
   1   8  -8   -0.34    1.49
   1   8   8    0.44    0.60
   8  -8  -1    0.79    1.33
   8  -8   1    1.50    1.41
   8  -1   8   -0.78    1.02
   8   1   8   -0.38    0.74
   8   8   1    0.55    2.00
  -8  -2  -8  157.03   14.16
  -8   2  -8  161.56   14.03
  -2   8   8  153.00   13.21
   2   8  -8  163.41   13.60
   2   8   8  154.27   13.18
   8  -2   8  153.38   13.62
   8   2   8  147.39   13.26
   8   8   2  163.78   13.74
  -8  -3  -8    0.04    1.94
  -8   8  -3    0.58    1.06
  -8   8   3    1.18    0.89
  -3   8  -8    2.79    3.23
  -3   8   8    0.82    0.83
   3   8  -8   -0.77    1.05
   3   8   8   -0.62    0.66
   8  -8  -3    2.11    1.39
   8  -8   3    1.73    1.84
   8  -3   8   -0.54    1.55
   8   3   8    0.07    0.78
   8   8   3    0.25    1.30
  -8  -4  -8  354.21   27.68
  -4   8   8  306.69   26.54
   4   8   8  304.21   26.45
   8  -4   8  290.94   27.23
   8   4   8  303.56   26.50
   8   8   4  352.99   26.72
  -8  -5  -8   -5.56    2.51
  -8   5   8   -1.32    1.17
  -8   8  -5   -0.82    1.32
  -5   8   8    0.94    0.93
   5  -8   8    2.55    3.00
   5   8   8   -0.73    0.77
   8  -8   5   -0.18    2.01
   8  -5   8    0.37    2.74
   8   5   8   -1.10    0.82
   8   8   5    0.22    1.10
  -9   0   0    1.64    0.42
   0   0  -9    0.05    0.69
   0   0   9    0.60    0.53
   0   9   0    1.01    1.10
   0   9   0    4.74    1.19
   9   0   0    1.91    0.63
  -9   0   1    1.79    0.41
  -1   9   0    1.89    1.15
   0  -1  -9    0.65    0.61
   0  -1   9    1.20    0.42
   0   1  -9    0.65    0.76
   0   1   9    0.82    0.32
   1  -9   0    0.22    0.88
   1   9   0    1.63    0.97
   9   0  -1    2.29    0.69
   9   0   1    2.07    0.70
   0   9  -1    2.27    1.14
   0   9   1    0.90    0.98
   0   9   1    1.93    0.76
   1   0  -9    0.94    0.42
   1   0   9    0.61    0.37
   9  -1   0    0.72    0.57
   9  -1   0    0.85    0.68
   9   1   0    0.93    0.69
   0  -9  -1    1.60    0.76
  -9  -1   0    1.33    0.40
  -1   0  -9    1.25    1.18
  -1   0   9    0.76    0.31
   9  -1  -1    0.47    0.63
  -1  -1   9    0.08    0.28
  -1   1  -9    0.79    1.10
  -1   1   9   -0.10    0.26
  -1   9  -1    0.59    1.15
   1   1   9    0.57    0.35
   1   9  -1    0.15    0.89
   1   9   1   -0.86    0.68
   9  -1  -1   -0.31    0.54
  -9  -1   1    0.21    0.30
  -9   1  -1    0.35    0.64
  -1  -9  -1    1.00    0.74
   1  -1  -9   -0.03    0.28
   1  -1   9   -0.16    0.34
   1   1  -9    0.14    0.40
   9  -1   1    0.02    0.70
   9   1   1   -0.08    0.57
  -1  -1  -9   -0.33    1.05
  -1  -1   9   -0.10    1.35
  -1   9   1   -0.36    0.84
   9   2   0   40.38    3.36
   0   2  -9   34.08    3.49
   0   2   9   34.07    3.00
   2  -9   0   40.38    3.71
   9   0   2   35.90    3.34
  -9   2   0   35.42    3.36
   0  -2  -9   32.62    3.15
   0  -2   9   29.02    5.09
   0   9  -2   41.01    4.03
  -2   0   9   33.42    2.95
   0  -9  -2   28.94    3.23
   9  -2   0   37.51    3.39
   2   0   9   32.96    3.07
   2   0  -9   33.90    2.96
   0   9   2   29.95    3.32
   2   1   9    5.35    0.80
   1  -9  -2    4.19    1.04
  -2  -1   9    4.29    0.64
   1   9   2    5.18    1.13
   2  -1  -9    4.40    0.55
  -9  -2   1    5.86    0.73
  -1   9  -2    9.72    1.86
  -1   2   9    6.08    0.71
  -9   2  -1    7.21    1.27
  -2   1  -9    4.59    1.94
   1   2  -9    4.32    0.87
  -2  -1   9    3.42    1.62
   9   2   1    7.37    1.05
  -1  -2  -9    3.79    1.41
   1  -2   9    8.17    2.65
   1  -2   9    4.73    0.81
   9  -1   2    5.83    1.10
   9  -2  -1    6.50    1.05
  -1  -2   9    5.03    0.83
  -9   1  -2    6.20    1.16
  -1   9   2    4.78    0.99
   2   1  -9    4.03    0.72
  -9   2   1    7.08    1.13
  -2  -1  -9    2.13    1.91
   2  -1   9    3.86    0.75
   9   1   2    6.80    1.03
   1   2   9    3.86    0.66
   2  -9  -1    4.78    1.21
   2   9   1    4.80    1.11
  -1   2  -9    4.52    1.42
  -1  -2   9    7.47    2.56
   9  -2   1    4.13    0.98
   9  -2   1    5.87    1.22
  -9  -1   2    5.38    0.73
   1   9  -2    5.71    1.49
  -2   1   9    4.94    0.64
   2   9  -2   -0.44    0.83
   2   2  -9    0.12    0.38
   2   2   9    0.45    0.35
  -2  -2   9    1.64    2.39
  -2  -2   9    0.09    0.34
  -2   2  -9   -0.10    1.57
  -2   2   9   -0.23    0.24
  -2  -2  -9    0.68    1.84
  -2   9   2   -0.71    0.81
  -2   9   2    0.39    0.66
   2  -2   9   -0.03    0.48
  -9  -2   2   -0.05    0.28
  -9   2  -2    0.52    0.71
  -9   2   2    0.25    0.64
   9   2   2   -0.14    0.60
  -2   9  -2   -0.07    1.01
   9  -2   2   -0.60    0.83
   2   9   2    0.17    0.71
  -3   0   9    5.84    1.38
  -3   0  -9    3.48    2.50
   0   9   3    6.25    1.18
   3   0   9    7.94    1.04
   9  -3   0    6.49    1.35
   9   3   0    8.76    1.32
  -9   3   0    5.92    1.15
   0   3   9    6.56    0.87
   3  -9   0    4.88    1.60
   3   9   0   13.05    1.97
   9   0   3    9.10    1.48
   0   3  -9    8.29    1.46
   0  -9  -3    7.60    1.29
   0   9  -3    8.49    2.61
   0  -3  -9    5.89    1.01
   0  -3   9   15.97    3.99
   0  -3   9    7.31    1.24
  -3   0   9    7.71    0.76
  -1   3   9    1.70    0.61
   1  -9  -3    1.56    0.76
   9  -3  -1    2.90    0.85
   9  -3  -1    0.61    0.87
   3   1   9    2.21    0.54
  -3  -1   9    1.54    0.32
   9   3   1    0.85    0.78
   9  -1   3    1.30    0.92
  -9  -3   1    0.84    0.40
  -9   3  -1    0.45    0.69
  -1  -3  -9    1.61    1.12
  -3   1  -9    3.17    2.12
   1   3  -9    1.52    0.69
   1   9   3    1.85    0.80
  -3  -1   9    1.45    1.60
  -3   9   1    1.15    1.11
   1  -3   9    1.87    0.72
  -1   9  -3    1.76    1.77
  -1  -9  -3    1.82    0.72
  -1  -3   9    1.60    0.62
   9  -3   1    0.59    0.78
   9  -3   1    0.72    1.01
   3   1  -9    1.77    0.38
  -9  -1   3    1.37    0.41
  -9   1  -3    0.60    1.34
  -3   9  -1    0.77    1.15
  -3   1   9    1.71    0.32
   9   1   3    1.44    0.69
  -9   3   1    0.56    0.66
  -3  -1  -9    0.91    2.32
  -1   3  -9    2.56    1.37
  -1   9   3    1.01    0.70
  -1  -3   9    5.44    3.43
   1   9  -3    1.31    1.17
   1   3   9    1.45    0.40
   3  -1   9    1.43    0.56
   3   9   1    0.13    0.81
   3  -9  -1   -0.59    1.14
  -9   3  -2    3.09    0.92
   9  -2   3    2.13    1.06
   3   2   9    3.60    0.75
  -2   9  -3    4.68    2.38
  -9   2   3    2.27    0.82
   2   9   3    2.95    0.91
  -3  -2   9    3.54    0.51
  -9  -3   2    4.13    0.62
   2  -9  -3    3.00    1.02
   2   3  -9    3.57    0.72
  -3   9   2    5.23    1.08
  -3  -2   9    2.17    2.50
  -2   3   9    3.35    0.51
   9   3   2    4.90    0.94
  -2  -3  -9    2.08    2.04
   9  -3  -2    4.59    0.66
   2  -3   9    3.21    0.88
  -3   2  -9    5.13    2.57
  -2   9   3    3.11    0.89
  -9   2  -3    2.20    0.97
   9  -3   2    2.88    1.21
   9   2   3    1.97    0.75
   2   9  -3    2.46    1.13
  -2  -3   9   -0.04    3.46
  -2  -3   9    2.90    0.70
  -2   3  -9    3.94    2.02
   3   9   2    2.64    0.99
  -9  -2   3    2.07    0.45
  -9   3   2    3.45    0.84
   2   3   9    2.61    0.60
   3  -9  -2    2.75    1.30
  -2  -9  -3    2.77    0.86
   3   2  -9    3.72    0.60
  -3   2   9    3.15    0.54
  -3  -2  -9    3.07    2.55
   9  -3   2    4.13    1.13
   3  -2   9    3.70    0.83
   9  -3   3   -0.85    1.07
  -3   9   3   -0.02    0.71
  -3   9   3    0.42    0.65
  -3   9  -3    0.35    1.13
   3   3  -9   -0.09    0.40
  -3   3   9    0.38    0.32
   3   9   3    0.84    0.74
  -9  -3   3    0.45    0.32
  -9   3  -3    0.03    0.80
  -9   3   3    0.23    0.63
  -3  -3  -9   -1.83    2.32
  -3  -3   9   -3.47    3.18
  -3   3  -9    1.21    2.13
   3  -9  -3    0.44    1.17
   9   3   3   -0.16    0.64
   3   3   9    0.26    0.37
   0  -4  -9    0.56    0.35
  -4   9   0    1.35    0.97
   0   4  -9    1.05    0.97
   0   4   9    0.46    0.37
   4   9   0    0.62    1.09
   9   0   4   -0.72    0.72
  -9   4   0    0.58    0.67
  -4   0  -9   -2.51    2.06
  -4   0   9    1.94    0.90
  -4   0   9    0.62    0.24
   0  -9  -4    0.44    0.71
   0   9  -4   -0.39    0.91
   0  -4   9    0.86    0.81
   4   0   9    0.06    0.46
   9  -4   0    1.34    0.99
  -9   0   4    0.28    1.08
   9  -4   0    0.35    1.02
   9   4   0    0.87    1.12
  -9   0  -4    0.95    0.93
   0   9   4    0.48    0.67
   1   4  -9    4.41    1.01
   1  -4   9    5.38    1.64
  -1  -4  -9    2.43    1.26
   9  -1   4    2.08    1.07
  -1  -4  -9    5.23    1.27
   1  -9  -4    2.82    0.93
  -9   4  -1    6.18    1.14
   1   9   4    4.11    0.97
  -1   9  -4    4.29    1.35
  -4  -1   9    5.49    1.83
  -4  -1   9    4.78    0.54
  -4   1  -9    4.68    2.52
  -1   4   9    4.52    0.70
   4   1   9    4.77    0.75
   9   4   1    7.53    1.30
   9  -4  -1    8.21    1.43
  -9   4   1    5.15    0.98
  -1   4  -9    4.72    1.63
  -4  -1  -9    5.31    2.62
  -9  -1   4    2.78    1.24
  -9  -1   4    2.92    0.58
  -1   9   4    2.35    0.90
   9  -4   1    8.04    1.53
   4  -1   9    4.74    0.86
   4  -9  -1    4.19    1.74
   9   1   4    2.27    0.94
   1   9  -4    3.43    1.23
  -4   1   9    4.90    0.57
  -1  -9  -4    2.46    0.85
  -9   1  -4    3.26    1.13
   4   9   1    3.86    1.22
   2  -9  -4    0.32    1.03
   4   2   9    0.99    0.46
   9  -4  -2    1.61    0.66
   9  -4  -2    1.34    1.04
   9   4   2    2.00    0.89
  -2  -4  -9    2.39    2.11
   9  -2   4    1.13    1.11
   2  -4   9    0.76    0.97
  -4  -2   9   -4.71    2.26
  -9   4  -2    1.80    1.21
  -4   2  -9    1.65    2.50
  -4  -2   9    1.10    0.34
  -2  -4  -9   -0.33    1.05
   2   9   4    0.86    0.66
  -2   4   9    1.28    0.40
  -2   9  -4    1.43    1.24
   2   4  -9    0.90    0.65
  -9  -4   2    1.98    0.48
  -4   9   2    3.56    1.02
  -9   2   4    0.67    0.73
   2   4   9    0.90    0.44
  -4   2   9    0.88    0.34
  -2  -9  -4    0.97    0.73
  -9   4   2    1.30    0.72
  -2   9   4    0.01    0.63
  -9  -2   4    1.75    0.38
  -9   2  -4    0.13    0.92
  -4  -2  -9   -0.81    2.53
  -4   9  -2    4.17    1.69
   4  -9  -2    3.66    1.73
   4   9   2    0.51    0.89
   2   9  -4    0.96    0.95
  -2   4  -9    0.84    2.38
   4  -2   9    0.65    0.66
   9   2   4    0.39    0.67
  -9   3   4    3.89    0.91
   3  -9  -4    6.47    1.53
  -4   9   3    7.82    1.31
   3   9   4    3.73    1.00
  -4   3  -9   14.23    3.07
   3   4  -9    5.82    0.93
   9  -3   4    3.44    1.40
   4   3   9    4.36    0.78
   3  -4   9    5.16    1.33
  -9   4  -3    6.04    1.26
  -4  -3   9    7.34    3.20
  -9  -4   3    5.32    0.80
  -3   4   9    5.57    0.82
  -3  -4  -9    1.45    2.65
  -3  -4  -9    6.65    1.36
   9   4   3    7.11    1.15
  -9  -3   4    5.35    0.75
   9  -4   3    7.63    1.67
   3   4   9    4.54    0.79
  -9   3  -4    3.93    1.16
   4  -3   9    5.89    1.36
  -3   9   4    5.54    1.09
  -3   4  -9   11.31    2.78
  -4   3   9    5.59    0.77
  -9   4   3    8.04    1.24
  -4  -3  -9    1.37    2.80
   9   3   4    4.93    0.99
   4   9   3    5.85    1.14
   4  -9  -3    7.86    1.96
  -4   4  -9    1.33    2.07
  -4  -4  -9   -1.07    2.70
   4  -4   9    0.31    1.24
  -9   4   4    0.49    0.67
  -4   9  -4    0.04    1.26
   4   4   9   -0.46    0.42
   9   4   4   -0.21    0.75
  -9   4  -4    0.37    0.94
  -9  -4   4   -0.19    0.38
  -4   4   9    0.53    0.41
   4   9   4    0.74    0.80
   9  -4   4    0.13    1.34
  -4   9   4    0.35    0.72
  -5   0   9    1.95    1.13
  -5   0   9    2.62    0.43
  -9   5   0    0.88    0.80
  -9   0  -5    1.49    1.13
   0   5  -9    1.82    1.18
   0   5   9    2.01    0.52
   0  -5  -9    2.25    1.34
   0  -9  -5    1.64    0.84
   0   9  -5    2.49    1.14
   0   9   5    3.21    0.86
   5   0   9    1.51    0.63
   9  -5   0    2.99    1.19
   9  -5   0    1.99    1.29
   9   5   0    1.65    1.42
  -5   9   0    4.47    1.18
   5   9   0    3.01    1.49
  -9   0   5    0.05    1.21
   9   0   5    2.88    1.01
  -5  -1   9    0.15    0.24
  -9   5  -1   -0.95    0.73
  -9   1   5   -0.83    1.11
   9   5   1    1.30    1.16
  -5   9   1    0.43    0.85
   9  -5  -1   -0.17    0.91
   1  -9  -5   -0.01    0.84
   5   1   9    0.05    0.46
   1   9   5    0.44    0.69
  -5   1  -9    1.14    2.00
  -1  -5  -9   -0.17    0.38
  -1   9  -5   -0.52    1.09
  -1  -5  -9   -0.45    1.16
  -1  -5  -9    0.87    1.15
   9  -1   5   -0.12    1.02
   9  -5  -1   -0.78    1.13
  -5  -1   9   -1.69    1.80
  -9  -1  -5   -0.73    0.93
  -5  -1  -9    3.40    2.21
   5  -1   9   -0.11    0.61
   5  -9  -1    2.12    2.03
   9  -5   1    2.23    1.56
  -5   9  -1   -0.79    0.95
  -9   5   1   -0.59    0.67
  -1   9   5    0.04    0.65
   9   1   5    0.05    0.72
  -9  -1   5    0.52    1.32
  -9   1  -5    0.16    0.85
  -5   1   9   -0.11    0.25
  -1  -9  -5    0.39    0.70
   5   9   1   -1.46    1.91
  -1   5  -9   -0.08    1.29
   1   5   9   -0.43    0.38
   1   9  -5   -0.30    0.88
   9   5   2   12.94    2.02
  -2  -5  -9    7.20    2.57
  -9   5  -2   13.14    1.78
  -2   5   9   13.09    1.34
   9  -2   5   10.92    1.95
  -9   2   5   12.47    1.62
  -2  -5  -9   16.38    2.38
  -5   2  -9   12.42    2.84
   5   2   9   12.99    1.45
  -5  -2   9   13.87    3.19
   2   9   5   12.08    1.66
   2  -5   9    8.29    2.03
   2   5   9   11.14    1.37
  -5   2   9   12.43    1.23
   5  -2   9   12.84    1.81
   9   2   5   12.87    1.75
  -2   9   5   10.38    1.73
   2   9  -5    8.55    1.75
   5   9   2   11.55    1.84
  -2  -9  -5   14.03    1.68
  -9   2  -5    9.92    1.87
  -9   5   2   10.76    1.63
  -5  -2  -9   10.45    3.31
  -2   5  -9   19.06    3.27
   3  -5   9    1.48    1.44
   9  -3   5   -0.49    1.28
   3   5  -9    0.44    0.74
   9  -5  -3    0.97    0.99
  -3   9  -5    1.68    1.39
  -5  -3   9    5.27    3.32
  -9   3   5   -0.38    0.63
   5   3   9   -0.21    0.47
  -5   9   3    1.07    0.69
  -3  -5  -9   -1.65    2.41
   9   5   3    1.83    0.93
  -3   5   9    0.27    0.43
  -5   3  -9    3.09    2.19
  -9   5  -3    0.27    0.82
  -9  -5   3    0.77    0.50
   3   9   5   -0.33    0.65
   9   3   5    1.26    0.80
   3   5   9    0.75    0.47
  -5   3   9    0.71    0.42
   5   9   3    0.37    0.88
  -9   5   3   -0.37    0.66
  -5   9  -3    1.30    1.09
   3   9  -5   -0.02    0.84
   9  -5   3    1.53    1.39
  -3   5  -9    0.12    2.02
  -5  -3  -9   -0.85    2.55
  -9   3  -5    0.75    1.04
   5  -3   9    0.88    1.00
  -3   9   5    0.70    0.67
  -9   5  -4    1.46    0.97
   9  -4   5    3.62    1.70
   4   5  -9    2.94    0.75
  -5   9   4    1.74    1.00
   5   4   9    1.82    0.63
  -4  -5  -9    3.63    2.94
  -4   5   9    2.77    0.65
   4  -5   9    3.98    1.91
   9   5   4    1.37    0.91
   4   9   5    1.53    0.83
  -4   9  -5    2.81    1.63
  -5   4  -9    4.59    2.24
  -9   4   5    0.61    0.69
  -5   9  -4    2.53    1.42
  -9   5   4    1.58    0.78
  -5  -4  -9    3.40    2.63
   5   9   4    2.11    0.98
  -9   4  -5    2.69    1.13
   5  -4   9    3.31    1.54
   4   5   9    1.72    0.60
   9  -5   4    3.96    1.81
  -4   5  -9    4.70    2.39
  -5   4   9    2.12    0.65
   9   4   5    1.68    0.91
  -4   9   5    0.79    0.87
  -9   5  -5   -0.21    1.08
  -5   9   5    0.54    0.87
  -5  -5  -9    3.51    4.31
   5   9   5    0.28    0.84
   9  -5   5    0.20    1.85
  -5   5   9   -0.03    0.63
  -5   9  -5    0.12    1.36
   5   5   9    0.03    0.59
   9   5   5    0.32    0.90
   5  -5   9   -1.15    1.96
   9   0   6    4.69    1.29
  -9   0  -6    4.99    1.45
   0   9  -6    6.25    1.56
  -9   6   0   10.16    1.55
   0   9   6    6.37    1.20
  -6   0   9    7.85    0.79
   6   0   9    6.22    1.12
   9   6   0    6.85    1.89
   0   6  -9    6.80    1.66
   0   6   9    7.27    1.08
  -6   0  -9    6.56    2.42
  -6   1  -9    4.34    2.20
   9  -1   6    2.79    1.23
  -9  -1  -6    1.34    1.18
   1   9   6    3.34    0.89
  -1   9  -6    7.89    1.86
  -1   6   9    3.51    0.68
   1   6  -9    3.01    1.12
  -1  -6  -9    5.03    2.29
  -9   6  -1    3.31    1.06
   6   1   9    2.81    0.75
  -1  -6  -9    3.24    1.32
   9   6   1    3.26    1.65
   1   6   9    3.29    0.69
  -9   1  -6    3.26    1.32
  -6   1   9    3.91    0.58
   6   9   1    2.97    1.79
   9   1   6    2.61    1.01
  -1   6  -9    4.83    1.73
  -9   6   1    4.32    1.01
  -1   9   6    3.64    0.92
   1   9  -6    2.69    1.27
  -6  -1  -9    1.40    2.24
   6  -1   9    3.53    0.99
  -9  -1   6    3.53    2.30
   2   9   6    9.52    1.40
   2   6  -9    7.32    1.42
   9  -2   6    7.20    1.78
  -9  -2  -6    5.74    1.69
   6   2   9    4.78    0.95
   9   6   2   10.05    1.70
  -9   2   6    7.43    1.11
  -6   2  -9    5.09    2.24
  -2  -6  -9    6.29    2.39
  -9   6  -2    8.03    1.38
  -2   6   9    6.46    1.04
  -2   9   6    5.57    1.18
   6  -2   9    6.53    1.30
  -6   2   9    7.80    1.10
   2   6   9    6.48    1.09
   2   9  -6    6.03    1.44
   6   9   2    6.84    1.59
  -2   6  -9    9.30    2.49
   9   2   6    5.38    1.18
  -9   2  -6    4.44    1.38
  -6  -2  -9    3.98    2.63
   3   9   6    1.39    0.76
   9  -3   6    0.80    1.60
   6   3   9    1.15    0.60
  -3   6   9    1.22    0.59
   3  -6   9    0.74    2.06
   3   6  -9    1.66    0.85
  -3   9  -6    2.30    1.57
  -9   6  -3    0.32    0.90
  -6   3  -9    1.36    2.18
  -3  -6  -9    2.89    2.67
   9  -6  -3    2.06    1.37
  -6   9   3    0.47    0.75
   9   6   3    1.44    1.14
   6   9   3    0.46    1.07
  -3   6  -9    2.13    2.10
  -6  -3  -9    0.38    2.50
  -9   3  -6    1.63    1.20
   3   9  -6    0.83    0.93
  -3   9   6    0.79    0.85
   9   3   6   -0.43    0.75
   3   6   9    0.94    0.53
   9  -6   3    2.23    1.67
  -9   6   3    1.97    0.87
  -6   3   9    1.66    0.66
  -6   9  -3    1.30    1.03
   6  -3   9    0.88    1.33
   4   6  -9    1.27    0.72
   6   4   9   -0.94    0.54
   9  -4   6    1.59    1.86
   9   6   4    0.67    0.98
  -9   6  -4    0.57    1.07
  -4  -6  -9   -0.32    2.91
  -4   6   9    0.49    0.67
  -4   9  -6    0.28    1.48
   4  -6   9    0.47    2.22
   4   9   6    1.04    0.82
   9   4   6    0.22    0.92
   9  -6   4    3.29    1.93
   6  -4   9    0.86    1.67
   4   6   9    0.19    0.60
  -6   4   9    0.83    0.80
  -9   4  -6    0.00    1.10
  -4   9   6    1.18    0.80
  -6   9  -4    0.59    1.13
  -6  -4  -9    3.98    2.84
   6   9   4    0.29    1.01
  -6   9   5    6.82    1.41
  -5  -6  -9    0.73    3.43
   9   6   5    4.14    1.26
   9  -5   6    7.85    2.70
   6   5   9    2.68    0.87
   5  -6   9   10.12    2.94
  -9   6  -5    4.94    1.33
   5   9   6    3.90    1.16
  -5   6   9    3.07    0.99
  -9   5  -6    5.14    1.50
  -5   9   6    5.50    1.18
  -6  -5  -9    0.79    3.15
   6   9   5    4.20    1.22
   6  -5   9    3.79    2.48
  -6   9  -5    5.88    1.64
   9  -6   5    7.98    2.40
   9   5   6    3.92    1.18
   5   6   9    2.33    0.81
   6  -6   9   -0.71    3.01
   6   9   6    1.14    1.09
   9  -6   6   -0.25    2.39
  -6   9  -6    1.24    1.56
  -6  -6  -9    2.06    3.96
   6   6   9    0.42    0.78
   9   6   6   -0.17    1.06
  -6   6  -9    1.22    2.16
  -6   6   9   -1.02    0.97
  -9   6  -6    0.73    1.26
  -9   7   0    5.72    1.20
  -7   0  -9    5.92    2.25
   7   0   9    5.27    1.13
   9  -7   0    9.14    1.80
   7   9   0    8.47    2.24
   9   0   7    4.05    1.34
  -9   0  -7    6.52    2.63
   0   9  -7    6.94    1.79
   0   7  -9    4.37    1.57
   0   7   9    3.89    0.87
   0   9   7    5.48    1.06
  -1   7   9    0.41    0.56
   1   7  -9    0.10    1.19
  -7   9   1    0.04    0.95
   9   7   1    0.82    2.12
   9  -1   7    0.01    1.14
  -9  -1  -7    0.32    1.28
   1   9   7    0.48    0.75
   9  -7  -1    0.30    1.37
  -7   1  -9    1.31    1.99
  -9   7  -1    0.68    0.87
  -1   9  -7    1.57    1.44
   7   1   9   -0.43    0.71
   7   9   1   -0.84    1.69
  -9   1  -7   -0.59    2.00
  -9   7   1    0.54    0.86
   9   1   7    0.07    0.99
   9  -7   1    3.05    1.60
   1   7   9    0.31    0.61
  -1   9   7   -0.09    0.72
  -7   9  -1    0.46    1.01
   7  -1   9   -0.04    0.88
  -1   7  -9    0.82    1.46
  -7  -1  -9    0.33    2.16
   2   7  -9    1.32    1.08
   2   9   7    2.20    0.81
  -9   7  -2    2.64    1.09
   9   7   2    2.41    1.70
  -7   2  -9    1.29    1.92
   9  -2   7    2.89    1.64
  -2   9  -7    5.58    1.82
   7   2   9    1.03    0.72
  -7   9   2    4.84    1.14
   9  -7  -2    5.82    1.66
  -2   7   9    2.16    0.86
   9  -7   2    7.57    1.87
  -9   7   2    4.14    1.13
   2   9  -7    2.12    1.30
   7  -2   9    0.95    1.25
  -7  -2  -9    3.82    2.44
   7   9   2    2.67    1.62
   9   2   7    3.28    1.08
  -9   2  -7    2.43    1.38
  -7   9  -2    3.79    1.16
   2   7   9    1.61    0.71
  -2   9   7    2.89    0.95
  -3   9  -7    4.04    1.84
  -9   7  -3    4.90    1.28
  -3  -7  -9    6.44    2.81
   9  -3   7    2.93    1.92
  -9  -3  -7    1.85    1.76
   7   3   9    3.37    0.86
   3   9   7    1.92    0.95
   9   7   3    5.08    1.53
  -3   7   9    4.38    0.93
  -7   3  -9    4.25    2.24
   3   7  -9    5.50    1.28
   3  -7   9    9.71    2.92
  -3   9   7    2.84    1.04
  -7   9  -3    4.39    1.29
  -7  -3  -9   -0.28    2.64
  -9   3  -7    3.34    1.36
   7  -3   9    1.28    1.50
   3   7   9    3.53    0.85
   7   9   3    3.10    1.52
   9  -7   3    5.73    1.99
  -9   7   3    5.87    1.12
  -4  -7  -9   -3.56    3.19
  -4   9  -7    3.77    1.86
  -9   7  -4    0.67    1.11
   9   7   4    1.47    1.29
  -9  -4  -7    2.92    2.07
   7  -9   4    3.66    1.88
   9  -4   7    5.05    2.32
   7   4   9    0.94    0.77
   4  -7   9    4.77    3.23
   4   9   7    1.09    0.84
  -4   7   9    2.50    0.91
  -4   9   7    0.86    0.93
   7  -4   9    3.27    2.01
  -7   9  -4    1.97    1.30
  -7   4   9    1.16    1.05
   9   4   7    0.95    1.00
   9  -7   4    2.96    2.07
  -9   4  -7    1.38    1.47
  -7  -4  -9    2.75    2.94
   7   9   4    1.17    1.31
   4   7   9    1.04    0.77
   7   5   9   -0.22    0.78
   5  -7   9    2.43    3.42
  -5  -7  -9   -4.35    3.80
  -5   9  -7   -0.07    1.81
  -7   5  -9    0.23    1.97
  -9   7  -5    1.08    1.32
   9   7   5   -1.00    1.24
   5   9   7    0.18    0.95
  -5   7   9    0.08    1.00
   9  -5   7    2.74    2.59
   7  -9   5    0.17    1.98
  -7   5   9   -0.09    0.98
   9   5   7   -0.44    1.07
   7  -5   9    5.43    2.82
  -9   5  -7    0.13    1.41
  -7   9  -5    0.55    1.31
  -5   7  -9   -1.21    2.20
   5   7   9    0.14    0.73
  -5   9   7   -1.33    0.92
  -7  -5  -9   -3.01    3.38
   9  -7   5    2.05    2.37
   7   9   5    0.47    1.14
   0   9   8    5.11    1.18
   9   0   8    3.27    1.40
   0   8   9    6.77    1.09
  -8   0  -9    9.34    2.64
   0   9  -8    6.29    2.09
   0   8  -9    8.26    2.12
   8   0   9    5.04    1.33
  -8   1  -9    1.69    2.16
   9  -8  -1    2.35    1.57
   8  -9   1   -0.48    1.52
  -8   9   1    0.29    1.24
  -9  -1  -8   -0.44    1.80
   1   9   8    0.53    0.76
  -1   8   9    0.06    0.71
   9   8   1   -3.89    3.00
  -9   8  -1    0.66    1.02
   8   1   9    0.56    0.90
   1   8  -9    0.26    1.33
   9  -1   8    2.07    1.45
   8  -9  -1   -1.29    1.40
  -8  -1  -9   -0.85    2.17
   8   9   1   -0.21    2.24
   1   8   9    0.75    0.71
   9   1   8    0.23    1.08
  -1   9   8   -0.31    0.84
  -1   8  -9    0.46    1.71
   9  -8   1    0.38    1.54
   8  -1   9   -0.91    1.09
  -9   8   1   -0.23    0.98
  -8   9  -1   -0.83    0.89
   2   9   8    6.49    1.23
   2   8  -9    8.12    1.74
   9  -2   8    5.94    2.04
   8   2   9    5.42    1.30
  -9  -2  -8    6.28    2.28
  -8   2  -9    6.54    3.40
   9   8   2    8.08    2.57
  -2   9   8    6.65    1.27
   2   9  -8    6.98    2.13
  -8  -2  -9    9.40    2.94
   2   8   9    5.45    1.12
   8   9   2    8.68    2.47
   9   2   8    6.28    1.41
  -9   8   2   10.66    1.80
  -9   2  -8    6.85    2.86
  -8   9  -2    9.08    1.54
   8  -2   9    7.01    1.92
   9  -3   8    2.84    2.16
   3   8  -9    0.42    1.25
  -9  -3  -8    0.86    2.24
  -9   8  -3    1.57    1.08
   9   8   3    0.76    1.89
  -3   8   9    1.46    0.92
   3   9   8    0.54    0.89
   8   3   9    1.00    0.90
   8  -9   3    1.26    1.84
  -3   8  -9    6.01    2.81
   8   9   3    4.20    1.89
  -8   9  -3    2.32    1.21
  -8  -3  -9    0.63    2.68
  -3   9   8    0.81    0.99
   9   3   8   -0.93    1.03
   8  -3   9    3.86    2.10
   8  -9  -3    2.15    1.63
   3   8   9    0.60    0.80
   9  -8   3    0.72    1.79
  -8   4  -9    1.71    2.06
  -4   8   9    1.81    1.15
   4  -8   9    3.05    3.36
   8  -9   4    2.23    2.24
   9   8   4    2.30    1.62
  -9   8  -4    0.36    1.21
  -4   9  -8    3.56    2.29
  -9  -4  -8    1.99    2.55
  -8   9  -4    0.96    1.26
   9   4   8    0.01    1.19
  -8  -4  -9    3.69    3.24
  -4   8  -9    5.81    2.69
  -9   4  -8    0.05    1.72
  -4   9   8    0.52    1.05
   9  -8   4    5.28    2.35
   8   9   4    1.01    1.56
  -9   0  -9    7.23    2.61
  -9   9   0    7.76    1.43
   0   9  -9    5.36    2.08
   0   9   9    4.00    1.17
  -9  -1  -9   -0.94    2.37
  -9   1  -9    2.53    2.34
  -9   9  -1   -0.44    1.06
  -9   9   1   -0.90    1.19
  -1   9  -9    2.70    2.24
  -1   9   9   -0.22    0.94
   1   9  -9   -2.39    1.66
   1   9   9    0.21    1.06
   9  -9  -1   -0.14    1.67
   9  -9   1   -0.56    1.70
   0   0 -10  137.02   12.56
   0   0  10  137.65   12.37
   0  10   0  156.53   13.30
  10   0   0  167.15   12.66
  -1  10   0    6.34    1.70
   0  -1 -10    3.52    0.80
   0  -1  10    3.25    0.61
   0   1 -10    3.86    1.00
   0   1  10    2.78    0.56
  10   0   1    3.19    1.07
  -1   0 -10    1.99    1.27
  -1   0  10    3.16    0.55
   0  10  -1    2.81    2.25
   0  10   1    5.58    1.23
   1   0 -10    2.77    0.59
   1   0  10    2.83    0.59
  10  -1   0    5.31    0.90
  10  -1   0    3.41    1.10
  10   1   0    2.75    0.73
  10   1   0    5.33    1.16
 -10   1   0    3.74    1.05
  10  -1   1    3.72    1.04
  10  -1   1    1.82    1.04
  10   1   1    3.45    1.11
   1  -1  10    3.47    0.66
   1   1 -10    3.35    0.71
  10  -1  -1    4.04    0.90
   1  10  -1    2.49    1.36
   1  10   1    4.77    1.11
 -10   1  -1    2.87    1.04
  -1  -1 -10    4.29    1.30
  -1  -1  10    3.66    0.59
   1   1  10    2.82    0.74
  -1   1 -10    2.70    1.34
  -1   1  10    3.17    0.54
  -1  10   1    2.58    1.49
  -1  10   1    6.36    1.36
   1  -1 -10    3.37    0.54
  10   2   0  117.19   10.24
  10   2   0  123.13   10.48
  10   0   2  129.79   10.57
   0   2  10  123.79   10.21
 -10   2   0  110.86   10.50
  -2   0 -10  112.82   11.32
  -2   0  10  127.86   10.16
 -10   0  -2  126.05   10.66
   0  -2  10  118.34   10.26
   0   2 -10  120.92   10.58
   0  -2  10  126.05   11.63
   0  10   2  118.26   10.55
   2   0 -10  127.86   10.16
   2   0  10  114.92   10.38
  10  -2   0  130.76   10.58
   0  -2 -10  124.58   10.25
  10  -2  -1    1.31    1.00
 -10   2  -1    1.00    0.81
   1 -10  -2    0.39    1.15
   2   1  10    1.13    0.55
  -2  -1  10    0.51    1.54
  -2  -1  10    1.88    0.45
  -2   1 -10    1.45    1.93
   1   2 -10    0.57    0.62
  10  -2  -1    1.74    0.68
  10  -1   2    1.39    1.03
   1  10   2    0.41    0.76
  -2  10   1    1.21    1.31
  -1  -2 -10    1.17    1.07
   1  -2  10    1.33    0.58
  -1  10  -2    2.56    1.44
  -1   2  10    1.08    0.40
   2  -1 -10    1.37    0.29
  10   2   1    2.75    1.07
  -1  -2  10    0.48    2.42
  10  -2   1    0.58    1.08
   1  10  -2    1.54    1.40
 -10   1  -2    0.95    0.84
  10  -2   1    0.20    0.89
   2  -1  10    1.02    0.61
   2   1 -10    1.20    0.46
  -1  -2  10    1.72    0.52
 -10  -1   2    1.39    0.54
  -2  -1 -10    0.01    1.84
  -1   2 -10    1.49    1.33
  -1  10   2    1.91    0.82
 -10   2   1    0.51    0.79
  -2   1  10    1.12    0.38
   1   2  10    1.33    0.46
   2  10   1    1.68    0.96
  10   1   2    0.70    0.86
  -2  -2  10  208.13   16.40
   2  10   2  171.54   16.73
  10  -2   2  187.80   16.83
   2   2 -10  208.65   16.50
  -2   2 -10  198.33   17.61
  -2   2  10  200.49   16.38
   2 -10  -2  224.79   16.87
 -10   2  -2  181.58   16.78
 -10   2   2  198.11   16.67
   2   2  10  193.15   16.46
  10   2   2  202.78   16.69
  -3   0  10   54.19    4.42
  10  -3   0   58.34    5.12
  10   3   0   56.22    4.95
   0   3 -10   53.18    5.05
   0   3  10   50.93    4.51
  10   0   3   54.47    5.31
   0  -3 -10   52.63    4.45
   0  -3  10   49.79    4.65
 -10   0  -3   57.43    5.09
 -10   3   0   47.65    4.83
   0  10   3   46.21    4.83
   3   0  10   49.37    4.59
  -3   0 -10   51.99    6.95
   3   1  10   11.52    1.39
 -10   3  -1    9.12    1.81
  -3  -1  10   12.77    1.19
  -3   1 -10   15.49    3.56
  -3  -1  10    9.96    2.03
  -1  -3 -10   13.54    1.97
   1 -10  -3    7.81    1.61
  10  -1   3    9.75    1.85
   1  10   3    8.96    1.66
  10   3   1   14.96    2.29
  10  -3  -1   16.64    2.31
   1   3 -10   12.11    1.69
   1  -3  10   12.80    1.64
  -1   3  10   11.11    1.26
   1   3  10   10.79    1.32
   3   1 -10   12.76    1.24
  -3  -1 -10    6.96    3.15
   1  10  -3   10.77    2.12
  -3   1  10   12.48    1.19
   3  -1  10   12.10    1.54
 -10   1  -3   11.47    1.89
  10  -3   1   17.02    2.09
  10  -3   1   11.38    1.97
 -10   3   1    9.94    1.69
  -1  -3  10   12.69    1.50
  -1   3 -10   14.01    2.37
   3  10   1   12.81    2.14
 -10  -1   3   14.29    1.36
  -1  10   3   10.11    1.61
  -2   3  10    0.44    0.38
  -3   2 -10    2.92    3.14
   2  -3  10    0.25    1.08
   2  10   3   -0.53    0.80
 -10   3  -2   -0.40    0.81
  10  -2   3   -0.32    1.21
   3   2  10    0.05    0.45
  -3  -2  10   -0.77    2.58
 -10   2   3    0.82    0.83
   2 -10  -3    0.69    1.29
  -3  10   2    1.13    0.96
  -3  10   2    1.76    1.10
  -2  -3 -10    0.06    1.87
  10   3   2    0.82    0.98
  -2  10  -3    4.91    1.62
  -3  -2  10    0.67    0.39
   2   3 -10    0.28    0.56
  -3  10  -2    1.04    1.20
 -10   2  -3    0.08    0.85
   3  -2  10   -0.22    0.66
  -3  -2 -10   -0.94    2.59
  -3   2  10   -0.05    0.33
  -2   3 -10   -1.36    2.09
  -2  10   3    0.85    0.84
   3   2 -10    0.31    0.44
 -10  -2   3    0.88    0.47
  10  -3   2   -0.61    1.29
  -2  -3  10    0.43    0.52
   3  10   2   -0.94    0.87
 -10   3   2    0.73    0.75
   2  10  -3    0.08    1.06
   2   3  10    0.50    0.46
   3 -10  -2    0.03    1.57
  -3  10   3    7.14    1.29
   3  -3  10    4.84    1.13
   3   3 -10    5.77    0.90
   3   3  10    4.86    0.86
   3  10   3    5.75    1.36
 -10  -3   3    7.36    1.10
 -10   3  -3    5.07    1.36
 -10   3   3    5.30    1.07
  -3  -3 -10    3.79    2.88
  -3  -3  10    6.79    1.05
  -3  10  -3    9.54    1.91
  -3   3 -10   10.96    3.12
  -3   3  10    5.72    0.86
  10   3   3    4.87    1.26
  10  -3   3    5.33    1.67
   0   4 -10  220.89   19.51
   0  -4  10  223.19   18.97
  -4   0  10  241.56   18.66
   0 -10  -4  230.34   19.19
 -10   0  -4  225.61   19.28
  10   0   4  236.25   19.18
   0   4  10  235.28   18.93
  10   4   0  225.63   19.00
   0  10   4  201.48   19.04
   4   0  10  220.79   18.87
  10  -4  -1    4.47    1.54
   1  -4  10    4.31    1.79
  10   4   1    3.04    1.49
   1   4 -10    3.23    1.07
  -1   4  10    2.49    0.69
 -10  -1  -4    0.62    0.95
   1  10   4    2.29    1.01
  -4   1 -10    6.44    3.23
   4   1  10    2.34    0.68
  -1  -4 -10    1.28    0.97
  -4  10   1    4.19    1.21
 -10   4  -1    2.71    0.97
  -4  -1  10    3.44    0.57
  -1  10  -4    3.43    1.61
  10  -1   4    2.00    1.34
   1   4  10    2.20    0.58
  -4   1  10    2.71    0.48
  -1  10   4    2.45    0.93
  -1  -4  10    2.77    0.96
 -10   1  -4    1.54    1.05
  10  -4   1    3.25    1.50
  -4  -1 -10    2.99    3.13
  -4  10  -1    3.71    1.28
   1  10  -4    3.23    1.49
   4  10   1    2.26    1.22
   4  -1  10    2.44    0.81
  10   1   4    1.03    1.06
  -1   4 -10    2.55    1.64
 -10   4   1    2.76    0.91
  -4  -2  10  304.70   22.74
  10   4   2  308.81   23.23
   4   2  10  273.83   22.92
  10  -2   4  257.19   23.35
   2  -4  10  254.32   23.12
 -10   2   4  300.73   23.05
   2   4 -10  288.69   23.05
   2  10   4  268.68   23.17
 -10   4  -2  261.77   23.21
  -2   4  10  264.15   22.82
  -2  -4  10  286.19   22.96
 -10   4   2  276.66   23.08
   4  -2  10  272.31   23.06
  -4   2  10  290.64   22.78
  -2  10   4  258.39   23.11
   2   4  10  279.66   22.90
  10   2   4  286.27   23.16
 -10   2  -4  250.14   23.29
   4  10   2  256.64   23.25
   2  10  -4  275.97   23.52
  -4  10   3    9.87    1.61
 -10   4  -3    6.83    1.40
  10   4   3    7.48    1.48
  -4  -3  10    7.74    1.03
  -3   4  10    6.75    1.04
   3  10   4    7.27    1.43
   3   4 -10    7.38    1.30
   4   3  10    6.70    1.14
  -3  -4 -10    7.74    2.77
  10  -3   4    6.45    1.98
 -10   3   4    4.83    1.12
   3  -4  10    5.24    1.45
   4  -3  10    6.08    1.39
  10   3   4    6.34    1.37
 -10   4   3    6.55    1.22
 -10   3  -4    6.12    1.46
  -3  -4  10    7.93    1.16
   3   4  10    7.45    1.12
  10  -4   3   11.65    2.05
   4  10   3    6.05    1.48
  -4   3  10    8.13    1.00
  -3   4 -10   12.34    2.99
  -3  10   4    8.10    1.32
  -4  -3 -10    6.75    3.37
   4  -4  10  115.49   10.52
 -10   4  -4  110.22   10.47
  -4   4  10  127.25    9.98
   4   4  10  119.68   10.06
  10   4   4  123.73   10.34
 -10   4   4  115.71   10.12
   4  10   4  117.04   10.39
   0  10   5    0.36    0.82
   5   0  10    0.16    0.66
   0  10  -5    0.33    1.25
   0   5  10    0.35    0.55
   5  10   0   -0.49    1.74
 -10   5   0    0.96    0.82
 -10   0  -5   -0.52    0.99
  10  -5   0    1.51    1.40
  10   0   5    0.54    1.16
  -5   0 -10   -2.23    2.95
   0  -5  10    0.06    1.16
   0   5 -10   -0.08    1.08
  -5  10   0    0.60    1.23
 -10   5  -1    5.45    1.21
  10   5   1    5.88    2.08
 -10  -1  -5    2.61    1.28
  -5   1 -10   -0.32    2.86
   1  10   5    4.51    1.17
  10  -1   5    3.19    1.36
   1  -5  10    2.88    1.34
  -1   5  10    3.30    0.71
   1   5 -10    4.49    1.29
   5   1  10    3.92    0.87
  -1  10  -5    8.39    2.03
   1   5  10    4.04    0.76
 -10   5   1    4.84    1.16
  -1   5 -10    6.02    1.98
   1  10  -5    5.27    1.49
  -5   1  10    4.03    0.71
   5  10   1    5.62    1.63
  -5  -1 -10    3.44    3.17
  -1  10   5    3.25    1.04
  10   1   5    3.97    1.35
 -10   1  -5    3.56    1.33
   5  -1  10    4.73    1.09
   2   5 -10    0.39    0.88
 -10   5  -2   -0.72    0.87
   2  -5  10    0.36    1.36
   5   2  10    0.43    0.63
  -5   2 -10    0.73    2.78
  -5  10   2   -0.07    0.83
 -10  -2  -5   -0.29    1.16
   2  10   5    1.71    0.97
  -2  -5 -10    2.26    1.71
 -10   2   5    0.20    0.88
  10   5   2    1.23    1.39
  -2  10  -5    2.54    1.49
  10  -2   5   -0.69    1.45
  -2   5  10    0.91    0.51
  10  -5   2   -0.03    1.48
  -5  10  -2    1.53    1.19
   2   5  10    0.48    0.52
   5  10   2   -0.36    1.26
  -2  10   5   -0.59    0.73
   2  10  -5   -0.33    1.28
  -2   5 -10   -1.30    2.04
 -10   2  -5    0.23    1.09
 -10   5   2    0.03    0.82
  -5  -2 -10    3.04    3.23
  10   2   5   -0.81    0.97
  -5   2  10    1.08    0.46
   5  -2  10    1.03    0.95
   3   5 -10    6.80    1.27
 -10   5  -3    7.58    1.51
  -5   3 -10   14.30    3.70
  -3  -5 -10    4.12    2.81
   5   3  10    6.83    1.24
 -10   3   5    8.85    1.60
   3  10   5    7.58    1.38
  -3   5  10    7.63    1.17
   3  -5  10    6.40    1.87
  10  -3   5    7.63    2.19
  10   5   3    7.86    1.62
 -10   5   3    8.10    1.33
  -5  -3 -10    0.73    3.42
 -10   3  -5    8.76    1.70
   3   5  10    6.98    1.23
  10  -5   3   12.24    2.27
   5  -3  10    7.57    1.64
  -3  10   5    7.78    1.40
   5  10   3    8.65    1.67
  10   3   5    9.09    1.54
  -3   5 -10    9.98    3.13
  -5   3  10    8.00    1.16
  -4   5  10    6.28    1.02
   4  10   5    4.61    1.33
   5   4  10    6.55    1.06
   4  -5  10    4.59    2.06
  -5  10   4    6.92    1.44
  10   5   4    6.31    1.56
  10  -4   5    9.37    2.30
  -4  -5 -10   -0.81    3.24
 -10   5  -4    4.83    1.38
  -5   4 -10   15.27    3.73
  10   4   5    6.67    1.55
  -5  -4 -10    2.62    3.76
  -4  10   5    6.58    1.24
   5  -4  10    7.52    1.86
 -10   4  -5    5.08    1.42
  10  -5   4    9.55    2.28
   5  10   4    5.92    1.48
  -5   4  10    7.46    1.26
   4   5  10    6.08    1.01
  -5  10   5   15.81    2.26
   5  -5  10   10.29    2.59
   5   5  10    8.50    1.36
   5  10   5    9.86    1.74
 -10   5  -5   12.17    2.01
  10   5   5   11.37    1.90
  -5   5  10    8.56    1.41
  -5  -5 -10    7.35    4.01
   0   6 -10  146.15   11.62
   0   6  10  127.56   10.80
 -10   0  -6  122.53   11.44
  -6   0 -10  118.19   12.72
  10   0   6  134.94   11.32
 -10   6   0  129.82   11.04
   0  10   6  119.15   11.05
   6   0  10  125.18   10.97
   1  -6  10    2.75    1.73
  -1  10  -6    7.99    2.09
   1  10   6    4.35    1.09
  -1   6  10    3.02    0.75
  10  -1   6    4.11    1.61
  10   6   1    9.56    2.80
 -10  -1  -6    4.12    1.58
  -6   1 -10    2.00    2.98
  10  -6  -1    8.73    1.88
   6   1  10    1.91    0.89
   1   6 -10    3.36    1.33
 -10   6  -1    2.83    1.13
   6  10   1    4.73    1.86
   6  -1  10    2.97    1.12
  -1  10   6    4.56    1.19
 -10   6   1    5.32    1.63
  10   1   6    3.67    1.49
 -10   1  -6    1.86    1.46
  -1   6 -10    2.61    1.84
   1  10  -6    5.06    1.57
   1   6  10    3.33    0.75
  -6  -1 -10    4.15    3.14
   2  10   6  246.79   21.00
 -10   6  -2  267.19   21.12
  -2   6  10  254.06   20.76
   2   6 -10  291.69   21.18
  10  -2   6  226.45   21.35
   6   2  10  242.02   20.85
   2   6  10  257.99   20.79
 -10   2  -6  247.46   21.37
   6  -2  10  248.11   21.09
   6  10   2  247.72   21.31
   2  10  -6  248.59   21.47
  10   2   6  265.26   21.12
  -6  -2 -10  222.05   22.59
  -2  10   6  222.76   20.98
  -6   3 -10   12.62    3.32
  10   6   3    9.61    2.01
   3  10   6    8.76    1.55
   3   6 -10   10.12    1.56
 -10  -3  -6    9.09    2.36
 -10   6  -3    6.90    1.48
   6   3  10    8.17    1.42
  -3   6  10    7.51    1.18
   3  -6  10    5.92    2.93
  10  -3   6    8.11    2.44
   6  -3  10    7.57    1.96
  -6  10  -3   13.29    2.13
  10   3   6    9.32    1.71
  -6  -3 -10    2.56    3.85
   3   6  10    8.47    1.39
   6  10   3    6.88    1.91
  -3  10   6    8.99    1.43
  -3   6 -10   17.71    3.49
 -10   3  -6    9.57    1.99
   6   4  10  106.79    9.67
  10   6   4  125.22   10.14
 -10   6  -4  126.01   10.12
  -4   6  10  116.44    9.69
   4  -6  10  102.70   10.80
   4  10   6  113.97    9.91
  -4  -6 -10  127.02   12.65
   6  10   4  116.18   10.13
 -10   4  -6  113.05   10.25
   4   6  10  106.67    9.65
  -6  -4 -10   87.71   12.19
  10   4   6  117.50   10.00
   6  -4  10  111.99   10.50
  -4  10   6  108.48    9.84
   5  10   6    3.58    1.49
  -5  -6 -10    2.27    3.93
  -5   6  10    6.55    1.32
  10   6   5    5.02    1.68
  -5  10  -6    7.54    2.02
   5  -6  10    5.76    3.01
 -10   6  -5    8.15    1.71
  10  -5   6   11.44    2.89
  -6  -5 -10    5.50    4.62
 -10   5  -6    4.36    1.58
   6  -5  10    6.18    2.63
   6  10   5    3.87    1.61
  10   5   6    4.05    1.56
  -5   6 -10   13.28    4.15
  -5  10   6    3.93    1.36
   7  10   0    1.06    3.08
  -7   0 -10    6.01    3.00
 -10   7   0    2.73    1.09
  10   0   7    1.62    1.53
   0   7  10    0.13    0.68
  -7  10   0    1.56    1.09
   7   0  10   -0.35    0.88
   0   7 -10    0.94    1.51
   0  10   7    1.19    1.00
   1  10   7    0.74    1.03
  10  -1   7    0.03    1.60
   7   1  10    1.66    0.93
  -1   7  10    2.05    0.73
 -10  -1  -7   -1.53    1.58
 -10   7  -1    0.13    1.02
  -7   1 -10    2.19    2.65
  10  -7  -1    4.16    1.79
  -7  10   1    3.53    1.18
   1   7 -10    1.42    1.44
   1   7  10    1.87    0.71
  -1   7 -10    2.12    1.92
  -7  10  -1    2.44    1.13
  -1  10   7    1.53    1.08
   7  10   1   -1.70    2.03
   7  -1  10    2.03    1.21
  10  -7   1    2.06    1.72
 -10   7   1    2.52    1.11
  -7  -1 -10    4.15    3.01
  10   1   7    1.64    1.37
  -7   2 -10    0.90    2.59
   7   2  10    1.76    0.92
   2   7 -10    4.38    1.43
  10   7   2    5.37    2.79
  -2   7  10    2.06    0.83
   2  -7  10    2.80    2.50
 -10   7  -2    1.61    1.07
   2  10   7    2.91    1.15
  -2  10  -7    5.71    2.03
  10  -2   7   -0.29    1.91
  -7  10  -2    3.03    1.21
   7  10   2   -0.25    1.98
   7  -2  10    3.49    1.52
  10  -7   2    4.18    1.95
  -2   7 -10    6.77    3.06
  -2  10   7    2.67    1.18
   2   7  10    2.88    0.87
  -7  -2 -10    3.36    3.29
  10   2   7    2.16    1.40
 -10   7   2    4.74    1.22
 -10   7  -3    5.41    1.39
  10  -3   7    3.40    2.52
   3   7 -10    5.30    1.57
   3  10   7    4.34    1.35
  -3   7  10    3.59    1.02
   3  -7  10    9.09    3.22
   7   3  10    2.63    1.06
  10   7   3    1.36    2.02
   7  10   3    4.77    2.07
 -10   3  -7    6.33    1.80
  10   3   7    5.08    1.57
  -3  10   7    2.89    1.24
   3  10  -7    2.77    1.51
  -7  10  -3    5.68    1.48
   7  -3  10    5.07    1.99
  -7  -3 -10    3.66    4.07
  10  -7   3   11.38    2.43
   3   7  10    4.07    1.04
   0   0 -11    1.26    0.70
   0   0  11    0.58    0.48
  11   0   0    3.63    1.39
  -1  11   0    1.06    1.61
   0  -1 -11    0.14    0.58
   0  -1  11    0.76    0.55
   0   1 -11    1.41    0.85
   0   1  11    0.53    0.51
  11   0   1    1.19    1.39
  -1   0 -11    0.10    1.23
  -1   0  11    0.74    0.44
   0  11  -1    1.63    1.86
   0  11   1    4.01    1.44
   1   0 -11    0.09    0.47
   1   0  11    0.03    0.51
  11  -1   0   -0.44    1.38
 -11   1   0    0.14    0.92
   1  11   1   -1.55    1.08
  11  -1   1    1.02    1.39
  11   1   1   -0.79    1.40
  -1  11  -1    1.75    1.61
   1  -1 -11   -0.30    0.37
   1  -1  11    0.27    0.58
   1   1 -11    0.65    0.59
 -11   1  -1    0.38    0.95
 -11   1   1   -1.15    0.83
  -1  -1 -11   -0.53    1.00
   1   1  11    0.00    0.47
  -1  -1  11    0.00    0.49
  -1   1 -11    0.45    1.31
  -1   1  11   -0.10    0.41
  11   0   2   29.74    3.95
   0  -2 -11   41.31    3.42
 -11   2   0   30.48    3.60
  -2   0 -11   37.59    4.79
  -2   0  11   36.33    3.16
   0  11   2   40.70    3.83
   2   0 -11   33.79    3.13
   2   0  11   36.42    3.32
  11  -2   0   43.47    4.15
 -11   0  -2   28.87    3.73
   0  -2  11   35.45    3.30
   0   2 -11   40.31    3.76
   0   2  11   35.05    3.22
  -1  -2 -11    6.08    1.34
   1  -2  11    6.68    1.12
 -11   1   2    7.63    1.39
  -2   1 -11    6.41    2.33
   2   1  11    6.55    1.01
   1   2 -11    7.74    1.18
  -1   2  11    6.30    1.00
   1  11   2    8.64    1.49
  -2  11   1    8.11    2.36
 -11   2  -1    7.30    1.36
  -2  -1  11    6.68    1.00
  11   2   1   10.45    1.95
  11   1   2    8.70    1.74
  -2   1  11    5.98    0.96
  -1  11   2    9.82    1.64
   1  11  -2    2.91    1.89
 -11   1  -2    7.55    1.50
   2  -1  11    6.50    1.10
   2   1 -11    7.47    1.04
  11  -2   1    8.95    1.88
   1   2  11    6.28    0.95
  -2  -1 -11    6.62    2.18
  -1   2 -11    7.38    1.86
  -1  -2  11    7.09    1.13
 -11   2   1    6.81    1.38
   2  11   1   11.13    1.81
  -2  -2  11   -0.74    0.47
  -2  11  -2   -0.70    1.37
   2  11   2    0.73    1.04
  11  -2   2    0.67    1.50
  11   2   2    0.19    1.46
   2  -2  11   -0.35    0.69
   2   2 -11   -0.32    0.55
  -2   2 -11   -0.75    2.05
  -2   2  11    0.06    0.41
 -11   2  -2   -1.08    0.88
 -11   2   2    0.65    1.06
  -2  -2 -11    0.37    1.62
  -2  11   2    0.60    1.09
  11   0   3    4.61    1.62
  11  -3   0   11.12    2.04
  -3   0 -11    4.30    4.48
  -3   0  11    5.23    0.87
   0  11  -3    8.15    2.33
   0  11   3    3.93    1.17
   3   0  11    5.67    0.98
   0   3 -11    7.27    1.51
   0   3  11    5.47    0.84
 -11   0  -3    4.07    1.38
 -11   3   0    5.90    1.32
   0  -3  11    6.40    1.11
  11  -1   3    0.27    1.48
  -3   1 -11    2.90    2.98
  -1   3  11    0.32    0.51
 -11   3  -1   -0.26    0.97
  -3  11   1    2.40    1.63
   1   3 -11    0.64    0.85
   3   1  11    0.03    0.59
 -11  -1  -3    1.30    1.06
  11   3   1    1.68    1.78
  -3  -1  11    0.98    0.45
   1  -3  11    0.85    0.80
  -1  11  -3    2.59    1.63
   1  11   3    2.09    0.97
   1  11  -3    1.28    1.83
   3  11   1    1.76    1.35
  -3  -1 -11    0.04    2.78
   1   3  11    0.36    0.52
  -1  11   3    1.74    0.99
  11   1   3    0.12    1.21
   3  -1  11    1.42    0.81
 -11   3   1    0.70    0.90
  11  -3   1    0.41    1.55
 -11   1  -3    1.41    1.11
  -1   3 -11    0.88    1.61
  -1  -3  11    0.35    0.68
  -3   1  11    0.06    0.46
  -3  11  -1    0.83    1.45
  11   3   2   13.60    2.26
  11  -2   3   10.08    2.14
  -3  -2  11   10.58    1.24
   2   3 -11    9.42    1.58
  -2  -3 -11    8.74    2.09
   2  11   3    9.43    1.75
  -3   2 -11   15.28    3.86
   2  -3  11   10.46    1.75
 -11   2   3   13.82    1.98
 -11   3  -2    7.00    1.61
   3   2  11    9.70    1.45
  -3  11   2   15.90    2.33
   3  11   2   10.02    1.80
 -11   2  -3    9.51    1.77
   3  -2  11   10.45    1.77
   3   2 -11    9.64    1.34
  -2  -3  11   10.16    1.45
  11   2   3   13.34    2.01
   2   3  11    9.06    1.35
 -11   3   2   10.42    2.53
  -3  -2 -11    7.46    3.04
  -2   3 -11   10.51    2.96
  11  -3   2   14.40    2.39
  -3   2  11   10.90    1.24
  -3  11  -3    0.00    1.36
 -11   3  -3    0.11    1.01
   3   3 -11   -0.19    0.64
   3   3  11    0.05    0.56
   3  11   3   -1.11    1.06
  11  -3   3   -0.41    1.70
  11   3   3    0.65    1.48
  -3   3  11    0.48    0.52
 -11   3   3   -0.61    0.92
  -3  -3 -11   -0.32    2.42
  -3   3 -11    0.71    3.01
   3  -3  11    0.41    0.93
  -3  11   3   -0.01    1.08
  -4  11   0    4.25    1.38
   4  11   0    7.68    2.18
   0   4 -11    1.19    1.22
   0   4  11    1.68    0.63
   0  11   4    1.77    1.06
  11   0   4    2.50    1.60
  11  -4   0    6.61    1.87
   0  -4  11    1.25    0.94
 -11   4   0    2.74    1.11
  -4   0 -11    2.00    3.89
 -11   0  -4    0.48    1.18
   4   0  11    1.16    0.76
   0  11  -4    5.44    1.82
 -11  -1  -4    0.46    1.24
   1   4 -11    0.21    1.02
 -11   1   4   -1.01    0.96
   4   1  11    0.66    0.64
  11  -1   4    1.12    1.61
  -4   1 -11    0.48    3.62
 -11   4  -1    0.47    1.01
  -4  11   1    0.15    1.07
   1  -4  11    0.27    1.00
   1  11   4   -0.40    0.97
  -1   4  11    0.15    0.51
  -1  11  -4    1.63    1.66
 -11   4   1    0.15    1.02
   4  11   1    0.26    1.47
  -4  -1 -11   -2.09    3.56
 -11   1  -4   -0.25    1.05
  -1  -4  11   -0.11    0.90
  -4  11  -1   -0.21    1.21
  -1  11   4   -0.45    0.86
   1  11  -4   -0.79    1.53
  11  -4   1   -2.30    1.65
   4  -1  11   -0.43    0.75
  11   1   4   -0.81    1.31
   1   4  11   -0.66    0.50
  -1   4 -11    1.39    1.76
  -4   2 -11   12.97    4.41
  11   4   2    7.77    2.25
 -11   4  -2    6.17    1.44
 -11   2   4   11.25    1.93
   2  11   4    5.13    1.47
  -4  11   2   11.78    2.03
   4   2  11    4.80    1.06
  11  -2   4    6.81    2.03
  -2   4  11    6.62    1.14
   2   4 -11    6.99    1.26
   2  -4  11    5.84    1.52
  -2   4 -11    8.32    2.98
 -11   2  -4    7.08    1.73
   2  11  -4    5.59    1.91
  -2  11   4    8.83    1.40
  11  -4   2   10.34    2.26
  -4   2  11    6.80    1.05
  -4  11  -2    9.60    1.79
 -11   4   2    7.16    1.69
  -4  -2 -11   -0.42    3.64
  11   2   4    9.36    1.80
   2   4  11    7.00    1.10
   4  11   2    6.11    1.59
   4  -2  11    6.56    1.32
  -2  -4  11    6.77    1.23
   3   4 -11    8.55    1.55
  -3   4  11   10.34    1.32
  11  -3   4    8.00    2.41
   4   3  11   10.55    1.38
   3  -4  11    7.51    1.62
  11   4   3   10.93    2.10
   3  11   4    5.57    1.64
 -11   3   4    4.32    1.53
 -11   4  -3    7.44    1.56
  -3  11  -4   12.37    2.30
  -4   3  11    9.87    1.27
   4  11   3    3.42    1.63
   4  -3  11    8.37    1.59
  -4  -3 -11    7.29    4.84
  11  -4   3   13.00    2.52
  -4  11  -3   12.61    2.05
 -11   4   3    7.25    1.41
  11   3   4    6.62    1.88
 -11   3  -4    5.78    1.53
  -3  11   4    5.81    1.41
   3   4  11    8.23    1.34
  -4   4 -11    0.07    3.65
   4  11   4   -0.08    1.32
 -11   4  -4   -1.40    1.22
  11   4   4    0.92    1.60
  11  -4   4    1.51    2.10
  -4  11  -4   -1.25    1.41
  -4  11   4    1.77    1.27
   4  -4  11    1.02    1.41
   4   4  11    0.27    0.68
  -4   4  11    1.14    0.67
 -11   0  -5    5.16    1.63
   0  11  -5    5.42    1.95
  11   0   5    2.54    1.77
   0  -5  11    3.12    1.34
   0   5 -11    4.33    1.68
   0   5  11    4.32    0.85
  -5  11   0    4.37    1.35
 -11   5   0    3.15    1.16
  -5   0 -11    3.70    4.28
   5   0  11    4.61    1.07
   0  11   5    2.37    1.14
   1  11   5    0.07    1.13
 -11   5  -1    1.77    1.08
 -11   1   5    1.25    1.11
  -5  11   1    1.26    1.12
  -5   1 -11    4.85    4.33
  11  -1   5    2.08    1.93
   1  -5  11    0.81    1.24
   1   5 -11    2.37    1.29
   5   1  11    1.29    0.82
 -11  -1  -5    2.09    1.43
  -1  11  -5    3.10    1.85
  -1   5  11    1.35    0.67
  -5  11  -1    3.21    1.27
  -5  -1 -11   -2.24    3.92
   1  11  -5    1.72    1.90
   5  11   1    1.46    1.85
 -11   5   1    0.36    1.04
  11   1   5    2.96    1.65
  -1   5 -11    1.77    1.98
 -11   1  -5    1.19    1.26
  -1  11   5    1.27    0.98
   5  -1  11    1.68    0.94
   1   5  11    0.89    0.66
  -1  -5  11    1.13    1.21
  11  -5   1    3.08    2.01
   2  11   5   13.47    2.06
   2  -5  11   13.90    2.31
  -5   2 -11   28.12    5.29
  -2   5  11   15.69    1.69
   5   2  11   13.23    1.76
   2   5 -11   12.87    2.17
 -11   5  -2   12.21    2.08
  11  -2   5   12.97    2.60
   2   5  11   12.27    1.66
  -2  11   5   12.85    2.17
  -2   5 -11   17.21    3.65
   5  -2  11   11.54    1.89
   2  11  -5    6.94    2.27
  -5  -2 -11    5.52    4.18
   5  11   2   14.12    2.29
 -11   5   2   10.56    2.01
 -11   2  -5   11.76    2.17
  -2  -5  11   11.04    2.51
  11   2   5   19.91    2.96
 -11   5  -3    0.57    1.15
   3   5 -11    1.27    0.99
  -3  11  -5    0.98    1.61
  11  -3   5   -1.35    2.07
  -3   5  11    0.56    0.70
   5   3  11    1.21    0.77
   3  11   5    0.92    1.30
  -5   3 -11    2.44    3.93
   3  -5  11    0.76    1.52
  11   5   3    0.45    1.92
  -3   5 -11   -0.10    3.06
 -11   3  -5    0.20    1.29
  11   3   5   -0.96    1.46
   5  -3  11   -0.19    1.39
  -3  11   5    1.15    0.98
   3   5  11    0.08    0.70
  -5  11  -3    1.96    1.26
  -5  -3 -11    1.44    4.05
  11  -5   3    5.60    2.23
   5  11   3   -0.41    1.49
  -4   5  11    1.29    0.88
   4  11   5    1.49    1.45
  11   5   4    1.87    1.86
  11  -4   5    2.37    2.46
 -11   5  -4    1.45    1.31
   5   4  11   -0.32    0.82
  -5   4 -11    5.13    3.86
   4  -5  11    0.96    1.99
  -4  11  -5   -1.52    1.59
  -4  11   5   -2.42    1.32
  -5  11  -4    0.65    1.36
  -4   5 -11    0.41    3.61
  11   4   5    1.12    1.72
   5  11   4   -0.06    1.59
   5  -4  11    0.70    1.63
  -5  -4 -11    2.10    3.99
 -11   4  -5   -0.48    1.40
  11  -5   4    2.71    2.21
   4   5  11   -0.16    0.79
  11   0   6   14.37    2.72
   0   6 -11   22.72    3.60
   0  -6  11   15.27    2.63
   0   6  11   18.01    2.05
 -11   0  -6   22.63    3.23
   0  11   6   18.24    2.66
   6   0  11   14.95    2.29
 -11   6   0   15.34    2.42
  -6   0 -11   19.57    5.14
 -11   6  -1    2.09    1.18
   6   1  11    4.27    1.04
  -6  11   1    2.93    1.25
 -11  -1  -6    4.92    1.87
  -6   1 -11    1.39    4.32
  -1   6  11    3.13    0.84
   1  -6  11    2.27    1.87
   1   6 -11    3.17    1.63
   1  11   6    3.11    1.36
  -1  11  -6    5.23    2.31
  11  -1   6    3.52    2.02
  11   1   6    2.03    1.71
   6  11   1    4.78    2.36
  -6  11  -1    2.97    1.23
  11  -6   1    6.87    2.15
  -1  11   6    0.73    1.37
   1  11  -6    3.88    1.90
   6  -1  11    1.85    1.15
  -1  -6  11    2.03    1.73
  -1   6 -11    4.72    2.16
 -11   6   1    1.84    1.15
  -6  -1 -11    2.68    4.05
 -11   1  -6    2.82    1.67
  -6   2 -11    5.54    4.14
 -11   6  -2    1.04    1.11
  11  -2   6    1.68    2.05
 -11  -2  -6    1.07    1.79
  -2  11  -6    2.80    2.03
   2   6 -11    2.25    1.32
   6   2  11    1.21    0.95
  -2   6  11    1.38    0.78
   2  -6  11    2.98    1.96
  -6  11  -2    0.76    1.20
   2   6  11    1.48    0.79
   6  11   2    1.20    1.85
  -6  -2 -11    9.04    4.55
  11   2   6   -0.27    1.61
 -11   2  -6    0.03    1.54
   2  11  -6   -1.62    1.49
   6  -2  11    0.87    1.37
  -2   6 -11    0.61    2.63
  11  -6   2    2.01    2.06
 -12   0   0  549.09   42.88
   0   0  12  482.26   42.44
 -12   0  -1    2.55    1.32
  -1  12   0    4.48    1.89
   0  -1  12    3.56    0.84
   0   1 -12    2.50    1.03
   0   1  12    3.34    0.75
  -1   0 -12    3.55    1.36
  -1   0  12    3.48    0.75
   0  12  -1    5.35    2.34
   1   0  12    3.11    0.84
 -12   1   0    3.44    1.28
 -12   1   1    0.67    1.15
  -1   1  12    1.59    0.62
  -1  12  -1    1.73    2.10
   1  -1  12    1.07    0.78
 -12   1  -1    0.32    1.12
   1   1  12    0.89    0.66
  -1   1 -12    1.91    1.43
  12   0   2  149.70   13.52
 -12   2   0  125.13   12.84
  -2   0  12  140.54   12.48
   0   2  12  153.82   12.55
 -12   0  -2  146.45   13.05
   2   0  12  153.46   12.63
   0  -2  12  165.86   12.64
   0   2 -12  162.66   12.96
   1   2 -12   -0.10    0.84
   2   1  12    1.48    0.75
   1  -2  12    2.03    0.96
  12  -1   2   -3.44    1.81
   1  12   2   -0.58    1.27
 -12   2  -1   -0.85    1.09
 -12  -1  -2    0.07    1.19
  -2   1 -12   -0.49    2.08
  -1  12  -2   -0.50    2.08
  -1   2  12   -0.25    0.58
 -12   1   2    0.24    1.18
  -1   2 -12    1.38    1.58
   2  -1  12    0.76    0.83
  -2  -1 -12    1.07    1.94
 -12   1  -2    0.09    1.20
   1   2  12   -0.19    0.63
   2  12   1    1.46    1.69
  -1  12   2   -0.39    1.22
  -1  -2  12    1.39    1.16
  -2  12  -1    0.08    1.76
 -12   2   1    0.63    1.05
  12   1   2    0.27    2.26
   2   2  12  164.44   14.18
 -12   2   2  160.15   14.44
  -2   2  12  164.76   14.09
  -2   2 -12  193.15   15.47
   2  -2  12  168.62   14.29
  -3  12   0    6.27    1.82
   0  12   3    1.96    1.22
   0   3 -12    3.20    1.41
   0   3  12    3.38    0.79
 -12   3   0    2.26    1.29
  -3   0 -12    4.17    3.06
   0  -3  12    3.14    1.05
   3   0  12    2.52    0.89
 -12   0  -3    3.48    1.50
   0  12  -3    3.88    2.34
  12   0   3   -0.21    1.98
   1   3 -12    0.71    1.02
 -12   1   3    1.35    1.28
  -3   1 -12    0.30    3.23
  -1  12  -3    5.68    2.18
   1  -3  12    0.79    1.04
  -1   3  12    0.87    0.67
 -12  -1  -3    0.51    1.37
 -12   3  -1   -0.02    1.16
  12  -1   3    2.80    2.04
  -3  12   1    3.63    1.51
   3   1  12    1.87    0.84
   1  12   3    1.51    1.17
  -1  12   3    3.55    1.30
   3  -1  12    0.67    0.91
 -12   1  -3    1.07    1.32
  12   1   3    0.95    1.96
   1  12  -3    0.96    2.25
 -12   3   1   -0.35    1.07
  -3  12  -1    2.16    1.66
  -1  -3  12    1.06    0.86
   1   3  12    1.08    0.70
   3  12   1    3.00    1.82
  -1   3 -12    2.50    1.80
  -3  -1 -12    4.26    2.86
   2   3 -12   17.93    2.09
 -12   3  -2   13.77    2.42
  -2   3  12   14.63    1.80
   2  12   3   16.37    2.66
  -3   2 -12   16.68    4.08
 -12   2   3   14.69    2.51
   2  -3  12   13.15    2.22
  12  -2   3   17.18    2.98
   3   2  12   14.95    1.90
   3  12   2   20.63    3.00
  -2   3 -12   17.81    3.60
  12   2   3   14.72    2.93
 -12   2  -3   14.27    2.70
 -12   3   2   13.39    2.34
   3  -2  12   15.71    2.30
   2   3  12   11.60    1.83
 -12   3  -3    9.62    1.86
 -12   3   3    8.51    1.70
  12   3   3    8.32    3.70
  -3   3 -12    7.75    4.09
   3  12   3   11.97    2.04
   3  -3  12    6.74    1.61
   3   3  12    6.37    1.50
  12  -3   3    9.96    2.66
  12   0   4  183.06   16.31
   0   4 -12  215.51   16.20
 -12   4   0  180.46   15.91
  -4   0 -12  184.79   18.11
   0  -4  12  181.71   15.72
   0   4  12  173.68   15.55
  12  -1   4    0.43    2.14
  -4   1 -12    2.08    4.60
 -12  -1  -4    0.49    1.52
  -1  12  -4    3.46    2.18
 -12   1   4    0.46    1.37
   1  12   4    1.60    1.51
  -4  12   1    1.04    1.38
   4   1  12    1.78    0.86
  -1   4  12    0.13    0.71
   1  -4  12    2.01    1.27
   1   4 -12    0.37    1.22
 -12   4  -1    1.81    1.28
   4  12   1   -1.16    2.01
   1   4  12   -0.05    0.72
 -12   4   1    1.87    1.30
  -4  -1 -12   -0.21    3.77
  12   1   4    2.50    2.01
 -12   1  -4    0.28    1.32
   1  12  -4   -0.84    2.03
  -4  12  -1    1.15    1.43
   4  -1  12   -0.96    0.91
  -1   4 -12    0.93    2.11
   0   0   0    0.00    0.00
;
_shelx_hkl_checksum              15689
#END Tags that were not found in dictionaries
loop_
_space_group_symop_operation_xyz
'x, y, z'
'-x, -y, z'
'-x, y, -z'
'x, -y, -z'
'z, x, y'
'z, -x, -y'
'-z, -x, y'
'-z, x, -y'
'y, z, x'
'-y, z, -x'
'y, -z, -x'
'-y, -z, x'
'y+1/2, x+1/2, -z+1/2'
'-y+1/2, -x+1/2, -z+1/2'
'y+1/2, -x+1/2, z+1/2'
'-y+1/2, x+1/2, z+1/2'
'x+1/2, z+1/2, -y+1/2'
'-x+1/2, z+1/2, y+1/2'
'-x+1/2, -z+1/2, -y+1/2'
'x+1/2, -z+1/2, y+1/2'
'z+1/2, y+1/2, -x+1/2'
'z+1/2, -y+1/2, x+1/2'
'-z+1/2, y+1/2, x+1/2'
'-z+1/2, -y+1/2, -x+1/2'
'-x, -y, -z'
'x, y, -z'
'x, -y, z'
'-x, y, z'
'-z, -x, -y'
'-z, x, y'
'z, x, -y'
'z, -x, y'
'-y, -z, -x'
'y, -z, x'
'-y, z, x'
'y, z, -x'
'-y-1/2, -x-1/2, z-1/2'
'y-1/2, x-1/2, z-1/2'
'-y-1/2, x-1/2, -z-1/2'
'y-1/2, -x-1/2, -z-1/2'
'-x-1/2, -z-1/2, y-1/2'
'x-1/2, -z-1/2, -y-1/2'
'x-1/2, z-1/2, y-1/2'
'-x-1/2, z-1/2, -y-1/2'
'-z-1/2, -y-1/2, x-1/2'
'-z-1/2, y-1/2, -x-1/2'
'z-1/2, -y-1/2, -x-1/2'
'z-1/2, y-1/2, x-1/2'
loop_
_atom_site_label
_atom_site_type_symbol
_atom_site_fract_x
_atom_site_fract_y
_atom_site_fract_z
_atom_site_U_iso_or_equiv
_atom_site_adp_type
_atom_site_occupancy
_atom_site_site_symmetry_order
_atom_site_calc_flag
_atom_site_refinement_flags_posn
_atom_site_refinement_flags_adp
_atom_site_refinement_flags_occupancy
Y1 Y 0.2500 0.5000 0.0000 0.0040(4) Uani 1 8 d S T P
Ir1 Ir 0.2500 0.2500 0.2500 0.0009(3) Uani 1 6 d S T P
Ge1 Ge 0.0000 0.0000 0.0000 0.0117(9) Uani 1 24 d S T P
Ge2A Ge 0.0000 0.2692(5) 0.1320(4) 0.0096(5) Uani 0.427(4) 2 d S T P
Ge2B Ge 0.0000 0.3328(4) 0.1553(3) 0.0096(5) Uani 0.573(4) 2 d S T P
loop_
_atom_site_aniso_label
_atom_site_aniso_U_11
_atom_site_aniso_U_22
_atom_site_aniso_U_33
_atom_site_aniso_U_23
_atom_site_aniso_U_13
_atom_site_aniso_U_12
Y1 0.0063(9) 0.0028(6) 0.0028(6) 0.000 0.000 0.000
Ir1 0.0009(3) 0.0009(3) 0.0009(3) -0.00014(11) -0.00014(11) -0.00014(11)
Ge1 0.0117(9) 0.0117(9) 0.0117(9) 0.000 0.000 0.000
Ge2A 0.0013(6) 0.0212(14) 0.0062(9) 0.0066(10) 0.000 0.000
Ge2B 0.0013(6) 0.0212(14) 0.0062(9) 0.0066(10) 0.000 0.000
loop_
_atom_type_symbol
_atom_type_description
_atom_type_scat_dispersion_real
_atom_type_scat_dispersion_imag
_atom_type_scat_source
Ge Ge 0.1547 1.8001 'International Tables Vol C Tables 4.2.6.8 and 6.1.1.4'
Y Y -2.7962 3.5667 'International Tables Vol C Tables 4.2.6.8 and 6.1.1.4'
Ir Ir -1.4442 7.9887 'International Tables Vol C Tables 4.2.6.8 and 6.1.1.4'
loop_
_geom_angle_atom_site_label_1
_geom_angle_atom_site_label_2
_geom_angle_atom_site_label_3
_geom_angle
_geom_angle_site_symmetry_1
_geom_angle_site_symmetry_3
Ge2B Y1 Ge2B 123.05(5) . 17
Ge2B Y1 Ge2B 54.62(10) . 26
Ge2B Y1 Ge2B 177.14(12) 17 26
Ge2B Y1 Ge2B 95.28(8) . 42_666
Ge2B Y1 Ge2B 54.62(10) 17 42_666
Ge2B Y1 Ge2B 123.05(5) 26 42_666
Ge2B Y1 Ge2B 177.14(12) . 18_554
Ge2B Y1 Ge2B 59.22(11) 17 18_554
Ge2B Y1 Ge2B 123.05(5) 26 18_554
Ge2B Y1 Ge2B 84.79(8) 42_666 18_554
Ge2B Y1 Ge2B 84.79(8) . 25_565
Ge2B Y1 Ge2B 123.05(5) 17 25_565
Ge2B Y1 Ge2B 59.22(11) 26 25_565
Ge2B Y1 Ge2B 177.14(12) 42_666 25_565
Ge2B Y1 Ge2B 95.28(8) 18_554 25_565
Ge2B Y1 Ge2B 123.05(5) . 41_665
Ge2B Y1 Ge2B 84.79(8) 17 41_665
Ge2B Y1 Ge2B 95.28(8) 26 41_665
Ge2B Y1 Ge2B 59.22(11) 42_666 41_665
Ge2B Y1 Ge2B 54.62(10) 18_554 41_665
Ge2B Y1 Ge2B 123.05(5) 25_565 41_665
Ge2B Y1 Ge2B 59.22(11) . 2_565
Ge2B Y1 Ge2B 95.28(8) 17 2_565
Ge2B Y1 Ge2B 84.79(8) 26 2_565
Ge2B Y1 Ge2B 123.05(5) 42_666 2_565
Ge2B Y1 Ge2B 123.05(5) 18_554 2_565
Ge2B Y1 Ge2B 54.62(10) 25_565 2_565
Ge2B Y1 Ge2B 177.14(12) 41_665 2_565
Ge2B Y1 Ir1 88.57(6) . 26
Ge2B Y1 Ir1 132.36(4) 17 26
Ge2B Y1 Ir1 47.64(4) 26 26
Ge2B Y1 Ir1 91.43(6) 42_666 26
Ge2B Y1 Ir1 88.57(6) 18_554 26
Ge2B Y1 Ir1 91.43(6) 25_565 26
Ge2B Y1 Ir1 47.64(4) 41_665 26
Ge2B Y1 Ir1 132.36(4) 2_565 26
Ge2B Y1 Ir1 91.43(6) . 27_565
Ge2B Y1 Ir1 47.64(4) 17 27_565
Ge2B Y1 Ir1 132.36(4) 26 27_565
Ge2B Y1 Ir1 88.57(6) 42_666 27_565
Ge2B Y1 Ir1 91.43(6) 18_554 27_565
Ge2B Y1 Ir1 88.57(6) 25_565 27_565
Ge2B Y1 Ir1 132.36(4) 41_665 27_565
Ge2B Y1 Ir1 47.64(4) 2_565 27_565
Ir1 Y1 Ir1 180.0 26 27_565
Ge2B Y1 Ir1 47.64(4) . .
Ge2B Y1 Ir1 88.57(6) 17 .
Ge2B Y1 Ir1 88.57(6) 26 .
Ge2B Y1 Ir1 47.64(4) 42_666 .
Ge2B Y1 Ir1 132.36(4) 18_554 .
Ge2B Y1 Ir1 132.36(4) 25_565 .
Ge2B Y1 Ir1 91.43(6) 41_665 .
Ge2B Y1 Ir1 91.43(6) 2_565 .
Ir1 Y1 Ir1 90.0 26 .
Ir1 Y1 Ir1 90.0 27_565 .
Ge2B Y1 Ir1 132.36(4) . 4_565
Ge2B Y1 Ir1 91.43(6) 17 4_565
Ge2B Y1 Ir1 91.43(6) 26 4_565
Ge2B Y1 Ir1 132.36(4) 42_666 4_565
Ge2B Y1 Ir1 47.64(4) 18_554 4_565
Ge2B Y1 Ir1 47.64(4) 25_565 4_565
Ge2B Y1 Ir1 88.57(6) 41_665 4_565
Ge2B Y1 Ir1 88.57(6) 2_565 4_565
Ir1 Y1 Ir1 90.0 26 4_565
Ir1 Y1 Ir1 90.0 27_565 4_565
Ir1 Y1 Ir1 180.0 . 4_565
Ge2A Ir1 Ge2A 73.01(16) 45_666 14
Ge2A Ir1 Ge2A 139.00(17) 45_666 9
Ge2A Ir1 Ge2A 140.64(16) 14 9
Ge2A Ir1 Ge2A 93.2(2) 45_666 5
Ge2A Ir1 Ge2A 139.00(17) 14 5
Ge2A Ir1 Ge2A 73.01(16) 9 5
Ge2A Ir1 Ge2A 73.01(16) 45_666 42_666
Ge2A Ir1 Ge2A 73.01(16) 14 42_666
Ge2A Ir1 Ge2A 93.2(2) 9 42_666
Ge2A Ir1 Ge2A 140.64(16) 5 42_666
Ge2A Ir1 Ge2A 140.64(16) 45_666 .
Ge2A Ir1 Ge2A 93.2(2) 14 .
Ge2A Ir1 Ge2A 73.01(16) 9 .
Ge2A Ir1 Ge2A 73.01(16) 5 .
Ge2A Ir1 Ge2A 139.00(17) 42_666 .
Ge2A Ir1 Ge2B 13.95(8) 45_666 45_666
Ge2A Ir1 Ge2B 84.82(14) 14 45_666
Ge2A Ir1 Ge2B 131.03(9) 9 45_666
Ge2A Ir1 Ge2B 79.36(16) 5 45_666
Ge2A Ir1 Ge2B 83.26(14) 42_666 45_666
Ge2A Ir1 Ge2B 134.93(7) . 45_666
Ge2A Ir1 Ge2B 131.03(9) 45_666 9
Ge2A Ir1 Ge2B 134.93(7) 14 9
Ge2A Ir1 Ge2B 13.95(8) 9 9
Ge2A Ir1 Ge2B 83.26(14) 5 9
Ge2A Ir1 Ge2B 79.36(16) 42_666 9
Ge2A Ir1 Ge2B 84.82(14) . 9
Ge2B Ir1 Ge2B 126.72(11) 45_666 9
Ge2A Ir1 Ge2B 84.82(14) 45_666 42_666
Ge2A Ir1 Ge2B 83.26(14) 14 42_666
Ge2A Ir1 Ge2B 79.36(16) 9 42_666
Ge2A Ir1 Ge2B 134.93(7) 5 42_666
Ge2A Ir1 Ge2B 13.95(8) 42_666 42_666
Ge2A Ir1 Ge2B 131.03(9) . 42_666
Ge2B Ir1 Ge2B 93.55(10) 45_666 42_666
Ge2B Ir1 Ge2B 65.56(15) 9 42_666
Ge2A Ir1 Ge2B 83.26(14) 45_666 14
Ge2A Ir1 Ge2B 13.95(8) 14 14
Ge2A Ir1 Ge2B 134.93(7) 9 14
Ge2A Ir1 Ge2B 131.03(9) 5 14
Ge2A Ir1 Ge2B 84.82(14) 42_666 14
Ge2A Ir1 Ge2B 79.36(16) . 14
Ge2B Ir1 Ge2B 93.55(10) 45_666 14
Ge2B Ir1 Ge2B 133.79(11) 9 14
Ge2B Ir1 Ge2B 93.55(10) 42_666 14
Ge2A Ir1 Ge2B 79.36(16) 45_666 5
Ge2A Ir1 Ge2B 131.03(9) 14 5
Ge2A Ir1 Ge2B 84.82(14) 9 5
Ge2A Ir1 Ge2B 13.95(8) 5 5
Ge2A Ir1 Ge2B 134.93(7) 42_666 5
Ge2A Ir1 Ge2B 83.26(14) . 5
Ge2B Ir1 Ge2B 65.56(15) 45_666 5
Ge2B Ir1 Ge2B 93.55(10) 9 5
Ge2B Ir1 Ge2B 133.79(11) 42_666 5
Ge2B Ir1 Ge2B 126.72(11) 14 5
Ge2A Ir1 Ge2B 134.93(7) 45_666 .
Ge2A Ir1 Ge2B 79.36(16) 14 .
Ge2A Ir1 Ge2B 83.26(14) 9 .
Ge2A Ir1 Ge2B 84.82(14) 5 .
Ge2A Ir1 Ge2B 131.03(9) 42_666 .
Ge2A Ir1 Ge2B 13.95(8) . .
Ge2B Ir1 Ge2B 133.79(11) 45_666 .
Ge2B Ir1 Ge2B 93.55(10) 9 .
Ge2B Ir1 Ge2B 126.72(11) 42_666 .
Ge2B Ir1 Ge2B 65.56(15) 14 .
Ge2B Ir1 Ge2B 93.55(10) 5 .
Ge2A Ge1 Ge2A 180.00(8) 33 9
Ge2A Ge1 Ge2A 66.72(5) 33 25
Ge2A Ge1 Ge2A 113.28(5) 9 25
Ge2A Ge1 Ge2A 66.72(5) 33 29
Ge2A Ge1 Ge2A 113.28(5) 9 29
Ge2A Ge1 Ge2A 66.72(5) 25 29
Ge2A Ge1 Ge2A 113.28(5) 33 5
Ge2A Ge1 Ge2A 66.72(5) 9 5
Ge2A Ge1 Ge2A 113.28(5) 25 5
Ge2A Ge1 Ge2A 180.00(16) 29 5
Ge2A Ge1 Ge2A 127.77(16) 33 34
Ge2A Ge1 Ge2A 52.23(16) 9 34
Ge2A Ge1 Ge2A 66.72(5) 25 34
Ge2A Ge1 Ge2A 113.28(5) 29 34
Ge2A Ge1 Ge2A 66.72(5) 5 34
Ge2A Ge1 Ge2A 113.28(5) 33 26
Ge2A Ge1 Ge2A 66.72(5) 9 26
Ge2A Ge1 Ge2A 127.77(16) 25 26
Ge2A Ge1 Ge2A 66.72(5) 29 26
Ge2A Ge1 Ge2A 113.28(5) 5 26
Ge2A Ge1 Ge2A 113.28(5) 34 26
Ge2A Ge1 Ge2A 113.28(5) 33 6
Ge2A Ge1 Ge2A 66.72(5) 9 6
Ge2A Ge1 Ge2A 66.72(5) 25 6
Ge2A Ge1 Ge2A 52.23(16) 29 6
Ge2A Ge1 Ge2A 127.77(16) 5 6
Ge2A Ge1 Ge2A 66.72(5) 34 6
Ge2A Ge1 Ge2A 66.72(5) 26 6
Ge2A Ge1 Ge2A 66.72(5) 33 30
Ge2A Ge1 Ge2A 113.28(5) 9 30
Ge2A Ge1 Ge2A 113.28(5) 25 30
Ge2A Ge1 Ge2A 127.77(16) 29 30
Ge2A Ge1 Ge2A 52.23(16) 5 30
Ge2A Ge1 Ge2A 113.28(5) 34 30
Ge2A Ge1 Ge2A 113.28(5) 26 30
Ge2A Ge1 Ge2A 180.00(15) 6 30
Ge2A Ge1 Ge2A 66.72(5) 33 2
Ge2A Ge1 Ge2A 113.28(5) 9 2
Ge2A Ge1 Ge2A 52.23(16) 25 2
Ge2A Ge1 Ge2A 113.28(5) 29 2
Ge2A Ge1 Ge2A 66.72(5) 5 2
Ge2A Ge1 Ge2A 66.72(5) 34 2
Ge2A Ge1 Ge2A 180.00(8) 26 2
Ge2A Ge1 Ge2A 113.28(5) 6 2
Ge2A Ge1 Ge2A 66.72(5) 30 2
Ge2A Ge1 Ge2A 52.23(16) 33 10
Ge2A Ge1 Ge2A 127.77(16) 9 10
Ge2A Ge1 Ge2A 113.28(5) 25 10
Ge2A Ge1 Ge2A 66.72(5) 29 10
Ge2A Ge1 Ge2A 113.28(5) 5 10
Ge2A Ge1 Ge2A 180.00(8) 34 10
Ge2A Ge1 Ge2A 66.72(5) 26 10
Ge2A Ge1 Ge2A 113.28(5) 6 10
Ge2A Ge1 Ge2A 66.72(5) 30 10
Ge2A Ge1 Ge2A 113.28(5) 2 10
Ge2A Ge1 Ge2A 113.28(5) 33 .
Ge2A Ge1 Ge2A 66.72(5) 9 .
Ge2A Ge1 Ge2A 180.0 25 .
Ge2A Ge1 Ge2A 113.28(5) 29 .
Ge2A Ge1 Ge2A 66.72(5) 5 .
Ge2A Ge1 Ge2A 113.28(5) 34 .
Ge2A Ge1 Ge2A 52.23(16) 26 .
Ge2A Ge1 Ge2A 113.28(5) 6 .
Ge2A Ge1 Ge2A 66.72(5) 30 .
Ge2A Ge1 Ge2A 127.77(16) 2 .
Ge2A Ge1 Ge2A 66.72(5) 10 .
Ge2B Ge2A Ge2A 110.2(5) . 26
Ge2B Ge2A Ir1 85.3(2) . .
Ge2A Ge2A Ir1 115.21(8) 26 .
Ge2B Ge2A Ir1 85.3(2) . 28
Ge2A Ge2A Ir1 115.21(8) 26 28
Ir1 Ge2A Ir1 128.87(16) . 28
Ge2B Ge2A Ge2B 97.7(6) . 26
Ge2A Ge2A Ge2B 12.47(8) 26 26
Ir1 Ge2A Ge2B 115.52(8) . 26
Ir1 Ge2A Ge2B 115.52(8) 28 26
Ge2B Ge2A Ge1 174.0(6) . .
Ge2A Ge2A Ge1 63.89(8) 26 .
Ir1 Ge2A Ge1 97.19(11) . .
Ir1 Ge2A Ge1 97.19(11) 28 .
Ge2B Ge2A Ge1 76.36(9) 26 .
Ge2B Ge2A Y1 62.0(3) . .
Ge2A Ge2A Y1 68.80(7) 26 .
Ir1 Ge2A Y1 65.16(4) . .
Ir1 Ge2A Y1 144.67(16) 28 .
Ge2B Ge2A Y1 60.68(7) 26 .
Ge1 Ge2A Y1 114.12(10) . .
Ge2B Ge2A Y1 62.0(3) . 25_565
Ge2A Ge2A Y1 68.80(7) 26 25_565
Ir1 Ge2A Y1 144.67(16) . 25_565
Ir1 Ge2A Y1 65.16(4) 28 25_565
Ge2B Ge2A Y1 60.68(7) 26 25_565
Ge1 Ge2A Y1 114.12(10) . 25_565
Y1 Ge2A Y1 86.48(9) . 25_565
Ge2B Ge2A Y1 72.8(5) . 5
Ge2A Ge2A Y1 177.01(8) 26 5
Ir1 Ge2A Y1 64.60(8) . 5
Ir1 Ge2A Y1 64.60(8) 28 5
Ge2B Ge2A Y1 170.52(15) 26 5
Ge1 Ge2A Y1 113.13(13) . 5
Y1 Ge2A Y1 113.21(10) . 5
Y1 Ge2A Y1 113.21(10) 25_565 5
Ge2A Ge2B Ir1 80.7(2) . .
Ge2A Ge2B Ir1 80.7(2) . 28
Ir1 Ge2B Ir1 126.59(11) . 28
Ge2A Ge2B Ge2A 57.4(5) . 26
Ir1 Ge2B Ge2A 105.46(6) . 26
Ir1 Ge2B Ge2A 105.46(6) 28 26
Ge2A Ge2B Ge2B 137.2(3) . 14
Ir1 Ge2B Ge2B 57.22(7) . 14
Ir1 Ge2B Ge2B 116.41(12) 28 14
Ge2A Ge2B Ge2B 136.84(12) 26 14
Ge2A Ge2B Ge2B 137.2(3) . 13_455
Ir1 Ge2B Ge2B 116.41(12) . 13_455
Ir1 Ge2B Ge2B 57.22(7) 28 13_455
Ge2A Ge2B Ge2B 136.84(12) 26 13_455
Ge2B Ge2B Ge2B 67.00(10) 14 13_455
Ge2A Ge2B Ge2B 69.8(5) . 26
Ir1 Ge2B Ge2B 109.78(6) . 26
Ir1 Ge2B Ge2B 109.78(6) 28 26
Ge2A Ge2B Ge2B 12.47(8) 26 26
Ge2B Ge2B Ge2B 128.69(10) 14 26
Ge2B Ge2B Ge2B 128.69(10) 13_455 26
Ge2A Ge2B Y1 107.8(3) . .
Ir1 Ge2B Y1 68.997(18) . .
Ir1 Ge2B Y1 163.97(10) 28 .
Ge2A Ge2B Y1 70.05(8) 26 .
Ge2B Ge2B Y1 66.82(9) 14 .
Ge2B Ge2B Y1 114.94(7) 13_455 .
Ge2B Ge2B Y1 62.69(5) 26 .
Ge2A Ge2B Y1 107.8(3) . 25_565
Ir1 Ge2B Y1 163.97(10) . 25_565
Ir1 Ge2B Y1 68.997(18) 28 25_565
Ge2A Ge2B Y1 70.05(8) 26 25_565
Ge2B Ge2B Y1 114.94(7) 14 25_565
Ge2B Ge2B Y1 66.82(9) 13_455 25_565
Ge2B Ge2B Y1 62.69(5) 26 25_565
Y1 Ge2B Y1 95.21(8) . 25_565
Ge2A Ge2B Y1 96.7(5) . 5
Ir1 Ge2B Y1 66.54(5) . 5
Ir1 Ge2B Y1 66.54(5) 28 5
Ge2A Ge2B Y1 154.03(10) 26 5
Ge2B Ge2B Y1 61.39(9) 14 5
Ge2B Ge2B Y1 61.39(9) 13_455 5
Ge2B Ge2B Y1 166.50(6) 26 5
Y1 Ge2B Y1 124.16(6) . 5
Y1 Ge2B Y1 124.16(6) 25_565 5
loop_
_geom_bond_atom_site_label_1
_geom_bond_atom_site_label_2
_geom_bond_distance
_geom_bond_site_symmetry_2
Y1 Ge2B 3.031(2) .
Y1 Ge2B 3.031(2) 17
Y1 Ge2B 3.031(2) 26
Y1 Ge2B 3.031(2) 42_666
Y1 Ge2B 3.031(2) 18_554
Y1 Ge2B 3.031(2) 25_565
Y1 Ge2B 3.031(2) 41_665
Y1 Ge2B 3.031(2) 2_565
Y1 Ir1 3.1657(8) 26
Y1 Ir1 3.1657(8) 27_565
Y1 Ir1 3.1657(8) .
Y1 Ir1 3.1657(8) 4_565
Ir1 Ge2A 2.4814(17) 45_666
Ir1 Ge2A 2.4814(17) 14
Ir1 Ge2A 2.4814(17) 9
Ir1 Ge2A 2.4814(17) 5
Ir1 Ge2A 2.4814(17) 42_666
Ir1 Ge2A 2.4814(17) .
Ir1 Ge2B 2.5058(14) 45_666
Ir1 Ge2B 2.5058(14) 9
Ir1 Ge2B 2.5058(14) 42_666
Ir1 Ge2B 2.5058(14) 14
Ir1 Ge2B 2.5058(14) 5
Ir1 Ge2B 2.5058(14) .
Ge1 Ge2A 2.685(5) 33
Ge1 Ge2A 2.685(5) 9
Ge1 Ge2A 2.685(5) 25
Ge1 Ge2A 2.685(5) 29
Ge1 Ge2A 2.685(5) 5
Ge1 Ge2A 2.685(5) 34
Ge1 Ge2A 2.685(5) 26
Ge1 Ge2A 2.685(5) 6
Ge1 Ge2A 2.685(5) 30
Ge1 Ge2A 2.685(5) 2
Ge1 Ge2A 2.685(5) 10
Ge1 Ge2A 2.685(5) .
Ge2A Ge2B 0.606(3) .
Ge2A Ge2A 2.363(8) 26
Ge2A Ir1 2.4814(17) 28
Ge2A Ge2B 2.634(4) 26
Ge2A Y1 3.268(3) 25_565
Ge2A Y1 3.300(4) 5
Ge2B Ir1 2.5058(14) 28
Ge2B Ge2A 2.634(4) 26
Ge2B Ge2B 2.713(5) 14
Ge2B Ge2B 2.713(5) 13_455
Ge2B Ge2B 2.781(5) 26
Ge2B Y1 3.031(2) 25_565
Ge2B Y1 3.174(3) 5
#BEGIN Loops that were not found in dictionaries:
loop_
_publcif_info_datablock.id
_publcif_info_datablock.publ_exptl
_publcif_info_datablock.publ_geom
_publcif_info_datablock.structure
{5cd56e1d-e424-4226-8096-e99a3fb56cb3} y y y
#END Loops that were not found in dictionaries
