#------------------------------------------------------------------------------
#$Date: 2017-03-04 15:05:24 +0200 (Sat, 04 Mar 2017) $
#$Revision: 193406 $
#$URL: file:///home/coder/svn-repositories/cod/cif/4/00/27/4002703.cif $
#------------------------------------------------------------------------------
#
# This file is available in the Crystallography Open Database (COD),
# http://www.crystallography.net/
#
# All data on this site have been placed in the public domain by the
# contributors.
#
data_4002703
loop_
_publ_author_name
'Sanjeewa, Liurukara D.'
'McGuire, Michael A.'
'McMillen, Colin D.'
'Garlea, Vasile O.'
'Kolis, Joseph W.'
_publ_section_title
;
 Polar Materials with Isolated V4+ S = 1/2 Triangles: NaSr2V3O3(Ge4O13)Cl
 and KSr2V3O3(Ge4O13)Cl
;
_journal_issue                   3
_journal_name_full               'Chemistry of Materials'
_journal_page_first              1404
_journal_paper_doi               10.1021/acs.chemmater.6b05320
_journal_volume                  29
_journal_year                    2017
_chemical_formula_sum            'Cl Ge4 K O16 Sr2 V3'
_chemical_formula_weight         948.97
_space_group_crystal_system      hexagonal
_space_group_IT_number           186
_space_group_name_Hall           'P 6c -2c'
_space_group_name_H-M_alt        'P 63 m c'
_symmetry_space_group_name_Hall  'P 6c -2c'
_symmetry_space_group_name_H-M   'P 63 m c'
_atom_sites_solution_primary     direct
_atom_sites_solution_secondary   difmap
_audit_creation_method           SHELXL-2014/7
_cell_angle_alpha                90
_cell_angle_beta                 90
_cell_angle_gamma                120
_cell_formula_units_Z            2
_cell_length_a                   10.4679(7)
_cell_length_b                   10.4679(7)
_cell_length_c                   7.2427(5)
_cell_measurement_reflns_used    6229
_cell_measurement_temperature    298(2)
_cell_measurement_theta_max      25.88
_cell_measurement_theta_min      2.80
_cell_volume                     687.31(8)
_computing_cell_refinement       'CrystalClear (Rigaku, 2008)'
_computing_data_collection       'CrystalClear (Rigaku, 2008)'
_computing_data_reduction        'CrystalClear (Rigaku, 2008)'
_computing_molecular_graphics    'DIAMOND (Brandenburg, 1999)'
_computing_publication_material  'SHELXTL (Sheldrick, 2014)'
_computing_structure_refinement  'SHELXL-2014/7 (Sheldrick, 2014)'
_computing_structure_solution    'SHELXS-2014/7 (Sheldrick, 2014)'
_diffrn_ambient_temperature      298(2)
_diffrn_measured_fraction_theta_full 0.993
_diffrn_measured_fraction_theta_max 0.993
_diffrn_measurement_device_type  'Rigaku AFC8S, Mercury CCD'
_diffrn_measurement_method       'w\ scans'
_diffrn_radiation_type           MoK\a
_diffrn_radiation_wavelength     0.71073
_diffrn_reflns_av_R_equivalents  0.1365
_diffrn_reflns_av_unetI/netI     0.0371
_diffrn_reflns_Laue_measured_fraction_full 0.993
_diffrn_reflns_Laue_measured_fraction_max 0.993
_diffrn_reflns_limit_h_max       12
_diffrn_reflns_limit_h_min       -12
_diffrn_reflns_limit_k_max       12
_diffrn_reflns_limit_k_min       -12
_diffrn_reflns_limit_l_max       8
_diffrn_reflns_limit_l_min       -8
_diffrn_reflns_number            5913
_diffrn_reflns_point_group_measured_fraction_full 0.968
_diffrn_reflns_point_group_measured_fraction_max 0.964
_diffrn_reflns_theta_full        25.242
_diffrn_reflns_theta_max         26.057
_diffrn_reflns_theta_min         3.601
_diffrn_source                   'fine-focus sealed tube'
_exptl_absorpt_coefficient_mu    18.847
_exptl_absorpt_correction_T_max  1.0000
_exptl_absorpt_correction_T_min  0.6572
_exptl_absorpt_correction_type   multi-scan
_exptl_absorpt_process_details   'REQAB, CrystalClear'
_exptl_crystal_colour            green
_exptl_crystal_density_diffrn    4.585
_exptl_crystal_description       block
_exptl_crystal_F_000             874
_exptl_crystal_size_max          0.220
_exptl_crystal_size_mid          0.160
_exptl_crystal_size_min          0.120
_refine_diff_density_max         0.733
_refine_diff_density_min         -0.981
_refine_diff_density_rms         0.197
_refine_ls_abs_structure_details
;
 Flack x determined using 210 quotients [(I+)-(I-)]/[(I+)+(I-)]
 (Parsons, Flack and Wagner, Acta Cryst. B69 (2013) 249-259).
;
_refine_ls_abs_structure_Flack   -0.07(2)
_refine_ls_extinction_coef       0.0020(6)
_refine_ls_extinction_expression Fc^*^=kFc[1+0.001xFc^2^\l^3^/sin(2\q)]^-1/4^
_refine_ls_extinction_method     'SHELXL-2014/7 (Sheldrick 2014'
_refine_ls_goodness_of_fit_ref   1.057
_refine_ls_hydrogen_treatment    undef
_refine_ls_matrix_type           full
_refine_ls_number_parameters     59
_refine_ls_number_reflns         513
_refine_ls_number_restraints     13
_refine_ls_restrained_S_all      1.045
_refine_ls_R_factor_all          0.0380
_refine_ls_R_factor_gt           0.0379
_refine_ls_shift/su_max          0.000
_refine_ls_shift/su_mean         0.000
_refine_ls_structure_factor_coef Fsqd
_refine_ls_weighting_details
'w=1/[\s^2^(Fo^2^)+(0.0100P)^2^+23.8938P] where P=(Fo^2^+2Fc^2^)/3'
_refine_ls_weighting_scheme      calc
_refine_ls_wR_factor_gt          0.0846
_refine_ls_wR_factor_ref         0.0846
_reflns_Friedel_coverage         0.787
_reflns_Friedel_fraction_full    0.938
_reflns_Friedel_fraction_max     0.930
_reflns_number_gt                512
_reflns_number_total             513
_reflns_threshold_expression     'I > 2\s(I)'
_cod_data_source_file            cm6b05320_si_001.cif
_cod_data_source_block           cd1251a
_cod_depositor_comments
'Adding full bibliography for 4002702--4002703.cif.'
_cod_original_cell_volume        687.31(10)
_cod_database_code               4002703
_shelx_shelxl_version_number     2014/7
_shelx_space_group_comment
;
The symmetry employed for this shelxl refinement is uniquely defined
by the following loop, which should always be used as a source of
symmetry information in preference to the above space-group names.
They are only intended as comments.
;
_shelx_estimated_absorpt_t_min   0.104
_shelx_estimated_absorpt_t_max   0.211
_shelx_res_file
;

    cd1251a.res created by SHELXL-2014/7


TITL cd1251a in P6(3)mc
CELL 0.71073  10.4679  10.4679   7.2427  90.000  90.000 120.000
ZERR    2.00   0.0007   0.0007   0.0005   0.000   0.000   0.000
LATT -1
SYMM -Y, X-Y, Z
SYMM -X+Y, -X, Z
SYMM -X, -Y, 0.5+Z
SYMM Y, -X+Y, 0.5+Z
SYMM X-Y, X, 0.5+Z
SYMM -Y, -X, Z
SYMM -X+Y, Y, Z
SYMM X, X-Y, Z
SYMM Y, X, 0.5+Z
SYMM X-Y, -Y, 0.5+Z
SYMM -X, -X+Y, 0.5+Z
SFAC O K CL V GE SR
UNIT 32 2 2 6 8 4

L.S. 24
BOND
FMAP 2
PLAN 20
ACTA
EXYZ SR1 K1
EADP SR1 K1
TEMP 25
ISOR 0.005 O4 O5
size 0.22 0.16 0.12
WGHT    0.010000   23.893801
EXTI    0.001963
FVAR       0.13817
MOLE   1
SR1   6    0.863604    0.727208    0.728593    10.33333    0.01293    0.01083 =
         0.01745    0.00286    0.00143    0.00542
K1    2    0.863604    0.727208    0.728593    10.16667    0.01293    0.01083 =
         0.01745    0.00286    0.00143    0.00542
V1    4    0.772428    0.227572    1.173045    10.50000    0.00751    0.00751 =
         0.00883    0.00071   -0.00071    0.00339
GE1   5    0.666667    0.333333    0.764483    10.16667    0.00845    0.00845 =
         0.01253    0.00000    0.00000    0.00423
GE2   5    0.518953    0.481047    0.492996    10.50000    0.01099    0.01099 =
         0.00959   -0.00110    0.00110    0.00718
O1    1    0.666667    0.333333    1.008434    10.16667    0.00689    0.00689 =
         0.00571    0.00000    0.00000    0.00344
O2    1    0.845617    0.154383    1.305932    10.50000    0.01428    0.01428 =
         0.02193    0.00358   -0.00358    0.00669
O3    1    0.610971    0.672377    0.502798    11.00000    0.01890    0.01543 =
         0.03012   -0.00845    0.01007   -0.00282
O4    1    0.575637    0.424363    0.296415    10.50000    0.00498    0.00498 =
         0.00844    0.00057   -0.00057    0.00179
O5    1    0.629269    0.470771    0.677233    10.50000    0.02078    0.01395 =
         0.01177    0.00192   -0.00070    0.00568
CL1   3    1.000000    1.000000    0.499109    10.16667    0.01699    0.01699 =
         0.01567    0.00000    0.00000    0.00850

HKLF 4

REM  cd1251a in P6(3)mc
REM R1 =  0.0379 for     512 Fo > 4sig(Fo)  and  0.0380 for all     513 data
REM     59 parameters refined using     13 restraints

END

WGHT      0.0000     14.8762

REM Highest difference peak  0.733,  deepest hole -0.981,  1-sigma level  0.197
Q1    1   0.6667  0.3333  0.2559  10.16667  0.05    0.73
Q2    1   0.6190  0.6240  0.4252  11.00000  0.05    0.65
Q3    1   0.8970  0.7940  0.9106  10.50000  0.05    0.63
Q4    1   0.9224  0.8448  0.6355  10.50000  0.05    0.63
Q5    1   0.6103  0.2207  0.9160  10.50000  0.05    0.58
Q6    1   1.0000  1.0000  0.7469  10.16667  0.05    0.55
Q7    1   1.0663  1.1326  0.5064  10.50000  0.05    0.55
Q8    1   0.7854  0.5708  0.5918  10.50000  0.05    0.54
Q9    1   0.5363  0.6354  0.5512  11.00000  0.05    0.53
Q10   1   0.9197  0.6988  0.7095  11.00000  0.05    0.51
Q11   1   0.5958  0.6295  0.7050  11.00000  0.05    0.49
Q12   1   0.5005  0.6470  0.4290  11.00000  0.05    0.48
Q13   1   0.6450  0.5956  0.5502  11.00000  0.05    0.48
Q14   1   0.7155  0.4309  0.7985  10.50000  0.05    0.47
Q15   1   0.6071  0.5925  0.4954  11.00000  0.05    0.45
Q16   1   0.8192  0.8259  0.6795  11.00000  0.05    0.44
Q17   1   0.6313  0.5213  0.7140  11.00000  0.05    0.44
Q18   1   0.7097  0.4193  0.5744  10.50000  0.05    0.44
Q19   1   0.7226  0.7935  0.5044  11.00000  0.05    0.43
Q20   1   0.5916  0.6780  0.6486  11.00000  0.05    0.43
;
_shelx_res_checksum              12349
_shelx_hkl_file
;
  -2   0   0   52.20    4.19
   2   0   0   46.63    2.62
  -3   0   0   99.66    3.52
   3   0   0  105.46    3.71
  -4   0   0   59.55    3.11
   4   0   0   62.94    3.49
  -5   0   0  102.67    4.78
   5   0   0  102.55    4.49
  -6   0   0  231.87   11.52
   6   0   0  235.52   11.53
  -7   0   0    4.91    2.20
   7   0   0    3.06    1.63
  -8   0   0   83.82    5.11
   8   0   0   87.41    5.41
  -9   0   0   11.35    2.60
   9   0   0    4.80    1.79
 -10   0   0   82.15    7.28
  10   0   0   82.71    7.21
  11   0   0  104.40    9.50
 -11   1   0   47.57    4.19
  11  -1   0   33.72    3.65
 -10   1   0    2.27    2.03
  10  -1   0    0.75    1.40
  -9   1   0    7.54    2.37
   9  -1   0    4.03    2.38
  -8   1   0  228.57   10.95
   8  -1   0  223.89   10.65
  -7   1   0   14.91    2.97
   7  -1   0   13.91    2.54
  -6   1   0   53.96    4.03
   6  -1   0   54.93    4.40
  -5   1   0    1.43    1.33
   5  -1   0    4.19    2.07
  -4   1   0   -0.10    1.08
   4  -1   0    0.89    1.30
  -3   1   0   29.35    2.13
   3  -1   0   30.51    2.44
  -2   1   0    9.91    1.79
   2  -1   0    9.44    1.66
  -1  -1   0    7.39    1.22
   1   1   0    7.40    0.89
  -2  -1   0    5.52    1.49
   2   1   0    9.38    1.61
  -3  -1   0    9.59    1.30
   3   1   0   11.68    1.62
  -4  -1   0   13.74    1.97
   4   1   0   15.87    2.27
  -5  -1   0  111.86    5.94
   5   1   0  116.62    6.02
  -6  -1   0   62.22    4.18
   6   1   0   65.05    3.88
  -7  -1   0  175.28    8.77
   7   1   0  181.02    8.78
  -8  -1   0   -0.80    1.16
  -9  -1   0   11.61    2.45
   9   1   0   10.04    2.29
 -10  -1   0  205.06   18.90
  10   1   0  199.66    6.99
 -12   2   0   90.83    6.00
  12  -2   0   92.69    6.09
 -11   2   0    4.44    1.81
  11  -2   0   15.90    3.09
 -10   2   0    9.46    2.39
  10  -2   0    2.52    1.62
   9  -2   0  135.83    8.30
  -8   2   0   69.58    4.28
   8  -2   0   65.57    4.51
  -7   2   0   12.36    2.45
   7  -2   0   10.35    2.71
  -6   2   0   52.28    4.02
   6  -2   0   46.31    3.66
  -5   2   0   32.95    3.40
   5  -2   0   29.74    3.47
  -4   2   0 1104.19   22.30
   4  -2   0 1080.81   22.04
  -3   2   0    7.08    1.69
   3  -2   0    6.60    2.19
  -2   2   0   51.82    4.16
   2  -2   0   48.35    2.68
  -1   2   0    9.01    1.10
   1  -2   0   10.96    1.23
   1  -2   0    7.44    2.13
  -1   2   0    5.72    1.31
   0  -2   0   52.24    3.49
   0  -2   0   52.96    3.96
   0   2   0   52.12    4.16
  -1  -2   0   34.61    1.56
   1   2   0   36.75    1.56
   1   2   0   37.39    2.52
  -3  -2   0   80.61    3.25
   3   2   0   81.13    3.95
  -4  -2   0   41.99    2.51
   4   2   0   46.98    2.91
  -5  -2   0   21.61    2.54
   5   2   0   26.05    2.43
  -6  -2   0   12.85    2.32
   6   2   0    9.18    1.92
  -7  -2   0  204.57   10.72
   7   2   0  211.98   10.70
  -8  -2   0    6.46    1.85
   8   2   0   10.53    1.92
  -9  -2   0   17.83    2.46
   9   2   0   20.22    2.44
 -10  -2   0   79.56    4.74
  10   2   0   73.17    4.50
  10   2   0   64.06    5.08
  12  -3   0  250.43    9.46
 -11   3   0    9.71    2.80
  11  -3   0    3.27    1.70
 -10   3   0   37.93    5.21
  10  -3   0   28.26    4.33
  -9   3   0   41.92    3.97
   9  -3   0   37.44    3.79
  -8   3   0   42.74    3.59
   8  -3   0   41.39    4.03
  -7   3   0  352.12   16.61
   7  -3   0  319.28   15.27
  -6   3   0  798.15   30.41
   6  -3   0  722.87   27.73
  -5   3   0   72.05    3.57
   5  -3   0   71.34    3.95
  -4   3   0    8.78    1.64
   4  -3   0    8.92    1.90
  -3   3   0  108.76    3.70
   3  -3   0  103.02    3.94
  -2   3   0   32.53    1.78
   2  -3   0   31.07    2.18
   2  -3   0   36.90    3.11
  -1   3   0   10.31    1.83
   1  -3   0    7.57    1.02
   1  -3   0    7.21    2.19
  -1   3   0   10.30    1.68
   0  -3   0  115.45    2.67
   0  -3   0  113.48    2.56
   0  -3   0  114.39    3.84
   0   3   0  115.18    5.65
  -1  -3   0    0.07    0.35
   1   3   0    1.53    0.61
   1   3   0    0.83    0.79
  -2  -3   0   28.18    2.32
   2   3   0   33.52    2.60
   2   3   0   37.55    5.31
  -3  -3   0  844.30   31.01
   3   3   0  888.19   18.08
   3   3   0  867.84   32.56
  -4  -3   0  279.65   12.80
   4   3   0  271.22   12.21
  -5  -3   0   30.43    2.73
   5   3   0   31.32    2.44
  -6  -3   0    1.79    1.45
   6   3   0   -0.26    0.99
   7   3   0   19.23    2.91
  -8  -3   0    6.98    1.64
   8   3   0    5.05    1.37
   8   3   0   14.70    2.84
   9   3   0   91.61    4.64
   9   3   0   76.18   20.23
 -12   4   0   28.57    3.74
  12  -4   0   25.88    3.88
 -11   4   0    0.30    1.50
  11  -4   0    2.18    1.74
 -10   4   0    5.01    2.31
  10  -4   0    1.24    1.71
  -9   4   0   46.19    4.13
   9  -4   0   40.92    4.45
  -8   4   0  442.87   11.33
   8  -4   0  414.55   11.01
  -7   4   0  248.16   12.25
   7  -4   0  238.18   12.08
  -6   4   0   38.47    3.02
   6  -4   0   42.40    3.56
  -5   4   0   12.37    2.06
   5  -4   0   14.03    2.75
  -4   4   0   60.69    3.00
   4  -4   0   54.40    3.21
  -3   4   0    1.13    0.77
   3  -4   0    0.67    1.25
   3  -4   0    1.58    0.94
  -2   4   0 1308.73   24.41
   2  -4   0 1188.25   22.72
   2  -4   0 1293.31   24.28
  -2   4   0 1281.52   24.06
  -1   4   0   14.04    1.14
   1  -4   0   10.09    1.07
   1  -4   0   15.88    3.90
  -1   4   0   13.99    3.09
   0  -4   0   68.03    3.67
   0  -4   0   65.86    1.79
   0  -4   0   61.08    2.80
   0   4   0   64.43    6.02
  -1  -4   0    3.68    0.72
  -1  -4   0    1.70    0.63
   1   4   0    3.12    1.40
  -2  -4   0   48.17    2.42
   2   4   0   58.72    2.73
   2   4   0   55.34    5.19
  -3  -4   0  358.72   15.70
   3   4   0  369.43   15.89
   3   4   0  347.94   17.25
  -4  -4   0  494.58    7.44
   4   4   0  478.19    6.30
   4   4   0  461.78   11.24
  -5  -4   0   48.36    3.12
   5   4   0   47.68    2.81
   5   4   0   44.27    4.75
  -6  -4   0    6.14    1.61
   6   4   0    4.98    1.35
   6   4   0    5.56    1.03
  -7  -4   0    7.24    1.48
   7   4   0   10.79    1.59
   7   4   0    6.47    2.09
   8   4   0   28.86    2.52
   8   4   0   20.13    5.14
 -12   5   0    3.17    1.86
  12  -5   0    4.12    2.17
 -11   5   0    4.98    1.81
  11  -5   0   11.90    2.75
 -10   5   0  339.84   12.41
  10  -5   0  378.77   37.32
  -9   5   0   46.77    4.01
   9  -5   0   46.78    4.31
  -8   5   0   30.88    3.14
   8  -5   0   23.75    2.99
  -7   5   0   19.39    2.49
   7  -5   0   17.81    2.99
  -6   5   0  101.24    5.69
   6  -5   0  103.29    6.10
  -5   5   0  104.88    4.39
   5  -5   0   95.81    4.66
  -4   5   0    3.49    1.34
   4  -5   0    2.80    1.95
   4  -5   0    2.55    1.12
  -3   5   0   36.67    3.03
   3  -5   0   31.37    3.09
   3  -5   0   34.61    5.43
  -2   5   0   86.26    3.18
   2  -5   0   79.56    3.11
   2  -5   0   85.74    3.93
  -2   5   0   85.31    3.33
  -1   5   0   16.07    2.46
   1  -5   0   14.37    1.52
   1  -5   0   15.38    4.02
  -1   5   0   15.27    3.81
   0  -5   0  112.83    2.86
   0  -5   0  111.33    2.78
   0   5   0  106.10    4.54
  -1  -5   0   58.07    3.25
  -1  -5   0   53.74    2.44
   1   5   0   50.82    5.38
  -2  -5   0   10.93    1.08
   2   5   0   10.75    1.02
   2   5   0   10.66    2.20
  -3  -5   0   44.90    2.10
   3   5   0   45.43    1.87
   3   5   0   44.88    4.51
  -4  -5   0   41.65    2.59
   4   5   0   37.58    2.66
   4   5   0   37.55    8.33
  -5  -5   0  349.42   10.63
   5   5   0  329.34    9.61
   5   5   0  334.90   12.37
  -6  -5   0    0.45    0.70
   6   5   0    0.95    0.62
   6   5   0    1.20    1.74
  -7  -5   0    0.82    1.01
   7   5   0    1.46    0.97
   7   5   0    2.27    0.94
 -12   6   0   44.46    4.43
  12  -6   0   42.60    4.55
 -11   6   0    2.41    2.23
  11  -6   0   -1.11    1.83
 -10   6   0    7.06    2.46
  10  -6   0    4.41    2.06
  -9   6   0    5.49    2.23
   9  -6   0    2.38    1.73
  -8   6   0   15.33    2.94
   8  -6   0    6.40    2.67
  -7   6   0   60.57    4.00
   7  -6   0   52.45    4.15
  -6   6   0  240.82   11.64
   6  -6   0  233.30   11.90
   6  -6   0  239.62   10.74
  -5   6   0   56.54    3.40
   5  -6   0   52.16    3.96
   5  -6   0   56.57    3.27
  -4   6   0   50.47    3.00
   4  -6   0   48.92    3.56
   4  -6   0   57.69    3.78
  -3   6   0  922.67   12.39
   3  -6   0  852.86   31.60
   3  -6   0  922.71   12.99
  -3   6   0  867.36   31.83
  -2   6   0   52.41    3.86
   2  -6   0   48.05    2.82
   2  -6   0   48.67    5.83
  -2   6   0   52.38    8.62
   1  -6   0  109.18    4.58
   1  -6   0  112.33    4.48
   1  -6   0  109.28    6.56
  -1   6   0  107.81    6.17
   0  -6   0  240.25   10.25
   0  -6   0  248.20   10.53
   0   6   0  237.94   11.60
  -1  -6   0   18.59    2.65
  -1  -6   0   14.10    0.96
   1   6   0   17.47    3.12
  -2  -6   0   62.39    2.67
  -2  -6   0   64.16    1.95
   2   6   0   61.58    6.02
  -3  -6   0   37.91    1.77
   3   6   0   40.44    5.18
  -4  -6   0    2.42    0.72
   4   6   0    1.72    0.72
   4   6   0    1.63    0.86
   5   6   0    7.14    1.07
   5   6   0    7.51    2.47
   6   6   0   43.14    2.17
   6   6   0   37.53    8.75
 -12   7   0    1.31    1.58
  12  -7   0    1.70    2.05
 -11   7   0    6.08    1.79
  11  -7   0   13.45    3.48
 -10   7   0   17.74    3.30
  10  -7   0   20.07    4.01
  -9   7   0  163.18    9.24
   9  -7   0  177.19   10.16
  -8   7   0  168.54    8.48
   8  -7   0  152.82    8.41
  -7   7   0    4.67    1.72
   7  -7   0    4.86    1.98
   7  -7   0    5.32    1.23
  -6   7   0   14.74    2.19
   6  -7   0   15.46    2.64
   6  -7   0   14.47    1.48
  -5   7   0   13.06    1.77
   5  -7   0   11.99    2.67
   5  -7   0   11.30    2.47
  -4   7   0  358.24   16.06
   4  -7   0  347.09   15.90
   4  -7   0  358.59   15.91
  -3   7   0  280.59   12.74
   3  -7   0  280.70   12.83
   3  -7   0  270.70   12.76
  -3   7   0  277.71   12.79
  -2   7   0   22.58    3.00
   2  -7   0   21.50    1.81
   2  -7   0   22.16    3.84
  -2   7   0   19.61    4.97
   1  -7   0   56.31    2.09
   1  -7   0   61.92    1.79
   1  -7   0   55.34    3.30
  -1   7   0   67.26   11.30
   0  -7   0    3.63    0.57
   0  -7   0    3.14    0.45
   0   7   0    2.22    0.70
   1   7   0  235.90   10.85
   2   7   0  128.50   10.36
  -3  -7   0   32.41    3.30
   3   7   0   33.78    7.43
  -4  -7   0    1.49    0.56
   4   7   0   -0.29    0.99
  -5  -7   0    0.15    0.46
   5   7   0   -0.28    1.47
 -12   8   0   27.04    3.49
  12  -8   0   28.80    4.35
 -11   8   0    3.19    1.93
  11  -8   0   10.36    3.07
 -10   8   0    7.89    2.27
  10  -8   0    7.92    2.53
  -9   8   0   -0.81    1.10
   9  -8   0    0.68    0.93
  -8   8   0   82.47    4.73
   8  -8   0   76.33    5.06
   8  -8   0   80.18    3.77
  -7   8   0  216.52    9.75
   7  -8   0  237.28   11.50
   7  -8   0  230.85    9.56
  -6   8   0   68.18    3.63
   6  -8   0   65.96    4.21
   6  -8   0   67.49    4.29
  -5   8   0   50.37    3.95
   5  -8   0   46.17    3.22
   5  -8   0   38.26    4.88
  -4   8   0  476.93   10.75
   4  -8   0  464.50   10.04
   4  -8   0  456.94    9.66
  -4   8   0  455.65    9.48
  -3   8   0   31.17    2.08
   3  -8   0   27.37    2.22
   3  -8   0   32.70    7.39
  -3   8   0   31.64    2.53
   2  -8   0    7.87    1.34
   2  -8   0   11.77    1.01
   2  -8   0   10.00    3.29
  -2   8   0    9.79    1.98
   1  -8   0  164.73    6.52
   1  -8   0  171.13    6.52
  -1   8   0  149.88   10.17
   0   8   0   84.65    9.29
   1   8   0    4.59    1.60
   2   8   0    3.85    1.13
   3   8   0    3.53    0.97
   4   8   0   26.69    5.61
 -12   9   0   97.49    5.74
  12  -9   0  101.27    7.42
 -11   9   0   14.42    2.39
  11  -9   0   29.00    4.61
  11  -9   0   22.13    2.00
 -10   9   0   10.86    2.36
  10  -9   0   10.82    2.76
  10  -9   0    9.61    1.58
  -9   9   0    7.57    2.00
   9  -9   0    9.48    2.91
   9  -9   0    6.43    1.61
  -8   9   0    1.03    1.13
   8  -9   0    5.96    2.15
   8  -9   0    6.03    1.74
  -7   9   0  141.52    7.77
   7  -9   0  138.00    8.21
   7  -9   0  130.31   12.68
  -6   9   0   37.15    6.15
   6  -9   0   36.79    3.18
   6  -9   0   31.97    4.16
  -5   9   0   44.78    4.40
   5  -9   0   41.67    3.40
   5  -9   0   43.49    9.27
  -4   9   0   53.69    5.32
   4  -9   0   48.64    3.25
   4  -9   0   40.71    5.54
  -4   9   0   50.35    3.32
  -3   9   0    1.62    0.39
   3  -9   0    0.71    0.74
   3  -9   0    1.79    1.04
  -3   9   0    0.74    1.22
   2  -9   0  194.40    8.86
   2  -9   0  206.09    9.09
  -2   9   0  190.10    9.92
  -1   9   0   -0.05    1.18
   0   9   0    8.61    1.91
   1   9   0    0.89    0.98
   2   9   0    7.67    1.85
   3   9   0  232.99   17.37
  12 -10   0   71.63    5.95
  12 -10   0   69.89    3.70
  11 -10   0  200.68    8.67
  11 -10   0  205.98   18.40
 -10  10   0   85.19    7.56
  10 -10   0   82.88    7.60
  10 -10   0   81.39    6.37
  -9  10   0    1.75    1.75
   9 -10   0    1.84    1.46
   9 -10   0    1.44    1.23
  -8  10   0    7.43    1.76
   8 -10   0    6.70    1.93
   8 -10   0    5.64    1.06
  -7  10   0   35.52    7.29
   7 -10   0   29.34    4.06
   7 -10   0   32.09    7.63
  -6  10   0    1.81    0.85
   6 -10   0    0.97    1.15
   6 -10   0    4.21    1.40
  -5  10   0  336.94   11.43
   5 -10   0  345.94   11.22
   5 -10   0  325.11   11.27
  -4  10   0    5.09    1.19
   4 -10   0    1.83    0.90
   4 -10   0    7.29    1.63
  -4  10   0    3.81    1.32
   3 -10   0   18.22    2.33
   3 -10   0   24.39    2.69
   3 -10   0   19.08    4.78
  -3  10   0   18.68    2.76
   2 -10   0    5.36    0.71
   2 -10   0    7.03    0.66
  -2  10   0    5.33    1.75
  -1  10   0   11.71    1.69
   0  10   0   69.54   13.31
   1  10   0   26.70    6.74
   2  10   0   61.40   12.73
  11 -11   0  130.34    7.85
 -10  11   0   47.86    5.25
  10 -11   0   40.46    4.09
  -9  11   0    7.84    1.73
   9 -11   0    3.06    1.64
   9 -11   0    6.24    1.40
  -8  11   0    4.02    1.16
   8 -11   0    4.23    1.82
   8 -11   0    5.68    1.40
  -7  11   0    0.79    0.92
   7 -11   0   -0.05    0.99
   7 -11   0    0.78    0.70
  -6  11   0    7.28    1.34
   6 -11   0    6.78    1.61
   6 -11   0    6.98    1.90
  -5  11   0    2.25    0.78
   5 -11   0    0.47    0.71
   5 -11   0   -0.01    0.54
   4 -11   0    8.28    1.31
   4 -11   0    8.33    1.93
  -4  11   0    9.25    1.70
   3 -11   0    5.21    1.16
  -3  11   0    6.38    1.61
  -2  11   0   18.05    2.39
  -1  11   0  182.80   18.28
   0  11   0   84.50   14.92
  10 -12   0   73.59   10.02
  -9  12   0  222.43   11.90
   9 -12   0  233.03   21.37
  -8  12   0   22.31    6.43
   8 -12   0   30.38    3.39
   8 -12   0   23.74    6.23
  -7  12   0    1.71    0.89
   7 -12   0    2.89    1.49
  -6  12   0   42.52    4.35
   6 -12   0   40.49    2.98
   6 -12   0   35.60   10.17
  -5  12   0    0.15    0.40
   5 -12   0    2.92    1.45
   4 -12   0   23.44    2.54
  -4  12   0   24.64    2.63
  -3  12   0   80.61    4.51
  -2  12   0   61.27    4.68
   3 -12  -1   23.04    1.93
   4 -12  -1  148.32    4.54
   4 -12  -1  139.67    5.80
   5 -12  -1   40.07    3.12
   5 -12  -1   31.36    9.51
  -6  12   1    9.81    2.54
   6 -12  -1   10.46    2.12
   6 -12  -1    8.94    2.55
  -7  12   1   44.01    4.84
   7 -12  -1   49.25    3.99
   7 -12  -1   39.63   10.84
  -8  12   1   83.02    7.75
   8 -12  -1   68.84   14.38
   9 -12  -1   20.91    3.48
   9 -12  -1   15.28    3.96
  -1  11   1   15.50    2.89
   2 -11  -1   91.09    5.56
   2 -11  -1   88.79    5.17
  -2  11   1   81.95    6.38
   3 -11  -1   35.91    3.33
   3 -11  -1   38.34    3.26
   3 -11  -1   31.99    7.98
  -3  11   1   43.78    4.55
   4 -11  -1  123.01    5.20
   4 -11  -1  121.02    4.55
   4 -11  -1  109.46   15.88
  -4  11   1  107.04    5.51
  -5  11   1   40.53    8.90
   5 -11  -1   38.73    3.19
   5 -11  -1   31.23    8.42
  -6  11   1   87.07    9.27
   6 -11  -1   84.38    4.71
   6 -11  -1   79.32    9.99
  -7  11   1   62.94    4.97
   7 -11  -1   73.24    4.80
   7 -11  -1   76.11   11.41
  -8  11   1   82.53   12.92
   8 -11  -1   83.92    7.35
   8 -11  -1   79.11    9.24
  -9  11   1   78.22    8.36
   9 -11  -1   62.02    5.88
   9 -11  -1   59.68    7.25
 -10  11   1   15.63    4.04
  10 -11  -1    5.07    2.03
  10 -11  -1   10.36    3.00
 -11  11   1   55.52   13.88
  11 -11  -1   60.63    5.30
  11 -11  -1   64.17    3.73
   1  10   1   11.93    2.77
   0 -10  -1   52.58    3.77
   0  10   1   77.96   16.13
   1 -10  -1   13.35    1.39
   1 -10  -1   13.14    2.42
  -1  10   1   17.61    3.25
   2 -10  -1   41.99    3.12
   2 -10  -1   49.53    3.29
   2 -10  -1   45.48   12.40
  -2  10   1   41.41    4.00
   3 -10  -1   42.45    4.77
   3 -10  -1   45.10    4.82
   3 -10  -1   38.61    8.43
  -3  10   1   26.01    3.67
  -4  10   1   96.86    5.89
   4 -10  -1   98.84    6.42
   4 -10  -1   82.26    8.75
  -5  10   1    2.04    0.79
   5 -10  -1    1.65    1.58
   5 -10  -1    1.27    0.90
  -6  10   1   90.09    9.34
   6 -10  -1   92.51    6.60
   6 -10  -1   97.19   10.49
  -7  10   1   19.87    5.90
   7 -10  -1   29.84    4.17
   7 -10  -1   28.33    6.64
  -8  10   1   17.96    4.15
   8 -10  -1   20.40    3.13
   8 -10  -1   18.79    3.41
  -9  10   1   17.53    4.83
   9 -10  -1   19.65    3.26
   9 -10  -1   14.93    3.56
  10 -10  -1   49.08    5.51
  10 -10  -1   56.21    4.89
 -11  10   1    9.43    2.04
  11 -10  -1   11.96    3.01
  11 -10  -1   11.84    2.26
   3   9   1   16.33    4.13
   2   9   1   63.91   11.26
  -1  -9  -1   18.60    1.34
  -1  -9  -1   19.54    1.34
   1   9   1   19.01    4.80
   0  -9  -1  177.87    9.40
   0  -9  -1  173.86   10.70
   0   9   1  144.85    9.11
   1  -9  -1   39.03    2.18
   1  -9  -1   38.55    1.82
   1  -9  -1   35.41    3.27
  -1   9   1   47.46    9.66
   2  -9  -1  263.39   11.84
  -2   9   1  253.13   12.73
   3  -9  -1   29.12    2.31
   3  -9  -1   31.27    6.38
  -3   9   1   20.09    2.48
  -4   9   1  122.64   11.28
   4  -9  -1  127.70    5.55
   4  -9  -1  114.78    5.43
  -5   9   1   97.21   10.46
   5  -9  -1   96.39    5.07
   5  -9  -1   92.00    8.41
  -6   9   1   47.07    9.15
   6  -9  -1   62.02    4.27
   6  -9  -1   50.88    6.39
  -7   9   1  238.76   16.70
   7  -9  -1  235.40   12.41
   7  -9  -1  222.91   10.86
  -8   9   1   50.13    8.36
   8  -9  -1   45.45    4.36
   8  -9  -1   45.71    3.29
  -9   9   1  151.93   10.07
   9  -9  -1  170.76   11.29
   9  -9  -1  165.18    9.46
 -10   9   1   15.25    2.62
  10  -9  -1   20.33    3.51
  10  -9  -1   14.90    1.95
 -11   9   1   82.69    6.56
  11  -9  -1   66.89    6.29
 -12   9   1   19.06    3.22
  12  -9  -1   17.77    3.48
  -4  -8  -1   83.80    3.90
   4   8   1   78.18   17.97
  -3  -8  -1   73.17    5.47
  -3  -8  -1   80.46    5.84
   3   8   1   90.28   11.70
  -2  -8  -1   18.09    3.28
  -2  -8  -1   19.00    1.39
   2   8   1   17.42    3.42
  -1  -8  -1   40.06    5.43
  -1  -8  -1   46.43    2.30
   1   8   1   38.95    6.22
   0  -8  -1   12.10    1.36
   0  -8  -1   10.61    1.99
   0   8   1   13.26    2.82
   1  -8  -1   37.91    2.04
   1  -8  -1   40.12    1.85
   1  -8  -1   40.24    8.43
  -1   8   1   37.32    7.75
   2  -8  -1  172.33   10.21
   2  -8  -1  161.79    9.48
   2  -8  -1  154.58   10.49
  -2   8   1  160.06   10.21
  -3   8   1   21.30    4.17
   3  -8  -1   13.20    1.78
   3  -8  -1   16.26    3.02
  -3   8   1   22.15    2.21
  -4   8   1   -0.72    0.70
   4  -8  -1    0.22    0.99
   4  -8  -1   -0.45    1.21
  -5   8   1   36.24    3.89
   5  -8  -1   36.25    2.89
   5  -8  -1   43.23    8.16
  -6   8   1   97.69    9.19
   6  -8  -1   99.38    6.10
   6  -8  -1   86.91    8.07
  -7   8   1   16.66    3.37
   7  -8  -1   14.73    2.43
   7  -8  -1   13.55    1.84
  -8   8   1   13.45    2.41
   8  -8  -1    9.71    2.21
   8  -8  -1   10.61    1.54
  -9   8   1   40.05    3.45
   9  -8  -1   27.66    3.47
 -10   8   1   40.12    3.98
  10  -8  -1   48.22    5.23
 -11   8   1   42.70    4.79
  11  -8  -1   30.02    4.00
 -12   8   1  139.27    6.85
  12  -8  -1  144.19    7.58
   5   7   1   43.26    9.56
  -4  -7  -1   73.53    5.33
  -4  -7  -1   77.06    3.55
   4   7   1   59.68   10.48
  -3  -7  -1   29.32    4.73
  -3  -7  -1   24.60    2.93
   3   7   1   20.79    4.06
  -2  -7  -1  225.13   10.20
  -2  -7  -1  228.26   10.39
   2   7   1  212.61   15.76
  -1  -7  -1   17.96    3.17
  -1  -7  -1   17.57    3.28
   1   7   1   16.34    2.40
   0  -7  -1  210.84   12.16
   0  -7  -1  197.95   11.26
   0  -7  -1  196.19   12.10
   0   7   1  209.83   12.85
   1  -7  -1   18.49    1.60
   1  -7  -1   18.43    1.47
   1  -7  -1   21.57    3.27
  -1   7   1   24.23    4.62
  -2   7   1  198.41    9.03
   2  -7  -1  228.63   10.46
   2  -7  -1  207.25   11.81
  -2   7   1  202.99   10.05
   3  -7  -1  146.84    4.38
   3  -7  -1  137.72    4.55
  -4   7   1  294.41   14.01
   4  -7  -1  256.22   12.11
   4  -7  -1  259.07   12.19
  -5   7   1  202.67   12.91
   5  -7  -1  221.36   11.02
   5  -7  -1  233.48   10.89
  -6   7   1   67.13    8.81
   6  -7  -1   52.94    4.08
   6  -7  -1   52.29    2.64
  -7   7   1  216.20    6.23
   7  -7  -1  192.82   12.53
   7  -7  -1  188.33   11.13
  -8   7   1   32.39    2.98
   8  -7  -1   34.41    3.49
  -9   7   1  233.86   12.12
   9  -7  -1  256.39   13.87
 -10   7   1   19.47    3.40
  10  -7  -1   40.17    5.72
 -11   7   1   96.08    5.87
  11  -7  -1  106.15    6.56
 -12   7   1   29.67    3.28
  12  -7  -1   39.65    4.53
   6   6   1   11.06    1.44
   6   6   1   12.80    2.39
  -5  -6  -1   84.43    4.01
   5   6   1   87.29    4.74
   5   6   1   96.24    9.25
  -4  -6  -1   87.52    5.52
   4   6   1   92.54    5.58
   4   6   1   85.76    7.77
  -3  -6  -1   64.71    3.32
   3   6   1   49.28    7.17
  -2  -6  -1  101.61    6.90
  -2  -6  -1   99.43    6.13
   2   6   1   94.70   10.47
  -1  -6  -1   54.43    3.94
  -1  -6  -1   51.17    2.14
   1   6   1   57.19    6.98
   0  -6  -1  171.32    8.23
   0  -6  -1  176.25    7.96
   0  -6  -1  174.56    9.22
   0   6   1  164.82    9.23
   1  -6  -1   73.54    7.19
   1  -6  -1   71.13    3.37
   1  -6  -1   78.01    4.80
  -1   6   1   57.50    8.72
  -2   6   1    9.42    1.74
   2  -6  -1    9.62    1.43
   2  -6  -1   10.23    2.05
  -2   6   1    7.81    1.56
  -3   6   1    4.65    1.15
   3  -6  -1    3.99    1.53
   3  -6  -1    4.60    1.04
  -3   6   1    4.78    1.36
  -4   6   1   44.05    3.50
   4  -6  -1   40.57    2.66
   4  -6  -1   43.45    5.35
  -5   6   1   15.11    2.93
   5  -6  -1   13.20    2.26
   5  -6  -1   13.05    1.46
  -6   6   1  161.91    8.36
   6  -6  -1  172.39    9.41
  -7   6   1   23.62    2.46
   7  -6  -1   17.13    3.13
  -8   6   1  147.30    7.70
   8  -6  -1  155.13    8.55
  -9   6   1   22.02    2.84
   9  -6  -1   25.58    3.47
 -10   6   1   88.12    6.67
  10  -6  -1   85.36    6.89
 -11   6   1   40.48    3.84
  11  -6  -1   32.40    3.72
 -12   6   1    9.55    2.29
  12  -6  -1    9.31    2.78
  -7  -5  -1   39.66    3.02
   7   5   1   30.13    2.42
   7   5   1   35.92    5.87
  -6  -5  -1   42.57    3.28
   6   5   1   44.81    2.85
   6   5   1   45.79    8.90
  -5  -5  -1    4.44    1.83
   5   5   1    0.69    0.78
   5   5   1    1.92    0.86
  -4  -5  -1   87.08    3.92
   4   5   1   85.75    5.43
   4   5   1   90.62    7.32
  -3  -5  -1   40.58    2.47
   3   5   1   33.75    2.05
   3   5   1   35.41    7.40
  -2  -5  -1  231.33   10.43
   2   5   1  190.35    8.66
   2   5   1  186.95   10.86
  -1  -5  -1   20.19    3.40
  -1  -5  -1   15.36    2.89
   1   5   1   16.26    2.12
   0  -5  -1  502.06   10.81
   0  -5  -1  494.36   10.50
   0  -5  -1  493.57   11.96
   0   5   1  494.36   12.06
   1  -5  -1   61.31    5.19
   1  -5  -1   59.44    4.35
   1  -5  -1   55.25    5.43
  -1   5   1   50.95    6.43
  -2   5   1   85.20    2.96
   2  -5  -1   88.37    3.27
   2  -5  -1   89.41    4.32
  -2   5   1   90.75    3.63
  -3   5   1   60.48    5.74
   3  -5  -1   63.03    4.98
   3  -5  -1   72.13    3.24
  -4   5   1  103.76    5.10
   4  -5  -1  108.81    4.45
   4  -5  -1  116.06    3.80
  -5   5   1  482.81   11.82
   5  -5  -1  489.26   12.63
  -6   5   1   54.98    3.94
   6  -5  -1   69.39    4.85
  -7   5   1  187.62    9.63
   7  -5  -1  226.37   11.88
  -8   5   1   18.58    2.71
   8  -5  -1   10.62    2.38
  -9   5   1  106.22    5.77
   9  -5  -1  121.65    6.96
 -10   5   1    1.27    1.46
  10  -5  -1    1.47    1.69
 -11   5   1   99.30    6.17
  11  -5  -1   78.78    5.59
 -12   5   1   47.22    4.62
  12  -5  -1   58.97    5.68
  -8  -4  -1  152.07    5.84
   8   4   1  148.86    5.26
   8   4   1  165.08   12.70
  -7  -4  -1  126.16    5.80
   7   4   1   98.91    4.62
   7   4   1  103.09   10.84
  -6  -4  -1   94.81    6.49
   6   4   1   96.14    6.20
   6   4   1   88.87    9.88
  -5  -4  -1  124.05    5.39
   5   4   1  123.60    5.13
   5   4   1  106.94    9.73
  -4  -4  -1   -0.16    1.03
   4   4   1    2.29    1.40
   4   4   1    1.83    1.03
  -3  -4  -1  255.97   11.61
   3   4   1  313.32   13.82
   3   4   1  314.19   16.38
  -2  -4  -1   41.80    2.04
   2   4   1   38.88    1.82
   2   4   1   43.14    7.56
  -1  -4  -1  123.08    3.63
  -1  -4  -1  110.18    4.22
   1   4   1  113.76   11.31
   0  -4  -1  174.75    4.76
   0  -4  -1  168.87    4.33
   0  -4  -1  168.80    5.44
  -1   4   1   68.34    3.22
   1  -4  -1   63.37    4.07
   1  -4  -1   62.16    4.61
  -1   4   1   64.52    5.02
  -2   4   1   16.04    1.60
   2  -4  -1   13.50    1.47
   2  -4  -1   17.14    3.44
  -2   4   1   13.24    1.47
  -3   4   1   75.12    6.56
   3  -4  -1   65.74    3.00
   3  -4  -1   65.32    2.61
  -4   4   1  147.77    4.92
   4  -4  -1  160.83    5.42
  -5   4   1   48.78    4.17
   5  -4  -1   53.62    5.09
  -6   4   1    9.00    1.83
   6  -4  -1    7.51    2.56
   7  -4  -1  124.27    5.65
  -8   4   1    0.90    1.45
   8  -4  -1    3.98    1.96
  -9   4   1   90.37    5.45
   9  -4  -1   93.15    5.80
 -10   4   1   89.29    6.95
  10  -4  -1   85.91    6.66
 -11   4   1   66.64    5.35
  11  -4  -1   83.02    6.01
 -12   4   1  100.30    5.86
  12  -4  -1   74.29    5.75
  -9  -3  -1   22.29    2.73
   9   3   1   21.63    2.68
   9   3   1   21.97    5.55
  -8  -3  -1   37.44    4.12
   8   3   1   42.41    4.28
   8   3   1   40.44   11.95
  -7  -3  -1   44.13    5.34
   7   3   1   27.83    3.74
   7   3   1   23.49    5.39
  -6  -3  -1   28.00    2.57
   6   3   1   23.86    2.56
   6   3   1   19.11    4.73
  -5  -3  -1   11.30    1.78
   5   3   1   17.84    2.03
   5   3   1   21.17    5.63
  -4  -3  -1  143.32    4.52
   4   3   1  184.06    8.85
   4   3   1  176.09   11.17
  -3  -3  -1    1.53    0.88
   3   3   1    4.67    1.31
   3   3   1    6.88    1.29
  -2  -3  -1   66.47    2.65
   2   3   1   53.35    3.98
   2   3   1   63.40   11.01
  -1  -3  -1   67.48    2.44
   1   3   1   74.03    2.49
  -1  -3  -1   69.09    4.77
   1   3   1   71.60    6.49
   0  -3  -1  825.14   15.97
   0  -3  -1  824.46   15.76
   0  -3  -1  792.50   16.16
   0   3   1  757.71   15.30
  -1   3   1  268.76    5.94
   1  -3  -1  261.00    5.96
   1  -3  -1  259.33    6.08
  -1   3   1  253.94    6.08
  -2   3   1  295.07    7.03
   2  -3  -1  281.42    6.65
   2  -3  -1  284.75    6.37
  -3   3   1  770.40   15.56
   3  -3  -1  805.48   16.41
  -4   3   1   60.14    2.83
   4  -3  -1   53.39    3.32
  -5   3   1   75.92    3.38
   5  -3  -1   85.33    4.42
  -6   3   1    2.43    2.04
   6  -3  -1    2.04    1.71
  -7   3   1  288.14   13.92
   7  -3  -1  258.25   13.01
  -8   3   1   39.58    3.72
   8  -3  -1   31.59    3.45
  -9   3   1   43.04    4.12
   9  -3  -1   50.12    4.11
 -10   3   1   23.36    3.93
  10  -3  -1   28.28    4.20
 -11   3   1   90.68    8.10
  11  -3  -1   92.03    8.26
 -12   3   1   17.90    3.11
  12  -3  -1   18.42    3.10
  -9  -2  -1   88.51    6.91
   9   2   1   96.03    6.87
   9   2   1   71.19   18.12
  -8  -2  -1   49.71    4.60
   8   2   1   38.01   10.83
   8   2   1   45.25    4.43
  -7  -2  -1  250.98   12.63
   7   2   1  257.51   12.83
   7   2   1  228.30   15.90
  -6  -2  -1  153.45    7.67
   6   2   1  151.41    7.39
   6   2   1  146.59   10.29
  -5  -2  -1  194.27    9.50
   5   2   1  200.56    9.86
   5   2   1  194.92   17.06
  -4  -2  -1   11.45    2.34
   4   2   1    5.89    1.44
   4   2   1    7.99    1.68
  -3  -2  -1   91.20    3.48
   3   2   1   84.99    4.83
   3   2   1   80.88    6.28
  -2  -2  -1   12.67    1.17
   2   2   1   15.02    1.35
   2   2   1   18.37    2.63
  -1  -2  -1  267.29    6.05
   1   2   1  280.21    6.23
  -1  -2  -1  271.32    6.78
   1   2   1  286.19    6.93
   0  -2  -1    2.68    1.25
   0  -2  -1    6.57    1.50
   0  -2  -1    5.59    1.41
   0   2   1    6.53    1.56
  -1   2   1    3.05    1.06
   1  -2  -1    7.28    0.99
   1  -2  -1    5.42    1.42
  -2   2   1    5.95    1.81
   2  -2  -1    4.97    1.32
  -3   2   1  252.85    6.27
   3  -2  -1  244.52    6.35
  -4   2   1   14.56    1.62
   4  -2  -1   12.64    1.95
  -5   2   1   51.39    4.45
   5  -2  -1   67.97    3.79
  -6   2   1   35.98    2.99
   6  -2  -1   39.27    3.38
  -7   2   1  191.46   10.13
   7  -2  -1  217.97   11.28
  -8   2   1  101.50    6.18
   8  -2  -1   89.64    5.83
   9  -2  -1  236.69   12.58
 -10   2   1   22.32    3.05
  10  -2  -1   18.92    3.04
 -11   2   1   69.79    6.22
  11  -2  -1   61.22    5.56
  12  -2  -1   11.75    3.45
 -10  -1  -1    9.65    2.32
  10   1   1   13.58    2.74
  10   1   1   10.24    3.88
  -9  -1  -1   15.49    2.60
   9   1   1   14.09    2.17
   9   1   1   10.50    2.18
  -8  -1  -1   39.42    3.48
   8   1   1   41.76    3.51
  -7  -1  -1   40.32    3.59
   7   1   1   37.87    3.08
  -6  -1  -1   16.37    2.52
   6   1   1   20.23    2.50
  -5  -1  -1   55.71    3.64
   5   1   1   55.70    3.69
  -4  -1  -1   53.57    4.57
   4   1   1   47.45    4.05
  -3  -1  -1   57.49    2.65
   3   1   1   63.65    2.83
   3   1   1   64.06    3.13
  -2  -1  -1  235.66    5.63
   2   1   1  240.30    5.87
   2   1   1  247.43    6.95
  -1  -1  -1    5.75    1.80
   1   1   1    4.38    1.61
  -1  -1  -1    1.74    0.77
   1   1   1    2.81    0.86
   0  -1  -1    6.01    0.93
   0  -1  -1    4.38    1.51
  -1   1   1   13.36    3.13
   1  -1  -1    9.69    1.57
  -2   1   1    3.83    1.14
   2  -1  -1    5.32    1.33
  -3   1   1  261.78    6.38
   3  -1  -1  251.78    6.35
  -4   1   1   62.91    3.09
   4  -1  -1   64.92    3.41
  -5   1   1   90.17    4.12
   5  -1  -1  112.02    4.90
  -6   1   1   15.78    2.50
   6  -1  -1   17.53    2.60
  -7   1   1   55.27    3.91
   7  -1  -1   41.71    3.20
  -8   1   1   19.12    2.84
   8  -1  -1   16.68    2.89
  -9   1   1   46.78    4.51
   9  -1  -1   40.44    3.70
 -10   1   1   19.16    2.74
  10  -1  -1   18.27    2.79
 -11   1   1   13.89    2.71
  11  -1  -1   17.35    3.50
 -11   0  -1   48.66    3.97
  11   0   1   66.00    4.86
 -10   0  -1   54.65    5.57
  10   0   1   76.22    6.86
  -9   0  -1  173.63   10.99
   9   0   1  153.58    9.73
  -8   0  -1   11.70    2.30
   8   0   1   12.91    2.12
  -7   0  -1  183.32   11.66
   7   0   1  207.94   12.86
  -6   0  -1  172.12    9.00
   6   0   1  160.32    8.40
  -5   0  -1  422.11   10.74
   5   0   1  447.89   11.15
  -4   0  -1  154.99    5.08
   4   0   1  128.46    4.56
  -3   0  -1  745.24   15.15
   3   0   1  720.10   14.77
  -2   0  -1    8.65    1.97
   2   0   1   11.27    2.18
   2   0   1    7.03    1.75
  -1   0  -1    6.24    0.91
  -1   0  -1    8.01    1.71
   1   0   1   15.38    2.37
   0   0  -1    0.54    0.57
   0   0   1   -0.51    0.55
  -1   0   1    9.94    1.04
   1   0  -1    8.65    1.74
  -2   0   1    3.85    0.95
   2   0  -1    4.92    1.31
  -3   0   1  708.30   14.40
   3   0  -1  734.28   15.08
  -4   0   1  134.33    4.71
   4   0  -1  147.51    4.99
  -5   0   1  438.91   11.25
   5   0  -1  462.27   11.79
  -6   0   1  156.47    5.36
   6   0  -1  155.57    5.08
  -7   0   1  212.94    6.82
   7   0  -1  212.02   13.23
  -8   0   1   15.52    2.66
   8   0  -1   13.27    2.62
  -9   0   1  164.38   10.29
   9   0  -1  181.11   11.09
 -10   0   1   89.95    7.63
  10   0  -1   55.68    5.47
 -11   0   1   66.41    4.47
  11   0  -1   63.67    4.71
 -11   1  -1   10.70    2.80
  11  -1   1   17.19    3.29
 -10   1  -1   19.06    3.17
  10  -1   1   18.56    5.23
   9  -1   1   35.86    3.15
  -8   1  -1   16.54    3.12
   8  -1   1   11.08    2.21
  -7   1  -1   50.30    3.78
   7  -1   1   55.06    4.07
  -6   1  -1   17.42    2.53
   6  -1   1    5.96    1.92
  -5   1  -1  106.20    4.58
   5  -1   1   94.49    4.43
  -4   1  -1   59.80    3.00
   4  -1   1   60.54    3.45
  -3   1  -1  271.96    6.89
   3  -1   1  266.14    6.77
  -2   1  -1    6.93    1.87
   2  -1   1    6.99    2.01
  -1   1  -1    6.27    1.14
   1  -1   1   12.47    1.47
   0   1  -1    7.25    0.80
   0  -1   1   11.61    1.16
  -1  -1   1    4.02    0.62
   1   1  -1    2.84    0.77
  -2  -1   1  243.14    5.41
   2   1  -1  229.16    5.42
  -3  -1   1   58.75    2.49
   3   1  -1   49.94    3.93
  -4  -1   1   48.17    4.01
   4   1  -1   46.27    3.99
  -5  -1   1   43.94    3.32
  -6  -1   1   21.71    2.54
   6   1  -1   20.24    2.86
  -7  -1   1   34.84    3.02
   7   1  -1   39.43    3.21
  -8  -1   1   40.33    3.31
   8   1  -1   33.02    2.96
  -9  -1   1   13.68    2.27
   9   1  -1   18.47    2.50
  10   1  -1   10.60    2.49
 -11   2  -1   66.52    6.16
  11  -2   1   73.55    6.35
 -10   2  -1   15.43    3.04
  10  -2   1   18.34    2.71
  -9   2  -1  194.42   10.99
   9  -2   1  245.44   12.94
  -8   2  -1   98.12    6.23
   8  -2   1   91.86    5.94
  -7   2  -1  214.21   10.96
   7  -2   1  173.93    9.35
  -6   2  -1   39.71    3.24
   6  -2   1   35.69    3.06
  -5   2  -1   60.40    5.15
   5  -2   1   50.91    4.66
  -4   2  -1   13.03    1.87
   4  -2   1   10.59    2.45
  -3   2  -1  194.04    5.25
   3  -2   1  218.78    5.98
  -2   2  -1    7.93    1.98
   2  -2   1    6.10    1.99
  -1   2  -1    5.08    1.38
   1  -2   1    6.68    1.42
  -1   2  -1    3.54    0.61
   0   2  -1    3.36    0.40
   0   2  -1    5.65    0.79
   1   2  -1  251.63    5.12
  -2  -2   1   12.36    1.02
   2   2  -1   10.99    1.10
  -3  -2   1   76.07    2.51
   3   2  -1   82.41    2.99
  -4  -2   1    5.72    1.10
   4   2  -1    8.43    1.75
  -5  -2   1  182.86    9.11
   5   2  -1  216.37   10.33
  -6  -2   1  150.39    7.31
   6   2  -1  173.55    8.07
  -7  -2   1  261.52   12.85
   7   2  -1  271.63    6.90
  -8  -2   1   38.19    3.44
   8   2  -1   49.10    4.03
  -9  -2   1   88.34    6.34
   9   2  -1   77.62    8.01
 -12   3  -1   17.66    3.25
  12  -3   1   17.42    3.50
 -11   3  -1   80.93    7.71
  11  -3   1   83.99    7.46
 -10   3  -1   25.68    4.17
  10  -3   1   18.58    3.64
  -9   3  -1   50.96    4.69
   9  -3   1   50.76    4.40
  -8   3  -1   41.23    3.75
   8  -3   1   37.61    3.76
  -7   3  -1  257.24   12.80
   7  -3   1  309.88   15.08
  -6   3  -1    3.47    1.67
   6  -3   1    2.48    1.75
  -5   3  -1   88.39    4.18
   5  -3   1   80.43    4.36
  -4   3  -1   51.51    4.29
   4  -3   1   54.74    3.16
  -3   3  -1  679.03   14.12
   3  -3   1  672.14   14.07
   2  -3   1  262.37    6.13
   2  -3   1  282.12    5.93
  -2   3  -1  277.15    5.58
  -1   3  -1  217.46    4.74
   1  -3   1  231.24    4.82
  -1   3  -1  236.34    5.36
   0   3  -1  761.27   15.05
   1   3  -1   68.62    1.49
  -2  -3   1   55.34    3.85
   2   3  -1   68.62    1.89
  -3  -3   1    4.29    0.86
   3   3  -1    3.52    1.36
   4   3  -1  144.59    3.84
  -5  -3   1   21.75    2.16
   5   3  -1   11.15    1.71
  -6  -3   1   23.49    2.23
   6   3  -1   27.96    2.29
  -7  -3   1   24.75    3.26
   7   3  -1   38.73    4.77
  -8  -3   1   41.72    4.11
   8   3  -1   36.51    3.87
   9   3  -1   20.48    2.26
 -12   4  -1   91.43    6.04
  12  -4   1   88.15    6.12
 -11   4  -1   79.36    5.66
  11  -4   1   63.10    5.25
 -10   4  -1   95.04    7.19
  10  -4   1   89.99    7.09
  -9   4  -1   90.98    5.77
   9  -4   1   87.30    5.80
  -8   4  -1   -1.10    1.47
   8  -4   1   -1.44    1.72
  -7   4  -1  135.86    5.47
   7  -4   1  179.95    9.96
  -6   4  -1    7.55    2.23
   6  -4   1    8.31    2.73
  -5   4  -1   46.76    4.18
   5  -4   1   49.03    4.80
  -4   4  -1  146.26    4.94
   4  -4   1  134.02    5.35
   4  -4   1  146.87    3.57
  -3   4  -1   61.14    2.91
   3  -4   1   63.04    3.25
   3  -4   1   66.36    2.58
  -2   4  -1   14.28    1.52
   2  -4   1   13.02    1.53
   2  -4   1   17.57    3.53
  -2   4  -1   16.41    3.05
  -1   4  -1   54.80    1.66
   1  -4   1   55.35    1.95
  -1   4  -1   56.22    2.42
   0   4  -1  163.82    4.99
   1   4  -1  113.51    5.15
  -2  -4   1   37.75    1.06
   2   4  -1   43.83    1.90
  -3  -4   1  299.00   12.86
   3   4  -1  258.88   11.20
  -4  -4   1    0.81    0.73
   4   4  -1    0.17    0.68
  -5  -4   1  115.45    4.53
   5   4  -1  122.09    4.68
  -6  -4   1   96.31    5.92
   6   4  -1   89.20    5.64
  -7  -4   1   93.07    4.22
  -8  -4   1  143.83    4.57
   8   4  -1  149.04    4.71
   8   4  -1  149.34    7.06
 -12   5  -1   57.28    4.86
  12  -5   1   47.14    5.04
 -11   5  -1   86.52    6.11
  11  -5   1  100.50    6.42
 -10   5  -1    1.86    1.62
  10  -5   1    1.65    1.82
  -9   5  -1  112.92    6.24
   9  -5   1  116.63    6.53
  -8   5  -1    9.70    2.61
   8  -5   1   17.54    3.22
  -7   5  -1  211.05   10.85
   7  -5   1  179.13   10.10
  -6   5  -1   64.57    4.36
   6  -5   1   61.56    4.94
  -5   5  -1  453.69   11.54
   5  -5   1  477.42   12.97
   5  -5   1  502.79   10.50
  -4   5  -1  108.43    4.17
   4  -5   1   90.30    4.35
   4  -5   1  102.97    3.00
  -3   5  -1   66.38    2.67
   3  -5   1   53.89    4.53
   3  -5   1   54.49    4.95
  -3   5  -1   63.87    4.56
  -2   5  -1   86.61    2.75
   2  -5   1   78.08    2.47
   2  -5   1   82.82    3.37
  -2   5  -1   85.74    4.28
  -1   5  -1   57.70    4.13
   1  -5   1   48.28    3.28
  -1   5  -1   55.14    4.56
   0   5  -1  482.53   11.62
   1   5  -1   14.07    2.93
   2   5  -1  217.45   10.78
  -3  -5   1   33.42    1.23
   3   5  -1   36.64    1.22
   3   5  -1   39.45    4.61
  -4  -5   1   95.25    3.38
   4   5  -1   89.45    3.21
   4   5  -1   85.61    7.46
  -5  -5   1    2.15    0.78
   5   5  -1    0.31    0.49
   5   5  -1    0.63    0.87
  -6  -5   1   45.94    2.47
   6   5  -1   33.71    2.42
   6   5  -1   33.70    6.30
   7   5  -1   42.86    2.38
   7   5  -1   37.15    9.25
 -12   6  -1    6.99    2.40
  12  -6   1    6.87    2.38
 -11   6  -1   29.34    3.60
  11  -6   1   48.97    4.79
 -10   6  -1   88.28    6.76
  10  -6   1   96.61    7.49
  -9   6  -1   24.59    3.29
   9  -6   1   28.19    3.40
  -8   6  -1  155.46    8.17
   8  -6   1  153.01    8.57
  -7   6  -1   15.66    2.12
   7  -6   1   24.15    3.74
  -6   6  -1  160.46    8.46
   6  -6   1  162.17    9.07
   6  -6   1  167.33    7.61
  -5   6  -1   13.61    1.89
   5  -6   1   14.34    2.72
   5  -6   1   14.06    2.94
  -4   6  -1   39.95    2.31
   4  -6   1   32.62    2.87
   4  -6   1   39.54    5.83
  -3   6  -1    1.98    1.06
   3  -6   1    1.43    0.99
   3  -6   1    3.77    1.04
  -3   6  -1    3.19    1.00
  -2   6  -1   10.92    1.63
   2  -6   1    8.04    1.11
   2  -6   1    7.22    1.24
  -2   6  -1    4.84    1.56
  -1   6  -1   68.12    7.72
   0   6  -1  166.70    8.58
   1   6  -1   48.31    5.19
   2   6  -1   81.54    6.37
   3   6  -1   49.98    5.46
  -4  -6   1   92.93    5.24
   4   6  -1   93.94    4.99
   4   6  -1   79.72    8.54
  -5  -6   1   87.36    4.99
   5   6  -1   91.30    3.01
   5   6  -1   78.76    9.10
   6   6  -1    8.86    1.83
   6   6  -1    9.39    3.02
 -12   7  -1   44.73    4.35
  12  -7   1   36.43    4.01
 -11   7  -1  117.44    6.82
  11  -7   1  109.22    6.80
 -10   7  -1   38.96    5.26
  10  -7   1   22.33    3.86
  -9   7  -1  219.99   11.62
   9  -7   1  249.74   13.56
  -8   7  -1   36.41    3.24
   8  -7   1   36.38    3.92
   8  -7   1   39.32    2.11
  -7   7  -1  185.63   11.69
   7  -7   1  219.26    7.75
   7  -7   1  218.42    4.21
  -6   7  -1   50.30    3.38
   6  -7   1   56.81    4.50
   6  -7   1   62.30    6.90
   5  -7   1  166.98    8.90
   5  -7   1  185.74    8.60
  -4   7  -1  256.18   11.63
   4  -7   1  299.74   13.93
   4  -7   1  306.41   13.96
  -4   7  -1  251.85   11.30
  -3   7  -1  148.74    3.44
  -3   7  -1  138.41    4.23
  -2   7  -1  224.56    9.88
   2  -7   1  193.69    8.50
  -2   7  -1  207.39    9.91
  -1   7  -1   16.93    3.01
   0   7  -1  195.04   12.02
   1   7  -1   16.83    3.55
   2   7  -1  221.28   11.52
   3   7  -1   23.83    6.30
   4   7  -1   59.01   16.77
   5   7  -1   42.28   11.88
 -12   8  -1  146.35    7.03
  12  -8   1  159.53    8.15
 -11   8  -1   34.85    4.42
  11  -8   1   39.89    5.11
 -10   8  -1   42.02    4.51
  10  -8   1   36.47    4.35
  -9   8  -1   38.96    3.70
   9  -8   1   45.83    2.63
  -8   8  -1   11.40    2.27
   8  -8   1   11.14    2.61
   8  -8   1   16.27    1.59
  -7   8  -1   17.98    2.61
   7  -8   1   14.98    2.66
   7  -8   1   14.95    2.42
  -6   8  -1  104.47    5.54
   6  -8   1   94.99    5.96
   6  -8   1   85.64    5.02
  -5   8  -1   35.08    2.39
   5  -8   1   34.96    3.22
   5  -8   1   34.32    4.89
  -4   8  -1   -0.04    0.67
   4  -8   1    2.57    1.70
   4  -8   1    0.76    0.39
  -4   8  -1    0.24    0.92
  -3   8  -1   15.32    2.62
   3  -8   1   20.16    1.63
   3  -8   1   19.09    2.06
  -3   8  -1   14.35    1.94
   2  -8   1  144.75    8.03
   2  -8   1  150.08    8.28
  -2   8  -1  157.32    9.87
  -1   8  -1   40.77    9.33
   0   8  -1    9.54    1.22
   1   8  -1   41.20    6.84
   2   8  -1   20.36    3.20
   3   8  -1   79.42   15.17
   4   8  -1   72.09   20.92
 -12   9  -1   26.18    3.51
  12  -9   1   18.68    3.33
  12  -9   1   28.27    2.39
 -11   9  -1   82.48    6.98
  11  -9   1   70.42    6.59
  11  -9   1   97.86    6.17
 -10   9  -1   16.15    2.82
  10  -9   1   21.37    3.53
  10  -9   1   13.37    1.74
  -9   9  -1  180.43   11.02
   9  -9   1  163.40   10.75
   9  -9   1  156.44    9.54
  -8   9  -1   46.50    3.47
   8  -9   1   39.93    3.68
   8  -9   1   45.94    3.55
  -7   9  -1  229.25   11.49
   7  -9   1  244.63   12.77
   7  -9   1  227.19   10.69
  -6   9  -1   52.02    3.26
   6  -9   1   53.26    3.94
   6  -9   1   45.69    5.61
  -5   9  -1  101.45    8.58
   5  -9   1   95.55    4.69
   5  -9   1   90.05    7.69
  -4   9  -1  123.20    4.68
   4  -9   1  114.48    4.65
   4  -9   1  119.43   13.27
  -4   9  -1  125.09    5.32
  -3   9  -1   32.87    3.41
   3  -9   1   19.63    1.40
  -3   9  -1   28.62    2.51
  -2   9  -1  255.63   12.54
  -1   9  -1   38.31    7.05
   1   9  -1   20.06    3.68
   2   9  -1   58.91   12.68
 -11  10  -1   12.38    2.93
  11 -10   1   16.84    3.80
  11 -10   1   10.37    3.08
 -10  10  -1   55.01    5.46
  10 -10   1   89.13    8.11
  10 -10   1   86.43    7.20
  -9  10  -1   17.15    2.65
   9 -10   1   21.96    3.35
   9 -10   1   20.37    3.77
  -8  10  -1   23.87    2.64
   8 -10   1   17.59    2.70
   8 -10   1   15.46    4.33
  -7  10  -1   30.57    3.89
   7 -10   1   17.65    3.09
   7 -10   1   22.40    5.23
  -6  10  -1   89.73    9.65
   6 -10   1  100.72    6.69
   6 -10   1   81.67    6.90
  -5  10  -1    2.19    0.77
   5 -10   1    1.57    1.10
   5 -10   1    1.20    0.64
  -4  10  -1   87.00    6.26
   4 -10   1   93.27    5.52
  -4  10  -1   96.72    6.32
   3 -10   1   22.01    2.29
   3 -10   1   28.33    2.85
  -3  10  -1   36.70    4.41
  -2  10  -1   46.34   10.81
  -1  10  -1   14.79    2.52
   0  10  -1   45.36    9.42
   1  10  -1   10.63    2.76
 -11  11  -1   59.06    4.40
 -10  11  -1   15.82    2.90
  10 -11   1   13.39    3.34
  -9  11  -1   71.34    5.62
   9 -11   1   74.22    6.30
   9 -11   1   70.57    7.52
  -8  11  -1   79.97    6.62
   8 -11   1   81.03    7.02
   8 -11   1   86.31    7.13
  -7  11  -1   69.29    5.83
   7 -11   1   63.77    4.21
   7 -11   1   61.43    6.63
  -6  11  -1   84.62    8.72
   6 -11   1   92.92    4.37
   6 -11   1   83.99    9.29
  -5  11  -1   40.66    5.45
   5 -11   1   46.81    2.61
   4 -11   1   86.33    3.78
  -3  11  -1   33.61    3.72
  -2  11  -1   71.45    7.98
  -1  11  -1   10.16    2.67
   0  11  -1   43.30   12.94
  -9  12  -1   13.05    3.18
   9 -12   1   18.65    3.29
  -8  12  -1   85.18   12.94
   8 -12   1   94.89    4.87
   8 -12   1   86.44    8.89
  -7  12  -1   50.12    5.01
   7 -12   1   47.49    3.30
   7 -12   1   46.13    6.71
  -6  12  -1    7.51    1.88
   6 -12   1   11.22    1.57
  -5  12  -1   35.55    5.63
   5 -12   1   27.30    5.28
  -4  12  -1  156.77    5.63
  -3  12  -1   19.00    2.49
  -2  12  -1   18.57    2.47
   3 -12  -2    2.01    1.05
  -3  12   2    6.64    2.60
   4 -12  -2   25.62    2.56
   4 -12  -2   23.81    2.08
   4 -12  -2   21.36    5.89
   5 -12  -2  147.36    4.78
   5 -12  -2  115.10    7.75
  -6  12   2   12.62    3.63
   6 -12  -2   20.93    3.67
   6 -12  -2   14.46    4.63
  -7  12   2  196.94    6.30
   7 -12  -2  203.09    6.81
   8 -12  -2   12.97    3.40
   9 -12  -2    1.19    1.71
   9 -12  -2   -0.36    1.10
   1 -11  -2    2.02    1.02
  -1  11   2    5.95    2.49
   2 -11  -2   14.50    1.74
   2 -11  -2   12.21    3.47
  -2  11   2   16.64    2.85
   3 -11  -2   11.86    1.76
   3 -11  -2   13.33    1.80
   3 -11  -2   12.55    2.80
  -3  11   2    7.62    1.95
   4 -11  -2    0.87    1.30
   4 -11  -2    0.94    1.18
   4 -11  -2    3.03    1.37
  -5  11   2    8.95    2.23
   5 -11  -2   14.73    2.43
   5 -11  -2    9.41    2.86
  -6  11   2    2.39    0.82
   6 -11  -2    1.22    1.26
   6 -11  -2    3.73    1.84
  -7  11   2    0.53    0.55
   7 -11  -2    1.69    1.45
   7 -11  -2    0.72    0.60
  -8  11   2    5.64    1.30
   8 -11  -2    2.01    1.69
   8 -11  -2    2.93    1.36
  -9  11   2    6.68    1.91
   9 -11  -2    3.61    2.42
   9 -11  -2    1.80    1.41
 -10  11   2    6.79    1.74
  10 -11  -2    8.52    2.67
  -1 -10  -2    7.88    1.27
   1  10   2    3.53    1.37
   0 -10  -2   98.18    3.36
   0  10   2   82.48    4.87
   1 -10  -2   69.45    3.25
   1 -10  -2   74.52    3.37
   1 -10  -2   76.53    5.03
  -1  10   2   71.30    4.82
   2 -10  -2    6.87    1.40
   2 -10  -2    7.27    1.80
   2 -10  -2    5.12    1.02
  -2  10   2    8.58    2.31
   3 -10  -2   61.53    4.49
   3 -10  -2   56.77    3.90
   3 -10  -2   50.39   11.29
  -3  10   2   69.66    5.42
  -4  10   2    5.37    1.21
   4 -10  -2    3.92    1.25
   4 -10  -2    4.15    1.50
  -5  10   2   34.53    4.51
   5 -10  -2   28.08    3.76
   5 -10  -2   28.50    5.76
  -6  10   2    9.61    2.19
   6 -10  -2    8.84    1.76
   6 -10  -2   12.01    2.33
  -7  10   2   84.27   11.45
   7 -10  -2   93.44    7.11
   7 -10  -2   78.06   14.29
  -8  10   2   13.74    2.31
   8 -10  -2   16.46    2.98
   8 -10  -2   16.77    3.56
  -9  10   2  124.17   12.85
   9 -10  -2  138.91   11.23
   9 -10  -2  141.46   10.48
 -10  10   2   79.97    6.92
  10 -10  -2  103.80    6.31
  10 -10  -2   88.29    4.20
 -11  10   2    2.70    1.13
  11 -10  -2    0.24    1.74
  -2  -9  -2    2.41    0.66
   2   9   2    5.99    1.55
  -1  -9  -2  126.63    5.28
  -1  -9  -2  140.59    3.80
   1   9   2  121.57    9.79
   0  -9  -2   96.64    9.13
   0  -9  -2  102.71    6.09
   0   9   2   87.92   10.79
   1  -9  -2   65.62    4.40
   1  -9  -2   71.87    4.64
   1  -9  -2   71.90   14.37
  -1   9   2   66.34    5.27
   2  -9  -2    9.07    1.60
   2  -9  -2    7.77    1.27
   2  -9  -2    7.35    2.19
  -2   9   2    9.42    2.15
   3  -9  -2    9.23    1.49
   3  -9  -2    9.37    1.53
   3  -9  -2   10.59    2.47
  -3   9   2   10.57    1.89
  -4   9   2  155.84   13.79
   4  -9  -2  173.17    9.06
  -5   9   2   86.96    7.95
   5  -9  -2   90.04    5.72
   5  -9  -2   78.25    4.99
  -6   9   2   20.69    4.98
   6  -9  -2   14.49    2.07
   6  -9  -2   19.01    4.00
  -7   9   2   26.03    6.04
   7  -9  -2   26.43    3.29
   7  -9  -2   25.69    5.62
  -8   9   2    6.91    1.80
   8  -9  -2    3.97    1.74
   8  -9  -2    2.00    1.23
  -9   9   2   83.27   14.07
   9  -9  -2   93.87    6.03
   9  -9  -2   92.42    4.48
 -10   9   2   67.05   13.88
  10  -9  -2   60.83    6.23
  10  -9  -2   74.33    6.14
 -11   9   2   17.62    3.12
  11  -9  -2   18.36    3.65
  12  -9  -2   -0.36    2.02
  -4  -8  -2   11.41    3.05
   4   8   2   13.76    4.04
  -3  -8  -2    3.71    0.76
  -3  -8  -2    4.01    1.28
   3   8   2    3.28    0.99
  -2  -8  -2   14.37    2.31
  -2  -8  -2   17.83    1.81
   2   8   2   13.04    4.15
  -1  -8  -2    8.54    1.74
  -1  -8  -2    5.85    1.51
   1   8   2    5.21    1.48
   0  -8  -2   13.80    3.02
   0  -8  -2   13.82    1.49
   0  -8  -2   16.96    3.59
   0   8   2    9.21    1.38
   1  -8  -2   12.99    2.63
   1  -8  -2   12.40    1.43
   1  -8  -2   16.78    2.93
  -1   8   2    6.10    1.74
   2  -8  -2  130.87    6.22
   2  -8  -2  123.69    5.71
   2  -8  -2  115.00   10.56
  -2   8   2  119.40    6.43
  -3   8   2  179.77   13.82
   3  -8  -2  167.66    7.62
   3  -8  -2  174.09    9.44
  -3   8   2  154.11    7.58
  -4   8   2   13.78    3.82
   4  -8  -2   17.05    2.07
   4  -8  -2   17.96    3.42
  -5   8   2  210.36   15.71
   5  -8  -2  213.63   10.03
   5  -8  -2  207.48    9.27
  -6   8   2  121.50   10.59
   6  -8  -2  112.18    6.55
   6  -8  -2  102.72    5.45
  -7   8   2    6.49    1.49
   7  -8  -2    7.19    2.20
   7  -8  -2    2.57    1.00
   8  -8  -2   14.38    2.46
   8  -8  -2   14.68    1.93
  -9   8   2   61.88    6.26
   9  -8  -2   71.08    6.37
  10  -8  -2    7.41    2.41
 -11   8   2   10.46    2.91
  11  -8  -2   10.95    3.10
  12  -8  -2   20.13    3.81
  -5  -7  -2  209.84    5.14
  -5  -7  -2  215.72    5.85
   5   7   2  210.16   14.41
  -4  -7  -2    0.53    0.35
  -4  -7  -2    2.69    1.59
   4   7   2    1.34    1.14
  -3  -7  -2   79.65    5.63
  -3  -7  -2   94.13    5.90
   3   7   2  106.30   12.38
  -2  -7  -2   25.01    2.88
  -2  -7  -2   22.34    5.02
   2   7   2   26.31    4.46
  -1  -7  -2    5.15    1.25
  -1  -7  -2    3.43    0.79
   1   7   2    4.93    1.53
   0  -7  -2  246.09   12.17
   0  -7  -2  241.40    9.81
   0  -7  -2  232.83   10.47
   0   7   2  277.23   12.32
   1  -7  -2   29.77    2.86
   1  -7  -2   31.89    2.65
   1  -7  -2   37.01    7.86
  -1   7   2   24.42    2.56
   2  -7  -2   39.22    3.25
   2  -7  -2   41.88    2.39
   2  -7  -2   46.21    8.80
  -2   7   2   38.46    3.02
  -3   7   2   59.79    5.17
   3  -7  -2   54.84    3.01
   3  -7  -2   55.27    4.42
  -4   7   2   23.28    3.80
   4  -7  -2   19.57    2.37
   4  -7  -2   17.74    4.49
  -5   7   2   14.58    3.49
   5  -7  -2   18.93    2.79
   5  -7  -2   17.64    1.92
  -6   7   2   60.60    5.46
   6  -7  -2   55.45    3.58
   6  -7  -2   56.59    2.84
  -7   7   2  265.45   14.33
   7  -7  -2  242.81   11.74
  -8   7   2   10.99    2.54
   8  -7  -2    8.53    2.23
  -9   7   2    8.91    3.01
   9  -7  -2    6.10    2.16
 -10   7   2   71.90    5.89
  10  -7  -2   50.07    5.09
 -11   7   2    3.05    1.23
  11  -7  -2    3.98    2.22
  12  -7  -2  132.23    7.97
  -6  -6  -2   24.30    3.62
   6   6   2   17.14    2.51
   6   6   2   14.45    3.63
  -5  -6  -2    2.15    1.10
   5   6   2    3.12    1.26
   5   6   2    1.18    0.80
  -4  -6  -2   10.04    1.63
   4   6   2   10.09    1.49
   4   6   2    9.17    2.54
  -3  -6  -2   16.51    1.99
   3   6   2   20.39    4.33
  -2  -6  -2  105.81    6.29
  -2  -6  -2  108.87    5.35
   2   6   2  113.42    8.68
  -1  -6  -2   66.21    7.56
  -1  -6  -2   59.53    2.70
  -1  -6  -2   60.12    6.64
   1   6   2   54.17    5.49
   0  -6  -2   73.09    5.39
   0  -6  -2   72.89    3.09
   0  -6  -2   67.02    6.04
   0   6   2   69.68    8.14
   1  -6  -2  146.14    4.32
   1  -6  -2  139.29    3.90
   1  -6  -2  139.48    4.85
  -1   6   2  144.19    4.82
  -2   6   2  322.32   14.32
   2  -6  -2  338.93   16.04
   2  -6  -2  321.74   15.34
  -2   6   2  320.13   14.61
  -3   6   2  297.56   11.93
   3  -6  -2  322.15   13.00
   3  -6  -2  321.40   12.95
  -4   6   2  353.75   15.89
   4  -6  -2  343.75   15.67
   4  -6  -2  352.29   15.77
  -5   6   2  165.50   10.18
   5  -6  -2  189.41    9.81
   5  -6  -2  185.23    8.86
  -6   6   2   69.65    7.63
   6  -6  -2   67.79    4.18
  -7   6   2   26.98    6.26
   7  -6  -2   32.06    3.39
  -8   6   2  128.67   14.10
   8  -6  -2  121.65    7.40
  -9   6   2   14.65    2.27
   9  -6  -2   15.47    3.13
 -10   6   2    3.56    1.60
  10  -6  -2    8.98    2.80
 -11   6   2   12.78    2.84
  11  -6  -2   16.00    3.51
 -12   6   2   19.40    3.61
  12  -6  -2   16.46    3.38
  -7  -5  -2  147.20    5.84
   7   5   2  125.66    4.74
   7   5   2  132.76    8.05
  -6  -5  -2   12.33    1.93
   6   5   2    9.36    2.42
   6   5   2    6.50    1.53
  -5  -5  -2   27.57    3.69
   5   5   2   34.76    4.11
   5   5   2   37.41    9.76
  -4  -5  -2   95.16    5.57
   4   5   2   74.74    5.25
   4   5   2   86.11   15.06
  -3  -5  -2  206.53    8.97
   3   5   2  199.96    8.68
   3   5   2  193.41   12.96
  -2  -5  -2   15.06    1.74
   2   5   2   13.92    1.69
   2   5   2   15.09    3.04
  -1  -5  -2  195.17    9.50
  -1  -5  -2  191.59    9.07
  -1  -5  -2  187.50   11.17
   1   5   2  173.27   10.69
   0  -5  -2    6.25    0.93
   0  -5  -2    5.75    1.25
   0  -5  -2    8.31    1.56
   0   5   2   10.03    1.67
   1  -5  -2    6.51    1.28
   1  -5  -2    6.88    1.35
   1  -5  -2    2.89    1.28
  -1   5   2    6.27    1.58
  -2   5   2  248.41    6.98
   2  -5  -2  244.97    7.42
   2  -5  -2  251.77    7.55
  -2   5   2  238.28    6.76
  -3   5   2  151.82    4.85
   3  -5  -2  142.05    5.02
   3  -5  -2  143.15    4.84
  -4   5   2   18.19    3.26
   4  -5  -2   11.68    1.86
   4  -5  -2   12.77    1.49
  -5   5   2   10.37    2.51
   5  -5  -2    7.25    1.86
  -6   5   2  133.29    6.11
   6  -5  -2  138.25    5.79
  -7   5   2   27.73    2.80
   7  -5  -2   37.40    3.59
  -8   5   2  164.58    8.52
   8  -5  -2  155.12    8.49
  -9   5   2  142.40    8.48
   9  -5  -2  158.57    9.48
 -10   5   2   32.30    4.75
  10  -5  -2   28.01    4.62
 -11   5   2    2.15    2.27
  11  -5  -2    7.79    2.78
 -12   5   2  216.05    8.48
  12  -5  -2  212.96    8.68
  -8  -4  -2   29.45    3.10
   8   4   2   24.53    2.47
   8   4   2   23.67    6.98
  -7  -4  -2    2.00    1.67
   7   4   2    3.92    1.46
   7   4   2    1.52    1.12
  -6  -4  -2    4.21    1.53
   6   4   2    6.60    1.76
   6   4   2    4.93    0.63
  -5  -4  -2  179.62    9.42
   5   4   2  147.44    7.74
   5   4   2  139.90   10.27
  -4  -4  -2   18.80    2.06
   4   4   2   19.42    2.20
   4   4   2   20.25    3.35
  -3  -4  -2   18.78    2.02
   3   4   2   18.17    1.92
   3   4   2   18.97    2.76
  -2  -4  -2  344.81   15.30
   2   4   2  360.74   15.97
  -2  -4  -2  342.25   15.60
   2   4   2  335.33   17.03
  -1  -4  -2   12.35    1.53
  -1  -4  -2   17.24    3.29
   1   4   2   14.68    2.40
   0  -4  -2  460.72   10.67
   0  -4  -2  458.44   10.39
   0  -4  -2  445.82   11.47
   0   4   2  489.23   11.61
   1  -4  -2   27.24    3.02
   1  -4  -2   29.98    2.73
   1  -4  -2   29.17    6.14
  -1   4   2   31.22    3.03
  -2   4   2   23.50    2.92
   2  -4  -2   19.70    3.59
   2  -4  -2   17.50    2.22
  -3   4   2   20.80    2.71
   3  -4  -2   18.95    2.60
   3  -4  -2   18.47    2.03
  -4   4   2  488.09   13.77
   4  -4  -2  424.01   10.67
  -5   4   2    4.64    1.73
   5  -4  -2    4.78    2.21
  -6   4   2  307.20   14.66
   6  -4  -2  308.72   14.79
  -7   4   2   46.75    3.48
   7  -4  -2   57.13    4.30
  -8   4   2   13.73    2.26
   8  -4  -2   14.57    3.13
  -9   4   2   75.43    5.51
   9  -4  -2   81.67    6.08
 -10   4   2   14.36    2.94
  10  -4  -2   13.40    2.99
 -11   4   2    2.06    1.58
  11  -4  -2    1.67    1.52
 -12   4   2   13.81    3.13
  12  -4  -2   15.42    3.50
  -9  -3  -2    4.84    1.85
   9   3   2    3.80    1.32
  -8  -3  -2   13.71    2.73
   8   3   2   17.13    2.57
   8   3   2    8.52    1.47
  -7  -3  -2   54.16    4.60
   7   3   2   71.62    5.33
   7   3   2   68.98   15.12
  -6  -3  -2    8.01    1.69
   6   3   2    8.79    2.05
  -5  -3  -2  166.11    7.96
   5   3   2  170.82    7.97
   5   3   2  156.22   10.99
  -4  -3  -2   57.13    3.10
   4   3   2   56.43    3.36
   4   3   2   50.76    4.19
  -3  -3  -2  296.79   12.57
   3   3   2  282.14   11.42
   3   3   2  290.34   12.57
  -2  -3  -2  140.29    4.67
   2   3   2  136.89    4.49
  -2  -3  -2  132.05    4.93
   2   3   2  131.13    8.95
  -1  -3  -2   17.61    1.97
   1   3   2   19.99    2.19
  -1  -3  -2   21.19    4.13
   1   3   2   23.55    3.80
   0  -3  -2  157.72    4.98
   0  -3  -2  161.24    4.53
   0  -3  -2  154.06    5.74
   0   3   2  173.14    5.07
  -1   3   2   68.41    2.73
   1  -3  -2   69.02    4.81
   1  -3  -2   73.63    2.87
  -1   3   2   71.93    3.01
  -2   3   2   29.40    3.98
   2  -3  -2   26.38    2.45
   2  -3  -2   25.20    1.67
  -3   3   2  167.40    5.93
   3  -3  -2  155.07    4.96
  -4   3   2   26.23    6.71
   4  -3  -2   26.61    2.99
  -5   3   2  231.10    7.27
   5  -3  -2  237.18    7.58
  -6   3   2  271.15   11.68
   6  -3  -2  303.99   13.27
  -7   3   2   18.68    2.67
   7  -3  -2   21.15    3.14
  -8   3   2  175.32    8.82
   8  -3  -2  208.47   10.42
  -9   3   2   10.82    2.37
   9  -3  -2   18.82    3.15
 -10   3   2  110.77    8.05
  10  -3  -2   81.62    6.50
 -11   3   2    1.75    1.60
  11  -3  -2    2.14    1.72
  12  -3  -2    3.33    2.99
  -9  -2  -2   18.02    2.80
   9   2   2   20.10    2.66
   9   2   2   18.44    4.51
  -8  -2  -2    6.33    1.84
   8   2   2    2.43    1.52
   8   2   2    5.07    1.25
  -7  -2  -2    7.87    2.02
   7   2   2    8.72    1.99
   7   2   2    8.39    1.57
  -6  -2  -2  120.61    6.64
   6   2   2  137.52    7.32
   6   2   2  118.32    8.94
  -5  -2  -2   42.05    3.10
   5   2   2   37.52    2.99
   5   2   2   35.25    8.88
  -4  -2  -2  320.88   14.73
   4   2   2  310.96   14.25
   4   2   2  305.80   14.40
  -3  -2  -2  234.59    6.68
   3   2   2  236.12    7.19
   3   2   2  242.68    7.12
  -2  -2  -2   14.94    1.82
   2   2   2   23.42    2.62
  -2  -2  -2   19.40    3.63
   2   2   2   22.81    4.37
  -1  -2  -2   25.96    3.67
   1   2   2   24.82    1.82
  -1  -2  -2   25.92    2.14
   1   2   2   26.56    2.40
   0  -2  -2 1432.71   27.04
   0  -2  -2 1395.41   26.37
   0  -2  -2 1411.21   26.49
   0   2   2 1362.55   25.61
  -1   2   2   74.53    3.49
   1  -2  -2   80.72    4.09
   1  -2  -2   78.55    2.71
  -2   2   2 1452.33   93.78
   2  -2  -2 1414.26   27.39
  -3   2   2   72.33    3.34
   3  -2  -2   69.31    3.16
  -4   2   2   21.02    6.21
   4  -2  -2   15.13    2.08
  -5   2   2  148.07    6.08
   5  -2  -2  125.70    5.00
  -6   2   2  338.91   15.77
   6  -2  -2  347.15   16.43
  -7   2   2   11.95    1.94
   7  -2  -2   14.34    2.41
  -8   2   2  105.10    6.29
   8  -2  -2   95.27    6.04
 -10   2   2   12.94    2.51
  10  -2  -2   18.70    3.04
  11  -2  -2    3.15    1.94
 -10  -1  -2    2.33    2.20
  10   1   2    0.24    1.24
  10   1   2    2.88    0.96
  -9  -1  -2   68.77    6.38
   9   1   2   65.37    6.09
   9   1   2   71.98    7.41
  -8  -1  -2   70.56    5.64
   8   1   2   68.34    5.46
   8   1   2   62.23   13.71
  -7  -1  -2   15.06    2.40
   7   1   2   10.41    2.35
   7   1   2   11.30    1.79
  -6  -1  -2   30.57    3.02
   6   1   2   24.48    2.80
   6   1   2   32.93    7.47
  -5  -1  -2  138.31    5.13
   5   1   2  131.66    4.86
   5   1   2  123.49    7.43
  -4  -1  -2    4.28    1.80
   4   1   2    5.16    1.99
   4   1   2    4.22    1.33
  -3  -1  -2   24.68    2.68
   3   1   2   32.29    3.16
   3   1   2   37.49    6.85
  -2  -1  -2   65.69    2.94
   2   1   2   71.45    3.03
  -2  -1  -2   70.80    2.92
   2   1   2   70.52    4.53
  -1  -1  -2   73.94    2.90
   1   1   2   69.06    2.78
  -1  -1  -2   74.56    4.21
   1   1   2   73.71    3.93
   0  -1  -2   32.59    2.26
   0  -1  -2   35.90    1.98
  -1   1   2   39.97    2.03
   1  -1  -2   33.65    2.70
  -2   1   2   76.74    5.24
   2  -1  -2   77.68    2.86
  -3   1   2   31.04    2.83
   3  -1  -2   24.67    1.99
  -4   1   2   19.73    5.43
   4  -1  -2   17.41    2.41
  -5   1   2   13.55    2.16
   5  -1  -2   11.48    2.17
  -6   1   2  160.85    8.42
   6  -1  -2  180.19    9.51
  -7   1   2   44.06    3.33
   7  -1  -2   63.87    4.59
  -8   1   2    5.67    1.81
   8  -1  -2    3.43    1.64
  -9   1   2   10.32    2.48
   9  -1  -2    3.05    1.94
 -10   1   2  137.22   10.85
  10  -1  -2  152.92   12.09
 -11   1   2    3.95    1.63
  11  -1  -2    7.35    2.23
 -10   0  -2   92.47    5.76
  10   0   2   88.43    5.33
  10   0   2   79.44    8.45
  -9   0  -2   98.78    5.35
   9   0   2   93.09    5.12
   9   0   2   85.82   13.98
  -8   0  -2   14.37    2.42
   8   0   2    6.30    2.12
   8   0   2    6.82    2.38
  -7   0  -2  214.30   10.10
   7   0   2  265.14   11.92
   7   0   2  261.55   11.43
  -6   0  -2   60.78    3.77
   6   0   2   66.48    3.89
   6   0   2   71.25    5.32
  -5   0  -2    3.99    1.98
   5   0   2    8.29    1.86
   5   0   2   11.78    2.85
  -4   0  -2  420.21   10.48
   4   0   2  463.55   12.75
   4   0   2  459.12   10.74
  -3   0  -2  143.80    4.58
   3   0   2  163.61    5.08
   3   0   2  161.03    5.40
  -2   0  -2 1318.02   25.18
   2   0   2 1332.63   25.47
  -2   0  -2 1320.81   24.64
   2   0   2 1366.17   25.25
  -1   0  -2   34.99    2.20
   1   0   2   37.73    2.37
  -1   0  -2   37.46    2.87
   1   0   2   40.21    1.78
  -1   0   2   42.05    3.81
   1   0  -2   34.36    1.75
  -2   0   2 1403.42   26.31
   2   0  -2 1439.59   92.91
  -3   0   2  170.73    6.20
   3   0  -2  151.24    4.62
  -4   0   2  469.89   12.01
   4   0  -2  415.51   10.25
  -5   0   2    6.82    1.42
   5   0  -2    2.33    1.38
  -6   0   2   64.88    3.56
   6   0  -2   67.15    4.06
  -7   0   2  258.75   11.51
   7   0  -2  232.07   11.01
  -8   0   2    4.88    1.57
   8   0  -2   11.75    1.92
  -9   0   2   84.45    6.34
   9   0  -2  111.38    8.05
 -10   0   2   93.16    5.43
  10   0  -2   87.80    5.19
 -11   1  -2   10.21    2.61
  11  -1   2    8.15    2.33
  11  -1   2    8.10    2.05
 -10   1  -2  142.46   11.40
  10  -1   2  143.88   11.35
  10  -1   2  133.95   12.09
  -9   1  -2    4.81    1.89
   9  -1   2    5.28    2.16
   9  -1   2    5.24    2.06
  -8   1  -2    5.64    2.44
   8  -1   2   10.42    2.46
  -7   1  -2   55.45    3.92
   7  -1   2   49.39    3.37
  -6   1  -2  166.18    8.62
   6  -1   2  161.67    8.67
  -5   1  -2   14.89    2.37
   5  -1   2   11.26    1.90
   5  -1   2   12.79    1.62
  -4   1  -2   15.31    2.37
   4  -1   2   15.92    2.19
   4  -1   2   18.43    3.13
  -3   1  -2   21.91    2.12
   3  -1   2   26.77    3.73
   3  -1   2   29.26    2.96
  -2   1  -2   72.67    2.80
   2  -1   2   66.05    2.91
  -2   1  -2   71.74    2.16
   2  -1   2   70.69    1.84
  -1   1  -2   39.02    2.24
   1  -1   2   37.66    2.26
   0   1  -2   37.16    2.09
  -1  -1   2   70.67    2.66
   1   1  -2   77.26    2.72
  -2  -1   2   68.12    3.04
   2   1  -2   66.07    2.48
  -3  -1   2   28.73    4.30
   3   1  -2   25.73    2.49
  -4  -1   2    5.38    1.14
   4   1  -2    4.90    1.68
  -5  -1   2  138.58    4.48
   5   1  -2  127.46    4.67
  -6  -1   2   30.47    2.60
   6   1  -2   30.39    2.96
  -7  -1   2    7.45    1.64
   7   1  -2    9.73    1.76
  -8  -1   2   62.93    5.01
   8   1  -2   76.32    5.94
  -9  -1   2   73.43    6.45
   9   1  -2   70.20    6.23
  10   1  -2    4.08    2.16
 -11   2  -2    2.94    1.83
  11  -2   2    6.22    2.42
 -10   2  -2   22.46    3.62
  10  -2   2   13.20    2.54
  -9   2  -2   27.09    3.20
   9  -2   2   23.17    2.86
  -8   2  -2  100.23    6.34
   8  -2   2  109.82    6.50
  -7   2  -2   15.38    2.42
   7  -2   2    8.86    2.08
  -6   2  -2  310.68   14.50
   6  -2   2  313.14   14.79
  -5   2  -2  149.02    5.89
   5  -2   2  125.46    7.11
  -4   2  -2   16.76    2.34
   4  -2   2   21.47    2.79
   4  -2   2   20.72    2.44
  -3   2  -2   65.50    3.02
   3  -2   2   66.31    3.06
   3  -2   2   69.04    1.87
  -2   2  -2 1260.90   24.03
   2  -2   2 1269.93   24.21
  -1   2  -2   73.85    2.61
   1  -2   2   67.69    2.47
   0   2  -2 1365.86   25.11
   0   2  -2 1353.56   24.89
   1   2  -2   31.39    2.66
  -2  -2   2   23.76    2.79
   2   2  -2   17.93    1.71
  -3  -2   2  237.37    6.48
   3   2  -2  225.60    6.09
  -4  -2   2  328.95   14.81
   4   2  -2  306.21   13.83
  -5  -2   2   30.63    2.29
   5   2  -2   39.10    2.85
  -6  -2   2  118.72    5.89
   6   2  -2  114.61    6.03
  -7  -2   2    8.81    1.71
   7   2  -2   11.07    1.81
  -8  -2   2    4.96    1.36
   8   2  -2    6.86    1.87
  -9  -2   2   21.02    2.44
   9   2  -2   16.97    2.34
 -11   3  -2    2.62    1.68
  11  -3   2    5.28    2.27
 -10   3  -2   86.68    6.92
  10  -3   2  102.46    8.79
  -9   3  -2   15.68    2.67
   9  -3   2   18.85    2.55
  -8   3  -2  195.14    9.83
   8  -3   2  171.72    8.84
  -7   3  -2   17.74    2.54
   7  -3   2   18.67    3.10
  -6   3  -2  278.17   11.94
   6  -3   2  239.99   10.67
  -5   3  -2  216.72    6.78
   5  -3   2  207.66    6.78
  -4   3  -2   30.90    3.30
   4  -3   2   32.73    4.19
  -3   3  -2  146.31    4.61
   3  -3   2  153.99    4.77
  -2   3  -2   24.98    2.02
   2  -3   2   21.52    1.76
  -2   3  -2   25.09    2.14
  -1   3  -2   70.97    3.84
   1  -3   2   71.48    2.42
   0   3  -2  157.63    3.59
   0   3  -2  148.63    3.50
   1   3  -2   15.69    1.37
   1   3  -2   19.01    2.15
  -2  -3   2  150.53    3.96
   2   3  -2  132.06    3.74
  -3  -3   2  293.38   11.47
   3   3  -2  300.76   11.65
  -4  -3   2   53.72    4.52
   4   3  -2   53.08    2.57
  -5  -3   2  163.78    7.45
   5   3  -2  172.34    7.72
  -6  -3   2   11.65    2.90
   6   3  -2   10.66    1.79
  -7  -3   2   65.81    7.60
   7   3  -2   54.67    4.06
  -8  -3   2    8.67    1.84
   8   3  -2   11.21    1.66
   9   3  -2    2.13    1.04
 -12   4  -2   13.16    2.49
  12  -4   2   13.68    3.39
 -11   4  -2    2.69    1.88
  11  -4   2    0.25    0.88
 -10   4  -2   12.17    2.67
  10  -4   2    7.45    1.90
  -9   4  -2   88.81    6.40
   9  -4   2   74.87    6.07
  -8   4  -2   18.86    3.17
   8  -4   2   11.32    2.42
  -7   4  -2   56.20    3.94
   7  -4   2   44.98    3.66
  -6   4  -2  313.35   14.90
   6  -4   2  268.00   13.05
  -5   4  -2    4.36    1.55
   5  -4   2    2.67    1.62
  -4   4  -2  375.36    9.45
   4  -4   2  431.19   10.61
  -3   4  -2   12.01    1.81
   3  -4   2   15.25    1.96
  -2   4  -2   16.45    1.94
   2  -4   2   19.32    2.03
  -2   4  -2   16.19    2.52
  -1   4  -2   27.34    2.25
   1  -4   2   31.40    2.41
  -1   4  -2   26.27    2.33
   0   4  -2  432.97    8.53
   0   4  -2  448.78    8.94
   1   4  -2   11.73    0.60
   1   4  -2   13.19    0.59
   2   4  -2  391.72   16.49
  -3  -4   2   22.27    2.29
   3   4  -2   18.57    1.29
  -4  -4   2   16.47    2.44
   4   4  -2   16.86    1.77
  -5  -4   2  137.02    9.11
   5   4  -2  171.32    8.23
   6   4  -2    4.69    1.19
   7   4  -2    2.15    1.09
   8   4  -2   23.07    2.11
 -12   5  -2  211.91    8.61
  12  -5   2  181.60   12.64
 -11   5  -2    6.86    2.61
  11  -5   2    6.71    2.65
 -10   5  -2   24.47    4.18
  10  -5   2   32.25    4.81
  -9   5  -2  155.87    9.25
   9  -5   2  134.90    8.58
  -8   5  -2  168.58    8.89
   8  -5   2  165.77    9.28
  -7   5  -2   36.29    3.31
   7  -5   2   30.36    3.83
  -6   5  -2  123.81    5.02
   6  -5   2  135.47    5.88
  -5   5  -2    4.12    1.51
   5  -5   2    3.80    1.54
   5  -5   2   10.38    1.62
  -4   5  -2   12.45    1.74
   4  -5   2   11.36    2.01
   4  -5   2   14.45    2.36
  -3   5  -2  123.39    4.40
   3  -5   2  124.79    4.06
  -3   5  -2  143.50    3.69
  -2   5  -2  227.93    5.85
   2  -5   2  228.27    5.52
  -2   5  -2  252.10    6.45
  -1   5  -2    3.28    0.68
   1  -5   2    3.94    0.60
  -1   5  -2    4.43    1.11
   0   5  -2    6.10    1.65
   1   5  -2  166.46    8.37
   3   5  -2  212.82    7.78
  -4  -5   2   84.62    5.33
   4   5  -2   89.46    4.29
  -5  -5   2   34.17    4.02
   5   5  -2   25.57    2.83
   6   5  -2   11.93    1.18
   7   5  -2  136.63    3.59
   7   5  -2  134.24    6.70
 -12   6  -2   22.84    4.23
  12  -6   2   16.30    3.98
  11  -6   2    3.81    1.92
 -10   6  -2    3.90    1.90
  10  -6   2    4.77    2.04
  -9   6  -2   12.24    2.44
   9  -6   2    9.41    2.45
  -8   6  -2  129.69    7.41
   8  -6   2  130.32    7.86
  -7   6  -2   32.60    3.20
   7  -6   2   27.99    1.33
  -6   6  -2   68.40    4.20
   6  -6   2   59.25    4.24
   6  -6   2   69.63    3.60
  -5   6  -2  170.26    8.68
   5  -6   2  165.03    8.63
   5  -6   2  173.76    7.76
  -4   6  -2  352.23   15.86
   4  -6   2  327.41   14.79
  -3   6  -2  306.77   12.11
   3  -6   2  265.89   10.44
  -3   6  -2  312.26   12.00
  -2   6  -2  318.59   13.73
   2  -6   2  322.41   13.78
  -2   6  -2  313.93   14.35
  -1   6  -2  124.29    4.03
   0   6  -2   60.94    7.01
   1   6  -2   60.57    5.45
   2   6  -2   92.77    9.25
   3   6  -2   16.26    4.09
   4   6  -2   10.25    1.83
   5   6  -2    2.06    1.55
   6   6  -2   17.04    1.72
   6   6  -2   10.73    2.49
 -12   7  -2  135.28    7.03
  12  -7   2  136.04    7.71
 -11   7  -2    4.55    2.41
  11  -7   2   -0.95    1.52
 -10   7  -2   58.01    5.35
  10  -7   2   72.93    6.52
  -9   7  -2    6.64    2.39
   9  -7   2    8.88    2.47
   9  -7   2    9.20    1.27
  -8   7  -2   13.34    2.39
   8  -7   2    7.60    2.39
   8  -7   2   12.38    1.17
  -7   7  -2  228.22   10.84
   7  -7   2  240.90   11.48
   7  -7   2  269.14   10.31
  -6   7  -2   60.17    3.63
   6  -7   2   60.78    4.11
   6  -7   2   53.08    3.26
  -5   7  -2   16.08    2.07
   5  -7   2   12.31    2.08
   5  -7   2   14.60    2.37
  -4   7  -2   19.07    1.95
   4  -7   2   17.91    5.22
  -4   7  -2   17.89    1.34
  -3   7  -2   54.02    3.75
  -2   7  -2   38.70    1.31
   2  -7   2   32.97    1.26
  -2   7  -2   40.90    4.64
  -1   7  -2   35.48    7.11
   0   7  -2  230.22   10.87
   1   7  -2    3.92    1.71
   2   7  -2   24.98    6.44
   3   7  -2   79.33    7.93
   4   7  -2   -0.50    0.98
   5   7  -2  194.56   13.16
 -12   8  -2   19.35    3.11
  12  -8   2   29.00    3.93
 -11   8  -2   13.12    2.64
  11  -8   2   16.02    3.61
  11  -8   2   12.49    1.43
 -10   8  -2    6.37    2.47
  10  -8   2    2.58    2.42
  10  -8   2    5.78    1.16
  -9   8  -2   65.97    5.48
   9  -8   2   63.62    5.89
   9  -8   2   70.87    5.32
  -8   8  -2   12.58    2.45
   8  -8   2    5.64    2.27
   8  -8   2    7.95    1.62
  -7   8  -2    3.02    1.81
   7  -8   2    2.61    2.10
   7  -8   2    6.04    1.19
  -6   8  -2  106.02    5.85
   6  -8   2  125.03    6.89
   6  -8   2  109.00    6.11
  -5   8  -2  207.79    9.08
   5  -8   2  195.85    8.74
   5  -8   2  190.62    8.21
  -4   8  -2   17.90    1.74
   4  -8   2   15.48    1.78
  -4   8  -2   18.98    1.82
  -3   8  -2  165.44    6.68
   3  -8   2  160.72    6.49
  -3   8  -2  173.99    7.79
  -2   8  -2  120.22    8.24
  -1   8  -2   12.38    2.54
   0   8  -2   12.59    3.71
   2   8  -2   15.77    3.08
   3   8  -2    3.80    1.33
   4   8  -2   14.26    2.76
  12  -9   2    9.04    2.95
 -11   9  -2   19.32    3.24
  11  -9   2   24.32    3.52
 -10   9  -2   73.35    6.73
  10  -9   2   64.25    6.71
  10  -9   2   69.96    6.82
  -9   9  -2  104.28    5.49
   9  -9   2   88.73    5.96
   9  -9   2   85.34    5.40
  -8   9  -2    3.25    1.36
   8  -9   2    2.91    2.15
   8  -9   2    5.30    1.33
  -7   9  -2   30.62    2.85
   7  -9   2   24.26    2.71
   7  -9   2   23.38    4.25
  -6   9  -2   15.92    1.96
   6  -9   2   22.87    2.37
   6  -9   2   20.47    3.93
  -5   9  -2   94.08    5.21
   5  -9   2   75.81    6.10
  -4   9  -2  160.32    7.62
   4  -9   2  144.48    6.92
  -4   9  -2  158.81    7.91
  -3   9  -2   10.59    1.64
   3  -9   2   12.16    0.93
  -3   9  -2   11.35    2.39
  -2   9  -2    7.50    1.61
  -1   9  -2   61.78    9.75
   0   9  -2   94.17    6.49
   1   9  -2  125.56   10.94
   2   9  -2    1.40    0.80
   3   9  -2    1.57    1.56
  11 -10   2    7.20    2.82
 -10  10  -2  101.87    5.56
  10 -10   2   86.06    5.99
  -9  10  -2  146.89   11.36
   9 -10   2  132.51   10.63
   9 -10   2  129.70    9.69
  -8  10  -2   18.14    2.39
   8 -10   2   14.61    2.53
   8 -10   2   14.22    3.15
  -7  10  -2   83.04    5.62
   7 -10   2  113.13    7.41
   7 -10   2  109.89    8.68
  -6  10  -2    9.43    1.57
   6 -10   2   13.20    1.95
  -5  10  -2   29.57    4.58
   5 -10   2   32.74    3.70
  -4  10  -2    4.40    1.04
   4 -10   2    7.63    1.21
  -4  10  -2    7.03    1.43
  -3  10  -2   47.93   10.63
  -2  10  -2    7.49    2.12
  -1  10  -2   55.24   11.54
   0  10  -2   78.61    6.14
   1  10  -2    2.68    2.24
 -10  11  -2    6.25    2.05
  10 -11   2    7.17    2.34
  -9  11  -2    5.45    1.89
   9 -11   2    7.37    2.46
   9 -11   2    4.00    0.94
  -8  11  -2    6.23    1.55
   8 -11   2    4.53    1.77
   8 -11   2    5.08    1.28
  -7  11  -2   -0.46    0.67
   7 -11   2   -0.71    0.88
  -6  11  -2    2.06    1.06
   6 -11   2    3.16    1.14
  -5  11  -2    9.40    2.09
   5 -11   2    9.90    1.30
  -4  11  -2    0.32    0.80
  -3  11  -2   11.79    2.03
  -2  11  -2   15.13    4.32
  -1  11  -2    1.55    1.14
  -9  12  -2    1.83    1.40
   9 -12   2    0.84    1.30
  -8  12  -2   18.02    2.35
   8 -12   2   13.73    2.24
  -7  12  -2  201.34    5.49
   7 -12   2  192.06    5.28
  -6  12  -2   16.08    3.87
   6 -12   2   14.85    1.96
  -5  12  -2  134.59    2.60
  -4  12  -2   25.47    2.50
  -3  12  -2    1.39    0.97
   5 -12  -3   45.20    3.89
   5 -12  -3   48.13    3.09
  -6  12   3    5.80    1.82
   6 -12  -3    3.95    2.03
   7 -12  -3   47.57    4.20
   1 -11  -3   11.36    1.81
   2 -11  -3   92.44   14.44
  -2  11   3  100.73    5.63
   3 -11  -3   30.98    2.95
   3 -11  -3   25.87    2.26
   3 -11  -3   22.28    4.86
   4 -11  -3   19.09    2.55
   4 -11  -3   20.52    2.16
   4 -11  -3   16.60    4.12
   5 -11  -3   13.69    2.39
   5 -11  -3   14.92    3.44
  -6  11   3   29.45    6.08
   6 -11  -3   40.94    4.27
   6 -11  -3   31.91    6.22
  -7  11   3    3.49    1.30
   7 -11  -3    5.19    1.24
  -8  11   3   26.45    7.74
   8 -11  -3   48.89    4.53
   8 -11  -3   33.57    8.75
   9 -11  -3   55.45    5.09
   9 -11  -3   36.07    8.90
 -10  11   3    8.44    2.42
  10 -11  -3    7.37    2.34
  10 -11  -3   12.60    2.28
   1  10   3   12.33    3.03
   0 -10  -3   49.35    6.11
   0  10   3   66.19    4.71
   1 -10  -3   77.53   10.16
   1 -10  -3   84.51    5.62
   1 -10  -3   75.89   16.74
  -1  10   3   71.06    5.94
   2 -10  -3   43.63    4.06
   2 -10  -3   40.54    5.70
   2 -10  -3   37.94    8.27
  -2  10   3   46.53    4.76
   3 -10  -3    2.73    1.30
   3 -10  -3    1.77    0.91
   3 -10  -3    1.18    1.29
   4 -10  -3   28.49    2.59
   4 -10  -3   36.22    3.07
   4 -10  -3   31.12    7.10
  -5  10   3    5.16    1.56
   5 -10  -3    4.49    1.78
   5 -10  -3    6.78    1.71
  -6  10   3   36.33    3.85
   6 -10  -3   45.56    4.09
   6 -10  -3   41.02    7.50
  -7  10   3    7.10    1.89
   7 -10  -3   12.18    2.38
   7 -10  -3   10.98    2.70
  -8  10   3   31.82    7.35
   8 -10  -3   25.33    3.56
   8 -10  -3   18.57    5.42
  -9  10   3   48.23    4.82
   9 -10  -3   54.99    5.69
   9 -10  -3   55.67    4.52
 -10  10   3   43.27   11.15
  10 -10  -3   43.75    4.49
  10 -10  -3   46.22    3.55
  11 -10  -3   11.85    2.93
  11 -10  -3   10.13    1.95
  -2  -9  -3   37.56    3.70
  -2  -9  -3   47.72    3.02
   2   9   3   35.72    5.38
  -1  -9  -3   46.92    4.94
  -1  -9  -3   51.61    3.89
   1   9   3   46.20    4.51
   0  -9  -3   54.70    5.18
   0  -9  -3   71.48    3.75
   0  -9  -3   61.98   12.91
   0   9   3   75.55    5.05
   1  -9  -3    3.35    0.58
   1  -9  -3    2.18    1.22
   1  -9  -3    4.78    1.47
  -1   9   3    3.83    1.50
   2  -9  -3  297.04   16.18
   2  -9  -3  307.33    6.38
   2  -9  -3  302.77    9.39
  -2   9   3  273.50   15.66
   3  -9  -3   92.25    4.65
   3  -9  -3   77.14    3.89
   3  -9  -3   84.85   11.52
  -4   9   3  121.51    5.37
   4  -9  -3  113.42    5.33
   4  -9  -3  103.92    9.24
  -5   9   3   79.77    5.21
   5  -9  -3   67.96    4.34
   5  -9  -3   65.00   12.36
  -6   9   3  148.04   14.69
   6  -9  -3  146.37    9.51
   6  -9  -3  137.86    8.53
  -7   9   3  239.78   20.55
   7  -9  -3  296.21   17.12
   7  -9  -3  280.64   15.57
  -8   9   3    2.79    1.04
   8  -9  -3    1.09    1.56
   8  -9  -3    4.04    1.72
  -9   9   3   66.11    7.09
   9  -9  -3   74.15    5.77
   9  -9  -3   67.85    4.00
 -10   9   3   60.60   12.21
  10  -9  -3   71.07    6.80
  10  -9  -3   83.02    5.89
 -11   9   3   87.74   10.18
  11  -9  -3  104.51    6.98
  -3  -8  -3   39.73    3.63
  -3  -8  -3   48.34    3.08
   3   8   3   34.40    6.36
  -2  -8  -3   19.28    4.24
  -2  -8  -3   18.92    4.35
   2   8   3   26.28    4.81
  -1  -8  -3    1.59    0.70
  -1  -8  -3    1.27    0.57
  -1  -8  -3    2.62    1.97
   1   8   3    3.82    0.72
   0  -8  -3   47.32    5.35
   0  -8  -3   51.96    3.91
   0  -8  -3   53.42    6.91
   0   8   3   44.51    5.68
   1  -8  -3    2.06    0.88
   1  -8  -3    1.94    1.30
   1  -8  -3    2.52    1.27
  -1   8   3   -0.04    1.26
   2  -8  -3   60.38    7.01
   2  -8  -3   71.15    4.42
   2  -8  -3   76.20   12.58
  -2   8   3   59.95    4.37
   3  -8  -3   15.93    2.02
   3  -8  -3   14.48    2.06
   3  -8  -3   13.12    2.44
  -4   8   3    4.22    1.52
   4  -8  -3    2.76    1.11
   4  -8  -3    4.37    1.22
  -5   8   3   25.37    4.87
   5  -8  -3   23.51    2.67
   5  -8  -3   24.18    5.05
  -6   8   3   62.86    6.45
   6  -8  -3   52.62    4.32
   6  -8  -3   46.09    3.68
  -7   8   3    0.62    0.62
   7  -8  -3    0.46    1.31
   7  -8  -3    0.94    1.18
  -8   8   3   46.27    6.73
   8  -8  -3   48.30    4.12
   8  -8  -3   52.76    4.21
  -9   8   3    4.84    1.77
   9  -8  -3    1.32    1.55
 -10   8   3   45.05   10.94
  10  -8  -3   46.99    5.53
 -11   8   3   21.43    4.99
  11  -8  -3   21.17    3.81
  -5  -7  -3   46.32    3.25
   5   7   3   30.56    5.27
  -4  -7  -3    4.34    1.59
   4   7   3    2.13    0.98
  -3  -7  -3   11.95    2.76
  -3  -7  -3   16.44    2.24
   3   7   3    9.85    1.72
  -2  -7  -3  296.57   16.04
  -2  -7  -3  292.02   15.80
   2   7   3  258.94   17.81
  -1  -7  -3    0.69    0.65
  -1  -7  -3    0.57    0.95
  -1  -7  -3    0.99    1.01
   1   7   3    1.31    0.66
   0  -7  -3   51.78    4.12
   0  -7  -3   47.63    2.91
   0  -7  -3   40.63    8.86
   1  -7  -3   30.89    2.55
   1  -7  -3   31.40    2.51
   1  -7  -3   33.04    4.76
  -1   7   3   29.15    2.83
   2  -7  -3  130.64    9.78
   2  -7  -3  132.24    8.30
   2  -7  -3  138.73    9.10
  -2   7   3  143.69    9.26
  -3   7   3  102.47    6.75
   3  -7  -3  117.48    9.51
   3  -7  -3  117.65    7.92
  -4   7   3  157.79   11.42
   4  -7  -3  180.43   11.21
   4  -7  -3  187.00   11.95
  -5   7   3  150.90   10.34
   5  -7  -3  118.19    7.96
   5  -7  -3  121.18    7.88
  -6   7   3   88.86    7.88
   6  -7  -3  110.95    6.53
   6  -7  -3  109.60    5.62
  -7   7   3   28.55    3.16
   7  -7  -3   41.65    3.89
  -8   7   3    2.53    0.92
   8  -7  -3    1.22    1.63
  -9   7   3  260.56   15.41
   9  -7  -3  305.55   10.21
 -10   7   3    2.11    1.88
  10  -7  -3    4.29    2.12
 -11   7   3   16.10    4.09
  11  -7  -3   17.44    3.72
  12  -7  -3   61.10    6.19
  -6  -6  -3    2.99    1.45
   6   6   3    2.60    1.26
   6   6   3    3.64    1.39
  -5  -6  -3   34.46    3.27
   5   6   3   37.45    3.32
   5   6   3   28.69    7.74
  -4  -6  -3   48.94    3.55
   4   6   3   45.25    3.00
   4   6   3   40.23   11.19
  -3  -6  -3  145.04    5.77
  -3  -6  -3  139.83    5.85
   3   6   3  147.29    9.96
  -2  -6  -3   56.00    4.08
  -2  -6  -3   47.57    3.46
  -2  -6  -3   47.74    4.12
   2   6   3   52.65   11.07
  -1  -6  -3  110.42    7.38
  -1  -6  -3  116.02    5.83
  -1  -6  -3  114.01    6.36
   1   6   3   99.91    9.07
   0  -6  -3  111.06    8.13
   0  -6  -3  109.40    7.01
   0  -6  -3  112.11    8.19
   0   6   3   94.42    6.69
   1  -6  -3   62.26    6.16
   1  -6  -3   68.55    3.19
   1  -6  -3   71.99    5.79
  -1   6   3   67.08    3.89
   2  -6  -3   86.94    5.37
   2  -6  -3   86.27    3.73
   2  -6  -3   96.60   14.50
  -3   6   3    0.60    0.73
   3  -6  -3    0.45    1.12
   3  -6  -3    1.01    0.89
  -4   6   3   77.35    7.10
   4  -6  -3   91.45    4.47
   4  -6  -3   85.99    3.85
  -5   6   3   12.38    2.12
   5  -6  -3    5.01    1.91
   5  -6  -3    3.65    1.15
  -6   6   3   89.17    4.44
   6  -6  -3  110.46    7.88
  -7   6   3   30.81    7.39
   7  -6  -3   28.01    3.15
  -8   6   3   61.45   10.92
   8  -6  -3   64.69    5.36
  -9   6   3   89.00    8.76
   9  -6  -3   75.18    6.58
 -10   6   3   22.35    5.84
  10  -6  -3   29.59    3.98
 -11   6   3   20.53    4.33
  11  -6  -3    5.03    2.30
  12  -6  -3    1.42    2.07
   7   5   3   37.57    3.26
   7   5   3   32.75    5.64
   6   5   3   12.90    1.80
   6   5   3   14.98    3.70
  -5  -5  -3    5.67    1.61
   5   5   3    2.02    0.89
   5   5   3    4.91    1.50
  -4  -5  -3   72.50    4.28
   4   5   3   72.43    4.05
   4   5   3   65.21    4.40
  -3  -5  -3   23.37    2.38
   3   5   3   24.23    2.33
   3   5   3   25.86    4.71
  -2  -5  -3  117.35    7.62
  -2  -5  -3  109.34   11.34
   2   5   3  134.76   12.20
  -1  -5  -3    9.21    2.28
  -1  -5  -3    5.70    1.83
  -1  -5  -3    5.00    1.04
   1   5   3    7.94    1.11
   0  -5  -3  569.25   24.95
   0  -5  -3  516.56   22.48
   0  -5  -3  530.40   23.58
   0   5   3  465.30   20.76
   1  -5  -3   69.48    9.23
   1  -5  -3   67.39    3.11
   1  -5  -3   62.08    4.74
  -1   5   3   77.76    3.75
  -2   5   3  307.73   12.39
   2  -5  -3  294.54   12.64
   2  -5  -3  311.86   12.70
  -3   5   3  353.69   14.39
   3  -5  -3  365.35   20.92
   3  -5  -3  340.94   13.62
  -4   5   3  132.73    9.20
   4  -5  -3  128.33    4.78
   4  -5  -3  132.34    4.23
  -5   5   3  471.38   21.08
   5  -5  -3  501.98   22.46
  -6   5   3   60.83    5.22
   6  -5  -3   67.40    4.30
  -7   5   3  133.20    9.39
   7  -5  -3  134.16    9.30
  -8   5   3   13.25    3.08
   8  -5  -3   13.11    2.38
  -9   5   3  108.67   12.64
   9  -5  -3  122.64    7.06
 -10   5   3    3.69    1.56
  10  -5  -3    3.02    1.86
 -11   5   3   30.70    7.58
  11  -5  -3   25.31    3.56
  -7  -4  -3   17.06    2.62
   7   4   3   23.36    2.68
   7   4   3   20.26    3.68
  -6  -4  -3   30.61    3.07
   6   4   3   29.84    2.94
   6   4   3   24.99    3.47
  -5  -4  -3  118.96    5.67
   5   4   3  116.30    5.48
  -4  -4  -3    3.58    1.71
   4   4   3    3.97    1.69
   4   4   3    3.08    0.97
  -3  -4  -3  176.96   10.82
   3   4   3  152.37    9.47
   3   4   3  154.11   12.27
  -2  -4  -3   84.05    3.67
   2   4   3   79.43    3.64
  -2  -4  -3   82.78    8.63
   2   4   3   74.62    5.73
  -1  -4  -3  140.80    4.47
  -1  -4  -3  135.67    4.33
  -1  -4  -3  130.07    4.66
   1   4   3  137.62    8.03
   0  -4  -3   17.30    1.75
   0  -4  -3   19.34    2.37
   0  -4  -3   19.30    4.28
   0   4   3   11.94    1.72
   1  -4  -3   33.99    2.73
   1  -4  -3   32.57    2.36
   1  -4  -3   40.02    7.12
  -2   4   3    0.34    0.59
   2  -4  -3    0.79    0.75
   2  -4  -3   -0.82    1.13
  -3   4   3   39.94    4.57
   3  -4  -3   41.94    3.75
   3  -4  -3   45.06    3.09
  -4   4   3   12.15    2.67
   4  -4  -3   19.54    2.51
  -5   4   3   91.04   11.47
   5  -4  -3   64.21    3.84
  -6   4   3   74.98    7.86
   6  -4  -3   94.19    5.10
  -7   4   3  112.14   15.42
   7  -4  -3  104.75    7.64
  -8   4   3    2.21    0.76
   8  -4  -3    2.66    1.71
  -9   4   3   62.99    5.93
   9  -4  -3   68.78    5.52
 -10   4   3   45.13    8.80
  10  -4  -3   43.49    4.33
 -11   4   3    8.01    1.98
  11  -4  -3    4.35    2.55
  -8  -3  -3   28.47    3.22
   8   3   3   26.45    2.88
   8   3   3   25.58    4.67
  -7  -3  -3    4.89    1.66
   7   3   3    4.85    1.50
   7   3   3    8.31    1.76
  -6  -3  -3   79.86    5.87
   6   3   3   90.57    6.34
   6   3   3   88.83    7.91
  -5  -3  -3   13.29    2.35
   5   3   3   11.75    2.06
   5   3   3   14.82    2.26
  -4  -3  -3  111.13    7.38
   4   3   3   97.21    6.73
   4   3   3   95.17    7.79
  -3  -3  -3    3.14    1.59
   3   3   3   -0.12    1.12
   3   3   3   -1.51    1.10
  -2  -3  -3  347.67   13.96
   2   3   3  341.52   13.73
  -2  -3  -3  330.44   14.87
   2   3   3  346.65   13.95
  -1  -3  -3   48.07    3.27
   1   3   3   36.92    2.64
  -1  -3  -3   49.57    7.47
   1   3   3   35.94    2.51
   0  -3  -3  262.05    8.83
   0  -3  -3  255.45    7.26
   1  -3  -3  200.26    6.47
   1  -3  -3  198.58    5.95
   1  -3  -3  200.04    5.73
  -2   3   3  194.12    5.90
   2  -3  -3  180.08    5.66
   2  -3  -3  184.53    5.38
  -3   3   3  212.76    6.45
   3  -3  -3  248.28    7.31
  -4   3   3   29.55    6.26
   4  -3  -3   38.09    3.00
  -5   3   3  300.22   13.70
   5  -3  -3  281.74   12.00
  -6   3   3   -1.69    1.11
   6  -3  -3    1.32    1.50
  -7   3   3  153.65   11.07
   7  -3  -3  175.61   11.45
  -8   3   3   23.64    5.75
   8  -3  -3   22.98    3.22
  -9   3   3  127.11    9.22
   9  -3  -3  144.37    9.69
 -10   3   3    8.64    1.87
  10  -3  -3   15.18    3.22
 -11   3   3   26.76    8.32
  11  -3  -3   39.54    4.25
  -9  -2  -3  108.50    6.14
   9   2   3   93.23    5.41
   9   2   3   78.73   16.48
  -8  -2  -3   42.88    4.72
   8   2   3   46.39    4.78
   8   2   3   59.09    5.61
  -7  -2  -3  310.72    8.64
   7   2   3  290.09   16.56
   7   2   3  258.46   16.19
  -6  -2  -3   65.27    4.97
   6   2   3   70.54    5.26
   6   2   3   75.57    7.60
  -5  -2  -3  131.08    8.73
   5   2   3  147.33    9.56
   5   2   3  161.37   10.63
  -4  -2  -3   74.11    3.80
   4   2   3   79.04    3.95
   4   2   3   67.71    5.76
  -3  -2  -3  278.21   11.50
   3   2   3  286.38   11.85
  -3  -2  -3  282.66   11.54
   3   2   3  301.81   13.06
  -2  -2  -3   -0.23    1.16
   2   2   3    0.16    1.21
  -2  -2  -3    0.69    0.71
   2   2   3   -1.36    1.02
  -1  -2  -3  187.14    6.00
   1   2   3  182.78    5.74
  -1  -2  -3  180.53    8.64
   1   2   3  180.56    5.19
   0  -2  -3   55.33    8.24
   0  -2  -3   51.19    4.11
   0  -2  -3   53.97    4.08
   1  -2  -3    9.98    2.50
   1  -2  -3    5.52    1.47
   1  -2  -3    8.87    1.45
  -2   2   3   44.74    3.69
   2  -2  -3   50.34    4.22
  -3   2   3  183.84    6.71
   3  -2  -3  199.41    6.80
  -4   2   3    0.84    1.06
   4  -2  -3   -0.46    1.13
  -5   2   3  346.06   16.49
   5  -2  -3  338.39   13.97
  -6   2   3   71.62    4.18
   6  -2  -3   88.12    4.66
  -7   2   3  136.92   10.21
   7  -2  -3  119.01    8.37
  -8   2   3   52.65    9.99
   8  -2  -3   48.32    4.51
  -9   2   3  244.18   17.06
 -10   2   3   32.65    7.91
  10  -2  -3   17.10    3.15
 -11   2   3   32.88    8.20
  11  -2  -3   38.74    3.98
 -10  -1  -3   14.34    3.10
  10   1   3    7.56    2.49
  -9  -1  -3   85.53    6.99
   9   1   3   76.29    6.38
   9   1   3   72.46    6.59
  -8  -1  -3    0.24    1.18
   8   1   3    3.91    1.96
   8   1   3    2.93    1.74
   7   1   3    2.94    2.09
   7   1   3    0.82    0.62
  -6  -1  -3   27.84    2.69
   6   1   3   23.45    2.89
   6   1   3   24.57    5.77
  -5  -1  -3   64.20    4.20
   5   1   3   68.83    3.86
   5   1   3   66.76    4.83
  -4  -1  -3   63.94    3.54
   4   1   3   73.95    4.47
   4   1   3   74.59    6.02
  -3  -1  -3   30.35    2.42
   3   1   3   24.64    2.50
  -3  -1  -3   30.19    2.20
   3   1   3   32.14    4.60
  -2  -1  -3  178.69    5.64
   2   1   3  187.19    5.88
  -2  -1  -3  185.54    6.12
   2   1   3  190.88    5.29
  -1  -1  -3    6.24    1.50
   1   1   3    4.56    1.73
  -1  -1  -3    7.87    1.30
   1   1   3    7.95    1.44
   0  -1  -3   44.16    2.62
   0  -1  -3   45.40    2.64
   0  -1  -3   45.63    2.17
   1  -1  -3   45.10    5.76
   1  -1  -3   44.64    2.67
  -2   1   3   10.85    2.49
   2  -1  -3    8.04    1.95
  -3   1   3  188.60    6.76
   3  -1  -3  194.11    5.92
  -4   1   3   37.45    4.81
   4  -1  -3   38.61    2.64
  -5   1   3  135.46    6.45
   5  -1  -3  136.70    5.11
  -6   1   3   16.05    3.18
   6  -1  -3    7.14    2.25
  -7   1   3   81.74    9.23
   7  -1  -3  107.01    6.38
  -8   1   3   -0.13    0.61
   8  -1  -3    2.15    1.60
  -9   1   3   -0.14    0.82
   9  -1  -3    2.75    1.58
 -10   1   3   43.06   11.17
  10  -1  -3   52.36    5.04
  11  -1  -3    8.15    2.33
 -10   0  -3   54.13    4.64
  10   0   3   58.94    4.53
  10   0   3   52.20    9.30
  -9   0  -3   61.90    4.81
   9   0   3   81.16    5.27
   9   0   3   73.64    5.03
  -8   0  -3   48.27    3.90
   8   0   3   46.90    5.76
   8   0   3   46.27   10.58
  -7   0  -3   48.80    4.20
   7   0   3   35.89    3.27
   7   0   3   33.40    7.73
  -6   0  -3  107.57    7.55
   6   0   3   87.99    4.45
   6   0   3   91.19    7.79
  -5   0  -3  520.60   23.22
   5   0   3  475.53   21.41
   5   0   3  482.44   21.25
  -4   0  -3   18.33    2.49
   4   0   3   11.82    2.09
   4   0   3   11.26    1.82
  -3   0  -3  236.89    6.39
   3   0   3  200.48    8.54
  -2   0  -3   50.51    4.15
   2   0   3   43.66    3.86
  -2   0  -3   53.71    6.55
   2   0   3   41.74    3.16
  -1   0  -3   47.70    2.76
   1   0   3   40.27    2.49
  -1   0  -3   47.25    2.13
   0   0  -3   -0.08    0.87
   0   0  -3    0.14    0.89
   1   0  -3   45.91    2.49
   1   0  -3   43.31    2.37
  -2   0   3   42.55    3.53
   2   0  -3   49.51    4.24
  -4   0   3   13.19    2.10
   4   0  -3   17.36    2.04
  -5   0   3  475.35   21.41
   5   0  -3  501.51   22.27
  -6   0   3   88.21    5.13
   6   0  -3  108.60    7.61
  -7   0   3   30.91    7.69
   7   0  -3   47.40    4.07
  -8   0   3   45.58   11.76
   8   0  -3   50.72    4.70
  -9   0   3   64.86   10.44
   9   0  -3   60.08    4.43
 -10   0   3   53.54   15.01
  10   0  -3   52.60    4.15
  11  -1   3   14.12    3.25
  11  -1   3    9.60    2.86
 -10   1  -3   49.77    4.90
  10  -1   3   41.97    4.44
  10  -1   3   39.71    7.52
  -9   1  -3    1.39    1.70
   9  -1   3    1.21    1.32
   9  -1   3    2.60    0.83
  -8   1  -3   -0.17    1.35
   8  -1   3    2.03    2.13
   8  -1   3    1.32    0.54
  -7   1  -3  119.84    7.01
   7  -1   3   90.61    5.68
   7  -1   3   99.03   11.39
  -6   1  -3    7.17    2.41
   6  -1   3    3.74    1.90
   6  -1   3    6.35    1.51
  -5   1  -3  129.49    5.09
   5  -1   3  143.15    4.92
   5  -1   3  149.30    4.31
  -4   1  -3   40.28    2.93
   4  -1   3   37.23    2.90
   4  -1   3   36.03    2.08
  -3   1  -3  185.23    5.82
   3  -1   3  183.49    5.87
  -3   1  -3  182.18    4.75
   3  -1   3  186.97    4.48
  -2   1  -3    4.54    1.30
   2  -1   3    7.83    1.87
  -2   1  -3    7.54    1.67
  -1   1  -3   47.02    2.60
   1  -1   3   38.65    2.47
   0   1  -3   42.89    2.42
   0   1  -3   44.37    2.44
   1   1  -3   10.10    2.27
   1   1  -3    6.15    1.26
  -2  -1   3  193.98    5.45
   2   1  -3  198.38    5.72
  -3  -1   3   27.50    3.12
   3   1  -3   34.89    2.15
  -4  -1   3   78.01    4.70
   4   1  -3   57.21    3.09
  -5  -1   3   57.57    4.31
   5   1  -3   61.95    3.40
  -6  -1   3   33.12    6.75
   6   1  -3   28.43    2.74
  -7  -1   3    1.60    1.05
   7   1  -3    2.37    1.31
  -8  -1   3    1.20    0.82
   8   1  -3    2.43    1.58
   9   1  -3   79.16    6.09
  10   1  -3   11.41    2.47
 -10   2  -3   22.37    3.46
  10  -2   3   26.92    3.83
  10  -2   3   30.16    6.57
  -9   2  -3  291.34   17.21
   9  -2   3  227.10   13.69
   9  -2   3  239.75   17.66
  -8   2  -3   38.40    3.72
   8  -2   3   49.34    4.34
   8  -2   3   45.51    6.50
  -7   2  -3  115.52    8.24
   7  -2   3  135.22    9.41
   7  -2   3  150.55   13.57
  -6   2  -3   84.09    4.52
   6  -2   3   67.93    4.16
   6  -2   3   74.99    5.38
  -5   2  -3  340.17   14.08
   5  -2   3  335.43   13.93
   5  -2   3  358.58   13.53
  -4   2  -3    0.19    1.27
   4  -2   3   -1.04    1.46
   4  -2   3    0.55    0.26
  -3   2  -3  184.26    7.88
   3  -2   3  182.72    5.85
  -2   2  -3   47.97    3.90
   2  -2   3   45.22    3.80
  -2   2  -3   49.97    3.40
  -1   2  -3    8.70    1.48
   1  -2   3    7.08    1.55
   0   2  -3   50.76    4.08
   0   2  -3   52.29    3.92
   1   2  -3  180.64    5.34
   1   2  -3  188.24    4.95
  -2  -2   3   -0.13    0.46
   2   2  -3    0.33    0.36
  -3  -2   3  319.30   12.87
   3   2  -3  286.24   11.33
  -4  -2   3   75.35    3.89
   4   2  -3   77.50    3.47
  -5  -2   3  152.07    9.43
   5   2  -3  131.32    8.54
  -6  -2   3   65.19    4.66
   6   2  -3   69.79    4.71
  -7  -2   3  266.30   15.93
   7   2  -3  268.34   14.95
   8   2  -3   55.10    5.30
   9   2  -3  104.64    4.81
 -11   3  -3   39.91    4.24
  11  -3   3   32.53    3.67
  11  -3   3   36.38    9.18
 -10   3  -3   11.81    2.57
  10  -3   3   10.22    2.40
  10  -3   3   11.53    2.68
  -9   3  -3  135.40    9.28
   9  -3   3  131.09    8.93
   9  -3   3  137.15   12.70
  -8   3  -3   16.93    2.86
   8  -3   3   20.13    2.90
   8  -3   3   20.30    4.66
  -7   3  -3  157.05   10.30
   7  -3   3  133.79    9.02
   7  -3   3  151.97   11.36
  -6   3  -3   -0.59    1.56
   6  -3   3   -0.02    0.48
  -5   3  -3  273.44   11.70
   5  -3   3  283.08   12.06
   5  -3   3  297.94   10.88
  -4   3  -3   31.27    2.37
   4  -3   3   23.09    2.31
   3  -3   3  194.49    5.97
  -2   3  -3  176.76    5.08
   2  -3   3  171.75    5.09
  -1   3  -3  194.28    5.19
   1  -3   3  188.36    5.14
   0   3  -3  256.09    6.22
   0   3  -3  253.54    6.13
   1   3  -3   44.73    3.35
   1   3  -3   44.22    2.73
   2   3  -3  334.37   12.71
   2   3  -3  332.36   12.52
  -3  -3   3   -0.13    0.42
   3   3  -3    1.59    1.05
  -4  -3   3  101.46    7.21
   4   3  -3  113.64    7.30
  -5  -3   3   15.22    3.59
   5   3  -3   14.25    2.03
  -6  -3   3   87.51    6.17
   6   3  -3   72.44    3.79
   7   3  -3    3.28    1.37
  -8  -3   3   21.67    5.40
   8   3  -3   26.91    3.28
 -11   4  -3    1.64    1.92
  11  -4   3    3.28    1.79
  11  -4   3    2.91    0.87
 -10   4  -3   42.47    4.26
  10  -4   3   33.97    3.47
  10  -4   3   32.55    8.14
  -9   4  -3   68.00    5.23
   9  -4   3   61.67    4.64
   9  -4   3   58.60    7.85
  -8   4  -3    4.10    1.76
   8  -4   3    3.69    1.78
   8  -4   3    2.71    1.28
  -7   4  -3   98.79    7.14
   7  -4   3   89.31    4.75
   7  -4   3   89.13    4.87
  -6   4  -3   79.24    4.09
   6  -4   3   73.20    4.31
   6  -4   3   76.44    2.22
  -5   4  -3   68.57    3.95
   5  -4   3   74.35    3.95
  -4   4  -3   15.94    2.09
   4  -4   3   12.14    2.15
  -3   4  -3   43.53    2.84
   3  -4   3   32.83    2.35
  -2   4  -3    1.98    1.46
   2  -4   3    0.91    1.06
  -2   4  -3    0.55    0.39
  -1   4  -3   30.99    1.78
   1  -4   3   26.70    1.69
   0   4  -3   17.93    3.09
   0   4  -3   17.51    1.25
   1   4  -3  135.10    3.01
   1   4  -3  131.95    2.85
   2   4  -3   79.67    2.54
   2   4  -3   87.24    2.26
   3   4  -3  177.60   10.26
  -4  -4   3    4.31    0.78
   4   4  -3    3.31    1.02
  -5  -4   3  107.45    6.65
   5   4  -3  129.46    5.07
  -6  -4   3   23.38    6.29
   6   4  -3   31.73    2.37
   7   4  -3   23.90    2.05
  12  -5   3   31.53    7.40
 -11   5  -3   40.03    4.69
  11  -5   3   38.47    4.71
  11  -5   3   32.60    7.66
 -10   5  -3    9.66    2.98
  10  -5   3    3.30    1.76
  10  -5   3    5.30    0.86
  -9   5  -3  122.68    6.70
   9  -5   3   95.56    7.73
  -8   5  -3   12.71    2.78
   8  -5   3   14.36    2.54
   8  -5   3   15.25    3.08
  -7   5  -3  120.86    8.37
   7  -5   3  139.56    9.49
   7  -5   3  150.56    8.40
  -6   5  -3   66.03    4.19
   6  -5   3   61.90    4.15
  -5   5  -3  459.67   20.52
   5  -5   3  426.97   19.27
  -4   5  -3  138.77    4.90
   4  -5   3  134.25    4.44
  -3   5  -3  348.75   13.79
   3  -5   3  337.32   13.21
  -3   5  -3  341.28   12.51
  -2   5  -3  284.36   11.19
   2  -5   3  290.38   11.71
  -2   5  -3  286.44   11.29
  -1   5  -3   59.93    2.29
  -1   5  -3   57.45    4.04
   0   5  -3  530.22   22.22
   0   5  -3  511.36   21.46
   1   5  -3    2.45    0.60
   1   5  -3    2.64    0.43
   2   5  -3  115.04    6.44
   2   5  -3  118.31    6.56
   3   5  -3   20.85    1.09
   3   5  -3   23.04    0.95
   4   5  -3   67.68    2.63
  -5  -5   3    4.74    0.80
   5   5  -3    5.21    0.99
   6   5  -3   15.80    1.28
   7   5  -3   45.22    2.14
  12  -6   3    5.23    2.92
  12  -6   3    2.27    1.01
 -11   6  -3   13.33    2.90
  11  -6   3   15.41    3.13
 -10   6  -3   34.64    3.79
  10  -6   3   26.61    3.69
  -9   6  -3   81.57    6.63
   9  -6   3   69.43    5.80
  -8   6  -3   68.85    5.26
   8  -6   3   53.15    4.76
   8  -6   3   72.66    3.36
  -7   6  -3   22.33    2.61
   7  -6   3   23.55    2.52
  -6   6  -3  103.37    7.35
   6  -6   3   83.07    4.30
  -5   6  -3    2.17    1.53
   5  -6   3    9.98    2.19
  -4   6  -3   79.80    3.62
   4  -6   3   79.32    3.40
  -3   6  -3    0.30    0.99
   3  -6   3   -0.44    0.98
  -3   6  -3   -0.09    0.54
   2  -6   3   77.93    3.91
  -2   6  -3   78.40    2.91
  -1   6  -3   65.02    2.58
  -1   6  -3   65.21    2.14
  -1   6  -3   58.37    4.77
   0   6  -3   98.44    8.25
   1   6  -3  104.16    5.58
   6   6  -3    1.75    1.71
  12  -7   3   28.37    3.87
 -11   7  -3   20.64    3.68
  11  -7   3   16.93    3.11
 -10   7  -3    4.50    2.29
  10  -7   3    2.59    1.23
  10  -7   3    3.69    0.67
  -9   7  -3  306.11    9.22
   9  -7   3  294.47   14.96
  -8   7  -3    1.52    1.46
   8  -7   3    1.13    1.59
  -7   7  -3   49.97    3.79
   7  -7   3   31.82    3.12
  -6   7  -3  103.74    5.93
   6  -7   3   93.24    5.43
  -5   7  -3  112.28    7.51
   5  -7   3  145.97    9.16
  -4   7  -3  177.86   10.76
   4  -7   3  154.60    9.31
  -4   7  -3  178.36   10.07
  -3   7  -3  105.33    6.64
   3  -7   3   95.20    5.92
  -3   7  -3  106.47    6.55
  -2   7  -3  132.55    7.73
   2  -7   3  152.71    8.65
  -2   7  -3  128.94   10.05
  -1   7  -3   26.09    6.41
   0   7  -3   44.78    8.54
   1   7  -3    0.93    0.81
   2   7  -3  274.47   15.53
   3   7  -3   10.84    2.81
   4   7  -3    3.55    1.47
   5   7  -3   32.04   11.17
 -11   8  -3   28.00    4.17
  11  -8   3   23.00    2.60
 -10   8  -3   38.32    4.56
  10  -8   3   37.53    9.27
  10  -8   3   47.98    3.69
  -9   8  -3    3.60    2.01
   9  -8   3   17.39    2.90
  -8   8  -3   50.38    4.62
   8  -8   3   41.31    5.78
  -7   8  -3    0.57    1.24
   7  -8   3    0.11    1.18
  -6   8  -3   49.47    4.02
   6  -8   3   50.93    3.82
  -5   8  -3   20.80    2.11
   5  -8   3   24.40    6.26
  -4   8  -3    4.21    1.36
   4  -8   3    3.52    1.51
  -4   8  -3    4.85    1.09
  -3   8  -3   14.34    1.32
   3  -8   3   15.80    1.33
  -3   8  -3   11.84    2.66
  -2   8  -3   76.48    3.56
  -2   8  -3   59.47    7.45
  -1   8  -3    1.52    0.79
   0   8  -3   45.36   11.59
   1   8  -3    2.40    1.21
   2   8  -3   17.77    5.28
   3   8  -3   33.51   11.02
 -11   9  -3  101.16    6.08
  11  -9   3   77.14   16.08
 -10   9  -3   88.84    7.36
  10  -9   3   70.54    7.31
  -9   9  -3   60.03    4.55
   9  -9   3   69.87    6.10
  -8   9  -3    1.01    1.22
   8  -9   3    2.13    1.26
  -7   9  -3  302.20    7.95
   7  -9   3  254.50   14.48
  -6   9  -3  151.27    9.14
   6  -9   3  140.56    8.43
  -5   9  -3   64.24    3.52
   5  -9   3   66.78    3.40
  -4   9  -3  116.71    4.37
   4  -9   3  115.16    4.18
  -4   9  -3  120.76    4.66
  -3   9  -3   83.51    2.79
   3  -9   3   96.49    3.07
  -3   9  -3   74.69    4.63
  -2   9  -3  286.82   15.63
  -1   9  -3    2.52    1.37
   0   9  -3   59.29    9.49
   1   9  -3   43.50   11.69
   2   9  -3   30.62    8.36
  11 -10   3   10.15    2.74
 -10  10  -3   49.98    4.25
  10 -10   3   58.66    5.85
  -9  10  -3   55.51    5.02
   9 -10   3   44.74    4.75
  -8  10  -3   22.68    2.79
   8 -10   3   31.06    3.66
  -7  10  -3   10.04    1.86
   7 -10   3    8.36    1.49
  -6  10  -3   44.37    2.90
   6 -10   3   43.43    6.47
  -5  10  -3    6.03    1.29
   5 -10   3    7.31    1.34
  -4  10  -3   30.42    4.14
   4 -10   3   27.48    1.53
  -4  10  -3   29.23    2.31
  -3  10  -3    3.34    0.96
  -2  10  -3   34.36    7.31
  -1  10  -3   73.70    6.10
   0  10  -3   40.44    9.88
   1  10  -3    8.48    2.65
 -10  11  -3   11.85    2.68
  -9  11  -3   40.66    3.68
   9 -11   3   39.79    3.59
  -8  11  -3   44.29    3.30
   8 -11   3   32.45    2.98
  -7  11  -3    3.31    1.31
   7 -11   3    3.62    1.11
  -6  11  -3   35.39    2.96
   6 -11   3   35.66    2.88
  -5  11  -3   15.10    3.07
   5 -11   3   16.39    1.39
  -4  11  -3   18.77    1.97
  -3  11  -3   20.28    5.90
  -2  11  -3   87.93   11.55
  -1  11  -3    8.37    2.55
   7 -12   3   35.35    2.52
   6 -12   3    2.62    0.82
   3 -11  -4    0.82    0.83
   4 -11  -4   15.81    2.21
   5 -11  -4   10.66    2.40
   5 -11  -4    9.29    3.04
  -6  11   4    3.55    1.31
   6 -11  -4    1.89    1.16
   8 -11  -4   18.32    3.19
   8 -11  -4   13.43    4.63
   0 -10  -4   11.76    2.99
   0 -10  -4   15.60    2.02
   1 -10  -4    2.66    1.08
   1 -10  -4    4.58    1.41
  -1  10   4    2.10    1.72
   2 -10  -4    7.13    1.59
   2 -10  -4   10.93    1.89
   2 -10  -4    7.41    2.43
   3 -10  -4   29.59    3.21
   3 -10  -4   26.44    2.38
   3 -10  -4   25.60    8.51
   4 -10  -4   22.38    2.61
   4 -10  -4   25.39    2.67
   4 -10  -4   23.00    8.73
   5 -10  -4  273.44   19.25
   5 -10  -4  250.45   17.87
  -6  10   4   17.16    3.50
   6 -10  -4   15.86    2.96
   6 -10  -4    9.82    3.97
  -7  10   4   32.37    8.52
   7 -10  -4   30.95    3.82
   7 -10  -4   24.71    5.91
  -8  10   4   12.71    3.88
   8 -10  -4   15.90    2.61
   8 -10  -4   16.59    4.77
   9 -10  -4    2.88    1.71
   9 -10  -4    9.01    2.20
  -1  -9  -4    5.83    1.46
  -1  -9  -4    5.61    1.45
   1   9   4    4.81    2.43
   0  -9  -4   14.88    2.98
   0  -9  -4   15.01    1.86
   0  -9  -4   14.20    3.75
   0   9   4   19.95    2.95
   1  -9  -4    8.31    1.44
   1  -9  -4   10.27    1.75
   1  -9  -4   10.47    2.52
  -1   9   4   14.35    2.59
   2  -9  -4   68.79    5.18
   2  -9  -4   75.38    4.12
   2  -9  -4   70.59   15.29
   3  -9  -4   38.22    3.88
   3  -9  -4   41.68    3.11
   3  -9  -4   38.34    9.47
   4  -9  -4   38.02    3.70
   4  -9  -4   34.58    3.28
   4  -9  -4   35.38    8.50
  -5   9   4   32.16    3.38
   5  -9  -4   33.74    3.31
   5  -9  -4   34.34    6.53
  -6   9   4   39.31    6.15
   6  -9  -4   62.57    4.50
   6  -9  -4   40.46   10.58
  -7   9   4   36.98    7.62
   7  -9  -4   33.88    3.78
   7  -9  -4   38.71    3.30
  -8   9   4    2.61    1.01
   8  -9  -4    0.79    1.43
   8  -9  -4    1.53    1.29
  -9   9   4   16.54    4.46
   9  -9  -4   12.37    2.70
   9  -9  -4   13.08    1.98
 -10   9   4   -0.29    1.30
  10  -9  -4    1.66    1.94
  10  -9  -4    0.98    1.21
  -3  -8  -4   12.98    3.03
  -3  -8  -4   15.21    2.12
   3   8   4   13.44    2.58
  -2  -8  -4   15.91    4.06
  -2  -8  -4   18.44    2.32
   2   8   4   11.76    2.39
  -1  -8  -4    2.39    0.71
  -1  -8  -4    2.96    0.99
  -1  -8  -4    2.63    1.55
   1   8   4    2.31    1.39
   0  -8  -4   85.55    8.97
   0  -8  -4   92.29    4.42
   0  -8  -4   82.35   15.07
   0   8   4   79.17    5.11
   1  -8  -4  109.83   13.58
   1  -8  -4  122.39    7.63
   1  -8  -4  110.80   16.53
  -1   8   4  121.81    8.18
   2  -8  -4    6.99    1.53
   2  -8  -4    6.43    1.74
   2  -8  -4    7.47    1.74
   3  -8  -4   11.03    2.28
   3  -8  -4   11.88    2.03
   3  -8  -4   12.28    2.01
  -4   8   4  135.53    6.06
   4  -8  -4  139.33    6.39
   4  -8  -4  120.42    5.71
  -5   8   4    7.19    2.07
   5  -8  -4   10.65    2.15
  -6   8   4   18.71    4.39
   6  -8  -4   16.09    2.81
   6  -8  -4   21.83    3.15
  -7   8   4  194.20   12.05
   7  -8  -4  204.77   12.46
   7  -8  -4  183.10   10.54
  -8   8   4   69.55    6.83
   8  -8  -4   92.46    5.97
   8  -8  -4   84.05    4.54
  -9   8   4    9.14    2.87
   9  -8  -4    5.54    1.80
 -10   8   4    5.91    1.87
  10  -8  -4   11.57    3.30
  -4  -7  -4    6.70    1.68
  -4  -7  -4    9.23    2.08
   4   7   4    2.29    1.18
  -3  -7  -4   30.31    5.51
  -3  -7  -4   32.83    3.26
   3   7   4   33.53    7.15
  -2  -7  -4   36.94    3.70
  -2  -7  -4   39.01    2.97
  -2  -7  -4   39.57    3.51
   2   7   4   31.33    3.37
  -1  -7  -4  214.32   15.07
  -1  -7  -4  213.57   12.23
  -1  -7  -4  207.42   24.45
   1   7   4  209.00   12.56
   0  -7  -4    1.84    1.05
   0  -7  -4    4.08    1.20
   0  -7  -4    3.88    1.04
   1  -7  -4   45.95    4.05
   1  -7  -4   46.26    3.52
   1  -7  -4   51.96    9.07
  -1   7   4   40.85    9.88
   2  -7  -4   38.69    7.26
   2  -7  -4   41.99    3.12
   2  -7  -4   38.37    6.45
   3  -7  -4   63.67    5.70
   3  -7  -4   54.29    3.70
   3  -7  -4   54.57    8.95
  -4   7   4   95.01    7.44
   4  -7  -4   92.47    6.58
   4  -7  -4   90.32    7.65
  -5   7   4   22.77    6.21
   5  -7  -4   26.07    2.88
   5  -7  -4   22.86    2.42
  -6   7   4   35.50    5.75
   6  -7  -4   42.17    4.03
   6  -7  -4   39.29    3.42
  -7   7   4   13.06    2.26
   7  -7  -4    3.86    1.75
   7  -7  -4    5.80    1.57
  -8   7   4  112.97   12.74
   8  -7  -4  118.07    8.56
  -9   7   4   57.18   11.96
   9  -7  -4   78.40    5.79
 -10   7   4   28.03    5.33
  10  -7  -4   27.53    4.00
  11  -7  -4   20.18    4.03
   5   6   4    3.09    1.32
   5   6   4    5.06    1.15
  -4  -6  -4   14.91    2.20
  -4  -6  -4   14.04    2.30
   4   6   4   16.96    3.75
  -3  -6  -4   44.63    4.16
  -3  -6  -4   49.02    3.55
   3   6   4   35.97    8.88
  -2  -6  -4   15.93    5.24
  -2  -6  -4   19.81    2.20
  -2  -6  -4   21.34    4.82
   2   6   4   20.45    2.53
  -1  -6  -4   40.15    4.62
  -1  -6  -4   40.06    3.49
  -1  -6  -4   38.97    7.82
   1   6   4   35.45    3.06
   0  -6  -4  269.54   15.48
   0  -6  -4  238.57    8.50
   0  -6  -4  227.28   18.31
   0   6   4  238.52    8.97
   1  -6  -4   50.35    9.56
   1  -6  -4   51.00    3.05
   1  -6  -4   50.46    4.26
   2  -6  -4  101.89    8.12
   2  -6  -4  103.76    7.00
   2  -6  -4  113.84   13.61
   3  -6  -4  149.29   14.22
   3  -6  -4  144.19    9.89
  -4   6   4   80.06    8.27
   4  -6  -4   92.13   10.24
   4  -6  -4   96.60    6.61
  -5   6   4   10.93    3.11
   5  -6  -4   16.02    2.44
   5  -6  -4   15.71    2.37
  -6   6   4  230.69   11.40
   6  -6  -4  227.75    9.20
  -7   6   4   42.73   10.90
   7  -6  -4   37.18    3.53
  -8   6   4   10.86    2.51
   8  -6  -4    9.12    2.58
  -9   6   4   32.45    8.84
   9  -6  -4   31.71    3.62
 -10   6   4   23.83    4.90
  10  -6  -4   28.61    4.47
  11  -6  -4   12.13    3.86
  -6  -5  -4   16.40    3.02
   6   5   4   10.41    2.30
   6   5   4   10.66    2.55
  -5  -5  -4  272.41   19.10
   5   5   4  300.57    7.70
   5   5   4  256.80   18.37
  -4  -5  -4   34.17    7.47
   4   5   4   27.21    2.89
   4   5   4   30.49    6.45
  -3  -5  -4   11.39    1.98
   3   5   4   10.03    2.02
  -2  -5  -4   29.59    2.53
  -2  -5  -4   24.65    2.55
  -2  -5  -4   25.89    6.37
   2   5   4   23.00    2.66
  -1  -5  -4   14.44    4.06
  -1  -5  -4    9.82    1.70
  -1  -5  -4   10.60    2.63
   1   5   4   11.34    2.17
   0  -5  -4  164.34   11.90
   0  -5  -4  169.57   10.49
   0  -5  -4  183.65   20.32
   0   5   4  175.25   10.83
   1  -5  -4   27.09    4.26
   1  -5  -4   24.21    2.71
   1  -5  -4   30.59    5.31
   2  -5  -4   53.00    8.48
   2  -5  -4   49.11    3.20
   2  -5  -4   54.47    4.77
  -3   5   4   31.20    6.72
   3  -5  -4   23.85    5.74
   3  -5  -4   19.17    2.42
  -4   5   4   12.68    2.89
   4  -5  -4   10.95    2.06
   4  -5  -4    8.11    1.62
  -5   5   4  181.81   12.10
   5  -5  -4  167.71   10.78
  -6   5   4   31.05    3.83
   6  -5  -4   46.90    3.54
  -7   5   4   35.02    7.82
   7  -5  -4   43.00    3.82
  -8   5   4    6.08    1.57
   8  -5  -4    7.92    2.07
  -9   5   4   27.03    6.93
   9  -5  -4   36.22    4.24
 -10   5   4  259.03   19.87
  10  -5  -4  261.67   19.36
 -11   5   4    2.76    1.11
  11  -5  -4    3.42    2.11
  -7  -4  -4   15.50    2.55
   7   4   4    9.21    1.96
   7   4   4    7.75    1.78
  -6  -4  -4   22.53    2.83
   6   4   4   27.72    3.38
   6   4   4   26.23    6.13
  -5  -4  -4   39.59    3.91
   5   4   4   35.20    3.56
   5   4   4   27.35    7.25
  -4  -4  -4  124.89    5.81
   4   4   4  136.37    6.18
   4   4   4  127.76   10.79
  -3  -4  -4   96.45    4.92
   3   4   4   95.99    5.04
  -3  -4  -4   95.49    9.71
   3   4   4   94.14    8.03
  -2  -4  -4   95.75    6.82
   2   4   4   94.47    6.66
  -2  -4  -4   92.75    7.50
   2   4   4   89.58    6.45
  -1  -4  -4   11.60    2.41
  -1  -4  -4   10.57    2.12
  -1  -4  -4   11.89    2.20
   1   4   4    5.47    1.44
   0  -4  -4   95.70    5.72
   0  -4  -4   95.82    4.05
   0  -4  -4  105.87    7.87
   1  -4  -4   21.62    5.44
   1  -4  -4   18.56    2.05
   1  -4  -4   23.82    3.98
   2  -4  -4  738.48   31.94
   2  -4  -4  759.06   32.71
   2  -4  -4  743.13   31.87
  -3   4   4    4.93    1.31
   3  -4  -4    6.45    0.82
   3  -4  -4    6.17    1.64
  -4   4   4   83.82    4.58
   4  -4  -4   89.35    7.35
  -5   4   4   21.31    3.11
   5  -4  -4   21.96    2.48
  -6   4   4   95.48    6.80
   6  -4  -4   96.63    7.00
  -7   4   4   61.40    6.81
   7  -4  -4   58.50    4.78
  -8   4   4  127.12    7.84
   8  -4  -4  133.19    6.96
  -9   4   4   27.19    7.16
   9  -4  -4   34.95    4.12
 -10   4   4   14.96    4.29
  10  -4  -4   11.76    2.72
  11  -4  -4    6.77    2.99
   8   3   4    1.50    1.34
   8   3   4    0.98    0.90
  -7  -3  -4   31.81    4.16
   7   3   4   41.68    4.20
   7   3   4   30.85    5.88
  -6  -3  -4   38.23    3.44
   6   3   4   32.76    3.04
   6   3   4   28.69    6.28
  -5  -3  -4    9.54    1.94
   5   3   4    5.50    1.45
   5   3   4    8.02    1.77
  -4  -3  -4   59.09    4.08
   4   3   4   52.03    3.75
   4   3   4   53.66    4.55
  -3  -3  -4  157.10   10.08
   3   3   4  141.14    9.09
  -3  -3  -4  145.46   13.31
   3   3   4  136.42   12.17
  -2  -3  -4   23.07    2.53
   2   3   4   24.94    2.67
  -2  -3  -4   21.88    4.05
   2   3   4   26.05    2.37
  -1  -3  -4    4.26    1.55
  -1  -3  -4    2.93    1.27
  -1  -3  -4    7.31    1.34
   1   3   4    2.80    1.23
   0  -3  -4  146.36    6.97
   0  -3  -4  143.16    6.88
   0  -3  -4  143.38    6.55
   1  -3  -4  140.02    7.68
   1  -3  -4  143.88    6.87
   1  -3  -4  141.09    6.48
   2  -3  -4  120.11   12.11
   2  -3  -4  117.39    6.02
   2  -3  -4  112.39    5.44
  -3   3   4  103.82    7.52
   3  -3  -4  134.06    6.92
  -4   3   4   16.55    4.23
   4  -3  -4   20.89    3.32
  -5   3   4   42.20    4.71
   5  -3  -4   49.11    3.38
  -6   3   4  132.69    9.66
   6  -3  -4  150.99   10.03
  -7   3   4   86.68    4.96
   7  -3  -4  101.05    5.79
  -8   3   4   11.61    2.20
   8  -3  -4   15.67    2.83
  -9   3   4   38.77   11.02
   9  -3  -4   44.89    4.79
 -10   3   4   28.26    7.79
  10  -3  -4   40.82    4.65
 -11   3   4    8.62    2.40
  11  -3  -4   12.87    3.20
  -8  -2  -4    6.80    2.17
   8   2   4    4.74    2.03
  -7  -2  -4   78.42    5.33
   7   2   4   65.60    4.44
   7   2   4   59.71   11.70
  -6  -2  -4    7.43    2.07
   6   2   4    6.37    1.36
  -5  -2  -4   38.78    3.32
   5   2   4   36.42    3.14
   5   2   4   37.33    8.62
  -4  -2  -4   95.49    6.92
   4   2   4  102.20    7.16
   4   2   4   89.67    9.33
  -3  -2  -4   48.66    3.31
   3   2   4   48.48    3.35
  -3  -2  -4   60.37    4.98
   3   2   4   48.85    2.91
  -2  -2  -4  700.51   30.36
   2   2   4  780.94   10.67
  -2  -2  -4  704.75   30.27
   2   2   4  758.48   32.33
  -1  -2  -4  108.73    5.53
   1   2   4  134.67    6.63
  -1  -2  -4  105.44    5.27
   0  -2  -4  150.60    7.14
   0  -2  -4  156.74    7.30
   0  -2  -4  152.65    8.49
   1  -2  -4   14.10    2.61
   1  -2  -4   11.68    1.89
   1  -2  -4   12.75    1.55
   2  -2  -4  141.24    6.71
  -3   2   4  144.81    6.77
   3  -2  -4  127.34    7.97
  -4   2   4  784.49   10.17
   4  -2  -4  769.49   33.36
  -5   2   4   27.72    6.38
   5  -2  -4   18.06    2.32
  -6   2   4   76.40    5.20
   6  -2  -4   91.50    6.83
  -7   2   4   22.19    5.59
   7  -2  -4   26.33    2.97
  -8   2   4   15.74    3.80
  -9   2   4   27.92    7.02
   9  -2  -4   36.19    3.79
 -10   2   4   11.90    4.76
  10  -2  -4   16.52    2.85
  -9  -1  -4    3.36    1.50
   9   1   4   -0.34    1.38
   9   1   4   -0.08    1.23
  -8  -1  -4   11.81    2.55
   8   1   4    7.06    2.08
   8   1   4    9.82    2.72
  -7  -1  -4  113.44    8.05
   7   1   4  122.00    8.27
   7   1   4  110.11   10.34
  -6  -1  -4   41.48    3.90
   6   1   4   43.37    3.96
   6   1   4   36.48    7.83
  -5  -1  -4   50.18    3.27
   5   1   4   37.63    3.32
   5   1   4   32.50    6.11
  -4  -1  -4   25.30    4.11
   4   1   4   16.76    2.46
   4   1   4   20.58    5.60
  -3  -1  -4   19.80    2.53
   3   1   4   16.15    2.27
  -3  -1  -4   18.42    2.64
   3   1   4   17.43    2.01
  -2  -1  -4  133.47    6.53
   2   1   4  143.62    6.92
  -2  -1  -4  140.54    7.15
   2   1   4  142.95    6.22
  -1  -1  -4   13.73    2.25
   1   1   4   11.21    1.79
  -1  -1  -4   12.72    2.73
   0  -1  -4    1.52    1.22
   0  -1  -4    2.51    1.34
   0  -1  -4    1.38    1.10
   1  -1  -4    1.86    0.68
   1  -1  -4    2.53    1.73
   2  -1  -4   15.86    3.96
  -3   1   4  125.85    6.53
   3  -1  -4  110.49    5.80
  -4   1   4    6.12    1.10
   4  -1  -4    5.89    1.74
  -5   1   4   10.79    2.32
   5  -1  -4   11.41    1.92
  -6   1   4   11.47    2.61
   6  -1  -4    9.29    2.16
  -7   1   4   33.32    8.09
   7  -1  -4   42.64    4.06
  -8   1   4  188.69   12.84
   8  -1  -4  192.49   11.92
  -9   1   4    4.38    1.24
   9  -1  -4    2.66    2.08
  10  -1  -4    4.38    2.17
 -10   0  -4   12.28    2.65
  -9   0  -4   11.58    2.32
   9   0   4   23.55    3.26
   9   0   4   22.73    4.04
  -8   0  -4   98.21    5.81
   8   0   4   78.94    5.05
   8   0   4   74.90    7.11
  -7   0  -4    9.72    2.52
   7   0   4   14.22    2.62
   7   0   4   11.96    2.89
  -6   0  -4  236.35    9.44
   6   0   4  251.51    9.74
   6   0   4  231.50    9.67
  -5   0  -4  170.44   10.91
   5   0   4  168.23   10.73
   5   0   4  162.22   11.93
  -4   0  -4   84.81    4.03
   4   0   4   85.75    4.33
   4   0   4   78.48    2.87
  -3   0  -4  134.42    6.13
   3   0   4  107.00    3.16
  -2   0  -4  147.36    6.98
   2   0   4  139.89    6.76
  -2   0  -4  145.88   10.65
  -1   0  -4    1.76    1.29
   1   0   4    3.21    1.95
  -1   0  -4    1.75    1.08
   0   0  -4 2025.95   15.68
   0   0  -4 1974.21   39.21
   1   0  -4    1.17    1.33
   1   0  -4    4.15    1.60
   2   0  -4  138.78    7.94
  -3   0   4  101.81    6.44
   3   0  -4  136.54    8.38
  -4   0   4   85.21    4.73
   4   0  -4   93.88    4.10
  -5   0   4  171.20   10.59
   5   0  -4  166.09   10.40
  -6   0   4  228.56    8.68
   6   0  -4  221.47    8.63
  -7   0   4    9.94    2.67
   7   0  -4    3.00    1.40
  -8   0   4   70.10    5.20
   8   0  -4   88.36    5.37
  -9   0   4   16.55    4.85
   9   0  -4   13.74    2.63
  10   0  -4    6.96    1.94
 -10   1  -4   10.54    2.94
  10  -1   4    2.31    1.80
  10  -1   4    4.05    1.80
  -9   1  -4   -0.57    1.53
   9  -1   4    2.25    1.53
   9  -1   4    2.40    0.88
  -8   1  -4  213.63    7.90
   8  -1   4  211.62    7.57
   8  -1   4  201.19   15.73
  -7   1  -4   35.94    3.52
   7  -1   4   36.71    3.50
   7  -1   4   38.10    4.97
  -6   1  -4   11.79    2.56
   6  -1   4    6.54    1.93
   6  -1   4    8.03    1.39
  -5   1  -4   12.73    2.57
   5  -1   4    5.77    1.88
   5  -1   4    7.23    1.89
  -4   1  -4    6.33    1.47
   4  -1   4    5.33    2.30
   4  -1   4    5.16    1.04
  -3   1  -4  105.14    5.48
   3  -1   4  114.63    5.91
  -3   1  -4  105.39    5.77
  -2   1  -4   15.59    2.10
   2  -1   4   11.31    2.09
  -2   1  -4   11.35    2.30
  -1   1  -4    3.61    1.54
   1  -1   4    1.75    1.17
   0   1  -4   -0.15    1.04
   0   1  -4    3.60    1.38
   1   1  -4   14.71    2.74
   1   1  -4   12.79    1.57
   2   1  -4  131.86    6.75
   2   1  -4  128.89    5.82
  -3  -1   4   16.65    3.62
   3   1  -4   21.57    4.90
  -4  -1   4   16.92    5.10
   4   1  -4   22.49    2.08
  -5  -1   4   34.03    7.22
   5   1  -4   45.85    3.09
  -6  -1   4   40.59    6.18
   6   1  -4   43.08    3.77
  -7  -1   4  115.82    8.58
   7   1  -4  113.67    7.75
  -8  -1   4    8.32    1.80
   8   1  -4    9.94    2.18
  -9  -1   4    1.40    0.66
   9   1  -4    1.01    1.08
 -10   2  -4   21.07    3.82
  10  -2   4   13.43    2.78
  10  -2   4   13.79    2.42
  -9   2  -4   40.49    3.87
   9  -2   4   29.22    3.39
   9  -2   4   29.30    5.48
  -8   2  -4   19.61    3.64
   8  -2   4   17.07    3.30
   8  -2   4   21.53    4.62
  -7   2  -4   18.81    2.99
   7  -2   4   21.71    2.91
   7  -2   4   26.29    4.74
  -6   2  -4   90.71    6.87
   6  -2   4   90.02    6.74
   6  -2   4   87.45    5.51
  -5   2  -4   21.93    2.86
   5  -2   4   26.19    2.73
   5  -2   4   23.45    1.32
  -4   2  -4  699.94   30.38
   4  -2   4  754.32   32.71
  -3   2  -4  120.74    5.98
   3  -2   4  141.41    6.77
  -3   2  -4  127.66    5.41
  -2   2  -4  150.33    6.95
   2  -2   4  133.62    6.36
  -2   2  -4  148.77    5.81
  -1   2  -4   10.20    1.37
   1  -2   4    9.43    1.69
   0   2  -4  145.96    7.56
   0   2  -4  145.52    6.38
   1   2  -4  111.90    5.74
   1   2  -4  113.70    5.29
   2   2  -4  748.56   32.06
   2   2  -4  699.05   29.67
  -3  -2   4   45.35    2.36
   3   2  -4   48.74    2.66
  -4  -2   4   95.37    9.10
   4   2  -4  100.59    6.77
  -5  -2   4   34.98    6.29
   5   2  -4   35.50    2.71
  -6  -2   4    9.69    2.81
   6   2  -4    2.19    1.24
  -7  -2   4   55.88    8.56
   7   2  -4   70.03    4.24
  -8  -2   4    7.99    1.85
   8   2  -4    7.30    1.70
  11  -3   4   14.98    3.53
 -10   3  -4   32.46    4.28
  10  -3   4   29.97    4.15
  10  -3   4   30.02    6.04
  -9   3  -4   44.99    4.15
   9  -3   4   31.73    3.57
   9  -3   4   35.65    7.57
  -8   3  -4    8.70    2.30
   8  -3   4    6.30    2.06
  -7   3  -4  104.43    6.26
   7  -3   4   88.45    5.28
   7  -3   4   90.89    4.35
  -6   3  -4  135.83    9.11
   6  -3   4  138.13    9.29
   6  -3   4  136.38    7.67
  -5   3  -4   53.91    3.50
   5  -3   4   47.78    3.82
  -4   3  -4   19.15    2.48
   4  -3   4   14.93    2.28
   3  -3   4   92.42    4.98
  -2   3  -4  105.81    5.10
   2  -3   4  124.64    5.90
  -1   3  -4  131.47    5.96
   1  -3   4  150.36    6.69
   0   3  -4  139.79    6.42
   0   3  -4  144.03    6.24
   1   3  -4    4.58    1.22
   1   3  -4    5.91    1.29
   2   3  -4   20.99    4.51
   2   3  -4   18.12    1.58
   3   3  -4  144.00    8.76
   3   3  -4  140.16    8.33
  -4  -3   4   54.99    3.90
   4   3  -4   48.24    3.00
  -5  -3   4    6.32    1.24
   5   3  -4   10.22    1.76
  -6  -3   4   33.36    4.66
   6   3  -4   32.64    2.60
  -7  -3   4   33.20    5.86
   7   3  -4   28.25    2.84
  -8  -3   4    2.05    0.86
   8   3  -4    0.21    0.96
  11  -4   4    1.37    1.91
  11  -4   4    2.90    1.18
 -10   4  -4   13.90    3.22
  10  -4   4   15.74    3.23
  10  -4   4   12.78    3.30
  -9   4  -4   38.66    4.32
   9  -4   4   26.51    3.54
   9  -4   4   29.54    5.62
  -8   4  -4  129.87    6.71
   8  -4   4  128.07    6.90
   8  -4   4  123.33    4.71
  -7   4  -4   55.52    4.47
   7  -4   4   49.30    4.06
  -6   4  -4   88.01    4.52
   6  -4   4  102.52    7.37
  -5   4  -4   24.82    2.51
   5  -4   4   17.61    2.46
  -4   4  -4   91.15    4.13
   4  -4   4   78.23    3.68
  -3   4  -4    4.32    1.29
   3  -4   4    4.09    1.56
  -2   4  -4  698.47   29.88
   2  -4   4  787.40    8.93
  -1   4  -4   20.17    1.81
   0   4  -4   88.10    2.90
   0   4  -4   93.78    3.07
   1   4  -4   11.59    2.55
   1   4  -4    9.63    1.30
   2   4  -4   87.76    2.92
   2   4  -4   90.08    5.53
   3   4  -4   97.47    4.18
   3   4  -4   98.74    3.74
   4   4  -4  132.71    5.27
   4   4  -4  142.11    4.94
  -5  -4   4   31.69    4.93
   5   4  -4   37.63    3.10
   6   4  -4   22.95    1.94
   7   4  -4   19.09    1.79
 -11   5  -4    7.45    2.72
  11  -5   4    6.11    2.32
  11  -5   4    1.47    0.66
 -10   5  -4  264.60   19.44
  10  -5   4  270.11   19.76
  10  -5   4  309.06    5.06
  -9   5  -4   39.26    4.39
   9  -5   4   27.76    8.32
   9  -5   4   31.50    2.84
  -8   5  -4    8.47    1.97
   8  -5   4    7.32    2.45
  -7   5  -4   32.58    3.12
   7  -5   4   29.26    3.19
  -6   5  -4   52.46    3.81
   6  -5   4   39.20    3.31
  -5   5  -4  161.46   10.34
   5  -5   4  163.54   10.33
  -4   5  -4   11.14    2.30
   4  -5   4    8.27    1.76
  -3   5  -4   17.95    1.82
   3  -5   4   24.92    2.11
  -3   5  -4   18.73    1.52
  -2   5  -4   48.37    2.42
   2  -5   4   50.86    2.58
  -2   5  -4   47.40    1.81
  -1   5  -4   24.78    3.52
  -1   5  -4   24.28    2.99
   0   5  -4  162.60    9.60
   0   5  -4  149.25    8.66
   1   5  -4   10.74    1.09
   1   5  -4    9.78    1.09
   2   5  -4   23.73    1.60
   2   5  -4   26.90    1.38
   3   5  -4    9.54    1.12
   3   5  -4   11.07    0.95
   4   5  -4   33.59    2.36
   4   5  -4   37.84    2.44
   5   5  -4  253.68   16.88
   5   5  -4  260.67   17.24
   6   5  -4   12.32    1.70
   6   5  -4    9.86    1.42
 -11   6  -4   12.93    2.81
  11  -6   4    9.47    2.76
 -10   6  -4   25.62    3.71
  10  -6   4   24.53    3.59
  -9   6  -4   36.27    3.92
   9  -6   4   34.45    3.74
  -8   6  -4    5.30    2.38
   8  -6   4    9.05    2.01
  -7   6  -4   38.29    3.48
   7  -6   4   41.09    3.91
  -6   6  -4  197.65    7.82
   6  -6   4  232.04    8.85
  -5   6  -4   10.52    2.16
   5  -6   4    6.47    1.55
  -4   6  -4   90.06    6.39
   4  -6   4   88.15    5.18
  -3   6  -4  145.30    9.01
   3  -6   4  144.24    8.82
  -3   6  -4  141.73    8.10
  -2   6  -4   96.57    6.17
   2  -6   4  100.07    6.22
  -2   6  -4   94.59    5.86
  -1   6  -4   47.15    3.57
  -1   6  -4   52.24    2.32
  -1   6  -4   44.69    3.62
   0   6  -4  247.08    7.24
   0   6  -4  216.72    6.39
   1   6  -4   35.84    1.24
   1   6  -4   37.21    1.18
 -11   7  -4   17.88    3.27
  11  -7   4    3.34    1.87
 -10   7  -4   28.74    3.93
  10  -7   4   37.63    4.66
  -9   7  -4   75.14    5.24
   9  -7   4   62.87    5.12
  -8   7  -4  114.30    8.21
   8  -7   4  117.52    8.14
  -7   7  -4    4.57    2.07
   7  -7   4   12.02    2.58
  -6   7  -4   41.89    3.95
   6  -7   4   37.27    2.90
  -5   7  -4   22.54    2.47
   5  -7   4   21.70    2.25
  -4   7  -4   87.21    4.25
   4  -7   4  101.03    4.42
  -3   7  -4   41.91    2.78
  -3   7  -4   50.17    3.34
  -2   7  -4   31.00    1.94
  -2   7  -4   37.30    7.28
  -1   7  -4   45.38    3.08
  -1   7  -4   43.62    2.52
  -1   7  -4   39.62    5.63
   0   7  -4    6.21    1.29
   1   7  -4  186.16   10.88
   2   7  -4   28.56    7.92
   3   7  -4   19.94    6.91
   4   7  -4    4.38    1.20
  11  -8   4    2.38    1.79
 -10   8  -4    2.72    1.96
  10  -8   4    2.14    1.62
  -9   8  -4   13.09    2.58
   9  -8   4    6.58    2.35
  -8   8  -4   81.99    5.19
   8  -8   4   67.27   13.23
  -7   8  -4  209.94   12.59
   7  -8   4  213.75   12.62
  -6   8  -4   16.86    2.30
   6  -8   4   19.70    2.23
  -5   8  -4    8.21    1.53
   5  -8   4    9.43    1.47
  -4   8  -4  133.60    5.48
   4  -8   4  140.38    8.46
  -4   8  -4  132.89    4.28
  -3   8  -4   12.94    1.64
   3  -8   4    7.63    1.20
  -3   8  -4   13.47    2.95
  -2   8  -4    6.44    1.28
  -2   8  -4    7.17    0.94
  -2   8  -4    6.03    1.51
  -1   8  -4   98.77    6.39
   0   8  -4   73.51    5.43
   1   8  -4    2.04    1.29
   2   8  -4   14.27    4.50
 -10   9  -4    0.40    1.52
  10  -9   4    1.68    1.57
  -9   9  -4   14.22    2.80
   9  -9   4   19.70    3.00
  -8   9  -4    2.19    1.37
   8  -9   4    1.48    1.35
  -7   9  -4   40.16    3.63
   7  -9   4   34.22    3.08
  -6   9  -4   40.25    3.23
   6  -9   4   41.99    3.01
  -5   9  -4   34.25    3.11
   5  -9   4   30.87    2.63
  -4   9  -4   36.98    2.92
   4  -9   4   34.59    2.76
  -4   9  -4   38.72    2.71
  -3   9  -4   37.21    3.36
  -3   9  -4   38.62    1.87
  -3   9  -4   37.80    4.34
  -2   9  -4   71.46    9.91
  -1   9  -4    7.50    2.37
   0   9  -4   11.26    2.68
   1   9  -4    3.25    1.31
 -10  10  -4   10.68    2.63
  10 -10   4   11.03    2.93
  -9  10  -4    4.79    1.81
   9 -10   4    2.98    1.86
  -8  10  -4   15.75    2.54
   8 -10   4   12.91    2.40
  -7  10  -4   28.02    3.31
   7 -10   4   32.97    3.23
  -6  10  -4   13.35    1.87
   6 -10   4   17.30    1.84
  -5  10  -4  258.36   17.53
   5 -10   4  275.91   18.50
  -4  10  -4   22.58    1.43
   4 -10   4   32.79    2.71
  -4  10  -4   27.71    2.73
  -3  10  -4   31.17    4.00
  -2  10  -4    8.40    1.36
  -1  10  -4    1.98    0.75
   0  10  -4   10.10    3.20
  -8  11  -4   13.81    2.18
   8 -11   4   11.11    2.14
  -7  11  -4    4.91    1.51
  -6  11  -4    4.77    1.24
   6 -11   4    3.58    0.99
  -5  11  -4   11.41    1.55
   5 -11   4   11.27    1.58
  -4  11  -4   16.88    1.94
  -3  11  -4    1.61    0.80
   2 -10  -5   37.56    2.99
   3 -10  -5   60.35    6.97
   3 -10  -5   66.04    4.07
   4 -10  -5   10.81    2.35
   4 -10  -5    6.15    1.97
   5 -10  -5    3.57    1.76
   5 -10  -5   -0.20    1.24
   5 -10  -5    0.90    1.15
   6 -10  -5    4.03    1.68
   6 -10  -5    0.81    0.74
   7 -10  -5   53.04    4.52
  -8  10   5   21.71    6.99
   8 -10  -5   17.24    2.91
   0  -9  -5  144.85    5.50
   1  -9  -5   58.30    5.72
   1  -9  -5   50.01    7.10
   1  -9  -5   50.94   13.19
   2  -9  -5   42.31   10.13
   2  -9  -5   45.58    6.20
   2  -9  -5   49.21    9.72
   3  -9  -5   13.49    2.35
   3  -9  -5   16.25    2.39
   3  -9  -5   12.92    2.25
   4  -9  -5   56.59    6.51
   4  -9  -5   55.54    5.17
   4  -9  -5   47.21    7.83
   5  -9  -5   37.96    4.26
   5  -9  -5   36.64    4.20
   5  -9  -5   31.33    9.25
  -6   9   5   25.75    7.21
   6  -9  -5   28.65    3.40
   6  -9  -5   26.13    5.29
  -7   9   5   32.89   10.21
   7  -9  -5   34.31    3.51
   7  -9  -5   35.19    3.29
   8  -9  -5   74.14    5.40
   8  -9  -5   81.85    4.55
   9  -9  -5  122.35    6.80
  -2  -8  -5   24.13    5.51
  -2  -8  -5   22.42    2.33
   2   8   5   26.54    3.28
  -1  -8  -5   76.44    7.21
  -1  -8  -5   93.02    4.47
  -1  -8  -5   67.49   15.63
   1   8   5   73.91    5.05
   0  -8  -5   20.98    5.46
   0  -8  -5   26.88    2.67
   0  -8  -5   20.34    3.46
   0   8   5   26.30    3.05
   1  -8  -5   37.06    7.16
   1  -8  -5   41.39    3.22
   1  -8  -5   36.26    7.11
   2  -8  -5   16.76    3.87
   2  -8  -5   16.95    2.28
   2  -8  -5   17.98    4.14
   3  -8  -5   12.33    1.97
   3  -8  -5   14.85    2.35
   3  -8  -5   17.42    3.32
   4  -8  -5    1.56    0.59
   4  -8  -5    2.67    1.73
   4  -8  -5    2.42    1.37
  -5   8   5   24.69    2.67
   5  -8  -5   26.69    2.95
   5  -8  -5   27.06    6.29
  -6   8   5   14.37    2.86
   6  -8  -5   13.52    2.56
   6  -8  -5   14.01    2.16
  -7   8   5   19.00    3.86
   7  -8  -5   17.80    3.03
   7  -8  -5   17.25    2.58
  -8   8   5   24.82    5.57
   8  -8  -5   21.13    3.31
   8  -8  -5   26.96    2.78
  -9   8   5   40.94   11.35
   9  -8  -5   56.61    5.25
   9  -8  -5   49.27    3.40
  10  -8  -5   31.44    4.54
  -3  -7  -5   48.80    3.73
  -3  -7  -5   50.19    4.71
   3   7   5   43.84    3.96
  -2  -7  -5   29.74    7.18
  -2  -7  -5   33.93    3.02
  -2  -7  -5   31.51    5.89
   2   7   5   43.55    3.82
  -1  -7  -5   16.28    2.73
  -1  -7  -5   17.18    2.18
  -1  -7  -5   18.02    5.86
   1   7   5   15.44    2.84
   0  -7  -5  102.71   14.42
   0  -7  -5   85.66    4.59
   0  -7  -5   89.92   14.00
   1  -7  -5   -0.08    1.00
   1  -7  -5   -1.16    1.12
   1  -7  -5    1.12    0.79
   2  -7  -5  193.79   14.74
   2  -7  -5  185.41   11.01
   3  -7  -5  148.92    7.44
   4  -7  -5  244.31   13.27
   4  -7  -5  240.02    9.16
   4  -7  -5  249.35   10.65
  -5   7   5  171.63   11.85
   5  -7  -5  187.46   11.62
   5  -7  -5  181.01   10.71
  -6   7   5    5.69    1.50
   6  -7  -5    9.35    2.36
   6  -7  -5    5.02    1.70
  -7   7   5   72.60   13.02
   7  -7  -5   87.99    5.68
   7  -7  -5   91.00    4.66
  -8   7   5   38.63   10.07
   8  -7  -5   49.54    4.79
  -9   7   5   43.52   12.60
   9  -7  -5   46.83    4.55
  10  -7  -5   63.95    5.65
  -4  -6  -5   -0.29    0.99
  -4  -6  -5    1.59    1.16
   4   6   5   -0.68    1.25
  -3  -6  -5   22.56    5.10
  -3  -6  -5   25.76    2.65
   3   6   5   32.19    3.77
  -2  -6  -5   12.99    3.60
  -2  -6  -5   13.95    2.25
  -2  -6  -5   14.59    3.02
   2   6   5    9.52    2.08
  -1  -6  -5    5.65    1.41
  -1  -6  -5    5.47    1.38
  -1  -6  -5    4.24    1.81
   1   6   5    7.74    1.75
   0  -6  -5   79.44    6.03
   0  -6  -5   70.20    4.45
   0  -6  -5   68.53   10.57
   1  -6  -5    6.88    1.02
   1  -6  -5    5.59    2.04
   2  -6  -5   36.02    4.70
   2  -6  -5   39.71    9.62
   3  -6  -5    2.97    0.99
   3  -6  -5    1.16    1.28
   3  -6  -5    1.77    0.72
  -4   6   5   61.12    4.62
   4  -6  -5   61.49    6.97
   4  -6  -5   75.81    5.12
  -5   6   5    4.17    1.25
   5  -6  -5    4.93    1.62
   5  -6  -5    2.20    1.34
  -6   6   5   49.33   10.91
   6  -6  -5   62.12    4.39
   6  -6  -5   69.57    4.18
  -7   6   5    2.93    1.51
   7  -6  -5    1.23    1.39
  -8   6   5   16.73    3.98
   8  -6  -5   14.74    2.71
  -9   6   5   17.94    6.18
   9  -6  -5   13.89    2.83
  10  -6  -5    8.30    2.73
  -5  -5  -5    2.32    1.41
   5   5   5    0.15    1.13
   5   5   5    4.49    1.82
  -4  -5  -5   36.30    9.32
   4   5   5   37.27    4.12
   4   5   5   37.51    4.31
  -3  -5  -5   28.95    2.73
  -3  -5  -5   27.22    2.63
  -3  -5  -5   25.88    7.09
  -2  -5  -5  184.39   14.07
  -2  -5  -5  195.70   11.56
  -2  -5  -5  190.16   19.20
  -1  -5  -5    5.28    1.90
  -1  -5  -5    6.47    1.79
  -1  -5  -5    3.45    1.06
   1   5   5    4.46    1.62
   0  -5  -5  136.91   11.53
   0  -5  -5  135.91    6.10
   0  -5  -5  156.05   11.38
   1  -5  -5   40.21    4.73
   1  -5  -5   38.39    2.94
   1  -5  -5   41.30    6.08
   2  -5  -5   32.90    6.71
   2  -5  -5   39.69    3.17
   2  -5  -5   35.19    8.71
   3  -5  -5   25.65    7.91
   3  -5  -5   27.31    2.80
   3  -5  -5   27.38    2.44
  -4   5   5   92.13   11.86
   4  -5  -5   83.56   10.53
   4  -5  -5   87.08    5.14
  -5   5   5  120.37   11.95
   5  -5  -5  120.22    9.11
  -6   5   5    9.50    2.20
   6  -5  -5    8.66    2.27
  -7   5   5  188.73   11.92
   7  -5  -5  192.78   12.06
  -8   5   5   19.31    5.81
   8  -5  -5   13.93    2.70
  -9   5   5   40.61   11.05
   9  -5  -5   61.76    6.51
 -10   5   5    1.15    1.00
  10  -5  -5    4.62    2.75
   6   4   5    6.66    2.31
   6   4   5    6.27    1.72
  -5  -4  -5   52.90    5.16
   5   4   5   51.31    4.91
   5   4   5   50.93   10.84
  -4  -4  -5    0.58    1.12
   4   4   5    1.45    1.19
   4   4   5    1.02    1.20
  -3  -4  -5  247.44   19.72
   3   4   5  252.03    9.24
  -2  -4  -5   68.71    4.69
  -2  -4  -5   74.03    8.79
   2   4   5   66.27    4.56
  -1  -4  -5   80.59    6.34
  -1  -4  -5   90.50    5.57
  -1  -4  -5   84.45   10.40
   0  -4  -5  148.64   14.14
   0  -4  -5  152.99    7.58
   0  -4  -5  138.45   10.25
   1  -4  -5    6.41    1.68
   1  -4  -5    6.46    2.16
   1  -4  -5    5.37    1.31
   2  -4  -5    2.15    0.86
   2  -4  -5    4.05    2.19
   2  -4  -5    1.77    1.80
   3  -4  -5   -0.44    1.16
   3  -4  -5    1.31    1.56
   3  -4  -5   -1.91    1.18
  -4   4   5  131.69    7.41
   4  -4  -5  133.47   10.93
  -5   4   5   42.89   10.52
   5  -4  -5   39.08    3.28
  -6   4   5   35.46    8.91
   6  -4  -5   34.86    3.25
  -7   4   5  166.42    9.02
   7  -4  -5  152.22    7.34
  -8   4   5    2.97    1.41
   8  -4  -5    2.81    1.63
  -9   4   5   33.21    8.33
   9  -4  -5   34.78    4.64
  10  -4  -5    1.59    1.92
  -7  -3  -5   64.24    4.60
   7   3   5   53.88    4.45
   7   3   5   52.70   11.76
  -6  -3  -5   16.21    2.92
   6   3   5   18.77    2.73
   6   3   5   19.80    3.75
  -5  -3  -5   12.81    2.56
   5   3   5   18.29    2.55
   5   3   5   19.75    2.16
   4   3   5  181.08    7.86
   4   3   5  178.60    7.31
  -3  -3  -5   -0.53    1.56
   3   3   5    2.67    1.42
  -3  -3  -5    0.93    0.52
   3   3   5    1.35    1.47
  -2  -3  -5   29.85    2.89
   2   3   5   32.62    3.08
  -2  -3  -5   27.66    4.53
   2   3   5   30.03    2.44
  -1  -3  -5    0.58    1.02
  -1  -3  -5    0.91    1.52
  -1  -3  -5    2.32    1.28
   0  -3  -5  470.81   11.08
   0  -3  -5  469.24   10.64
   0  -3  -5  469.75   18.45
   1  -3  -5   61.36    6.11
   1  -3  -5   69.75    4.12
   1  -3  -5   68.82    3.52
   2  -3  -5   94.80    9.09
   2  -3  -5  106.54    4.70
   2  -3  -5  111.27    4.19
   3  -3  -5  439.18   11.70
  -4   3   5    2.93    1.68
   4  -3  -5    7.62    1.19
  -5   3   5   38.47    5.69
   5  -3  -5   31.87    2.89
  -6   3   5    0.98    0.69
   6  -3  -5    0.66    1.24
  -7   3   5  232.12   11.63
   7  -3  -5  247.44   10.01
  -8   3   5   21.92    5.04
   8  -3  -5   25.13    2.95
  -9   3   5   21.38    5.29
   9  -3  -5   29.56    3.96
  10  -3  -5   46.20    4.80
  -8  -2  -5   37.30    4.13
   8   2   5   32.59    3.83
   8   2   5   32.32    7.73
  -7  -2  -5   53.35    4.31
   7   2   5   57.36    4.45
   7   2   5   47.44    7.76
  -6  -2  -5   19.88    3.16
   6   2   5   17.65    2.89
   6   2   5   18.18    2.93
  -5  -2  -5  191.96   11.57
   5   2   5  193.06   11.79
   5   2   5  199.18   11.63
  -4  -2  -5   23.56    2.75
   4   2   5   30.03    2.89
   4   2   5   31.50    2.45
  -3  -2  -5   35.09    3.55
   3   2   5   39.53    3.27
  -3  -2  -5   39.99    7.23
   3   2   5   42.68    2.79
  -2  -2  -5    2.46    1.57
   2   2   5    2.84    1.97
  -2  -2  -5    1.59    0.70
  -1  -2  -5  118.76    5.08
  -1  -2  -5  114.21    4.94
  -1  -2  -5  107.14    6.99
   0  -2  -5   93.83    9.83
   0  -2  -5   90.31    4.47
   0  -2  -5  106.69   11.18
   1  -2  -5    8.21    2.04
   1  -2  -5    7.75    2.07
   1  -2  -5    4.18    1.29
   2  -2  -5   80.35    7.17
   2  -2  -5   88.31    4.31
   3  -2  -5   67.44   12.24
  -4   2   5    2.69    1.11
   4  -2  -5    2.03    1.00
  -5   2   5   27.32    5.82
   5  -2  -5   29.01    3.14
  -6   2   5   53.96    8.35
   6  -2  -5   68.17    4.99
  -8   2   5   12.95    3.34
   8  -2  -5   10.10    2.34
  -9   2   5   31.69    9.02
   9  -2  -5   26.99    4.03
  10  -2  -5   14.59    2.81
  -8  -1  -5   60.26    4.90
   8   1   5   48.94    4.35
   8   1   5   49.83    8.96
  -7  -1  -5   44.80    3.92
   7   1   5   41.86    3.85
   7   1   5   37.40    6.55
  -6  -1  -5    3.61    1.81
   6   1   5    0.80    1.38
   6   1   5    1.47    0.58
  -5  -1  -5    7.73    2.43
   5   1   5    8.69    2.07
   5   1   5   11.35    1.77
  -4  -1  -5   30.15    2.79
   4   1   5   36.76    3.28
  -4  -1  -5   34.35    5.82
   4   1   5   37.44    2.35
  -3  -1  -5    6.95    2.32
   3   1   5    4.24    2.15
  -3  -1  -5    5.70    1.02
  -2  -1  -5   60.27    3.67
   2   1   5   69.79    4.08
  -2  -1  -5   58.30    5.30
  -1  -1  -5    6.39    1.61
  -1  -1  -5    2.37    1.38
  -1  -1  -5    7.09    1.41
   0  -1  -5   65.76    5.86
   0  -1  -5   67.35    4.61
   0  -1  -5   63.58    2.66
   1  -1  -5   63.35    7.41
   1  -1  -5   69.30    3.64
   2  -1  -5    5.52    1.66
   2  -1  -5    1.40    1.69
   3  -1  -5  107.29    9.12
  -4   1   5    1.74    0.91
   4  -1  -5    0.12    0.60
  -5   1   5   74.42    4.60
   5  -1  -5   77.10    4.91
  -6   1   5    6.64    2.10
   6  -1  -5    5.36    2.04
  -7   1   5    8.14    1.62
   7  -1  -5    3.50    1.48
  -8   1   5   13.87    4.78
   8  -1  -5   16.56    2.68
  -9   1   5   50.40   14.58
   9  -1  -5   91.18    5.78
  -8   0  -5   22.43    3.10
   8   0   5   28.51    3.64
   8   0   5   23.63    4.79
  -7   0  -5   94.28    5.54
   7   0   5   78.29    5.03
   7   0   5   81.63    8.39
  -6   0  -5   66.18    4.83
   6   0   5   49.38    3.91
   6   0   5   57.29    3.31
  -5   0  -5  108.96    7.67
   5   0   5  136.45    6.50
   5   0   5  134.87    5.16
  -4   0  -5  142.24    7.35
   4   0   5  128.58    6.89
  -4   0  -5  128.42    5.87
  -3   0  -5  425.88   10.22
   3   0   5  380.09    9.69
  -3   0  -5  425.18    8.71
  -2   0  -5   90.81    4.39
   2   0   5   83.35    4.23
  -2   0  -5   90.35    5.92
  -1   0  -5   71.55    3.68
  -1   0  -5   65.95    2.58
   0   0  -5    0.76    0.84
   0   0  -5    0.48    1.15
   1   0  -5   69.75    6.48
   1   0  -5   73.58    3.68
   2   0  -5   78.64    7.30
   2   0  -5   94.52    4.45
   3   0  -5  441.10    9.93
  -4   0   5  132.08    9.00
   4   0  -5  129.33    9.25
  -5   0   5  133.92    7.75
   5   0  -5  124.30    5.88
  -6   0   5   52.38    6.62
   6   0  -5   60.36    4.13
  -7   0   5   74.47    5.10
   7   0  -5   87.03    5.10
  -8   0   5   20.05    5.59
   8   0  -5   21.74    2.92
   9   0  -5  128.15    6.22
  -9   1  -5   74.82    5.22
   9  -1   5   61.90   13.87
  -8   1  -5   18.46    3.29
   8  -1   5   19.02    2.73
   8  -1   5   14.92    2.34
  -7   1  -5    6.33    2.48
   7  -1   5    5.87    1.00
  -6   1  -5    8.47    2.57
   6  -1   5    8.49    2.29
   6  -1   5    3.80    0.97
  -5   1  -5   88.24    5.66
   5  -1   5   90.15    5.74
   5  -1   5   88.09    4.22
  -4   1  -5    1.03    1.50
   4  -1   5    1.81    2.05
  -4   1  -5    1.40    0.48
  -3   1  -5  108.22    4.87
   3  -1   5  117.20    5.08
  -3   1  -5  109.64    3.35
  -2   1  -5    6.62    2.12
   2  -1   5    3.91    1.99
  -2   1  -5    5.89    1.37
  -1   1  -5   66.04    3.46
  -1   1  -5   64.52    2.37
   0   1  -5   69.30    6.38
   0   1  -5   66.75    3.55
   1   1  -5    5.47    1.34
   1   1  -5    4.45    1.71
   2   1  -5   55.32    4.95
   2   1  -5   62.11    3.27
   3   1  -5    6.13    1.58
   3   1  -5    6.92    1.67
  -4  -1   5   43.13    5.12
   4   1  -5   36.57    2.70
  -5  -1   5    7.29    1.73
   5   1  -5    7.73    1.84
  -6  -1   5    0.93    0.73
   6   1  -5    0.70    1.04
  -7  -1   5   26.35    7.81
   7   1  -5   45.28    3.81
  -8  -1   5   41.84   10.17
   8   1  -5   57.63    4.39
  10  -2   5   25.57    4.00
  10  -2   5   22.87    4.58
  -9   2  -5   34.53    4.21
   9  -2   5   35.57    3.88
   9  -2   5   41.05    3.68
  -8   2  -5   13.14    3.42
   8  -2   5   12.44    2.67
   8  -2   5   14.35    2.86
  -7   2  -5  182.98   11.45
   7  -2   5  177.03   11.12
  -6   2  -5   77.20    5.82
   6  -2   5   56.35    4.71
  -5   2  -5   25.41    2.98
   5  -2   5   32.82    3.43
  -4   2  -5    4.19    2.12
   4  -2   5    4.75    2.15
  -3   2  -5   63.66    3.61
   3  -2   5   70.06    3.98
  -3   2  -5   57.34    2.94
  -2   2  -5   90.60    4.09
   2  -2   5   86.06    4.03
  -1   2  -5    2.75    1.28
   0   2  -5   93.75    3.85
   0   2  -5   88.09    3.71
   1   2  -5  112.79    4.18
   1   2  -5  108.33    3.99
   2   2  -5    2.76    0.82
   2   2  -5    5.15    1.52
   3   2  -5   30.72    2.28
   3   2  -5   36.62    2.33
   4   2  -5   33.65    2.52
  -5  -2   5  176.79   10.17
   5   2  -5  198.43   11.51
  -6  -2   5   14.49    2.85
   6   2  -5   15.31    2.21
   7   2  -5   46.96    3.68
   8   2  -5   35.60    3.35
  10  -3   5   44.71    4.52
  10  -3   5   37.19    7.34
  -9   3  -5   21.96    3.02
   9  -3   5   28.21    3.56
   9  -3   5   28.08    4.75
   8  -3   5   17.84    3.03
   8  -3   5   23.93    1.49
  -7   3  -5  234.89    9.68
   7  -3   5  245.02    9.73
  -6   3  -5    1.45    1.47
   6  -3   5    1.17    1.41
  -5   3  -5   34.99    3.32
   5  -3   5   41.79    3.23
  -4   3  -5    5.46    2.11
   4  -3   5    6.64    1.68
  -3   3  -5  425.21    9.69
  -3   3  -5  431.64    6.95
  -2   3  -5  130.81   12.16
   2  -3   5  116.07    4.52
  -1   3  -5   64.20    3.31
  -1   3  -5   60.62    3.16
   0   3  -5  460.21    9.60
   0   3  -5  447.58    9.14
   1   3  -5    1.24    0.56
   1   3  -5    2.02    0.97
   2   3  -5   30.48    6.55
   2   3  -5   28.31    2.44
   3   3  -5    1.64    1.16
   3   3  -5    2.70    1.10
   4   3  -5  163.02    6.40
   4   3  -5  144.47    5.37
   5   3  -5   12.10    2.04
  -6  -3   5   18.99    4.90
   6   3  -5   12.81    1.79
   7   3  -5   66.09    3.84
 -10   4  -5    1.81    2.31
  10  -4   5    0.75    1.72
  10  -4   5    0.53    0.55
  -9   4  -5   35.79    4.41
   9  -4   5   38.00    4.62
   9  -4   5   40.74    3.00
  -8   4  -5    7.12    2.56
   8  -4   5   -0.25    1.33
  -7   4  -5  148.53    7.49
   7  -4   5  160.13    7.58
  -6   4  -5   36.01    3.34
   6  -4   5   38.81    3.79
  -5   4  -5   34.04    3.14
   5  -4   5   36.76    3.09
  -4   4  -5  139.72    7.17
   4  -4   5  120.13    8.53
  -3   4  -5    0.84    0.78
   3  -4   5    0.89    1.25
  -3   4  -5    0.21    0.15
  -2   4  -5    0.10    1.08
   2  -4   5    1.59    1.01
  -1   4  -5    5.91    1.65
  -1   4  -5    6.90    1.55
   0   4  -5  143.30    6.74
   0   4  -5  155.65    6.92
   1   4  -5   76.02    5.24
   1   4  -5   86.65    4.36
   2   4  -5   70.75    4.55
   2   4  -5   70.49    3.95
   3   4  -5  254.57    8.30
   3   4  -5  247.36    7.86
   4   4  -5    0.81    0.73
   4   4  -5    0.92    0.67
   5   4  -5   53.47    4.59
   5   4  -5   53.70    4.31
   6   4  -5    9.97    1.94
   6   4  -5    8.15    1.53
 -10   5  -5    2.67    2.44
  10  -5   5    4.16    2.03
  -9   5  -5   51.29    5.49
   9  -5   5   52.20    5.65
  -8   5  -5   16.16    2.83
   8  -5   5   17.04    2.99
  -7   5  -5  195.96   12.09
  -6   5  -5    4.04    1.38
   6  -5   5    9.06    1.98
  -5   5  -5  117.33    5.60
   5  -5   5  134.00    6.10
  -4   5  -5   81.01    4.88
   4  -5   5   79.23    4.58
  -3   5  -5   27.21    2.33
   3  -5   5   29.56    2.34
  -3   5  -5   24.13    2.04
  -2   5  -5   34.86    2.35
   2  -5   5   39.31    2.57
  -1   5  -5   36.57    4.75
  -1   5  -5   34.69    2.21
   0   5  -5  134.02    4.95
   0   5  -5  138.62    5.15
   1   5  -5    5.67    1.20
   1   5  -5    7.64    1.43
   2   5  -5  188.06   10.28
   2   5  -5  191.63   10.31
   3   5  -5   27.28    1.98
   3   5  -5   30.74    1.88
   4   5  -5   33.35    2.90
   4   5  -5   37.72    5.03
   5   5  -5    1.33    0.81
   5   5  -5    0.93    0.57
  10  -6   5    5.26    2.28
  -9   6  -5   12.49    2.53
   9  -6   5   22.28    3.46
  -8   6  -5   17.12    2.72
   8  -6   5   16.01    2.95
  -7   6  -5    0.71    1.25
   7  -6   5    1.58    1.42
  -6   6  -5   64.35    4.53
   6  -6   5   50.29    3.70
  -5   6  -5    6.62    2.19
   5  -6   5    5.87    2.02
  -4   6  -5   69.67    4.63
   4  -6   5   59.04    4.07
  -3   6  -5    3.27    1.45
   3  -6   5    2.29    1.38
  -3   6  -5    1.90    0.47
  -2   6  -5   38.71    3.00
  -2   6  -5   36.06    4.30
  -1   6  -5    7.31    1.59
  -1   6  -5    6.90    1.40
   0   6  -5   61.96    4.80
   0   6  -5   71.86    6.50
   1   6  -5    6.26    1.13
   1   6  -5    6.99    1.25
   2   6  -5   11.47    1.14
   2   6  -5   15.11    1.09
   3   6  -5   24.90    2.72
   4   6  -5    1.35    0.51
  10  -7   5   54.13    4.77
  -9   7  -5   48.08    4.11
   9  -7   5   53.75    4.68
  -8   7  -5   32.99    3.26
   8  -7   5   33.55    3.62
  -7   7  -5   73.51    4.70
   7  -7   5   72.53    4.62
  -6   7  -5    6.54    1.58
   6  -7   5    7.63    1.60
  -5   7  -5  175.84   10.55
   5  -7   5  167.68    9.84
  -4   7  -5  260.08    9.24
   4  -7   5  256.24    8.53
  -3   7  -5  154.25    6.09
   3  -7   5  171.03    6.06
  -3   7  -5  139.90    4.49
  -2   7  -5  204.11   11.27
  -2   7  -5  193.89   10.76
  -2   7  -5  195.24   11.29
  -1   7  -5    1.32    0.73
  -1   7  -5    1.01    0.81
  -1   7  -5    1.92    1.17
   0   7  -5   92.94    2.39
   0   7  -5   96.70    2.50
   0   7  -5   79.91    3.80
   1   7  -5   12.23    1.68
  10  -8   5   36.94    4.21
   9  -8   5   50.08    4.37
   8  -8   5   25.94    3.17
  -7   8  -5   14.68    2.46
   7  -8   5   14.80    2.28
  -6   8  -5   13.18    2.03
   6  -8   5   15.09    2.08
  -5   8  -5   28.15    2.52
   5  -8   5   22.97    2.63
  -4   8  -5    2.35    1.18
   4  -8   5    3.38    1.32
  -4   8  -5    0.49    0.37
  -3   8  -5   10.17    1.46
  -3   8  -5   10.90    2.22
  -2   8  -5   15.01    3.59
  -2   8  -5   15.96    1.58
  -2   8  -5   16.37    3.52
  -1   8  -5   38.05    1.60
  -1   8  -5   37.85    5.25
   0   8  -5   19.77    4.12
   1   8  -5   71.08    5.18
  -9   9  -5  138.57    6.95
  -8   9  -5   69.49    4.50
   8  -9   5   66.08    4.27
  -7   9  -5   31.18    3.15
   7  -9   5   38.91    3.25
  -6   9  -5   29.12    3.23
   6  -9   5   28.02    2.81
  -5   9  -5   34.85    3.52
   5  -9   5   38.19    3.86
  -4   9  -5   51.57    4.39
   4  -9   5   53.17    4.26
  -4   9  -5   58.30    4.23
  -3   9  -5   11.64    2.89
  -3   9  -5   13.20    1.36
  -3   9  -5   13.56    2.80
  -2   9  -5   47.13    6.04
  -1   9  -5   46.54    6.65
   0   9  -5  120.17    4.70
  -8  10  -5   22.35    3.08
   8 -10   5   26.08    3.02
  -7  10  -5   44.93    3.34
   7 -10   5   47.59    3.26
  -6  10  -5    3.23    1.78
  -5  10  -5    0.01    0.69
   5 -10   5    0.92    0.67
  -4  10  -5    6.88    1.76
  -4  10  -5    7.30    1.36
  -4  10  -5    9.73    1.42
  -3  10  -5   64.25    5.01
  -2  10  -5   32.21    3.57
   2  -9  -6    4.80    1.69
   3  -9  -6   15.27    3.35
   3  -9  -6   19.37    2.67
   4  -9  -6   37.44    9.12
   4  -9  -6   37.12    3.14
   5  -9  -6   19.99    3.23
   5  -9  -6   22.19    2.93
   6  -9  -6   37.42    3.68
   6  -9  -6   39.97    3.93
   7  -9  -6    3.03    1.58
   0  -8  -6   23.79    2.98
   0  -8  -6   14.61    4.38
   1  -8  -6    4.43    1.76
   1  -8  -6    8.57    2.26
   2  -8  -6   68.98   13.73
   2  -8  -6   75.20    4.33
   2  -8  -6   66.47    9.46
   3  -8  -6   11.89    2.21
   3  -8  -6   16.17    2.56
   3  -8  -6   10.40    2.60
   4  -8  -6   58.89   13.42
   4  -8  -6   70.58    5.56
   4  -8  -6   61.82   14.87
   5  -8  -6   22.66    3.25
   5  -8  -6   19.90    2.55
   5  -8  -6   24.30    4.05
  -6   8   6   96.90    5.52
   6  -8  -6   86.82    5.30
   6  -8  -6   98.35    5.06
  -7   8   6    4.18    2.61
   7  -8  -6    2.50    1.71
   7  -8  -6    8.71    2.07
   8  -8  -6   15.36    3.21
  -2  -7  -6    2.12    1.71
  -1  -7  -6    6.95    1.47
  -1  -7  -6    8.56    2.02
  -1  -7  -6    5.10    1.60
   0  -7  -6  111.08    8.70
   0  -7  -6  101.73    7.17
   0  -7  -6   91.71   10.36
   1  -7  -6   50.75    4.85
   1  -7  -6   51.77    4.95
   1  -7  -6   54.50    9.64
   2  -7  -6   13.33    2.11
   2  -7  -6   12.81    2.11
   2  -7  -6   12.71    2.94
   3  -7  -6    3.91    0.91
   3  -7  -6    1.70    1.32
   3  -7  -6    1.59    0.49
   4  -7  -6    8.23    1.21
   4  -7  -6    5.19    2.01
   4  -7  -6    3.59    1.58
   5  -7  -6   12.90    2.85
   5  -7  -6   16.17    2.50
   5  -7  -6   15.87    2.65
  -6   7   6   20.20    6.83
   6  -7  -6   21.66    2.93
   6  -7  -6   22.47    2.50
  -7   7   6  110.36   16.03
   7  -7  -6   94.78    7.52
   7  -7  -6  100.27    6.92
  -8   7   6    8.70    2.28
   8  -7  -6    4.49    2.09
   8  -7  -6    6.64    1.84
  -3  -6  -6   29.14    9.34
  -3  -6  -6   40.71    3.44
  -3  -6  -6   38.43    3.69
   3   6   6   31.42    3.23
  -2  -6  -6   90.67   14.95
  -2  -6  -6  106.59    5.13
  -2  -6  -6   85.38   14.81
  -1  -6  -6   17.45    2.67
  -1  -6  -6   30.16    3.86
  -1  -6  -6   20.48    4.32
   0  -6  -6   16.81    3.61
   0  -6  -6   16.62    2.39
   0  -6  -6   14.46    3.36
   1  -6  -6    7.04    1.50
   1  -6  -6    0.90    1.39
   1  -6  -6    1.98    1.68
   2  -6  -6   54.36   11.49
   2  -6  -6   60.25    4.84
   2  -6  -6   60.20    9.49
   3  -6  -6   20.18    4.19
   3  -6  -6   14.78    2.28
   3  -6  -6   15.53    2.69
   4  -6  -6   70.14    8.24
   4  -6  -6   68.16    5.45
   4  -6  -6   71.65    5.45
   5  -6  -6   17.93    2.77
   5  -6  -6   22.36    2.54
  -6   6   6   11.16    2.51
   6  -6  -6    9.00    1.90
   6  -6  -6   12.74    2.07
  -7   6   6   35.46   12.35
   7  -6  -6   53.04    5.81
  -8   6   6   71.93    9.18
   8  -6  -6   73.99    5.36
   9  -6  -6   11.93    3.33
  -4  -5  -6   26.55    3.07
   4   5   6   15.08    2.80
  -3  -5  -6   19.14    5.30
  -3  -5  -6   21.16    2.78
  -3  -5  -6   16.16    4.01
   3   5   6   20.42    2.87
  -2  -5  -6   15.03    4.36
  -2  -5  -6   13.03    2.16
  -2  -5  -6   17.03    3.91
  -1  -5  -6   17.63    4.02
  -1  -5  -6   20.49    2.57
  -1  -5  -6   17.93    3.56
   0  -5  -6   14.19    3.14
   0  -5  -6   17.20    2.87
   0  -5  -6   15.58    3.59
   1  -5  -6   13.16    2.53
   1  -5  -6   13.60    2.54
   1  -5  -6   13.43    3.21
   2  -5  -6  102.34    7.85
   2  -5  -6  109.24    5.70
   2  -5  -6  103.34   10.79
   3  -5  -6  114.54    7.29
   3  -5  -6  114.67    5.96
   3  -5  -6  116.34    5.66
   4  -5  -6   18.68    3.80
   4  -5  -6   25.59    3.70
   4  -5  -6   23.41    3.55
  -5   5   6   23.24    3.71
   5  -5  -6   13.60    3.11
   5  -5  -6   17.24    2.86
  -6   5   6    6.12    1.94
   6  -5  -6    4.34    2.00
  -7   5   6   11.65    3.12
   7  -5  -6   13.19    2.41
  -8   5   6   12.51    3.84
   8  -5  -6   11.23    2.53
  -9   5   6   18.45    5.38
   9  -5  -6   39.87    4.50
   5   4   6   24.86    3.46
  -4  -4  -6   74.90    5.92
   4   4   6   76.35    6.32
   4   4   6   70.14    5.51
  -3  -4  -6    4.82    1.89
  -3  -4  -6    7.77    1.95
  -3  -4  -6    4.61    1.21
   3   4   6    3.56    1.37
  -2  -4  -6   57.01    5.94
  -2  -4  -6   64.32    5.30
  -2  -4  -6   64.08    7.69
  -1  -4  -6   21.71    6.28
  -1  -4  -6   20.09    3.09
  -1  -4  -6   19.75    4.63
   0  -4  -6  344.47   11.96
   0  -4  -6  320.98   11.18
   0  -4  -6  313.98   10.38
   1  -4  -6   14.03    1.94
   1  -4  -6    8.46    2.10
   1  -4  -6   10.05    2.67
   2  -4  -6   16.47    1.80
   2  -4  -6   13.64    2.52
   2  -4  -6   11.29    1.92
   3  -4  -6    3.45    1.28
   3  -4  -6   -0.23    1.29
   3  -4  -6    0.52    1.12
   4  -4  -6  323.17   11.83
   4  -4  -6  313.90   11.14
   4  -4  -6  301.54   10.13
  -5   4   6   14.76    4.26
   5  -4  -6   10.25    2.41
  -6   4   6   56.30    6.91
   6  -4  -6   56.44    5.03
  -7   4   6    2.84    1.66
   7  -4  -6    2.76    1.55
  -8   4   6   51.73   16.06
   8  -4  -6   81.71    7.02
  -9   4   6   10.40    3.31
   9  -4  -6   29.58    3.94
  -6  -3  -6   20.16    3.26
   6   3   6   19.47    3.22
  -5  -3  -6    9.89    3.71
   5   3   6   16.87    2.78
   5   3   6   17.25    2.59
  -4  -3  -6    2.86    1.39
   4   3   6    1.43    1.32
  -4  -3  -6    1.07    1.08
   4   3   6    1.53    1.03
  -3  -3  -6   12.60    2.96
   3   3   6    8.01    2.07
  -3  -3  -6   15.56    2.78
  -2  -3  -6  105.11    5.46
  -2  -3  -6  120.50    6.15
  -2  -3  -6  106.71    6.19
  -1  -3  -6    2.16    1.14
  -1  -3  -6   -0.15    1.48
  -1  -3  -6   -0.36    0.89
   0  -3  -6   46.89    7.31
   0  -3  -6   51.87    4.11
   0  -3  -6   55.99    3.62
   1  -3  -6   42.33    4.81
   1  -3  -6   40.50    3.63
   1  -3  -6   42.38    3.07
   2  -3  -6   26.92    6.18
   2  -3  -6   20.43    2.57
   2  -3  -6   23.40    2.32
   3  -3  -6   46.58    5.05
   3  -3  -6   43.96    3.70
   3  -3  -6   47.26    3.68
   4  -3  -6   12.02    1.71
   4  -3  -6   10.06    2.17
  -5   3   6   83.11    5.98
   5  -3  -6   98.55    7.53
  -6   3   6    5.23    3.07
   6  -3  -6   12.03    2.15
  -7   3   6    3.17    1.48
   7  -3  -6    5.95    2.07
  -8   3   6   14.24    4.00
   8  -3  -6   15.84    2.90
   9  -3  -6   36.20    4.17
   7   2   6    4.99    2.46
   7   2   6    2.61    1.69
  -6  -2  -6   88.21    5.23
   6   2   6   80.45    5.15
   6   2   6   81.13    4.29
  -5  -2  -6   13.39    2.15
   5   2   6   11.53    2.32
   5   2   6    8.97    1.71
  -4  -2  -6   59.61    5.24
   4   2   6   59.34    5.09
  -4  -2  -6   57.25    6.67
  -3  -2  -6   99.42    5.49
   3   2   6   93.51    5.39
  -3  -2  -6   91.40   10.28
  -2  -2  -6   11.75    2.03
  -2  -2  -6   12.01    2.24
  -2  -2  -6   12.09    2.19
  -1  -2  -6   23.97    7.59
  -1  -2  -6   22.12    2.62
  -1  -2  -6   29.50    5.47
   0  -2  -6  299.26    8.56
   0  -2  -6  289.65   10.42
   0  -2  -6  289.79    9.69
   1  -2  -6   26.00    4.56
   1  -2  -6   29.47    3.05
   1  -2  -6   28.10    2.35
   2  -2  -6  294.31    7.98
   2  -2  -6  285.10   10.21
   2  -2  -6  294.14    6.27
   3  -2  -6   45.17    9.46
   3  -2  -6   42.66    3.46
   4  -2  -6   15.43    3.20
   4  -2  -6    9.55    2.10
   5  -2  -6  119.71    6.18
  -6   2   6   56.31    9.08
   6  -2  -6   62.54    5.01
  -7   2   6   10.18    3.63
   7  -2  -6   14.25    2.46
  -8   2   6   89.70    9.72
   8  -2  -6   91.61    5.58
  -9   2   6    1.74    1.10
   9  -2  -6   -0.24    1.44
  -7  -1  -6    6.15    2.24
   7   1   6    8.79    2.79
   7   1   6    7.27    1.90
  -6  -1  -6   50.40    5.13
   6   1   6   42.56    4.86
   6   1   6   40.51    3.81
  -5  -1  -6    2.82    1.61
   5   1   6    6.70    2.01
   5   1   6    2.34    0.59
  -4  -1  -6   13.47    2.88
   4   1   6   12.04    2.58
  -4  -1  -6   13.75    3.28
  -3  -1  -6   11.20    2.38
   3   1   6    8.69    2.07
  -3  -1  -6    9.21    2.13
  -2  -1  -6   36.51    3.38
  -2  -1  -6   40.16    6.22
  -1  -1  -6   24.17    5.29
  -1  -1  -6   30.78    3.08
  -1  -1  -6   26.38    5.36
   0  -1  -6   71.56    9.62
   0  -1  -6   74.92    4.93
   0  -1  -6   72.74    3.29
   1  -1  -6   66.79   12.34
   1  -1  -6   70.18    4.05
   1  -1  -6   66.76    3.11
   2  -1  -6   25.06    5.87
   2  -1  -6   23.50    2.79
   3  -1  -6   27.16    5.63
   3  -1  -6   24.20    2.73
   4  -1  -6    1.09    0.74
   4  -1  -6    0.61    1.29
  -5   1   6   18.76    5.39
  -6   1   6   15.28    3.80
   6  -1  -6   19.20    2.56
  -7   1   6   18.98    5.26
   7  -1  -6   16.68    2.46
  -8   1   6    7.76    2.15
   8  -1  -6    5.52    1.65
   8   0   6   16.39    3.33
  -7   0  -6   89.56    7.04
   7   0   6  100.51    7.50
   7   0   6  118.24    7.32
  -6   0  -6   14.60    2.88
   6   0   6   10.67    2.43
   6   0   6   14.35    1.67
  -5   0  -6   15.17    3.01
   5   0   6   22.89    3.73
  -4   0  -6  301.29   10.88
   4   0   6  344.10   12.30
  -4   0  -6  295.79    9.23
  -3   0  -6   53.58    8.58
   3   0   6   38.65    3.65
  -3   0  -6   52.63    4.75
  -2   0  -6  289.41   10.34
   2   0   6  296.26    7.88
  -2   0  -6  278.24    8.74
  -1   0  -6   61.37    5.95
  -1   0  -6   72.03    4.10
  -1   0  -6   69.32    3.39
   0   0  -6  394.52    8.54
   0   0  -6  394.27    8.02
   0   0  -6  392.37   15.27
   1   0  -6   74.82   10.88
   1   0  -6   71.21    3.95
   2   0  -6  286.66   12.37
   2   0  -6  295.55    7.02
   3   0  -6   56.22   12.11
   3   0  -6   49.61    3.85
   4   0  -6  320.44   10.99
   4   0  -6  310.29   10.52
  -5   0   6   19.23    2.93
   5   0  -6   11.91    2.26
  -6   0   6   12.70    3.31
   6   0  -6   12.42    2.11
  -7   0   6  115.21    8.56
   7   0  -6   98.41    7.15
   8   0  -6   20.34    2.92
  -8   1  -6    8.08    2.79
   8  -1   6    9.52    2.65
   8  -1   6    8.36    1.49
  -7   1  -6   24.36    3.44
   7  -1   6   20.25    3.20
   7  -1   6   18.66    2.71
  -6   1  -6   18.46    3.19
   6  -1   6   20.25    2.98
  -5   1  -6   17.02    4.89
   5  -1   6   20.03    3.22
  -4   1  -6    4.44    2.23
   4  -1   6    3.16    1.51
  -4   1  -6    0.16    0.50
  -3   1  -6   24.88    2.65
   3  -1   6   23.09    2.83
  -3   1  -6   24.14    3.21
  -2   1  -6   22.24    2.49
   2  -1   6   22.50    2.64
  -2   1  -6   23.82    4.68
  -1   1  -6   67.57    7.03
  -1   1  -6   71.53    4.17
  -1   1  -6   66.49    2.59
   0   1  -6   70.61    6.16
   0   1  -6   63.88    3.48
   1   1  -6   25.25    4.82
   1   1  -6   28.43    2.52
   2   1  -6   39.12    4.57
   2   1  -6   41.55    3.04
   3   1  -6    9.27    2.27
   3   1  -6    8.68    1.79
   4   1  -6   15.39    2.65
   4   1  -6   11.06    1.93
   5   1  -6    2.44    1.15
  -6  -1   6   41.41    3.97
   6   1  -6   44.50    4.50
   7   1  -6   10.32    2.55
  -8   2  -6   96.43    5.64
   8  -2   6   87.41    5.40
  -7   2  -6   21.51    3.49
   7  -2   6   13.27    2.78
  -6   2  -6   62.88    5.47
   6  -2   6   69.96    5.73
  -5   2  -6  104.08    5.75
   5  -2   6  105.67    5.86
  -4   2  -6   11.92    2.20
   4  -2   6    7.05    1.87
  -4   2  -6    6.60    2.08
  -3   2  -6   44.09    3.54
   3  -2   6   37.65    3.13
  -3   2  -6   44.53    5.70
  -2   2  -6  293.13    7.14
   2  -2   6  293.74    7.41
  -2   2  -6  284.60    8.49
  -1   2  -6   22.05    5.97
  -1   2  -6   25.18    2.52
   0   2  -6  303.50   13.19
   0   2  -6  290.61   12.26
   1   2  -6   25.05    7.05
   1   2  -6   23.83    2.40
   2   2  -6   11.94    2.78
   2   2  -6   11.78    1.86
   3   2  -6   93.91    6.14
   3   2  -6  102.01    4.76
   4   2  -6   58.71    4.41
   4   2  -6   56.64    4.25
   5   2  -6   14.55    2.11
   5   2  -6   13.04    2.03
   6   2  -6   77.20    4.27
   7   2  -6    3.49    1.72
   9  -3   6   31.47    4.01
  -8   3  -6   18.24    3.41
   8  -3   6   14.31    2.51
  -7   3  -6    8.70    2.70
   7  -3   6    3.00    1.49
  -6   3  -6   14.57    2.50
   6  -3   6    9.73    2.29
  -5   3  -6   95.78    5.52
   5  -3   6   84.31    4.99
  -4   3  -6    8.56    1.43
   4  -3   6   13.23    2.21
  -3   3  -6   45.12    3.77
   3  -3   6   38.75    3.46
  -3   3  -6   51.57    4.59
  -2   3  -6   27.18    2.82
   2  -3   6   21.88    2.40
  -2   3  -6   21.38    1.42
  -1   3  -6   44.57    6.56
  -1   3  -6   45.40    3.25
   0   3  -6   53.88    7.70
   0   3  -6   48.14    3.65
   1   3  -6    0.79    0.48
   1   3  -6    0.55    1.01
   2   3  -6  102.46    4.75
   2   3  -6  102.26    4.51
   3   3  -6   16.24    1.93
   3   3  -6   17.01    2.20
   4   3  -6    0.53    0.84
   4   3  -6    2.06    1.13
   5   3  -6   10.64    1.74
   5   3  -6   13.93    1.81
   6   3  -6   13.68    2.13
   6   3  -6   19.10    2.10
  -9   4  -6   21.28    3.40
   9  -4   6   13.53    3.16
  -8   4  -6   73.31    6.44
   8  -4   6   67.11    5.95
  -7   4  -6    3.58    2.10
   7  -4   6    2.26    1.41
  -6   4  -6   53.26    4.59
   6  -4   6   59.95    5.07
  -5   4  -6   12.85    2.91
   5  -4   6   11.46    2.52
  -4   4  -6  302.20   10.37
   4  -4   6  344.46   11.79
  -3   4  -6    0.60    1.06
   3  -4   6    0.94    1.07
  -3   4  -6   -0.10    0.25
  -2   4  -6   13.13    2.04
  -1   4  -6    9.48    2.37
  -1   4  -6    9.63    1.80
   0   4  -6  324.62   11.40
   0   4  -6  314.61    9.96
   1   4  -6   18.00    3.82
   1   4  -6   20.22    2.70
   2   4  -6   66.69    9.24
   2   4  -6   67.80    4.53
   3   4  -6    5.43    1.23
   3   4  -6    5.37    1.19
   4   4  -6   78.67    5.45
   4   4  -6   74.43    4.90
   5   4  -6   46.12    2.53
  -9   5  -6   40.22    4.09
   9  -5   6   22.96    4.01
  -8   5  -6   13.21    2.84
   8  -5   6   21.22    3.28
  -7   5  -6   17.56    2.83
   7  -5   6   10.91    2.43
  -6   5  -6    2.83    1.77
  -5   5  -6   14.15    2.81
   5  -5   6   16.56    2.75
  -4   5  -6   26.03    3.71
   4  -5   6   21.97    3.16
  -3   5  -6  115.65    7.60
   3  -5   6  104.65    4.98
  -3   5  -6  115.23    3.27
  -2   5  -6  101.54    4.77
  -2   5  -6   93.47    4.55
  -1   5  -6   11.73    3.05
  -1   5  -6   15.26    2.27
   0   5  -6   14.17    3.22
   0   5  -6   14.75    3.88
   1   5  -6   20.19    4.68
   1   5  -6   20.86    3.97
   2   5  -6   14.19    1.62
   2   5  -6   15.37    2.91
   3   5  -6   18.99    1.89
   3   5  -6   21.78    1.84
   4   5  -6   18.25    1.83
   4   5  -6   24.60    1.86
  -9   6  -6   12.57    2.53
   9  -6   6   16.34    2.94
  -8   6  -6   66.82    4.78
   8  -6   6   74.41    4.82
  -7   6  -6   53.24    5.45
   7  -6   6   38.25    4.27
  -6   6  -6   15.91    2.51
   6  -6   6   15.76    2.50
  -5   6  -6   19.41    2.58
   5  -6   6   17.28    1.96
  -4   6  -6   70.51    5.12
   4  -6   6   67.01    4.92
  -3   6  -6   16.95    2.18
   3  -6   6    7.20    1.45
  -3   6  -6   16.95    1.96
  -2   6  -6   62.51    4.48
  -2   6  -6   59.85    4.27
  -2   6  -6   51.56    3.93
  -1   6  -6    3.40    0.72
  -1   6  -6    1.29    0.54
   0   6  -6   12.97    2.88
   0   6  -6   16.36    3.76
   1   6  -6   22.45    1.78
   1   6  -6   19.26    1.75
   2   6  -6  107.85    3.44
   2   6  -6   97.50    2.99
   3   6  -6   35.67    2.03
   3   6  -6   41.15    4.50
   9  -7   6    3.69    1.74
  -8   7  -6    2.82    1.93
   8  -7   6    7.29    2.47
  -7   7  -6   92.84    6.75
   7  -7   6  116.55    8.05
  -6   7  -6   17.45    2.59
   6  -7   6   18.57    2.50
  -5   7  -6   20.34    2.74
   5  -7   6   14.38    2.10
  -4   7  -6    3.80    1.14
   4  -7   6    1.37    1.00
  -3   7  -6    1.52    0.90
  -3   7  -6    1.97    0.59
  -2   7  -6   11.20    3.56
  -2   7  -6   10.79    1.53
  -2   7  -6   11.58    3.28
  -1   7  -6   44.21    4.84
  -1   7  -6   50.07    4.11
  -1   7  -6   45.72    4.33
   0   7  -6  103.87    7.60
   0   7  -6   97.48    5.81
   0   7  -6   85.47    7.98
   1   7  -6    8.35    1.29
   1   7  -6   10.24    1.50
   2   7  -6    0.92    0.33
  -8   8  -6   18.74    2.74
  -7   8  -6    9.48    2.10
   7  -8   6    8.86    2.28
  -6   8  -6   96.95    4.71
   6  -8   6  100.35    4.58
  -5   8  -6   18.97    2.13
   5  -8   6   19.94    2.37
  -4   8  -6   61.52    4.55
   4  -8   6   73.99    5.06
  -3   8  -6   10.42    2.56
  -3   8  -6   11.71    1.68
  -3   8  -6   10.57    2.32
  -2   8  -6   74.20    6.47
  -2   8  -6   64.36    2.90
  -2   8  -6   71.66    7.40
  -1   8  -6    6.18    1.51
  -1   8  -6    6.15    1.12
  -1   8  -6    5.07    1.17
   0   8  -6   17.13    3.62
  -7   9  -6    2.18    1.79
   7  -9   6    2.06    1.27
  -6   9  -6   35.50    3.09
   6  -9   6   37.30    3.09
  -5   9  -6   20.98    2.60
   5  -9   6   14.75    2.07
  -4   9  -6   44.74    2.55
  -4   9  -6   40.40    2.80
  -3   9  -6   13.64    3.51
  -3   9  -6   13.99    1.73
  -3   9  -6   13.56    3.36
  -2   9  -6    3.47    0.93
  -2   9  -6    4.24    1.43
   4  -8  -7    2.33    1.86
   1  -7  -7   27.98    5.26
   2  -7  -7   35.67    6.55
   2  -7  -7   35.42    3.53
   2  -7  -7   28.61    6.90
   3  -7  -7  120.45    5.88
   3  -7  -7  102.59   18.69
   4  -7  -7  177.50   12.17
   4  -7  -7  182.50    6.91
   4  -7  -7  190.13    6.76
   5  -7  -7   37.15    4.43
   5  -7  -7   36.87    3.39
   5  -7  -7   32.92    3.00
   6  -7  -7   64.57    5.17
  -1  -6  -7   58.39   11.19
  -1  -6  -7   77.21    5.04
   0  -6  -7    8.12    1.98
   0  -6  -7    7.96    2.16
   0  -6  -7    7.31    1.87
   1  -6  -7    4.88    1.14
   1  -6  -7    4.87    2.08
   1  -6  -7    5.70    1.95
   2  -6  -7   17.93    4.09
   2  -6  -7   27.39    2.95
   2  -6  -7   19.29    4.72
   3  -6  -7    1.04    0.42
   3  -6  -7    0.15    1.29
   3  -6  -7    1.04    0.81
   4  -6  -7   28.28    6.95
   4  -6  -7   27.99    3.37
   4  -6  -7   26.02    2.66
   5  -6  -7    3.90    1.35
   5  -6  -7    4.31    1.73
   5  -6  -7    8.69    2.21
   6  -6  -7    5.17    2.23
   6  -6  -7    8.91    2.48
   6  -6  -7    9.92    2.19
   7  -6  -7   30.01    3.90
  -2  -5  -7   22.04    8.04
  -2  -5  -7   34.12    3.68
  -2  -5  -7   25.73    7.47
  -1  -5  -7    5.83    1.36
  -1  -5  -7    6.82    2.10
  -1  -5  -7    5.33    2.12
   0  -5  -7  114.09   10.25
   0  -5  -7  128.99    5.79
   0  -5  -7  108.62   12.32
   1  -5  -7   15.22    2.26
   1  -5  -7   15.34    2.53
   1  -5  -7   12.32    3.72
   2  -5  -7   96.95   11.56
   2  -5  -7   96.62    5.28
   2  -5  -7   89.34   14.48
   3  -5  -7  111.50   20.61
   3  -5  -7  120.27    6.18
   3  -5  -7  117.52    5.67
   4  -5  -7   21.26    5.04
   4  -5  -7   21.22    2.77
   4  -5  -7   22.86    2.50
   5  -5  -7  108.12    9.82
   5  -5  -7  108.48    7.67
   5  -5  -7  123.43    8.14
   6  -5  -7    3.11    1.64
  -7   5   7   32.37    8.89
   7  -5  -7   27.86    3.36
  -4  -4  -7    1.40    1.19
  -3  -4  -7  162.45   15.81
  -3  -4  -7  193.90    7.32
  -3  -4  -7  177.29    6.17
  -2  -4  -7   21.47    7.84
  -2  -4  -7   25.36    3.12
  -2  -4  -7   27.25    7.58
  -1  -4  -7   21.59    4.35
  -1  -4  -7   25.42    3.25
  -1  -4  -7   21.04    5.51
   0  -4  -7   13.32    3.47
   0  -4  -7   17.08    2.85
   0  -4  -7   15.29    3.11
   1  -4  -7   20.33    4.77
   1  -4  -7   19.30    2.65
   1  -4  -7   17.77    4.62
   2  -4  -7    1.33    0.58
   2  -4  -7    0.68    1.42
   2  -4  -7    0.67    0.71
   3  -4  -7    5.02    0.91
   3  -4  -7    6.60    2.12
   3  -4  -7    4.39    1.48
   4  -4  -7   15.32    3.25
   4  -4  -7   11.75    2.61
   4  -4  -7   20.99    2.66
   5  -4  -7   13.19    2.91
   5  -4  -7   17.66    2.57
   6  -4  -7   20.19    2.84
   7  -4  -7  111.16    6.14
  -4  -3  -7  113.67    5.71
  -4  -3  -7  123.37    5.04
  -3  -3  -7    1.15    0.66
  -3  -3  -7    1.58    1.48
  -3  -3  -7    0.44    1.04
  -2  -3  -7  100.28   14.44
  -2  -3  -7  121.83    6.30
  -2  -3  -7  109.31   10.12
  -1  -3  -7    6.54    1.87
  -1  -3  -7    7.55    2.25
  -1  -3  -7    7.37    1.72
   0  -3  -7    1.64    0.97
   0  -3  -7    1.09    1.46
   0  -3  -7    0.47    0.68
   1  -3  -7   29.07    6.75
   1  -3  -7   24.03    2.80
   1  -3  -7   24.23    5.10
   2  -3  -7   40.95    7.58
   2  -3  -7   37.05    4.09
   2  -3  -7   41.00    3.58
   3  -3  -7   -0.24    1.24
   3  -3  -7    1.11    1.38
   3  -3  -7    0.12    1.11
   4  -3  -7   20.35    4.40
   4  -3  -7   21.01    2.90
   5  -3  -7   87.49    7.39
   5  -3  -7   98.84    5.54
   6  -3  -7    0.39    1.22
  -7   3   7  160.29    6.84
   7  -3  -7  164.56    7.14
  -5  -2  -7   45.31    4.34
   5   2   7   48.73    4.45
  -4  -2  -7   22.02    3.05
   4   2   7   14.56    2.72
  -4  -2  -7   20.56    4.58
  -3  -2  -7   86.96    5.01
  -3  -2  -7   96.26    5.78
  -3  -2  -7   90.97    6.32
  -2  -2  -7    1.58    0.82
  -2  -2  -7    1.20    1.48
  -2  -2  -7    0.84    0.70
  -1  -2  -7   32.93   10.66
  -1  -2  -7   40.99    3.97
  -1  -2  -7   32.57    5.63
   0  -2  -7   96.76   13.96
   0  -2  -7  105.92    7.40
   0  -2  -7   97.88    9.32
   1  -2  -7    4.88    1.89
   1  -2  -7    2.02    1.55
   1  -2  -7    1.88    1.11
   2  -2  -7   87.03   10.93
   2  -2  -7  111.38    7.79
   2  -2  -7  105.55    6.79
   3  -2  -7   25.98    4.99
   3  -2  -7   24.32    3.09
   4  -2  -7    0.85    0.47
   4  -2  -7    0.85    1.40
   5  -2  -7  113.15    6.52
   5  -2  -7  119.21    6.07
   6  -2  -7   34.28    3.99
  -7   2   7   39.36    3.73
   7  -2  -7   29.10    3.12
   6   1   7   35.00    3.82
  -5  -1  -7    2.08    1.27
   5   1   7    0.82    1.47
  -4  -1  -7   16.09    2.66
   4   1   7   16.29    2.64
  -4  -1  -7   12.74    3.42
  -3  -1  -7   21.09    2.67
  -3  -1  -7   16.81    4.10
  -2  -1  -7   21.15    6.70
  -2  -1  -7   35.17    4.22
  -2  -1  -7   25.83    4.18
  -1  -1  -7    1.56    1.08
  -1  -1  -7    0.60    1.46
  -1  -1  -7    1.85    0.87
   0  -1  -7   69.20    7.01
   0  -1  -7   71.11    5.60
   0  -1  -7   68.78    4.79
   1  -1  -7   69.52    9.01
   1  -1  -7   64.92    5.27
   1  -1  -7   65.49    4.54
   2  -1  -7    6.16    1.94
   2  -1  -7    2.58    1.44
   3  -1  -7   37.70    7.39
   3  -1  -7   35.55    3.68
   4  -1  -7    6.81    1.24
   4  -1  -7    8.29    2.29
   5  -1  -7   22.46    2.90
   5  -1  -7   24.00    2.92
   6  -1  -7    4.99    1.65
   6  -1  -7    4.55    1.45
  -7   1   7   57.75    4.27
   7  -1  -7   67.10    4.67
  -6   0  -7    9.14    2.44
   6   0   7    5.00    1.90
  -5   0  -7  122.58    8.60
   5   0   7  109.36    8.16
  -4   0  -7   17.18    2.92
   4   0   7   15.85    2.90
  -4   0  -7   14.42    3.05
  -3   0  -7    0.32    1.14
   3   0   7    4.02    2.11
  -3   0  -7    0.72    0.45
  -2   0  -7   97.21    6.85
  -2   0  -7  104.23    7.29
  -2   0  -7   85.93    6.57
  -1   0  -7   58.96    6.53
  -1   0  -7   70.98    5.58
  -1   0  -7   69.21    6.55
   0   0  -7   -0.52    1.11
   0   0  -7    2.08    1.40
   0   0  -7    0.15    0.86
   1   0  -7   65.29    6.30
   1   0  -7   67.37    5.18
   2   0  -7  103.82    6.98
   3   0  -7    0.62    0.66
   3   0  -7   -0.25    1.14
   4   0  -7   14.80    4.04
   4   0  -7   14.11    2.18
   5   0  -7  119.43    8.17
   5   0  -7  120.64    8.02
   6   0  -7   13.36    2.61
   6   0  -7   10.18    2.18
   7  -1   7   59.75    5.25
  -6   1  -7    5.75    2.22
   6  -1   7    5.56    2.18
  -5   1  -7   22.78    3.03
   5  -1   7   27.82    3.59
  -4   1  -7   10.40    2.45
   4  -1   7   10.88    2.47
  -4   1  -7    7.49    2.18
  -3   1  -7   39.81    3.86
   3  -1   7   38.24    4.10
  -3   1  -7   37.68    4.63
  -2   1  -7    2.71    1.12
  -2   1  -7    2.14    1.41
  -2   1  -7    2.94    0.84
  -1   1  -7   64.37   10.97
  -1   1  -7   73.11    5.56
  -1   1  -7   65.23    4.32
   0   1  -7   69.74    5.24
   0   1  -7   68.10    4.47
   1   1  -7    2.57    1.31
   2   1  -7   24.44    5.96
   2   1  -7   28.60    3.12
   3   1  -7   14.74    3.58
   3   1  -7   19.79    2.43
   4   1  -7   12.62    2.49
   4   1  -7   15.03    2.08
   5   1  -7    1.69    1.10
   5   1  -7    3.77    1.60
   6   1  -7   31.73    3.08
   6   1  -7   30.83    2.85
  -7   2  -7   34.78    3.67
   7  -2   7   37.22    4.38
  -6   2  -7   26.74    3.22
   6  -2   7   15.38    2.60
  -5   2  -7   92.78   17.92
   5  -2   7  102.53    6.00
  -4   2  -7    1.35    1.36
   4  -2   7    0.12    1.14
  -4   2  -7    0.60    0.33
  -3   2  -7   25.21    2.80
   3  -2   7   29.69    3.51
  -3   2  -7   29.39    4.53
  -2   2  -7   96.09    6.75
  -2   2  -7  101.64    7.16
  -2   2  -7   96.33    5.68
  -1   2  -7    5.31    1.90
  -1   2  -7    2.10    1.17
   0   2  -7   91.45    8.83
   0   2  -7   90.28    6.26
   1   2  -7   37.98    8.72
   1   2  -7   34.53    3.24
   2   2  -7    2.93    1.34
   2   2  -7    3.51    1.49
   3   2  -7   87.33    8.48
   3   2  -7   88.65    4.60
   4   2  -7   20.40    2.51
   4   2  -7   20.14    2.40
   5   2  -7   35.06    2.98
   5   2  -7   42.50    3.12
  -7   3  -7  181.99    7.40
   7  -3   7  186.54    7.79
  -6   3  -7    2.59    2.16
   6  -3   7    1.52    1.47
  -5   3  -7   93.44    5.44
   5  -3   7   87.03    5.58
  -4   3  -7   19.28    3.01
   4  -3   7   15.86    2.73
  -3   3  -7    1.10    1.21
   3  -3   7    5.75    1.54
  -3   3  -7    0.73    0.55
  -2   3  -7   29.57    9.58
  -2   3  -7   39.32    3.66
  -2   3  -7   38.75    2.70
  -1   3  -7   21.25    7.87
  -1   3  -7   25.15    2.81
   0   3  -7    0.65    0.57
   0   3  -7    0.86    1.00
   1   3  -7    9.37    2.34
   1   3  -7    7.68    1.61
   2   3  -7  112.39    6.86
   2   3  -7  108.71    4.73
   3   3  -7    0.98    0.85
   3   3  -7    0.71    0.81
   4   3  -7  110.67    4.60
   4   3  -7  113.98    4.26
   8  -4   7   -0.65    1.36
  -7   4  -7  121.69    6.29
   7  -4   7  120.95    6.18
  -6   4  -7   23.50    3.22
   6  -4   7   16.44    2.79
  -5   4  -7   12.79    2.64
   5  -4   7   18.52    2.49
  -4   4  -7   13.69    4.49
   4  -4   7   13.96    2.39
  -3   4  -7    8.54    2.24
   3  -4   7    8.39    1.82
  -3   4  -7    7.50    1.24
  -2   4  -7    1.28    0.78
  -2   4  -7    0.42    1.04
  -2   4  -7   -0.04    0.45
  -1   4  -7   14.78    3.95
  -1   4  -7   17.57    2.56
   0   4  -7   14.41    3.25
   0   4  -7   16.40    2.07
   1   4  -7   17.62    5.60
   1   4  -7   23.77    2.21
   2   4  -7   26.89    7.63
   2   4  -7   29.86    2.73
   3   4  -7  181.45    5.46
   3   4  -7  184.34    5.18
   4   4  -7    0.99    0.96
   4   4  -7    4.03    1.37
  -7   5  -7   31.66    3.32
   7  -5   7   37.76    3.61
  -6   5  -7    7.75    2.31
   6  -5   7    2.67    1.58
  -5   5  -7  130.88    6.10
   5  -5   7  121.23    8.45
  -4   5  -7   22.44    2.58
   4  -5   7   26.03    3.42
  -3   5  -7  115.74   10.71
  -3   5  -7  122.13    3.19
  -2   5  -7   88.99    5.34
  -2   5  -7   89.84    7.65
  -1   5  -7   11.76    3.48
  -1   5  -7   15.52    1.92
   0   5  -7  117.66    8.71
   0   5  -7  122.86    9.06
   1   5  -7    4.89    1.71
   1   5  -7    5.13    1.35
   2   5  -7   31.85    2.46
   2   5  -7   36.05    2.39
   7  -6   7   38.08    3.90
  -6   6  -7    9.39    2.50
   6  -6   7    8.47    2.22
  -5   6  -7    2.87    1.34
  -4   6  -7   28.56    3.29
   4  -6   7   24.86    3.01
  -3   6  -7    0.38    0.54
  -3   6  -7    0.10    0.88
  -2   6  -7   20.42    4.64
  -2   6  -7   18.50    2.09
  -1   6  -7    1.42    0.85
  -1   6  -7    3.30    1.23
   0   6  -7    6.77    1.71
   0   6  -7   11.21    1.91
   1   6  -7   70.43    8.90
   1   6  -7   64.46    2.83
  -6   7  -7   73.39    4.74
   6  -7   7   57.15    4.13
  -5   7  -7   35.35    3.22
  -4   7  -7  179.38    6.06
   4  -7   7  181.03    6.00
  -3   7  -7  118.98    6.01
  -3   7  -7  113.52    4.69
  -2   7  -7   34.03    4.60
  -2   7  -7   35.99    2.70
  -2   7  -7   31.72    4.11
  -1   7  -7   29.02    6.02
  -1   7  -7   26.08    2.20
  -1   7  -7   13.61    4.08
  -4   8  -7    4.05    1.43
  -4   8  -7    2.20    1.52
   0  -5  -8   70.52    5.78
   1  -5  -8   11.57    1.64
   1  -5  -8    7.22    2.82
   3  -5  -8   17.22    3.69
   4  -5  -8   17.92    2.81
   5  -5  -8   65.40   16.16
  -1  -4  -8   11.58    1.96
  -1  -4  -8   11.90    3.60
   0  -4  -8    5.88    1.22
   0  -4  -8    7.45    1.92
   1  -4  -8    4.16    2.37
   1  -4  -8    9.47    2.47
   1  -4  -8    5.30    1.50
   2  -4  -8  201.09   17.91
   2  -4  -8  190.34    7.07
   2  -4  -8  195.90   13.64
   3  -4  -8    6.20    1.78
   3  -4  -8    7.53    2.36
   3  -4  -8    6.62    1.92
   4  -4  -8    8.72    1.58
   4  -4  -8    7.33    2.07
   4  -4  -8   10.57    2.08
   5  -4  -8    9.52    3.24
  -2  -3  -8   18.50    6.09
  -2  -3  -8   16.59    3.96
  -1  -3  -8    5.31    1.90
  -1  -3  -8    5.90    2.43
  -1  -3  -8    3.98    1.43
   0  -3  -8   25.35    6.90
   0  -3  -8   24.00    5.87
   1  -3  -8   50.44   12.96
   1  -3  -8   59.95    4.54
   1  -3  -8   49.41    4.90
   2  -3  -8   33.71    5.39
   2  -3  -8   32.00    3.33
   2  -3  -8   32.77    3.02
   3  -3  -8   27.42    4.87
   3  -3  -8   34.28    3.84
   3  -3  -8   32.43    2.76
   4  -3  -8    4.80    1.71
   4  -3  -8    5.98    2.13
   4  -3  -8    3.37    1.58
   5  -3  -8   29.76    3.56
  -3  -2  -8   23.52    5.72
  -3  -2  -8   25.46    7.82
  -2  -2  -8  165.42   10.50
  -2  -2  -8  184.83    7.11
  -2  -2  -8  181.63    9.16
  -1  -2  -8   19.26    7.03
  -1  -2  -8   42.68    4.30
  -1  -2  -8   29.36    8.11
   0  -2  -8   86.60   14.37
   0  -2  -8   86.71    7.92
   1  -2  -8   25.14    3.99
   1  -2  -8   29.25    3.65
   1  -2  -8   28.16    3.97
   2  -2  -8   92.93    9.17
   2  -2  -8   92.89    6.95
   2  -2  -8   90.58    6.32
   3  -2  -8   49.72    4.00
   3  -2  -8   50.38    6.44
   3  -2  -8   58.22    3.69
   4  -2  -8  199.33    7.74
   4  -2  -8  193.29    7.00
   5  -2  -8   16.39    3.71
  -4  -1  -8   11.52    2.82
  -4  -1  -8   11.25    2.85
  -3  -1  -8    4.15    1.24
  -3  -1  -8    6.11    2.30
  -3  -1  -8    5.47    1.47
  -2  -1  -8   43.26   13.07
  -2  -1  -8   54.44    4.28
  -2  -1  -8   49.94   11.27
  -1  -1  -8   21.11    5.39
  -1  -1  -8   34.77    4.03
  -1  -1  -8   23.96    4.60
   0  -1  -8   16.96    3.91
   0  -1  -8   14.62    2.38
   0  -1  -8   13.82    3.14
   1  -1  -8   18.24    3.86
   1  -1  -8   20.57    2.88
   1  -1  -8   17.45    2.09
   2  -1  -8   27.82    6.30
   2  -1  -8   29.15    3.56
   2  -1  -8   26.49    2.48
   3  -1  -8   26.95    6.22
   3  -1  -8   31.29    3.26
   4  -1  -8    3.75    1.04
   4  -1  -8    4.76    2.06
   5  -1  -8   14.70    2.79
  -4   0  -8   10.64    2.29
  -4   0  -8    7.72    1.65
  -3   0  -8   24.56    6.91
  -3   0  -8   35.35    3.86
  -3   0  -8   26.66    6.30
  -2   0  -8   78.45   10.63
  -2   0  -8   95.24    7.15
  -2   0  -8   81.70    6.03
  -1   0  -8   14.55    3.48
  -1   0  -8   21.31    3.01
  -1   0  -8   13.14    3.05
   0   0  -8   91.87   19.35
   0   0  -8  105.35    8.55
   0   0  -8  109.25    8.15
   1   0  -8   13.99    2.65
   1   0  -8   15.56    2.53
   1   0  -8   14.23    1.84
   2   0  -8   82.07    8.44
   2   0  -8   82.87    9.16
   3   0  -8   25.30    7.28
   3   0  -8   27.90    3.66
   4   0  -8    9.63    2.24
   4   0  -8    8.25    2.31
   5  -1   8   13.89    3.13
  -4   1  -8    5.60    2.14
   4  -1   8    4.54    2.40
  -3   1  -8   22.37    5.39
  -3   1  -8   40.80    3.80
  -3   1  -8   30.63    4.54
  -2   1  -8   18.15    4.64
  -2   1  -8   27.62    3.35
  -2   1  -8   23.02    4.87
  -1   1  -8   12.69    2.03
  -1   1  -8   20.71    3.02
  -1   1  -8   15.29    3.18
   0   1  -8   14.31    2.20
   0   1  -8   16.06    1.73
   1   1  -8   20.64    6.31
   1   1  -8   25.66    3.27
   2   1  -8   46.16   13.29
   2   1  -8   52.79    3.69
   3   1  -8    6.18    1.80
   3   1  -8    6.02    1.80
   4   1  -8   13.88    2.10
   5  -2   8   20.72    3.31
  -4   2  -8  189.69    7.20
   4  -2   8  174.21    7.06
  -4   2  -8  184.16    3.92
  -3   2  -8   49.84    3.99
  -3   2  -8   51.25    3.90
  -3   2  -8   54.16    4.95
  -2   2  -8   86.64    9.20
  -2   2  -8   86.22    8.17
  -2   2  -8   80.39    7.45
  -1   2  -8   20.94    5.90
  -1   2  -8   24.37    2.99
  -1   2  -8   26.84    3.18
   0   2  -8   80.79   14.81
   0   2  -8   90.72    6.54
   0   2  -8   86.26    5.51
   1   2  -8   27.46    7.87
   1   2  -8   32.23    2.94
   2   2  -8  185.32    8.95
   2   2  -8  193.85    6.11
   3   2  -8   24.10    8.51
   3   2  -8   32.46    2.79
  -5   3  -8   30.98    3.23
   5  -3   8   29.12    3.43
   4  -3   8    4.98    2.29
  -3   3  -8   24.15    6.40
  -3   3  -8   31.17    3.21
  -3   3  -8   29.43    5.05
  -2   3  -8   24.86    7.66
  -2   3  -8   29.65    2.82
  -2   3  -8   28.80    3.80
  -1   3  -8   52.76    5.62
  -1   3  -8   57.45    3.86
  -1   3  -8   55.41    2.61
   0   3  -8   29.23    7.68
   0   3  -8   32.75    3.22
   1   3  -8    5.05    1.56
   1   3  -8    4.51    1.50
   2   3  -8   16.10    5.08
   2   3  -8   22.36    2.27
  -5   4  -8    9.71    1.93
   5  -4   8    9.56    2.58
  -4   4  -8    7.37    2.65
  -3   4  -8    4.87    1.34
  -3   4  -8    4.14    1.39
  -3   4  -8    4.44    0.95
  -2   4  -8  182.72   10.41
  -2   4  -8  187.49    6.23
  -2   4  -8  207.23    4.06
  -1   4  -8    4.84    1.72
  -1   4  -8    3.25    1.52
  -1   4  -8    4.13    1.11
   0   4  -8    8.25    2.12
   0   4  -8    5.74    1.50
   1   4  -8   14.37    2.18
  -4   5  -8   13.71    2.56
  -3   5  -8   12.91    4.43
  -3   5  -8   16.70    4.39
  -2   5  -8   24.90    8.44
  -2   5  -8   34.68    1.90
  -1   5  -8   15.17    2.28
   0   5  -8   61.14    7.06
   0   5  -8   78.84    4.09
   0   0   0    0.00    0.00
;
_shelx_hkl_checksum              79591
loop_
_space_group_symop_operation_xyz
'x, y, z'
'-y, x-y, z'
'-x+y, -x, z'
'-x, -y, z+1/2'
'y, -x+y, z+1/2'
'x-y, x, z+1/2'
'-y, -x, z'
'-x+y, y, z'
'x, x-y, z'
'y, x, z+1/2'
'x-y, -y, z+1/2'
'-x, -x+y, z+1/2'
loop_
_atom_site_label
_atom_site_type_symbol
_atom_site_fract_x
_atom_site_fract_y
_atom_site_fract_z
_atom_site_U_iso_or_equiv
_atom_site_adp_type
_atom_site_occupancy
_atom_site_site_symmetry_order
_atom_site_calc_flag
_atom_site_refinement_flags_posn
_atom_site_refinement_flags_adp
_atom_site_refinement_flags_occupancy
Sr1 Sr 0.86360(15) 0.7272(3) 0.7286(4) 0.0140(6) Uani 0.6667 2 d S T P
K1 K 0.86360(15) 0.7272(3) 0.7286(4) 0.0140(6) Uani 0.3333 2 d S T P
V1 V 0.7724(2) 0.2276(2) 1.1730(5) 0.0081(8) Uani 1 2 d S T P
Ge1 Ge 0.6667 0.3333 0.7645(6) 0.0098(9) Uani 1 6 d S T P
Ge2 Ge 0.51895(11) 0.48105(11) 0.4930(3) 0.0098(6) Uani 1 2 d S T P
O1 O 0.6667 0.3333 1.008(4) 0.006(5) Uani 1 6 d S T P
O2 O 0.8456(10) 0.1544(10) 1.306(2) 0.017(4) Uani 1 2 d S T P
O3 O 0.6110(12) 0.6724(12) 0.503(2) 0.027(3) Uani 1 1 d . . .
O4 O 0.5756(8) 0.4244(8) 0.2964(19) 0.006(3) Uani 1 2 d S TU P
O5 O 0.629(2) 0.471(2) 0.677(3) 0.017(5) Uani 0.5 1 d . U P
Cl1 Cl 1.0000 1.0000 0.4991(16) 0.0166(19) Uani 1 6 d S T P
loop_
_atom_site_aniso_label
_atom_site_aniso_U_11
_atom_site_aniso_U_22
_atom_site_aniso_U_33
_atom_site_aniso_U_23
_atom_site_aniso_U_13
_atom_site_aniso_U_12
Sr1 0.0129(10) 0.0108(12) 0.0175(13) 0.0029(11) 0.0014(6) 0.0054(6)
K1 0.0129(10) 0.0108(12) 0.0175(13) 0.0029(11) 0.0014(6) 0.0054(6)
V1 0.0075(13) 0.0075(13) 0.0088(16) 0.0007(7) -0.0007(7) 0.0034(15)
Ge1 0.0085(12) 0.0085(12) 0.013(2) 0.000 0.000 0.0042(6)
Ge2 0.0110(9) 0.0110(9) 0.0096(10) -0.0011(5) 0.0011(5) 0.0072(9)
O1 0.007(7) 0.007(7) 0.006(11) 0.000 0.000 0.003(4)
O2 0.014(6) 0.014(6) 0.022(8) 0.004(3) -0.004(3) 0.007(7)
O3 0.019(6) 0.015(5) 0.030(5) -0.008(6) 0.010(6) -0.003(5)
O4 0.005(4) 0.005(4) 0.008(6) 0.001(2) -0.001(2) 0.002(4)
O5 0.021(7) 0.014(7) 0.012(7) 0.002(5) -0.001(6) 0.006(5)
Cl1 0.017(3) 0.017(3) 0.016(4) 0.000 0.000 0.0085(14)
loop_
_atom_type_symbol
_atom_type_description
_atom_type_scat_dispersion_real
_atom_type_scat_dispersion_imag
_atom_type_scat_source
O O 0.0106 0.0060 'International Tables Vol C Tables 4.2.6.8 and 6.1.1.4'
K K 0.2009 0.2494 'International Tables Vol C Tables 4.2.6.8 and 6.1.1.4'
Cl Cl 0.1484 0.1585 'International Tables Vol C Tables 4.2.6.8 and 6.1.1.4'
V V 0.3005 0.5294 'International Tables Vol C Tables 4.2.6.8 and 6.1.1.4'
Ge Ge 0.1547 1.8001 'International Tables Vol C Tables 4.2.6.8 and 6.1.1.4'
Sr Sr -1.5307 3.2498 'International Tables Vol C Tables 4.2.6.8 and 6.1.1.4'
loop_
_geom_angle_atom_site_label_1
_geom_angle_atom_site_label_2
_geom_angle_atom_site_label_3
_geom_angle
_geom_angle_site_symmetry_1
_geom_angle_site_symmetry_3
O5 Sr1 O5 50.5(10) 8_655 .
O5 Sr1 O3 61.8(5) 8_655 6_655
O5 Sr1 O3 88.6(6) . 6_655
O5 Sr1 O3 88.6(6) 8_655 10
O5 Sr1 O3 61.8(5) . 10
O3 Sr1 O3 63.6(5) 6_655 10
O5 Sr1 O2 90.1(6) 8_655 4_764
O5 Sr1 O2 139.9(6) . 4_764
O3 Sr1 O2 62.1(4) 6_655 4_764
O3 Sr1 O2 118.3(4) 10 4_764
O5 Sr1 O2 139.9(6) 8_655 6_554
O5 Sr1 O2 90.1(6) . 6_554
O3 Sr1 O2 118.3(4) 6_655 6_554
O3 Sr1 O2 62.1(4) 10 6_554
O2 Sr1 O2 126.9(6) 4_764 6_554
O5 Sr1 O3 96.5(5) 8_655 .
O5 Sr1 O3 54.7(6) . .
O3 Sr1 O3 141.3(4) 6_655 .
O3 Sr1 O3 85.8(3) 10 .
O2 Sr1 O3 155.2(4) 4_764 .
O2 Sr1 O3 57.3(4) 6_554 .
O5 Sr1 O3 54.7(6) 8_655 8_655
O5 Sr1 O3 96.5(5) . 8_655
O3 Sr1 O3 85.8(3) 6_655 8_655
O3 Sr1 O3 141.3(4) 10 8_655
O2 Sr1 O3 57.3(4) 4_764 8_655
O2 Sr1 O3 155.2(4) 6_554 8_655
O3 Sr1 O3 108.1(5) . 8_655
O5 Sr1 Cl1 131.4(5) 8_655 .
O5 Sr1 Cl1 131.4(5) . .
O3 Sr1 Cl1 138.5(3) 6_655 .
O3 Sr1 Cl1 138.5(3) 10 .
O2 Sr1 Cl1 77.7(3) 4_764 .
O2 Sr1 Cl1 77.7(3) 6_554 .
O3 Sr1 Cl1 80.1(3) . .
O3 Sr1 Cl1 80.1(3) 8_655 .
O5 Sr1 O2 76.3(5) 8_655 2_654
O5 Sr1 O2 76.3(5) . 2_654
O3 Sr1 O2 134.8(4) 6_655 2_654
O3 Sr1 O2 134.8(4) 10 2_654
O2 Sr1 O2 104.3(4) 4_764 2_654
O2 Sr1 O2 104.3(4) 6_554 2_654
O3 Sr1 O2 54.8(3) . 2_654
O3 Sr1 O2 54.8(3) 8_655 2_654
Cl1 Sr1 O2 62.2(4) . 2_654
O5 Sr1 Cl1 142.1(5) 8_655 4_775
O5 Sr1 Cl1 142.1(5) . 4_775
O3 Sr1 Cl1 81.1(3) 6_655 4_775
O3 Sr1 Cl1 81.1(3) 10 4_775
O2 Sr1 Cl1 64.0(3) 4_764 4_775
O2 Sr1 Cl1 64.0(3) 6_554 4_775
O3 Sr1 Cl1 118.9(2) . 4_775
O3 Sr1 Cl1 118.9(2) 8_655 4_775
Cl1 Sr1 Cl1 72.29(6) . 4_775
O2 Sr1 Cl1 134.5(4) 2_654 4_775
O5 Sr1 Ge1 28.3(5) 8_655 .
O5 Sr1 Ge1 28.3(5) . .
O3 Sr1 Ge1 63.1(3) 6_655 .
O3 Sr1 Ge1 63.1(3) 10 .
O2 Sr1 Ge1 112.3(3) 4_764 .
O2 Sr1 Ge1 112.3(3) 6_554 .
O3 Sr1 Ge1 82.6(2) . .
O3 Sr1 Ge1 82.6(2) 8_655 .
Cl1 Sr1 Ge1 150.3(2) . .
O2 Sr1 Ge1 88.1(3) 2_654 .
Cl1 Sr1 Ge1 137.4(2) 4_775 .
O2 V1 O3 97.0(6) . 5
O2 V1 O3 97.0(6) . 11_665
O3 V1 O3 90.9(8) 5 11_665
O2 V1 O4 100.3(6) . 3_666
O3 V1 O4 162.7(5) 5 3_666
O3 V1 O4 86.6(5) 11_665 3_666
O2 V1 O4 100.3(6) . 2_656
O3 V1 O4 86.6(5) 5 2_656
O3 V1 O4 162.7(5) 11_665 2_656
O4 V1 O4 90.7(8) 3_666 2_656
O2 V1 O1 175.9(9) . .
O3 V1 O1 85.8(6) 5 .
O3 V1 O1 85.8(6) 11_665 .
O4 V1 O1 76.9(6) 3_666 .
O4 V1 O1 76.9(6) 2_656 .
O2 V1 Sr1 98.8(6) . 3_665
O3 V1 Sr1 45.5(4) 5 3_665
O3 V1 Sr1 45.5(4) 11_665 3_665
O4 V1 Sr1 130.1(4) 3_666 3_665
O4 V1 Sr1 130.1(4) 2_656 3_665
O1 V1 Sr1 85.3(6) . 3_665
O2 V1 K1 98.8(6) . 3_665
O3 V1 K1 45.5(4) 5 3_665
O3 V1 K1 45.5(4) 11_665 3_665
O4 V1 K1 130.1(4) 3_666 3_665
O4 V1 K1 130.1(4) 2_656 3_665
O1 V1 K1 85.3(6) . 3_665
Sr1 V1 K1 0.00(4) 3_665 3_665
O2 V1 Sr1 44.6(3) . 4_765
O3 V1 Sr1 104.3(3) 5 4_765
O3 V1 Sr1 53.4(4) 11_665 4_765
O4 V1 Sr1 87.9(4) 3_666 4_765
O4 V1 Sr1 143.7(4) 2_656 4_765
O1 V1 Sr1 137.5(3) . 4_765
Sr1 V1 Sr1 74.58(8) 3_665 4_765
K1 V1 Sr1 74.6 3_665 4_765
O2 V1 K1 44.6(3) . 4_765
O3 V1 K1 104.3(3) 5 4_765
O3 V1 K1 53.4(4) 11_665 4_765
O4 V1 K1 87.9(4) 3_666 4_765
O4 V1 K1 143.7(4) 2_656 4_765
O1 V1 K1 137.5(3) . 4_765
Sr1 V1 K1 74.58(8) 3_665 4_765
K1 V1 K1 74.58(8) 3_665 4_765
Sr1 V1 K1 0.00(9) 4_765 4_765
O2 V1 K1 44.6(3) . 5
O3 V1 K1 53.4(4) 5 5
O3 V1 K1 104.3(3) 11_665 5
O4 V1 K1 143.7(4) 3_666 5
O4 V1 K1 87.9(4) 2_656 5
O1 V1 K1 137.5(3) . 5
Sr1 V1 K1 74.58(8) 3_665 5
K1 V1 K1 74.58(8) 3_665 5
Sr1 V1 K1 72.56(11) 4_765 5
K1 V1 K1 72.56(11) 4_765 5
O2 V1 Sr1 44.6(3) . 5
O3 V1 Sr1 53.4(4) 5 5
O3 V1 Sr1 104.3(3) 11_665 5
O4 V1 Sr1 143.7(4) 3_666 5
O4 V1 Sr1 87.9(4) 2_656 5
O1 V1 Sr1 137.5(3) . 5
Sr1 V1 Sr1 74.58(8) 3_665 5
K1 V1 Sr1 74.6 3_665 5
Sr1 V1 Sr1 72.56(11) 4_765 5
K1 V1 Sr1 72.6 4_765 5
K1 V1 Sr1 0.0 5 5
O1 Ge1 O5 110.7(7) . 9
O1 Ge1 O5 110.7(7) . 3_665
O5 Ge1 O5 77.0(14) 9 3_665
O1 Ge1 O5 110.7(7) . 2_655
O5 Ge1 O5 34.1(14) 9 2_655
O5 Ge1 O5 108.2(7) 3_665 2_655
O1 Ge1 O5 110.7(7) . 8_655
O5 Ge1 O5 108.2(7) 9 8_655
O5 Ge1 O5 34.1(14) 3_665 8_655
O5 Ge1 O5 132.6(14) 2_655 8_655
O1 Ge1 O5 110.7(7) . 7_665
O5 Ge1 O5 108.2(7) 9 7_665
O5 Ge1 O5 132.6(14) 3_665 7_665
O5 Ge1 O5 77.0(14) 2_655 7_665
O5 Ge1 O5 108.2(7) 8_655 7_665
O1 Ge1 O5 110.7(7) . .
O5 Ge1 O5 132.6(14) 9 .
O5 Ge1 O5 108.2(7) 3_665 .
O5 Ge1 O5 108.2(7) 2_655 .
O5 Ge1 O5 77.0(14) 8_655 .
O5 Ge1 O5 34.1(14) 7_665 .
O1 Ge1 Sr1 94.16(8) . 3_665
O5 Ge1 Sr1 43.8(7) 9 3_665
O5 Ge1 Sr1 43.8(7) 3_665 3_665
O5 Ge1 Sr1 77.6(7) 2_655 3_665
O5 Ge1 Sr1 77.6(7) 8_655 3_665
O5 Ge1 Sr1 149.3(7) 7_665 3_665
O5 Ge1 Sr1 149.3(7) . 3_665
O1 Ge1 K1 94.16(8) . 3_665
O5 Ge1 K1 43.8(7) 9 3_665
O5 Ge1 K1 43.8(7) 3_665 3_665
O5 Ge1 K1 77.6(7) 2_655 3_665
O5 Ge1 K1 77.6(7) 8_655 3_665
O5 Ge1 K1 149.3(7) 7_665 3_665
O5 Ge1 K1 149.3(7) . 3_665
Sr1 Ge1 K1 0.00(3) 3_665 3_665
O1 Ge1 Sr1 94.16(8) . .
O5 Ge1 Sr1 149.3(7) 9 .
O5 Ge1 Sr1 77.6(7) 3_665 .
O5 Ge1 Sr1 149.3(7) 2_655 .
O5 Ge1 Sr1 43.8(7) 8_655 .
O5 Ge1 Sr1 77.6(7) 7_665 .
O5 Ge1 Sr1 43.8(7) . .
Sr1 Ge1 Sr1 119.48(2) 3_665 .
K1 Ge1 Sr1 119.5 3_665 .
O1 Ge1 K1 94.16(8) . 2_655
O5 Ge1 K1 77.6(7) 9 2_655
O5 Ge1 K1 149.3(7) 3_665 2_655
O5 Ge1 K1 43.8(7) 2_655 2_655
O5 Ge1 K1 149.3(7) 8_655 2_655
O5 Ge1 K1 43.8(7) 7_665 2_655
O5 Ge1 K1 77.6(7) . 2_655
Sr1 Ge1 K1 119.48(2) 3_665 2_655
K1 Ge1 K1 119.48(2) 3_665 2_655
Sr1 Ge1 K1 119.5 . 2_655
O3 Ge2 O3 117.3(8) . 7_665
O3 Ge2 O4 109.7(5) . .
O3 Ge2 O4 109.7(5) 7_665 .
O3 Ge2 O5 92.1(9) . .
O3 Ge2 O5 122.2(8) 7_665 .
O4 Ge2 O5 104.2(8) . .
O3 Ge2 O5 122.2(8) . 7_665
O3 Ge2 O5 92.1(9) 7_665 7_665
O4 Ge2 O5 104.2(8) . 7_665
O5 Ge2 O5 33.8(14) . 7_665
O3 Ge2 K1 146.4(5) . 2_655
O3 Ge2 K1 51.9(4) 7_665 2_655
O4 Ge2 K1 103.7(2) . 2_655
O5 Ge2 K1 75.6(7) . 2_655
O5 Ge2 K1 42.1(7) 7_665 2_655
O3 Ge2 Sr1 146.4(5) . 2_655
O3 Ge2 Sr1 51.9(4) 7_665 2_655
O4 Ge2 Sr1 103.7(2) . 2_655
O5 Ge2 Sr1 75.6(7) . 2_655
O5 Ge2 Sr1 42.1(7) 7_665 2_655
K1 Ge2 Sr1 0.0 2_655 2_655
O3 Ge2 Sr1 51.9(4) . .
O3 Ge2 Sr1 146.4(5) 7_665 .
O4 Ge2 Sr1 103.7(2) . .
O5 Ge2 Sr1 42.1(7) . .
O5 Ge2 Sr1 75.6(7) 7_665 .
K1 Ge2 Sr1 116.2 2_655 .
Sr1 Ge2 Sr1 116.17(10) 2_655 .
O3 Ge2 K1 118.6(4) . 4_664
O3 Ge2 K1 31.5(5) 7_665 4_664
O4 Ge2 K1 80.9(3) . 4_664
O5 Ge2 K1 145.6(7) . 4_664
O5 Ge2 K1 111.9(7) 7_665 4_664
K1 Ge2 K1 70.24(6) 2_655 4_664
Sr1 Ge2 K1 70.24(6) 2_655 4_664
Sr1 Ge2 K1 170.3 . 4_664
O3 Ge2 K1 31.5(5) . 5_564
O3 Ge2 K1 118.6(4) 7_665 5_564
O4 Ge2 K1 80.9(3) . 5_564
O5 Ge2 K1 111.9(7) . 5_564
O5 Ge2 K1 145.6(7) 7_665 5_564
K1 Ge2 K1 170.32(5) 2_655 5_564
Sr1 Ge2 K1 170.32(5) 2_655 5_564
Sr1 Ge2 K1 70.2 . 5_564
K1 Ge2 K1 102.48(9) 4_664 5_564
Ge1 O1 V1 121.9(6) . 2_655
Ge1 O1 V1 121.9(6) . 3_665
V1 O1 V1 94.7(8) 2_655 3_665
Ge1 O1 V1 121.9(6) . .
V1 O1 V1 94.7(8) 2_655 .
V1 O1 V1 94.7(8) 3_665 .
V1 O2 K1 110.2(5) . 5
V1 O2 Sr1 110.2(5) . 5
K1 O2 Sr1 0.0 5 5
V1 O2 K1 110.2(5) . 4_765
K1 O2 K1 104.4(6) 5 4_765
Sr1 O2 K1 104.4(6) 5 4_765
V1 O2 Sr1 110.2(5) . 4_765
K1 O2 Sr1 104.4 5 4_765
Sr1 O2 Sr1 104.4(6) 5 4_765
K1 O2 Sr1 0.0 4_765 4_765
V1 O2 Sr1 132.0(9) . 3_666
K1 O2 Sr1 98.3 5 3_666
Sr1 O2 Sr1 98.3(4) 5 3_666
K1 O2 Sr1 98.3 4_765 3_666
Sr1 O2 Sr1 98.3(4) 4_765 3_666
V1 O2 K1 132.0(9) . 3_666
K1 O2 K1 98.3(4) 5 3_666
Sr1 O2 K1 98.3(4) 5 3_666
K1 O2 K1 98.3(4) 4_765 3_666
Sr1 O2 K1 98.3(4) 4_765 3_666
Sr1 O2 K1 0.0 3_666 3_666
Ge2 O3 V1 120.2(7) . 6_554
Ge2 O3 K1 128.5(7) . 5_564
V1 O3 K1 102.7(5) 6_554 5_564
Ge2 O3 Sr1 128.5(7) . 5_564
V1 O3 Sr1 102.7(5) 6_554 5_564
K1 O3 Sr1 0.0 5_564 5_564
Ge2 O3 Sr1 100.1(6) . .
V1 O3 Sr1 94.0(5) 6_554 .
K1 O3 Sr1 104.1 5_564 .
Sr1 O3 Sr1 104.1(4) 5_564 .
Ge2 O4 V1 124.2(3) . 3_664
Ge2 O4 V1 124.2(3) . 2_654
V1 O4 V1 111.5(7) 3_664 2_654
O5 O5 Ge1 72.9(7) 7_665 .
O5 O5 Ge2 73.1(7) 7_665 .
Ge1 O5 Ge2 135.7(13) . .
O5 O5 Sr1 170.7(5) 7_665 .
Ge1 O5 Sr1 107.9(10) . .
Ge2 O5 Sr1 110.2(10) . .
K1 Cl1 Sr1 0.0 2_765 2_765
K1 Cl1 Sr1 91.9 2_765 .
Sr1 Cl1 Sr1 91.9(3) 2_765 .
K1 Cl1 K1 91.9(3) 2_765 3_675
Sr1 Cl1 K1 91.9(3) 2_765 3_675
Sr1 Cl1 K1 91.9 . 3_675
K1 Cl1 Sr1 91.9 2_765 3_675
Sr1 Cl1 Sr1 91.9(3) 2_765 3_675
Sr1 Cl1 Sr1 91.9(3) . 3_675
K1 Cl1 Sr1 0.0 3_675 3_675
K1 Cl1 K1 175.5(4) 2_765 5_564
Sr1 Cl1 K1 175.5(4) 2_765 5_564
Sr1 Cl1 K1 91.2 . 5_564
K1 Cl1 K1 91.21(5) 3_675 5_564
Sr1 Cl1 K1 91.21(5) 3_675 5_564
K1 Cl1 Sr1 175.5 2_765 5_564
Sr1 Cl1 Sr1 175.5(4) 2_765 5_564
Sr1 Cl1 Sr1 91.21(5) . 5_564
K1 Cl1 Sr1 91.2 3_675 5_564
Sr1 Cl1 Sr1 91.21(5) 3_675 5_564
K1 Cl1 Sr1 0.0 5_564 5_564
K1 Cl1 K1 91.21(5) 2_765 4_774
Sr1 Cl1 K1 91.21(5) 2_765 4_774
Sr1 Cl1 K1 175.5 . 4_774
K1 Cl1 K1 91.21(5) 3_675 4_774
Sr1 Cl1 K1 91.21(5) 3_675 4_774
K1 Cl1 K1 85.5(3) 5_564 4_774
Sr1 Cl1 K1 85.5(3) 5_564 4_774
K1 Cl1 Sr1 91.2 2_765 4_774
Sr1 Cl1 Sr1 91.21(5) 2_765 4_774
Sr1 Cl1 Sr1 175.5(4) . 4_774
K1 Cl1 Sr1 91.2 3_675 4_774
Sr1 Cl1 Sr1 91.21(5) 3_675 4_774
K1 Cl1 Sr1 85.5 5_564 4_774
Sr1 Cl1 Sr1 85.5(3) 5_564 4_774
K1 Cl1 Sr1 0.0 4_774 4_774
K1 Cl1 K1 91.21(5) 2_765 6_654
Sr1 Cl1 K1 91.21(5) 2_765 6_654
Sr1 Cl1 K1 91.2 . 6_654
K1 Cl1 K1 175.5(4) 3_675 6_654
Sr1 Cl1 K1 175.5(4) 3_675 6_654
K1 Cl1 K1 85.5(3) 5_564 6_654
Sr1 Cl1 K1 85.5(3) 5_564 6_654
K1 Cl1 K1 85.5(3) 4_774 6_654
Sr1 Cl1 K1 85.5(3) 4_774 6_654
K1 Cl1 Sr1 91.2 2_765 6_654
Sr1 Cl1 Sr1 91.21(5) 2_765 6_654
Sr1 Cl1 Sr1 91.21(5) . 6_654
K1 Cl1 Sr1 175.5 3_675 6_654
Sr1 Cl1 Sr1 175.5(4) 3_675 6_654
K1 Cl1 Sr1 85.5 5_564 6_654
Sr1 Cl1 Sr1 85.5(3) 5_564 6_654
K1 Cl1 Sr1 85.5 4_774 6_654
Sr1 Cl1 Sr1 85.5(3) 4_774 6_654
K1 Cl1 Sr1 0.0 6_654 6_654
loop_
_geom_bond_atom_site_label_1
_geom_bond_atom_site_label_2
_geom_bond_distance
_geom_bond_site_symmetry_2
Sr1 O5 2.60(2) 8_655
Sr1 O5 2.60(2) .
Sr1 O3 2.645(14) 6_655
Sr1 O3 2.645(14) 10
Sr1 O2 2.710(11) 4_764
Sr1 O2 2.710(11) 6_554
Sr1 O3 2.912(13) .
Sr1 O3 2.912(13) 8_655
Sr1 Cl1 2.980(7) .
Sr1 O2 3.079(16) 2_654
Sr1 Cl1 3.155(8) 4_775
Sr1 Ge1 3.580(3) .
V1 O2 1.639(17) .
V1 O3 1.955(13) 5
V1 O3 1.955(13) 11_665
V1 O4 2.009(8) 3_666
V1 O4 2.009(8) 2_656
V1 O1 2.258(15) .
V1 Sr1 3.619(5) 3_665
V1 K1 3.619(5) 3_665
V1 Sr1 3.619(3) 4_765
V1 K1 3.619(3) 4_765
V1 K1 3.619(3) 5
V1 Sr1 3.619(3) 5
Ge1 O1 1.77(3) .
Ge1 O5 1.78(2) 9
Ge1 O5 1.78(2) 3_665
Ge1 O5 1.78(2) 2_655
Ge1 O5 1.78(2) 8_655
Ge1 O5 1.78(2) 7_665
Ge1 O5 1.78(2) .
Ge1 Sr1 3.580(3) 3_665
Ge1 K1 3.580(3) 3_665
Ge1 K1 3.580(3) 2_655
Ge2 O3 1.736(11) .
Ge2 O3 1.736(11) 7_665
Ge2 O4 1.756(15) .
Ge2 O5 1.80(2) .
Ge2 O5 1.80(2) 7_665
Ge2 K1 3.643(2) 2_655
Ge2 Sr1 3.643(2) 2_655
Ge2 K1 3.966(2) 4_664
Ge2 K1 3.966(2) 5_564
O1 V1 2.258(15) 2_655
O1 V1 2.258(15) 3_665
O2 K1 2.710(11) 5
O2 Sr1 2.710(11) 5
O2 K1 2.710(11) 4_765
O2 Sr1 2.710(11) 4_765
O2 Sr1 3.079(16) 3_666
O2 K1 3.079(16) 3_666
O3 V1 1.955(13) 6_554
O3 K1 2.645(14) 5_564
O3 Sr1 2.645(14) 5_564
O4 V1 2.009(8) 3_664
O4 V1 2.009(8) 2_654
O5 O5 1.05(4) 7_665
Cl1 K1 2.980(7) 2_765
Cl1 Sr1 2.980(7) 2_765
Cl1 K1 2.980(7) 3_675
Cl1 Sr1 2.980(7) 3_675
Cl1 K1 3.155(8) 5_564
Cl1 Sr1 3.155(8) 5_564
Cl1 K1 3.155(8) 4_774
Cl1 Sr1 3.155(8) 4_774
Cl1 K1 3.155(8) 6_654
Cl1 Sr1 3.155(8) 6_654
