#------------------------------------------------------------------------------
#$Date: 2016-03-21 01:21:50 +0200 (Mon, 21 Mar 2016) $
#$Revision: 178377 $
#$URL: svn://www.crystallography.net/cod/cif/4/00/21/4002119.cif $
#------------------------------------------------------------------------------
#
# This file is available in the Crystallography Open Database (COD),
# http://www.crystallography.net/
#
# All data on this site have been placed in the public domain by the
# contributors.
#
data_4002119
loop_
_publ_author_name
'Nanthamathee, Chompoonoot'
'Ling, Sanliang'
'Slater, Ben'
'Attfield, Martin P.'
_publ_section_title
;
 Contradistinct Thermoresponsive Behavior of Isostructural MIL-53 Type
 Metal--Organic Frameworks by Modifying the Framework Inorganic Anion
;
_journal_name_full               'Chemistry of Materials'
_journal_page_first              141223143002002
_journal_paper_doi               10.1021/cm503311x
_journal_year                    2014
_chemical_formula_sum            'C8 Al O5'
_chemical_formula_weight         203.07
_chemical_name_systematic        ' ?'
_space_group_IT_number           74
_symmetry_cell_setting           orthorhombic
_symmetry_space_group_name_Hall  '-I 2b 2'
_symmetry_space_group_name_H-M   'I m m a'
_audit_creation_date             2014-08-28T12:13
_audit_creation_method           'from EXP file using GSAS2CIF'
_audit_update_record
' 2014-08-28T12:13  Initial CIF as created by GSAS2CIF'
_cell_angle_alpha                90.0
_cell_angle_beta                 90.0
_cell_angle_gamma                90.0
_cell_formula_units_Z            4
_cell_length_a                   6.63033(6)
_cell_length_b                   16.79018(17)
_cell_length_c                   12.75375(24)
_cell_volume                     1419.80(3)
_computing_structure_refinement  GSAS
_diffrn_radiation_polarisn_ratio 0.95
_diffrn_radiation_probe          x-ray
_diffrn_radiation_wavelength     0.825993
_exptl_absorpt_correction_T_max  1.00000
_exptl_absorpt_correction_T_min  1.00000
_exptl_absorpt_process_details
;   GSAS Absorption/surface roughness correction: function number 0
 No correction is applied.
;
_pd_block_id                     2014-08-28T12:13|175K|300k|i11
_pd_calc_method                  'Rietveld Refinement'
_pd_instr_location               ' ?'
_pd_meas_2theta_range_inc        0.003
_pd_meas_2theta_range_max        149.9955
_pd_meas_2theta_range_min        0.0015
_pd_meas_number_of_points        49999
_pd_phase_name                   300K
_pd_proc_2theta_range_inc        0.003
_pd_proc_2theta_range_max        150.00505
_pd_proc_2theta_range_min        0.011055
_pd_proc_info_datetime           2014-08-28T12:13:47
_pd_proc_info_excluded_regions   ' ?'
_pd_proc_ls_background_function
;   GSAS Background function number 1 with  2 terms.
 Shifted Chebyshev function of 1st kind
      1:    0.00000     2:    0.00000    
;
_pd_proc_ls_peak_cutoff          0.00100
_pd_proc_ls_profile_function
;
 CW Profile function number 4 with  18 terms
 Pseudovoigt profile coefficients as parameterized in
 P. Thompson, D.E. Cox & J.B. Hastings (1987). J. Appl. Cryst.,20,79-83.
 Asymmetry correction of L.W. Finger, D.E. Cox & A. P. Jephcoat (1994).
 J. Appl. Cryst.,27,892-900.
 Microstrain broadening by P.W. Stephens,  (1999). J. Appl. Cryst.,32,281-289.
 Peak tails are ignored  where the intensity is below 0.0010 times the peak
   Aniso. broadening axis   1.0   0.0   1.0
;
_pd_proc_ls_prof_R_factor        0.0341
_pd_proc_ls_prof_wR_expected     0.0223
_pd_proc_ls_prof_wR_factor       0.0450
_pd_proc_number_of_points        49999
_pd_spec_mounting                ' ?'
_refine_ls_goodness_of_fit_all   2.01
_refine_ls_matrix_type           full
_refine_ls_number_parameters     28
_refine_ls_number_restraints     0
_refine_ls_R_Fsqd_factor         0.22006
_refine_ls_shift/su_max          0.05
_refine_ls_shift/su_mean         0.01
_reflns_d_resolution_high        1.211
_reflns_d_resolution_low         8.395
_reflns_limit_h_max              5
_reflns_limit_h_min              0
_reflns_limit_k_max              13
_reflns_limit_k_min              0
_reflns_limit_l_max              10
_reflns_limit_l_min              0
_reflns_number_total             251
_cod_data_source_file            aloh175K.cif
_cod_data_source_block           175K_publ
_cod_depositor_comments
;
The following automatic conversions were performed:

'_geom_bond_publ_flag' value 'N' changed to 'n' according to
/home/saulius/struct/COD-crude-data--automatic-downloads/rss-feeds/ACS/lib/dictionaries/cif_core.dic
dictionary named 'cif_core.dic' version 2.4.2 from 2011-04-26 (18
times).

'_geom_angle_publ_flag' value 'N' changed to 'n' according
to
/home/saulius/struct/COD-crude-data--automatic-downloads/rss-feeds/ACS/lib/dictionaries/cif_core.dic
dictionary named 'cif_core.dic' version 2.4.2 from 2011-04-26 (24
times).

Automatic conversion script
Id: cif_fix_values 2935 2014-11-11 08:27:57Z andrius 
;
_cod_original_cell_volume        1419.804(33)
_cod_database_code               4002119
#BEGIN Tags that were not found in dictionaries:
_gsas_exptl_extinct_corr_t_min   1.00000
_gsas_exptl_extinct_corr_t_max   1.00000
#END Tags that were not found in dictionaries
loop_
_symmetry_equiv_pos_site_id
_symmetry_equiv_pos_as_xyz
1 +x,+y,+z
2 -x,+y,+z
3 +x,-y+1/2,+z
4 -x,-y+1/2,+z
-1 -x,-y,-z
-2 +x,-y,-z
-3 -x,+y+1/2,-z
-4 +x,+y+1/2,-z
101 +x+1/2,+y+1/2,+z+1/2
102 -x+1/2,+y+1/2,+z+1/2
103 +x+1/2,-y,+z+1/2
104 -x+1/2,-y,+z+1/2
-101 -x+1/2,-y+1/2,-z+1/2
-102 +x+1/2,-y+1/2,-z+1/2
-103 -x+1/2,+y,-z+1/2
-104 +x+1/2,+y,-z+1/2
loop_
_atom_site_type_symbol
_atom_site_label
_atom_site_fract_x
_atom_site_fract_y
_atom_site_fract_z
_atom_site_occupancy
_atom_site_thermal_displace_type
_atom_site_U_iso_or_equiv
_atom_site_symmetry_multiplicity
Al Al1 0.25 0.25 0.75 1.0 Uiso 0.0252(11) 4
O O2 0.0 0.25 0.6846(4) 1.0 Uiso 0.0169(8) 4
O O1 0.16756(31) 0.16808(13) 0.84351(21) 1.0 Uiso 0.0169(8) 16
C C3 -0.1922(4) 0.03565(27) 0.9696(4) 1.0 Uiso 0.0307(13) 16
C C2 0.0 0.06265(35) 0.9450(5) 1.0 Uiso 0.0307(13) 8
C C1 0.0 0.13756(34) 0.8711(6) 1.0 Uiso 0.0307(13) 8
loop_
_atom_type_symbol
_atom_type_number_in_cell
_atom_type_scat_dispersion_real
_atom_type_scat_dispersion_imag
_atom_type_scat_Cromer_Mann_a1
_atom_type_scat_Cromer_Mann_a2
_atom_type_scat_Cromer_Mann_a3
_atom_type_scat_Cromer_Mann_a4
_atom_type_scat_Cromer_Mann_b1
_atom_type_scat_Cromer_Mann_b2
_atom_type_scat_Cromer_Mann_b3
_atom_type_scat_Cromer_Mann_b4
_atom_type_scat_Cromer_Mann_c
_atom_type_scat_source
Al 4.0 0.000 0.000 6.42020 3.03870 1.90020 0.74260 1.59360 31.5472 1.96460
85.0886 1.11510 International_Tables_Vol_C
O 20.0 0.000 0.000 3.04850 13.2771 2.28680 5.70110 1.54630 0.32390 0.86700
32.9089 0.25080 International_Tables_Vol_C
C 32.0 0.000 0.000 2.31000 20.8439 1.02000 10.2075 1.58860 0.56870 0.86500
51.6512 0.21560 International_Tables_Vol_C
loop_
_geom_angle_atom_site_label_1
_geom_angle_atom_site_label_2
_geom_angle_atom_site_label_3
_geom_angle
_geom_angle_site_symmetry_1
_geom_angle_site_symmetry_3
_geom_angle_publ_flag
O2 Al1 O2 180.0 1_555 -101_546 n
O2 Al1 O1 91.43(12) 1_555 1_555 n
O2 Al1 O1 91.43(12) 1_555 3_555 n
O2 Al1 O1 88.57(12) 1_555 -101_566 n
O2 Al1 O1 88.57(12) 1_555 -103_566 n
O2 Al1 O1 88.57(12) -101_566 1_555 n
O2 Al1 O1 88.57(12) -101_566 3_555 n
O2 Al1 O1 91.43(12) -101_566 -101_566 n
O2 Al1 O1 91.43(12) -101_566 -103_566 n
O1 Al1 O1 92.71(16) 1_555 3_555 n
O1 Al1 O1 180.0 1_555 -101_566 n
O1 Al1 O1 87.29(16) 1_555 -103_566 n
O1 Al1 O1 87.29(16) 3_555 -101_566 n
O1 Al1 O1 180.0 3_555 -103_566 n
O1 Al1 O1 92.71(16) -101_566 -103_566 n
Al1 O2 Al1 126.60(29) 1_555 2_555 n
Al1 O1 C1 135.69(33) 1_555 1_555 n
C3 C3 C2 113.36(32) -2_557 1_555 n
C3 C2 C3 133.3(6) 1_555 2_555 n
C3 C2 C1 113.36(32) 1_555 1_555 n
C3 C2 C1 113.36(32) 2_555 1_555 n
O1 C1 O1 121.6(6) 1_555 2_555 n
O1 C1 C2 119.20(28) 1_555 1_555 n
O1 C1 C2 119.20(28) 2_555 1_555 n
loop_
_geom_bond_atom_site_label_1
_geom_bond_atom_site_label_2
_geom_bond_distance
_geom_bond_site_symmetry_2
_geom_bond_publ_flag
Al1 O2 1.8554(24) 1_555 n
Al1 O2 1.8554(24) -101_445 n
Al1 O1 1.9007(19) 1_555 n
Al1 O1 1.9007(19) 3_555 n
Al1 O1 1.9007(19) -101_445 n
Al1 O1 1.9007(19) -103_445 n
O2 Al1 1.8554(24) 1_555 n
O2 Al1 1.8554(24) 2_555 n
O1 Al1 1.9007(19) 1_555 n
O1 C1 1.2730(30) 1_555 n
C3 C3 1.427(7) -2_557 n
C3 C2 1.3886(30) 1_555 n
C2 C3 1.3886(30) 1_555 n
C2 C3 1.3886(30) 2_555 n
C2 C1 1.572(6) 1_555 n
C1 O1 1.2730(30) 1_555 n
C1 O1 1.2730(30) 2_555 n
C1 C2 1.572(6) 1_555 n
loop_
_pd_meas_intensity_total
_pd_proc_ls_weight
_pd_proc_intensity_bkg_calc
_pd_calc_intensity_total
17.2(23) 0.0 0.00 .
16.3(21) 0.0 0.00 .
18.7(22) 0.0 0.00 .
27.8(27) 0.0 0.00 .
43(4) 0.0 0.0 .
124(6) 0.0 0.0 .
134(7) 0.0 0.0 .
743(14) 0.0 0.0 .
1328(19) 0.0 0.0 .
2623(28) 0.0 0.0 .
2957(29) 0.0 0.0 .
2996(28) 0.0 0.0 .
2932(29) 0.0 0.0 .
1011(18) 0.0 0.0 .
99(5) 0.0 0.0 .
57(4) 0.0 0.0 .
48(4) 0.0 0.0 .
50(4) 0.0 0.0 .
37.9(35) 0.0 0.00 .
64(4) 0.0 0.0 .
220(8) 0.0 0.0 .
332(10) 0.0 0.0 .
712(14) 0.0 0.0 .
966(17) 0.0 0.0 .
980(17) 0.0 0.0 .
1209(18) 0.0 0.0 .
1312(19) 0.0 0.0 .
1479(20) 0.0 0.0 .
1714(23) 0.0 0.0 .
1776(23) 0.0 0.0 .
1964(23) 0.0 0.0 .
2044(23) 0.0 0.0 .
1833(23) 0.0 0.0 .
1561(22) 0.0 0.0 .
1186(18) 0.0 0.0 .
663(13) 0.0 0.0 .
378(10) 0.0 0.0 .
230(8) 0.0 0.0 .
133(6) 0.0 0.0 .
83(5) 0.0 0.0 .
37.0(32) 0.0 0.00 .
33.2(30) 0.0 0.00 .
30.7(29) 0.0 0.00 .
35.1(31) 0.0 0.00 .
24.4(26) 0.0 0.00 .
31.4(29) 0.0 0.00 .
28.7(28) 0.0 0.00 .
29.4(29) 0.0 0.00 .
29.4(30) 0.0 0.00 .
30.3(29) 0.0 0.00 .
38.7(33) 0.0 0.00 .
34.3(32) 0.0 0.00 .
24.8(28) 0.0 0.00 .
32.9(32) 0.0 0.00 .
32.6(30) 0.0 0.00 .
32.2(30) 0.0 0.00 .
35.5(32) 0.0 0.00 .
32.8(32) 0.0 0.00 .
32.1(32) 0.0 0.00 .
28.3(29) 0.0 0.00 .
34.0(30) 0.0 0.00 .
32.6(30) 0.0 0.00 .
31.2(33) 0.0 0.00 .
25.8(28) 0.0 0.00 .
38.2(33) 0.0 0.00 .
32.9(29) 0.0 0.00 .
30.5(32) 0.0 0.00 .
33.1(34) 0.0 0.00 .
31.3(31) 0.0 0.00 .
26.0(26) 0.0 0.00 .
34.6(31) 0.0 0.00 .
31.7(30) 0.0 0.00 .
42(4) 0.0 0.0 .
33.8(30) 0.0 0.00 .
38.9(33) 0.0 0.00 .
31.3(29) 0.0 0.00 .
34.0(33) 0.0 0.00 .
42(4) 0.0 0.0 .
35.0(31) 0.0 0.00 .
33.3(30) 0.0 0.00 .
37.3(32) 0.0 0.00 .
43(4) 0.0 0.0 .
44(4) 0.0 0.0 .
30.9(31) 0.0 0.00 .
32.1(30) 0.0 0.00 .
34.0(31) 0.0 0.00 .
32.0(30) 0.0 0.00 .
37(4) 0.0 0.0 .
34.8(32) 0.0 0.00 .
36.9(32) 0.0 0.00 .
34.6(32) 0.0 0.00 .
39.0(34) 0.0 0.00 .
39(4) 0.0 0.0 .
47(4) 0.0 0.0 .
56(4) 0.0 0.0 .
61(4) 0.0 0.0 .
52(4) 0.0 0.0 .
71(5) 0.0 0.0 .
78(5) 0.0 0.0 .
80(5) 0.0 0.0 .
101(5) 0.0 0.0 .
109(6) 0.0 0.0 .
123(6) 0.0 0.0 .
121(6) 0.0 0.0 .
127(6) 0.0 0.0 .
154(7) 0.0 0.0 .
155(7) 0.0 0.0 .
162(7) 0.0 0.0 .
150(6) 0.0 0.0 .
165(7) 0.0 0.0 .
190(7) 0.0 0.0 .
191(7) 0.0 0.0 .
201(8) 0.0 0.0 .
229(8) 0.0 0.0 .
209(7) 0.0 0.0 .
236(8) 0.0 0.0 .
235(8) 0.0 0.0 .
247(8) 0.0 0.0 .
288(9) 0.0 0.0 .
290(9) 0.0 0.0 .
268(9) 0.0 0.0 .
281(9) 0.0 0.0 .
306(9) 0.0 0.0 .
287(9) 0.0 0.0 .
311(9) 0.0 0.0 .
316(10) 0.0 0.0 .
317(10) 0.0 0.0 .
339(10) 0.0 0.0 .
356(10) 0.0 0.0 .
364(10) 0.0 0.0 .
374(10) 0.0 0.0 .
364(10) 0.0 0.0 .
376(11) 0.0 0.0 .
381(10) 0.0 0.0 .
390(10) 0.0 0.0 .
405(11) 0.0 0.0 .
387(11) 0.0 0.0 .
435(11) 0.0 0.0 .
438(11) 0.0 0.0 .
443(11) 0.0 0.0 .
475(12) 0.0 0.0 .
474(12) 0.0 0.0 .
463(12) 0.0 0.0 .
485(11) 0.0 0.0 .
482(11) 0.0 0.0 .
496(12) 0.0 0.0 .
492(12) 0.0 0.0 .
464(11) 0.0 0.0 .
475(11) 0.0 0.0 .
508(12) 0.0 0.0 .
502(12) 0.0 0.0 .
504(12) 0.0 0.0 .
504(12) 0.0 0.0 .
488(11) 0.0 0.0 .
530(12) 0.0 0.0 .
531(12) 0.0 0.0 .
538(13) 0.0 0.0 .
555(13) 0.0 0.0 .
548(12) 0.0 0.0 .
568(13) 0.0 0.0 .
525(12) 0.0 0.0 .
546(13) 0.0 0.0 .
509(12) 0.0 0.0 .
548(12) 0.0 0.0 .
555(12) 0.0 0.0 .
541(12) 0.0 0.0 .
557(13) 0.0 0.0 .
582(13) 0.0 0.0 .
575(12) 0.0 0.0 .
579(13) 0.0 0.0 .
607(13) 0.0 0.0 .
594(13) 0.0 0.0 .
587(13) 0.0 0.0 .
594(13) 0.0 0.0 .
618(13) 0.0 0.0 .
612(13) 0.0 0.0 .
611(13) 0.0 0.0 .
608(13) 0.0 0.0 .
610(13) 0.0 0.0 .
603(13) 0.0 0.0 .
642(14) 0.0 0.0 .
633(13) 0.0 0.0 .
648(13) 0.0 0.0 .
634(13) 0.0 0.0 .
650(14) 0.0 0.0 .
629(14) 0.0 0.0 .
656(14) 0.0 0.0 .
663(13) 0.0 0.0 .
646(13) 0.0 0.0 .
638(13) 0.0 0.0 .
655(14) 0.0 0.0 .
638(14) 0.0 0.0 .
651(13) 0.0 0.0 .
690(14) 0.0 0.0 .
636(13) 0.0 0.0 .
657(14) 0.0 0.0 .
638(13) 0.0 0.0 .
655(13) 0.0 0.0 .
674(14) 0.0 0.0 .
657(14) 0.0 0.0 .
663(14) 0.0 0.0 .
681(14) 0.0 0.0 .
726(14) 0.0 0.0 .
705(14) 0.0 0.0 .
663(14) 0.0 0.0 .
677(14) 0.0 0.0 .
694(14) 0.0 0.0 .
698(14) 0.0 0.0 .
688(14) 0.0 0.0 .
733(15) 0.0 0.0 .
707(14) 0.0 0.0 .
721(14) 0.0 0.0 .
734(14) 0.0 0.0 .
763(15) 0.0 0.0 .
718(14) 0.0 0.0 .
747(15) 0.0 0.0 .
728(14) 0.0 0.0 .
787(15) 0.0 0.0 .
775(15) 0.0 0.0 .
754(15) 0.0 0.0 .
726(15) 0.0 0.0 .
732(14) 0.0 0.0 .
735(14) 0.0 0.0 .
794(15) 0.0 0.0 .
747(15) 0.0 0.0 .
746(14) 0.0 0.0 .
733(14) 0.0 0.0 .
762(14) 0.0 0.0 .
746(15) 0.0 0.0 .
757(15) 0.0 0.0 .
780(15) 0.0 0.0 .
807(15) 0.0 0.0 .
780(15) 0.0 0.0 .
796(15) 0.0 0.0 .
779(16) 0.0 0.0 .
813(15) 0.0 0.0 .
797(15) 0.0 0.0 .
830(15) 0.0 0.0 .
801(15) 0.0 0.0 .
843(16) 0.0 0.0 .
793(15) 0.0 0.0 .
812(15) 0.0 0.0 .
782(15) 0.0 0.0 .
835(16) 0.0 0.0 .
846(16) 0.0 0.0 .
832(16) 0.0 0.0 .
798(15) 0.0 0.0 .
822(15) 0.0 0.0 .
834(15) 0.0 0.0 .
824(16) 0.0 0.0 .
865(16) 0.0 0.0 .
837(15) 0.0 0.0 .
885(16) 0.0 0.0 .
849(16) 0.0 0.0 .
807(16) 0.0 0.0 .
817(16) 0.0 0.0 .
841(15) 0.0 0.0 .
863(15) 0.0 0.0 .
851(16) 0.0 0.0 .
860(16) 0.0 0.0 .
871(16) 0.0 0.0 .
849(15) 0.0 0.0 .
855(15) 0.0 0.0 .
887(16) 0.0 0.0 .
899(16) 0.0 0.0 .
839(15) 0.0 0.0 .
851(15) 0.0 0.0 .
845(16) 0.0 0.0 .
880(16) 0.0 0.0 .
863(16) 0.0 0.0 .
879(16) 0.0 0.0 .
883(15) 0.0 0.0 .
864(16) 0.0 0.0 .
882(16) 0.0 0.0 .
859(15) 0.0 0.0 .
882(16) 0.0 0.0 .
895(15) 0.0 0.0 .
876(16) 0.0 0.0 .
859(16) 0.0 0.0 .
895(16) 0.0 0.0 .
886(16) 0.0 0.0 .
905(16) 0.0 0.0 .
902(16) 0.0 0.0 .
909(17) 0.0 0.0 .
909(16) 0.0 0.0 .
909(16) 0.0 0.0 .
896(16) 0.0 0.0 .
884(16) 0.0 0.0 .
871(16) 0.0 0.0 .
892(16) 0.0 0.0 .
939(16) 0.0 0.0 .
966(16) 0.0 0.0 .
904(16) 0.0 0.0 .
930(17) 0.0 0.0 .
904(16) 0.0 0.0 .
875(15) 0.0 0.0 .
911(16) 0.0 0.0 .
932(16) 0.0 0.0 .
914(17) 0.0 0.0 .
910(16) 0.0 0.0 .
944(16) 0.0 0.0 .
930(16) 0.0 0.0 .
992(17) 0.0 0.0 .
936(17) 0.0 0.0 .
927(16) 0.0 0.0 .
980(16) 0.0 0.0 .
958(16) 0.0 0.0 .
952(17) 0.0 0.0 .
936(17) 0.0 0.0 .
951(17) 0.0 0.0 .
947(16) 0.0 0.0 .
982(17) 0.0 0.0 .
957(17) 0.0 0.0 .
979(17) 0.0 0.0 .
924(16) 0.0 0.0 .
903(16) 0.0 0.0 .
986(17) 0.0 0.0 .
1010(17) 0.0 0.0 .
948(16) 0.0 0.0 .
997(17) 0.0 0.0 .
1012(16) 0.0 0.0 .
961(17) 0.0 0.0 .
962(17) 0.0 0.0 .
975(17) 0.0 0.0 .
957(16) 0.0 0.0 .
983(16) 0.0 0.0 .
964(17) 0.0 0.0 .
1006(17) 0.0 0.0 .
996(17) 0.0 0.0 .
993(16) 0.0 0.0 .
992(16) 0.0 0.0 .
1004(17) 0.0 0.0 .
1006(18) 0.0 0.0 .
988(17) 0.0 0.0 .
998(17) 0.0 0.0 .
1001(16) 0.0 0.0 .
973(17) 0.0 0.0 .
1000(18) 0.0 0.0 .
1039(17) 0.0 0.0 .
1014(17) 0.0 0.0 .
1003(17) 0.0 0.0 .
1017(17) 0.0 0.0 .
1029(18) 0.0 0.0 .
991(17) 0.0 0.0 .
1009(16) 0.0 0.0 .
1025(17) 0.0 0.0 .
1066(18) 0.0 0.0 .
1030(18) 0.0 0.0 .
1094(18) 0.0 0.0 .
1058(17) 0.0 0.0 .
1081(17) 0.0 0.0 .
1097(18) 0.0 0.0 .
1072(18) 0.0 0.0 .
1059(17) 0.0 0.0 .
1085(17) 0.0 0.0 .
1106(17) 0.0 0.0 .
1092(18) 0.0 0.0 .
1081(18) 0.0 0.0 .
1126(18) 0.0 0.0 .
1086(17) 0.0 0.0 .
1089(17) 0.0 0.0 .
1117(18) 0.0 0.0 .
1114(18) 0.0 0.0 .
1115(18) 0.0 0.0 .
1104(17) 0.0 0.0 .
1090(18) 0.0 0.0 .
1142(18) 0.0 0.0 .
1135(18) 0.0 0.0 .
1147(18) 0.0 0.0 .
1142(17) 0.0 0.0 .
1142(18) 0.0 0.0 .
1186(19) 0.0 0.0 .
1145(18) 0.0 0.0 .
1143(18) 0.0 0.0 .
1145(18) 0.0 0.0 .
1157(18) 0.0 0.0 .
1177(19) 0.0 0.0 .
1161(18) 0.0 0.0 .
1147(18) 0.0 0.0 .
1226(18) 0.0 0.0 .
1184(18) 0.0 0.0 .
1180(19) 0.0 0.0 .
1217(19) 0.0 0.0 .
1196(18) 0.0 0.0 .
1177(18) 0.0 0.0 .
1203(19) 0.0 0.0 .
1227(19) 0.0 0.0 .
1216(19) 0.0 0.0 .
1256(18) 0.0 0.0 .
1265(19) 0.0 0.0 .
1199(19) 0.0 0.0 .
1252(20) 0.0 0.0 .
1262(19) 0.0 0.0 .
1214(18) 0.0 0.0 .
1236(18) 0.0 0.0 .
1220(19) 0.0 0.0 .
1251(19) 0.0 0.0 .
1208(19) 0.0 0.0 .
1247(18) 0.0 0.0 .
1227(18) 0.0 0.0 .
1209(19) 0.0 0.0 .
1268(20) 0.0 0.0 .
1231(19) 0.0 0.0 .
1268(18) 0.0 0.0 .
1277(19) 0.0 0.0 .
1305(19) 0.0 0.0 .
1312(20) 0.0 0.0 .
1281(19) 0.0 0.0 .
1246(18) 0.0 0.0 .
1267(19) 0.0 0.0 .
1224(19) 0.0 0.0 .
1273(19) 0.0 0.0 .
1260(19) 0.0 0.0 .
1286(19) 0.0 0.0 .
1357(20) 0.0 0.0 .
1330(20) 0.0 0.0 .
1263(19) 0.0 0.0 .
1319(19) 0.0 0.0 .
1279(19) 0.0 0.0 .
1301(19) 0.0 0.0 .
1255(19) 0.0 0.0 .
1295(19) 0.0 0.0 .
1283(19) 0.0 0.0 .
1291(19) 0.0 0.0 .
1301(19) 0.0 0.0 .
1313(20) 0.0 0.0 .
1357(20) 0.0 0.0 .
1376(20) 0.0 0.0 .
1311(19) 0.0 0.0 .
1303(19) 0.0 0.0 .
1279(20) 0.0 0.0 .
1287(19) 0.0 0.0 .
1306(19) 0.0 0.0 .
1354(19) 0.0 0.0 .
1276(19) 0.0 0.0 .
1264(20) 0.0 0.0 .
1319(20) 0.0 0.0 .
1283(19) 0.0 0.0 .
1283(19) 0.0 0.0 .
1356(20) 0.0 0.0 .
1308(20) 0.0 0.0 .
1336(19) 0.0 0.0 .
1306(19) 0.0 0.0 .
1293(19) 0.0 0.0 .
1322(20) 0.0 0.0 .
1343(20) 0.0 0.0 .
1333(20) 0.0 0.0 .
1295(19) 0.0 0.0 .
1305(19) 0.0 0.0 .
1337(19) 0.0 0.0 .
1331(20) 0.0 0.0 .
1308(19) 0.0 0.0 .
1324(19) 0.0 0.0 .
1300(19) 0.0 0.0 .
1353(20) 0.0 0.0 .
1323(20) 0.0 0.0 .
1314(19) 0.0 0.0 .
1331(19) 0.0 0.0 .
1319(19) 0.0 0.0 .
1349(20) 0.0 0.0 .
1287(19) 0.0 0.0 .
1285(19) 0.0 0.0 .
1322(19) 0.0 0.0 .
1331(19) 0.0 0.0 .
1304(19) 0.0 0.0 .
1325(20) 0.0 0.0 .
1347(19) 0.0 0.0 .
1284(19) 0.0 0.0 .
1303(19) 0.0 0.0 .
1311(20) 0.0 0.0 .
1305(19) 0.0 0.0 .
1330(19) 0.0 0.0 .
1348(19) 0.0 0.0 .
1345(20) 0.0 0.0 .
1381(20) 0.0 0.0 .
1343(20) 0.0 0.0 .
1312(19) 0.0 0.0 .
1307(19) 0.0 0.0 .
1356(20) 0.0 0.0 .
1323(20) 0.0 0.0 .
1314(19) 0.0 0.0 .
1294(19) 0.0 0.0 .
1299(19) 0.0 0.0 .
1319(19) 0.0 0.0 .
1296(20) 0.0 0.0 .
1339(20) 0.0 0.0 .
1284(19) 0.0 0.0 .
1307(19) 0.0 0.0 .
1316(20) 0.0 0.0 .
1305(20) 0.0 0.0 .
1342(20) 0.0 0.0 .
1313(19) 0.0 0.0 .
1334(19) 0.0 0.0 .
1387(20) 0.0 0.0 .
1341(20) 0.0 0.0 .
1335(20) 0.0 0.0 .
1291(19) 0.0 0.0 .
1358(19) 0.0 0.0 .
1361(20) 0.0 0.0 .
1344(20) 0.0 0.0 .
1386(20) 0.0 0.0 .
1356(19) 0.0 0.0 .
1292(19) 0.0 0.0 .
1275(19) 0.0 0.0 .
1336(20) 0.0 0.0 .
1291(19) 0.0 0.0 .
1345(19) 0.0 0.0 .
1323(19) 0.0 0.0 .
1349(20) 0.0 0.0 .
1290(20) 0.0 0.0 .
1309(19) 0.0 0.0 .
1342(19) 0.0 0.0 .
1356(19) 0.0 0.0 .
1271(19) 0.0 0.0 .
1293(19) 0.0 0.0 .
1286(19) 0.0 0.0 .
1299(19) 0.0 0.0 .
1313(19) 0.0 0.0 .
1336(20) 0.0 0.0 .
1307(19) 0.0 0.0 .
1272(19) 0.0 0.0 .
1311(19) 0.0 0.0 .
1310(19) 0.0 0.0 .
1366(20) 0.0 0.0 .
1351(20) 0.0 0.0 .
1337(19) 0.0 0.0 .
1360(19) 0.0 0.0 .
1263(19) 0.0 0.0 .
1324(20) 0.0 0.0 .
1309(19) 0.0 0.0 .
1286(19) 0.0 0.0 .
1278(19) 0.0 0.0 .
1249(19) 0.0 0.0 .
1290(20) 0.0 0.0 .
1328(20) 0.0 0.0 .
1331(19) 0.0 0.0 .
1344(19) 0.0 0.0 .
1303(19) 0.0 0.0 .
1298(20) 0.0 0.0 .
1329(19) 0.0 0.0 .
1349(19) 0.0 0.0 .
1323(19) 0.0 0.0 .
1294(19) 0.0 0.0 .
1312(20) 0.0 0.0 .
1286(19) 0.0 0.0 .
1309(19) 0.0 0.0 .
1261(18) 0.0 0.0 .
1321(19) 0.0 0.0 .
1302(20) 0.0 0.0 .
1290(19) 0.0 0.0 .
1317(19) 0.0 0.0 .
1351(19) 0.0 0.0 .
1318(19) 0.0 0.0 .
1297(20) 0.0 0.0 .
1293(19) 0.0 0.0 .
1313(19) 0.0 0.0 .
1282(19) 0.0 0.0 .
1308(19) 0.0 0.0 .
1334(20) 0.0 0.0 .
1288(19) 0.0 0.0 .
1315(19) 0.0 0.0 .
1327(19) 0.0 0.0 .
1273(19) 0.0 0.0 .
1285(19) 0.0 0.0 .
1229(19) 0.0 0.0 .
1332(19) 0.0 0.0 .
1275(19) 0.0 0.0 .
1299(19) 0.0 0.0 .
1269(19) 0.0 0.0 .
1289(19) 0.0 0.0 .
1322(19) 0.0 0.0 .
1300(20) 0.0 0.0 .
1245(19) 0.0 0.0 .
1274(19) 0.0 0.0 .
1301(19) 0.0 0.0 .
1308(19) 0.0 0.0 .
1292(19) 0.0 0.0 .
1265(19) 0.0 0.0 .
1252(19) 0.0 0.0 .
1289(19) 0.0 0.0 .
1291(19) 0.0 0.0 .
1285(19) 0.0 0.0 .
1299(20) 0.0 0.0 .
1300(19) 0.0 0.0 .
1286(19) 0.0 0.0 .
1273(19) 0.0 0.0 .
1341(20) 0.0 0.0 .
1283(20) 0.0 0.0 .
1292(19) 0.0 0.0 .
1299(19) 0.0 0.0 .
1247(18) 0.0 0.0 .
1289(19) 0.0 0.0 .
1251(20) 0.0 0.0 .
1230(19) 0.0 0.0 .
1280(19) 0.0 0.0 .
1268(19) 0.0 0.0 .
1234(19) 0.0 0.0 .
1284(20) 0.0 0.0 .
1233(19) 0.0 0.0 .
1246(18) 0.0 0.0 .
1253(19) 0.0 0.0 .
1256(19) 0.0 0.0 .
1263(20) 0.0 0.0 .
1246(19) 0.0 0.0 .
1291(19) 0.0 0.0 .
1210(18) 0.0 0.0 .
1260(19) 0.0 0.0 .
1239(19) 0.0 0.0 .
1221(19) 0.0 0.0 .
1253(18) 0.0 0.0 .
1254(19) 0.0 0.0 .
1246(19) 0.0 0.0 .
1243(19) 0.0 0.0 .
1217(19) 0.0 0.0 .
1234(18) 0.0 0.0 .
1226(19) 0.0 0.0 .
1236(19) 0.0 0.0 .
1258(19) 0.0 0.0 .
1260(19) 0.0 0.0 .
1265(18) 0.0 0.0 .
1242(19) 0.0 0.0 .
1197(19) 0.0 0.0 .
1178(18) 0.0 0.0 .
1218(19) 0.0 0.0 .
1227(18) 0.0 0.0 .
1245(19) 0.0 0.0 .
1218(19) 0.0 0.0 .
1210(19) 0.0 0.0 .
1199(18) 0.0 0.0 .
1218(18) 0.0 0.0 .
1272(19) 0.0 0.0 .
1252(19) 0.0 0.0 .
1251(19) 0.0 0.0 .
1253(18) 0.0 0.0 .
1256(18) 0.0 0.0 .
1161(18) 0.0 0.0 .
1177(19) 0.0 0.0 .
1200(19) 0.0 0.0 .
1219(18) 0.0 0.0 .
1196(18) 0.0 0.0 .
1245(19) 0.0 0.0 .
1240(20) 0.0 0.0 .
1157(18) 0.0 0.0 .
1210(18) 0.0 0.0 .
1163(18) 0.0 0.0 .
1187(18) 0.0 0.0 .
1243(20) 0.0 0.0 .
1160(18) 0.0 0.0 .
1192(18) 0.0 0.0 .
1260(18) 0.0 0.0 .
1231(19) 0.0 0.0 .
1209(19) 0.0 0.0 .
1182(18) 0.0 0.0 .
1238(18) 0.0 0.0 .
1254(19) 0.0 0.0 .
1193(19) 0.0 0.0 .
1197(19) 0.0 0.0 .
1178(18) 0.0 0.0 .
1176(18) 0.0 0.0 .
1234(19) 0.0 0.0 .
1183(19) 0.0 0.0 .
1213(19) 0.0 0.0 .
1187(19) 0.0 0.0 .
1207(18) 0.0 0.0 .
1164(18) 0.0 0.0 .
1161(18) 0.0 0.0 .
1213(19) 0.0 0.0 .
1227(19) 0.0 0.0 .
1200(18) 0.0 0.0 .
1176(18) 0.0 0.0 .
1205(19) 0.0 0.0 .
1202(19) 0.0 0.0 .
1171(18) 0.0 0.0 .
1142(18) 0.0 0.0 .
1201(19) 0.0 0.0 .
1152(18) 0.0 0.0 .
1201(19) 0.0 0.0 .
1237(19) 0.0 0.0 .
1179(18) 0.0 0.0 .
1160(18) 0.0 0.0 .
1210(19) 0.0 0.0 .
1167(18) 0.0 0.0 .
1195(18) 0.0 0.0 .
1210(18) 0.0 0.0 .
1151(18) 0.0 0.0 .
1159(19) 0.0 0.0 .
1200(19) 0.0 0.0 .
1168(18) 0.0 0.0 .
1143(17) 0.0 0.0 .
1161(18) 0.0 0.0 .
1154(19) 0.0 0.0 .
1170(18) 0.0 0.0 .
1133(17) 0.0 0.0 .
1164(18) 0.0 0.0 .
1160(18) 0.0 0.0 .
1178(19) 0.0 0.0 .
1105(18) 0.0 0.0 .
1130(17) 0.0 0.0 .
1153(18) 0.0 0.0 .
1121(18) 0.0 0.0 .
1159(19) 0.0 0.0 .
1150(18) 0.0 0.0 .
1143(17) 0.0 0.0 .
1112(17) 0.0 0.0 .
1109(18) 0.0 0.0 .
1145(19) 0.0 0.0 .
1146(18) 0.0 0.0 .
1156(18) 0.0 0.0 .
1140(18) 0.0 0.0 .
1156(18) 0.0 0.0 .
1211(19) 0.0 0.0 .
1183(19) 0.0 0.0 .
1150(18) 0.0 0.0 .
1147(18) 0.0 0.0 .
1118(18) 0.0 0.0 .
1145(18) 0.0 0.0 .
1165(18) 0.0 0.0 .
1091(17) 0.0 0.0 .
1133(18) 0.0 0.0 .
1131(18) 0.0 0.0 .
1131(18) 0.0 0.0 .
1143(18) 0.0 0.0 .
1132(17) 0.0 0.0 .
1097(18) 0.0 0.0 .
1126(18) 0.0 0.0 .
1195(19) 0.0 0.0 .
1163(18) 0.0 0.0 .
1156(18) 0.0 0.0 .
1158(18) 0.0 0.0 .
1144(18) 0.0 0.0 .
1142(18) 0.0 0.0 .
1164(18) 0.0 0.0 .
1152(18) 0.0 0.0 .
1124(18) 0.0 0.0 .
1107(18) 0.0 0.0 .
1092(18) 0.0 0.0 .
1169(18) 0.0 0.0 .
1147(18) 0.0 0.0 .
1144(18) 0.0 0.0 .
1116(18) 0.0 0.0 .
1133(18) 0.0 0.0 .
1142(18) 0.0 0.0 .
1159(18) 0.0 0.0 .
1103(18) 0.0 0.0 .
1138(19) 0.0 0.0 .
1079(17) 0.0 0.0 .
1123(17) 0.0 0.0 .
1107(17) 0.0 0.0 .
1108(18) 0.0 0.0 .
1117(19) 0.0 0.0 .
1087(18) 0.0 0.0 .
1091(17) 0.0 0.0 .
1113(17) 0.0 0.0 .
1118(18) 0.0 0.0 .
1109(18) 0.0 0.0 .
1123(18) 0.0 0.0 .
1070(17) 0.0 0.0 .
1091(17) 0.0 0.0 .
1121(18) 0.0 0.0 .
1107(18) 0.0 0.0 .
1115(18) 0.0 0.0 .
1086(17) 0.0 0.0 .
1104(18) 0.0 0.0 .
1141(18) 0.0 0.0 .
1138(18) 0.0 0.0 .
1093(18) 0.0 0.0 .
1120(17) 0.0 0.0 .
1120(18) 0.0 0.0 .
1107(18) 0.0 0.0 .
1069(18) 0.0 0.0 .
1125(18) 0.0 0.0 .
1097(17) 0.0 0.0 .
1094(18) 0.0 0.0 .
1063(18) 0.0 0.0 .
1092(18) 0.0 0.0 .
1097(18) 0.0 0.0 .
1060(17) 0.0 0.0 .
1108(18) 0.0 0.0 .
1131(18) 0.0 0.0 .
1084(18) 0.0 0.0 .
1060(17) 0.0 0.0 .
1077(17) 0.0 0.0 .
1092(18) 0.0 0.0 .
1129(19) 0.0 0.0 .
1056(17) 0.0 0.0 .
1087(17) 0.0 0.0 .
1131(17) 0.0 0.0 .
1076(18) 0.0 0.0 .
1012(17) 0.0 0.0 .
1028(17) 0.0 0.0 .
1056(17) 0.0 0.0 .
1095(17) 0.0 0.0 .
1080(18) 0.0 0.0 .
1112(19) 0.0 0.0 .
1059(18) 0.0 0.0 .
1081(17) 0.0 0.0 .
1081(17) 0.0 0.0 .
1050(17) 0.0 0.0 .
1057(18) 0.0 0.0 .
1083(18) 0.0 0.0 .
1064(17) 0.0 0.0 .
1014(16) 0.0 0.0 .
1082(18) 0.0 0.0 .
1040(18) 0.0 0.0 .
1074(18) 0.0 0.0 .
1061(17) 0.0 0.0 .
1127(18) 0.0 0.0 .
1040(17) 0.0 0.0 .
1094(18) 0.0 0.0 .
1050(17) 0.0 0.0 .
1098(17) 0.0 0.0 .
1037(17) 0.0 0.0 .
1084(18) 0.0 0.0 .
1053(18) 0.0 0.0 .
1082(18) 0.0 0.0 .
1061(17) 0.0 0.0 .
1081(17) 0.0 0.0 .
1032(17) 0.0 0.0 .
1035(17) 0.0 0.0 .
1034(17) 0.0 0.0 .
1052(17) 0.0 0.0 .
1041(17) 0.0 0.0 .
1013(17) 0.0 0.0 .
1092(18) 0.0 0.0 .
1116(18) 0.0 0.0 .
1054(17) 0.0 0.0 .
1094(18) 0.0 0.0 .
1046(17) 0.0 0.0 .
1042(17) 0.0 0.0 .
1055(17) 0.0 0.0 .
1023(17) 0.0 0.0 .
1041(17) 0.0 0.0 .
1069(18) 0.0 0.0 .
1065(17) 0.0 0.0 .
1017(17) 0.0 0.0 .
1094(17) 0.0 0.0 .
1073(18) 0.0 0.0 .
1028(18) 0.0 0.0 .
1007(17) 0.0 0.0 .
1040(17) 0.0 0.0 .
1058(17) 0.0 0.0 .
1035(17) 0.0 0.0 .
1070(18) 0.0 0.0 .
1063(18) 0.0 0.0 .
1060(17) 0.0 0.0 .
1021(17) 0.0 0.0 .
1052(18) 0.0 0.0 .
1034(18) 0.0 0.0 .
1019(17) 0.0 0.0 .
1012(16) 0.0 0.0 .
1043(17) 0.0 0.0 .
1043(17) 0.0 0.0 .
1002(17) 0.0 0.0 .
1024(17) 0.0 0.0 .
1054(17) 0.0 0.0 .
1023(17) 0.0 0.0 .
1059(18) 0.0 0.0 .
1051(18) 0.0 0.0 .
1023(17) 0.0 0.0 .
964(16) 0.0 0.0 .
1004(17) 0.0 0.0 .
1026(17) 0.0 0.0 .
1018(17) 0.0 0.0 .
1036(17) 0.0 0.0 .
988(16) 0.0 0.0 .
995(17) 0.0 0.0 .
1036(17) 0.0 0.0 .
1034(18) 0.0 0.0 .
974(17) 0.0 0.0 .
996(16) 0.0 0.0 .
1032(17) 0.0 0.0 .
1035(17) 0.0 0.0 .
1095(18) 0.0 0.0 .
979(17) 0.0 0.0 .
1043(17) 0.0 0.0 .
990(17) 0.0 0.0 .
997(17) 0.0 0.0 .
966(17) 0.0 0.0 .
968(16) 0.0 0.0 .
1029(17) 0.0 0.0 .
1030(17) 0.0 0.0 .
1031(17) 0.0 0.0 .
974(17) 0.0 0.0 .
1019(17) 0.0 0.0 .
990(16) 0.0 0.0 .
999(17) 0.0 0.0 .
991(17) 0.0 0.0 .
1007(17) 0.0 0.0 .
1017(17) 0.0 0.0 .
1001(16) 0.0 0.0 .
991(17) 0.0 0.0 .
1042(18) 0.0 0.0 .
1009(17) 0.0 0.0 .
961(16) 0.0 0.0 .
994(16) 0.0 0.0 .
968(17) 0.0 0.0 .
998(18) 0.0 0.0 .
1035(17) 0.0 0.0 .
999(16) 0.0 0.0 .
959(16) 0.0 0.0 .
1005(17) 0.0 0.0 .
977(17) 0.0 0.0 .
1000(17) 0.0 0.0 .
1041(17) 0.0 0.0 .
993(17) 0.0 0.0 .
1007(17) 0.0 0.0 .
993(17) 0.0 0.0 .
1015(17) 0.0 0.0 .
1005(16) 0.0 0.0 .
998(16) 0.0 0.0 .
1000(17) 0.0 0.0 .
1005(17) 0.0 0.0 .
994(17) 0.0 0.0 .
995(16) 0.0 0.0 .
997(17) 0.0 0.0 .
986(17) 0.0 0.0 .
987(17) 0.0 0.0 .
982(17) 0.0 0.0 .
1006(16) 0.0 0.0 .
991(17) 0.0 0.0 .
970(17) 0.0 0.0 .
1005(17) 0.0 0.0 .
999(17) 0.0 0.0 .
974(16) 0.0 0.0 .
954(17) 0.0 0.0 .
982(17) 0.0 0.0 .
981(17) 0.0 0.0 .
977(16) 0.0 0.0 .
979(16) 0.0 0.0 .
1001(17) 0.0 0.0 .
943(17) 0.0 0.0 .
974(17) 0.0 0.0 .
914(16) 0.0 0.0 .
950(16) 0.0 0.0 .
960(17) 0.0 0.0 .
936(17) 0.0 0.0 .
979(17) 0.0 0.0 .
991(16) 0.0 0.0 .
919(16) 0.0 0.0 .
1027(17) 0.0 0.0 .
978(17) 0.0 0.0 .
1012(17) 0.0 0.0 .
993(16) 0.0 0.0 .
939(16) 0.0 0.0 .
938(16) 0.0 0.0 .
953(17) 0.0 0.0 .
983(17) 0.0 0.0 .
994(16) 0.0 0.0 .
923(16) 0.0 0.0 .
922(16) 0.0 0.0 .
951(17) 0.0 0.0 .
982(17) 0.0 0.0 .
1007(16) 0.0 0.0 .
973(16) 0.0 0.0 .
956(17) 0.0 0.0 .
955(17) 0.0 0.0 .
947(17) 0.0 0.0 .
957(16) 0.0 0.0 .
914(16) 0.0 0.0 .
957(17) 0.0 0.0 .
931(17) 0.0 0.0 .
927(16) 0.0 0.0 .
923(16) 0.0 0.0 .
925(16) 0.0 0.0 .
929(17) 0.0 0.0 .
917(17) 0.0 0.0 .
906(16) 0.0 0.0 .
911(16) 0.0 0.0 .
936(16) 0.0 0.0 .
922(16) 0.0 0.0 .
930(17) 0.0 0.0 .
909(16) 0.0 0.0 .
913(16) 0.0 0.0 .
953(16) 0.0 0.0 .
962(17) 0.0 0.0 .
950(17) 0.0 0.0 .
931(16) 0.0 0.0 .
953(16) 0.0 0.0 .
935(17) 0.0 0.0 .
955(17) 0.0 0.0 .
928(17) 0.0 0.0 .
982(17) 0.0 0.0 .
948(16) 0.0 0.0 .
892(16) 0.0 0.0 .
867(16) 0.0 0.0 .
923(16) 0.0 0.0 .
934(16) 0.0 0.0 .
968(16) 0.0 0.0 .
909(16) 0.0 0.0 .
937(17) 0.0 0.0 .
919(16) 0.0 0.0 .
907(16) 0.0 0.0 .
911(16) 0.0 0.0 .
934(16) 0.0 0.0 .
922(17) 0.0 0.0 .
914(16) 0.0 0.0 .
939(16) 0.0 0.0 .
916(16) 0.0 0.0 .
886(16) 0.0 0.0 .
929(17) 0.0 0.0 .
901(16) 0.0 0.0 .
926(16) 0.0 0.0 .
929(16) 0.0 0.0 .
896(16) 0.0 0.0 .
934(17) 0.0 0.0 .
890(16) 0.0 0.0 .
918(16) 0.0 0.0 .
900(16) 0.0 0.0 .
874(16) 0.0 0.0 .
897(16) 0.0 0.0 .
949(16) 0.0 0.0 .
959(16) 0.0 0.0 .
930(16) 0.0 0.0 .
880(16) 0.0 0.0 .
937(17) 0.0 0.0 .
911(16) 0.0 0.0 .
877(15) 0.0 0.0 .
889(16) 0.0 0.0 .
874(16) 0.0 0.0 .
878(16) 0.0 0.0 .
908(16) 0.0 0.0 .
896(16) 0.0 0.0 .
883(16) 0.0 0.0 .
885(16) 0.0 0.0 .
864(16) 0.0 0.0 .
885(16) 0.0 0.0 .
897(16) 0.0 0.0 .
884(16) 0.0 0.0 .
877(16) 0.0 0.0 .
890(16) 0.0 0.0 .
846(15) 0.0 0.0 .
875(15) 0.0 0.0 .
887(16) 0.0 0.0 .
887(16) 0.0 0.0 .
883(16) 0.0 0.0 .
869(15) 0.0 0.0 .
912(16) 0.0 0.0 .
906(16) 0.0 0.0 .
871(16) 0.0 0.0 .
877(16) 0.0 0.0 .
856(15) 0.0 0.0 .
880(15) 0.0 0.0 .
866(16) 0.0 0.0 .
857(16) 0.0 0.0 .
927(16) 0.0 0.0 .
863(15) 0.0 0.0 .
916(16) 0.0 0.0 .
841(15) 0.0 0.0 .
870(16) 0.0 0.0 .
876(16) 0.0 0.0 .
853(15) 0.0 0.0 .
822(15) 0.0 0.0 .
896(16) 0.0 0.0 .
882(16) 0.0 0.0 .
857(16) 0.0 0.0 .
882(15) 0.0 0.0 .
863(15) 0.0 0.0 .
886(16) 0.0 0.0 .
881(16) 0.0 0.0 .
853(16) 0.0 0.0 .
860(15) 0.0 0.0 .
848(15) 0.0 0.0 .
863(16) 0.0 0.0 .
841(16) 0.0 0.0 .
850(16) 0.0 0.0 .
877(15) 0.0 0.0 .
880(16) 0.0 0.0 .
882(16) 0.0 0.0 .
874(16) 0.0 0.0 .
825(15) 0.0 0.0 .
826(15) 0.0 0.0 .
860(16) 0.0 0.0 .
846(16) 0.0 0.0 .
867(16) 0.0 0.0 .
857(15) 0.0 0.0 .
860(15) 0.0 0.0 .
858(16) 0.0 0.0 .
860(16) 0.0 0.0 .
837(15) 0.0 0.0 .
817(15) 0.0 0.0 .
842(15) 0.0 0.0 .
839(16) 0.0 0.0 .
855(16) 0.0 0.0 .
809(15) 0.0 0.0 .
855(15) 0.0 0.0 .
850(15) 0.0 0.0 .
797(15) 0.0 0.0 .
862(16) 0.0 0.0 .
846(15) 0.0 0.0 .
846(15) 0.0 0.0 .
781(15) 0.0 0.0 .
830(15) 0.0 0.0 .
842(16) 0.0 0.0 .
816(15) 0.0 0.0 .
811(15) 0.0 0.0 .
809(15) 0.0 0.0 .
844(16) 0.0 0.0 .
861(16) 0.0 0.0 .
834(16) 0.0 0.0 .
808(15) 0.0 0.0 .
865(15) 0.0 0.0 .
834(15) 0.0 0.0 .
834(16) 0.0 0.0 .
815(15) 0.0 0.0 .
828(15) 0.0 0.0 .
845(15) 0.0 0.0 .
830(15) 0.0 0.0 .
818(15) 0.0 0.0 .
850(16) 0.0 0.0 .
849(15) 0.0 0.0 .
853(15) 0.0 0.0 .
829(15) 0.0 0.0 .
815(15) 0.0 0.0 .
833(16) 0.0 0.0 .
829(15) 0.0 0.0 .
829(15) 0.0 0.0 .
836(15) 0.0 0.0 .
829(15) 0.0 0.0 .
823(15) 0.0 0.0 .
823(15) 0.0 0.0 .
812(15) 0.0 0.0 .
825(16) 0.0 0.0 .
827(16) 0.0 0.0 .
809(15) 0.0 0.0 .
834(15) 0.0 0.0 .
802(15) 0.0 0.0 .
793(15) 0.0 0.0 .
827(15) 0.0 0.0 .
801(15) 0.0 0.0 .
796(15) 0.0 0.0 .
805(15) 0.0 0.0 .
833(16) 0.0 0.0 .
849(16) 0.0 0.0 .
848(15) 0.0 0.0 .
792(15) 0.0 0.0 .
798(15) 0.0 0.0 .
817(16) 0.0 0.0 .
809(15) 0.0 0.0 .
827(15) 0.0 0.0 .
811(15) 0.0 0.0 .
837(16) 0.0 0.0 .
850(16) 0.0 0.0 .
833(15) 0.0 0.0 .
822(15) 0.0 0.0 .
815(15) 0.0 0.0 .
829(15) 0.0 0.0 .
814(16) 0.0 0.0 .
814(15) 0.0 0.0 .
785(15) 0.0 0.0 .
795(15) 0.0 0.0 .
816(15) 0.0 0.0 .
790(16) 0.0 0.0 .
780(15) 0.0 0.0 .
818(15) 0.0 0.0 .
788(15) 0.0 0.0 .
817(15) 0.0 0.0 .
822(16) 0.0 0.0 .
816(15) 0.0 0.0 .
787(15) 0.0 0.0 .
800(15) 0.0 0.0 .
803(15) 0.0 0.0 .
772(15) 0.0 0.0 .
807(15) 0.0 0.0 .
830(15) 0.0 0.0 .
816(15) 0.0 0.0 .
788(15) 0.0 0.0 .
770(15) 0.0 0.0 .
811(15) 0.0 0.0 .
755(14) 0.0 0.0 .
778(15) 0.0 0.0 .
815(15) 0.0 0.0 .
787(15) 0.0 0.0 .
792(15) 0.0 0.0 .
802(15) 0.0 0.0 .
780(15) 0.0 0.0 .
819(16) 0.0 0.0 .
813(15) 0.0 0.0 .
803(15) 0.0 0.0 .
816(15) 0.0 0.0 .
806(15) 0.0 0.0 .
780(15) 0.0 0.0 .
772(15) 0.0 0.0 .
799(15) 0.0 0.0 .
741(14) 0.0 0.0 .
786(15) 0.0 0.0 .
783(15) 0.0 0.0 .
815(15) 0.0 0.0 .
787(15) 0.0 0.0 .
814(15) 0.0 0.0 .
798(15) 0.0 0.0 .
787(15) 0.0 0.0 .
808(15) 0.0 0.0 .
823(15) 0.0 0.0 .
818(15) 0.0 0.0 .
792(15) 0.0 0.0 .
793(16) 0.0 0.0 .
793(15) 0.0 0.0 .
772(14) 0.0 0.0 .
802(15) 0.0 0.0 .
775(15) 0.0 0.0 .
758(15) 0.0 0.0 .
778(15) 0.0 0.0 .
786(15) 0.0 0.0 .
788(15) 0.0 0.0 .
802(15) 0.0 0.0 .
844(16) 0.0 0.0 .
805(15) 0.0 0.0 .
781(14) 0.0 0.0 .
790(15) 0.0 0.0 .
820(16) 0.0 0.0 .
776(15) 0.0 0.0 .
765(15) 0.0 0.0 .
777(14) 0.0 0.0 .
749(14) 0.0 0.0 .
781(15) 0.0 0.0 .
768(15) 0.0 0.0 .
794(15) 0.0 0.0 .
780(15) 0.0 0.0 .
744(14) 0.0 0.0 .
786(15) 0.0 0.0 .
752(15) 0.0 0.0 .
796(15) 0.0 0.0 .
745(14) 0.0 0.0 .
789(15) 0.0 0.0 .
808(16) 0.0 0.0 .
752(15) 0.0 0.0 .
766(15) 0.0 0.0 .
796(15) 0.0 0.0 .
762(15) 0.0 0.0 .
750(15) 0.0 0.0 .
745(15) 0.0 0.0 .
800(15) 0.0 0.0 .
758(14) 0.0 0.0 .
803(15) 0.0 0.0 .
767(15) 0.0 0.0 .
759(15) 0.0 0.0 .
771(15) 0.0 0.0 .
745(14) 0.0 0.0 .
751(15) 0.0 0.0 .
766(15) 0.0 0.0 .
755(15) 0.0 0.0 .
738(14) 0.0 0.0 .
766(14) 0.0 0.0 .
761(15) 0.0 0.0 .
759(15) 0.0 0.0 .
796(15) 0.0 0.0 .
819(15) 0.0 0.0 .
770(14) 0.0 0.0 .
756(15) 0.0 0.0 .
746(15) 0.0 0.0 .
766(15) 0.0 0.0 .
772(14) 0.0 0.0 .
729(14) 0.0 0.0 .
747(15) 0.0 0.0 .
783(16) 0.0 0.0 .
768(15) 0.0 0.0 .
724(14) 0.0 0.0 .
766(14) 0.0 0.0 .
739(15) 0.0 0.0 .
764(15) 0.0 0.0 .
748(15) 0.0 0.0 .
766(14) 0.0 0.0 .
791(15) 0.0 0.0 .
765(15) 0.0 0.0 .
751(15) 0.0 0.0 .
742(15) 0.0 0.0 .
764(14) 0.0 0.0 .
781(15) 0.0 0.0 .
736(15) 0.0 0.0 .
725(15) 0.0 0.0 .
736(14) 0.0 0.0 .
744(14) 0.0 0.0 .
737(14) 0.0 0.0 .
763(15) 0.0 0.0 .
726(15) 0.0 0.0 .
756(15) 0.0 0.0 .
716(14) 0.0 0.0 .
757(15) 0.0 0.0 .
746(15) 0.0 0.0 .
714(14) 0.0 0.0 .
759(14) 0.0 0.0 .
738(14) 0.0 0.0 .
777(15) 0.0 0.0 .
739(15) 0.0 0.0 .
717(14) 0.0 0.0 .
752(14) 0.0 0.0 .
764(14) 0.0 0.0 .
737(15) 0.0 0.0 .
774(15) 0.0 0.0 .
744(14) 0.0 0.0 .
751(14) 0.0 0.0 .
759(14) 0.0 0.0 .
745(14) 0.0 0.0 .
754(15) 0.0 0.0 .
719(14) 0.0 0.0 .
748(14) 0.0 0.0 .
744(14) 0.0 0.0 .
743(15) 0.0 0.0 .
739(15) 0.0 0.0 .
719(14) 0.0 0.0 .
750(14) 0.0 0.0 .
730(14) 0.0 0.0 .
723(14) 0.0 0.0 .
715(15) 0.0 0.0 .
723(15) 0.0 0.0 .
760(14) 0.0 0.0 .
741(14) 0.0 0.0 .
716(14) 0.0 0.0 .
727(15) 0.0 0.0 .
762(15) 0.0 0.0 .
755(14) 0.0 0.0 .
751(14) 0.0 0.0 .
763(15) 0.0 0.0 .
771(15) 0.0 0.0 .
725(14) 0.0 0.0 .
752(14) 0.0 0.0 .
748(14) 0.0 0.0 .
729(15) 0.0 0.0 .
709(14) 0.0 0.0 .
761(15) 0.0 0.0 .
743(14) 0.0 0.0 .
726(14) 0.0 0.0 .
760(15) 0.0 0.0 .
774(15) 0.0 0.0 .
744(15) 0.0 0.0 .
720(14) 0.0 0.0 .
712(15) 0.0 0.0 .
751(15) 0.0 0.0 .
730(14) 0.0 0.0 .
747(15) 0.0 0.0 .
739(14) 0.0 0.0 .
712(14) 0.0 0.0 .
706(14) 0.0 0.0 .
763(15) 0.0 0.0 .
739(14) 0.0 0.0 .
730(14) 0.0 0.0 .
752(15) 0.0 0.0 .
718(15) 0.0 0.0 .
747(15) 0.0 0.0 .
745(14) 0.0 0.0 .
768(14) 0.0 0.0 .
732(14) 0.0 0.0 .
721(15) 0.0 0.0 .
709(14) 0.0 0.0 .
736(14) 0.0 0.0 .
715(14) 0.0 0.0 .
726(14) 0.0 0.0 .
750(15) 0.0 0.0 .
737(15) 0.0 0.0 .
702(14) 0.0 0.0 .
769(15) 0.0 0.0 .
708(14) 0.0 0.0 .
763(15) 0.0 0.0 .
715(14) 0.0 0.0 .
747(14) 0.0 0.0 .
742(14) 0.0 0.0 .
717(14) 0.0 0.0 .
731(15) 0.0 0.0 .
756(15) 0.0 0.0 .
719(14) 0.0 0.0 .
693(14) 0.0 0.0 .
759(15) 0.0 0.0 .
720(15) 0.0 0.0 .
721(14) 0.0 0.0 .
702(14) 0.0 0.0 .
737(14) 0.0 0.0 .
690(14) 0.0 0.0 .
714(14) 0.0 0.0 .
702(14) 0.0 0.0 .
730(14) 0.0 0.0 .
709(14) 0.0 0.0 .
723(15) 0.0 0.0 .
757(15) 0.0 0.0 .
703(14) 0.0 0.0 .
717(14) 0.0 0.0 .
755(15) 0.0 0.0 .
668(14) 0.0 0.0 .
738(15) 0.0 0.0 .
748(14) 0.0 0.0 .
727(14) 0.0 0.0 .
726(14) 0.0 0.0 .
744(15) 0.0 0.0 .
705(14) 0.0 0.0 .
721(14) 0.0 0.0 .
721(14) 0.0 0.0 .
730(15) 0.0 0.0 .
719(15) 0.0 0.0 .
717(14) 0.0 0.0 .
744(14) 0.0 0.0 .
739(14) 0.0 0.0 .
705(14) 0.0 0.0 .
749(15) 0.0 0.0 .
723(14) 0.0 0.0 .
751(14) 0.0 0.0 .
720(14) 0.0 0.0 .
749(15) 0.0 0.0 .
724(15) 0.0 0.0 .
686(14) 0.0 0.0 .
731(14) 0.0 0.0 .
719(14) 0.0 0.0 .
745(15) 0.0 0.0 .
727(15) 0.0 0.0 .
756(15) 0.0 0.0 .
750(14) 0.0 0.0 .
731(14) 0.0 0.0 .
746(15) 0.0 0.0 .
756(15) 0.0 0.0 .
734(15) 0.0 0.0 .
738(14) 0.0 0.0 .
735(14) 0.0 0.0 .
718(15) 0.0 0.0 .
721(15) 0.0 0.0 .
715(14) 0.0 0.0 .
721(14) 0.0 0.0 .
729(14) 0.0 0.0 .
714(14) 0.0 0.0 .
699(14) 0.0 0.0 .
741(15) 0.0 0.0 .
721(14) 0.0 0.0 .
756(15) 0.0 0.0 .
748(15) 0.0 0.0 .
736(15) 0.0 0.0 .
733(14) 0.0 0.0 .
724(14) 0.0 0.0 .
744(15) 0.0 0.0 .
755(15) 0.0 0.0 .
724(14) 0.0 0.0 .
730(14) 0.0 0.0 .
730(14) 0.0 0.0 .
746(15) 0.0 0.0 .
743(15) 0.0 0.0 .
722(14) 0.0 0.0 .
755(14) 0.0 0.0 .
789(15) 0.0 0.0 .
757(15) 0.0 0.0 .
724(15) 0.0 0.0 .
785(15) 0.0 0.0 .
753(14) 0.0 0.0 .
763(14) 0.0 0.0 .
768(15) 0.0 0.0 .
746(15) 0.0 0.0 .
699(14) 0.0 0.0 .
741(14) 0.0 0.0 .
744(14) 0.0 0.0 .
780(15) 0.0 0.0 .
726(15) 0.0 0.0 .
760(15) 0.0 0.0 .
771(14) 0.0 0.0 .
780(15) 0.0 0.0 .
735(14) 0.0 0.0 .
726(15) 0.0 0.0 .
711(14) 0.0 0.0 .
737(14) 0.0 0.0 .
730(14) 0.0 0.0 .
736(15) 0.0 0.0 .
756(15) 0.0 0.0 .
779(15) 0.0 0.0 .
755(14) 0.0 0.0 .
754(14) 0.0 0.0 .
741(15) 0.0 0.0 .
781(15) 0.0 0.0 .
795(15) 0.0 0.0 .
763(14) 0.0 0.0 .
773(14) 0.0 0.0 .
756(15) 0.0 0.0 .
771(15) 0.0 0.0 .
755(15) 0.0 0.0 .
735(14) 0.0 0.0 .
748(14) 0.0 0.0 .
772(15) 0.0 0.0 .
785(15) 0.0 0.0 .
764(15) 0.0 0.0 .
785(15) 0.0 0.0 .
825(15) 0.0 0.0 .
803(15) 0.0 0.0 .
801(15) 0.0 0.0 .
789(15) 0.0 0.0 .
791(15) 0.0 0.0 .
807(15) 0.0 0.0 .
794(15) 0.0 0.0 .
772(15) 0.0 0.0 .
797(15) 0.0 0.0 .
783(15) 0.0 0.0 .
762(15) 0.0 0.0 .
822(16) 0.0 0.0 .
789(15) 0.0 0.0 .
814(15) 0.0 0.0 .
794(15) 0.0 0.0 .
781(15) 0.0 0.0 .
801(16) 0.0 0.0 .
822(15) 0.0 0.0 .
829(15) 0.0 0.0 .
882(16) 0.0 0.0 .
845(16) 0.0 0.0 .
886(17) 0.0 0.0 .
866(16) 0.0 0.0 .
945(16) 0.0 0.0 .
878(15) 0.0 0.0 .
930(16) 0.0 0.0 .
862(16) 0.0 0.0 .
907(16) 0.0 0.0 .
912(16) 0.0 0.0 .
919(16) 0.0 0.0 .
979(17) 0.0 0.0 .
954(17) 0.0 0.0 .
995(17) 0.0 0.0 .
978(16) 0.0 0.0 .
996(17) 0.0 0.0 .
975(17) 0.0 0.0 .
999(17) 0.0 0.0 .
1004(17) 0.0 0.0 .
1039(17) 0.0 0.0 .
1062(17) 0.0 0.0 .
1082(18) 0.0 0.0 .
1095(18) 0.0 0.0 .
1168(19) 0.0 0.0 .
1188(18) 0.0 0.0 .
1213(18) 0.0 0.0 .
1210(19) 0.0 0.0 .
1304(20) 0.0 0.0 .
1402(20) 0.0 0.0 .
1405(19) 0.0 0.0 .
1559(21) 0.0 0.0 .
1617(22) 0.0 0.0 .
1676(22) 0.0 0.0 .
1881(23) 0.0 0.0 .
2180(24) 0.0 0.0 .
2524(27) 0.0 0.0 .
2913(29) 0.0 0.0 .
3481(32) 0.0 0.0 .
4288(35) 0.0 0.0 .
5250(38) 0.0 0. .
6452(43) 0.0 0. .
7981(49) 0.0 0. .
9952(54) 0.0 0. .
12081(59) 0.0 0. .
14520(63) 0.0 0. .
17113(71) 0.0 0. .
19692(78) 0.0 0. .
22289(82) 0.0 0. .
24725(84) 0.0 0. .
27345(88) 0.0 0. .
30093(95) 0.0 0. .
33540(100) 0.0 0. .
37520(110) 0.0 0. .
42230(110) 0.0 0. .
48570(120) 0.0 0. .
56360(130) 0.0 0. .
65300(150) 0.0 0. .
75110(160) 0.0 0. .
83160(160) 0.0 0. .
85500(160) 0.0 0. .
78140(160) 0.0 0. .
64710(150) 0.0 0. .
50060(120) 0.0 0. .
37630(100) 0.0 0. .
28101(90) 0.0 0. .
20922(79) 0.0 0. .
15985(71) 0.0 0. .
12497(60) 0.0 0. .
9814(52) 0.0 0. .
8059(48) 0.0 0. .
6837(45) 0.0 0. .
5818(42) 0.0 0. .
5073(38) 0.0 0. .
4426(35) 0.0 0.0 .
3798(32) 0.0 0.0 .
3443(32) 0.0 0.0 .
3137(30) 0.0 0.0 .
2912(29) 0.0 0.0 .
2581(26) 0.0 0.0 .
2358(26) 0.0 0.0 .
2157(25) 0.0 0.0 .
2094(25) 0.0 0.0 .
1983(24) 0.0 0.0 .
1847(22) 0.0 0.0 .
1764(23) 0.0 0.0 .
1609(22) 0.0 0.0 .
1565(21) 0.0 0.0 .
1494(21) 0.0 0.0 .
1474(20) 0.0 0.0 .
1367(20) 0.0 0.0 .
1321(20) 0.0 0.0 .
1261(19) 0.0 0.0 .
1255(19) 0.0 0.0 .
1219(18) 0.0 0.0 .
1184(19) 0.0 0.0 .
1146(19) 0.0 0.0 .
1133(18) 0.0 0.0 .
1106(17) 0.0 0.0 .
1062(17) 0.0 0.0 .
1034(17) 0.0 0.0 .
1002(18) 0.0 0.0 .
998(17) 0.0 0.0 .
963(16) 0.0 0.0 .
977(16) 0.0 0.0 .
961(17) 0.0 0.0 .
939(17) 0.0 0.0 .
931(16) 0.0 0.0 .
965(16) 0.0 0.0 .
912(16) 0.0 0.0 .
892(16) 0.0 0.0 .
902(17) 0.0 0.0 .
865(16) 0.0 0.0 .
858(15) 0.0 0.0 .
873(16) 0.0 0.0 .
838(16) 0.0 0.0 .
836(16) 0.0 0.0 .
858(16) 0.0 0.0 .
822(15) 0.0 0.0 .
818(15) 0.0 0.0 .
815(15) 0.0 0.0 .
793(15) 0.0 0.0 .
819(16) 0.0 0.0 .
764(14) 0.0 0.0 .
825(15) 0.0 0.0 .
787(15) 0.0 0.0 .
778(15) 0.0 0.0 .
794(15) 0.0 0.0 .
818(15) 0.0 0.0 .
830(15) 0.0 0.0 .
774(15) 0.0 0.0 .
788(15) 0.0 0.0 .
805(15) 0.0 0.0 .
798(15) 0.0 0.0 .
781(15) 0.0 0.0 .
773(15) 0.0 0.0 .
780(15) 0.0 0.0 .
726(14) 0.0 0.0 .
786(15) 0.0 0.0 .
773(15) 0.0 0.0 .
791(15) 0.0 0.0 .
709(14) 0.0 0.0 .
764(14) 0.0 0.0 .
761(14) 0.0 0.0 .
754(15) 0.0 0.0 .
734(15) 0.0 0.0 .
746(15) 0.0 0.0 .
743(14) 0.0 0.0 .
752(14) 0.0 0.0 .
737(15) 0.0 0.0 .
752(15) 0.0 0.0 .
733(15) 0.0 0.0 .
744(14) 0.0 0.0 .
734(14) 0.0 0.0 .
725(14) 0.0 0.0 .
741(15) 0.0 0.0 .
709(14) 0.0 0.0 .
713(14) 0.0 0.0 .
748(14) 0.0 0.0 .
731(14) 0.0 0.0 .
706(15) 0.0 0.0 .
701(14) 0.0 0.0 .
703(14) 0.0 0.0 .
723(14) 0.0 0.0 .
719(15) 0.0 0.0 .
748(15) 0.0 0.0 .
739(15) 0.0 0.0 .
699(14) 0.0 0.0 .
717(14) 0.0 0.0 .
702(14) 0.0 0.0 .
753(15) 0.0 0.0 .
721(14) 0.0 0.0 .
707(14) 0.0 0.0 .
750(15) 0.0 0.0 .
704(14) 0.0 0.0 .
709(15) 0.0 0.0 .
679(14) 0.00507 680.8 64.6
694(14) 0.00533 680.8 63.5
717(14) 0.00500 680.8 62.4
692(14) 0.00499 680.8 61.4
724(15) 0.00465 680.8 60.4
688(14) 0.00508 680.8 59.4
682(14) 0.00547 680.8 58.4
667(14) 0.00530 680.8 57.5
679(14) 0.00499 680.4 56.6
694(14) 0.00485 679.9 0.0
684(14) 0.00519 679.4 0.0
720(14) 0.00518 679.0 0.0
672(14) 0.00530 678.5 0.0
668(14) 0.00513 678.1 0.0
661(14) 0.00535 677.6 0.0
680(14) 0.00531 677.2 0.0
678(14) 0.00542 676.7 0.0
679(14) 0.00515 676.2 0.0
673(14) 0.00496 675.8 0.0
681(14) 0.00509 675.3 0.0
680(14) 0.00535 674.9 0.0
676(13) 0.00551 674.4 0.0
661(14) 0.00529 673.9 0.0
655(14) 0.00513 673.5 0.0
672(14) 0.00522 673.0 0.0
694(14) 0.00518 672.6 0.0
692(14) 0.00534 672.1 0.0
677(14) 0.00506 671.6 0.0
654(14) 0.00502 671.2 0.0
672(14) 0.00526 670.7 0.0
681(14) 0.00536 670.3 0.0
697(14) 0.00535 669.8 0.0
673(14) 0.00517 669.3 0.0
667(14) 0.00483 668.9 0.0
676(14) 0.00521 668.4 0.0
642(13) 0.00576 668.0 0.0
648(13) 0.00565 667.5 0.0
650(14) 0.00541 667.0 0.0
647(14) 0.00506 666.6 0.0
666(14) 0.00523 666.1 0.0
668(13) 0.00557 665.7 0.0
691(14) 0.00526 665.2 0.0
660(14) 0.00540 664.7 0.0
689(14) 0.00487 664.3 0.0
663(14) 0.00525 663.8 0.0
656(13) 0.00565 663.4 0.0
661(14) 0.00548 662.9 0.0
650(14) 0.00522 662.5 0.0
684(14) 0.00492 662.0 0.0
667(14) 0.00522 661.5 0.0
666(13) 0.00557 661.1 0.0
688(14) 0.00513 660.6 0.0
655(14) 0.00530 660.2 0.0
663(14) 0.00522 659.7 0.0
680(14) 0.00507 659.2 0.0
634(13) 0.00589 658.8 0.0
666(14) 0.00530 658.3 0.0
657(14) 0.00517 657.9 0.0
650(14) 0.00523 657.4 0.0
659(13) 0.00550 656.9 0.0
646(13) 0.00572 656.5 0.0
623(13) 0.00570 656.0 0.0
634(14) 0.00529 655.6 0.0
641(14) 0.00549 655.1 0.0
658(14) 0.00547 654.6 0.0
638(13) 0.00585 654.2 0.0
629(14) 0.00541 653.7 0.0
663(14) 0.00512 653.3 0.0
696(14) 0.00498 652.8 0.0
647(13) 0.00551 652.3 0.0
662(13) 0.00557 651.9 0.0
661(14) 0.00530 651.4 0.0
660(14) 0.00504 651.0 0.0
667(14) 0.00524 650.5 0.0
607(13) 0.00600 650.0 0.0
640(13) 0.00583 649.6 0.0
666(14) 0.00515 649.1 0.0
653(14) 0.00499 648.7 0.0
679(14) 0.00516 648.2 0.0
666(13) 0.00560 647.8 0.0
641(13) 0.00568 647.3 0.0
590(13) 0.00601 646.8 0.0
625(14) 0.00515 646.4 0.0
624(13) 0.00555 645.9 0.8
631(13) 0.00591 645.5 0.8
652(13) 0.00561 645.0 0.8
653(14) 0.00542 644.5 0.8
668(14) 0.00486 644.1 0.8
646(14) 0.00547 643.6 0.8
652(13) 0.00567 643.2 0.8
666(13) 0.00558 642.7 0.8
666(14) 0.00533 642.2 0.9
640(14) 0.00502 641.8 0.9
614(13) 0.00555 641.3 0.9
620(13) 0.00599 640.9 0.9
661(14) 0.00532 640.4 0.9
643(14) 0.00536 639.9 0.9
645(14) 0.00508 639.5 0.9
622(13) 0.00551 639.0 1.0
640(13) 0.00582 638.6 1.0
661(14) 0.00532 638.1 1.0
676(14) 0.00512 637.6 1.0
618(13) 0.00557 637.2 1.0
622(13) 0.00553 636.7 1.1
646(13) 0.00571 636.3 1.1
623(13) 0.00579 635.8 1.1
627(14) 0.00537 635.3 1.1
654(14) 0.00508 634.9 1.1
650(14) 0.00530 634.4 1.2
658(13) 0.00571 634.0 1.2
625(13) 0.00562 633.5 1.2
648(14) 0.00533 633.0 1.2
658(14) 0.00529 632.6 1.3
616(13) 0.00586 632.1 1.3
634(13) 0.00583 631.7 1.3
629(13) 0.00557 631.2 1.3
624(14) 0.00547 630.8 1.4
617(13) 0.00571 630.3 1.4
629(13) 0.00580 629.8 1.4
647(13) 0.00576 629.4 1.5
646(14) 0.00534 628.9 1.5
628(14) 0.00517 628.5 1.5
629(14) 0.00545 628.0 1.6
640(13) 0.00564 627.5 1.6
621(13) 0.00592 627.1 1.6
643(14) 0.00540 626.6 1.7
623(14) 0.00514 626.2 1.7
636(14) 0.00549 625.7 1.8
642(13) 0.00572 625.2 1.8
625(13) 0.00591 624.8 1.9
623(13) 0.00556 624.3 1.9
607(13) 0.00558 623.9 2.0
634(13) 0.00560 623.4 2.0
631(13) 0.00587 623.0 2.1
657(13) 0.00567 622.8 2.1
623(14) 0.00544 622.6 2.2
624(14) 0.00517 622.5 2.2
648(14) 0.00538 622.3 2.3
647(13) 0.00582 622.1 2.4
666(14) 0.00547 622.0 2.4
632(13) 0.00558 621.8 2.5
597(13) 0.00559 621.6 2.6
646(14) 0.00533 621.4 2.6
629(13) 0.00589 621.3 2.7
586(13) 0.00628 621.1 2.8
636(14) 0.00539 620.9 2.9
613(14) 0.00540 620.7 3.0
602(13) 0.00583 620.6 3.1
621(13) 0.00600 620.4 3.2
654(14) 0.00546 620.2 3.3
670(14) 0.00502 620.0 3.4
650(14) 0.00528 619.9 3.5
636(13) 0.00567 619.7 3.6
616(13) 0.00599 619.5 3.8
608(13) 0.00595 619.3 3.9
630(14) 0.00545 619.2 4.0
613(13) 0.00559 619.0 4.2
646(14) 0.00536 618.8 4.4
604(13) 0.00618 618.7 4.5
643(13) 0.00552 618.5 4.7
641(14) 0.00533 618.3 4.9
637(14) 0.00528 618.1 5.1
616(13) 0.00564 618.0 5.3
633(13) 0.00589 617.8 5.5
636(14) 0.00529 617.6 5.8
641(14) 0.00526 617.4 6.1
608(13) 0.00585 617.3 6.3
628(13) 0.00584 617.1 6.6
648(13) 0.00577 616.9 7.0
640(14) 0.00547 616.7 7.3
617(14) 0.00532 616.6 7.7
583(13) 0.00575 616.4 8.1
618(13) 0.00585 616.2 8.5
651(13) 0.00575 616.1 9.0
613(13) 0.00570 615.9 9.5
663(14) 0.00486 615.7 10.0
590(13) 0.00605 615.5 10.6
658(13) 0.00552 615.4 11.3
639(13) 0.00578 615.2 12.0
676(14) 0.00524 615.0 12.8
644(14) 0.00508 614.8 13.6
660(14) 0.00521 614.7 14.6
627(13) 0.00593 614.5 15.7
633(13) 0.00580 614.3 16.8
634(14) 0.00541 614.1 18.1
659(14) 0.00476 614.0 19.6
666(14) 0.00515 613.8 21.2
650(13) 0.00578 613.6 23.1
626(13) 0.00591 613.4 25.2
665(14) 0.00535 613.3 27.6
680(15) 0.00474 613.1 30.4
680(14) 0.00506 612.9 33.7
669(13) 0.00552 612.8 37.5
725(14) 0.00502 612.6 42.2
730(14) 0.00486 612.4 48.2
762(15) 0.00433 612.2 55.9
808(15) 0.00430 612.1 66.4
825(15) 0.00450 611.9 81.0
847(15) 0.00422 611.7 101.4
881(16) 0.00391 611.5 130.2
894(16) 0.00379 611.4 169.9
978(17) 0.003495 611.2 223.3
1042(17) 0.00356 611.0 292.6
1053(17) 0.003415 610.8 378.8
1080(18) 0.003248 610.7 480.7
1149(18) 0.003003 610.5 594.2
1198(19) 0.002886 610.3 711.1
1238(18) 0.002993 610.2 818.5
1303(19) 0.002722 610.0 898.8
1396(20) 0.002433 609.8 933.8
1406(20) 0.002457 609.6 914.3
1333(19) 0.002701 609.5 845.5
1283(19) 0.002877 609.3 744.1
1142(18) 0.003074 609.1 628.3
981(17) 0.003430 608.9 512.7
877(16) 0.00398 608.8 407.0
846(15) 0.00421 608.6 316.0
805(15) 0.00460 608.4 241.8
688(14) 0.00510 608.2 183.9
689(14) 0.00490 608.1 140.4
700(14) 0.00490 607.9 108.8
647(13) 0.00574 607.7 86.2
676(14) 0.00544 607.5 70.2
673(14) 0.00519 607.4 58.6
666(14) 0.00505 607.2 50.2
635(13) 0.00555 607.0 43.8
658(14) 0.00545 606.9 38.8
638(13) 0.00585 606.7 34.7
614(13) 0.00574 606.5 31.3
618(14) 0.00522 606.3 28.4
637(13) 0.00550 606.2 25.9
618(13) 0.00601 606.0 23.7
582(13) 0.00636 605.8 21.8
619(13) 0.00554 605.6 20.1
617(14) 0.00514 605.5 18.5
618(13) 0.00557 605.3 17.2
591(13) 0.00626 605.1 16.0
587(13) 0.00621 604.9 14.9
567(13) 0.00623 604.8 13.9
612(14) 0.00537 604.6 13.0
597(13) 0.00599 604.4 12.2
641(13) 0.00583 604.3 11.5
602(13) 0.00611 604.1 10.8
620(13) 0.00555 603.9 10.2
641(14) 0.00510 603.7 9.6
608(13) 0.00563 603.6 9.1
618(13) 0.00593 603.4 8.6
637(13) 0.00564 603.2 8.2
599(13) 0.00591 603.0 7.8
615(14) 0.00544 602.9 7.4
573(13) 0.00593 602.7 7.1
571(12) 0.00650 602.5 6.7
614(13) 0.00593 602.3 6.4
621(13) 0.00553 602.2 6.1
617(13) 0.00565 602.0 5.9
650(14) 0.00545 601.8 5.6
584(13) 0.00635 601.7 5.4
593(13) 0.00593 601.5 5.2
635(14) 0.00527 601.3 5.0
612(13) 0.00565 601.1 4.8
587(13) 0.00608 601.0 4.6
606(13) 0.00613 600.8 4.4
641(14) 0.00539 600.6 4.2
597(13) 0.00580 600.4 4.1
599(13) 0.00572 600.3 3.9
607(13) 0.00595 600.1 3.8
612(13) 0.00606 599.9 3.7
611(13) 0.00579 599.7 3.5
632(14) 0.00520 599.6 3.4
623(13) 0.00553 599.4 3.3
607(13) 0.00610 599.2 3.2
629(13) 0.00595 599.0 3.1
596(13) 0.00577 598.9 3.0
659(14) 0.00493 598.7 2.9
606(13) 0.00571 598.5 2.8
594(13) 0.00618 598.4 2.7
620(13) 0.00603 598.2 2.7
620(13) 0.00557 598.0 2.6
621(14) 0.00528 597.8 2.5
646(14) 0.00541 597.7 2.4
608(13) 0.00603 597.5 2.4
591(13) 0.00633 597.3 2.3
602(13) 0.00573 597.1 2.2
601(14) 0.00535 597.0 2.2
565(13) 0.00631 596.8 2.1
608(13) 0.00613 596.6 2.1
578(12) 0.00645 596.4 2.0
591(13) 0.00600 596.3 2.0
620(14) 0.00511 596.1 1.9
588(13) 0.00586 595.9 1.9
599(13) 0.00618 595.8 1.8
634(13) 0.00579 595.6 1.8
617(13) 0.00561 595.4 1.7
617(14) 0.00535 595.2 1.7
601(13) 0.00583 595.1 1.7
586(13) 0.00633 594.9 1.6
584(13) 0.00618 594.7 1.6
616(13) 0.00567 594.5 1.5
611(13) 0.00554 594.4 1.5
595(13) 0.00584 594.2 1.5
610(13) 0.00602 594.0 1.4
574(12) 0.00642 593.8 1.4
585(13) 0.00593 593.7 1.4
602(13) 0.00554 593.5 1.4
606(13) 0.00561 593.3 1.3
601(13) 0.00615 593.1 1.3
585(13) 0.00614 593.0 1.3
587(13) 0.00578 592.8 1.2
582(13) 0.00575 592.6 1.2
590(13) 0.00593 592.5 1.2
594(13) 0.00624 592.3 1.2
606(13) 0.00581 592.1 1.2
570(13) 0.00621 591.9 1.1
595(13) 0.00576 591.8 1.1
594(13) 0.00590 591.6 1.1
560(12) 0.00665 591.4 1.1
579(13) 0.00600 591.2 1.0
589(13) 0.00570 591.1 1.0
630(14) 0.00535 591.0 1.0
602(13) 0.00601 591.0 1.0
598(13) 0.00626 591.0 1.0
592(13) 0.00570 590.9 1.0
595(13) 0.00554 590.9 0.9
633(14) 0.00545 590.9 0.9
625(13) 0.00583 590.9 0.9
607(13) 0.00613 590.9 0.9
589(13) 0.00601 590.9 0.9
583(13) 0.00579 590.9 0.9
600(13) 0.00559 590.9 0.8
593(13) 0.00624 590.8 0.8
603(13) 0.00619 590.8 0.8
631(13) 0.00554 590.8 0.8
575(13) 0.00567 590.8 0.8
600(13) 0.00583 590.8 0.8
583(13) 0.00634 590.8 0.8
615(13) 0.00594 590.8 0.0
598(13) 0.00585 590.8 0.0
611(14) 0.00529 590.8 0.0
619(13) 0.00559 590.7 0.0
589(13) 0.00630 590.7 0.0
610(13) 0.00612 590.7 0.0
614(13) 0.00569 590.7 0.0
600(14) 0.00539 590.7 0.0
615(13) 0.00572 590.7 0.0
596(13) 0.00629 590.7 0.0
554(12) 0.00653 590.7 0.0
598(13) 0.00581 590.7 0.0
596(13) 0.00560 590.6 0.0
610(13) 0.00565 590.6 0.0
611(13) 0.00610 590.6 0.0
574(12) 0.00642 590.6 0.0
607(13) 0.00569 590.6 0.0
601(13) 0.00569 590.6 0.0
621(14) 0.00540 590.6 0.0
589(13) 0.00637 590.6 0.0
600(13) 0.00583 590.6 0.0
567(13) 0.00613 590.5 0.0
598(13) 0.00566 590.5 0.0
585(13) 0.00608 590.5 0.0
602(13) 0.00616 590.5 0.0
603(13) 0.00574 590.5 0.0
598(13) 0.00555 590.5 0.0
628(14) 0.00532 590.5 0.0
566(13) 0.00621 590.5 0.0
561(12) 0.00665 590.4 0.0
550(13) 0.00625 590.4 0.0
571(13) 0.00584 590.4 0.0
611(13) 0.00555 590.4 0.0
582(13) 0.00615 590.4 0.0
597(13) 0.00621 590.4 0.0
586(13) 0.00596 590.4 0.0
612(14) 0.00546 590.4 0.0
584(13) 0.00615 590.4 0.0
582(13) 0.00623 590.3 0.0
593(13) 0.00631 590.3 0.0
584(13) 0.00590 590.3 0.0
590(13) 0.00563 590.3 0.0
622(13) 0.00557 590.3 0.0
598(13) 0.00613 590.3 0.0
604(13) 0.00601 590.3 0.0
596(13) 0.00589 590.3 0.0
592(14) 0.00547 590.3 0.0
636(14) 0.00530 590.2 0.0
591(13) 0.00628 590.2 0.0
593(13) 0.00619 590.2 0.0
601(13) 0.00584 590.2 0.0
603(14) 0.00514 590.2 0.0
585(13) 0.00597 590.2 0.0
621(13) 0.00599 590.2 0.0
602(13) 0.00614 590.2 0.0
616(13) 0.00569 590.2 0.0
620(14) 0.00521 590.1 0.0
569(13) 0.00624 590.1 0.0
615(13) 0.00607 590.1 0.0
578(13) 0.00630 590.1 0.0
561(13) 0.00607 590.1 0.0
563(13) 0.00607 590.1 0.0
597(13) 0.00569 590.1 0.0
574(12) 0.00644 590.1 0.0
615(13) 0.00585 590.1 0.0
615(14) 0.00540 590.0 0.0
588(13) 0.00568 590.0 0.0
614(13) 0.00555 590.0 0.0
611(13) 0.00600 590.0 0.0
580(13) 0.00625 590.0 0.0
607(13) 0.00569 590.0 0.0
585(13) 0.00590 590.0 0.0
622(13) 0.00567 590.0 0.0
612(13) 0.00602 589.9 0.0
578(13) 0.00615 589.9 0.0
578(13) 0.00581 589.9 0.0
602(14) 0.00542 589.9 0.0
599(13) 0.00592 589.9 0.0
603(13) 0.00617 589.9 0.0
601(13) 0.00571 589.9 0.0
592(13) 0.00562 589.9 0.0
599(13) 0.00577 589.9 0.0
614(13) 0.00596 589.8 0.0
595(13) 0.00621 589.8 0.0
576(13) 0.00587 589.8 0.0
591(13) 0.00559 589.8 0.0
567(13) 0.00592 589.8 0.0
584(13) 0.00608 589.8 0.0
581(13) 0.00638 589.8 0.0
580(13) 0.00585 589.8 0.0
622(14) 0.00516 589.8 0.0
580(13) 0.00593 589.7 0.0
562(12) 0.00641 589.7 0.0
622(13) 0.00593 589.7 0.0
576(13) 0.00601 589.7 0.0
576(13) 0.00559 589.7 0.0
558(13) 0.00632 589.7 0.0
539(12) 0.00695 589.7 0.0
586(13) 0.00629 589.7 0.0
593(13) 0.00590 589.7 0.0
583(14) 0.00548 589.6 0.0
579(13) 0.00590 589.6 0.0
596(13) 0.00623 589.6 0.0
581(13) 0.00633 589.6 0.0
603(13) 0.00575 589.6 0.0
627(14) 0.00503 589.6 0.0
589(13) 0.00593 589.6 0.0
617(13) 0.00596 589.6 0.0
612(13) 0.00607 589.5 0.0
603(13) 0.00582 589.5 0.0
588(13) 0.00570 589.5 0.0
628(14) 0.00545 589.5 0.0
601(13) 0.00618 589.5 0.0
569(13) 0.00632 589.5 0.0
575(13) 0.00602 589.5 0.0
596(14) 0.00548 589.5 0.0
599(13) 0.00559 589.5 0.0
589(13) 0.00627 589.4 0.0
563(13) 0.00627 589.4 0.0
587(13) 0.00587 589.4 0.0
597(13) 0.00555 589.4 0.0
619(14) 0.00545 589.4 0.0
611(13) 0.00610 589.4 0.0
635(13) 0.00555 589.4 0.0
595(13) 0.00571 589.4 0.0
564(13) 0.00609 589.4 0.0
592(13) 0.00604 589.3 0.0
602(13) 0.00614 589.3 0.0
601(13) 0.00580 589.3 0.0
569(13) 0.00601 589.3 0.0
559(13) 0.00623 589.3 0.0
589(13) 0.00605 589.3 0.0
621(13) 0.00595 589.3 0.0
567(13) 0.00612 589.3 0.0
611(14) 0.00543 589.3 0.0
592(13) 0.00583 589.2 0.0
588(13) 0.00613 589.2 0.0
594(13) 0.00629 589.2 0.0
629(14) 0.00542 589.2 0.0
599(13) 0.00559 589.2 0.0
568(13) 0.00623 589.2 0.0
590(13) 0.00618 589.2 0.0
564(12) 0.00653 589.2 0.0
598(13) 0.00573 589.1 0.0
616(14) 0.00522 589.1 0.0
582(13) 0.00606 589.1 0.0
604(13) 0.00608 589.1 0.0
607(13) 0.00613 589.1 0.0
608(13) 0.00558 589.1 0.0
551(13) 0.00580 589.1 0.0
574(13) 0.00594 589.1 0.0
643(13) 0.00571 589.1 0.0
579(12) 0.00642 589.0 0.0
590(13) 0.00587 589.0 0.0
591(13) 0.00555 589.0 0.0
585(13) 0.00593 589.0 0.0
604(13) 0.00606 589.0 0.0
613(13) 0.00598 589.0 0.0
574(13) 0.00618 589.0 0.0
588(13) 0.00559 589.0 0.0
604(13) 0.00580 589.0 0.0
592(13) 0.00628 588.9 0.0
607(13) 0.00602 588.9 0.0
603(13) 0.00575 588.9 0.0
628(14) 0.00534 588.9 0.0
569(13) 0.00614 588.9 0.0
579(13) 0.00640 588.9 0.0
623(13) 0.00570 588.9 0.0
573(13) 0.00600 588.9 0.0
576(13) 0.00571 588.9 0.0
586(13) 0.00584 588.8 0.0
579(12) 0.00643 588.8 0.0
550(12) 0.00657 588.8 0.0
602(13) 0.00551 588.8 0.0
580(13) 0.00592 588.8 0.0
608(13) 0.00558 588.8 0.0
585(13) 0.00632 588.8 0.0
602(13) 0.00572 588.8 0.0
595(13) 0.00564 588.7 0.0
606(13) 0.00551 588.7 0.0
559(12) 0.00653 588.7 0.0
576(12) 0.00642 588.7 0.0
596(13) 0.00586 588.7 0.0
597(13) 0.00556 588.7 0.0
613(14) 0.00545 588.7 0.0
608(13) 0.00590 588.7 0.0
587(13) 0.00632 588.7 0.0
627(14) 0.00542 588.6 0.0
623(14) 0.00534 588.6 0.0
612(13) 0.00576 588.6 0.0
602(13) 0.00606 588.6 0.0
569(12) 0.00646 588.6 0.0
600(13) 0.00555 588.6 0.0
575(13) 0.00566 588.6 0.0
604(13) 0.00570 588.6 0.0
569(12) 0.00645 588.6 0.0
582(13) 0.00638 588.5 0.0
613(14) 0.00545 588.5 0.0
576(13) 0.00551 588.5 0.0
590(13) 0.00584 588.5 0.0
572(12) 0.00646 588.5 0.0
598(13) 0.00625 588.5 0.0
592(13) 0.00600 588.5 0.0
598(14) 0.00531 588.5 0.0
587(13) 0.00581 588.5 0.0
591(13) 0.00628 588.4 0.0
616(13) 0.00584 588.4 0.0
592(13) 0.00583 588.4 0.0
626(14) 0.00510 588.4 0.0
600(13) 0.00570 588.4 0.0
598(13) 0.00620 588.4 0.0
631(13) 0.00568 588.4 0.0
603(13) 0.00568 588.4 0.0
613(14) 0.00544 588.3 0.0
600(13) 0.00571 588.3 0.0
590(13) 0.00627 588.3 0.0
608(13) 0.00579 588.3 0.0
589(13) 0.00567 588.3 0.0
574(13) 0.00598 588.4 0.0
623(14) 0.00547 588.4 0.0
583(13) 0.00633 588.4 0.0
597(13) 0.00588 588.5 0.0
567(13) 0.00616 588.5 0.0
610(14) 0.00540 588.5 0.0
582(13) 0.00607 588.6 0.0
614(13) 0.00606 588.6 0.0
616(13) 0.00565 588.7 0.0
606(13) 0.00572 588.7 0.0
598(13) 0.00580 588.7 0.0
626(13) 0.00566 588.8 0.0
554(12) 0.00667 588.8 0.0
584(13) 0.00611 588.8 0.0
590(13) 0.00576 588.9 0.0
612(13) 0.00559 588.9 0.0
605(13) 0.00603 588.9 0.0
594(13) 0.00619 589.0 0.0
591(13) 0.00588 589.0 0.0
611(13) 0.00550 589.0 0.0
603(13) 0.00575 589.1 0.0
614(13) 0.00596 589.1 0.0
608(13) 0.00611 589.2 0.0
593(13) 0.00593 589.2 0.0
618(14) 0.00526 589.2 0.0
595(13) 0.00584 589.3 0.0
597(13) 0.00607 589.3 0.0
572(12) 0.00646 589.3 0.0
583(13) 0.00620 589.4 0.0
593(13) 0.00555 589.4 0.0
580(13) 0.00592 589.4 0.0
597(13) 0.00616 589.5 0.0
561(12) 0.00667 589.5 0.0
575(13) 0.00617 589.6 0.0
604(14) 0.00523 589.6 0.0
555(13) 0.00620 589.6 0.0
601(13) 0.00615 589.7 0.0
622(13) 0.00583 589.7 0.0
593(13) 0.00585 589.7 0.0
586(13) 0.00553 589.8 0.0
619(14) 0.00538 589.8 0.0
574(13) 0.00634 589.8 0.0
597(13) 0.00618 589.9 0.0
591(13) 0.00593 589.9 0.0
597(13) 0.00560 589.9 0.0
587(13) 0.00589 590.0 0.0
559(12) 0.00664 590.0 0.0
601(13) 0.00598 590.1 0.0
578(13) 0.00596 590.1 0.0
566(13) 0.00571 590.1 0.0
577(13) 0.00581 590.2 0.0
584(13) 0.00639 590.2 0.0
583(13) 0.00607 590.2 0.0
622(14) 0.00542 590.3 0.0
589(13) 0.00572 590.3 0.0
558(13) 0.00616 590.3 0.0
589(13) 0.00627 590.4 0.0
618(13) 0.00573 590.4 0.0
577(13) 0.00583 590.5 0.0
622(14) 0.00535 590.5 0.0
598(13) 0.00596 590.5 0.0
593(13) 0.00621 590.6 0.0
608(13) 0.00576 590.6 0.0
633(14) 0.00524 590.6 0.0
602(13) 0.00572 590.7 0.0
624(13) 0.00564 590.7 0.0
622(13) 0.00603 590.7 0.0
615(14) 0.00544 590.8 0.0
576(13) 0.00592 590.8 0.0
560(13) 0.00612 590.8 0.0
584(13) 0.00609 590.9 0.0
625(13) 0.00594 590.9 0.0
567(13) 0.00609 591.0 0.0
590(13) 0.00556 591.0 0.0
558(13) 0.00638 591.0 0.0
605(13) 0.00595 591.1 0.0
589(13) 0.00623 591.1 0.0
590(13) 0.00583 591.1 0.0
581(13) 0.00558 591.2 0.0
607(13) 0.00566 591.2 0.0
610(13) 0.00592 591.2 0.0
637(13) 0.00579 591.3 0.0
638(14) 0.00521 591.3 0.0
554(13) 0.00591 591.3 0.0
606(13) 0.00557 591.4 0.0
611(13) 0.00602 591.4 0.0
599(13) 0.00615 591.5 0.0
593(13) 0.00584 591.5 0.0
616(14) 0.00533 591.5 0.0
645(14) 0.00545 591.6 0.0
605(13) 0.00602 591.6 0.0
583(13) 0.00633 591.6 0.0
565(13) 0.00625 591.7 0.0
599(13) 0.00553 591.7 0.0
603(13) 0.00583 591.7 0.0
617(13) 0.00597 591.8 0.0
601(13) 0.00602 591.8 0.0
620(13) 0.00563 591.9 0.0
639(14) 0.00515 591.9 0.0
575(13) 0.00607 591.9 0.0
579(12) 0.00646 592.0 0.0
599(13) 0.00583 592.0 0.0
593(13) 0.00597 592.0 0.0
582(13) 0.00591 592.1 0.0
621(13) 0.00554 592.1 0.0
638(13) 0.00581 592.1 0.0
601(13) 0.00600 592.2 0.0
577(13) 0.00595 592.2 0.0
589(13) 0.00570 592.2 0.0
577(13) 0.00618 592.3 0.0
576(12) 0.00649 592.3 0.0
605(13) 0.00570 592.4 0.0
605(13) 0.00556 592.4 0.0
573(13) 0.00598 592.4 0.0
611(13) 0.00585 592.5 0.0
572(12) 0.00644 592.5 0.0
598(13) 0.00578 592.5 0.0
574(13) 0.00579 592.6 0.0
586(13) 0.00585 592.6 0.0
602(13) 0.00596 592.6 0.0
620(13) 0.00599 592.7 0.0
622(13) 0.00552 592.7 0.0
614(14) 0.00536 592.8 0.0
583(13) 0.00599 592.8 0.0
598(13) 0.00610 592.8 0.0
599(13) 0.00617 592.9 0.0
601(13) 0.00585 592.9 0.0
593(13) 0.00556 592.9 0.0
611(13) 0.00557 593.0 0.0
585(13) 0.00629 593.0 0.0
617(13) 0.00595 593.0 0.0
630(14) 0.00533 593.1 0.0
607(14) 0.00519 593.1 0.0
621(13) 0.00557 593.1 0.0
638(13) 0.00571 593.2 0.0
596(13) 0.00613 593.2 0.0
624(14) 0.00546 593.3 0.0
617(14) 0.00516 593.3 0.0
610(13) 0.00571 593.3 0.0
631(13) 0.00587 593.4 0.0
617(13) 0.00592 593.4 0.0
614(13) 0.00583 593.4 0.0
589(13) 0.00550 593.5 0.0
607(13) 0.00562 593.5 0.0
584(13) 0.00634 593.5 0.0
557(12) 0.00656 593.6 0.0
598(13) 0.00587 593.6 0.0
581(13) 0.00577 593.7 0.0
601(13) 0.00576 593.7 0.0
613(13) 0.00606 593.7 0.0
601(13) 0.00598 593.8 0.0
660(14) 0.00504 593.8 0.0
594(13) 0.00580 593.8 0.0
632(14) 0.00530 593.9 0.0
578(13) 0.00638 593.9 0.0
594(13) 0.00601 593.9 0.0
603(13) 0.00564 594.0 0.0
573(13) 0.00593 594.0 0.0
588(13) 0.00580 594.0 0.0
633(13) 0.00589 594.1 0.0
612(13) 0.00576 594.1 0.0
605(13) 0.00552 594.2 0.0
585(13) 0.00573 594.2 0.0
612(13) 0.00573 594.2 0.0
606(13) 0.00612 594.3 0.0
621(13) 0.00563 594.3 0.0
616(14) 0.00547 594.3 0.0
616(13) 0.00558 594.4 0.0
613(13) 0.00577 594.4 0.0
629(13) 0.00587 594.4 0.0
602(13) 0.00595 594.5 0.0
609(14) 0.00542 594.5 0.0
633(13) 0.00549 594.6 0.0
624(13) 0.00587 594.6 0.0
617(13) 0.00607 594.6 0.0
584(13) 0.00594 594.7 0.0
572(13) 0.00571 594.7 0.0
590(13) 0.00575 594.7 0.0
605(13) 0.00598 594.8 0.0
586(13) 0.00632 594.8 0.0
621(13) 0.00561 594.8 0.0
605(13) 0.00559 594.9 0.0
624(13) 0.00560 594.9 0.0
578(13) 0.00635 594.9 0.0
586(13) 0.00635 595.0 0.0
592(13) 0.00586 595.0 0.0
614(14) 0.00515 595.1 0.0
591(13) 0.00581 595.1 0.0
599(13) 0.00620 595.1 0.0
590(13) 0.00613 595.2 0.0
629(14) 0.00531 595.2 0.0
602(14) 0.00542 595.2 0.0
595(13) 0.00573 595.3 0.0
608(13) 0.00616 595.3 0.0
600(13) 0.00588 595.3 0.0
581(13) 0.00588 595.4 0.0
604(13) 0.00563 595.4 0.0
620(13) 0.00558 595.4 0.0
602(13) 0.00614 595.5 0.0
606(13) 0.00593 595.5 0.0
612(13) 0.00564 595.6 0.0
639(14) 0.00524 595.6 0.0
596(13) 0.00594 595.6 0.0
614(13) 0.00604 595.7 0.0
613(13) 0.00572 595.7 0.0
585(13) 0.00595 595.7 0.0
571(13) 0.00602 595.8 0.0
617(13) 0.00564 595.8 0.0
595(13) 0.00624 595.8 0.0
605(13) 0.00594 595.9 0.1
609(13) 0.00554 595.9 0.1
604(13) 0.00554 596.0 0.1
583(13) 0.00621 596.0 0.1
615(13) 0.00607 596.0 0.1
614(13) 0.00570 596.1 0.1
577(13) 0.00603 596.1 0.1
589(13) 0.00593 596.1 0.1
604(13) 0.00597 596.2 0.1
590(13) 0.00631 596.2 0.1
613(13) 0.00567 596.2 0.1
595(13) 0.00561 596.3 0.1
613(13) 0.00560 596.3 0.1
584(13) 0.00624 596.3 0.1
613(13) 0.00608 596.4 0.1
606(13) 0.00570 596.4 0.1
609(14) 0.00542 596.5 0.1
585(13) 0.00590 596.5 0.1
618(13) 0.00583 596.5 0.2
624(13) 0.00595 596.6 0.2
629(13) 0.00557 596.6 0.2
617(14) 0.00534 596.6 0.2
616(13) 0.00574 596.7 0.2
597(13) 0.00622 596.7 0.3
620(13) 0.00592 596.7 0.3
623(13) 0.00557 596.8 0.3
614(14) 0.00518 596.8 0.4
637(14) 0.00542 596.9 0.4
620(13) 0.00601 596.9 0.5
585(13) 0.00632 596.9 0.5
587(13) 0.00593 597.0 0.6
607(14) 0.00530 597.0 0.7
621(13) 0.00566 597.0 0.7
637(13) 0.00574 597.1 0.8
620(13) 0.00590 597.1 0.9
626(13) 0.00554 597.1 1.0
613(14) 0.00535 597.2 1.1
637(14) 0.00542 597.2 1.2
609(13) 0.00610 597.2 1.2
588(13) 0.00621 597.3 1.3
625(14) 0.00543 597.3 1.4
626(14) 0.00526 597.4 1.4
608(13) 0.00565 597.4 1.5
625(13) 0.00594 597.4 1.5
607(13) 0.00596 597.5 1.5
604(13) 0.00556 597.5 1.4
580(13) 0.00557 597.5 1.4
609(13) 0.00561 597.6 1.3
610(13) 0.00609 597.6 1.2
614(13) 0.00580 597.6 1.1
584(13) 0.00592 597.8 1.1
596(13) 0.00568 598.1 1.0
592(13) 0.00583 598.3 0.9
562(12) 0.00659 598.5 0.8
619(13) 0.00565 598.8 0.7
589(13) 0.00591 599.0 0.6
576(13) 0.00615 599.2 0.6
627(13) 0.00572 599.5 0.5
657(13) 0.00564 599.7 0.5
627(13) 0.00560 599.9 0.4
613(13) 0.00555 600.1 0.4
614(13) 0.00568 600.4 0.3
637(13) 0.00568 600.6 0.3
624(13) 0.00595 600.8 0.3
596(13) 0.00564 601.1 0.2
589(13) 0.00551 601.3 0.2
597(13) 0.00580 601.5 0.2
611(13) 0.00601 601.7 0.2
630(13) 0.00591 602.0 0.1
587(13) 0.00590 602.2 0.1
645(14) 0.00495 602.4 0.1
611(13) 0.00573 602.7 0.1
600(13) 0.00611 602.9 0.1
617(13) 0.00595 603.1 0.1
619(14) 0.00542 603.4 0.1
605(14) 0.00524 603.6 0.1
599(13) 0.00586 603.8 0.1
618(13) 0.00601 604.0 0.1
593(13) 0.00625 604.3 0.1
624(13) 0.00554 604.5 0.1
619(14) 0.00511 604.7 0.1
578(13) 0.00604 605.0 0.1
645(13) 0.00579 605.2 0.1
619(13) 0.00593 605.4 0.1
570(13) 0.00616 605.7 0.1
600(13) 0.00552 605.9 0.1
621(13) 0.00560 606.1 0.1
594(13) 0.00624 606.3 0.0
598(13) 0.00617 606.6 0.0
625(14) 0.00541 606.8 0.0
605(13) 0.00549 607.0 0.0
598(13) 0.00572 607.3 0.0
597(13) 0.00625 607.5 0.0
612(13) 0.00597 607.7 0.0
610(13) 0.00575 608.0 0.0
640(14) 0.00524 608.2 0.0
593(13) 0.00579 608.4 0.0
641(13) 0.00583 608.6 0.0
601(13) 0.00587 608.9 0.0
607(13) 0.00570 609.1 0.0
620(14) 0.00547 609.3 0.0
605(13) 0.00590 609.6 0.0
608(13) 0.00611 609.8 0.0
614(13) 0.00561 610.0 0.0
564(13) 0.00597 610.3 0.0
574(13) 0.00611 610.5 0.0
619(13) 0.00578 610.7 0.0
614(13) 0.00605 610.9 0.0
631(14) 0.00543 611.2 0.0
599(13) 0.00557 611.4 0.0
602(13) 0.00571 611.6 0.0
639(13) 0.00568 611.9 0.0
581(13) 0.00635 612.1 0.0
618(13) 0.00558 612.3 0.0
609(13) 0.00556 612.6 0.0
646(14) 0.00533 612.8 0.0
614(13) 0.00593 613.0 0.0
665(13) 0.00561 613.2 0.0
618(13) 0.00552 613.5 0.0
631(14) 0.00517 613.7 0.0
625(13) 0.00555 613.9 0.0
617(13) 0.00598 614.2 0.0
611(13) 0.00611 614.4 0.0
610(13) 0.00563 614.6 0.0
624(14) 0.00518 614.9 0.0
605(13) 0.00573 615.1 6.7
653(13) 0.00569 615.3 6.8
620(13) 0.00594 615.5 6.9
624(13) 0.00561 615.8 7.0
610(14) 0.00530 616.0 7.1
617(13) 0.00563 616.2 7.2
607(13) 0.00615 616.5 7.4
663(14) 0.00547 616.7 7.5
625(13) 0.00562 616.9 7.6
631(14) 0.00507 617.1 7.7
636(14) 0.00529 617.4 7.9
618(13) 0.00597 617.6 8.0
608(13) 0.00606 617.8 8.2
604(13) 0.00594 618.1 8.3
652(14) 0.00511 618.3 8.5
626(13) 0.00552 618.5 8.6
592(13) 0.00634 618.8 8.8
600(13) 0.00601 619.0 8.9
619(14) 0.00537 619.2 9.1
601(13) 0.00558 619.4 9.3
645(14) 0.00537 619.7 9.4
636(13) 0.00585 619.9 9.6
596(13) 0.00597 620.1 9.8
595(13) 0.00587 620.4 10.0
573(13) 0.00588 620.6 10.2
587(13) 0.00593 620.8 10.4
586(13) 0.00635 621.1 10.6
617(13) 0.00566 621.3 10.8
602(13) 0.00569 621.5 11.0
618(13) 0.00550 621.7 11.3
625(13) 0.00580 622.0 11.5
601(13) 0.00616 622.2 11.7
642(14) 0.00531 622.4 12.0
618(14) 0.00538 622.7 12.2
599(13) 0.00585 622.9 12.5
630(13) 0.00579 623.1 12.8
617(13) 0.00604 623.4 13.1
647(14) 0.00516 623.6 13.4
630(14) 0.00521 623.8 13.7
622(14) 0.00548 624.0 14.0
586(13) 0.00625 624.3 14.3
623(13) 0.00595 624.5 14.6
622(14) 0.00540 624.7 15.0
608(14) 0.00529 625.0 15.3
622(13) 0.00557 625.2 15.7
611(13) 0.00602 625.4 16.1
654(13) 0.00563 625.7 16.5
627(13) 0.00567 625.9 16.9
647(14) 0.00505 626.1 17.4
621(13) 0.00581 626.3 17.8
622(13) 0.00597 626.6 18.3
607(13) 0.00612 626.8 18.8
615(13) 0.00575 627.0 19.3
623(14) 0.00507 627.3 19.8
601(13) 0.00563 627.5 20.4
628(13) 0.00591 627.7 20.9
637(13) 0.00575 628.0 21.5
606(13) 0.00587 628.2 22.2
622(14) 0.00526 628.4 22.8
626(14) 0.00543 628.6 23.5
618(13) 0.00601 628.9 24.2
636(13) 0.00578 629.1 25.0
632(14) 0.00546 629.3 25.7
633(14) 0.00522 629.6 26.6
634(14) 0.00548 629.8 27.4
641(13) 0.00580 630.0 28.3
607(13) 0.00596 630.3 29.3
631(13) 0.00551 630.5 30.3
632(13) 0.00549 630.7 31.3
639(14) 0.00546 630.9 32.4
611(13) 0.00605 631.2 33.6
632(13) 0.00576 631.4 34.8
637(14) 0.00526 631.6 36.1
662(14) 0.00499 631.9 37.4
679(14) 0.00523 632.1 38.9
651(13) 0.00569 632.3 40.4
643(14) 0.00544 632.5 42.0
655(14) 0.00525 632.8 43.7
631(14) 0.00547 633.0 45.5
643(14) 0.00545 633.2 47.5
626(13) 0.00595 633.5 49.5
653(14) 0.00535 633.7 51.7
643(14) 0.00521 633.9 54.1
620(13) 0.00560 634.2 56.6
689(14) 0.00523 634.4 59.3
665(13) 0.00555 634.6 62.2
673(14) 0.00514 634.8 65.3
667(14) 0.00508 635.1 68.6
686(14) 0.00507 635.3 72.2
670(13) 0.00549 635.5 76.1
674(14) 0.00547 635.8 80.3
664(14) 0.00520 636.0 84.9
647(14) 0.00501 636.2 89.8
670(14) 0.00516 636.5 95.2
673(14) 0.00542 636.7 101.1
662(13) 0.00557 636.9 107.6
683(14) 0.00503 637.1 114.7
651(14) 0.00509 637.4 122.5
682(14) 0.00505 637.6 131.2
702(14) 0.00526 637.8 140.8
742(14) 0.00497 638.1 151.4
726(14) 0.00481 638.3 163.4
745(15) 0.00432 638.5 176.7
762(15) 0.00459 638.8 191.7
740(14) 0.00498 639.0 208.8
731(14) 0.00507 639.2 228.1
810(15) 0.00425 639.4 250.2
807(16) 0.00412 639.7 275.7
849(16) 0.00401 639.9 305.2
856(15) 0.00436 640.1 339.8
913(16) 0.00402 640.4 380.9
969(17) 0.00363 640.6 430.7
1087(18) 0.002974 640.8 493.2
1176(19) 0.002897 641.1 574.7
1327(19) 0.002790 641.3 685.9
1656(21) 0.002203 641.5 844.1
2026(24) 0.001718 641.7 1074.9
2564(28) 0.001273 642.0 1413.6
3109(30) 0.001088 642.2 1902.4
3785(32) 0.000971 642.4 2585.6
4630(36) 0.000778 643. 3497.
5439(40) 0.000630 643. 4647.
6310(44) 0.000527 643. 6004.
7351(46) 0.000464 643. 7474.
8524(48) 0.000429 644. 8880.
9962(53) 0.000355 644. 9953.
11154(58) 0.0003020 644. 10396.
11470(59) 0.0002910 644. 10059.
10547(55) 0.0003313 645. 9057.
8675(49) 0.000421 645. 7679.
6743(45) 0.000504 645. 6206.
5139(39) 0.000650 645. 4826.
3897(34) 0.000888 645.4 3643.4
3062(29) 0.001186 645.7 2698.6
2455(26) 0.001499 645.9 1985.1
2038(24) 0.001683 646.1 1471.8
1783(23) 0.001885 646.3 1114.8
1545(21) 0.002263 646.6 871.2
1402(20) 0.002586 646.8 704.7
1304(19) 0.002843 647.0 588.1
1122(18) 0.003056 647.3 503.3
1107(18) 0.002998 647.5 438.6
1032(17) 0.003424 647.7 387.2
1000(17) 0.00365 647.9 345.1
913(16) 0.00406 648.2 309.7
914(16) 0.00368 648.4 279.6
859(16) 0.00385 648.6 253.6
826(15) 0.00423 648.9 231.0
836(15) 0.00439 649.1 211.3
821(15) 0.00450 649.3 194.0
809(15) 0.00421 649.6 178.7
812(16) 0.00388 649.8 165.1
791(15) 0.00435 650.0 153.0
750(14) 0.00491 650.2 142.2
734(14) 0.00495 650.5 132.5
738(15) 0.00461 650.7 123.7
740(15) 0.00431 650.9 115.8
710(14) 0.00488 651.2 108.6
700(14) 0.00529 651.4 102.0
699(14) 0.00521 651.6 96.0
679(14) 0.00517 651.9 90.5
711(15) 0.00457 652.1 85.5
667(14) 0.00515 652.3 80.9
735(14) 0.00507 652.5 76.7
715(14) 0.00511 652.8 72.7
709(14) 0.00491 653.0 69.1
702(14) 0.00478 653.2 65.7
671(14) 0.00517 653.5 62.6
709(14) 0.00526 653.7 59.7
712(14) 0.00510 653.9 57.0
707(14) 0.00501 654.2 54.4
696(14) 0.00485 654.4 52.0
664(14) 0.00516 654.6 49.8
670(13) 0.00550 654.8 47.7
660(14) 0.00543 655.1 45.8
650(14) 0.00540 655.3 44.0
634(14) 0.00538 655.5 42.2
684(14) 0.00514 655.8 40.6
670(13) 0.00550 656.0 39.1
677(14) 0.00516 656.2 37.6
658(14) 0.00499 656.5 36.2
670(14) 0.00525 656.7 34.9
696(14) 0.00511 656.9 33.7
659(13) 0.00561 657.1 32.5
680(14) 0.00500 657.4 31.4
643(14) 0.00532 657.6 30.4
702(14) 0.00494 657.8 29.4
682(14) 0.00533 658.1 28.4
674(13) 0.00553 658.3 27.5
684(14) 0.00506 658.5 26.7
661(14) 0.00495 658.8 25.8
671(14) 0.00513 659.0 25.1
645(13) 0.00571 659.2 24.3
700(14) 0.00531 659.4 23.6
703(14) 0.00487 659.7 22.9
661(14) 0.00491 659.9 22.3
611(13) 0.00589 660.1 21.6
666(14) 0.00540 660.4 21.0
687(14) 0.00538 660.6 20.4
645(14) 0.00535 660.8 19.9
662(14) 0.00477 661.1 19.4
683(14) 0.00501 661.3 18.8
669(13) 0.00550 661.5 18.4
670(14) 0.00541 661.7 17.9
623(13) 0.00560 662.0 17.4
619(14) 0.00532 662.2 17.0
719(14) 0.00476 662.4 16.6
656(13) 0.00565 662.7 16.2
696(14) 0.00528 662.9 15.8
657(14) 0.00525 663.1 15.4
671(14) 0.00491 663.3 15.0
649(14) 0.00545 663.6 14.7
684(14) 0.00544 663.8 14.3
675(14) 0.00534 664.0 14.0
682(14) 0.00510 664.3 13.7
656(14) 0.00511 664.5 13.4
655(14) 0.00510 664.7 13.1
667(13) 0.00551 665.0 12.8
666(14) 0.00547 665.2 12.5
657(14) 0.00510 665.4 12.3
668(14) 0.00503 665.6 12.0
678(14) 0.00507 665.9 11.8
668(13) 0.00556 666.1 11.5
695(14) 0.00508 666.3 11.3
674(14) 0.00508 666.6 11.0
671(14) 0.00497 666.8 10.8
660(14) 0.00522 667.0 10.6
676(13) 0.00549 667.3 10.4
662(14) 0.00534 667.5 10.2
682(14) 0.00492 667.7 10.0
688(14) 0.00497 667.9 9.8
668(14) 0.00536 668.2 9.6
665(13) 0.00559 668.4 9.4
671(14) 0.00501 668.6 9.3
686(14) 0.00480 668.9 9.1
688(14) 0.00497 669.1 8.9
687(14) 0.00524 669.3 8.8
683(14) 0.00537 669.6 8.6
696(14) 0.00482 669.8 8.5
675(14) 0.00486 670.0 8.3
642(14) 0.00541 670.2 8.2
657(13) 0.00554 670.5 8.0
656(13) 0.00563 670.7 7.9
665(14) 0.00513 670.9 7.8
664(14) 0.00502 671.2 7.6
654(14) 0.00541 671.4 7.5
695(14) 0.00519 671.6 7.4
642(13) 0.00572 671.9 7.3
641(14) 0.00541 672.1 7.1
637(14) 0.00516 672.3 7.0
642(13) 0.00550 672.5 6.9
675(14) 0.00541 672.8 6.8
678(14) 0.00542 673.0 0.0
671(14) 0.00526 673.2 0.0
704(15) 0.00454 673.5 0.0
698(14) 0.00497 673.7 0.0
664(13) 0.00557 673.9 0.0
693(14) 0.00529 674.2 0.0
710(14) 0.00499 674.4 0.0
690(15) 0.00473 674.6 0.0
691(14) 0.00497 674.8 0.0
650(13) 0.00566 675.1 0.0
681(14) 0.00536 675.3 0.0
699(14) 0.00495 675.5 0.0
678(15) 0.00476 675.8 0.0
691(14) 0.00493 676.0 0.0
662(13) 0.00563 676.2 0.0
675(14) 0.00532 676.5 0.0
667(14) 0.00526 676.7 0.0
676(14) 0.00495 676.9 0.0
718(15) 0.00469 677.1 0.0
707(14) 0.00524 677.4 0.0
679(14) 0.00523 677.6 0.0
649(14) 0.00523 677.8 0.0
669(14) 0.00500 678.1 0.0
636(13) 0.00549 678.3 0.0
668(13) 0.00553 678.5 0.0
671(14) 0.00531 678.7 0.0
667(14) 0.00517 679.0 0.0
689(14) 0.00496 679.2 0.0
727(14) 0.00482 679.4 0.0
703(14) 0.00525 679.7 0.0
691(14) 0.00512 679.9 0.0
673(14) 0.00499 680.1 0.0
681(14) 0.00501 680.4 0.0
708(14) 0.00507 680.6 0.0
661(13) 0.00561 680.8 0.0
705(14) 0.00483 681.0 0.0
688(14) 0.00480 681.3 0.0
732(15) 0.00451 681.5 0.0
682(14) 0.00526 681.7 0.0
673(13) 0.00553 682.0 0.0
699(14) 0.00486 682.2 0.0
666(14) 0.00497 682.4 0.0
705(14) 0.00486 682.7 0.0
725(14) 0.00504 682.9 0.0
673(14) 0.00545 683.1 0.0
695(14) 0.00482 683.3 0.0
683(14) 0.00483 683.6 0.0
687(14) 0.00505 683.8 0.0
693(14) 0.00534 684.0 0.0
707(14) 0.00523 684.3 0.0
670(14) 0.00502 684.5 0.0
655(14) 0.00488 684.7 0.0
692(14) 0.00509 685.0 0.0
676(14) 0.00539 685.2 0.0
696(14) 0.00528 685.4 0.0
691(14) 0.00487 685.6 0.0
686(15) 0.00468 685.9 0.0
681(14) 0.00506 686.1 0.0
706(14) 0.00525 686.3 0.0
674(14) 0.00539 686.6 0.0
682(14) 0.00502 686.8 0.0
713(15) 0.00454 687.0 0.0
694(14) 0.00507 687.3 0.0
692(14) 0.00534 687.5 0.0
677(14) 0.00529 687.7 0.0
680(14) 0.00515 687.9 0.0
698(15) 0.00473 688.2 0.0
698(14) 0.00480 688.4 0.0
708(14) 0.00522 688.6 0.0
721(14) 0.00497 688.9 0.0
714(14) 0.00482 689.1 0.0
677(14) 0.00494 689.3 0.0
672(14) 0.00516 689.6 0.0
693(14) 0.00535 689.8 0.0
728(14) 0.00486 690.0 0.0
674(14) 0.00515 690.2 0.0
675(14) 0.00498 690.5 0.0
657(14) 0.00533 690.7 0.0
669(13) 0.00553 690.9 0.0
687(14) 0.00509 691.2 0.0
687(14) 0.00513 691.4 0.0
712(14) 0.00495 691.6 0.0
682(14) 0.00522 692.1 0.0
729(14) 0.00509 692.7 0.0
669(14) 0.00512 693.2 0.0
689(14) 0.00484 693.7 0.0
700(14) 0.00490 694.3 0.0
677(14) 0.00536 694.8 0.0
698(14) 0.00527 695.4 0.0
649(13) 0.00553 695.9 0.0
689(14) 0.00482 696.5 0.0
702(14) 0.00493 697.0 0.0
718(14) 0.00500 697.5 0.0
707(14) 0.00521 698.1 0.0
723(14) 0.00487 698.6 0.0
698(14) 0.00480 699.2 0.0
681(14) 0.00522 699.7 0.0
715(14) 0.00506 700.2 0.0
715(14) 0.00520 700.8 0.0
714(14) 0.00484 701.3 0.0
740(15) 0.00427 701.9 0.0
696(14) 0.00495 702.4 0.0
697(14) 0.00526 703.0 0.0
711(14) 0.00517 703.5 0.0
708(14) 0.00486 704.0 0.0
709(15) 0.00460 704.6 0.0
744(15) 0.00458 705.1 0.0
694(14) 0.00538 705.7 0.0
733(14) 0.00505 706.2 0.0
726(14) 0.00484 706.8 0.0
744(15) 0.00435 707.3 0.0
711(14) 0.00490 707.8 0.0
754(14) 0.00493 708.4 0.0
689(14) 0.00531 708.9 0.0
691(14) 0.00505 709.5 0.0
676(14) 0.00498 710.0 0.0
713(14) 0.00483 710.6 0.0
739(14) 0.00498 711.1 0.0
755(14) 0.00476 711.6 0.0
711(14) 0.00485 712.2 0.0
739(15) 0.00448 712.7 0.0
682(14) 0.00518 713.3 0.0
702(14) 0.00527 713.8 0.0
766(15) 0.00468 714.4 0.0
758(15) 0.00456 714.9 9.2
707(14) 0.00487 715.4 9.3
729(14) 0.00491 716.0 9.4
753(14) 0.00494 716.5 9.5
730(14) 0.00488 717.1 9.7
699(14) 0.00488 717.6 9.8
697(14) 0.00486 718.2 9.9
715(14) 0.00499 718.7 10.0
709(14) 0.00523 719.2 10.1
712(14) 0.00483 719.8 10.2
710(14) 0.00480 720.3 10.4
746(15) 0.00452 720.9 10.5
709(14) 0.00498 721.4 10.6
680(14) 0.00545 721.9 10.7
700(14) 0.00483 722.5 10.9
724(15) 0.00448 723.0 11.0
735(15) 0.00475 723.6 11.1
738(14) 0.00492 724.1 11.3
742(14) 0.00498 724.7 11.4
708(14) 0.00479 725.2 11.6
744(15) 0.00427 725.7 11.7
729(14) 0.00484 726.3 12.3
724(14) 0.00506 726.8 12.5
731(14) 0.00507 727.4 12.7
713(14) 0.00486 727.9 12.8
700(15) 0.00461 728.5 13.0
720(14) 0.00482 729.0 13.2
746(14) 0.00496 729.5 13.4
743(14) 0.00493 730.1 13.5
705(14) 0.00488 730.6 13.7
721(15) 0.00442 731.2 13.9
724(14) 0.00481 731.7 14.1
771(14) 0.00481 732.3 14.3
754(14) 0.00485 732.8 14.5
772(15) 0.00444 733.3 14.7
755(15) 0.00432 733.9 14.9
729(15) 0.00472 734.4 15.2
737(14) 0.00499 735.0 15.4
762(15) 0.00468 735.5 15.6
766(15) 0.00450 736.1 15.8
716(15) 0.00468 736.6 16.1
727(15) 0.00474 737.1 16.3
741(14) 0.00498 737.7 16.5
779(15) 0.00456 738.2 16.8
752(15) 0.00452 738.8 17.1
745(15) 0.00443 739.3 17.3
799(15) 0.00431 739.9 17.6
722(14) 0.00516 740.4 17.9
727(14) 0.00488 740.9 18.1
714(14) 0.00480 741.5 18.4
721(15) 0.00466 742.0 18.7
723(14) 0.00484 742.6 19.0
760(14) 0.00484 743.1 19.3
738(14) 0.00476 743.6 19.7
713(15) 0.00466 744.2 20.0
736(15) 0.00457 744.7 20.3
759(15) 0.00465 745.3 20.7
754(14) 0.00492 745.8 21.0
788(15) 0.00432 746.4 21.4
735(15) 0.00462 746.9 21.7
765(15) 0.00439 747.4 22.1
737(14) 0.00485 748.0 22.5
730(14) 0.00509 748.5 22.9
745(15) 0.00460 749.1 23.3
755(15) 0.00447 749.6 23.7
754(15) 0.00457 750.2 24.2
786(15) 0.00454 750.7 24.6
767(14) 0.00483 751.2 25.1
739(15) 0.00470 751.8 25.6
741(15) 0.00449 752.3 26.0
746(15) 0.00469 752.9 26.5
750(14) 0.00484 753.4 27.1
776(14) 0.00479 754.0 27.6
766(15) 0.00454 754.5 28.1
765(15) 0.00430 755.0 28.7
751(15) 0.00466 755.6 29.3
770(14) 0.00479 756.1 29.9
784(15) 0.00467 756.7 30.5
746(15) 0.00471 757.2 31.1
779(16) 0.00408 757.8 31.8
808(15) 0.00418 758.3 32.4
778(14) 0.00479 758.8 33.1
773(14) 0.00476 759.4 33.8
798(15) 0.00435 759.9 34.6
754(15) 0.00444 760.5 35.3
773(15) 0.00441 761.0 36.1
749(14) 0.00498 761.6 37.0
751(14) 0.00483 762.1 37.8
754(15) 0.00451 762.6 38.7
781(16) 0.00412 763.2 39.6
750(15) 0.00456 763.7 40.5
798(15) 0.00464 764.3 41.5
793(15) 0.00461 764.8 42.5
790(15) 0.00437 765.3 43.6
790(15) 0.00423 765.9 44.7
784(15) 0.00442 766.4 45.8
785(15) 0.00468 767.0 47.0
766(15) 0.00467 767.5 48.2
752(15) 0.00457 768.1 49.5
755(15) 0.00448 768.6 50.8
803(15) 0.00437 769.1 52.2
790(15) 0.00469 769.7 53.6
781(15) 0.00458 770.2 55.1
807(16) 0.00413 770.8 56.7
776(15) 0.00440 771.3 58.3
816(15) 0.00427 771.9 60.0
756(14) 0.00490 772.4 61.8
800(15) 0.00432 772.9 63.6
766(15) 0.00455 773.5 65.6
816(15) 0.00429 774.0 67.6
815(15) 0.00436 774.6 69.8
823(15) 0.00447 775.1 72.0
804(15) 0.00434 775.7 74.4
783(15) 0.00433 776.2 76.9
780(15) 0.00445 776.7 79.5
808(15) 0.00443 777.3 82.3
850(15) 0.00434 777.8 85.2
861(16) 0.00397 778.4 88.3
853(16) 0.00384 778.9 91.6
838(16) 0.00408 779.5 95.0
778(15) 0.00468 780.0 98.7
835(15) 0.00444 780.5 102.6
834(16) 0.00413 781.1 106.7
810(16) 0.00396 781.6 111.2
883(16) 0.00384 782.2 115.9
903(16) 0.00409 782.7 121.0
852(15) 0.00430 783.3 126.5
876(16) 0.00385 783.8 132.4
851(16) 0.00379 784.3 138.7
856(16) 0.00409 784.9 145.7
897(16) 0.00413 785.4 153.2
893(15) 0.00419 786.0 161.5
917(16) 0.00377 786.5 170.7
888(16) 0.00372 787.0 181.2
950(17) 0.00364 787.6 193.2
973(16) 0.00378 788.1 207.6
962(16) 0.00383 788.7 225.3
1001(17) 0.00352 789.2 247.9
1018(18) 0.003256 789.8 277.5
1037(17) 0.003281 790.3 316.5
1215(18) 0.003069 790.8 367.7
1199(18) 0.003047 791.4 433.3
1272(19) 0.002741 791.9 514.5
1324(20) 0.002565 792.5 610.4
1475(21) 0.002293 793.0 717.2
1534(20) 0.002403 793.6 827.3
1605(21) 0.002231 794.1 927.8
1699(22) 0.002029 794.6 1002.2
1809(23) 0.001825 795.2 1035.9
1797(23) 0.001897 795.7 1025.3
1817(22) 0.002030 796.3 980.9
1714(22) 0.002065 796.8 920.2
1514(21) 0.002261 797.4 858.9
1491(21) 0.002244 797.9 808.2
1458(21) 0.002377 798.4 774.8
1443(20) 0.002558 799.0 762.5
1423(20) 0.002470 799.5 773.2
1499(21) 0.002292 800.1 807.8
1572(22) 0.002148 800.6 867.8
1626(21) 0.002167 801.2 955.6
1793(22) 0.002067 801.7 1075.8
1965(24) 0.001755 802.2 1235.6
2158(25) 0.001551 802.8 1444.3
2491(27) 0.001346 803.3 1713.6
2849(28) 0.001248 803.9 2056.8
3346(30) 0.001101 804.4 2487.7
3842(33) 0.000903 805.0 3019.1
4631(37) 0.000713 805. 3660.
5286(39) 0.000655 806. 4417.
6317(42) 0.000570 807. 5285.
7299(45) 0.000503 807. 6253.
8313(49) 0.000417 808. 7293.
9497(54) 0.0003377 808. 8360.
10537(56) 0.0003220 809. 9386.
11574(57) 0.0003103 809. 10279.
12266(58) 0.0002962 810. 10933.
12615(61) 0.0002690 810. 11250.
12217(62) 0.0002593 811. 11175.
11652(58) 0.0002931 811. 10722.
10685(54) 0.0003408 812. 9965.
9644(52) 0.000377 813. 9009.
8483(50) 0.000402 813. 7957.
7453(48) 0.000429 814. 6892.
6562(44) 0.000526 814. 5873.
5699(39) 0.000647 815. 4939.
4956(37) 0.000734 815. 4109.
4249(35) 0.000816 815.8 3393.1
3830(34) 0.000851 816.3 2791.3
3495(32) 0.000988 816.9 2296.0
3029(29) 0.001225 817.4 1896.2
2763(28) 0.001296 818.0 1578.0
2422(27) 0.001423 818.5 1327.6
2207(26) 0.001506 819.1 1131.7
2091(24) 0.001668 819.6 978.1
1978(23) 0.001879 820.1 857.0
1799(22) 0.002000 820.7 760.3
1680(22) 0.002035 821.2 682.0
1551(21) 0.002196 821.8 617.3
1518(21) 0.002311 822.3 562.8
1537(20) 0.002419 822.9 516.2
1399(20) 0.002529 823.4 475.7
1323(20) 0.002626 823.9 440.1
1354(20) 0.002435 824.5 408.5
1231(19) 0.002811 825.0 380.3
1201(18) 0.003094 825.6 354.9
1236(19) 0.002799 826.1 332.0
1193(19) 0.002885 826.6 311.1
1107(18) 0.003144 827.2 292.2
1125(18) 0.003148 827.7 275.0
1108(17) 0.003332 828.3 259.2
1089(18) 0.003252 828.8 244.7
1106(18) 0.003065 829.4 231.3
1052(17) 0.003418 829.9 219.1
1041(17) 0.003460 830.4 207.7
995(16) 0.00374 831.0 197.2
1003(17) 0.003375 831.5 187.5
1000(17) 0.003275 832.1 178.5
1025(17) 0.003291 832.6 170.1
1013(17) 0.00359 833.2 162.3
1000(16) 0.00371 833.7 155.0
989(17) 0.003473 834.2 148.2
945(17) 0.003386 834.8 141.8
896(16) 0.00390 835.3 135.8
933(16) 0.00396 835.9 130.2
914(16) 0.00401 836.4 124.9
971(17) 0.003506 837.0 120.0
925(17) 0.00352 837.5 115.3
932(16) 0.00377 838.0 110.9
912(16) 0.00403 838.6 106.7
905(16) 0.00407 839.1 102.8
924(16) 0.00374 839.7 99.1
892(17) 0.00360 840.2 95.6
904(16) 0.00379 840.8 92.2
885(15) 0.00424 841.3 89.1
895(16) 0.00413 841.8 86.1
900(16) 0.00376 842.4 83.2
889(16) 0.00369 842.9 80.5
883(16) 0.00384 843.5 77.9
853(15) 0.00436 844.0 75.4
891(16) 0.00410 844.6 73.1
899(16) 0.00392 845.1 70.8
916(17) 0.00360 845.6 68.7
864(16) 0.00398 846.2 66.7
875(15) 0.00424 846.7 64.7
861(15) 0.00417 847.3 62.8
891(16) 0.00380 847.8 61.0
858(16) 0.00398 848.3 59.3
883(16) 0.00386 848.9 57.7
849(15) 0.00435 849.4 56.1
884(16) 0.00406 850.0 54.6
900(16) 0.00378 850.5 53.1
885(16) 0.00372 851.1 51.7
876(16) 0.00393 851.6 50.4
859(15) 0.00433 852.1 49.1
906(16) 0.00381 852.7 47.9
895(16) 0.00375 853.2 46.7
937(17) 0.00355 853.8 45.5
857(15) 0.00419 854.3 44.4
873(15) 0.00425 854.9 43.3
901(16) 0.00383 855.4 42.3
916(16) 0.00367 855.9 42.7
891(16) 0.00390 856.5 41.8
864(15) 0.00418 857.0 40.9
863(15) 0.00430 857.6 40.0
881(16) 0.00390 858.1 39.2
876(16) 0.00377 858.7 38.4
907(16) 0.00383 859.2 37.6
882(16) 0.00413 859.7 36.9
854(15) 0.00433 860.3 36.2
873(16) 0.00400 860.8 35.5
884(16) 0.00374 861.4 34.8
843(16) 0.00410 861.9 34.2
843(15) 0.00430 862.5 33.5
915(16) 0.00406 863.0 33.0
919(16) 0.00383 863.5 32.4
901(16) 0.00368 864.1 31.8
878(16) 0.00403 864.6 31.3
852(15) 0.00433 865.2 30.8
862(15) 0.00427 865.7 30.3
906(16) 0.00373 866.3 29.8
859(16) 0.00376 866.8 29.4
867(16) 0.00400 867.3 28.9
853(15) 0.00429 867.9 28.5
884(16) 0.00414 868.4 28.1
874(16) 0.00398 869.0 27.7
893(17) 0.00357 869.5 27.4
882(16) 0.00394 870.0 27.0
958(16) 0.00388 870.6 26.7
907(16) 0.00402 871.2 26.4
907(16) 0.00386 871.8 26.1
848(16) 0.00397 872.4 25.8
864(16) 0.00398 873.0 25.5
901(16) 0.00412 873.6 25.3
925(16) 0.00391 874.2 25.1
876(16) 0.00389 874.7 24.8
839(16) 0.00400 875.3 24.6
911(16) 0.00376 875.9 24.5
893(16) 0.00415 876.5 24.3
870(15) 0.00417 877.1 24.2
870(16) 0.00399 877.7 24.0
910(17) 0.00366 878.3 24.0
909(16) 0.00377 878.9 23.9
903(16) 0.00411 879.5 23.8
887(16) 0.00398 880.1 23.8
865(16) 0.00397 880.7 23.8
852(16) 0.00402 881.2 23.8
926(16) 0.00373 881.8 23.9
915(16) 0.00405 882.4 24.0
890(16) 0.00395 883.0 24.1
903(16) 0.00375 883.6 24.2
897(16) 0.00384 884.2 24.4
919(16) 0.00392 884.8 24.7
915(16) 0.00402 885.4 25.0
890(16) 0.00384 886.0 25.3
880(16) 0.00376 886.6 25.7
886(16) 0.00387 887.1 26.2
890(16) 0.00405 887.7 26.8
905(16) 0.00411 888.3 27.4
921(16) 0.00374 888.9 28.1
899(16) 0.00367 889.5 29.0
898(16) 0.00391 890.1 30.0
906(16) 0.00404 890.7 31.1
898(16) 0.00415 891.3 32.4
871(16) 0.00395 891.9 34.0
908(17) 0.00357 892.5 35.7
937(16) 0.00371 893.1 37.8
943(16) 0.00390 893.6 40.2
957(16) 0.00383 894.2 43.1
947(17) 0.00366 894.8 46.5
954(17) 0.003410 895.4 50.5
937(16) 0.00370 896.0 55.4
959(16) 0.00385 896.6 61.3
983(16) 0.00375 897.2 68.8
990(17) 0.003462 897.8 78.6
1006(18) 0.003166 898.4 92.3
1055(17) 0.003301 899.0 113.6
1153(18) 0.003217 899.5 149.8
1270(19) 0.002891 900.1 213.6
1369(20) 0.002565 900.7 325.0
1564(22) 0.002092 901.3 508.0
1812(23) 0.001888 901.9 783.4
2004(23) 0.001845 902.5 1154.7
2198(25) 0.001663 903.1 1593.2
2562(27) 0.001350 903.7 2027.4
2864(29) 0.001172 904.3 2341.0
3398(32) 0.000996 904.9 2411.9
3647(31) 0.001009 905.5 2206.5
3154(30) 0.001111 906.0 1815.5
2264(26) 0.001498 906.6 1366.9
1723(23) 0.001966 907.2 956.0
1453(20) 0.002441 907.8 631.4
1266(18) 0.002934 908.4 404.0
1127(18) 0.003151 909.0 250.4
1089(18) 0.003106 909.6 165.6
1029(17) 0.003288 910.2 117.6
1025(17) 0.003403 910.8 90.0
1057(17) 0.00351 911.4 72.9
983(17) 0.00358 911.9 61.3
988(17) 0.003450 912.5 52.7
995(17) 0.003450 913.1 45.9
929(16) 0.00383 913.7 40.4
980(16) 0.00380 914.3 35.8
948(17) 0.00363 914.9 31.9
925(16) 0.00369 915.5 28.6
952(17) 0.00355 916.1 25.8
929(16) 0.00391 916.7 23.4
956(16) 0.00386 917.3 21.3
940(16) 0.00373 917.8 19.5
944(17) 0.003458 918.4 17.9
956(17) 0.00360 919.0 16.5
980(16) 0.00374 919.6 15.2
949(16) 0.00392 920.2 14.1
940(16) 0.00372 920.8 13.1
947(17) 0.003362 921.4 12.2
966(17) 0.00352 922.0 11.4
929(16) 0.00395 922.6 10.7
949(16) 0.00388 923.2 10.0
931(16) 0.00374 923.8 9.4
955(17) 0.003422 924.3 8.9
962(17) 0.00363 924.9 8.4
954(16) 0.00382 925.5 7.9
946(16) 0.00391 926.1 7.5
976(17) 0.00355 926.7 7.1
912(17) 0.00361 927.3 6.7
932(16) 0.00372 927.9 6.4
938(16) 0.00395 928.5 6.1
968(16) 0.00378 929.1 5.8
924(16) 0.00371 929.7 5.5
977(17) 0.003367 930.2 5.3
933(16) 0.00381 930.8 5.0
925(16) 0.00400 931.4 4.8
981(16) 0.00370 932.0 4.6
906(16) 0.00385 932.6 4.4
902(16) 0.00369 933.2 4.2
930(16) 0.00377 933.8 4.1
942(16) 0.00395 934.4 5.2
946(16) 0.00382 935.0 5.1
979(17) 0.003494 935.6 4.9
954(17) 0.003504 936.2 4.8
926(16) 0.00375 936.7 4.7
989(16) 0.00376 937.3 4.6
1003(17) 0.00362 937.9 4.5
957(17) 0.00359 938.5 4.4
929(17) 0.00367 939.1 4.3
946(17) 0.00366 939.7 4.2
977(16) 0.00379 940.3 4.1
957(16) 0.00377 940.9 4.1
932(16) 0.00375 941.5 4.0
950(17) 0.00360 942.1 3.9
913(16) 0.00389 942.6 3.8
937(16) 0.00396 943.2 3.8
960(17) 0.00357 943.8 3.7
937(17) 0.00358 944.4 3.7
921(16) 0.00377 945.0 3.6
956(17) 0.00366 945.6 3.6
944(16) 0.00393 946.2 3.5
961(17) 0.00356 946.8 3.5
932(17) 0.00361 947.4 3.5
949(16) 0.00367 948.0 3.4
965(16) 0.00378 948.6 3.4
971(16) 0.00385 949.1 3.4
986(17) 0.00352 949.7 3.3
930(17) 0.00359 950.3 3.3
934(16) 0.00367 950.9 3.3
947(16) 0.00387 951.5 3.3
924(16) 0.00396 952.1 3.2
939(17) 0.00367 952.7 3.2
965(18) 0.003260 953.3 3.2
1007(17) 0.003394 953.9 3.2
1001(16) 0.00369 954.5 1.8
944(16) 0.00388 955.0 1.8
943(17) 0.00361 955.6 1.8
954(17) 0.003358 956.2 1.8
993(17) 0.003425 956.8 1.8
957(16) 0.00384 957.4 1.9
978(16) 0.00378 958.0 1.9
980(17) 0.003490 958.6 1.9
996(18) 0.003216 959.2 1.9
967(17) 0.00357 959.8 1.9
1005(16) 0.00368 960.4 1.9
957(16) 0.00383 961.0 2.0
947(17) 0.00366 961.5 2.0
938(17) 0.00351 962.1 2.0
944(16) 0.00375 962.7 2.0
987(16) 0.00375 963.3 2.1
962(16) 0.00374 963.9 2.1
951(16) 0.00368 964.5 2.1
921(16) 0.00370 965.1 2.1
979(17) 0.003481 965.7 2.1
974(16) 0.00381 966.3 2.2
949(16) 0.00379 966.9 2.2
971(17) 0.00355 967.4 2.2
976(17) 0.003434 968.0 2.2
979(17) 0.003457 968.6 2.3
992(16) 0.00374 969.2 2.3
1001(17) 0.00359 969.8 2.3
963(17) 0.00355 970.4 2.3
976(17) 0.003448 971.0 2.4
938(16) 0.00381 971.6 2.4
945(16) 0.00392 972.2 2.4
976(17) 0.00358 972.8 2.5
994(17) 0.003406 973.3 2.5
1019(17) 0.003359 973.9 2.5
984(17) 0.00363 974.5 2.5
997(16) 0.00371 975.1 2.6
993(17) 0.00353 975.7 2.6
991(17) 0.003405 976.3 2.6
959(17) 0.00356 977.0 2.7
993(17) 0.00362 977.6 2.7
1010(16) 0.00369 978.2 2.7
978(17) 0.003470 978.9 2.8
975(17) 0.003360 979.5 2.8
969(17) 0.00358 980.1 2.8
945(16) 0.00386 980.8 2.9
982(16) 0.00378 981.4 2.9
971(17) 0.00356 982.0 3.0
974(17) 0.003331 982.7 3.0
986(17) 0.00353 983.3 3.0
988(16) 0.00373 983.9 3.1
993(16) 0.00374 984.6 3.1
953(17) 0.00365 985.2 3.2
1011(18) 0.003170 985.9 3.2
1002(17) 0.003461 986.5 3.2
986(16) 0.00370 987.1 3.3
997(17) 0.00367 987.8 3.3
974(17) 0.00361 988.4 3.4
1025(18) 0.003128 989.0 3.4
1014(17) 0.003407 989.7 3.5
1003(17) 0.00366 990.3 3.5
1008(17) 0.00363 990.9 3.6
998(17) 0.00354 991.6 3.6
1035(18) 0.003263 992.2 3.7
1042(18) 0.003253 992.8 3.7
984(16) 0.00373 993.5 3.8
999(17) 0.00366 994.1 3.8
1008(17) 0.003412 994.7 3.9
1026(18) 0.003255 995.4 4.0
1039(17) 0.003292 996.0 4.0
993(16) 0.00369 996.6 4.1
1020(17) 0.003501 997.3 4.1
1014(17) 0.003371 997.9 4.2
996(17) 0.003362 998.5 4.3
1009(17) 0.003375 999.2 4.3
992(16) 0.00372 999.8 4.4
1061(17) 0.003292 1000.4 4.5
997(17) 0.003391 1001.1 4.5
1001(17) 0.003382 1001.7 4.6
1010(17) 0.003462 1002.3 4.7
1003(17) 0.00366 1003.0 4.8
1029(17) 0.003381 1003.6 4.8
988(17) 0.003469 1004.2 4.9
1004(17) 0.003371 1004.9 5.0
1040(17) 0.003435 1005.5 5.1
1046(17) 0.00353 1006.1 5.2
998(17) 0.003438 1006.8 5.3
989(17) 0.003406 1007.4 5.4
1032(17) 0.003316 1008.0 5.4
1018(17) 0.00354 1008.7 5.5
1017(17) 0.00366 1009.3 5.6
1063(18) 0.003236 1009.9 5.7
1043(18) 0.003183 1010.6 5.9
1011(17) 0.003433 1011.2 6.0
1023(17) 0.00354 1011.8 6.1
1058(17) 0.003500 1012.5 6.2
999(17) 0.003492 1013.1 6.3
1016(18) 0.003229 1013.8 6.4
1027(17) 0.003362 1014.4 6.5
1013(17) 0.00367 1015.0 6.7
976(16) 0.00377 1015.7 6.8
1047(17) 0.003310 1016.3 6.9
1025(18) 0.003124 1016.9 7.1
1020(17) 0.003426 1017.6 7.2
1066(17) 0.003442 1018.2 7.4
1048(17) 0.00352 1018.8 7.5
1086(18) 0.003205 1019.5 7.7
1038(18) 0.003124 1020.1 7.8
1084(18) 0.003133 1020.7 8.0
1026(17) 0.00362 1021.4 8.2
1057(17) 0.003479 1022.0 8.3
1007(17) 0.003428 1022.6 8.5
995(17) 0.003283 1023.3 8.7
1041(18) 0.003260 1023.9 8.9
1062(17) 0.003484 1024.5 9.1
1009(17) 0.00362 1025.2 9.3
1035(17) 0.003388 1025.8 9.5
1080(18) 0.003039 1026.4 9.8
1031(17) 0.003381 1027.1 10.0
1028(17) 0.00359 1027.7 10.2
1031(17) 0.003487 1028.3 10.5
1050(17) 0.003284 1029.0 10.7
1025(17) 0.003275 1029.6 11.0
1008(17) 0.003400 1030.2 11.3
1074(17) 0.003470 1030.9 11.6
1066(17) 0.003333 1031.5 11.9
1045(17) 0.003324 1032.1 12.2
1063(18) 0.003167 1032.8 12.5
1021(17) 0.003433 1033.4 12.8
1058(17) 0.003497 1034.0 13.2
1087(18) 0.003207 1034.7 13.6
1047(18) 0.003228 1035.3 13.9
1061(18) 0.003168 1035.9 14.3
1055(17) 0.003344 1036.6 14.8
1062(17) 0.003498 1037.2 15.2
1051(17) 0.003285 1037.8 15.6
1010(17) 0.003368 1038.5 16.1
1047(17) 0.003300 1039.1 16.6
1097(17) 0.003306 1039.8 17.1
1067(17) 0.003463 1040.4 17.6
1043(17) 0.003370 1041.0 18.2
1038(17) 0.003283 1041.7 18.8
1033(17) 0.003327 1042.3 19.4
995(17) 0.00361 1042.9 20.1
1052(17) 0.00354 1043.6 20.8
1060(17) 0.003275 1044.2 21.5
1076(18) 0.003011 1044.8 22.2
1079(18) 0.003222 1045.5 23.0
1075(17) 0.003404 1046.1 23.9
1076(17) 0.003426 1046.7 24.8
1074(18) 0.003259 1047.4 25.7
1055(18) 0.003060 1048.0 26.7
1036(17) 0.003371 1048.6 27.7
1078(17) 0.003370 1049.3 28.9
1116(17) 0.003293 1049.9 30.0
1077(18) 0.003219 1050.5 31.3
1107(18) 0.002927 1051.2 32.6
1070(17) 0.003273 1051.8 34.0
1086(17) 0.003398 1052.4 35.6
1077(17) 0.003401 1053.1 37.2
1055(17) 0.003326 1053.7 38.9
1056(18) 0.003138 1054.3 40.7
1068(17) 0.003273 1055.0 42.7
1079(17) 0.003440 1055.6 44.9
1118(18) 0.003207 1056.2 47.1
1107(18) 0.003118 1056.9 49.6
1122(18) 0.002973 1057.5 52.3
1138(18) 0.003002 1058.1 55.1
1132(18) 0.003258 1058.8 58.3
1119(18) 0.003250 1059.4 61.7
1164(18) 0.002999 1060.0 65.4
1127(18) 0.003027 1060.7 69.4
1132(18) 0.003061 1061.3 73.8
1132(17) 0.003279 1061.9 78.7
1175(18) 0.002995 1062.6 84.0
1146(18) 0.003006 1063.2 90.0
1122(18) 0.003020 1063.8 96.6
1096(18) 0.003197 1064.5 104.1
1162(18) 0.003182 1065.1 112.7
1123(18) 0.003189 1065.8 122.5
1247(19) 0.002683 1066.4 134.0
1220(19) 0.002839 1067.0 147.7
1198(18) 0.002978 1067.7 164.0
1252(18) 0.002958 1068.3 183.8
1286(20) 0.002622 1068.9 208.0
1324(20) 0.002529 1069.6 237.6
1270(19) 0.002704 1070.2 274.1
1304(19) 0.002752 1070.8 318.8
1423(20) 0.002590 1071.5 373.4
1435(21) 0.002375 1072.1 439.3
1531(21) 0.002188 1072.7 518.1
1655(22) 0.002097 1073.4 610.8
1746(22) 0.002069 1074.0 718.3
1857(22) 0.001991 1074.6 840.8
1982(24) 0.001736 1075.3 977.5
2250(26) 0.001436 1075.9 1126.5
2399(26) 0.001424 1076.5 1284.4
2520(26) 0.001431 1077.2 1445.9
2640(27) 0.001403 1077.8 1603.5
2932(29) 0.001168 1078.4 1746.8
3011(31) 0.001069 1079.1 1863.4
3017(30) 0.001146 1079.7 1940.9
3012(29) 0.001222 1080.3 1969.5
3003(29) 0.001218 1081.0 1945.3
2941(29) 0.001175 1081.6 1871.6
2750(29) 0.001160 1082.2 1757.7
2530(27) 0.001369 1082.9 1616.3
2387(25) 0.001552 1083.5 1459.5
2258(25) 0.001614 1084.1 1297.9
2142(25) 0.001627 1084.8 1139.4
2011(25) 0.001630 1085.4 989.5
1900(24) 0.001809 1086.0 851.8
1775(22) 0.002095 1086.7 728.1
1687(22) 0.002156 1087.3 619.3
1635(22) 0.002089 1087.9 525.3
1562(22) 0.002067 1088.6 445.4
1479(21) 0.002332 1089.2 378.5
1396(19) 0.002642 1089.8 323.1
1403(20) 0.002581 1090.5 277.5
1401(20) 0.002472 1091.1 240.4
1343(20) 0.002486 1091.8 210.2
1309(20) 0.002592 1092.4 185.7
1301(19) 0.002841 1093.0 165.5
1271(19) 0.002808 1093.7 148.9
1306(20) 0.002617 1094.3 135.1
1301(20) 0.002518 1094.9 123.4
1210(19) 0.002827 1095.6 113.5
1179(18) 0.003146 1096.2 104.8
1219(19) 0.002871 1096.8 97.2
1230(19) 0.002767 1097.5 90.5
1265(19) 0.002668 1098.1 84.5
1191(18) 0.002958 1098.7 79.1
1224(18) 0.003015 1099.4 74.3
1197(19) 0.002903 1100.0 69.8
1135(18) 0.002932 1100.6 65.8
1148(18) 0.003039 1101.3 62.1
1186(18) 0.003023 1101.9 58.7
1177(18) 0.003142 1102.5 55.5
1178(19) 0.002890 1103.2 52.6
1157(19) 0.002913 1103.8 50.0
1166(18) 0.002960 1104.4 47.5
1162(18) 0.003092 1105.1 45.2
1148(18) 0.003240 1105.7 43.0
1213(19) 0.002828 1106.3 41.0
1207(19) 0.002693 1107.0 39.2
1147(18) 0.003054 1107.6 37.5
1146(18) 0.003139 1108.2 35.8
1162(18) 0.003161 1108.9 34.3
1179(18) 0.002941 1109.5 32.9
1110(18) 0.002957 1110.1 31.5
1149(18) 0.002998 1110.8 30.3
1159(18) 0.003130 1111.4 29.1
1107(17) 0.003327 1112.0 28.0
1183(19) 0.002888 1112.7 26.9
1143(19) 0.002743 1113.3 25.9
1127(18) 0.003091 1113.9 25.0
1170(18) 0.003161 1114.6 24.1
1192(18) 0.003068 1115.2 23.3
1094(18) 0.003176 1115.8 22.5
1098(18) 0.002977 1116.5 21.7
1173(18) 0.002941 1117.1 21.0
1121(17) 0.003309 1117.8 20.3
1163(18) 0.003083 1118.4 19.6
1196(19) 0.002896 1119.0 19.0
1129(19) 0.002912 1119.7 18.4
1095(18) 0.003145 1120.3 17.9
1115(17) 0.003329 1120.9 17.3
1162(18) 0.003131 1121.6 16.8
1149(18) 0.002965 1122.2 16.3
1126(18) 0.002995 1122.8 15.9
1128(18) 0.003036 1123.5 15.4
1091(17) 0.003402 1124.1 15.0
1110(18) 0.003258 1124.7 14.6
1164(18) 0.002993 1125.4 14.2
1176(19) 0.002895 1126.0 13.8
1217(19) 0.002857 1126.6 13.4
1143(18) 0.003224 1127.3 13.1
1128(18) 0.003195 1127.9 12.8
1167(19) 0.002912 1128.5 12.4
1152(19) 0.002904 1129.2 12.1
1086(18) 0.003185 1129.8 11.8
1144(18) 0.003234 1130.4 11.6
1122(18) 0.003114 1131.1 11.3
1148(18) 0.002953 1131.7 11.0
1161(18) 0.002941 1132.3 10.8
1152(18) 0.003137 1133.0 10.5
1071(17) 0.003440 1133.6 10.3
1193(19) 0.002847 1134.2 10.0
1135(18) 0.002988 1134.9 9.8
1169(18) 0.002930 1135.5 9.6
1164(18) 0.003098 1136.1 9.4
1185(18) 0.003119 1136.8 9.2
1120(18) 0.003100 1137.4 9.0
1142(19) 0.002819 1138.0 8.8
1111(18) 0.003088 1138.7 8.7
1166(18) 0.003109 1139.3 8.5
1173(18) 0.003173 1139.9 8.3
1149(18) 0.003015 1140.6 8.2
1146(19) 0.002840 1141.2 8.0
1151(18) 0.003037 1141.8 7.9
1170(18) 0.003133 1142.5 7.7
1187(18) 0.003062 1143.1 7.6
1137(18) 0.003053 1143.7 7.4
1196(19) 0.002667 1144.4 7.3
1196(19) 0.002861 1145.0 7.2
1169(18) 0.003112 1145.7 7.0
1113(17) 0.003338 1146.3 6.9
1169(18) 0.002971 1146.9 6.8
1192(19) 0.002705 1147.6 6.7
1123(18) 0.003157 1148.2 6.6
1177(18) 0.003106 1148.8 6.5
1164(18) 0.003144 1149.5 6.4
1136(18) 0.003036 1150.1 6.3
1170(19) 0.002792 1150.7 6.2
1166(18) 0.002973 1151.4 6.1
1213(18) 0.003043 1152.0 6.0
1150(18) 0.003128 1152.6 5.9
1185(19) 0.002909 1153.3 5.8
1190(19) 0.002743 1153.9 5.8
1183(19) 0.002877 1154.5 5.7
1159(18) 0.003204 1155.2 5.6
1133(18) 0.003171 1155.4 5.5
1144(18) 0.002973 1155.6 5.5
1171(19) 0.002816 1155.7 5.4
1140(18) 0.003047 1155.9 5.3
1126(17) 0.003287 1156.1 5.3
1162(18) 0.003079 1156.2 5.2
1147(18) 0.003035 1156.4 5.1
1183(19) 0.002917 1156.5 5.1
1184(18) 0.002984 1156.7 5.0
1179(18) 0.003142 1156.9 5.0
1141(18) 0.003124 1157.0 4.9
1171(19) 0.002861 1157.2 4.9
1131(18) 0.003038 1157.4 4.8
1173(18) 0.003023 1157.5 4.8
1214(18) 0.003066 1157.7 4.8
1170(18) 0.002938 1157.8 4.7
1146(18) 0.002965 1158.0 4.7
1139(18) 0.002997 1158.2 4.7
1131(18) 0.003154 1158.3 4.6
1138(18) 0.003223 1158.5 4.6
1190(19) 0.002884 1158.6 4.6
1183(19) 0.002875 1158.8 4.6
1205(19) 0.002866 1159.0 4.5
1195(18) 0.003007 1159.1 4.5
1193(18) 0.003090 1159.3 4.5
1176(18) 0.002961 1159.5 4.5
1168(19) 0.002830 1159.6 4.5
1173(18) 0.002966 1159.8 4.5
1146(18) 0.003166 1159.9 4.5
1160(18) 0.003201 1160.1 4.5
1161(18) 0.002993 1160.3 4.5
1150(19) 0.002808 1160.4 4.5
1162(18) 0.003025 1160.6 4.5
1173(18) 0.003128 1160.8 4.5
1197(18) 0.003057 1160.9 4.5
1177(18) 0.002939 1161.1 4.5
1104(18) 0.002933 1161.2 4.6
1168(18) 0.002952 1161.4 4.6
1216(18) 0.003007 1161.6 4.6
1198(18) 0.003064 1161.7 4.7
1158(18) 0.003025 1161.9 4.7
1191(19) 0.002713 1162.1 4.8
1200(19) 0.002847 1162.2 4.8
1202(18) 0.003074 1162.4 4.9
1177(18) 0.003123 1162.5 5.0
1196(19) 0.002820 1162.7 5.1
1184(19) 0.002749 1162.9 5.1
1149(18) 0.002992 1163.0 5.3
1140(18) 0.003259 1163.2 5.4
1173(18) 0.003091 1163.4 5.5
1181(19) 0.002912 1163.5 5.7
1159(19) 0.002896 1163.7 5.8
1138(18) 0.003043 1163.8 6.0
1129(17) 0.003266 1164.0 6.2
1223(18) 0.002955 1164.2 6.5
1188(19) 0.002868 1164.3 6.7
1162(19) 0.002890 1164.5 7.0
1152(18) 0.003041 1164.6 7.4
1201(18) 0.003066 1164.8 7.8
1200(18) 0.002971 1165.0 8.3
1189(19) 0.002850 1165.1 8.9
1191(19) 0.002880 1165.3 9.7
1237(19) 0.002784 1165.5 10.6
1189(18) 0.003116 1165.6 11.7
1226(19) 0.002833 1165.8 13.0
1274(20) 0.002622 1165.9 14.6
1207(19) 0.002844 1166.1 16.6
1175(18) 0.003060 1166.3 18.9
1236(18) 0.002995 1166.4 21.8
1233(19) 0.002747 1166.6 25.1
1192(19) 0.002860 1166.8 28.9
1215(19) 0.002861 1166.9 33.3
1246(19) 0.002909 1167.1 38.2
1246(18) 0.002965 1167.2 43.7
1201(19) 0.002865 1167.4 49.5
1274(20) 0.002547 1167.6 55.7
1296(19) 0.002652 1167.7 62.0
1278(19) 0.002828 1167.9 68.3
1246(18) 0.002985 1168.1 74.0
1260(19) 0.002751 1168.2 79.0
1271(20) 0.002529 1168.4 82.6
1302(20) 0.002601 1168.5 84.7
1308(19) 0.002828 1168.7 84.9
1330(19) 0.002785 1168.9 83.2
1302(19) 0.002643 1169.0 79.8
1311(20) 0.002402 1169.2 75.1
1286(19) 0.002729 1169.4 69.4
1254(18) 0.002946 1169.5 63.2
1274(19) 0.002842 1169.7 56.9
1234(19) 0.002769 1169.8 50.6
1255(20) 0.002611 1170.0 44.6
1278(19) 0.002725 1170.2 39.1
1256(18) 0.002938 1170.3 34.0
1221(18) 0.003012 1170.5 29.5
1259(19) 0.002688 1170.7 25.5
1190(19) 0.002798 1170.8 22.1
1201(19) 0.002886 1171.0 19.1
1176(18) 0.003134 1171.1 16.6
1202(18) 0.003027 1171.3 14.5
1229(19) 0.002790 1171.5 12.8
1186(19) 0.002816 1171.6 11.4
1196(19) 0.002813 1171.8 10.2
1186(18) 0.003099 1171.9 9.3
1218(18) 0.002954 1172.1 8.5
1261(19) 0.002703 1172.3 7.8
1259(19) 0.002644 1172.4 7.3
1211(19) 0.002863 1172.6 6.8
1187(18) 0.003121 1172.8 6.4
1179(18) 0.003013 1172.9 6.1
1148(18) 0.002945 1173.1 5.8
1172(19) 0.002895 1173.2 5.5
1184(18) 0.002990 1173.4 5.3
1180(18) 0.003142 1173.6 5.1
1195(18) 0.002946 1173.7 4.9
1195(19) 0.002861 1173.9 4.7
1188(19) 0.002876 1174.1 3.3
1218(18) 0.002961 1174.2 3.1
1196(18) 0.003094 1174.4 3.0
1221(19) 0.002871 1174.5 2.9
1266(20) 0.002575 1174.7 2.8
1220(19) 0.002836 1174.9 2.8
1238(19) 0.002915 1175.0 2.7
1166(18) 0.003179 1175.2 2.7
1165(18) 0.002960 1175.4 2.7
1238(19) 0.002659 1175.5 2.6
1196(19) 0.002880 1175.7 2.6
1159(18) 0.003161 1175.8 2.7
1237(18) 0.003003 1176.0 2.7
1199(19) 0.002921 1176.2 2.7
1191(19) 0.002748 1176.3 2.8
1167(18) 0.002987 1176.5 2.8
1158(18) 0.003214 1176.7 2.9
1186(18) 0.003132 1176.8 3.0
1240(19) 0.002755 1177.0 3.1
1182(19) 0.002752 1177.1 3.2
1223(19) 0.002879 1177.3 3.4
1196(18) 0.003069 1177.5 3.5
1181(18) 0.003128 1177.6 3.7
1186(19) 0.002883 1177.8 3.8
1196(20) 0.002628 1177.9 4.0
1213(19) 0.002858 1178.1 4.2
1219(18) 0.003051 1178.3 4.4
1257(19) 0.002903 1178.4 4.6
1239(19) 0.002742 1178.6 4.8
1225(19) 0.002667 1178.8 5.0
1176(18) 0.002924 1178.9 5.1
1201(18) 0.003058 1179.1 5.3
1206(18) 0.003001 1179.2 5.5
1204(19) 0.002891 1179.4 5.6
1219(19) 0.002760 1179.6 5.7
1220(19) 0.002779 1179.7 5.7
1139(18) 0.003238 1179.9 5.8
1186(18) 0.002993 1180.1 5.7
1228(19) 0.002743 1180.2 5.7
1170(19) 0.002871 1180.4 5.6
1165(18) 0.002977 1180.5 5.5
1158(18) 0.003193 1180.7 5.3
1205(18) 0.002928 1180.9 5.1
1217(19) 0.002801 1181.0 4.9
1215(19) 0.002813 1181.2 4.7
1182(18) 0.002958 1181.4 4.5
1241(18) 0.002991 1181.5 4.2
1197(18) 0.002978 1181.7 4.0
1253(19) 0.002701 1181.8 3.8
1236(19) 0.002758 1182.0 3.5
1198(18) 0.002962 1182.2 3.3
1197(18) 0.003098 1182.3 3.1
1217(19) 0.002805 1182.5 2.9
1223(19) 0.002764 1182.7 2.7
1212(19) 0.002867 1182.8 2.5
1242(19) 0.002896 1183.0 2.3
1198(18) 0.003106 1183.1 2.2
1212(19) 0.002915 1183.3 2.0
1194(19) 0.002819 1183.5 1.9
1179(18) 0.002936 1183.6 1.7
1250(19) 0.002917 1183.8 1.6
1177(18) 0.003127 1183.9 1.5
1225(19) 0.002813 1184.1 1.4
1216(19) 0.002664 1184.3 1.3
1242(19) 0.002793 1184.4 1.2
1244(18) 0.002926 1184.6 1.1
1220(18) 0.003026 1184.8 1.1
1186(18) 0.002927 1184.9 1.0
1244(20) 0.002590 1185.1 1.0
1198(19) 0.002896 1185.2 0.9
1206(18) 0.003048 1185.4 0.9
1184(18) 0.003095 1185.6 0.8
1167(18) 0.002996 1185.7 0.8
1142(19) 0.002854 1185.9 0.7
1180(18) 0.002962 1186.1 0.7
1227(18) 0.003019 1186.2 0.7
1169(18) 0.003124 1186.4 0.7
1186(19) 0.002849 1186.5 0.6
1194(19) 0.002773 1186.7 0.6
1177(18) 0.002933 1186.9 0.6
1166(18) 0.003165 1187.0 0.6
1225(18) 0.002974 1187.2 0.6
1214(19) 0.002867 1187.4 0.5
1144(18) 0.002960 1187.5 0.5
1131(18) 0.003091 1187.7 0.5
1211(18) 0.003069 1187.8 0.5
1155(18) 0.003146 1188.0 0.5
1223(19) 0.002752 1188.2 0.5
1178(19) 0.002889 1188.3 0.5
1203(19) 0.002908 1188.5 0.4
1228(18) 0.003027 1188.7 0.4
1212(19) 0.002913 1188.8 0.4
1195(19) 0.002854 1189.0 0.4
1216(19) 0.002784 1189.1 0.4
1185(18) 0.002969 1189.3 0.4
1189(18) 0.003105 1189.5 0.4
1186(18) 0.002958 1189.6 0.4
1198(19) 0.002852 1189.8 0.4
1211(19) 0.002783 1190.0 0.4
1208(19) 0.002916 1190.1 0.3
1249(18) 0.002972 1190.3 0.3
1231(19) 0.002827 1190.4 0.3
1198(19) 0.002825 1190.6 0.3
1191(19) 0.002909 1190.8 0.3
1184(18) 0.003025 1190.9 0.3
1218(18) 0.003049 1191.1 0.3
1194(19) 0.002855 1191.2 0.3
1191(19) 0.002804 1191.4 0.3
1173(18) 0.002941 1191.6 0.3
1213(18) 0.003005 1191.7 0.3
1203(18) 0.003074 1191.9 0.3
1178(18) 0.003015 1192.1 0.3
1257(20) 0.002589 1192.2 0.3
1200(18) 0.002922 1192.4 0.3
1164(18) 0.003181 1192.5 0.3
1212(18) 0.003033 1192.7 0.3
1187(19) 0.002901 1192.9 0.2
1170(19) 0.002787 1193.0 0.2
1182(18) 0.002955 1193.2 0.2
1176(18) 0.003123 1193.4 0.2
1217(18) 0.003002 1193.5 0.2
1171(18) 0.002965 1193.7 0.2
1193(19) 0.002653 1193.8 0.2
1207(19) 0.002866 1194.0 0.2
1191(18) 0.003128 1194.2 0.2
1152(18) 0.003201 1194.3 0.2
1190(19) 0.002882 1194.5 0.2
1240(20) 0.002577 1194.7 0.2
1200(19) 0.002869 1194.8 0.2
1241(18) 0.002976 1195.0 0.2
1206(18) 0.003054 1195.1 0.2
1174(18) 0.002970 1195.3 0.2
1180(19) 0.002815 1194.9 0.2
1212(19) 0.002804 1194.4 0.2
1154(18) 0.003201 1194.0 0.2
1241(18) 0.002943 1193.5 0.2
1216(19) 0.002811 1193.0 0.2
1208(19) 0.002732 1192.5 0.2
1213(19) 0.002818 1192.0 0.2
1210(18) 0.003067 1191.6 0.2
1207(18) 0.002941 1191.1 0.2
1198(19) 0.002816 1190.6 0.2
1212(19) 0.002775 1190.1 0.2
1208(19) 0.002896 1189.6 0.2
1238(18) 0.002997 1189.1 0.2
1238(19) 0.002858 1188.7 0.2
1223(19) 0.002753 1188.2 0.2
1173(19) 0.002917 1187.7 0.2
1165(18) 0.003030 1187.2 0.2
1177(18) 0.003148 1186.7 0.2
1226(19) 0.002837 1186.3 0.1
1228(19) 0.002762 1185.8 0.1
1217(19) 0.002839 1185.3 0.1
1224(19) 0.002915 1184.8 0.1
1236(18) 0.002989 1184.3 0.1
1174(19) 0.002919 1183.9 0.1
1217(19) 0.002765 1183.4 0.1
1249(19) 0.002814 1182.9 0.1
1220(18) 0.002969 1182.4 0.1
1197(18) 0.003109 1181.9 0.1
1196(19) 0.002910 1181.4 0.1
1189(19) 0.002782 1181.0 0.1
1199(19) 0.002885 1180.5 0.1
1225(18) 0.002954 1180.0 0.1
1174(18) 0.003166 1179.5 0.1
1192(19) 0.002907 1179.0 0.1
1175(19) 0.002798 1178.6 0.1
1195(19) 0.002907 1178.1 0.1
1162(18) 0.003165 1177.6 0.1
1185(18) 0.003105 1177.1 0.1
1215(19) 0.002787 1176.6 0.1
1134(19) 0.002794 1176.1 0.1
1207(19) 0.002876 1175.7 0.1
1219(18) 0.002995 1175.2 0.1
1177(18) 0.003090 1174.7 0.1
1218(19) 0.002792 1174.2 0.1
1192(19) 0.002718 1173.7 0.1
1200(19) 0.002870 1173.3 0.1
1225(18) 0.003022 1172.8 0.1
1142(18) 0.003199 1172.3 0.1
1164(18) 0.002989 1171.8 0.1
1206(19) 0.002708 1171.3 0.1
1226(19) 0.002792 1170.9 0.1
1207(18) 0.003066 1170.4 0.1
1206(18) 0.003022 1169.9 0.1
1165(18) 0.002977 1169.4 0.1
1150(18) 0.002974 1168.9 0.1
1178(18) 0.002952 1168.4 0.1
1173(18) 0.003170 1168.0 0.1
1173(18) 0.003079 1167.5 0.1
1190(19) 0.002901 1167.0 0.1
1162(18) 0.002953 1166.5 0.1
1192(18) 0.002936 1166.0 0.1
1220(18) 0.003029 1165.6 0.1
1199(19) 0.002914 1165.1 0.1
1184(19) 0.002889 1164.6 0.1
1219(19) 0.002765 1164.1 0.1
1178(18) 0.002988 1163.6 0.1
1186(18) 0.003137 1163.1 0.1
1187(18) 0.002947 1162.7 0.1
1183(19) 0.002843 1162.2 0.1
1177(19) 0.002846 1161.7 0.1
1202(18) 0.002937 1161.2 0.1
1157(18) 0.003190 1160.7 0.1
1166(19) 0.002909 1160.3 0.1
1196(19) 0.002837 1159.8 0.1
1178(18) 0.002933 1159.3 0.1
1180(18) 0.003027 1158.8 0.1
1170(18) 0.003168 1158.3 0.1
1150(18) 0.002986 1157.8 0.1
1165(19) 0.002849 1157.4 0.1
1192(18) 0.002949 1156.9 0.1
1218(18) 0.002967 1156.4 0.1
1222(18) 0.003008 1155.9 0.1
1194(19) 0.002905 1155.4 0.1
1173(19) 0.002801 1155.0 0.1
1186(19) 0.002878 1154.5 0.1
1155(18) 0.003186 1154.0 0.1
1237(18) 0.002978 1153.5 0.1
1177(18) 0.002976 1153.0 0.1
1158(19) 0.002833 1152.6 0.1
1205(19) 0.002867 1152.1 0.1
1173(18) 0.003145 1151.6 0.1
1230(18) 0.003005 1151.1 0.1
1191(19) 0.002910 1150.6 0.1
1189(19) 0.002724 1150.1 0.1
1197(19) 0.002876 1149.7 0.1
1214(18) 0.003030 1149.2 0.1
1180(18) 0.003111 1148.7 0.1
1155(18) 0.003024 1148.2 0.1
1176(19) 0.002779 1147.7 0.1
1167(18) 0.002980 1147.3 0.1
1190(18) 0.003100 1146.8 0.1
1187(18) 0.003084 1146.3 0.1
1170(18) 0.002932 1145.8 0.1
1143(18) 0.002944 1145.3 0.1
1150(18) 0.003019 1144.8 0.1
1218(18) 0.003037 1144.4 0.1
1224(19) 0.002850 1143.9 0.1
1150(18) 0.002964 1143.4 0.1
1148(18) 0.002959 1142.9 0.1
1198(19) 0.002893 1142.4 0.1
1152(18) 0.003204 1142.0 0.1
1180(18) 0.003000 1141.5 0.1
1196(19) 0.002889 1141.0 0.1
1209(19) 0.002748 1140.5 0.1
1172(18) 0.003006 1140.0 0.1
1152(18) 0.003203 1139.5 0.1
1157(18) 0.003073 1139.1 0.1
1160(19) 0.002915 1138.6 0.1
1169(19) 0.002871 1138.1 0.1
1138(18) 0.003101 1137.6 0.1
1173(18) 0.003166 1137.1 0.1
1164(18) 0.002989 1136.7 0.1
1168(19) 0.002844 1136.2 0.1
1148(18) 0.003030 1135.7 0.1
1195(18) 0.003018 1135.2 0.1
1159(18) 0.003210 1134.7 0.1
1152(18) 0.002934 1134.3 0.1
1176(19) 0.002816 1133.8 0.1
1203(19) 0.002849 1133.3 0.1
1166(18) 0.003130 1132.8 0.1
1204(18) 0.003081 1132.3 0.1
1193(19) 0.002811 1131.8 0.1
1153(19) 0.002841 1131.4 0.1
1175(19) 0.002903 1130.9 0.1
1160(18) 0.003183 1130.4 0.1
1138(18) 0.003234 1129.9 0.1
1159(18) 0.002938 1129.4 0.1
1101(18) 0.002959 1129.0 0.1
1130(18) 0.003089 1128.5 0.1
1159(18) 0.003171 1128.0 0.1
1157(18) 0.003184 1127.5 0.1
1128(18) 0.003062 1127.0 0.1
1139(19) 0.002858 1126.5 0.1
1171(18) 0.002960 1126.1 0.1
1162(18) 0.003144 1125.6 0.1
1163(18) 0.003137 1125.1 0.1
1140(18) 0.003014 1124.6 0.1
1152(19) 0.002806 1124.1 0.1
1119(18) 0.003129 1123.7 0.1
1131(17) 0.003280 1123.2 0.1
1111(17) 0.003280 1122.7 0.1
1177(18) 0.002933 1122.2 0.1
1191(19) 0.002735 1121.7 0.1
1164(19) 0.002894 1121.2 0.1
1123(17) 0.003313 1120.8 0.1
1147(18) 0.003119 1120.3 0.1
1113(18) 0.003138 1119.8 0.1
1140(19) 0.002914 1119.3 0.1
1136(18) 0.002973 1118.8 0.1
1102(17) 0.003337 1118.4 0.1
1170(18) 0.003052 1117.9 0.1
1114(18) 0.003004 1117.4 0.1
1129(19) 0.002899 1116.9 0.1
1158(18) 0.003016 1116.4 0.1
1133(17) 0.003273 1116.0 0.1
1129(18) 0.003100 1115.5 0.1
1127(18) 0.002989 1115.0 0.1
1139(18) 0.003024 1114.5 0.1
1144(18) 0.003104 1114.0 0.1
1139(18) 0.003225 1113.5 0.1
1105(18) 0.003160 1113.1 0.1
1170(19) 0.002842 1112.6 0.1
1120(18) 0.003059 1112.1 0.1
1085(17) 0.003318 1111.6 0.1
1094(17) 0.003374 1111.1 0.1
1155(18) 0.002945 1110.7 0.1
1126(18) 0.002978 1110.2 0.1
1122(18) 0.003111 1109.7 0.1
1148(18) 0.003116 1109.2 0.1
1117(17) 0.003294 1108.7 0.1
1122(18) 0.003069 1108.2 0.1
1109(18) 0.002971 1107.8 0.1
1176(18) 0.002938 1107.3 0.1
1113(17) 0.003299 1106.8 0.1
1121(17) 0.003306 1106.3 0.1
1136(18) 0.003093 1105.8 0.1
1099(18) 0.002938 1105.4 0.1
1132(18) 0.003074 1104.9 0.1
1144(18) 0.003216 1104.4 0.1
1108(17) 0.003321 1103.9 0.1
1109(18) 0.003174 1103.4 0.1
1141(19) 0.002751 1102.9 0.1
1162(18) 0.003000 1102.5 0.1
1138(18) 0.003265 1102.0 0.1
1117(17) 0.003268 1101.5 0.1
1116(18) 0.003106 1101.0 0.1
1129(19) 0.002858 1100.5 0.1
1126(18) 0.003048 1100.1 0.1
1124(17) 0.003303 1099.6 0.1
1125(18) 0.003183 1099.1 0.1
1107(18) 0.003135 1098.6 0.1
1083(18) 0.003151 1098.1 0.1
1145(18) 0.002998 1097.7 0.1
1078(17) 0.003430 1097.2 0.1
1130(18) 0.003160 1096.7 0.1
1117(18) 0.003069 1096.2 0.1
1118(18) 0.002986 1095.7 0.1
1115(18) 0.003081 1095.2 0.1
1105(17) 0.003302 1094.8 0.1
1111(18) 0.003166 1094.3 0.1
1043(17) 0.003398 1093.8 0.1
1132(18) 0.002942 1093.3 0.1
1131(18) 0.003044 1092.8 0.1
1100(17) 0.003367 1092.4 0.1
1130(18) 0.003098 1091.9 0.1
1144(18) 0.002986 1091.4 0.1
1137(18) 0.003028 1090.9 0.1
1116(18) 0.003160 1090.4 0.1
1064(17) 0.003475 1089.9 0.1
1090(18) 0.003164 1089.5 0.1
1066(18) 0.003179 1089.0 0.1
1091(18) 0.003115 1088.5 0.1
1119(18) 0.003185 1088.0 0.1
1126(18) 0.003259 1087.5 0.1
1110(18) 0.003058 1087.1 0.1
1077(18) 0.003132 1086.6 0.1
1105(18) 0.003106 1086.1 0.1
1140(18) 0.003139 1085.6 0.1
1092(17) 0.003422 1085.1 0.1
1099(18) 0.003155 1084.7 0.1
1092(18) 0.003065 1084.2 0.1
1113(18) 0.003085 1083.7 0.1
1123(18) 0.003236 1083.2 0.1
1105(17) 0.003357 1082.7 0.1
1107(18) 0.003111 1082.2 0.1
1122(19) 0.002846 1081.8 0.1
1093(18) 0.003142 1081.3 0.1
1155(18) 0.003157 1080.8 0.1
1138(18) 0.003258 1080.3 0.1
1126(18) 0.003073 1079.8 0.1
1076(18) 0.003015 1079.4 0.1
1114(18) 0.003109 1078.9 0.1
1064(17) 0.003446 1078.4 0.1
1099(17) 0.003386 1077.9 0.1
1097(18) 0.003173 1077.4 0.1
1123(19) 0.002862 1076.9 0.1
1105(18) 0.003116 1076.5 0.1
1090(17) 0.003403 1076.0 0.1
1079(17) 0.003378 1075.5 0.1
1127(18) 0.003089 1075.0 0.1
1121(18) 0.002924 1074.5 0.1
1092(18) 0.003147 1074.1 0.1
1107(17) 0.003352 1073.6 0.1
1056(17) 0.003400 1073.1 0.1
1076(18) 0.003108 1072.6 0.1
1073(18) 0.003073 1072.1 0.1
1096(18) 0.003115 1071.6 0.1
1058(17) 0.003488 1071.2 0.1
1072(17) 0.003361 1070.7 0.1
1082(18) 0.003065 1070.2 0.1
1071(18) 0.003071 1069.7 0.1
1100(18) 0.003123 1069.2 0.1
1068(17) 0.003450 1068.8 0.1
1059(17) 0.003420 1068.3 0.1
1069(18) 0.003242 1067.8 0.1
1058(18) 0.003250 1067.3 0.1
1065(17) 0.003333 1066.8 0.1
1054(17) 0.00353 1066.4 0.1
1064(17) 0.003284 1065.9 0.1
1054(18) 0.003254 1065.4 0.1
1123(18) 0.003056 1064.9 0.1
1119(18) 0.003138 1064.4 0.1
1115(17) 0.003318 1063.9 0.1
1092(18) 0.003080 1063.5 0.1
1103(18) 0.003093 1063.0 0.1
1077(18) 0.003226 1062.5 0.1
1047(17) 0.003471 1062.0 0.1
1087(17) 0.003388 1061.5 0.1
1056(17) 0.003285 1061.1 0.1
1024(17) 0.003305 1060.6 0.1
1066(17) 0.003293 1060.1 0.0
1043(17) 0.003495 1059.6 0.0
1084(17) 0.003415 1059.1 0.0
1081(18) 0.003202 1058.6 0.0
1028(18) 0.003172 1058.2 0.0
1037(18) 0.003250 1057.7 0.0
1091(17) 0.003350 1057.2 0.0
1131(17) 0.003274 1056.7 0.0
1066(18) 0.003247 1056.2 0.0
1036(18) 0.003049 1055.8 0.0
1060(17) 0.003311 1055.3 0.0
1023(17) 0.00359 1054.8 0.1
1022(17) 0.00359 1054.3 0.1
1032(17) 0.003311 1053.8 0.1
1028(18) 0.003098 1053.3 0.1
1024(17) 0.003329 1052.9 0.1
1046(17) 0.00351 1052.4 0.1
1115(17) 0.003303 1051.9 0.1
1118(18) 0.003088 1051.4 0.1
1029(18) 0.003244 1050.9 0.1
1067(18) 0.003261 1050.5 0.1
1021(17) 0.00363 1050.0 0.1
1104(18) 0.003204 1049.5 0.1
1079(18) 0.003165 1049.0 0.1
1059(18) 0.003165 1048.5 0.1
1029(17) 0.003307 1048.1 0.1
1047(17) 0.00352 1047.6 0.1
1028(17) 0.003451 1047.1 0.1
1075(18) 0.003197 1046.6 0.1
1039(18) 0.003226 1046.1 0.1
1045(17) 0.003298 1045.6 0.1
1033(17) 0.00360 1045.2 0.1
1042(17) 0.003439 1044.7 0.1
1075(18) 0.003137 1044.1 0.1
1049(18) 0.003260 1043.6 0.1
1068(18) 0.003246 1043.0 0.1
1051(17) 0.003500 1042.4 0.1
1066(17) 0.003287 1041.8 0.1
1053(18) 0.003181 1041.2 0.1
1036(17) 0.003310 1040.6 0.1
1066(17) 0.003327 1040.0 0.1
1066(17) 0.003439 1039.4 0.1
1060(18) 0.003250 1038.9 0.1
1032(18) 0.003211 1038.3 0.1
984(17) 0.00353 1037.7 0.1
1053(17) 0.003400 1037.1 0.1
1068(17) 0.003435 1036.5 0.1
1030(17) 0.003283 1035.9 0.1
1032(18) 0.003237 1035.3 0.1
1063(18) 0.003207 1034.7 0.1
1020(17) 0.00352 1034.1 0.1
1048(17) 0.00351 1033.6 0.1
1032(17) 0.003360 1033.0 0.1
1093(19) 0.002897 1032.4 0.1
1022(17) 0.003423 1031.8 0.1
1026(17) 0.00360 1031.2 0.1
976(16) 0.00375 1030.6 0.1
1028(17) 0.003341 1030.0 0.1
1039(18) 0.003045 1029.4 0.1
1023(17) 0.003410 1028.9 0.1
1033(17) 0.00357 1028.3 0.1
1037(17) 0.00354 1027.7 0.1
1019(17) 0.003367 1027.1 0.1
1054(18) 0.003043 1026.5 0.1
1030(17) 0.003341 1025.9 0.1
1004(17) 0.00366 1025.3 0.1
1040(17) 0.00353 1024.7 0.1
1063(18) 0.003227 1024.1 0.1
1029(18) 0.003149 1023.6 0.1
1032(17) 0.003276 1023.0 0.1
1009(17) 0.00364 1022.4 0.1
1024(17) 0.00356 1021.8 0.1
1010(17) 0.003505 1021.2 0.1
971(17) 0.003463 1020.6 0.1
975(17) 0.00356 1020.0 0.1
1070(17) 0.003469 1019.4 0.1
1054(17) 0.003375 1018.9 0.1
1048(17) 0.003307 1018.3 0.1
989(17) 0.003400 1017.7 0.1
1035(17) 0.003353 1017.1 0.1
1074(17) 0.003411 1016.5 0.1
1012(17) 0.00359 1015.9 0.1
1019(17) 0.003331 1015.3 0.1
1021(18) 0.003208 1014.7 0.1
1019(17) 0.003406 1014.1 0.1
1057(17) 0.003499 1013.6 0.1
1019(17) 0.003453 1013.0 0.1
1026(17) 0.003343 1012.4 0.1
1041(17) 0.003296 1011.8 0.1
1035(17) 0.003401 1011.2 0.1
1007(17) 0.00366 1010.6 0.1
1036(17) 0.003350 1010.0 0.1
1003(17) 0.003381 1009.4 0.1
1054(18) 0.003248 1008.9 0.1
1019(17) 0.00351 1008.3 0.1
1030(17) 0.00359 1007.7 0.2
1054(18) 0.003206 1007.1 0.2
998(17) 0.003347 1006.5 0.2
1005(17) 0.003473 1005.9 0.2
999(17) 0.00364 1005.3 0.2
1069(17) 0.003462 1004.7 0.2
1016(17) 0.003438 1004.1 0.2
997(17) 0.003333 1003.6 0.2
983(17) 0.00359 1003.0 0.2
982(16) 0.00371 1002.4 0.2
983(16) 0.00375 1001.8 0.2
963(17) 0.00356 1001.2 0.2
1020(18) 0.003109 1000.6 0.2
1015(17) 0.003418 1000.0 0.2
1023(17) 0.00354 999.4 0.2
989(16) 0.00372 998.9 0.2
1015(17) 0.003383 998.3 0.2
1047(18) 0.003058 997.7 0.2
1004(17) 0.003490 997.1 0.2
1034(17) 0.00358 996.5 0.2
986(16) 0.00369 995.9 1.4
1018(17) 0.003450 995.3 1.4
1004(17) 0.003272 994.7 1.4
989(17) 0.00351 994.1 1.4
983(16) 0.00377 993.6 1.4
983(16) 0.00372 993.0 1.5
941(16) 0.00373 992.4 1.5
1020(18) 0.003123 991.8 1.5
1014(17) 0.003459 991.2 1.6
972(16) 0.00377 990.6 1.6
996(17) 0.00360 990.0 1.6
999(17) 0.003371 989.4 1.6
980(17) 0.003323 988.9 1.7
972(17) 0.003493 988.3 1.7
959(16) 0.00386 987.7 1.7
982(17) 0.00358 987.1 1.8
981(17) 0.003494 986.5 1.8
1001(17) 0.003376 985.9 1.8
961(16) 0.00370 985.3 1.9
991(16) 0.00375 984.7 1.9
1020(17) 0.003452 984.2 1.9
959(17) 0.003476 983.6 2.0
946(17) 0.00364 983.0 2.0
1023(17) 0.003486 982.4 2.1
1003(17) 0.00367 981.8 2.1
1001(17) 0.003479 981.2 2.2
968(17) 0.003480 980.6 2.2
1029(18) 0.003241 980.0 2.3
1018(17) 0.003498 979.4 2.3
994(16) 0.00371 978.9 2.4
973(17) 0.00354 978.3 2.4
960(17) 0.003468 977.7 2.5
982(17) 0.00356 977.1 2.5
961(16) 0.00379 976.5 2.6
1007(17) 0.00366 975.9 2.6
961(17) 0.00365 975.3 2.7
956(17) 0.003466 974.7 2.8
958(17) 0.00363 974.2 2.8
976(16) 0.00372 973.6 2.9
967(16) 0.00381 973.0 3.0
1021(17) 0.003340 972.4 3.1
986(17) 0.003366 971.8 3.1
975(17) 0.00356 971.2 3.2
955(16) 0.00377 970.6 3.3
966(16) 0.00383 970.0 3.4
999(17) 0.003479 969.4 3.5
997(18) 0.003216 968.9 3.6
999(17) 0.003497 968.3 3.7
1001(17) 0.00365 967.7 3.8
980(16) 0.00376 967.1 3.9
970(17) 0.00351 966.5 4.0
922(17) 0.00362 965.9 4.2
973(17) 0.00357 965.3 4.3
937(16) 0.00394 964.7 4.4
968(16) 0.00374 964.2 4.6
942(17) 0.00367 963.6 4.7
933(17) 0.00358 963.0 4.9
993(17) 0.003479 962.4 5.1
953(16) 0.00388 961.8 5.3
921(16) 0.00386 961.2 5.5
939(16) 0.00372 960.6 5.7
987(17) 0.003354 960.0 6.0
1005(17) 0.003402 959.4 6.2
928(16) 0.00396 958.9 6.5
967(17) 0.00367 958.3 6.8
1001(17) 0.003418 957.7 7.2
992(17) 0.003370 957.1 7.5
965(17) 0.00363 956.5 7.9
959(16) 0.00383 955.9 8.4
986(17) 0.00364 955.3 8.8
1008(17) 0.003343 954.7 9.4
981(17) 0.003456 954.2 9.9
947(16) 0.00377 953.6 10.5
1019(17) 0.00364 953.0 11.2
996(17) 0.00352 952.4 11.9
981(17) 0.003468 951.8 12.7
962(17) 0.003499 951.2 13.6
991(17) 0.00362 950.6 14.5
982(16) 0.00376 950.0 15.4
925(17) 0.00367 949.4 16.5
945(17) 0.00356 948.9 17.5
969(17) 0.00360 948.3 18.7
983(17) 0.00366 947.7 19.9
932(16) 0.00396 947.1 21.1
953(17) 0.00367 946.5 22.4
946(17) 0.003505 945.9 23.7
958(17) 0.00363 945.3 25.0
1004(17) 0.00357 944.7 26.3
984(16) 0.00377 944.2 27.6
939(17) 0.00367 943.6 28.9
956(17) 0.003394 943.0 30.1
987(17) 0.00352 942.4 31.3
931(16) 0.00392 941.8 32.3
932(16) 0.00395 941.2 33.3
980(17) 0.00353 940.6 34.2
941(17) 0.003417 940.0 35.0
950(17) 0.00365 939.4 35.8
913(16) 0.00397 938.9 36.6
949(16) 0.00386 938.3 37.4
989(17) 0.00352 937.7 38.3
969(17) 0.003324 937.1 39.2
960(17) 0.00354 936.5 40.3
986(16) 0.00374 935.9 41.6
994(16) 0.00368 935.3 43.2
989(17) 0.003474 934.7 45.1
970(17) 0.003339 934.2 47.3
995(17) 0.003406 933.6 50.1
992(16) 0.00372 933.0 53.3
996(17) 0.00360 932.4 57.2
953(17) 0.00358 931.8 62.0
975(17) 0.003471 931.2 67.6
1048(17) 0.003316 930.6 74.6
1018(17) 0.00361 930.0 84.4
979(16) 0.00368 929.4 95.3
1006(17) 0.003419 928.9 109.8
1026(17) 0.003340 928.3 130.1
1096(18) 0.003188 927.7 159.8
1156(18) 0.003206 927.1 204.8
1169(18) 0.003063 926.5 273.7
1285(19) 0.002663 925.9 377.2
1406(20) 0.002423 925.3 526.8
1561(21) 0.002218 924.7 731.6
1788(22) 0.002065 924.2 993.9
2056(24) 0.001726 923.6 1304.0
2444(27) 0.001388 923.0 1635.3
2756(28) 0.001242 922.4 1939.1
3105(30) 0.001132 921.8 2144.8
3326(30) 0.001111 921.2 2185.9
3188(31) 0.001064 920.6 2046.6
2741(29) 0.001224 920.0 1776.6
2365(26) 0.001463 919.4 1449.7
2013(24) 0.001791 918.9 1125.4
1668(21) 0.002217 918.3 839.7
1429(20) 0.002393 917.7 609.1
1343(20) 0.002449 917.1 435.7
1272(19) 0.002705 916.5 312.9
1216(18) 0.002995 915.9 229.8
1131(17) 0.003289 915.3 175.1
1158(18) 0.003008 914.7 139.1
1082(18) 0.003083 914.2 114.9
1055(17) 0.003288 913.6 97.7
1000(16) 0.00370 913.0 84.9
973(16) 0.00376 912.4 74.9
984(17) 0.00354 911.8 66.7
985(17) 0.003304 911.2 59.9
968(17) 0.00360 910.6 54.1
942(16) 0.00393 910.0 49.1
966(16) 0.00382 909.5 44.9
998(17) 0.003439 908.9 41.1
966(17) 0.003270 908.3 37.9
915(16) 0.00381 907.7 35.0
918(16) 0.00397 907.1 32.5
961(16) 0.00382 906.5 30.2
958(16) 0.00367 905.9 28.2
965(17) 0.003342 905.3 26.5
896(16) 0.00384 904.7 24.9
963(16) 0.00385 904.2 23.4
901(16) 0.00407 903.6 22.1
925(16) 0.00381 903.0 20.9
908(16) 0.00368 902.4 19.8
919(16) 0.00377 901.8 18.8
899(16) 0.00412 901.2 17.9
907(16) 0.00399 900.6 17.1
897(16) 0.00385 900.0 16.4
923(17) 0.00358 899.5 15.7
898(16) 0.00382 898.9 15.0
888(15) 0.00418 898.3 14.4
915(16) 0.00387 897.7 13.9
885(16) 0.00397 897.1 13.4
951(17) 0.00352 896.5 12.9
881(16) 0.00394 895.9 12.5
876(15) 0.00424 895.3 12.1
862(16) 0.00405 894.7 11.7
900(16) 0.00377 894.2 11.4
932(16) 0.00368 893.6 11.1
866(16) 0.00415 893.0 10.8
892(16) 0.00413 892.4 10.5
927(16) 0.00378 891.8 10.3
913(16) 0.00369 891.2 10.3
907(16) 0.00375 890.6 10.2
912(16) 0.00388 890.0 10.2
891(15) 0.00418 889.5 10.4
885(16) 0.00384 888.9 10.6
919(17) 0.00354 888.3 10.9
901(16) 0.00378 887.7 11.1
882(16) 0.00404 887.1 11.1
901(16) 0.00413 886.5 10.9
925(16) 0.00371 885.9 10.4
930(17) 0.00356 885.3 9.8
919(16) 0.00377 884.7 9.3
877(15) 0.00418 884.2 8.8
900(16) 0.00410 883.6 8.5
870(16) 0.00397 883.0 8.2
901(17) 0.003477 882.4 8.1
922(16) 0.00371 881.8 8.0
918(16) 0.00399 881.2 7.9
844(15) 0.00440 880.6 7.8
871(16) 0.00391 880.0 7.7
860(17) 0.00361 879.5 7.7
891(16) 0.00385 878.9 7.6
852(15) 0.00434 878.3 7.6
878(15) 0.00419 877.7 7.5
852(16) 0.00400 877.1 7.5
843(16) 0.00386 876.5 7.5
889(16) 0.00390 875.9 7.4
878(15) 0.00420 875.3 7.4
885(15) 0.00418 874.7 7.4
895(16) 0.00386 874.2 7.4
832(16) 0.00396 873.6 7.4
872(16) 0.00390 873.0 7.4
891(16) 0.00416 872.4 7.4
920(16) 0.00392 871.8 7.4
867(16) 0.00399 871.2 7.4
883(16) 0.00371 870.7 7.4
850(16) 0.00409 870.2 7.5
865(15) 0.00427 869.6 7.5
864(16) 0.00414 869.1 7.5
847(16) 0.00411 868.6 7.5
832(16) 0.00408 868.1 7.6
863(16) 0.00405 867.5 7.6
859(15) 0.00429 867.0 7.7
924(16) 0.00387 866.5 7.7
874(16) 0.00390 866.0 7.7
885(16) 0.00383 865.4 7.8
880(16) 0.00396 864.9 7.9
850(15) 0.00437 864.4 7.9
880(16) 0.00404 863.9 8.0
853(16) 0.00395 863.3 8.1
885(16) 0.00391 862.8 8.1
858(15) 0.00420 862.3 8.2
842(15) 0.00438 861.8 8.3
861(16) 0.00392 861.2 8.4
864(16) 0.00382 860.7 8.5
885(16) 0.00393 860.2 8.6
902(16) 0.00400 859.7 8.7
863(15) 0.00426 859.2 8.8
848(16) 0.00405 858.6 8.9
866(16) 0.00375 858.1 9.0
904(16) 0.00379 857.6 9.2
873(15) 0.00419 857.1 9.3
860(15) 0.00430 856.5 9.4
853(16) 0.00404 856.0 9.6
847(16) 0.00386 855.5 9.7
863(16) 0.00404 855.0 9.9
862(15) 0.00419 854.4 10.0
841(15) 0.00438 853.9 10.2
848(16) 0.00415 853.4 10.4
864(16) 0.00380 852.9 10.6
872(16) 0.00394 852.3 10.8
901(16) 0.00405 851.8 11.0
860(15) 0.00432 851.3 11.2
897(16) 0.00381 850.8 11.4
878(16) 0.00368 850.2 11.7
842(16) 0.00411 849.7 11.9
868(15) 0.00423 849.2 12.2
864(15) 0.00422 848.7 12.4
824(15) 0.00430 848.1 12.7
858(16) 0.00379 847.6 13.0
854(16) 0.00407 847.1 13.4
860(15) 0.00431 846.6 13.7
871(15) 0.00421 846.1 14.0
845(16) 0.00408 845.5 14.4
848(16) 0.00384 845.0 14.8
846(16) 0.00412 844.5 15.2
872(15) 0.00424 844.0 15.6
836(15) 0.00437 843.4 16.1
835(15) 0.00419 842.9 16.6
879(16) 0.00384 842.4 17.1
871(16) 0.00404 841.9 17.6
854(15) 0.00429 841.3 18.2
859(16) 0.00414 840.8 18.8
871(16) 0.00389 840.3 19.5
856(16) 0.00402 839.8 20.2
869(16) 0.00406 839.2 21.0
839(15) 0.00440 838.7 21.8
825(15) 0.00422 838.2 22.7
830(16) 0.00413 837.7 23.6
884(16) 0.00387 837.1 24.7
859(16) 0.00411 836.6 25.8
846(15) 0.00437 836.1 27.0
872(16) 0.00386 835.6 28.4
868(16) 0.00388 835.0 29.9
880(16) 0.00391 834.5 31.6
901(16) 0.00398 834.0 33.4
890(16) 0.00414 833.5 35.6
889(16) 0.00393 832.9 38.1
895(16) 0.00368 832.4 41.1
866(16) 0.00395 831.9 44.7
845(15) 0.00433 831.4 49.2
863(15) 0.00430 830.9 54.8
895(16) 0.00392 830.3 62.0
905(17) 0.00367 829.8 71.2
909(16) 0.00378 829.3 82.9
895(16) 0.00412 828.8 97.6
935(16) 0.00395 828.2 115.9
958(17) 0.00361 827.7 138.1
974(17) 0.003305 827.2 164.2
993(17) 0.003430 826.7 194.2
1002(16) 0.00372 826.1 227.4
1048(17) 0.003506 825.6 262.5
1136(18) 0.003056 825.1 297.5
1108(18) 0.002940 824.6 329.3
1155(18) 0.003018 824.0 354.2
1227(18) 0.003041 823.5 368.1
1249(18) 0.002934 823.0 368.8
1210(19) 0.002856 822.5 356.4
1140(19) 0.002906 821.9 333.6
1175(18) 0.002940 821.4 304.3
1123(17) 0.003296 820.9 272.3
1032(17) 0.003490 820.4 240.6
1038(17) 0.003309 819.8 211.0
979(17) 0.003394 819.3 184.8
979(17) 0.003470 818.8 162.7
911(16) 0.00406 818.3 144.8
894(16) 0.00401 817.7 131.0
900(16) 0.00378 817.2 120.9
914(17) 0.00359 816.7 114.0
887(16) 0.00384 816.2 110.0
953(16) 0.00389 815.7 108.5
903(16) 0.00392 815.1 108.9
927(17) 0.00367 814.6 111.2
928(17) 0.00363 814.1 115.2
881(16) 0.00398 813.6 120.9
971(16) 0.00380 813.0 128.4
921(16) 0.00384 812.5 137.8
943(17) 0.00358 812.0 149.5
953(17) 0.00355 811.5 163.9
951(17) 0.00367 810.9 181.4
988(16) 0.00375 810.4 202.5
1075(18) 0.003187 809.9 227.8
1065(18) 0.003196 809.4 258.0
1104(18) 0.003098 808.8 293.6
1095(17) 0.003292 808.3 335.2
1178(18) 0.003160 807.8 383.3
1168(18) 0.002932 807.3 438.3
1280(20) 0.002577 806.7 500.5
1372(20) 0.002498 806.2 569.7
1439(20) 0.002517 805.7 645.7
1505(20) 0.002460 805.2 727.8
1622(21) 0.002170 804.6 814.7
1787(23) 0.001840 804.1 904.9
1888(23) 0.001840 803.6 995.7
1987(23) 0.001829 803.1 1083.8
2026(23) 0.001821 802.6 1165.2
2159(25) 0.001584 802.0 1235.0
2182(26) 0.001483 801.5 1288.1
2200(25) 0.001567 801.0 1320.2
2172(24) 0.001684 800.5 1328.0
2179(24) 0.001679 799.9 1310.9
2106(25) 0.001637 799.4 1270.5
2036(25) 0.001571 798.9 1210.5
1877(23) 0.001864 798.4 1135.6
1827(22) 0.002016 797.8 1050.9
1712(22) 0.002134 797.3 961.0
1645(22) 0.002099 796.8 869.8
1602(22) 0.001998 796.3 780.1
1510(21) 0.002294 795.7 694.3
1496(20) 0.002476 795.2 613.9
1335(19) 0.002707 794.7 539.8
1244(19) 0.002710 794.2 472.6
1215(19) 0.002692 793.6 412.5
1195(19) 0.002919 793.1 359.4
1224(18) 0.003003 792.6 313.1
1128(18) 0.003199 792.1 273.1
1087(18) 0.003198 791.5 238.8
1083(18) 0.003108 791.0 209.6
1024(17) 0.003288 790.5 185.0
981(16) 0.00379 790.0 164.2
947(16) 0.00375 789.4 146.8
927(16) 0.00372 788.9 132.2
938(17) 0.00362 788.4 119.8
910(16) 0.00384 787.9 109.4
903(16) 0.00412 787.4 100.5
893(16) 0.00401 786.8 92.8
874(16) 0.00397 786.3 86.2
919(16) 0.00375 785.8 80.4
896(16) 0.00394 785.3 75.3
846(15) 0.00437 784.7 70.8
851(16) 0.00411 784.2 66.7
888(16) 0.00370 783.7 63.0
836(16) 0.00408 783.2 59.6
850(16) 0.00411 782.6 56.6
869(15) 0.00423 782.1 53.8
817(15) 0.00427 781.6 51.2
833(16) 0.00407 781.1 48.8
818(15) 0.00424 780.5 46.6
811(15) 0.00438 780.0 44.5
808(15) 0.00459 779.5 42.6
809(15) 0.00428 779.0 40.8
793(16) 0.00410 778.4 39.1
765(15) 0.00450 777.9 37.6
795(15) 0.00461 777.4 36.1
821(15) 0.00450 776.9 34.8
792(15) 0.00434 776.3 33.5
811(16) 0.00392 775.8 32.3
828(15) 0.00419 775.3 31.6
797(15) 0.00461 774.8 30.6
825(15) 0.00445 774.2 29.6
812(15) 0.00433 773.7 28.7
804(16) 0.00401 773.2 27.9
827(15) 0.00418 772.7 27.1
797(15) 0.00463 772.2 26.3
798(15) 0.00460 771.6 25.6
809(15) 0.00428 771.1 24.9
768(15) 0.00430 770.6 24.3
790(15) 0.00439 770.1 23.7
808(15) 0.00455 769.5 23.2
814(15) 0.00445 769.0 22.7
792(15) 0.00428 768.5 22.2
795(16) 0.00410 768.0 21.8
806(15) 0.00431 767.4 21.4
781(15) 0.00474 766.9 21.0
786(15) 0.00461 766.4 20.7
755(15) 0.00459 765.9 20.4
739(15) 0.00444 765.3 20.1
780(15) 0.00438 764.8 19.8
788(15) 0.00470 764.3 19.6
746(14) 0.00481 763.8 19.4
772(15) 0.00440 763.2 19.2
763(15) 0.00444 762.7 19.1
797(15) 0.00433 762.2 19.0
774(14) 0.00478 761.7 18.9
804(15) 0.00428 761.1 18.9
761(15) 0.00455 760.6 18.9
757(15) 0.00460 760.1 18.9
750(15) 0.00473 759.6 19.0
782(15) 0.00473 759.1 19.1
762(15) 0.00464 758.5 19.3
809(15) 0.00417 758.0 19.6
740(15) 0.00473 757.5 19.9
790(15) 0.00452 757.0 20.3
755(14) 0.00490 756.4 20.8
780(15) 0.00437 755.9 21.4
779(15) 0.00435 755.4 22.2
789(15) 0.00441 754.9 23.1
767(15) 0.00472 754.3 24.4
794(15) 0.00466 753.8 26.3
783(15) 0.00445 753.3 29.3
769(15) 0.00438 752.8 34.9
772(15) 0.00450 752.2 45.9
825(15) 0.00447 751.7 66.9
858(15) 0.00431 751.2 103.8
879(16) 0.00396 750.7 161.4
941(17) 0.003426 750.1 239.3
998(17) 0.003460 749.6 327.5
1075(17) 0.003388 749.1 405.6
1180(18) 0.003155 748.6 446.3
1323(20) 0.002617 748.0 430.8
1243(20) 0.002566 747.5 367.2
1051(17) 0.003310 747.0 281.6
890(16) 0.00409 746.5 198.7
863(15) 0.00428 745.9 133.1
837(15) 0.00418 745.4 89.1
843(16) 0.00374 744.9 63.6
791(15) 0.00431 744.4 50.9
784(15) 0.00470 743.9 45.7
774(15) 0.00469 743.3 44.4
765(15) 0.00445 742.8 45.1
768(15) 0.00428 742.3 47.0
784(15) 0.00431 741.8 49.8
769(14) 0.00480 741.2 53.3
758(15) 0.00472 740.7 57.7
771(15) 0.00446 740.2 62.8
802(16) 0.00414 739.7 68.8
775(15) 0.00445 739.1 75.6
814(15) 0.00451 738.6 83.3
776(15) 0.00469 738.1 91.8
794(15) 0.00440 737.6 101.1
813(16) 0.00416 737.0 111.3
852(16) 0.00399 736.5 122.0
815(15) 0.00452 736.0 133.6
877(16) 0.00398 735.5 145.6
864(16) 0.00387 734.9 157.9
930(17) 0.00354 734.4 170.2
900(16) 0.00387 733.9 182.2
923(16) 0.00399 733.4 193.4
950(16) 0.00370 732.8 203.4
917(16) 0.00368 732.3 211.7
938(17) 0.00359 731.8 217.9
942(16) 0.00377 731.3 221.4
939(16) 0.00393 730.7 222.1
921(16) 0.00370 730.2 219.9
889(16) 0.00369 729.7 215.0
899(16) 0.00381 729.2 207.7
928(16) 0.00391 728.7 198.3
838(15) 0.00439 728.1 187.5
838(16) 0.00415 727.6 175.6
886(16) 0.00373 727.1 163.2
857(16) 0.00403 726.6 150.6
819(15) 0.00444 726.0 138.2
786(15) 0.00473 725.5 126.1
808(15) 0.00430 725.0 114.5
787(16) 0.00413 724.5 103.6
780(15) 0.00441 723.9 93.4
809(15) 0.00454 723.4 84.0
800(15) 0.00462 722.9 75.4
780(15) 0.00433 722.4 67.6
754(15) 0.00432 721.8 60.7
816(15) 0.00418 721.3 54.4
750(14) 0.00490 720.8 48.9
772(14) 0.00478 720.3 44.1
735(15) 0.00468 719.7 39.9
768(15) 0.00420 719.2 36.2
768(15) 0.00461 718.7 32.9
796(15) 0.00461 718.2 30.1
731(14) 0.00501 717.6 27.7
776(15) 0.00433 717.1 25.6
737(15) 0.00441 716.6 23.8
736(15) 0.00458 716.1 22.2
721(14) 0.00514 715.6 20.8
710(14) 0.00514 715.0 19.6
736(15) 0.00465 714.5 18.5
743(15) 0.00439 714.0 17.5
722(14) 0.00480 713.5 16.7
733(14) 0.00503 712.9 15.9
690(14) 0.00527 712.4 15.2
722(15) 0.00469 711.9 14.6
716(15) 0.00468 711.4 14.0
717(14) 0.00484 710.8 13.5
723(14) 0.00513 710.3 13.0
739(14) 0.00487 709.8 12.5
709(14) 0.00488 709.3 12.1
711(15) 0.00473 708.7 11.8
723(14) 0.00478 708.2 11.4
700(14) 0.00527 707.7 11.1
684(14) 0.00501 707.2 11.0
716(15) 0.00463 706.6 10.8
701(14) 0.00486 706.1 10.6
697(14) 0.00510 705.6 10.4
723(14) 0.00509 705.1 10.4
727(15) 0.00468 704.5 10.3
733(15) 0.00444 704.0 10.3
702(14) 0.00480 703.5 10.4
683(14) 0.00528 703.0 10.6
726(14) 0.00508 702.4 10.8
686(14) 0.00505 701.9 11.1
681(14) 0.00481 701.4 11.4
690(14) 0.00509 700.9 11.8
744(14) 0.00483 700.4 12.3
687(14) 0.00536 699.8 12.8
703(14) 0.00490 699.3 13.4
705(15) 0.00455 698.8 14.0
707(14) 0.00488 698.3 14.5
715(14) 0.00508 697.7 15.0
698(14) 0.00530 697.2 15.4
715(15) 0.00475 696.7 15.7
698(15) 0.00456 696.2 15.7
690(14) 0.00503 695.6 15.6
679(14) 0.00545 695.1 15.2
726(14) 0.00509 694.6 14.7
718(14) 0.00479 694.1 14.0
714(15) 0.00445 693.5 13.3
724(14) 0.00479 693.0 12.5
678(14) 0.00534 692.5 11.6
708(14) 0.00505 692.0 10.8
692(14) 0.00506 691.4 10.0
659(14) 0.00503 690.9 9.3
697(14) 0.00489 690.4 8.6
731(14) 0.00506 689.9 8.0
735(14) 0.00495 689.3 7.5
714(15) 0.00475 688.8 7.0
696(15) 0.00464 688.3 6.6
697(14) 0.00482 687.8 6.2
678(14) 0.00540 687.2 5.9
708(14) 0.00518 686.7 5.6
693(14) 0.00495 686.2 5.3
660(14) 0.00503 685.7 5.1
667(14) 0.00522 685.2 5.0
670(13) 0.00555 684.6 4.8
658(14) 0.00542 684.1 4.7
686(14) 0.00502 683.6 4.5
686(14) 0.00489 683.1 4.4
663(14) 0.00519 682.5 4.3
701(14) 0.00524 682.0 4.2
703(14) 0.00499 681.5 4.1
702(14) 0.00486 681.0 4.1
681(14) 0.00503 680.4 4.0
705(14) 0.00498 679.9 3.9
639(13) 0.00577 679.4 3.9
708(14) 0.00483 678.9 3.8
681(14) 0.00493 678.3 3.8
669(14) 0.00515 677.8 3.7
683(14) 0.00509 677.3 3.7
714(14) 0.00521 676.8 3.6
703(14) 0.00481 676.2 3.6
662(14) 0.00504 675.7 3.5
637(14) 0.00532 675.2 3.5
655(14) 0.00549 674.7 3.5
713(14) 0.00520 674.1 3.4
640(14) 0.00546 673.6 3.4
690(15) 0.00467 673.2 3.4
716(14) 0.00481 672.8 3.4
652(13) 0.00564 672.5 3.3
701(14) 0.00524 672.1 3.3
650(13) 0.00551 671.8 3.3
651(14) 0.00522 671.4 3.3
678(14) 0.00512 671.1 3.3
695(14) 0.00530 670.8 3.3
653(13) 0.00556 670.4 3.3
703(14) 0.00487 670.1 3.3
702(15) 0.00454 669.7 3.3
675(14) 0.00502 669.4 3.3
671(13) 0.00554 669.0 3.4
687(14) 0.00529 668.7 3.4
686(14) 0.00504 668.3 3.4
715(15) 0.00443 668.0 3.5
675(14) 0.00500 667.6 3.5
661(13) 0.00558 667.3 3.5
646(13) 0.00562 666.9 3.6
694(14) 0.00493 666.6 3.6
663(14) 0.00501 666.2 3.7
680(14) 0.00504 665.9 4.2
674(13) 0.00553 665.5 4.3
703(14) 0.00507 665.2 4.4
674(14) 0.00512 664.8 4.5
673(14) 0.00482 664.5 4.6
664(14) 0.00520 664.2 4.7
664(13) 0.00555 663.8 4.8
681(14) 0.00529 663.5 4.9
662(14) 0.00518 663.1 5.0
684(14) 0.00496 662.8 5.1
648(14) 0.00527 662.4 5.2
710(14) 0.00521 662.1 5.3
649(13) 0.00554 661.7 5.5
683(14) 0.00500 661.4 5.6
696(14) 0.00487 661.0 5.7
684(14) 0.00517 660.7 5.8
688(14) 0.00538 660.3 6.0
690(14) 0.00510 660.0 6.1
682(14) 0.00507 659.6 6.2
655(14) 0.00530 659.3 6.3
682(14) 0.00526 658.9 6.4
661(13) 0.00559 658.6 6.5
642(14) 0.00531 658.2 6.5
683(14) 0.00486 657.9 6.6
672(14) 0.00507 657.5 6.7
709(14) 0.00495 657.2 6.7
657(13) 0.00561 656.9 6.7
672(14) 0.00504 656.5 6.7
663(14) 0.00500 656.2 6.7
680(14) 0.00506 655.8 6.7
643(13) 0.00570 655.5 6.7
703(14) 0.00522 655.1 6.6
685(14) 0.00501 654.8 6.6
686(15) 0.00467 654.4 6.5
649(14) 0.00547 654.1 6.5
657(13) 0.00559 653.7 6.4
659(13) 0.00552 653.4 6.3
678(14) 0.00500 653.0 6.2
663(15) 0.00473 652.7 6.2
675(14) 0.00517 652.3 6.1
658(13) 0.00558 652.0 6.0
681(14) 0.00538 651.6 6.0
662(14) 0.00528 651.3 5.9
662(14) 0.00490 650.9 5.8
676(14) 0.00515 650.6 5.8
618(13) 0.00601 650.2 5.8
598(13) 0.00614 649.9 5.7
695(14) 0.00484 649.6 5.7
688(15) 0.00459 649.2 5.7
628(14) 0.00540 648.9 5.8
690(14) 0.00530 648.5 5.8
699(14) 0.00518 648.2 5.8
620(13) 0.00553 647.8 5.9
664(14) 0.00493 647.5 6.0
665(14) 0.00529 647.1 6.1
654(13) 0.00562 646.8 6.3
689(14) 0.00515 646.4 6.4
642(14) 0.00514 646.1 6.6
620(13) 0.00553 645.7 6.9
632(13) 0.00550 645.4 7.2
657(13) 0.00560 645.0 7.5
662(14) 0.00533 644.7 7.9
651(14) 0.00525 644.3 8.3
678(14) 0.00509 644.0 8.8
688(14) 0.00504 643.6 9.4
638(13) 0.00578 643.3 10.1
651(14) 0.00539 643.0 10.9
674(14) 0.00509 642.6 11.9
665(14) 0.00528 642.3 13.1
645(13) 0.00550 641.9 14.5
693(14) 0.00533 641.6 16.1
612(13) 0.00566 641.2 18.2
634(14) 0.00538 640.9 20.9
634(14) 0.00542 640.5 24.6
615(13) 0.00591 640.2 30.0
647(13) 0.00573 639.8 38.6
700(14) 0.00494 639.5 52.6
712(15) 0.00451 639.1 75.3
712(14) 0.00489 638.8 110.9
806(15) 0.00437 638.4 162.9
801(15) 0.00460 638.1 233.0
899(16) 0.00381 637.7 318.3
936(17) 0.00351 637.4 409.8
1088(18) 0.003110 637.0 490.2
1144(18) 0.003189 636.7 535.8
1191(18) 0.003065 636.3 528.3
1126(18) 0.003053 636.0 470.9
1037(18) 0.003079 635.7 385.4
897(16) 0.00386 635.3 294.2
813(15) 0.00456 635.0 212.3
766(15) 0.00474 634.6 147.0
702(14) 0.00495 634.3 99.6
708(15) 0.00447 633.9 67.9
711(15) 0.00471 633.6 47.9
668(13) 0.00557 633.2 35.6
655(13) 0.00554 632.9 28.0
644(14) 0.00535 632.5 23.1
636(14) 0.00506 632.2 19.7
654(14) 0.00516 631.8 17.2
656(13) 0.00564 631.5 15.2
643(13) 0.00565 631.1 13.5
677(14) 0.00508 630.8 12.2
630(14) 0.00523 630.4 11.0
617(13) 0.00553 630.1 10.0
666(13) 0.00555 629.7 9.2
653(13) 0.00555 629.4 8.5
630(14) 0.00540 629.0 7.8
632(14) 0.00522 628.7 7.3
645(14) 0.00533 628.4 6.8
664(13) 0.00552 628.0 6.3
646(13) 0.00556 627.7 6.0
684(14) 0.00499 627.3 5.7
678(14) 0.00495 627.0 5.3
599(13) 0.00593 626.6 5.1
641(13) 0.00575 626.3 4.8
654(14) 0.00533 625.9 4.6
588(13) 0.00580 625.6 4.4
621(13) 0.00556 625.2 4.2
680(14) 0.00519 624.9 4.0
638(13) 0.00578 624.5 3.9
636(14) 0.00540 624.2 3.7
603(13) 0.00554 623.8 3.6
642(14) 0.00515 623.5 3.5
617(13) 0.00581 623.1 3.3
631(13) 0.00584 622.8 3.2
630(14) 0.00543 622.4 3.1
615(14) 0.00546 622.1 3.0
614(13) 0.00566 621.8 3.0
626(13) 0.00581 621.4 2.9
627(13) 0.00584 621.1 2.8
661(14) 0.00525 620.7 2.7
622(14) 0.00545 620.4 2.7
609(13) 0.00594 620.0 2.6
651(13) 0.00563 619.7 2.6
620(13) 0.00599 619.3 2.5
611(13) 0.00579 619.0 2.4
629(14) 0.00510 618.6 2.4
641(14) 0.00542 618.3 2.4
633(13) 0.00586 617.9 2.3
655(13) 0.00555 617.6 2.3
616(13) 0.00567 617.2 2.2
650(14) 0.00488 616.9 2.2
614(13) 0.00575 616.5 2.2
642(13) 0.00575 616.2 2.1
620(13) 0.00588 615.8 2.1
629(14) 0.00547 615.5 2.1
612(14) 0.00532 615.1 2.1
642(14) 0.00538 614.8 2.0
651(13) 0.00561 614.5 2.0
604(13) 0.00615 614.1 2.0
621(13) 0.00554 613.8 2.0
624(14) 0.00521 613.4 2.0
596(13) 0.00566 613.1 1.9
594(13) 0.00623 612.7 1.9
617(13) 0.00591 612.4 1.9
646(14) 0.00521 612.0 1.9
577(13) 0.00586 611.7 1.9
587(13) 0.00598 611.3 1.9
634(13) 0.00574 611.0 1.9
622(13) 0.00581 610.6 1.9
602(13) 0.00564 610.3 1.9
626(14) 0.00533 609.9 1.9
658(14) 0.00539 609.6 1.9
615(13) 0.00601 609.2 1.9
622(13) 0.00555 608.9 1.9
551(13) 0.00630 608.5 1.9
601(13) 0.00569 608.2 1.9
597(13) 0.00596 607.8 1.9
577(12) 0.00643 607.5 1.9
592(13) 0.00598 607.2 1.9
596(13) 0.00567 606.8 2.0
614(13) 0.00549 606.5 2.0
614(13) 0.00584 606.1 2.0
634(13) 0.00583 605.8 2.0
616(14) 0.00544 605.4 2.1
573(13) 0.00593 605.1 2.1
627(14) 0.00548 604.7 2.2
649(13) 0.00553 604.4 2.3
595(13) 0.00618 604.0 2.3
602(13) 0.00558 603.7 2.4
588(14) 0.00548 603.3 2.5
594(13) 0.00566 603.0 2.7
598(13) 0.00609 602.6 2.8
621(13) 0.00593 602.3 3.1
633(13) 0.00558 601.9 3.3
624(14) 0.00532 601.6 3.7
637(14) 0.00546 601.2 4.4
605(13) 0.00601 600.9 5.4
629(13) 0.00582 600.6 7.0
619(13) 0.00564 600.2 9.6
628(14) 0.00516 599.9 13.5
605(13) 0.00580 599.5 19.0
595(13) 0.00623 599.2 25.9
638(13) 0.00576 598.8 33.8
625(13) 0.00561 598.5 41.6
603(13) 0.00558 598.1 47.2
635(13) 0.00554 597.8 48.8
611(13) 0.00601 597.4 45.7
633(13) 0.00572 597.1 39.2
592(13) 0.00589 596.7 31.2
623(14) 0.00520 596.4 23.5
614(13) 0.00557 596.0 17.1
574(12) 0.00650 595.7 12.1
571(13) 0.00627 595.3 8.6
592(13) 0.00575 595.0 6.4
612(14) 0.00542 594.6 5.0
615(13) 0.00558 594.3 4.1
638(13) 0.00579 593.9 3.6
654(13) 0.00557 593.6 3.2
637(14) 0.00542 593.3 3.0
583(13) 0.00579 592.9 2.8
581(13) 0.00602 592.6 2.6
602(13) 0.00613 592.2 2.5
603(13) 0.00590 591.9 2.4
602(13) 0.00571 591.5 2.3
632(14) 0.00536 591.2 2.2
625(13) 0.00565 590.8 2.2
625(13) 0.00594 590.5 2.1
627(13) 0.00558 590.1 2.0
618(14) 0.00538 589.8 2.0
592(13) 0.00577 589.4 2.0
613(13) 0.00570 589.1 1.9
608(13) 0.00609 588.7 1.9
592(13) 0.00582 588.4 1.9
607(14) 0.00548 588.0 1.9
608(13) 0.00558 587.7 1.9
602(13) 0.00609 587.3 1.8
584(13) 0.00631 587.0 1.8
599(13) 0.00578 586.7 1.8
604(13) 0.00567 586.3 1.8
573(13) 0.00619 586.0 1.8
575(13) 0.00635 585.6 1.8
580(13) 0.00638 585.3 1.8
582(13) 0.00600 584.9 1.8
595(14) 0.00545 584.6 1.8
601(13) 0.00553 584.2 1.8
609(13) 0.00603 583.9 1.8
584(13) 0.00626 583.5 1.8
565(13) 0.00609 583.2 1.8
570(13) 0.00549 582.8 1.8
578(13) 0.00597 582.5 1.8
575(12) 0.00641 582.1 1.8
589(13) 0.00634 581.8 1.8
611(13) 0.00568 581.4 1.8
593(14) 0.00538 581.1 1.9
590(13) 0.00566 580.7 1.9
601(13) 0.00614 580.4 1.9
578(13) 0.00632 580.0 1.9
581(13) 0.00599 579.7 1.9
593(14) 0.00544 579.4 1.9
595(13) 0.00568 579.0 1.9
558(12) 0.00672 578.7 1.9
572(13) 0.00626 578.3 2.0
587(13) 0.00586 578.0 2.0
598(13) 0.00555 577.6 2.0
591(13) 0.00568 577.3 2.0
573(12) 0.00644 576.9 2.0
588(13) 0.00612 576.6 2.0
602(13) 0.00571 576.2 2.1
589(13) 0.00579 575.9 2.1
556(12) 0.00650 575.5 2.1
588(13) 0.00632 575.2 2.1
562(13) 0.00633 574.8 2.1
582(13) 0.00594 574.5 2.2
570(13) 0.00599 574.1 2.2
582(13) 0.00605 573.8 2.2
586(13) 0.00630 573.4 2.2
590(13) 0.00588 573.1 2.3
604(13) 0.00563 572.7 2.3
583(13) 0.00608 572.4 2.4
560(13) 0.00636 572.1 2.4
563(12) 0.00656 571.8 2.4
573(13) 0.00589 571.6 2.4
576(13) 0.00579 571.4 2.5
563(13) 0.00611 571.2 2.5
588(13) 0.00611 570.9 2.5
614(13) 0.00598 570.7 2.6
578(13) 0.00591 570.5 2.6
578(13) 0.00577 570.3 2.7
617(14) 0.00542 570.1 2.7
611(13) 0.00602 569.9 2.7
590(13) 0.00628 569.7 2.8
579(13) 0.00589 569.5 2.8
550(13) 0.00599 569.3 2.9
584(13) 0.00588 569.1 2.9
607(13) 0.00605 568.9 3.0
582(13) 0.00633 568.7 3.0
587(13) 0.00601 568.5 3.1
608(14) 0.00544 568.3 3.1
566(13) 0.00625 568.0 3.2
525(12) 0.00691 567.8 3.3
566(12) 0.00645 567.6 3.3
533(12) 0.00660 567.4 3.4
560(13) 0.00568 567.2 3.4
575(13) 0.00614 567.0 3.5
600(13) 0.00612 566.8 3.6
578(12) 0.00641 566.6 3.7
591(13) 0.00578 566.4 3.7
602(14) 0.00534 566.2 3.8
612(13) 0.00571 566.0 3.9
612(13) 0.00609 565.8 4.0
557(12) 0.00662 565.6 4.1
555(13) 0.00636 565.4 4.2
585(13) 0.00571 565.2 4.3
603(13) 0.00571 564.9 4.4
545(12) 0.00683 564.7 4.5
597(13) 0.00598 564.5 4.6
574(13) 0.00602 564.3 4.7
542(13) 0.00616 564.1 4.8
537(12) 0.00643 563.9 4.9
582(13) 0.00633 563.7 5.1
611(13) 0.00585 563.5 5.2
603(13) 0.00586 563.3 5.3
581(13) 0.00595 563.1 5.5
591(13) 0.00585 562.9 5.7
607(13) 0.00615 562.7 5.8
569(13) 0.00605 562.5 6.0
580(13) 0.00571 562.3 6.2
585(13) 0.00571 562.0 6.4
564(13) 0.00622 561.8 6.6
570(12) 0.00648 561.6 6.8
542(12) 0.00645 561.4 7.1
558(13) 0.00598 561.2 7.3
567(13) 0.00595 561.0 7.6
582(13) 0.00614 560.8 7.9
558(12) 0.00657 560.6 8.2
596(13) 0.00572 560.4 8.5
545(13) 0.00617 560.2 8.9
572(13) 0.00602 560.0 9.3
539(12) 0.00673 559.8 9.7
581(13) 0.00633 559.6 10.2
577(13) 0.00607 559.4 10.7
581(13) 0.00556 559.1 11.3
595(13) 0.00565 558.9 11.9
592(13) 0.00617 558.7 12.6
585(13) 0.00630 558.5 13.3
567(13) 0.00623 558.3 14.1
601(14) 0.00541 558.1 15.0
572(13) 0.00603 557.9 16.0
548(12) 0.00664 557.7 17.0
596(13) 0.00618 557.5 18.2
554(13) 0.00619 557.3 19.4
548(13) 0.00575 557.1 20.8
594(13) 0.00577 556.9 22.3
536(12) 0.00685 556.7 23.9
579(13) 0.00628 556.5 25.6
593(13) 0.00578 556.2 27.5
580(13) 0.00555 556.0 29.5
577(13) 0.00604 555.8 31.7
569(12) 0.00650 555.6 34.0
590(13) 0.00623 555.4 36.5
611(13) 0.00570 555.2 39.1
594(13) 0.00551 555.0 41.9
622(13) 0.00557 554.8 44.8
614(13) 0.00598 554.6 47.9
617(13) 0.00581 554.4 51.1
601(13) 0.00570 554.2 54.4
600(13) 0.00565 554.0 57.9
623(13) 0.00552 553.8 61.5
617(13) 0.00596 553.6 65.2
664(14) 0.00542 553.4 68.9
644(14) 0.00529 553.1 72.7
604(13) 0.00563 552.9 76.5
678(14) 0.00509 552.7 80.3
649(13) 0.00568 552.5 84.0
646(14) 0.00548 552.3 87.6
649(14) 0.00534 552.1 91.1
629(13) 0.00558 551.9 94.3
659(14) 0.00530 551.7 97.3
644(13) 0.00576 551.5 99.9
667(14) 0.00509 551.3 102.1
619(14) 0.00539 551.1 103.9
635(14) 0.00530 550.9 105.1
642(14) 0.00543 550.7 105.9
612(13) 0.00607 550.5 106.1
634(14) 0.00516 550.2 105.8
640(14) 0.00528 550.0 104.9
631(14) 0.00530 549.8 103.5
596(13) 0.00608 549.6 101.6
621(13) 0.00596 549.4 99.3
626(13) 0.00552 549.2 96.6
635(14) 0.00526 549.0 93.6
629(14) 0.00549 548.8 90.3
647(13) 0.00556 548.6 86.8
638(13) 0.00577 548.4 83.2
640(14) 0.00533 548.2 79.4
594(13) 0.00553 548.0 75.7
634(14) 0.00542 547.8 71.9
634(13) 0.00575 547.6 68.1
603(13) 0.00612 547.3 64.4
614(13) 0.00559 547.1 60.7
586(13) 0.00559 546.9 57.2
569(13) 0.00625 546.7 53.8
588(13) 0.00626 546.5 50.5
569(12) 0.00645 546.3 47.3
617(13) 0.00553 546.1 44.3
626(14) 0.00508 545.9 41.4
588(13) 0.00593 545.7 38.7
609(13) 0.00610 545.5 36.1
581(13) 0.00626 545.3 33.7
597(13) 0.00584 545.1 31.5
574(13) 0.00578 544.9 29.4
576(13) 0.00605 544.7 27.4
548(12) 0.00674 544.4 25.6
573(13) 0.00620 544.2 23.9
621(14) 0.00537 544.0 22.4
578(13) 0.00570 543.8 21.0
579(13) 0.00588 543.6 19.7
582(13) 0.00639 543.4 18.5
596(13) 0.00609 543.2 17.4
583(13) 0.00584 543.0 16.4
560(13) 0.00593 542.8 15.5
540(13) 0.00640 542.6 14.7
575(12) 0.00642 542.4 14.0
562(13) 0.00632 542.2 13.3
548(13) 0.00627 542.0 12.7
562(13) 0.00605 541.8 12.2
563(13) 0.00636 541.5 11.7
559(12) 0.00658 541.3 11.3
560(13) 0.00615 541.1 11.0
577(13) 0.00578 540.9 10.6
541(12) 0.00650 540.7 10.4
591(13) 0.00599 540.5 10.2
529(12) 0.00692 540.3 10.0
565(13) 0.00606 540.1 9.9
562(13) 0.00586 539.9 9.9
549(13) 0.00616 539.7 9.9
560(12) 0.00646 539.5 9.9
567(12) 0.00647 539.3 10.1
593(13) 0.00583 539.1 10.3
549(13) 0.00620 538.9 10.8
561(13) 0.00618 538.7 11.4
562(13) 0.00635 538.4 12.2
581(13) 0.00639 538.2 13.4
565(13) 0.00597 538.0 14.9
562(13) 0.00575 537.8 16.8
533(12) 0.00644 537.6 19.2
553(12) 0.00659 537.4 22.2
569(12) 0.00646 537.2 25.7
572(13) 0.00600 537.0 29.6
564(13) 0.00559 536.8 33.9
560(13) 0.00606 536.6 38.4
619(13) 0.00596 536.4 42.8
606(13) 0.00609 536.2 46.6
581(13) 0.00602 536.0 49.4
604(14) 0.00529 535.8 50.6
588(13) 0.00591 535.5 50.0
589(13) 0.00628 535.3 47.8
599(13) 0.00618 535.1 44.2
589(13) 0.00583 534.9 39.8
540(13) 0.00619 534.7 35.1
530(12) 0.00652 534.5 30.5
565(12) 0.00657 534.3 26.1
547(12) 0.00665 534.1 22.2
577(13) 0.00581 533.9 18.8
556(13) 0.00579 533.7 15.9
533(13) 0.00640 533.5 13.5
520(12) 0.00709 533.3 11.6
536(12) 0.00669 533.1 10.0
564(13) 0.00595 532.9 8.8
533(13) 0.00638 532.6 7.9
532(12) 0.00656 532.4 7.1
539(12) 0.00687 532.2 6.5
553(12) 0.00642 532.0 6.0
529(12) 0.00663 531.8 5.6
530(12) 0.00658 531.6 5.3
515(12) 0.00680 531.4 5.0
517(12) 0.00721 531.2 4.7
541(12) 0.00646 531.0 4.5
529(13) 0.00637 530.8 4.3
523(12) 0.00665 530.6 4.1
542(12) 0.00658 530.4 4.0
528(12) 0.00702 530.2 3.8
559(13) 0.00614 530.0 3.7
544(13) 0.00627 529.7 3.5
539(12) 0.00643 529.5 3.4
546(12) 0.00645 529.3 3.3
530(12) 0.00698 529.1 3.2
574(13) 0.00587 528.9 3.1
547(13) 0.00615 528.7 3.0
560(13) 0.00593 528.5 2.9
512(12) 0.00713 528.3 2.9
523(12) 0.00706 528.1 2.8
524(12) 0.00657 527.9 2.7
510(12) 0.00642 527.7 2.6
534(12) 0.00647 527.5 2.6
523(12) 0.00701 527.3 2.5
521(12) 0.00706 527.1 2.5
544(13) 0.00624 526.9 2.4
531(13) 0.00601 526.6 2.4
569(13) 0.00603 526.4 2.3
541(12) 0.00675 526.2 2.3
572(12) 0.00641 526.0 2.2
559(13) 0.00632 525.8 2.2
538(13) 0.00605 525.6 2.1
499(12) 0.00694 525.4 2.1
523(12) 0.00712 525.2 2.1
513(12) 0.00696 525.0 2.0
492(12) 0.00698 524.8 2.0
533(13) 0.00597 524.6 2.0
520(12) 0.00668 524.4 1.9
535(12) 0.00681 524.2 1.9
532(12) 0.00688 524.0 1.9
537(12) 0.00641 523.7 1.8
518(12) 0.00650 523.5 1.8
520(12) 0.00679 523.3 1.8
531(12) 0.00685 523.1 1.7
537(12) 0.00664 522.9 1.7
497(12) 0.00697 522.7 1.7
519(12) 0.00644 522.5 1.7
520(12) 0.00687 522.3 1.6
538(12) 0.00689 522.1 1.6
496(12) 0.00725 521.9 1.6
519(12) 0.00657 521.7 1.6
550(13) 0.00607 521.5 1.6
506(12) 0.00705 521.3 1.5
536(12) 0.00688 521.1 1.5
508(12) 0.00701 520.8 1.5
515(12) 0.00665 520.6 1.5
513(12) 0.00659 520.4 1.5
522(12) 0.00674 520.2 1.5
545(12) 0.00676 520.0 1.4
512(12) 0.00678 519.8 1.4
483(12) 0.00706 519.6 1.4
492(12) 0.00699 519.4 1.4
521(12) 0.00677 519.2 1.4
536(12) 0.00693 519.0 1.4
516(12) 0.00648 518.8 1.3
543(13) 0.00606 518.6 1.3
541(12) 0.00647 518.4 1.3
546(12) 0.00660 518.2 1.3
555(12) 0.00661 517.9 1.3
541(13) 0.00621 517.7 1.3
534(13) 0.00613 517.5 1.3
529(12) 0.00642 517.3 1.3
491(12) 0.00744 517.1 1.2
521(12) 0.00708 516.9 1.2
530(12) 0.00648 516.7 1.2
519(13) 0.00623 516.5 1.2
498(12) 0.00703 516.3 1.2
496(12) 0.00745 516.1 1.2
547(12) 0.00664 515.9 1.2
516(12) 0.00653 515.7 1.2
497(12) 0.00649 515.5 1.2
511(12) 0.00683 515.3 1.2
527(12) 0.00700 515.0 1.1
510(12) 0.00715 514.8 1.1
538(13) 0.00637 514.6 1.1
556(13) 0.00584 514.4 1.1
536(12) 0.00660 514.2 1.1
534(12) 0.00690 514.0 1.1
565(13) 0.00638 513.8 1.1
493(12) 0.00702 513.6 1.1
481(12) 0.00671 513.4 1.1
541(13) 0.00630 513.2 1.1
510(12) 0.00719 513.0 1.1
516(12) 0.00695 512.8 1.1
512(12) 0.00675 512.6 1.1
541(13) 0.00616 512.4 1.1
502(12) 0.00702 512.2 1.1
510(12) 0.00722 511.9 1.1
517(12) 0.00687 511.7 1.0
507(12) 0.00674 511.5 1.0
523(13) 0.00608 511.3 1.0
526(12) 0.00649 511.1 1.0
509(12) 0.00725 510.9 1.0
541(12) 0.00657 510.7 1.0
505(12) 0.00692 510.5 1.0
516(12) 0.00655 510.3 1.0
499(12) 0.00699 510.2 1.0
501(12) 0.00735 510.1 1.0
483(12) 0.00731 509.9 1.0
474(12) 0.00718 509.8 1.0
491(12) 0.00691 509.6 1.0
511(12) 0.00687 509.5 1.0
492(12) 0.00746 509.4 1.0
534(12) 0.00647 509.2 1.0
546(13) 0.00613 509.1 0.9
527(12) 0.00652 508.9 0.9
509(12) 0.00688 508.8 0.9
525(12) 0.00701 508.7 0.9
494(12) 0.00702 508.5 0.9
501(12) 0.00654 508.4 0.9
541(13) 0.00617 508.2 0.9
507(12) 0.00711 508.1 0.9
524(12) 0.00707 507.9 0.9
521(12) 0.00658 507.8 0.9
531(13) 0.00598 507.7 0.9
532(12) 0.00671 507.5 0.9
517(12) 0.00709 507.4 0.9
509(12) 0.00723 507.2 0.9
515(12) 0.00659 507.1 0.9
506(13) 0.00629 507.0 0.9
493(12) 0.00685 506.8 0.9
517(12) 0.00720 506.7 0.9
514(12) 0.00711 506.5 0.9
536(12) 0.00647 506.4 0.9
485(12) 0.00684 506.3 0.9
497(12) 0.00702 506.1 0.9
497(12) 0.00750 506.0 0.9
498(12) 0.00735 505.8 0.9
515(12) 0.00677 505.7 0.9
516(12) 0.00646 505.6 1.0
520(12) 0.00664 505.4 1.0
549(12) 0.00661 505.3 1.0
483(12) 0.00740 505.1 1.0
480(12) 0.00701 505.0 1.0
534(13) 0.00596 504.8 1.0
493(12) 0.00722 504.7 1.0
522(12) 0.00705 504.6 1.1
529(12) 0.00675 504.4 1.1
529(12) 0.00658 504.3 1.1
517(12) 0.00656 504.1 1.1
523(12) 0.00657 504.0 1.1
521(12) 0.00710 503.9 1.2
552(12) 0.00657 503.7 1.2
526(12) 0.00650 503.6 1.2
494(12) 0.00693 503.4 1.3
491(12) 0.00698 503.3 1.3
507(12) 0.00726 503.2 1.3
514(12) 0.00688 503.0 1.4
517(13) 0.00630 502.9 1.4
503(12) 0.00679 502.7 1.5
510(12) 0.00699 502.6 1.5
496(12) 0.00746 502.5 1.6
516(12) 0.00683 502.3 1.7
512(12) 0.00647 502.2 1.9
491(12) 0.00710 502.0 2.0
547(12) 0.00643 501.9 2.1
501(12) 0.00740 501.8 2.1
510(12) 0.00678 501.6 2.2
525(13) 0.00618 501.5 2.3
522(12) 0.00648 501.3 2.4
498(12) 0.00728 501.2 2.6
533(12) 0.00687 501.0 2.7
488(12) 0.00717 500.9 2.8
514(13) 0.00625 500.8 2.9
503(12) 0.00676 500.6 3.0
485(12) 0.00740 500.5 3.2
512(12) 0.00727 500.3 3.3
502(12) 0.00679 500.2 3.5
500(12) 0.00655 500.1 3.6
500(12) 0.00719 499.9 4.4
517(12) 0.00719 499.8 4.5
533(12) 0.00688 499.6 4.7
545(12) 0.00642 499.5 4.8
521(13) 0.00611 499.4 5.0
482(12) 0.00720 499.2 5.1
510(12) 0.00713 499.1 5.3
464(11) 0.00795 498.9 5.4
507(12) 0.00679 498.8 5.5
488(12) 0.00665 498.7 5.6
492(12) 0.00689 498.5 5.7
488(12) 0.00754 498.4 5.7
498(12) 0.00731 498.2 5.8
485(12) 0.00695 498.1 5.8
518(13) 0.00628 497.9 5.8
519(12) 0.00665 497.8 5.8
498(12) 0.00741 497.7 5.8
492(12) 0.00739 497.5 5.8
502(12) 0.00691 497.4 5.8
490(12) 0.00698 497.2 5.7
529(12) 0.00657 497.1 5.7
524(12) 0.00695 497.0 5.6
507(12) 0.00701 496.8 5.5
502(12) 0.00670 496.7 5.5
520(12) 0.00646 496.5 5.4
527(12) 0.00642 496.4 5.4
510(12) 0.00719 496.3 5.3
508(12) 0.00701 496.1 5.2
518(12) 0.00648 496.0 5.2
480(12) 0.00723 495.8 5.2
490(12) 0.00739 495.7 5.1
496(12) 0.00742 495.6 5.1
506(12) 0.00671 495.4 5.1
504(12) 0.00656 495.3 5.1
517(12) 0.00652 495.1 5.1
505(12) 0.00713 495.0 5.1
492(12) 0.00749 494.8 5.1
512(12) 0.00680 494.7 5.1
561(13) 0.00578 494.6 5.2
503(12) 0.00690 494.4 5.3
472(11) 0.00773 494.3 5.3
481(11) 0.00769 494.1 5.4
486(12) 0.00704 494.0 5.5
480(12) 0.00680 493.9 5.7
479(12) 0.00724 493.7 5.8
492(12) 0.00746 493.6 6.0
489(12) 0.00753 493.4 6.1
483(12) 0.00718 493.3 6.4
492(12) 0.00659 493.2 6.6
498(12) 0.00698 493.0 6.9
493(12) 0.00744 492.9 7.2
499(12) 0.00747 492.7 7.5
483(12) 0.00736 492.6 7.9
485(12) 0.00671 492.5 8.4
523(12) 0.00662 492.3 8.9
482(11) 0.00763 492.2 9.5
518(12) 0.00710 492.0 10.2
500(12) 0.00704 491.9 11.0
516(13) 0.00633 491.8 11.9
481(12) 0.00702 491.6 12.8
500(12) 0.00735 491.5 13.9
494(12) 0.00733 491.3 16.0
500(12) 0.00709 491.2 17.4
488(12) 0.00660 491.0 18.9
480(12) 0.00705 490.9 20.6
509(12) 0.00727 490.8 22.5
516(12) 0.00686 490.6 24.5
514(12) 0.00657 490.5 26.6
534(13) 0.00597 490.3 28.9
514(12) 0.00671 490.2 31.3
515(12) 0.00720 490.1 33.9
529(12) 0.00679 489.9 36.5
509(12) 0.00663 489.8 39.2
516(12) 0.00644 489.6 41.8
516(12) 0.00689 489.5 44.5
516(12) 0.00714 489.4 47.0
492(12) 0.00715 489.2 49.3
514(12) 0.00664 489.1 51.3
487(12) 0.00703 488.9 53.0
524(12) 0.00682 488.8 54.3
540(12) 0.00685 488.7 55.0
537(12) 0.00641 488.5 55.3
530(13) 0.00635 488.4 55.2
515(12) 0.00657 488.2 54.6
504(12) 0.00698 488.1 53.6
541(12) 0.00675 487.9 52.3
557(13) 0.00627 487.8 50.8
517(12) 0.00660 487.7 49.2
501(12) 0.00676 487.5 47.5
529(12) 0.00658 487.4 45.9
487(11) 0.00759 487.2 44.4
503(12) 0.00687 487.1 43.0
521(13) 0.00615 487.0 41.9
487(12) 0.00712 486.8 41.0
511(12) 0.00708 486.7 40.5
541(12) 0.00685 486.5 40.3
502(12) 0.00685 486.4 40.6
537(13) 0.00588 486.3 41.4
527(12) 0.00657 486.1 43.0
529(12) 0.00685 486.0 45.6
536(12) 0.00686 485.8 50.0
515(12) 0.00683 485.7 56.9
551(13) 0.00578 485.6 67.8
574(13) 0.00595 485.4 84.5
595(13) 0.00619 485.3 108.8
624(13) 0.00584 485.1 142.3
627(13) 0.00551 485.0 185.4
657(14) 0.00488 484.8 236.5
708(14) 0.00489 484.7 291.4
777(15) 0.00472 484.6 341.7
851(15) 0.00420 484.4 375.9
897(16) 0.00383 484.3 384.0
846(16) 0.00384 484.1 364.9
804(15) 0.00422 484.0 328.3
758(14) 0.00480 483.9 287.2
670(14) 0.00548 483.7 251.9
617(13) 0.00557 483.6 229.3
672(15) 0.00475 483.4 223.3
683(14) 0.00497 483.3 235.7
706(14) 0.00515 483.2 266.7
762(15) 0.00466 483.0 314.9
806(16) 0.00415 482.9 378.0
886(16) 0.00379 482.7 452.2
997(17) 0.003386 482.6 531.3
1106(17) 0.003321 482.5 606.4
1158(18) 0.003037 482.3 664.8
1189(19) 0.002839 482.2 693.6
1222(19) 0.002728 482.0 684.6
1101(18) 0.003175 481.9 639.9
1022(17) 0.00360 481.8 570.2
974(17) 0.00351 481.6 488.7
865(16) 0.00386 481.5 406.0
816(16) 0.00413 481.3 329.1
757(15) 0.00470 481.2 261.9
681(14) 0.00545 481.0 206.0
623(14) 0.00544 480.9 161.4
590(13) 0.00572 480.8 127.1
620(14) 0.00539 480.6 102.0
564(13) 0.00618 480.5 83.1
541(12) 0.00677 480.3 69.2
576(13) 0.00591 480.2 59.1
560(13) 0.00579 480.1 51.6
511(12) 0.00672 479.9 45.8
527(12) 0.00689 479.8 41.2
522(12) 0.00701 479.6 37.5
508(12) 0.00679 479.5 34.4
510(13) 0.00635 479.4 31.8
528(12) 0.00646 479.2 29.5
517(12) 0.00704 479.1 27.6
497(12) 0.00745 478.9 25.9
510(12) 0.00674 478.8 24.4
504(13) 0.00622 478.7 23.0
505(12) 0.00670 478.5 21.9
469(11) 0.00782 478.4 20.8
490(12) 0.00747 478.2 19.9
496(12) 0.00692 478.1 19.1
479(12) 0.00683 477.9 18.3
531(12) 0.00642 477.8 17.7
493(12) 0.00740 477.7 17.1
459(11) 0.00799 477.5 16.5
497(12) 0.00681 477.4 16.1
468(12) 0.00708 477.2 15.7
493(12) 0.00684 477.1 15.3
484(11) 0.00761 477.0 15.0
478(12) 0.00741 476.8 14.7
484(12) 0.00695 476.7 14.4
487(12) 0.00676 476.5 14.2
503(12) 0.00674 476.4 14.0
477(11) 0.00771 476.3 13.9
471(11) 0.00757 476.1 13.8
497(12) 0.00678 476.0 13.7
478(12) 0.00713 475.8 13.6
477(12) 0.00716 475.7 13.6
455(11) 0.00811 475.6 13.5
440(11) 0.00825 475.4 13.5
468(12) 0.00730 475.3 13.6
472(12) 0.00722 475.1 13.6
466(12) 0.00754 475.0 13.7
483(11) 0.00765 474.8 13.8
484(12) 0.00716 474.7 13.9
495(12) 0.00684 474.6 14.0
502(12) 0.00661 474.4 14.2
488(12) 0.00709 474.3 14.4
463(11) 0.00795 474.1 14.6
482(12) 0.00733 474.0 14.8
467(12) 0.00729 473.9 15.1
484(12) 0.00685 473.7 15.4
455(11) 0.00804 473.6 15.7
500(12) 0.00728 473.4 16.0
511(12) 0.00676 473.3 16.4
492(12) 0.00690 473.2 16.8
484(12) 0.00698 473.0 17.2
511(12) 0.00702 472.9 17.7
513(12) 0.00720 472.7 18.2
505(12) 0.00685 472.6 18.8
502(12) 0.00655 472.5 19.4
510(12) 0.00685 472.3 20.0
523(12) 0.00688 472.2 20.8
487(11) 0.00767 472.0 21.6
478(12) 0.00713 471.9 22.4
465(12) 0.00698 471.8 23.3
500(12) 0.00707 471.6 24.3
491(11) 0.00757 471.5 25.4
494(12) 0.00745 471.3 26.6
486(12) 0.00714 471.2 27.9
495(12) 0.00646 471.0 29.3
484(12) 0.00704 470.9 30.8
495(12) 0.00745 470.8 32.5
502(12) 0.00736 470.6 34.4
485(12) 0.00727 470.5 36.4
487(12) 0.00666 470.3 38.6
507(12) 0.00687 470.2 41.1
488(11) 0.00764 470.1 43.9
509(12) 0.00722 469.9 47.0
515(12) 0.00679 469.8 50.5
526(13) 0.00635 469.6 54.4
545(13) 0.00621 469.5 58.9
543(12) 0.00680 469.4 64.0
496(12) 0.00742 469.2 70.1
531(12) 0.00670 469.1 77.3
553(13) 0.00613 468.9 86.1
556(13) 0.00610 468.8 97.0
581(13) 0.00638 468.7 110.9
565(12) 0.00648 468.5 128.9
614(13) 0.00559 468.4 152.2
649(14) 0.00525 468.2 182.7
676(14) 0.00507 468.1 222.0
690(14) 0.00534 467.9 272.3
760(15) 0.00459 467.8 335.3
776(15) 0.00439 467.7 412.4
878(16) 0.00382 467.5 504.2
1049(17) 0.003356 467.4 609.9
1199(18) 0.003083 467.2 727.4
1341(20) 0.002628 467.1 851.8
1410(20) 0.002403 467.0 975.6
1501(21) 0.002281 466.8 1087.3
1727(22) 0.002056 466.7 1172.6
1702(21) 0.002175 466.5 1217.4
1648(22) 0.002056 466.4 1212.8
1557(22) 0.002117 466.3 1160.2
1489(21) 0.002315 466.1 1070.0
1323(19) 0.002760 466.0 957.0
1245(18) 0.002972 465.8 834.9
1175(19) 0.002908 465.7 714.4
1082(18) 0.003030 465.6 602.5
992(17) 0.00351 465.4 503.4
869(15) 0.00422 465.3 419.2
849(15) 0.00434 465.1 350.2
763(15) 0.00459 465.0 296.2
750(15) 0.00422 464.8 256.2
749(15) 0.00468 464.7 229.0
736(14) 0.00502 464.6 213.9
729(14) 0.00504 464.4 210.6
748(15) 0.00461 464.3 219.5
731(15) 0.00443 464.1 241.7
802(15) 0.00426 464.0 278.0
884(15) 0.00420 463.9 329.6
864(15) 0.00427 463.7 396.7
932(16) 0.00370 463.6 477.9
1003(18) 0.003259 463.4 569.4
1089(18) 0.003170 463.3 664.2
1240(18) 0.002991 463.2 751.1
1371(19) 0.002645 463.0 814.6
1434(20) 0.002441 462.9 839.5
1402(21) 0.002378 462.7 818.0
1360(20) 0.002548 462.6 755.5
1211(18) 0.003067 462.5 666.3
1070(17) 0.003361 462.3 566.0
931(17) 0.00367 462.2 466.7
796(15) 0.00431 462.0 376.0
784(15) 0.00436 461.9 298.1
706(14) 0.00522 461.7 234.2
644(13) 0.00555 461.6 184.0
579(13) 0.00595 461.5 145.9
565(13) 0.00604 461.3 117.6
571(13) 0.00608 461.2 97.0
554(12) 0.00673 461.0 82.0
548(12) 0.00645 460.9 70.9
537(12) 0.00644 460.8 62.5
489(12) 0.00726 460.6 56.0
503(12) 0.00690 460.5 50.7
485(11) 0.00762 460.3 46.3
508(12) 0.00699 460.2 42.6
502(12) 0.00678 460.1 39.4
488(12) 0.00715 459.9 36.5
482(12) 0.00756 459.8 34.0
527(12) 0.00698 459.6 31.8
465(12) 0.00738 459.5 29.8
486(12) 0.00684 459.4 28.0
499(12) 0.00670 459.2 26.3
451(11) 0.00796 459.1 24.9
449(11) 0.00818 458.9 23.5
481(12) 0.00705 458.8 22.3
478(12) 0.00691 458.7 21.2
482(12) 0.00722 458.5 20.1
454(11) 0.00806 458.4 19.2
482(11) 0.00777 458.2 18.3
454(11) 0.00768 458.1 17.5
464(12) 0.00702 457.9 16.7
466(11) 0.00760 457.8 16.0
484(11) 0.00771 457.7 15.3
455(11) 0.00806 457.5 14.7
466(12) 0.00738 457.4 14.2
479(12) 0.00676 457.2 13.6
484(12) 0.00718 457.1 13.1
464(11) 0.00792 457.0 12.6
454(11) 0.00813 456.8 12.2
438(11) 0.00810 456.7 11.8
442(12) 0.00748 456.5 11.4
448(12) 0.00744 456.4 11.0
452(11) 0.00824 456.3 10.6
494(12) 0.00744 456.1 10.3
487(12) 0.00717 456.0 10.0
456(12) 0.00713 455.8 9.7
455(11) 0.00761 455.7 9.4
439(11) 0.00848 455.6 9.1
471(11) 0.00772 455.4 8.8
465(12) 0.00710 455.3 8.6
456(12) 0.00718 455.1 8.4
455(11) 0.00763 455.0 8.1
449(11) 0.00823 454.8 7.9
485(12) 0.00731 454.7 7.7
458(12) 0.00744 454.6 7.5
433(11) 0.00787 454.4 7.3
459(12) 0.00744 454.3 7.1
467(11) 0.00798 454.1 7.0
467(11) 0.00760 454.0 6.8
445(11) 0.00768 453.9 6.6
463(12) 0.00716 453.7 6.5
462(11) 0.00777 453.6 6.3
455(11) 0.00813 453.4 6.2
463(12) 0.00749 453.3 6.1
447(12) 0.00741 453.2 5.9
449(12) 0.00750 453.0 5.8
460(11) 0.00766 452.9 5.7
462(11) 0.00803 452.7 5.7
469(12) 0.00727 452.6 5.6
431(11) 0.00785 452.5 5.5
452(11) 0.00768 452.3 5.4
479(12) 0.00745 452.2 5.3
475(11) 0.00777 452.0 5.2
459(12) 0.00735 451.9 5.1
431(11) 0.00779 451.7 5.0
456(11) 0.00765 451.6 4.9
466(11) 0.00791 451.5 4.8
462(11) 0.00797 451.3 4.8
452(12) 0.00752 451.2 4.7
472(12) 0.00685 451.0 4.6
441(12) 0.00751 450.9 4.5
429(11) 0.00860 450.8 4.5
465(11) 0.00793 450.6 4.5
460(12) 0.00737 450.5 4.4
470(12) 0.00675 450.3 4.3
445(11) 0.00792 450.2 4.3
451(11) 0.00800 450.1 4.2
439(11) 0.00841 449.9 4.2
455(11) 0.00776 449.8 4.1
473(12) 0.00667 449.6 4.1
441(11) 0.00766 449.5 4.0
437(11) 0.00840 449.4 4.0
465(11) 0.00780 449.2 3.9
454(11) 0.00761 449.1 3.9
453(12) 0.00724 448.9 4.4
441(11) 0.00788 448.8 4.4
433(11) 0.00856 448.7 4.3
462(11) 0.00782 448.5 4.3
454(12) 0.00753 448.4 4.3
465(12) 0.00705 448.2 4.2
452(12) 0.00746 448.1 4.2
443(11) 0.00827 447.9 4.2
457(11) 0.00789 447.8 4.2
442(11) 0.00808 447.7 4.1
437(11) 0.00782 447.5 4.1
464(12) 0.00736 447.4 4.1
480(11) 0.00776 447.3 4.1
444(11) 0.00813 447.1 4.1
455(12) 0.00732 447.0 4.0
432(11) 0.00777 446.9 4.0
417(11) 0.00823 446.7 4.0
450(11) 0.00823 446.6 4.0
392(10) 0.00916 446.5 4.0
420(11) 0.00824 446.3 4.0
463(12) 0.00739 446.2 4.0
415(11) 0.00839 446.1 3.9
429(11) 0.00864 445.9 3.9
441(11) 0.00794 445.8 3.9
441(12) 0.00750 445.7 3.9
459(12) 0.00738 445.5 3.9
445(11) 0.00829 445.4 3.9
434(11) 0.00844 445.3 3.9
446(11) 0.00762 445.1 3.9
460(12) 0.00699 445.0 3.9
442(11) 0.00790 444.9 4.0
437(11) 0.00833 444.7 4.0
439(11) 0.00839 444.6 4.0
450(11) 0.00780 444.5 4.0
455(12) 0.00713 444.3 4.0
472(12) 0.00719 444.2 4.1
444(11) 0.00834 444.1 4.1
468(11) 0.00787 443.9 4.1
452(12) 0.00755 443.8 4.1
447(12) 0.00708 443.6 4.2
453(11) 0.00786 443.5 4.2
435(11) 0.00856 443.4 4.2
439(11) 0.00840 443.2 4.3
416(11) 0.00842 443.1 4.3
431(11) 0.00762 443.0 4.4
406(11) 0.00878 442.8 4.4
434(11) 0.00857 442.7 4.5
434(11) 0.00849 442.6 4.6
455(11) 0.00768 442.4 4.7
443(12) 0.00749 442.3 4.8
432(11) 0.00777 442.2 4.9
426(11) 0.00868 442.0 5.0
438(11) 0.00836 441.9 5.2
430(11) 0.00808 441.8 5.3
452(12) 0.00705 441.6 5.5
445(11) 0.00781 441.5 5.8
443(11) 0.00839 441.4 6.0
419(11) 0.00882 441.2 6.4
424(11) 0.00801 441.1 6.8
400(11) 0.00860 441.0 7.3
407(11) 0.00863 440.8 8.0
436(11) 0.00848 440.7 9.0
446(11) 0.00804 440.6 10.5
447(11) 0.00788 440.4 13.1
448(12) 0.00751 440.3 17.4
439(11) 0.00796 440.2 24.1
458(11) 0.00813 440.0 34.2
462(11) 0.00776 439.9 48.2
477(12) 0.00716 439.8 65.6
530(13) 0.00624 439.6 84.8
490(12) 0.00712 439.5 102.8
543(12) 0.00684 439.3 114.7
590(13) 0.00598 439.2 116.3
564(13) 0.00583 439.1 106.8
542(13) 0.00615 438.9 90.1
500(12) 0.00730 438.8 70.8
514(12) 0.00720 438.7 52.8
484(12) 0.00718 438.5 37.9
503(12) 0.00652 438.4 26.8
452(12) 0.00755 438.3 19.3
449(11) 0.00806 438.1 14.5
459(11) 0.00806 438.0 11.6
477(12) 0.00726 437.9 9.9
445(11) 0.00770 437.7 8.8
457(12) 0.00746 437.6 8.1
436(11) 0.00825 437.5 7.7
482(11) 0.00771 437.3 7.3
474(12) 0.00722 437.2 7.0
434(11) 0.00761 437.1 6.8
441(11) 0.00785 436.9 6.6
437(11) 0.00829 436.8 6.5
451(11) 0.00826 436.7 6.4
458(12) 0.00726 436.5 6.3
421(11) 0.00765 436.4 6.2
439(11) 0.00782 436.3 6.2
460(11) 0.00796 436.1 6.2
449(11) 0.00828 436.0 6.2
436(11) 0.00802 435.9 6.2
458(12) 0.00697 435.7 6.2
446(11) 0.00786 435.6 6.2
426(11) 0.00852 435.5 6.3
444(11) 0.00820 435.3 6.3
406(11) 0.00859 435.2 6.4
449(12) 0.00737 435.1 6.5
433(11) 0.00799 434.9 6.5
429(11) 0.00857 434.8 6.6
413(11) 0.00881 434.6 6.7
415(11) 0.00858 434.5 6.8
432(11) 0.00795 434.4 7.0
451(11) 0.00763 434.2 7.0
418(11) 0.00881 434.1 7.1
457(11) 0.00764 434.0 7.3
444(12) 0.00753 433.8 7.4
427(11) 0.00767 433.7 7.6
430(11) 0.00779 433.6 7.8
398(10) 0.00926 433.4 8.0
433(11) 0.00814 433.3 8.3
443(12) 0.00748 433.2 8.5
417(11) 0.00775 433.0 8.8
446(11) 0.00769 432.9 9.1
432(11) 0.00852 432.8 9.4
459(11) 0.00773 432.6 9.8
431(11) 0.00802 432.5 10.2
435(11) 0.00793 432.4 10.6
450(11) 0.00786 432.2 11.1
444(11) 0.00840 432.1 11.6
474(12) 0.00727 432.0 12.2
433(11) 0.00777 431.8 12.8
437(11) 0.00782 431.7 13.5
447(11) 0.00791 431.6 14.4
424(11) 0.00884 431.4 15.3
462(12) 0.00734 431.3 16.5
467(12) 0.00711 431.2 17.8
425(11) 0.00816 431.0 19.5
469(11) 0.00759 430.9 21.6
453(11) 0.00812 430.8 24.2
463(12) 0.00720 430.6 27.7
459(12) 0.00693 430.5 32.1
432(11) 0.00808 430.3 37.9
458(11) 0.00796 430.2 45.2
484(11) 0.00759 430.1 54.5
509(12) 0.00668 429.9 65.9
490(12) 0.00646 429.8 79.5
500(12) 0.00699 429.7 95.4
541(12) 0.00690 429.5 113.2
544(12) 0.00655 429.4 132.4
558(13) 0.00618 429.3 152.0
595(14) 0.00548 429.1 170.3
616(13) 0.00558 429.0 185.2
633(13) 0.00580 428.9 194.5
609(13) 0.00602 428.7 196.4
611(13) 0.00584 428.6 190.6
622(14) 0.00538 428.5 178.3
627(14) 0.00546 428.3 161.7
588(13) 0.00635 428.2 143.0
553(12) 0.00643 428.1 124.0
537(13) 0.00627 427.9 106.1
525(13) 0.00630 427.8 89.9
498(12) 0.00688 427.7 75.9
462(11) 0.00791 427.5 64.2
451(11) 0.00772 427.4 54.7
464(11) 0.00761 427.3 47.3
497(12) 0.00690 427.1 41.7
470(12) 0.00740 427.0 37.5
496(12) 0.00747 426.9 34.6
456(11) 0.00796 426.7 32.6
491(12) 0.00689 426.6 31.3
434(11) 0.00820 426.5 30.7
453(11) 0.00767 426.3 30.6
470(11) 0.00788 426.2 30.9
466(12) 0.00754 426.0 31.6
433(11) 0.00814 425.9 32.8
474(12) 0.00705 425.8 34.3
474(12) 0.00730 425.6 36.4
462(11) 0.00801 425.5 38.9
472(12) 0.00716 425.4 42.0
463(12) 0.00711 425.2 45.7
471(12) 0.00724 425.1 50.0
485(12) 0.00734 425.0 55.0
480(11) 0.00771 424.8 60.8
471(12) 0.00740 424.7 67.3
493(12) 0.00665 424.6 74.6
514(12) 0.00652 424.4 82.6
497(12) 0.00729 424.3 91.4
516(12) 0.00716 424.2 100.9
571(13) 0.00597 424.0 110.9
566(13) 0.00587 423.9 121.3
584(13) 0.00600 423.8 131.8
583(13) 0.00628 423.6 142.2
599(13) 0.00610 423.5 152.1
636(14) 0.00538 423.4 161.0
626(14) 0.00505 423.2 168.5
604(13) 0.00559 423.1 173.9
617(13) 0.00600 423.0 177.0
658(13) 0.00553 422.8 177.5
614(13) 0.00553 422.7 175.3
605(14) 0.00546 422.6 170.6
601(13) 0.00585 422.4 163.8
587(13) 0.00634 422.3 155.4
582(13) 0.00628 422.2 145.8
541(13) 0.00639 422.0 135.5
531(13) 0.00612 421.9 125.0
521(12) 0.00676 421.8 114.5
515(12) 0.00715 421.6 104.3
507(12) 0.00718 421.5 94.7
525(12) 0.00640 421.3 85.6
519(13) 0.00614 421.2 77.3
469(12) 0.00736 421.1 69.6
493(12) 0.00748 420.9 62.8
466(11) 0.00769 420.8 56.7
458(12) 0.00728 420.7 51.3
448(11) 0.00757 420.5 46.6
455(11) 0.00776 420.4 42.5
492(12) 0.00748 420.3 39.0
477(12) 0.00742 420.1 36.1
420(11) 0.00822 420.0 33.6
425(11) 0.00802 419.9 31.4
458(11) 0.00759 419.7 29.7
415(11) 0.00892 419.6 28.2
450(11) 0.00774 419.5 27.0
470(12) 0.00717 419.3 26.0
452(11) 0.00760 419.2 25.2
469(11) 0.00760 419.1 24.6
454(11) 0.00805 418.9 24.0
441(11) 0.00803 418.8 23.7
457(12) 0.00710 418.7 23.4
412(11) 0.00838 418.5 23.3
437(11) 0.00822 418.4 23.2
438(11) 0.00839 418.3 23.3
431(11) 0.00775 418.1 23.5
429(11) 0.00773 418.0 23.8
445(11) 0.00764 417.9 24.2
454(11) 0.00797 417.7 24.7
440(11) 0.00844 417.6 25.4
439(11) 0.00784 417.5 26.3
431(11) 0.00763 417.3 27.3
424(11) 0.00800 417.2 28.4
476(11) 0.00767 417.0 29.7
445(11) 0.00822 416.9 31.0
449(11) 0.00763 416.8 32.4
439(12) 0.00734 416.6 33.8
427(11) 0.00812 416.5 35.2
413(11) 0.00889 416.4 36.4
439(11) 0.00834 416.2 37.3
447(11) 0.00767 416.1 38.0
437(12) 0.00721 416.0 38.5
437(11) 0.00799 415.8 38.7
429(11) 0.00865 415.7 38.8
434(11) 0.00847 415.6 38.8
436(11) 0.00790 415.4 38.8
434(12) 0.00745 415.3 38.8
491(12) 0.00702 415.2 38.9
442(11) 0.00831 415.0 39.1
443(11) 0.00823 414.9 39.5
455(11) 0.00772 414.8 39.9
446(12) 0.00740 414.6 40.5
468(12) 0.00704 414.5 41.2
437(11) 0.00851 414.4 41.9
446(11) 0.00802 414.2 42.8
439(11) 0.00809 414.1 43.7
428(11) 0.00809 414.0 44.7
462(12) 0.00748 413.8 45.8
457(11) 0.00806 413.7 46.9
463(11) 0.00768 413.6 48.2
453(12) 0.00744 413.4 49.6
450(12) 0.00749 413.3 51.1
463(12) 0.00748 413.2 52.8
464(11) 0.00800 413.0 54.8
478(12) 0.00745 412.9 57.0
475(12) 0.00705 412.7 59.5
483(12) 0.00708 412.6 62.4
452(11) 0.00779 412.5 65.8
462(11) 0.00794 412.3 69.6
444(11) 0.00801 412.2 74.1
455(12) 0.00752 412.1 79.2
508(12) 0.00672 411.9 85.2
501(12) 0.00717 411.8 92.1
494(12) 0.00748 411.7 100.0
511(12) 0.00663 411.5 109.1
506(12) 0.00676 411.4 119.5
473(12) 0.00747 411.3 131.3
534(12) 0.00654 411.1 144.7
529(12) 0.00697 411.0 159.8
545(13) 0.00621 410.9 176.7
552(13) 0.00598 410.7 195.5
569(13) 0.00598 410.6 216.3
587(13) 0.00620 410.5 239.1
622(13) 0.00592 410.3 263.8
678(14) 0.00513 410.2 290.5
677(14) 0.00493 410.1 319.0
719(14) 0.00483 409.9 349.1
713(14) 0.00514 409.8 380.6
749(14) 0.00497 409.7 413.1
803(15) 0.00423 409.5 446.0
834(16) 0.00386 409.4 478.9
856(16) 0.00408 409.3 510.8
946(16) 0.00388 409.1 540.9
965(16) 0.00377 409.0 568.2
970(17) 0.00361 408.9 591.5
980(17) 0.003324 408.7 609.8
914(16) 0.00388 408.6 622.1
993(16) 0.00373 408.4 627.9
1005(17) 0.00358 408.3 626.7
910(16) 0.00383 408.2 618.8
956(17) 0.003396 408.0 604.7
897(16) 0.00384 407.9 585.1
897(16) 0.00408 407.8 561.3
802(15) 0.00457 407.6 534.2
811(15) 0.00425 407.5 505.0
763(15) 0.00450 407.4 474.7
789(15) 0.00433 407.2 444.2
768(14) 0.00481 407.1 414.0
755(15) 0.00473 407.0 385.0
723(14) 0.00491 406.8 357.4
700(14) 0.00477 406.7 331.6
711(14) 0.00482 406.6 308.0
715(14) 0.00517 406.4 286.5
669(14) 0.00521 406.3 267.4
658(14) 0.00504 406.2 250.7
630(13) 0.00553 406.0 236.3
654(13) 0.00549 405.9 224.3
648(13) 0.00564 405.8 214.4
601(13) 0.00576 405.6 206.5
612(14) 0.00544 405.5 200.4
624(13) 0.00550 405.4 196.0
611(13) 0.00568 405.2 192.8
633(13) 0.00587 405.1 190.7
604(13) 0.00583 405.0 189.2
606(14) 0.00547 404.8 188.0
614(13) 0.00551 404.7 186.7
592(13) 0.00607 404.6 184.9
617(13) 0.00597 404.4 182.5
623(14) 0.00538 404.3 179.3
590(13) 0.00557 404.2 175.1
609(13) 0.00578 404.0 170.1
621(13) 0.00589 403.9 164.5
584(13) 0.00633 403.7 158.4
619(13) 0.00566 403.6 152.0
571(13) 0.00571 403.5 145.5
557(13) 0.00594 403.3 139.0
537(12) 0.00680 403.2 132.7
536(12) 0.00697 403.1 126.6
533(12) 0.00654 402.9 120.7
514(13) 0.00632 402.8 115.1
510(12) 0.00662 402.7 109.9
516(12) 0.00721 402.5 105.0
491(12) 0.00746 402.4 100.4
490(12) 0.00712 402.3 96.1
473(12) 0.00707 402.1 92.1
502(12) 0.00684 402.0 88.3
468(11) 0.00793 401.9 84.8
479(11) 0.00773 401.7 81.5
475(12) 0.00708 401.6 78.4
460(12) 0.00697 401.5 75.5
470(12) 0.00733 401.3 72.7
467(11) 0.00790 401.2 70.0
479(12) 0.00747 401.1 67.4
456(11) 0.00764 400.9 65.0
462(12) 0.00698 400.8 62.6
472(12) 0.00709 400.7 60.3
430(11) 0.00862 400.5 58.1
436(11) 0.00820 400.4 56.0
466(12) 0.00705 400.3 53.9
452(12) 0.00729 400.1 51.9
455(11) 0.00771 400.0 49.9
472(11) 0.00780 399.9 48.0
433(11) 0.00828 399.7 46.1
419(11) 0.00815 399.6 44.3
441(12) 0.00751 399.4 42.6
432(11) 0.00798 399.3 40.9
426(11) 0.00868 399.2 39.3
443(11) 0.00777 399.0 37.7
439(11) 0.00757 398.9 36.2
420(11) 0.00834 398.8 34.7
426(11) 0.00834 398.6 33.3
416(11) 0.00883 398.5 32.0
435(11) 0.00796 398.4 30.7
414(11) 0.00814 398.2 29.4
423(11) 0.00812 398.1 28.2
440(11) 0.00819 398.0 27.1
435(11) 0.00847 397.8 26.0
393(11) 0.00853 397.7 25.0
428(12) 0.00755 397.6 24.0
400(11) 0.00871 397.4 23.0
427(11) 0.00848 397.3 22.1
434(11) 0.00848 397.2 21.3
426(11) 0.00831 397.0 20.5
429(11) 0.00774 396.9 19.7
422(11) 0.00812 396.8 19.0
428(11) 0.00844 396.6 18.3
433(11) 0.00844 396.5 17.6
435(11) 0.00787 396.4 17.0
405(11) 0.00795 396.2 16.4
409(11) 0.00858 396.1 15.8
410(11) 0.00889 396.0 15.3
425(11) 0.00862 395.8 14.8
427(11) 0.00808 395.7 14.3
425(12) 0.00740 395.6 13.9
408(11) 0.00864 395.4 13.4
411(11) 0.00897 395.3 13.0
394(10) 0.00909 395.1 12.6
384(11) 0.00900 395.0 12.3
414(11) 0.00772 394.9 11.9
407(11) 0.00842 394.7 11.6
402(11) 0.00904 394.6 11.3
405(11) 0.00906 394.5 11.0
374(10) 0.00951 394.3 10.7
392(11) 0.00874 394.2 10.4
405(11) 0.00841 394.1 10.2
389(10) 0.00934 393.9 9.9
408(11) 0.00870 393.8 9.7
430(12) 0.00753 393.7 9.5
385(11) 0.00893 393.5 9.2
392(11) 0.00879 393.4 9.0
400(10) 0.00920 393.3 8.8
420(11) 0.00846 393.1 8.6
410(11) 0.00817 393.0 8.5
394(11) 0.00874 392.9 8.3
404(11) 0.00857 392.7 8.1
394(10) 0.00946 392.6 8.0
420(11) 0.00826 392.5 7.8
398(11) 0.00844 392.3 7.6
400(11) 0.00835 392.2 7.5
379(10) 0.00934 392.1 7.4
388(10) 0.00943 391.9 7.2
392(11) 0.00894 391.8 7.1
405(11) 0.00829 391.7 7.0
392(11) 0.00869 391.5 6.8
416(11) 0.00852 391.4 6.7
406(11) 0.00901 391.3 6.6
398(11) 0.00877 391.1 6.5
410(11) 0.00821 391.0 6.4
421(11) 0.00812 390.9 6.3
412(11) 0.00894 390.7 6.1
395(10) 0.00926 390.6 6.0
389(11) 0.00858 390.4 6.0
375(11) 0.00865 390.3 5.9
403(11) 0.00810 390.2 5.8
374(10) 0.00956 390.0 5.7
414(11) 0.00882 389.9 5.6
407(11) 0.00859 389.8 5.5
423(11) 0.00771 389.6 5.4
416(11) 0.00815 389.5 5.3
411(11) 0.00878 389.4 5.3
375(10) 0.00975 389.2 5.2
410(11) 0.00820 389.1 5.1
391(11) 0.00831 389.0 5.0
420(11) 0.00833 388.8 5.0
371(10) 0.00987 388.7 4.9
374(10) 0.00981 388.6 4.8
396(11) 0.00861 388.4 4.7
419(11) 0.00765 388.3 4.7
413(11) 0.00832 388.2 4.6
368(10) 0.00998 388.0 4.5
399(10) 0.00911 387.9 4.5
395(11) 0.00852 387.8 4.4
414(11) 0.00799 387.6 4.4
393(11) 0.00880 387.5 4.3
392(10) 0.00948 387.4 4.2
373(10) 0.00964 387.2 4.2
386(11) 0.00866 387.1 4.1
382(11) 0.00886 387.0 4.1
394(11) 0.00875 386.8 4.0
414(11) 0.00884 386.7 4.0
416(11) 0.00859 386.6 3.9
379(11) 0.00898 386.4 3.9
370(10) 0.00915 386.3 3.8
393(11) 0.00877 386.1 3.8
393(10) 0.00946 386.0 3.7
390(11) 0.00907 385.9 3.7
379(11) 0.00884 385.7 3.6
392(11) 0.00866 385.6 3.6
389(10) 0.00928 385.5 3.6
392(10) 0.00946 385.3 3.5
377(10) 0.00910 385.2 3.5
351(10) 0.00993 385.1 3.4
387(11) 0.00872 384.9 3.4
376(10) 0.00937 384.8 3.4
387(10) 0.00958 384.7 3.3
366(10) 0.00953 384.5 3.3
385(11) 0.00860 384.4 3.2
401(11) 0.00838 384.3 3.2
381(10) 0.00952 384.1 3.2
392(10) 0.00935 384.0 3.1
362(10) 0.00976 383.9 3.1
400(11) 0.00816 383.7 3.1
389(11) 0.00890 383.6 3.0
354(10) 0.01034 383.5 3.0
372(10) 0.00997 383.3 3.0
379(11) 0.00905 383.2 2.9
436(12) 0.00722 383.1 2.9
396(11) 0.00881 382.9 2.9
386(10) 0.00968 382.8 2.9
391(10) 0.00951 382.7 2.8
430(11) 0.00782 382.5 2.8
399(11) 0.00836 382.4 2.8
413(11) 0.00849 382.3 2.7
384(10) 0.00969 382.1 2.7
382(10) 0.00976 382.0 2.7
374(11) 0.00901 381.8 2.7
382(11) 0.00892 381.7 2.6
400(11) 0.00893 381.6 2.6
403(10) 0.00912 381.4 2.6
380(10) 0.00977 381.3 2.6
364(10) 0.00968 381.2 2.6
369(11) 0.00876 381.1 2.6
370(10) 0.00933 381.0 2.5
386(10) 0.00966 380.9 2.5
377(10) 0.00951 380.8 2.5
416(11) 0.00814 380.7 2.5
408(11) 0.00775 380.6 2.5
383(11) 0.00870 380.5 2.4
389(10) 0.00952 380.4 2.4
372(10) 0.00966 380.3 2.4
378(11) 0.00885 380.2 2.4
372(10) 0.00937 380.1 2.4
388(11) 0.00860 380.0 2.3
374(10) 0.00999 379.9 2.3
366(10) 0.00974 379.8 2.3
364(10) 0.00982 379.8 2.3
364(10) 0.00947 379.7 2.3
367(10) 0.00969 379.6 2.3
402(10) 0.00935 379.5 2.2
381(10) 0.00924 379.4 2.2
380(11) 0.00899 379.3 2.2
362(10) 0.00972 379.2 2.2
399(11) 0.00866 379.1 2.2
388(10) 0.00965 379.0 2.2
407(11) 0.00876 378.9 2.1
421(11) 0.00807 378.8 2.1
387(11) 0.00905 378.7 2.1
377(10) 0.00967 378.6 2.1
386(10) 0.00960 378.5 2.1
378(11) 0.00874 378.4 2.1
376(11) 0.00891 378.3 2.0
391(11) 0.00866 378.2 2.0
368(10) 0.00964 378.1 2.0
379(10) 0.00981 378.0 2.0
415(11) 0.00831 377.9 2.0
382(11) 0.00842 377.8 2.0
379(10) 0.00927 377.7 2.0
377(10) 0.00980 377.6 2.0
357(10) 0.01044 377.6 1.9
367(10) 0.00943 377.5 1.9
370(11) 0.00862 377.4 1.9
367(10) 0.00961 377.3 1.9
376(10) 0.00968 377.2 1.9
381(10) 0.00977 377.1 1.9
407(11) 0.00842 377.0 1.9
376(11) 0.00870 376.9 1.9
381(10) 0.00931 376.8 1.8
398(10) 0.00937 376.7 1.8
382(10) 0.00970 376.6 1.8
363(10) 0.00961 376.5 1.8
366(11) 0.00894 376.4 1.8
370(10) 0.00935 376.3 1.8
363(10) 0.01017 376.2 1.8
379(10) 0.00954 376.1 1.8
380(10) 0.00923 376.0 1.8
383(11) 0.00902 375.9 1.8
405(11) 0.00888 375.8 1.8
386(10) 0.00960 375.7 1.8
370(10) 0.00990 375.6 1.8
375(10) 0.00927 375.5 1.7
364(10) 0.00910 375.5 1.7
348(10) 0.01001 375.4 1.7
359(10) 0.01017 375.3 1.7
385(10) 0.00918 375.2 1.7
371(10) 0.00930 375.1 1.7
370(10) 0.00916 375.0 1.7
368(10) 0.00969 374.9 1.7
379(10) 0.00979 374.8 1.7
371(10) 0.00940 374.7 1.7
353(10) 0.00966 374.6 1.7
412(11) 0.00803 374.5 1.7
395(11) 0.00903 374.4 1.7
368(10) 0.01011 374.3 1.7
380(10) 0.00941 374.2 1.7
390(11) 0.00857 374.1 1.6
345(10) 0.01013 374.0 1.6
339(10) 0.01055 373.9 1.6
362(10) 0.01030 373.8 1.6
374(10) 0.00912 373.7 1.6
390(11) 0.00845 373.6 1.6
373(10) 0.00941 373.5 1.6
372(10) 0.00989 373.4 1.6
371(10) 0.01000 373.3 1.6
389(11) 0.00902 373.3 1.6
364(10) 0.00918 373.2 1.6
386(11) 0.00893 373.1 1.6
384(10) 0.00952 373.0 1.6
362(10) 0.01034 372.9 1.6
365(10) 0.00947 372.8 1.6
372(11) 0.00878 372.7 1.6
372(10) 0.00926 372.6 1.6
369(10) 0.01011 372.5 1.6
367(10) 0.01002 372.4 1.6
395(11) 0.00868 372.3 1.6
364(11) 0.00886 372.2 1.6
376(11) 0.00907 372.1 1.6
375(10) 0.00986 372.0 1.6
354(10) 0.01046 371.9 1.6
362(10) 0.00947 371.8 1.6
361(11) 0.00897 371.7 1.6
357(10) 0.00976 371.6 1.6
389(10) 0.00956 371.5 1.6
380(10) 0.00955 371.4 1.6
367(10) 0.00949 371.3 1.6
376(11) 0.00880 371.2 1.6
349(10) 0.00980 371.2 1.6
351(10) 0.01057 371.1 1.6
384(10) 0.00947 371.0 1.7
352(10) 0.00997 370.9 1.7
364(10) 0.00911 370.8 1.7
352(10) 0.00997 370.7 1.7
383(10) 0.00963 370.6 1.7
398(11) 0.00888 370.5 1.7
381(11) 0.00892 370.4 1.7
371(10) 0.00926 370.3 1.8
390(10) 0.00909 370.2 1.8
386(10) 0.00963 370.1 1.8
383(10) 0.00927 370.0 1.8
376(11) 0.00893 369.9 1.9
368(10) 0.00920 369.8 1.9
374(10) 0.00957 369.7 2.0
361(10) 0.01025 369.6 2.0
365(10) 0.00962 369.5 2.1
393(11) 0.00834 369.4 2.2
386(11) 0.00869 369.3 2.3
375(10) 0.00973 369.2 2.4
354(10) 0.01057 369.1 2.6
353(10) 0.01006 369.0 2.9
361(10) 0.00956 369.0 3.2
382(10) 0.00908 368.9 3.9
379(10) 0.00957 368.8 4.8
383(10) 0.00962 368.7 6.4
380(10) 0.00919 368.6 8.6
388(11) 0.00853 368.5 11.5
373(10) 0.00959 368.4 15.2
390(10) 0.00932 368.3 19.2
402(10) 0.00918 368.2 22.9
429(11) 0.00810 368.1 25.5
404(11) 0.00810 368.0 26.0
411(11) 0.00831 367.9 24.1
380(10) 0.00964 367.8 20.7
385(10) 0.00971 367.7 16.7
377(10) 0.00927 367.6 12.9
377(11) 0.00855 367.5 9.7
379(10) 0.00908 367.4 7.2
356(10) 0.01044 367.3 5.5
364(10) 0.01024 367.2 4.3
383(11) 0.00899 367.1 3.6
372(11) 0.00850 367.0 3.1
329(10) 0.01090 366.9 2.9
361(10) 0.01025 366.9 2.7
378(10) 0.00973 366.8 2.6
367(10) 0.00972 366.7 2.5
347(10) 0.00953 366.6 2.4
348(10) 0.00998 366.5 2.4
376(10) 0.00983 366.4 2.3
356(10) 0.01017 366.3 2.3
366(10) 0.00937 366.2 2.3
392(11) 0.00821 366.1 2.3
390(11) 0.00837 366.0 2.3
346(10) 0.01080 365.9 2.3
337(10) 0.01034 365.8 2.3
373(11) 0.00869 365.7 2.3
361(10) 0.00926 365.6 2.3
375(11) 0.00902 365.5 2.3
377(10) 0.00980 365.4 2.4
368(10) 0.00964 365.3 2.4
391(11) 0.00876 365.2 2.4
365(10) 0.00951 365.1 2.5
352(10) 0.01008 365.0 2.5
378(10) 0.00973 364.9 2.6
402(11) 0.00857 364.8 2.6
372(11) 0.00907 364.7 2.7
378(10) 0.00921 364.7 2.8
382(10) 0.00938 364.6 2.8
383(10) 0.00945 364.5 2.9
380(11) 0.00905 364.4 3.0
370(10) 0.00911 364.3 3.1
373(11) 0.00887 364.2 3.2
351(10) 0.01030 364.1 3.3
355(10) 0.01036 364.0 3.4
344(10) 0.01018 363.9 3.5
374(11) 0.00893 363.8 3.7
391(11) 0.00900 363.7 3.8
387(10) 0.00932 363.6 3.9
354(10) 0.01053 363.5 4.1
357(10) 0.00957 363.4 4.2
372(11) 0.00885 363.3 4.4
389(10) 0.00917 363.2 4.6
374(10) 0.00961 363.1 4.7
373(10) 0.00991 363.0 4.9
365(10) 0.00944 362.9 5.1
366(11) 0.00875 362.8 5.3
379(10) 0.00918 362.7 5.5
361(10) 0.01025 362.6 5.7
383(10) 0.00948 362.6 5.9
377(11) 0.00891 362.5 6.1
396(11) 0.00789 362.4 6.3
378(10) 0.00922 362.3 6.5
380(10) 0.00980 362.2 6.8
379(10) 0.00966 362.1 7.0
373(10) 0.00935 362.0 7.2
402(11) 0.00813 361.9 7.4
370(10) 0.00913 361.8 7.6
368(10) 0.00996 361.7 7.9
410(11) 0.00896 361.6 8.1
398(11) 0.00867 361.5 8.3
382(11) 0.00854 361.4 8.5
385(11) 0.00890 361.3 8.7
384(10) 0.00956 361.2 8.8
405(11) 0.00863 361.1 9.0
361(10) 0.00976 361.0 9.1
384(11) 0.00865 360.9 9.3
388(10) 0.00911 360.8 9.4
393(10) 0.00940 360.7 9.5
365(10) 0.00973 360.6 9.6
376(10) 0.00907 360.5 9.6
389(11) 0.00831 360.4 9.6
379(10) 0.00920 360.4 9.6
367(10) 0.01016 360.3 9.6
373(10) 0.00942 360.2 9.6
378(10) 0.00925 360.1 9.6
383(11) 0.00874 360.0 9.5
384(10) 0.00909 359.9 9.4
360(10) 0.01021 359.8 9.3
375(11) 0.00907 359.7 9.2
378(11) 0.00890 359.6 9.1
392(11) 0.00856 359.5 9.0
349(10) 0.01030 359.4 8.9
365(10) 0.01013 359.3 8.8
373(10) 0.00908 359.2 8.7
354(10) 0.00971 359.1 8.7
378(10) 0.00908 359.0 8.6
388(10) 0.00928 358.9 8.6
369(10) 0.01005 358.8 8.7
366(10) 0.00959 358.7 8.8
377(11) 0.00839 358.6 8.9
379(10) 0.00921 358.5 9.2
349(10) 0.01059 358.4 9.5
342(10) 0.01072 358.3 10.0
358(10) 0.00969 358.3 10.6
385(11) 0.00825 358.2 11.3
376(10) 0.00919 358.1 12.1
356(10) 0.01037 358.0 13.1
394(10) 0.00925 357.9 14.1
410(11) 0.00839 357.8 15.3
381(11) 0.00835 357.7 16.4
392(11) 0.00866 357.6 17.6
386(10) 0.00957 357.5 18.6
378(10) 0.00966 357.4 19.3
384(10) 0.00912 357.3 19.8
391(11) 0.00836 357.2 19.8
378(11) 0.00898 357.1 19.4
377(10) 0.00977 357.0 18.7
358(10) 0.01038 356.9 17.7
389(10) 0.00919 356.8 16.5
354(10) 0.00961 356.7 15.3
345(10) 0.00954 356.6 14.0
331(9) 0.01124 356.5 12.9
349(10) 0.01027 356.4 11.9
357(10) 0.00935 356.3 11.0
361(11) 0.00902 356.2 10.2
354(10) 0.01004 356.1 9.6
367(10) 0.00998 356.1 9.2
382(10) 0.00928 356.0 8.9
338(10) 0.01028 355.9 8.8
353(10) 0.00964 355.8 8.8
366(10) 0.00961 355.7 8.8
355(10) 0.01048 355.6 9.0
354(10) 0.00981 355.5 9.3
356(10) 0.00950 355.4 9.7
366(10) 0.00920 355.3 10.1
343(10) 0.01048 355.2 10.5
366(10) 0.01014 355.1 11.0
382(10) 0.00912 355.0 11.5
376(11) 0.00893 354.9 12.1
383(11) 0.00901 354.8 12.6
395(11) 0.00904 354.7 13.2
361(10) 0.01032 354.6 13.7
374(11) 0.00886 354.5 14.1
377(11) 0.00847 354.4 14.5
377(10) 0.00910 354.3 14.7
392(10) 0.00938 354.2 14.9
370(10) 0.01002 354.1 15.0
392(10) 0.00907 354.0 14.9
375(11) 0.00879 354.0 14.7
343(10) 0.01024 353.9 14.4
374(10) 0.00977 353.8 14.0
374(10) 0.00992 353.7 13.5
410(11) 0.00843 353.6 12.9
359(10) 0.00937 353.5 12.3
366(10) 0.00963 353.4 11.7
354(10) 0.01047 353.3 11.0
361(10) 0.01018 353.2 10.4
366(10) 0.00920 353.1 9.7
377(11) 0.00833 353.0 9.1
347(10) 0.00982 352.9 8.5
372(10) 0.00977 352.8 7.9
355(10) 0.01051 352.7 7.4
330(10) 0.01080 352.6 6.9
364(11) 0.00897 352.5 6.4
355(10) 0.00977 352.4 6.0
348(10) 0.01061 352.3 5.6
352(10) 0.01033 352.2 5.2
331(10) 0.01047 352.1 4.9
344(10) 0.00971 352.0 4.6
357(10) 0.00947 351.9 4.3
386(10) 0.00959 351.8 4.1
366(10) 0.01003 351.8 3.9
369(10) 0.00927 351.7 3.7
363(10) 0.00910 351.6 3.6
323(10) 0.01073 351.5 3.4
373(10) 0.00988 351.4 3.3
356(10) 0.01018 351.3 3.2
379(10) 0.00914 351.2 3.1
365(10) 0.00926 351.1 3.0
358(10) 0.00970 351.0 2.9
361(10) 0.01030 350.9 2.9
359(10) 0.00978 350.8 2.8
340(10) 0.00980 350.7 2.8
335(10) 0.00990 350.6 2.8
344(10) 0.01018 350.5 2.7
347(10) 0.01065 350.4 2.7
354(10) 0.00979 350.3 2.7
354(10) 0.00920 350.2 2.6
361(10) 0.00945 350.1 2.6
343(10) 0.01071 350.0 2.6
344(10) 0.01076 349.9 2.6
347(10) 0.00971 349.8 2.6
353(10) 0.00944 349.7 2.6
342(10) 0.01019 349.7 2.6
343(10) 0.01052 349.6 2.6
357(10) 0.01040 349.5 2.6
356(10) 0.00950 349.4 2.6
335(10) 0.00957 349.3 2.6
334(10) 0.01014 349.2 2.6
329(10) 0.01100 349.1 2.6
352(10) 0.01058 349.0 2.7
348(10) 0.00989 348.9 2.7
345(10) 0.00929 348.8 2.7
332(10) 0.01025 348.7 2.7
359(10) 0.01016 348.6 2.8
361(10) 0.01018 348.5 2.8
369(10) 0.00948 348.4 2.8
350(10) 0.00932 348.3 2.9
361(10) 0.00951 348.2 2.9
356(10) 0.01028 348.1 3.0
368(10) 0.01006 348.0 3.0
382(11) 0.00884 347.9 3.1
363(11) 0.00880 347.8 3.1
358(10) 0.00949 347.8 3.2
362(10) 0.01004 347.7 3.3
344(10) 0.01083 347.7 3.3
356(10) 0.00979 347.6 3.4
341(10) 0.00957 347.6 3.5
362(10) 0.00935 347.5 3.6
338(10) 0.01082 347.5 3.7
370(10) 0.00982 347.4 3.8
371(10) 0.00977 347.3 3.9
352(10) 0.00975 347.3 4.0
356(10) 0.00981 347.2 4.2
345(10) 0.01065 347.2 4.3
357(10) 0.00978 347.1 4.5
320(10) 0.01073 347.1 4.6
342(10) 0.00979 347.0 4.8
350(10) 0.00998 347.0 4.9
345(10) 0.01058 346.9 5.1
338(10) 0.01047 346.9 5.3
331(10) 0.01038 346.8 5.5
344(10) 0.00977 346.8 5.6
373(10) 0.00945 346.7 5.8
368(10) 0.01004 346.7 6.0
361(10) 0.00943 346.6 6.3
369(11) 0.00893 346.6 6.5
348(10) 0.00960 346.5 6.7
338(10) 0.01047 346.4 6.9
364(10) 0.01011 346.4 7.1
363(10) 0.00964 346.3 7.3
363(10) 0.00925 346.3 7.6
337(10) 0.01047 346.2 7.8
349(10) 0.01036 346.2 8.0
335(9) 0.01109 346.1 8.2
348(10) 0.00925 346.1 8.4
340(10) 0.00985 346.0 8.6
334(10) 0.01029 346.0 8.7
344(10) 0.01043 345.9 8.9
343(10) 0.01080 345.9 9.0
359(10) 0.00955 345.8 9.2
356(10) 0.00946 345.8 9.3
375(10) 0.00935 345.7 9.4
383(10) 0.00932 345.6 9.4
367(10) 0.00995 345.6 9.5
399(11) 0.00819 345.5 9.5
334(10) 0.00965 345.5 9.5
339(10) 0.01027 345.4 9.5
351(10) 0.01053 345.4 9.5
348(10) 0.01071 345.3 9.5
367(10) 0.00956 345.3 9.5
365(11) 0.00890 345.2 9.4
357(10) 0.01002 345.2 9.4
371(10) 0.01007 345.1 9.4
347(10) 0.01057 345.1 9.3
375(10) 0.00911 345.0 9.3
372(11) 0.00895 345.0 9.2
366(10) 0.00956 344.9 9.2
400(10) 0.00920 344.8 9.2
353(10) 0.01029 344.8 9.2
351(10) 0.00936 344.7 9.2
340(10) 0.00962 344.7 9.2
345(10) 0.01001 344.6 9.2
341(10) 0.01080 344.6 9.2
332(10) 0.01076 344.5 9.3
333(10) 0.01040 344.5 9.4
368(11) 0.00893 344.4 9.5
365(10) 0.00952 344.4 9.6
355(10) 0.01037 344.3 9.8
356(10) 0.01034 344.3 10.0
368(10) 0.00925 344.2 10.2
375(11) 0.00888 344.2 10.5
367(10) 0.00972 344.1 10.8
343(10) 0.01078 344.0 11.1
351(10) 0.00977 344.0 11.5
348(10) 0.00988 343.9 12.0
371(11) 0.00905 343.9 12.5
356(10) 0.00981 343.8 13.1
329(9) 0.01124 343.8 13.7
363(10) 0.00967 343.7 14.5
376(11) 0.00892 343.7 15.3
370(10) 0.00942 343.6 16.2
352(10) 0.01049 343.6 17.3
361(10) 0.01018 343.5 18.4
356(10) 0.00969 343.5 19.7
345(10) 0.00980 343.4 21.1
356(10) 0.00985 343.4 22.6
357(10) 0.01034 343.3 24.3
373(10) 0.00994 343.3 26.2
367(10) 0.00934 343.2 28.2
376(11) 0.00854 343.1 30.3
387(11) 0.00889 343.1 32.7
383(10) 0.00959 343.0 35.2
390(10) 0.00939 343.0 37.8
394(11) 0.00877 342.9 40.6
428(12) 0.00712 342.9 43.6
419(11) 0.00815 342.8 46.8
430(11) 0.00850 342.8 50.1
411(11) 0.00895 342.7 53.5
419(11) 0.00827 342.7 56.9
406(11) 0.00762 342.6 60.5
461(12) 0.00693 342.6 64.1
422(11) 0.00877 342.5 67.8
410(11) 0.00894 342.5 71.3
414(11) 0.00839 342.4 74.8
446(12) 0.00720 342.3 78.1
467(12) 0.00721 342.3 81.2
442(11) 0.00827 342.2 84.0
438(11) 0.00830 342.2 86.4
465(12) 0.00737 342.1 88.4
453(12) 0.00708 342.1 90.0
463(12) 0.00724 342.0 91.0
418(11) 0.00893 342.0 91.5
436(11) 0.00821 341.9 91.4
419(11) 0.00822 341.9 90.9
409(11) 0.00812 341.8 89.9
413(11) 0.00832 341.8 88.4
454(11) 0.00813 341.7 86.6
445(11) 0.00769 341.7 84.5
424(11) 0.00791 341.6 82.2
422(11) 0.00808 341.5 79.7
450(11) 0.00786 341.5 77.0
428(11) 0.00863 341.4 74.4
422(11) 0.00838 341.4 71.6
423(11) 0.00802 341.3 69.0
428(11) 0.00787 341.3 66.3
408(11) 0.00868 341.2 63.7
385(10) 0.00964 341.2 61.2
405(11) 0.00863 341.1 58.7
425(11) 0.00809 341.1 56.4
388(10) 0.00928 341.0 54.1
427(11) 0.00838 341.0 52.0
419(11) 0.00879 340.9 49.9
406(11) 0.00844 340.9 47.9
389(11) 0.00879 340.8 46.0
392(11) 0.00903 340.8 44.1
419(11) 0.00871 340.7 42.4
390(10) 0.00960 340.6 40.7
380(11) 0.00902 340.6 39.0
401(11) 0.00805 340.5 37.4
384(11) 0.00889 340.5 35.9
361(10) 0.01018 340.4 34.4
338(10) 0.01095 340.4 33.0
365(10) 0.00948 340.3 31.6
391(11) 0.00818 340.3 30.1
365(10) 0.00941 340.2 28.8
357(10) 0.01045 340.2 27.6
363(10) 0.01007 340.1 26.4
399(11) 0.00822 340.1 25.2
373(11) 0.00865 340.0 24.1
372(10) 0.00947 340.0 23.0
377(10) 0.00981 339.9 22.0
353(10) 0.01040 339.8 21.0
368(10) 0.00945 339.8 20.0
377(11) 0.00835 339.7 19.1
357(10) 0.00957 339.7 18.2
353(10) 0.01038 339.6 17.4
366(10) 0.01008 339.6 16.6
365(10) 0.00962 339.5 15.8
356(10) 0.00922 339.5 15.1
334(10) 0.01050 339.4 14.3
330(9) 0.01132 339.4 13.7
326(10) 0.01094 339.3 13.0
363(10) 0.00941 339.3 12.4
370(11) 0.00901 339.2 11.8
344(10) 0.00985 339.2 11.2
359(10) 0.01034 339.1 10.7
351(10) 0.01016 339.0 10.2
362(10) 0.00910 339.0 9.7
376(11) 0.00862 338.9 9.3
376(11) 0.00895 338.9 8.8
356(10) 0.01036 338.8 8.4
357(10) 0.00998 338.8 8.1
337(10) 0.01046 338.7 7.7
385(11) 0.00870 338.7 7.4
357(10) 0.00994 338.6 7.0
362(10) 0.01020 338.6 6.7
333(10) 0.01066 338.5 6.5
348(10) 0.00995 338.5 6.2
372(11) 0.00901 338.4 5.9
331(10) 0.01096 338.4 5.7
331(9) 0.01118 338.3 5.5
360(10) 0.00928 338.2 5.3
351(10) 0.00951 338.2 5.1
347(10) 0.01008 338.1 4.9
336(10) 0.01069 338.1 4.7
347(10) 0.01057 338.0 4.6
356(10) 0.00968 338.0 4.4
353(10) 0.00926 337.9 4.3
344(10) 0.00987 337.9 4.1
345(10) 0.01056 337.8 4.0
355(10) 0.01028 337.8 3.9
357(10) 0.00983 337.7 3.8
389(11) 0.00783 337.7 3.7
350(10) 0.00970 337.6 3.6
321(9) 0.01151 337.6 3.5
368(10) 0.01010 337.5 3.4
375(10) 0.00913 337.5 3.3
326(10) 0.01003 337.4 3.2
322(10) 0.01073 337.3 3.1
334(10) 0.01080 337.3 3.0
333(10) 0.01083 337.2 3.0
349(10) 0.00991 337.2 2.9
366(11) 0.00849 337.1 2.8
326(10) 0.01061 337.1 2.8
337(10) 0.01092 337.0 2.7
336(10) 0.01070 337.0 2.6
342(10) 0.00995 336.9 2.6
360(11) 0.00892 336.9 2.5
353(10) 0.01002 336.8 2.5
339(10) 0.01087 336.8 2.4
347(10) 0.01055 336.7 2.4
352(10) 0.00977 336.7 2.3
345(10) 0.00976 336.6 2.3
360(10) 0.00978 336.5 2.2
338(10) 0.01074 336.5 2.2
342(10) 0.01068 336.4 2.1
355(10) 0.00962 336.4 2.1
357(10) 0.00960 336.3 2.1
337(10) 0.01050 336.3 2.0
340(10) 0.01085 336.2 2.0
358(10) 0.00990 336.2 2.0
352(10) 0.00948 336.1 1.9
340(10) 0.01004 336.1 1.9
360(10) 0.00935 336.0 1.9
341(10) 0.01076 336.0 1.8
341(10) 0.01034 335.9 1.8
334(10) 0.00994 335.9 1.8
324(10) 0.01077 335.8 1.7
326(10) 0.01056 335.7 1.7
369(10) 0.01005 335.7 1.7
365(10) 0.00913 335.6 1.6
351(10) 0.00939 335.6 1.6
360(10) 0.00958 335.5 1.6
337(10) 0.01075 335.5 1.6
355(10) 0.01052 335.4 1.5
339(10) 0.01036 335.4 1.5
347(10) 0.00941 335.3 1.5
343(10) 0.00978 335.3 1.5
336(10) 0.01058 335.2 1.5
357(10) 0.01030 335.2 1.4
336(10) 0.01027 335.1 1.4
321(10) 0.01031 335.1 1.4
330(10) 0.01007 335.0 1.4
346(10) 0.01071 334.9 1.8
338(10) 0.01070 334.9 1.8
345(10) 0.00957 334.8 1.8
355(11) 0.00894 334.8 1.8
362(10) 0.00927 334.7 1.8
361(10) 0.01003 334.7 1.7
337(10) 0.01072 334.6 1.7
348(10) 0.01016 334.6 1.7
342(10) 0.00951 334.5 1.7
339(10) 0.01018 334.5 1.7
337(10) 0.01092 334.4 1.7
330(10) 0.01102 334.4 1.7
330(10) 0.01058 334.3 1.7
346(10) 0.00932 334.3 1.7
356(10) 0.00958 334.2 1.6
326(9) 0.01121 334.2 1.6
363(10) 0.01013 334.1 1.6
357(10) 0.00994 334.0 1.6
344(10) 0.00942 334.0 1.6
337(10) 0.01002 333.9 1.6
318(9) 0.01135 333.9 1.6
337(10) 0.01059 333.8 1.6
318(10) 0.01101 333.8 1.6
327(10) 0.01043 333.7 1.6
370(10) 0.00915 333.7 1.6
369(10) 0.01013 333.6 1.6
350(10) 0.00976 333.6 1.6
340(10) 0.00984 333.5 1.6
344(10) 0.00959 333.5 1.6
360(10) 0.00968 333.4 1.6
371(10) 0.00995 333.4 1.5
355(10) 0.00978 333.3 1.5
352(10) 0.00966 333.2 1.5
333(10) 0.01048 333.2 1.5
328(10) 0.01049 333.1 1.5
312(9) 0.01191 333.2 1.5
363(11) 0.00891 333.2 1.5
357(10) 0.00909 333.2 1.5
351(10) 0.00974 333.3 1.5
337(10) 0.01058 333.3 1.5
311(9) 0.01196 333.4 1.5
331(10) 0.01061 333.4 1.5
341(10) 0.00982 333.5 1.5
329(10) 0.01072 333.5 1.5
330(10) 0.01073 333.5 1.5
314(9) 0.01192 333.6 1.5
350(10) 0.00991 333.6 1.5
341(10) 0.00977 333.7 1.5
317(9) 0.01126 333.7 1.5
342(10) 0.01086 333.7 1.5
318(9) 0.01160 333.8 1.5
329(10) 0.01101 333.8 1.5
345(10) 0.00956 333.9 1.5
341(10) 0.01046 333.9 1.5
330(9) 0.01132 334.0 1.5
335(10) 0.01103 334.0 1.5
339(10) 0.01033 334.0 1.5
341(10) 0.00963 334.1 1.5
345(10) 0.00999 334.1 1.6
315(9) 0.01201 334.2 1.6
341(10) 0.01076 334.2 1.6
348(10) 0.00984 334.2 1.6
319(10) 0.01068 334.3 1.6
348(10) 0.00990 334.3 1.6
342(10) 0.01078 334.4 1.6
342(10) 0.01077 334.4 1.6
328(10) 0.01070 334.5 1.6
338(10) 0.00948 334.5 1.6
352(10) 0.00968 334.5 1.6
369(10) 0.00999 334.6 1.6
330(9) 0.01130 334.6 1.6
357(10) 0.00953 334.7 1.6
337(10) 0.01037 334.7 1.6
343(10) 0.01016 334.7 1.6
324(9) 0.01132 334.8 1.7
353(10) 0.01024 334.8 1.7
346(10) 0.00979 334.9 1.7
353(10) 0.00939 334.9 1.7
331(10) 0.01052 335.0 1.7
351(10) 0.01056 335.0 2.7
320(10) 0.01094 335.0 2.7
368(11) 0.00904 335.1 2.7
342(10) 0.01000 335.1 2.8
342(10) 0.01048 335.2 2.8
353(10) 0.01051 335.2 2.9
386(11) 0.00906 335.2 2.9
371(10) 0.00925 335.3 2.9
343(10) 0.01002 335.3 3.0
349(10) 0.01032 335.4 3.1
343(10) 0.01064 335.4 3.1
360(10) 0.00949 335.5 3.2
358(10) 0.00922 335.5 3.2
367(10) 0.00946 335.5 3.3
335(10) 0.01099 335.6 3.4
326(9) 0.01129 335.6 3.4
345(10) 0.01007 335.7 3.5
319(10) 0.01016 335.7 3.5
354(10) 0.00944 335.7 3.6
320(9) 0.01151 335.8 3.7
329(9) 0.01134 335.8 3.8
352(10) 0.00951 335.9 3.8
328(10) 0.01013 335.9 3.9
347(10) 0.01007 336.0 4.0
355(10) 0.01054 336.0 4.1
344(10) 0.01073 336.0 4.2
363(10) 0.00989 336.1 4.3
366(11) 0.00886 336.1 4.4
362(10) 0.00949 336.2 4.6
361(10) 0.01028 336.2 4.7
326(9) 0.01136 336.2 4.8
339(10) 0.01018 336.3 5.0
349(11) 0.00905 336.3 5.1
313(9) 0.01125 336.4 5.3
312(9) 0.01194 336.4 5.4
363(10) 0.01001 336.5 5.6
342(10) 0.00999 336.5 5.8
361(11) 0.00868 336.5 5.9
315(10) 0.01088 336.6 6.1
352(10) 0.01047 336.6 6.3
352(10) 0.01035 336.7 6.5
335(10) 0.01004 336.7 6.7
347(10) 0.00962 336.7 7.0
325(10) 0.01053 336.8 7.2
340(10) 0.01093 336.8 7.4
375(10) 0.00932 336.9 7.7
369(10) 0.00918 336.9 7.9
325(10) 0.01080 337.0 8.2
337(10) 0.01056 337.0 8.5
381(10) 0.00978 337.0 8.8
367(10) 0.00970 337.1 9.1
371(10) 0.00922 337.1 9.5
354(10) 0.00968 337.2 9.9
373(10) 0.00943 337.2 10.3
387(10) 0.00960 337.2 10.7
364(10) 0.00962 337.3 11.2
358(10) 0.00937 337.3 11.8
328(10) 0.01074 337.4 12.4
353(10) 0.01016 337.4 13.1
356(10) 0.01036 337.5 13.8
339(10) 0.01026 337.5 14.6
364(10) 0.00925 337.5 15.6
340(10) 0.01045 337.6 16.6
358(10) 0.01028 337.6 17.8
368(10) 0.00998 337.7 19.2
366(10) 0.00940 337.7 20.8
362(10) 0.00949 337.7 22.6
399(11) 0.00867 337.8 24.7
428(11) 0.00846 337.8 27.1
388(10) 0.00945 337.9 30.0
392(11) 0.00863 337.9 33.5
395(11) 0.00795 338.0 37.6
389(11) 0.00886 338.0 42.9
418(11) 0.00887 338.0 49.8
458(11) 0.00815 338.1 59.6
500(12) 0.00684 338.1 74.5
501(13) 0.00638 338.2 98.6
511(12) 0.00706 338.2 138.4
563(12) 0.00651 338.2 202.1
661(13) 0.00559 338.3 299.5
783(15) 0.00437 338.3 437.0
893(17) 0.00364 338.4 614.5
1101(18) 0.003126 338.4 820.2
1299(19) 0.002856 338.5 1024.9
1539(20) 0.002387 338.5 1182.9
1726(22) 0.001981 338.5 1240.7
1715(23) 0.001908 338.6 1174.4
1378(20) 0.002591 338.6 1011.3
1057(17) 0.00352 338.7 805.4
839(15) 0.00432 338.7 601.3
705(14) 0.00476 338.7 427.1
592(13) 0.00565 338.8 293.0
573(13) 0.00599 338.8 198.7
489(12) 0.00751 338.9 137.3
479(11) 0.00758 338.9 99.3
433(11) 0.00796 339.0 76.4
426(11) 0.00793 339.0 62.2
446(11) 0.00762 339.0 53.1
421(11) 0.00879 339.1 46.6
397(11) 0.00889 339.1 41.8
383(11) 0.00866 339.2 38.1
385(11) 0.00873 339.2 35.0
397(11) 0.00872 339.2 32.6
369(10) 0.01022 339.3 30.5
412(11) 0.00842 339.3 28.9
395(11) 0.00872 339.4 27.5
360(10) 0.00973 339.4 26.4
376(10) 0.00947 339.5 25.5
353(10) 0.01055 339.5 24.8
374(11) 0.00906 339.5 24.2
357(10) 0.00929 339.6 23.8
356(10) 0.00997 339.6 23.6
354(10) 0.01033 339.7 23.4
381(10) 0.00973 339.7 23.4
365(10) 0.00976 339.7 23.4
379(11) 0.00864 339.8 23.6
364(10) 0.00941 339.8 23.9
366(10) 0.00998 339.9 24.2
340(10) 0.01090 339.9 24.9
357(10) 0.00965 340.0 25.4
382(11) 0.00845 340.0 26.1
369(10) 0.00942 340.0 26.9
377(10) 0.00967 340.1 27.8
369(10) 0.01012 340.1 28.8
360(10) 0.00968 340.2 29.9
373(11) 0.00854 340.2 31.2
364(10) 0.00942 340.2 32.6
355(10) 0.01023 340.3 34.3
380(10) 0.00987 340.3 36.1
369(10) 0.00958 340.4 38.3
383(11) 0.00833 340.4 40.7
391(11) 0.00839 340.5 43.6
396(10) 0.00933 340.5 46.9
415(11) 0.00878 340.5 50.9
425(11) 0.00811 340.6 55.6
422(11) 0.00773 340.6 61.3
383(10) 0.00924 340.7 68.0
391(10) 0.00950 340.7 76.3
396(10) 0.00938 340.7 86.2
443(11) 0.00788 340.8 98.1
466(12) 0.00691 340.8 112.4
456(12) 0.00749 340.9 129.3
501(12) 0.00743 340.9 149.3
523(12) 0.00676 341.0 172.6
504(12) 0.00701 341.0 199.3
568(13) 0.00595 341.0 229.7
609(13) 0.00574 341.1 263.5
657(13) 0.00563 341.1 300.7
702(14) 0.00507 341.2 340.7
693(14) 0.00498 341.2 382.8
747(15) 0.00456 341.2 425.7
783(15) 0.00447 341.3 467.9
845(15) 0.00441 341.3 507.4
917(16) 0.00386 341.4 541.4
928(16) 0.00370 341.4 567.3
960(17) 0.00364 341.5 582.7
897(16) 0.00399 341.5 585.9
862(15) 0.00431 341.5 576.6
813(15) 0.00423 341.6 556.0
793(15) 0.00427 341.6 526.3
759(15) 0.00460 341.7 490.2
723(14) 0.00497 341.7 450.4
697(14) 0.00534 341.7 409.4
668(14) 0.00516 341.8 369.2
665(14) 0.00495 341.8 331.6
586(13) 0.00591 341.9 298.3
591(13) 0.00619 341.9 271.2
573(12) 0.00643 342.0 252.6
562(13) 0.00618 342.0 245.2
609(14) 0.00530 342.0 251.4
627(14) 0.00542 342.1 272.6
658(13) 0.00558 342.1 307.5
674(14) 0.00548 342.2 351.0
759(15) 0.00456 342.2 393.2
868(16) 0.00376 342.2 419.1
842(15) 0.00418 342.3 414.5
819(15) 0.00448 342.3 377.3
679(14) 0.00538 342.4 319.1
612(14) 0.00548 342.4 254.9
532(13) 0.00598 342.5 195.5
488(12) 0.00696 342.5 146.6
449(11) 0.00830 342.5 109.8
458(11) 0.00787 342.6 84.0
444(11) 0.00814 342.6 66.8
417(11) 0.00797 342.7 55.6
430(11) 0.00801 342.7 48.1
414(11) 0.00907 342.7 42.9
410(11) 0.00869 342.8 38.9
392(11) 0.00886 342.8 35.7
376(11) 0.00895 342.9 33.1
393(11) 0.00872 342.9 30.8
385(10) 0.00964 342.9 28.8
375(10) 0.00971 343.0 27.0
348(10) 0.00997 343.0 25.4
371(11) 0.00904 343.1 24.0
369(10) 0.00940 343.1 22.7
356(10) 0.01031 343.2 21.6
383(10) 0.00933 343.2 20.5
389(11) 0.00864 343.2 19.6
369(10) 0.00935 343.3 18.7
352(10) 0.01030 343.3 17.9
340(10) 0.01090 343.4 17.1
352(10) 0.01018 343.4 16.4
374(10) 0.00917 343.4 15.8
361(10) 0.00924 343.5 15.2
337(10) 0.01087 343.5 14.7
346(10) 0.01071 343.6 14.2
373(10) 0.00922 343.6 13.7
385(11) 0.00863 343.7 13.2
360(10) 0.00974 343.7 12.8
368(10) 0.00988 343.7 12.4
337(10) 0.01094 343.8 12.1
368(10) 0.00926 343.8 11.7
339(10) 0.00996 343.9 11.4
350(10) 0.00983 343.9 11.1
336(10) 0.01082 343.9 10.8
323(9) 0.01136 344.0 10.5
354(10) 0.00951 344.0 10.3
345(10) 0.00983 344.1 10.1
362(10) 0.00944 344.1 9.8
349(10) 0.01039 344.2 9.6
349(10) 0.01068 344.2 9.4
364(10) 0.00960 344.2 9.2
342(10) 0.00965 344.3 9.1
339(10) 0.01037 344.3 8.9
357(10) 0.01055 344.4 8.7
374(10) 0.00985 344.4 8.6
366(10) 0.00959 344.4 8.5
335(10) 0.00984 344.5 8.3
361(10) 0.00938 344.5 8.2
321(9) 0.01143 344.6 8.1
341(10) 0.01080 344.6 8.0
346(10) 0.01012 344.7 7.9
342(10) 0.00996 344.7 7.8
350(10) 0.01034 344.7 7.7
385(10) 0.00962 344.8 7.6
371(10) 0.00979 344.8 7.6
352(10) 0.00998 344.9 7.5
382(11) 0.00849 344.9 7.5
347(10) 0.01010 344.9 7.4
342(10) 0.01074 345.0 7.3
360(10) 0.01020 345.0 7.3
353(10) 0.00983 345.1 7.3
354(10) 0.00907 345.1 7.2
331(10) 0.01011 345.2 7.2
362(10) 0.01029 345.2 7.2
329(10) 0.01086 345.2 7.2
353(10) 0.00965 345.3 7.2
350(10) 0.00992 345.3 7.2
359(10) 0.00969 345.3 7.2
334(9) 0.01117 345.4 7.2
334(10) 0.01066 345.4 7.2
352(10) 0.00950 345.5 7.2
363(10) 0.00919 345.5 7.2
349(10) 0.00988 345.5 7.2
338(10) 0.01091 345.6 7.3
343(10) 0.01019 345.6 7.3
348(10) 0.00973 345.7 7.3
361(10) 0.00944 345.7 7.4
370(10) 0.00977 345.7 7.5
342(10) 0.01080 345.8 7.8
358(10) 0.00934 345.8 7.9
348(10) 0.00987 345.9 8.0
357(10) 0.00931 345.9 8.1
367(10) 0.00971 345.9 8.2
363(10) 0.01022 346.0 8.3
369(10) 0.00951 346.0 8.4
351(10) 0.00969 346.0 8.5
363(10) 0.00956 346.1 8.7
368(10) 0.00965 346.1 8.8
349(10) 0.01074 346.2 8.9
350(10) 0.00988 346.2 9.1
365(11) 0.00880 346.2 9.3
334(10) 0.01073 346.3 9.5
343(10) 0.01060 346.3 9.7
352(10) 0.01029 346.4 9.9
336(10) 0.01017 346.4 10.2
368(11) 0.00828 346.4 10.4
373(10) 0.00907 346.5 10.7
351(10) 0.01076 346.5 11.0
380(10) 0.00959 346.5 11.4
365(10) 0.00953 346.6 11.8
368(11) 0.00875 346.6 12.2
359(10) 0.00991 346.7 12.7
354(10) 0.01059 346.7 13.2
357(10) 0.00999 346.7 13.8
380(11) 0.00882 346.8 14.5
373(11) 0.00904 346.8 15.3
388(11) 0.00897 346.9 16.2
375(10) 0.00992 346.9 17.3
351(10) 0.01027 346.9 18.5
358(10) 0.00986 347.0 19.9
387(11) 0.00873 347.0 21.5
355(10) 0.00994 347.0 23.4
368(10) 0.01002 347.1 25.5
378(10) 0.00961 347.1 28.0
409(11) 0.00855 347.2 30.7
366(10) 0.00945 347.2 33.8
386(10) 0.00915 347.2 37.3
383(10) 0.00963 347.3 41.1
377(10) 0.00942 347.3 45.2
424(11) 0.00793 347.4 49.6
422(11) 0.00811 347.4 54.2
422(11) 0.00842 347.4 59.0
402(10) 0.00914 347.5 63.8
418(11) 0.00839 347.5 68.6
414(11) 0.00835 347.6 73.1
427(11) 0.00813 347.6 77.1
427(11) 0.00841 347.6 80.4
418(11) 0.00893 347.7 82.8
427(11) 0.00813 347.7 84.2
436(11) 0.00770 347.7 84.5
420(11) 0.00856 347.8 83.9
430(11) 0.00832 347.8 82.1
456(11) 0.00808 347.9 79.5
429(11) 0.00820 347.9 76.5
436(11) 0.00778 347.9 73.1
432(11) 0.00792 348.0 69.6
426(11) 0.00843 348.0 66.2
410(10) 0.00915 348.1 62.9
406(11) 0.00860 348.1 59.9
420(11) 0.00760 348.1 57.2
413(11) 0.00844 348.2 54.9
435(11) 0.00843 348.2 53.0
429(11) 0.00862 348.2 51.5
408(11) 0.00874 348.3 50.5
400(11) 0.00822 348.3 50.0
383(10) 0.00919 348.4 50.0
398(10) 0.00929 348.4 50.4
393(10) 0.00927 348.4 51.4
394(11) 0.00897 348.5 53.0
400(11) 0.00832 348.5 55.7
440(11) 0.00767 348.6 58.5
428(11) 0.00858 348.6 62.0
422(11) 0.00858 348.6 66.3
414(11) 0.00866 348.7 71.5
455(12) 0.00707 348.7 77.6
430(11) 0.00803 348.7 84.7
454(11) 0.00816 348.8 92.9
490(12) 0.00737 348.8 102.3
469(12) 0.00723 348.9 112.9
459(12) 0.00716 348.9 124.7
485(12) 0.00720 348.9 137.6
484(11) 0.00764 349.0 151.5
522(12) 0.00693 349.0 166.3
491(12) 0.00702 349.1 181.8
537(13) 0.00612 349.1 197.5
533(12) 0.00640 349.1 213.0
575(12) 0.00646 349.2 227.7
582(13) 0.00613 349.2 240.9
568(13) 0.00598 349.3 251.6
610(13) 0.00551 349.3 259.2
616(13) 0.00587 349.3 263.0
638(13) 0.00583 349.4 262.6
651(14) 0.00537 349.4 258.2
594(13) 0.00588 349.4 250.0
601(13) 0.00553 349.5 238.9
601(13) 0.00587 349.5 225.5
550(12) 0.00673 349.6 210.7
551(13) 0.00627 349.6 195.2
523(12) 0.00645 349.6 179.6
496(12) 0.00690 349.7 164.3
478(11) 0.00758 349.7 149.7
463(11) 0.00798 349.8 135.9
461(12) 0.00750 349.8 123.2
449(11) 0.00761 349.8 111.6
420(11) 0.00847 349.9 101.2
441(11) 0.00832 349.9 91.9
430(11) 0.00854 349.9 83.7
419(11) 0.00835 350.0 76.4
423(11) 0.00773 350.0 70.2
388(10) 0.00919 350.1 64.7
386(10) 0.00962 350.1 60.0
390(10) 0.00946 350.1 55.9
367(10) 0.00960 350.2 52.6
408(11) 0.00798 350.2 49.6
389(10) 0.00937 350.3 46.9
409(11) 0.00900 350.3 44.6
380(10) 0.00975 350.3 42.5
363(10) 0.00972 350.4 40.7
368(11) 0.00854 350.4 39.0
367(10) 0.00948 350.4 37.6
369(10) 0.01003 350.5 36.2
376(10) 0.00978 350.5 34.9
378(10) 0.00932 350.6 33.8
390(11) 0.00835 350.6 32.7
367(10) 0.00923 350.6 31.8
377(10) 0.00981 350.7 30.9
388(10) 0.00938 350.7 30.0
369(10) 0.00911 350.8 29.3
363(10) 0.00914 350.8 28.5
378(11) 0.00898 350.8 27.9
364(10) 0.01007 350.9 27.3
394(10) 0.00912 350.9 26.8
354(10) 0.00978 351.0 26.3
371(11) 0.00877 351.0 25.8
332(10) 0.01068 351.0 25.5
356(10) 0.01030 351.1 25.1
392(11) 0.00902 351.1 24.9
387(11) 0.00857 351.1 24.7
358(10) 0.00942 351.2 24.6
377(10) 0.00918 351.2 24.5
389(10) 0.00954 351.3 24.5
367(10) 0.00954 351.3 24.5
374(11) 0.00891 351.3 24.7
350(10) 0.01000 351.4 24.9
347(10) 0.01066 351.4 25.2
368(10) 0.01013 351.5 25.6
374(10) 0.00942 351.5 26.1
359(10) 0.00991 351.5 26.8
381(11) 0.00892 351.6 27.7
387(10) 0.00909 351.6 28.8
388(10) 0.00944 351.6 30.3
391(11) 0.00865 351.7 32.3
389(11) 0.00864 351.7 34.9
404(11) 0.00858 351.8 38.2
400(11) 0.00902 351.8 42.1
436(11) 0.00843 351.8 46.4
377(11) 0.00901 351.9 50.8
394(11) 0.00826 351.9 54.8
400(11) 0.00868 352.0 58.5
395(10) 0.00919 352.0 62.6
406(10) 0.00920 352.0 68.1
442(11) 0.00776 352.1 76.3
426(11) 0.00778 352.1 88.3
490(12) 0.00688 352.1 105.2
458(11) 0.00792 352.2 128.0
521(12) 0.00720 352.2 157.8
537(12) 0.00672 352.3 195.0
605(14) 0.00532 352.3 240.1
697(14) 0.00495 352.3 292.5
764(14) 0.00482 352.4 350.5
870(15) 0.00423 352.4 411.7
958(16) 0.00368 352.5 471.0
1044(18) 0.003126 352.5 522.1
1149(18) 0.003029 352.5 557.0
1157(18) 0.003198 352.6 568.8
1103(17) 0.003301 352.6 554.8
1009(17) 0.003394 352.6 518.3
933(17) 0.003472 352.7 466.2
794(15) 0.00432 352.7 406.5
751(14) 0.00494 352.8 345.5
714(14) 0.00506 352.8 287.7
676(14) 0.00509 352.8 235.9
593(13) 0.00555 352.9 191.4
557(13) 0.00635 352.9 154.5
543(12) 0.00686 353.0 124.9
481(12) 0.00738 353.0 101.8
502(12) 0.00671 353.0 84.2
454(12) 0.00743 353.1 70.9
426(11) 0.00834 353.1 61.1
410(11) 0.00891 353.2 53.8
410(11) 0.00844 353.2 48.3
401(11) 0.00848 353.2 44.1
389(11) 0.00901 353.3 40.8
399(11) 0.00895 353.3 38.3
440(11) 0.00841 353.3 36.2
436(11) 0.00780 353.4 34.5
389(11) 0.00865 353.4 33.2
393(11) 0.00880 353.5 32.1
412(11) 0.00881 353.5 31.3
432(11) 0.00859 353.5 30.7
394(11) 0.00895 353.6 30.3
397(11) 0.00861 353.6 30.1
413(11) 0.00824 353.7 30.0
405(10) 0.00920 353.7 30.2
402(10) 0.00928 353.7 30.6
433(11) 0.00797 353.8 31.3
401(11) 0.00838 353.8 32.2
413(11) 0.00836 353.8 33.4
394(10) 0.00920 353.9 35.0
421(11) 0.00881 353.9 37.1
409(11) 0.00867 354.0 39.9
442(12) 0.00730 354.0 43.6
424(11) 0.00808 354.0 48.8
437(11) 0.00842 354.1 55.8
453(11) 0.00808 354.1 65.5
460(11) 0.00770 354.2 78.7
456(12) 0.00707 354.2 96.4
476(12) 0.00732 354.2 119.5
508(12) 0.00729 354.3 148.7
546(12) 0.00675 354.3 184.4
612(13) 0.00570 354.3 226.5
685(15) 0.00475 354.4 273.6
741(15) 0.00459 354.4 323.6
791(15) 0.00466 354.5 372.2
823(15) 0.00447 354.5 414.0
902(16) 0.00391 354.5 442.0
920(17) 0.00362 354.6 450.2
900(16) 0.00390 354.6 436.6
900(16) 0.00414 354.7 404.6
785(15) 0.00463 354.7 360.4
683(14) 0.00502 354.7 310.7
615(13) 0.00550 354.8 261.0
550(13) 0.00636 354.8 214.6
527(12) 0.00705 354.9 173.9
506(12) 0.00708 354.9 139.5
477(12) 0.00719 354.9 111.5
425(11) 0.00842 355.0 89.6
442(11) 0.00795 355.0 72.8
423(11) 0.00874 355.0 60.3
391(10) 0.00912 355.1 51.0
382(11) 0.00906 355.1 44.2
394(11) 0.00845 355.2 39.1
393(11) 0.00902 355.2 35.3
407(11) 0.00906 355.2 32.3
367(10) 0.00959 355.3 30.0
368(10) 0.00931 355.3 28.1
382(11) 0.00898 355.4 26.5
370(10) 0.00956 355.4 25.2
354(10) 0.01045 355.4 24.1
385(10) 0.00910 355.5 23.2
380(11) 0.00888 355.5 22.4
367(10) 0.00942 355.5 21.7
379(10) 0.00960 355.6 21.2
388(10) 0.00951 355.6 20.7
375(10) 0.00937 355.7 20.4
386(11) 0.00861 355.7 20.1
379(10) 0.00948 355.7 20.0
373(10) 0.00961 355.8 19.9
393(10) 0.00948 355.8 19.9
410(11) 0.00835 355.9 20.0
376(11) 0.00893 355.9 20.2
354(10) 0.00986 355.9 20.5
376(10) 0.00980 356.0 20.9
371(10) 0.01011 356.0 21.4
378(11) 0.00887 356.0 22.0
362(11) 0.00878 356.1 22.7
365(10) 0.00978 356.1 23.6
390(10) 0.00943 356.2 24.6
388(10) 0.00952 356.2 25.9
378(10) 0.00913 356.2 27.3
396(11) 0.00787 356.3 29.1
365(10) 0.00974 356.3 31.2
377(10) 0.00982 356.4 33.9
404(10) 0.00909 356.4 37.3
373(10) 0.00924 356.4 41.7
390(11) 0.00825 356.5 47.7
380(10) 0.00914 356.5 55.8
406(10) 0.00920 356.6 66.9
420(11) 0.00881 356.6 82.1
461(12) 0.00748 356.6 102.4
478(12) 0.00673 356.7 129.1
459(12) 0.00745 356.7 162.8
551(12) 0.00670 356.7 204.0
604(13) 0.00598 356.8 252.0
615(13) 0.00572 356.8 305.0
719(15) 0.00461 356.9 359.3
766(15) 0.00456 356.9 409.0
856(15) 0.00435 356.9 446.1
838(15) 0.00418 357.0 462.5
775(15) 0.00458 357.0 453.7
761(15) 0.00453 357.1 422.3
711(14) 0.00506 357.1 375.6
678(14) 0.00544 357.1 321.9
590(13) 0.00591 357.2 268.1
581(13) 0.00584 357.2 218.5
536(12) 0.00644 357.2 175.1
490(12) 0.00706 357.3 139.1
484(11) 0.00772 357.3 110.3
436(11) 0.00788 357.4 88.1
440(11) 0.00778 357.4 71.5
442(11) 0.00758 357.4 59.3
401(11) 0.00898 357.5 50.4
413(11) 0.00895 357.5 43.9
393(11) 0.00897 357.6 39.1
413(11) 0.00806 357.6 35.5
390(11) 0.00895 357.6 32.7
408(11) 0.00887 357.7 30.5
395(10) 0.00927 357.7 28.7
396(11) 0.00887 357.7 27.3
412(12) 0.00755 357.8 26.2
360(10) 0.00950 357.8 25.3
390(10) 0.00922 357.9 24.8
373(10) 0.00994 357.9 24.6
372(10) 0.00939 357.9 24.8
395(11) 0.00800 358.0 25.7
359(10) 0.00998 358.0 27.5
383(10) 0.00962 358.1 30.4
395(10) 0.00932 358.1 34.9
398(11) 0.00894 358.1 41.1
403(11) 0.00803 358.2 49.0
410(11) 0.00835 358.2 58.4
442(11) 0.00818 358.2 68.3
442(11) 0.00829 358.3 77.3
427(11) 0.00833 358.3 83.3
468(12) 0.00694 358.4 84.3
444(11) 0.00774 358.4 79.8
419(11) 0.00875 358.4 71.3
410(11) 0.00897 358.5 61.1
419(11) 0.00822 358.5 50.9
414(11) 0.00807 358.6 41.8
426(11) 0.00796 358.6 34.3
391(10) 0.00950 358.6 28.5
371(10) 0.00972 358.7 24.3
390(11) 0.00860 358.7 21.4
359(10) 0.00915 358.8 19.4
373(10) 0.00921 358.8 18.1
368(10) 0.01008 358.8 17.2
367(10) 0.00957 358.9 16.5
369(10) 0.00914 358.9 16.1
368(10) 0.00922 358.9 15.7
366(10) 0.00940 359.0 15.4
347(10) 0.01066 359.0 15.1
369(10) 0.00936 359.1 14.9
351(10) 0.01002 359.1 14.8
374(11) 0.00885 359.1 14.6
381(10) 0.00915 359.2 14.5
359(10) 0.01032 359.2 14.4
352(10) 0.00980 359.3 14.4
379(11) 0.00881 359.3 14.3
376(10) 0.00907 359.3 14.3
373(10) 0.00968 359.4 14.3
363(10) 0.01014 359.4 14.3
377(10) 0.00922 359.4 14.3
342(10) 0.00998 359.5 14.4
377(11) 0.00877 359.5 14.4
346(10) 0.01034 359.6 14.5
370(10) 0.00996 359.6 14.5
359(10) 0.00961 359.6 14.6
358(10) 0.00935 359.7 14.7
393(11) 0.00885 359.7 14.8
360(10) 0.01021 359.8 15.0
389(10) 0.00956 359.8 15.1
361(10) 0.00953 359.8 15.2
347(10) 0.00947 359.8 15.4
358(10) 0.00933 359.8 15.6
350(10) 0.01028 359.7 15.8
360(10) 0.01020 359.7 16.0
360(10) 0.00934 359.6 16.2
372(11) 0.00844 359.6 16.4
367(11) 0.00906 359.5 16.6
352(10) 0.01060 359.5 16.9
368(10) 0.00995 359.5 17.2
358(10) 0.00942 359.4 17.5
390(11) 0.00815 359.4 17.8
377(10) 0.00920 359.3 18.1
398(10) 0.00934 359.3 18.4
351(10) 0.01034 359.2 18.8
376(10) 0.00944 359.2 19.1
379(11) 0.00900 359.2 19.5
375(10) 0.00961 359.1 20.0
368(10) 0.00997 359.1 20.4
366(10) 0.01013 359.0 20.9
348(10) 0.01029 359.0 21.3
349(10) 0.00987 358.9 21.9
369(10) 0.00951 358.9 22.4
376(10) 0.00984 358.9 23.0
389(10) 0.00912 358.8 23.6
372(10) 0.00913 358.8 24.2
366(10) 0.00931 358.7 24.8
362(10) 0.00957 358.7 25.5
391(10) 0.00947 358.6 26.3
418(11) 0.00858 358.6 27.1
380(10) 0.00913 358.6 27.9
368(10) 0.00916 358.5 28.7
366(10) 0.00976 358.5 29.7
358(10) 0.01043 358.4 30.7
345(10) 0.01033 358.4 31.7
383(11) 0.00896 358.3 32.8
396(11) 0.00871 358.3 34.0
348(10) 0.01040 358.3 35.3
355(10) 0.01049 358.2 36.7
379(10) 0.00914 358.2 38.2
397(11) 0.00853 358.1 39.8
404(11) 0.00858 358.1 41.5
394(10) 0.00916 358.0 43.4
407(10) 0.00917 358.0 45.5
391(10) 0.00911 358.0 47.8
387(11) 0.00868 357.9 50.4
418(11) 0.00828 357.9 53.2
389(10) 0.00941 357.8 56.2
421(11) 0.00884 357.8 59.7
426(11) 0.00813 357.8 63.5
405(11) 0.00837 357.7 67.7
462(12) 0.00740 357.7 72.5
456(11) 0.00811 357.6 77.7
432(11) 0.00843 357.6 83.6
420(11) 0.00830 357.5 90.1
472(12) 0.00673 357.5 97.4
445(11) 0.00793 357.5 105.5
463(11) 0.00792 357.4 114.4
458(11) 0.00812 357.4 124.2
467(12) 0.00752 357.3 135.0
500(13) 0.00629 357.3 146.8
501(12) 0.00696 357.2 159.8
536(12) 0.00696 357.2 173.8
499(12) 0.00741 357.2 189.1
559(13) 0.00629 357.1 205.5
559(13) 0.00606 357.1 223.2
587(13) 0.00597 357.0 241.9
585(13) 0.00636 357.0 261.9
618(13) 0.00590 356.9 282.9
654(14) 0.00522 356.9 305.0
690(14) 0.00478 356.9 327.9
680(14) 0.00505 356.8 351.6
757(14) 0.00493 356.8 375.7
778(15) 0.00455 356.7 400.2
774(15) 0.00453 356.7 424.7
817(16) 0.00412 356.6 448.8
871(16) 0.00389 356.6 472.1
863(15) 0.00432 356.6 494.1
917(16) 0.00389 356.5 514.5
903(16) 0.00384 356.5 532.5
951(17) 0.00360 356.4 547.7
926(16) 0.00380 356.4 559.6
926(16) 0.00402 356.3 567.9
974(17) 0.00358 356.3 572.3
916(17) 0.00365 356.3 572.7
862(16) 0.00399 356.2 569.3
866(16) 0.00410 356.2 562.2
910(16) 0.00406 356.1 552.0
817(15) 0.00432 356.1 539.1
860(16) 0.00388 356.0 524.1
827(15) 0.00422 356.0 507.5
779(15) 0.00465 356.0 489.9
807(15) 0.00458 355.9 471.7
779(15) 0.00447 355.9 453.2
759(15) 0.00434 355.8 434.6
740(14) 0.00479 355.8 415.8
746(14) 0.00487 355.7 396.5
723(14) 0.00514 355.7 376.6
699(14) 0.00483 355.7 355.5
678(14) 0.00485 355.6 333.3
671(14) 0.00523 355.6 310.2
642(13) 0.00571 355.5 286.8
598(13) 0.00615 355.5 263.7
619(13) 0.00559 355.4 241.4
587(14) 0.00546 355.4 220.4
581(13) 0.00582 355.4 200.8
581(13) 0.00629 355.3 183.0
531(12) 0.00696 355.3 166.8
517(12) 0.00663 355.2 152.3
508(13) 0.00625 355.2 139.4
501(12) 0.00708 355.1 128.1
534(12) 0.00700 355.1 118.1
495(12) 0.00739 355.1 109.4
471(12) 0.00724 355.0 101.9
421(11) 0.00795 355.0 95.3
432(11) 0.00808 354.9 89.7
449(11) 0.00831 354.9 84.8
469(11) 0.00778 354.8 80.7
436(11) 0.00818 354.8 77.2
444(12) 0.00726 354.8 74.3
471(12) 0.00732 354.7 72.0
460(11) 0.00811 354.7 70.2
422(11) 0.00875 354.6 68.9
429(11) 0.00806 354.6 68.2
434(11) 0.00761 354.5 67.9
455(12) 0.00732 354.5 68.2
409(10) 0.00910 354.5 68.9
396(11) 0.00885 354.4 70.2
436(11) 0.00788 354.4 72.1
464(12) 0.00720 354.3 74.5
424(11) 0.00814 354.3 77.5
424(11) 0.00888 354.2 81.1
412(11) 0.00880 354.2 85.2
461(12) 0.00740 354.2 90.0
459(12) 0.00754 354.1 95.1
441(11) 0.00797 354.1 100.7
466(11) 0.00796 354.0 106.6
475(12) 0.00753 354.0 112.7
471(12) 0.00729 353.9 118.9
470(12) 0.00740 353.9 124.9
489(12) 0.00739 353.9 130.5
481(11) 0.00776 353.8 135.4
502(12) 0.00674 353.8 139.3
486(12) 0.00683 353.7 141.9
474(12) 0.00728 353.7 142.9
488(12) 0.00739 353.6 142.4
488(11) 0.00762 353.6 140.4
467(12) 0.00745 353.6 137.0
480(12) 0.00693 353.5 132.4
474(12) 0.00753 353.5 127.1
446(11) 0.00809 353.4 121.1
460(11) 0.00810 353.4 114.9
466(12) 0.00729 353.3 108.6
438(11) 0.00769 353.3 102.5
434(11) 0.00820 353.3 96.6
434(11) 0.00854 353.2 91.0
428(11) 0.00865 353.2 85.8
458(11) 0.00764 353.1 81.1
412(11) 0.00804 353.1 76.8
424(11) 0.00800 353.0 73.0
416(11) 0.00887 353.0 69.6
424(11) 0.00872 353.0 66.6
440(11) 0.00791 352.9 64.1
424(11) 0.00797 352.9 61.9
403(11) 0.00873 352.8 60.0
414(11) 0.00899 352.8 58.4
436(11) 0.00838 352.7 57.1
415(11) 0.00840 352.7 55.9
424(11) 0.00792 352.7 54.9
415(11) 0.00855 352.6 54.0
419(11) 0.00877 352.6 53.2
406(10) 0.00911 352.5 52.5
419(11) 0.00808 352.5 51.8
393(11) 0.00860 352.4 51.2
385(10) 0.00928 352.4 50.5
402(10) 0.00920 352.4 49.9
386(10) 0.00935 352.3 49.3
396(11) 0.00864 352.3 48.6
396(11) 0.00860 352.2 47.9
409(11) 0.00858 352.2 47.1
405(10) 0.00917 352.1 46.4
405(11) 0.00870 352.1 45.6
413(11) 0.00822 352.1 44.8
403(11) 0.00833 352.0 43.9
407(11) 0.00886 352.0 43.0
411(11) 0.00905 351.9 42.1
425(11) 0.00807 351.9 41.2
411(11) 0.00816 351.8 40.3
412(11) 0.00821 351.8 39.4
417(11) 0.00868 351.8 38.4
403(10) 0.00927 351.7 37.5
405(11) 0.00847 351.7 36.7
365(10) 0.00950 351.6 35.8
375(10) 0.00934 351.6 34.9
358(10) 0.01020 351.5 34.1
368(10) 0.01016 351.5 33.3
381(10) 0.00923 351.5 32.6
386(11) 0.00873 351.4 31.9
357(10) 0.01004 351.4 31.3
374(10) 0.00985 351.3 30.7
389(10) 0.00957 351.3 30.2
357(10) 0.00996 351.2 29.7
375(11) 0.00894 351.2 29.4
377(10) 0.00961 351.2 29.1
405(10) 0.00923 351.1 28.9
392(10) 0.00926 351.1 28.9
386(11) 0.00898 351.0 28.9
392(11) 0.00818 351.0 29.1
358(10) 0.00968 350.9 29.5
378(10) 0.00965 350.9 30.0
385(10) 0.00947 350.9 30.7
382(11) 0.00875 350.8 31.6
400(11) 0.00794 350.8 32.7
362(10) 0.00965 350.7 34.1
393(10) 0.00947 350.7 35.7
392(10) 0.00959 350.6 37.6
404(11) 0.00894 350.6 39.7
418(11) 0.00787 350.6 42.1
406(11) 0.00859 350.5 44.8
390(10) 0.00947 350.5 47.8
410(11) 0.00890 350.4 51.0
405(11) 0.00856 350.4 54.5
427(11) 0.00759 350.3 58.2
429(11) 0.00791 350.3 62.1
437(11) 0.00855 350.3 66.1
424(11) 0.00843 350.2 70.2
431(11) 0.00808 350.2 74.2
449(11) 0.00759 350.1 78.2
471(12) 0.00716 350.1 81.8
455(11) 0.00815 350.0 85.1
482(12) 0.00730 350.0 87.8
473(12) 0.00704 350.0 89.9
448(11) 0.00780 349.9 91.1
467(11) 0.00771 349.9 91.5
456(11) 0.00818 349.8 91.0
466(11) 0.00761 349.8 89.6
502(12) 0.00660 349.7 87.4
469(12) 0.00730 349.7 84.5
456(11) 0.00767 349.7 81.0
423(11) 0.00872 349.6 77.1
459(12) 0.00740 349.6 72.9
459(12) 0.00707 349.5 68.6
431(11) 0.00802 349.5 64.2
417(11) 0.00875 349.4 59.8
431(11) 0.00863 349.4 55.5
400(11) 0.00883 349.4 51.4
388(11) 0.00862 349.3 47.5
378(10) 0.00915 349.3 43.8
382(10) 0.00972 349.2 40.3
379(10) 0.00975 349.2 37.1
393(11) 0.00871 349.1 34.2
402(11) 0.00788 349.1 31.6
359(10) 0.00968 349.1 29.2
379(10) 0.00979 349.0 27.0
380(10) 0.00957 349.0 25.1
377(10) 0.00913 348.9 23.4
380(11) 0.00840 348.9 21.9
362(10) 0.00938 348.8 20.6
375(10) 0.00982 348.8 19.5
356(10) 0.01020 348.8 18.5
339(10) 0.01036 348.7 17.8
372(11) 0.00859 348.7 17.1
378(10) 0.00927 348.6 16.5
339(10) 0.01095 348.6 16.0
323(9) 0.01126 348.6 15.6
357(10) 0.00987 348.5 15.2
382(11) 0.00894 348.5 15.0
394(11) 0.00875 348.4 14.8
364(10) 0.01010 348.4 14.7
364(10) 0.00997 348.3 14.7
361(10) 0.00946 348.3 14.7
388(11) 0.00853 348.3 14.8
344(10) 0.01058 348.2 14.9
382(10) 0.00981 348.2 15.2
356(10) 0.01023 348.1 15.5
363(10) 0.00926 348.1 15.8
353(10) 0.00945 348.0 16.3
376(11) 0.00894 348.0 16.8
348(10) 0.01070 348.0 17.4
329(9) 0.01126 347.9 18.2
364(10) 0.00944 347.9 19.0
394(11) 0.00858 347.8 19.9
384(10) 0.00935 347.8 20.9
388(10) 0.00956 347.7 22.0
360(10) 0.00998 347.7 23.2
365(10) 0.00946 347.7 24.5
345(10) 0.01011 347.6 25.9
385(10) 0.00923 347.6 27.4
388(10) 0.00953 347.5 29.0
370(10) 0.00924 347.5 30.6
384(11) 0.00868 347.4 32.4
386(11) 0.00871 347.4 34.1
396(10) 0.00910 347.4 35.9
393(10) 0.00956 347.3 37.7
418(11) 0.00789 347.3 39.5
385(11) 0.00862 347.2 41.2
383(11) 0.00898 347.2 42.8
400(11) 0.00906 347.1 44.2
390(10) 0.00945 347.1 45.5
394(11) 0.00855 347.1 46.5
383(11) 0.00869 347.0 47.3
378(10) 0.00934 347.0 47.7
408(11) 0.00901 346.9 47.9
410(10) 0.00912 346.9 47.7
372(10) 0.00928 346.8 47.2
362(11) 0.00880 346.8 46.3
399(11) 0.00842 346.8 45.2
386(10) 0.00947 346.7 43.9
382(10) 0.00978 346.7 42.4
391(10) 0.00918 346.6 40.7
399(11) 0.00815 346.6 38.9
396(11) 0.00879 346.5 37.1
382(10) 0.00975 346.5 35.3
412(11) 0.00900 346.5 33.4
369(10) 0.00944 346.4 31.6
397(11) 0.00843 346.4 29.8
389(11) 0.00904 346.3 28.0
358(10) 0.01046 346.3 26.4
394(11) 0.00899 346.2 24.8
354(10) 0.00972 346.2 23.4
347(10) 0.00948 346.2 22.0
359(10) 0.00937 346.1 20.7
347(10) 0.01078 346.1 19.5
337(10) 0.01073 346.0 18.5
353(10) 0.00940 346.0 17.5
380(11) 0.00879 345.9 16.6
388(10) 0.00908 345.9 15.8
360(10) 0.01041 345.9 15.1
357(10) 0.00991 345.8 14.5
364(10) 0.00943 345.8 14.0
354(10) 0.00979 345.7 13.5
360(10) 0.00998 345.7 13.2
351(10) 0.01061 345.6 12.9
348(10) 0.01001 345.6 12.6
367(10) 0.00925 345.6 12.4
355(10) 0.00983 345.5 12.3
369(10) 0.00971 345.5 12.3
353(10) 0.01049 345.4 12.3
348(10) 0.01045 345.4 12.3
345(10) 0.00968 345.3 12.4
329(10) 0.01050 345.3 12.6
374(10) 0.00942 345.3 12.8
359(10) 0.01037 345.2 13.2
352(10) 0.00981 345.2 13.6
363(10) 0.00922 345.1 14.1
336(10) 0.01023 345.1 14.7
355(10) 0.01050 345.0 15.5
347(10) 0.01052 345.0 16.5
347(10) 0.01028 345.0 17.7
356(10) 0.00910 344.9 19.1
355(10) 0.00958 344.9 20.9
369(10) 0.00999 344.8 23.0
359(10) 0.01031 344.8 25.6
362(10) 0.00943 344.7 28.7
370(11) 0.00889 344.7 32.3
365(10) 0.01000 344.7 36.7
405(10) 0.00915 344.6 41.6
383(10) 0.00973 344.6 47.1
377(10) 0.00928 344.5 53.2
384(11) 0.00829 344.5 60.0
423(11) 0.00824 344.4 67.4
427(11) 0.00865 344.4 75.0
425(11) 0.00880 344.4 82.9
425(11) 0.00822 344.3 90.6
437(11) 0.00763 344.3 97.9
463(11) 0.00760 344.2 104.2
454(11) 0.00809 344.2 109.1
468(11) 0.00792 344.1 112.1
463(11) 0.00769 344.1 112.9
468(12) 0.00713 344.1 111.4
438(11) 0.00800 344.0 108.0
430(11) 0.00860 344.0 103.0
416(11) 0.00858 343.9 96.8
437(11) 0.00813 343.9 90.2
438(11) 0.00765 343.8 83.5
427(11) 0.00793 343.8 77.2
421(11) 0.00886 343.8 72.0
429(11) 0.00832 343.7 68.3
454(11) 0.00757 343.7 66.9
427(11) 0.00787 343.6 68.6
419(11) 0.00832 343.6 74.0
437(11) 0.00848 343.5 83.6
512(12) 0.00689 343.5 97.4
525(13) 0.00639 343.5 114.5
559(13) 0.00590 343.4 132.9
590(13) 0.00597 343.4 148.9
641(13) 0.00582 343.3 157.7
654(14) 0.00542 343.3 155.7
571(13) 0.00612 343.2 142.8
539(12) 0.00642 343.2 123.0
514(12) 0.00696 343.2 100.8
476(11) 0.00784 343.1 79.6
425(11) 0.00809 343.1 61.4
408(11) 0.00786 343.0 46.8
417(11) 0.00804 343.0 35.9
391(10) 0.00931 342.9 28.2
403(10) 0.00922 342.9 22.8
376(10) 0.00914 342.9 19.2
357(10) 0.00913 342.8 16.7
366(11) 0.00905 342.8 14.9
361(10) 0.01015 342.7 13.6
355(10) 0.01056 342.7 12.5
356(10) 0.00977 342.6 11.7
368(11) 0.00854 342.6 10.9
360(10) 0.00953 342.6 10.3
388(10) 0.00935 342.5 9.8
361(10) 0.01023 342.5 9.3
372(10) 0.00944 342.4 8.8
363(11) 0.00887 342.4 8.4
377(11) 0.00901 342.3 8.1
342(10) 0.01076 342.3 7.8
368(10) 0.00990 342.3 7.5
333(10) 0.01056 342.2 7.2
347(10) 0.00934 342.2 7.0
344(10) 0.00998 342.1 6.8
349(10) 0.01067 342.1 6.6
346(10) 0.01070 342.0 6.4
354(10) 0.00955 342.0 6.3
353(11) 0.00878 342.0 6.1
335(10) 0.01038 341.9 6.0
345(10) 0.01085 341.9 5.8
339(10) 0.01078 341.8 5.7
338(10) 0.01045 341.8 5.7
329(10) 0.01044 341.7 5.6
330(10) 0.01073 341.7 5.5
350(10) 0.01047 341.7 5.4
360(10) 0.00984 341.6 5.3
337(10) 0.01021 341.6 5.2
325(10) 0.01051 341.5 5.2
325(10) 0.01072 341.5 5.1
325(9) 0.01145 341.4 5.0
320(9) 0.01137 341.4 5.0
352(10) 0.00968 341.4 4.9
345(10) 0.00999 341.3 4.9
342(10) 0.00999 341.3 4.9
352(10) 0.01055 341.2 4.8
333(10) 0.01044 341.2 4.8
342(10) 0.01017 341.1 4.8
349(10) 0.00980 341.1 4.7
359(10) 0.01001 341.1 4.7
327(9) 0.01132 341.0 4.7
345(10) 0.00962 341.0 4.7
328(10) 0.01041 340.9 4.7
347(10) 0.00995 340.9 4.7
351(10) 0.01021 340.9 4.7
351(10) 0.01051 340.8 4.7
341(10) 0.00964 340.8 4.7
339(10) 0.00999 340.8 4.7
337(10) 0.01009 340.7 4.7
332(10) 0.01107 340.7 4.7
339(10) 0.01101 340.6 4.7
331(10) 0.01047 340.6 4.8
345(10) 0.00937 340.6 4.8
329(10) 0.01051 340.5 4.8
358(10) 0.01001 340.5 4.9
335(9) 0.01112 340.4 4.9
351(10) 0.00990 340.4 5.0
356(10) 0.00909 340.4 5.0
346(10) 0.01019 340.3 5.1
360(10) 0.01014 340.3 5.2
369(10) 0.01009 340.2 5.3
346(10) 0.01002 340.2 5.4
320(10) 0.01055 340.2 5.5
369(10) 0.00927 340.1 5.6
370(10) 0.00990 340.1 5.8
357(10) 0.01027 340.0 6.0
342(10) 0.01013 340.0 6.1
333(10) 0.01013 340.0 6.4
336(10) 0.01049 339.9 6.6
358(10) 0.01035 339.9 6.9
362(10) 0.01027 339.8 7.3
358(10) 0.01001 339.8 7.7
360(10) 0.00937 339.8 8.2
359(10) 0.00982 339.7 8.9
377(10) 0.00994 339.7 9.8
360(10) 0.01007 339.6 11.0
366(10) 0.00954 339.6 12.8
365(11) 0.00906 339.6 15.3
372(10) 0.00933 339.5 18.7
401(10) 0.00923 339.5 23.5
372(10) 0.00958 339.4 29.7
396(11) 0.00865 339.4 37.6
421(11) 0.00797 339.4 46.9
438(11) 0.00811 339.3 57.2
461(11) 0.00799 339.3 67.8
514(12) 0.00684 339.2 77.0
530(12) 0.00641 339.2 83.1
527(12) 0.00652 339.2 84.4
515(12) 0.00700 339.1 80.4
471(11) 0.00786 339.1 72.4
439(11) 0.00806 339.0 62.3
435(11) 0.00771 339.0 51.9
398(11) 0.00850 339.0 42.1
381(10) 0.00925 338.9 33.7
394(10) 0.00942 338.9 26.8
357(10) 0.00978 338.8 21.5
355(10) 0.00947 338.8 17.6
389(11) 0.00891 338.8 14.8
344(10) 0.01075 338.7 12.8
357(10) 0.01028 338.7 11.5
374(10) 0.00911 338.7 10.6
375(11) 0.00855 338.6 9.9
341(10) 0.01043 338.6 9.5
346(10) 0.01072 338.5 9.1
326(9) 0.01129 338.5 8.9
346(10) 0.01011 338.5 8.7
346(10) 0.00980 338.4 8.6
373(10) 0.00919 338.4 8.5
374(10) 0.00999 338.3 8.5
339(10) 0.01081 338.3 8.5
322(10) 0.01087 338.3 8.5
345(10) 0.00932 338.2 8.6
332(10) 0.01040 338.2 8.8
362(10) 0.01025 338.1 8.9
354(10) 0.01034 338.1 9.1
329(10) 0.01066 338.1 9.4
355(10) 0.00933 338.0 9.7
338(10) 0.01039 338.0 10.1
343(10) 0.01083 337.9 10.5
352(10) 0.01035 337.9 11.0
338(10) 0.01015 337.9 11.6
330(10) 0.00986 337.8 12.3
353(10) 0.00968 337.8 13.0
341(10) 0.01074 337.7 13.9
335(10) 0.01096 337.7 14.8
345(10) 0.00993 337.7 15.8
338(10) 0.01033 337.6 16.9
368(10) 0.00925 337.6 18.1
373(10) 0.00985 337.5 19.4
327(9) 0.01125 337.5 20.7
333(10) 0.01047 337.5 22.1
375(11) 0.00900 337.4 23.5
345(10) 0.01004 337.4 25.0
355(10) 0.01050 337.3 26.4
376(10) 0.00946 337.3 27.7
389(11) 0.00890 337.3 28.8
383(11) 0.00896 337.2 29.8
381(11) 0.00902 337.2 30.6
345(10) 0.01072 337.1 31.1
345(10) 0.01007 337.1 31.3
345(10) 0.00975 337.1 31.3
336(10) 0.01019 337.0 30.9
349(10) 0.01042 337.0 30.4
358(10) 0.01030 336.9 29.7
361(10) 0.00927 336.9 28.9
366(11) 0.00879 336.9 28.0
383(11) 0.00904 336.8 27.1
394(10) 0.00923 336.8 26.3
373(10) 0.00989 336.7 25.4
332(10) 0.01059 336.7 24.7
379(11) 0.00855 336.7 24.0
341(10) 0.01044 336.6 23.5
359(10) 0.01005 336.6 23.0
349(10) 0.01065 336.6 22.7
335(10) 0.01013 336.5 22.6
378(11) 0.00840 336.5 22.5
344(10) 0.01039 336.4 22.6
375(10) 0.00984 336.4 22.9
364(10) 0.01028 336.4 23.3
364(10) 0.00950 336.3 23.8
361(11) 0.00894 336.3 24.5
367(10) 0.00957 336.2 25.3
357(10) 0.01038 336.2 26.3
364(10) 0.01013 336.2 27.5
372(11) 0.00905 336.1 28.9
368(11) 0.00870 336.1 30.5
380(10) 0.00921 336.0 32.4
369(10) 0.00993 336.0 34.6
356(10) 0.01043 336.0 37.3
383(10) 0.00915 335.9 40.5
396(11) 0.00845 335.9 44.4
412(11) 0.00847 335.8 49.0
402(10) 0.00929 335.8 54.8
411(11) 0.00885 335.8 61.8
417(11) 0.00824 335.7 70.4
421(11) 0.00832 335.7 80.9
444(12) 0.00742 335.6 93.6
489(11) 0.00757 335.6 108.8
490(12) 0.00741 335.6 126.8
521(12) 0.00659 335.5 147.7
549(13) 0.00609 335.5 171.7
598(13) 0.00580 335.4 198.7
584(13) 0.00637 335.4 228.3
697(14) 0.00503 335.4 260.1
687(14) 0.00500 335.3 293.0
727(15) 0.00460 335.3 325.9
740(14) 0.00482 335.2 356.6
845(15) 0.00442 335.2 382.9
791(15) 0.00444 335.2 402.2
877(16) 0.00376 335.1 412.3
828(16) 0.00405 335.1 411.8
803(15) 0.00445 335.0 401.0
745(14) 0.00496 335.0 381.4
701(14) 0.00493 335.0 355.3
673(14) 0.00487 334.9 325.4
705(14) 0.00476 334.9 293.8
618(13) 0.00576 334.8 262.6
596(13) 0.00622 334.8 232.8
566(13) 0.00594 334.8 205.3
533(13) 0.00608 334.7 180.6
534(12) 0.00642 334.7 158.9
506(12) 0.00724 334.6 140.3
487(12) 0.00752 334.6 124.7
494(12) 0.00702 334.6 111.8
467(12) 0.00704 334.5 101.4
469(12) 0.00754 334.5 93.2
456(11) 0.00805 334.5 86.8
450(11) 0.00828 334.4 81.9
451(11) 0.00775 334.4 78.3
445(12) 0.00726 334.3 75.7
411(11) 0.00830 334.3 73.9
423(11) 0.00866 334.3 72.7
426(11) 0.00868 334.2 71.9
414(11) 0.00804 334.2 71.6
421(12) 0.00754 334.1 71.5
433(11) 0.00765 334.1 71.6
451(11) 0.00815 334.1 71.9
446(11) 0.00828 334.0 72.3
426(11) 0.00785 334.0 72.7
436(12) 0.00753 333.9 73.1
443(11) 0.00773 333.9 73.5
438(11) 0.00856 333.9 73.8
454(11) 0.00792 333.8 74.0
403(11) 0.00898 333.8 74.2
430(11) 0.00761 333.7 74.2
403(11) 0.00859 333.7 74.0
433(11) 0.00858 333.7 73.7
419(11) 0.00849 333.6 73.3
408(11) 0.00865 333.6 72.7
417(11) 0.00795 333.5 71.9
453(11) 0.00756 333.5 71.0
416(11) 0.00889 333.5 69.9
435(11) 0.00824 333.4 68.8
419(11) 0.00820 333.4 67.5
393(11) 0.00868 333.3 66.2
421(11) 0.00811 333.3 64.8
389(10) 0.00956 333.3 63.4
417(11) 0.00809 333.2 62.0
398(11) 0.00850 333.2 60.5
385(10) 0.00940 333.1 59.0
426(11) 0.00854 333.1 57.5
408(11) 0.00900 333.1 56.1
428(11) 0.00792 333.0 54.6
407(11) 0.00829 333.0 53.1
400(11) 0.00870 332.9 51.7
390(10) 0.00924 332.9 50.3
398(10) 0.00916 332.9 48.8
386(11) 0.00890 332.8 47.4
371(11) 0.00883 332.8 46.0
413(11) 0.00837 332.7 44.6
394(10) 0.00938 332.7 43.3
391(10) 0.00941 332.7 41.9
375(10) 0.00912 332.6 40.6
385(11) 0.00815 332.6 39.2
365(10) 0.00926 332.6 37.9
394(10) 0.00929 332.5 36.6
358(10) 0.01017 332.5 35.3
357(10) 0.00976 332.4 34.1
396(11) 0.00824 332.4 32.8
367(10) 0.00975 332.4 31.6
379(10) 0.00984 332.3 30.5
377(10) 0.00973 332.3 29.3
365(10) 0.00952 332.2 28.2
377(11) 0.00843 332.2 27.1
359(10) 0.00944 332.2 26.0
371(10) 0.01022 332.1 25.0
396(11) 0.00907 332.1 24.0
347(10) 0.01038 332.0 23.1
375(11) 0.00883 332.0 22.1
379(11) 0.00896 332.0 21.3
333(9) 0.01123 331.9 20.4
368(10) 0.00974 331.9 19.6
380(11) 0.00892 331.8 18.8
383(11) 0.00847 331.8 18.0
356(10) 0.00960 331.8 17.3
343(10) 0.01088 331.7 16.6
342(10) 0.01068 331.7 15.9
357(10) 0.00950 331.6 15.3
350(10) 0.00968 331.6 14.7
367(10) 0.00912 331.6 14.1
347(10) 0.01077 331.5 13.5
351(10) 0.01026 331.5 13.0
349(10) 0.01006 331.4 12.5
356(10) 0.00964 331.4 12.0
352(10) 0.01005 331.4 11.5
369(10) 0.01008 331.3 11.1
355(10) 0.00989 331.3 10.7
353(10) 0.00956 331.2 10.3
329(10) 0.01079 331.2 9.9
364(10) 0.00985 331.2 9.6
354(10) 0.01056 331.1 9.2
355(10) 0.00969 331.1 8.9
345(10) 0.00972 331.0 8.6
350(10) 0.00968 331.0 8.3
318(9) 0.01135 331.0 8.1
334(10) 0.01107 330.9 7.8
322(10) 0.01045 330.9 7.6
356(10) 0.00927 330.8 7.4
345(10) 0.00954 330.8 7.1
347(10) 0.01031 330.8 6.9
353(10) 0.01043 330.7 6.8
339(10) 0.01014 330.7 6.7
348(10) 0.00950 330.6 6.5
355(10) 0.00964 330.6 6.3
328(10) 0.01098 330.6 6.2
329(9) 0.01125 330.5 6.0
324(10) 0.01091 330.5 5.9
335(10) 0.00958 330.5 5.8
349(10) 0.00971 330.4 5.6
351(10) 0.01059 330.4 5.5
350(10) 0.01061 330.3 5.4
336(10) 0.01040 330.3 5.3
328(10) 0.01013 330.3 5.2
358(10) 0.00959 330.2 5.1
320(9) 0.01154 330.2 5.0
316(9) 0.01151 330.1 5.0
339(10) 0.00973 330.1 4.9
312(10) 0.01071 330.1 4.8
352(10) 0.00997 330.0 4.7
347(10) 0.01069 330.0 4.6
313(9) 0.01181 329.9 4.6
334(10) 0.01052 329.9 4.5
324(10) 0.01020 329.9 4.4
327(10) 0.01038 329.8 4.4
330(9) 0.01127 329.8 4.3
340(10) 0.01067 329.7 4.3
356(10) 0.00959 329.7 4.2
316(10) 0.01050 329.7 4.1
327(10) 0.00986 329.6 4.1
323(9) 0.01146 329.6 4.0
346(10) 0.01037 329.5 4.0
354(10) 0.00982 329.5 3.9
349(10) 0.00961 329.5 3.9
353(10) 0.01004 329.4 3.8
308(9) 0.01219 329.4 3.8
311(9) 0.01181 329.3 3.7
312(10) 0.01097 329.3 3.7
333(10) 0.01007 329.3 3.7
325(10) 0.01089 329.2 3.6
344(10) 0.01095 329.2 3.6
326(10) 0.01103 329.1 3.6
338(10) 0.01024 329.1 3.5
329(10) 0.01058 329.1 3.5
360(10) 0.00984 329.0 3.5
342(10) 0.01067 329.0 3.5
343(10) 0.01022 328.9 3.4
371(11) 0.00879 328.9 3.4
346(10) 0.00971 328.9 3.4
353(10) 0.01003 328.8 3.3
328(9) 0.01135 328.8 3.3
350(10) 0.00977 328.7 3.3
335(10) 0.01029 328.7 3.3
338(10) 0.01005 328.7 3.3
322(9) 0.01150 328.6 3.2
297(9) 0.01262 328.6 3.2
324(10) 0.01032 328.5 3.2
325(10) 0.01006 328.5 3.2
330(10) 0.01084 328.5 3.2
334(9) 0.01113 328.4 3.2
327(9) 0.01126 328.4 3.1
339(10) 0.01038 328.4 3.1
322(10) 0.00986 328.3 3.1
329(10) 0.01066 328.3 3.1
304(9) 0.01218 328.2 3.1
319(9) 0.01174 328.2 3.1
315(9) 0.01134 328.2 3.1
312(10) 0.01061 328.1 3.1
317(10) 0.01090 328.1 3.1
328(9) 0.01136 328.0 3.0
316(9) 0.01159 328.0 3.0
339(10) 0.01025 328.0 3.0
316(9) 0.01108 327.9 3.0
340(10) 0.01040 327.9 3.0
337(10) 0.01107 327.8 3.0
306(9) 0.01205 327.8 3.0
318(10) 0.01098 327.8 3.0
319(10) 0.01044 327.7 3.0
295(9) 0.01183 327.7 3.0
325(9) 0.01156 327.7 3.0
356(10) 0.00992 327.6 3.0
344(10) 0.00984 327.6 3.0
304(9) 0.01146 327.6 3.0
308(9) 0.01169 327.5 3.0
336(9) 0.01117 327.5 3.0
319(9) 0.01144 327.5 3.0
337(10) 0.01013 327.4 3.0
352(10) 0.00971 327.4 3.1
339(10) 0.01025 327.4 3.1
313(9) 0.01188 327.3 3.1
335(10) 0.01053 327.3 3.1
339(10) 0.01003 327.3 3.1
311(9) 0.01127 327.2 3.1
302(9) 0.01168 327.2 3.1
354(10) 0.01052 327.2 3.1
356(10) 0.00944 327.1 3.2
330(10) 0.00983 327.1 3.2
321(10) 0.01078 327.1 3.2
320(9) 0.01168 327.0 3.2
312(9) 0.01168 327.0 3.2
330(10) 0.01031 327.0 3.3
314(10) 0.01074 326.9 3.3
340(10) 0.00994 326.9 3.3
342(10) 0.01071 326.9 3.3
302(9) 0.01222 326.8 3.4
304(9) 0.01129 326.8 3.4
325(10) 0.00951 326.8 3.4
326(10) 0.01025 326.7 3.5
322(9) 0.01134 326.7 3.5
321(9) 0.01148 326.7 3.5
303(9) 0.01180 326.6 3.6
351(10) 0.00931 326.6 3.6
350(10) 0.00974 326.6 3.7
321(9) 0.01156 326.5 3.7
338(10) 0.01088 326.5 3.8
320(10) 0.01097 326.5 3.8
347(11) 0.00877 326.4 3.9
344(10) 0.00999 326.4 3.9
318(9) 0.01178 326.4 4.0
319(9) 0.01161 326.3 4.1
330(10) 0.01031 326.3 4.2
357(10) 0.00945 326.3 4.2
329(10) 0.01094 326.2 4.3
339(10) 0.01095 326.2 4.4
339(10) 0.01095 326.2 4.5
350(10) 0.00975 326.1 4.6
329(10) 0.01038 326.1 4.7
334(10) 0.01022 326.1 4.8
342(10) 0.01085 326.0 4.9
332(10) 0.01103 326.0 5.0
319(10) 0.01100 326.0 5.1
364(10) 0.00910 325.9 5.3
336(10) 0.01077 325.9 5.4
328(9) 0.01127 325.9 5.5
347(10) 0.01017 325.8 5.7
341(10) 0.01020 325.8 5.9
339(10) 0.00969 325.8 6.1
332(10) 0.01083 325.7 6.3
336(10) 0.01107 325.7 6.5
311(9) 0.01143 325.7 6.8
341(10) 0.01019 325.6 7.0
362(10) 0.00947 325.6 7.3
330(10) 0.01098 325.6 7.7
359(10) 0.01039 325.5 8.0
349(10) 0.00995 325.5 8.4
341(10) 0.00974 325.5 8.9
354(10) 0.00983 325.4 9.3
350(10) 0.01031 325.4 9.9
344(10) 0.01082 325.4 10.4
343(10) 0.01003 325.3 11.1
336(10) 0.01006 325.3 11.8
331(10) 0.01051 325.3 12.5
357(10) 0.01022 325.2 13.4
354(10) 0.01055 325.2 14.3
330(10) 0.01052 325.2 15.3
343(10) 0.00970 325.1 16.3
344(10) 0.01016 325.1 17.5
348(10) 0.01071 325.1 18.8
354(10) 0.01049 325.1 20.1
362(10) 0.00976 325.0 21.6
365(11) 0.00889 325.0 23.1
350(10) 0.00989 325.0 24.7
331(9) 0.01117 324.9 26.5
361(10) 0.01015 324.9 28.3
376(10) 0.00924 324.9 30.3
372(11) 0.00867 324.8 32.3
362(10) 0.00996 324.8 34.4
352(10) 0.01062 324.8 36.5
367(10) 0.01015 324.7 38.8
362(10) 0.00947 324.7 41.1
338(10) 0.01007 324.7 43.4
360(10) 0.00968 324.6 45.7
375(10) 0.01009 324.6 48.0
362(10) 0.01014 324.6 50.2
344(10) 0.01025 324.5 52.4
371(11) 0.00904 324.5 54.5
387(10) 0.00909 324.5 56.5
377(10) 0.00984 324.4 58.2
391(10) 0.00925 324.4 59.7
397(11) 0.00870 324.4 61.0
394(11) 0.00850 324.3 62.0
371(10) 0.00952 324.3 62.7
394(10) 0.00945 324.3 63.0
382(10) 0.00943 324.2 63.0
386(11) 0.00906 324.2 62.6
397(11) 0.00869 324.2 62.0
397(11) 0.00897 324.1 61.0
427(11) 0.00872 324.1 59.8
379(10) 0.00930 324.1 58.4
388(11) 0.00887 324.0 56.8
377(11) 0.00895 324.0 55.1
382(10) 0.00942 324.0 53.3
377(10) 0.00982 323.9 51.6
382(11) 0.00901 323.9 49.9
358(10) 0.00946 323.9 48.6
344(10) 0.01021 323.8 47.8
371(10) 0.00959 323.8 48.1
386(10) 0.00969 323.8 49.9
420(11) 0.00819 323.7 53.8
382(11) 0.00868 323.7 60.4
403(11) 0.00849 323.7 69.5
405(10) 0.00916 323.6 80.4
429(11) 0.00859 323.6 91.3
443(11) 0.00803 323.6 99.3
424(11) 0.00780 323.5 101.0
445(11) 0.00781 323.5 95.1
410(10) 0.00908 323.5 83.4
405(10) 0.00926 323.4 69.1
377(11) 0.00907 323.4 55.1
343(10) 0.00941 323.4 43.0
351(10) 0.01000 323.3 33.5
356(10) 0.01055 323.3 26.7
352(10) 0.01057 323.3 21.9
370(10) 0.00936 323.2 18.7
345(10) 0.00912 323.2 16.5
324(10) 0.01064 323.2 14.9
339(10) 0.01094 323.1 13.6
351(10) 0.01045 323.1 12.6
352(10) 0.00968 323.1 11.8
344(10) 0.00964 323.0 11.0
352(10) 0.00970 323.0 10.4
338(9) 0.01115 323.0 9.8
352(10) 0.01034 322.9 9.3
320(10) 0.01089 322.9 8.8
329(10) 0.00987 322.9 8.4
345(10) 0.01020 322.8 8.0
323(9) 0.01147 322.8 7.7
337(10) 0.01054 322.8 7.4
308(9) 0.01190 322.7 7.1
324(10) 0.01061 322.7 6.7
355(10) 0.00975 322.7 6.5
350(10) 0.01055 322.6 6.3
339(10) 0.01048 322.6 6.1
336(10) 0.01031 322.6 5.9
351(10) 0.00987 322.5 5.8
328(10) 0.01066 322.5 5.6
350(10) 0.01068 322.5 5.5
316(10) 0.01084 322.4 5.4
309(10) 0.01082 322.4 5.2
349(10) 0.00959 322.4 5.1
322(9) 0.01126 322.3 5.0
324(9) 0.01139 322.3 4.9
322(10) 0.01099 322.3 4.9
356(10) 0.00916 322.2 4.8
304(9) 0.01147 322.2 4.7
307(9) 0.01155 322.2 4.6
339(10) 0.01094 322.1 4.6
314(9) 0.01125 322.1 4.5
323(10) 0.01035 322.1 4.5
327(10) 0.01056 322.0 4.4
312(9) 0.01171 322.0 4.4
317(9) 0.01178 322.0 4.3
326(10) 0.01085 321.9 4.3
332(10) 0.00991 321.9 4.3
319(10) 0.01083 321.9 4.2
328(9) 0.01125 321.8 4.2
328(9) 0.01117 321.8 4.2
323(10) 0.01087 321.8 4.2
329(10) 0.00967 321.7 4.1
322(10) 0.01077 321.7 4.1
338(10) 0.01090 321.7 4.1
335(9) 0.01119 321.6 4.1
340(10) 0.01068 321.6 4.1
347(10) 0.00936 321.6 4.1
352(10) 0.00985 321.5 4.1
324(9) 0.01146 321.5 4.1
321(9) 0.01146 321.5 4.1
313(9) 0.01113 321.4 4.1
329(10) 0.00953 321.4 4.1
314(9) 0.01120 321.4 4.1
313(9) 0.01183 321.3 4.2
324(9) 0.01118 321.3 4.2
310(9) 0.01109 321.3 4.2
309(10) 0.01100 321.2 4.2
336(10) 0.01059 321.2 4.2
342(10) 0.01088 321.2 4.3
309(9) 0.01176 321.1 4.3
292(9) 0.01184 321.1 4.3
293(9) 0.01177 321.1 4.4
321(10) 0.01057 321.1 4.4
329(9) 0.01131 321.1 4.5
324(9) 0.01126 321.1 4.5
323(10) 0.01072 321.1 4.6
288(9) 0.01211 321.1 4.6
322(10) 0.01067 321.1 4.7
348(10) 0.01072 321.1 4.8
334(10) 0.01059 321.1 4.8
307(10) 0.01086 321.1 4.9
329(10) 0.00979 321.1 5.0
319(10) 0.01073 321.1 5.1
333(9) 0.01121 321.1 5.1
323(9) 0.01122 321.1 5.2
305(9) 0.01140 321.1 5.3
334(10) 0.01013 321.1 5.4
314(9) 0.01143 321.1 5.5
319(9) 0.01150 321.1 5.7
307(9) 0.01121 321.1 5.8
332(10) 0.00975 321.1 5.9
316(10) 0.01099 321.1 6.0
341(10) 0.01076 321.1 6.2
340(10) 0.01092 321.1 6.3
313(10) 0.01084 321.1 6.5
316(10) 0.01026 321.1 6.6
312(10) 0.01093 321.1 6.8
342(10) 0.01045 321.1 7.0
334(9) 0.01113 321.1 7.2
344(10) 0.01025 321.1 7.4
335(10) 0.00994 321.1 7.6
346(10) 0.00990 321.1 7.8
322(9) 0.01157 321.1 8.1
319(9) 0.01164 321.1 8.3
324(10) 0.01077 321.1 8.6
309(10) 0.01055 321.1 8.9
328(10) 0.01077 321.1 9.2
338(10) 0.01093 321.1 9.6
330(10) 0.01106 321.1 10.0
322(10) 0.01056 321.1 10.4
320(10) 0.01010 321.1 10.9
314(9) 0.01120 321.1 11.4
323(9) 0.01162 321.1 12.0
325(9) 0.01118 321.1 12.7
339(10) 0.01020 321.1 13.4
318(10) 0.01053 321.1 14.1
298(9) 0.01191 321.1 15.0
307(9) 0.01196 321.1 15.9
346(10) 0.01026 321.1 16.9
324(10) 0.01075 321.1 18.0
338(10) 0.00975 321.1 19.2
325(10) 0.01065 321.1 20.5
315(9) 0.01168 321.1 21.8
342(10) 0.01036 321.1 23.3
365(11) 0.00894 321.1 24.7
341(10) 0.00951 321.1 26.3
331(10) 0.01045 321.1 27.9
354(10) 0.01054 321.1 29.4
360(10) 0.00974 321.1 31.0
328(10) 0.01017 321.1 32.5
336(10) 0.01019 321.1 34.0
363(10) 0.00961 321.1 35.3
346(10) 0.01074 321.1 36.4
355(10) 0.01008 321.1 37.4
333(10) 0.01055 321.1 38.3
333(10) 0.01057 321.1 39.0
358(10) 0.01004 321.1 39.6
357(10) 0.01032 321.1 40.1
354(10) 0.01013 321.1 40.6
352(10) 0.00957 321.1 41.1
355(10) 0.00965 321.1 41.7
347(10) 0.01038 321.1 42.5
371(10) 0.00999 321.1 43.4
353(10) 0.00960 321.1 44.6
368(11) 0.00891 321.1 45.9
348(10) 0.00999 321.1 47.5
346(10) 0.01074 321.1 49.2
401(10) 0.00919 321.1 51.1
382(10) 0.00916 321.1 53.2
396(11) 0.00831 321.1 55.5
385(10) 0.00935 321.1 58.1
388(10) 0.00945 321.1 61.0
378(10) 0.00963 321.1 64.4
373(10) 0.00921 321.1 68.1
393(11) 0.00852 321.1 72.4
414(11) 0.00849 321.1 77.2
414(11) 0.00888 321.1 82.5
406(10) 0.00922 321.1 88.3
413(11) 0.00810 321.1 94.5
422(12) 0.00751 321.1 101.1
452(11) 0.00778 321.1 108.0
464(11) 0.00807 321.1 115.1
459(11) 0.00820 321.1 122.3
480(12) 0.00719 321.1 129.4
505(13) 0.00635 321.1 136.2
509(12) 0.00677 321.1 142.5
503(12) 0.00740 321.1 148.0
500(12) 0.00741 321.1 152.6
502(12) 0.00689 321.1 155.9
512(13) 0.00632 321.1 157.8
506(12) 0.00697 321.1 158.2
491(11) 0.00757 321.1 157.0
496(12) 0.00731 321.1 154.3
459(11) 0.00762 321.1 150.3
457(12) 0.00726 321.1 145.1
449(12) 0.00744 321.1 138.9
442(11) 0.00846 321.1 132.0
456(11) 0.00787 321.1 124.7
455(12) 0.00748 321.1 117.0
402(11) 0.00846 321.1 109.2
410(11) 0.00857 321.1 101.4
405(10) 0.00925 321.1 93.8
407(11) 0.00861 321.1 86.5
383(11) 0.00898 321.1 79.4
391(11) 0.00874 321.1 72.8
402(11) 0.00885 321.1 66.5
366(10) 0.01010 321.1 60.7
375(10) 0.00915 321.1 55.3
367(10) 0.00915 321.1 50.4
352(10) 0.01006 321.1 45.9
381(10) 0.00935 321.1 41.8
369(10) 0.01004 321.1 38.1
360(10) 0.00929 321.1 34.8
352(10) 0.00960 321.1 31.9
362(10) 0.00961 321.1 29.2
394(10) 0.00937 321.1 26.8
345(10) 0.01070 321.1 24.8
332(10) 0.01021 321.1 22.9
351(10) 0.00934 321.1 21.3
340(10) 0.01032 321.1 19.8
335(10) 0.01096 321.1 18.5
369(10) 0.00996 321.1 17.4
350(10) 0.00984 321.1 16.4
340(10) 0.00928 321.1 15.5
322(10) 0.01104 321.1 14.7
352(10) 0.01050 321.1 14.0
323(9) 0.01162 321.1 13.3
328(10) 0.01051 321.1 12.7
359(11) 0.00841 321.1 12.2
327(10) 0.01032 321.1 11.7
309(9) 0.01207 321.1 11.3
326(10) 0.01095 321.1 10.9
321(10) 0.01105 321.1 10.5
324(10) 0.01018 321.1 10.1
319(9) 0.01110 321.1 9.8
305(9) 0.01221 321.1 9.5
308(9) 0.01202 321.1 9.2
347(10) 0.00999 321.1 9.0
336(10) 0.00971 321.1 8.7
314(10) 0.01104 321.1 8.5
308(9) 0.01216 321.1 8.3
354(10) 0.01023 321.1 8.0
356(10) 0.00958 321.1 7.9
338(10) 0.00996 321.1 7.7
328(10) 0.01049 321.1 7.5
330(9) 0.01117 321.1 7.3
309(9) 0.01191 321.1 7.2
316(9) 0.01115 321.1 7.0
329(10) 0.01052 321.1 6.9
333(10) 0.01054 321.1 6.8
324(9) 0.01146 321.1 6.7
312(9) 0.01145 321.1 6.6
340(10) 0.00981 321.1 6.5
307(9) 0.01149 321.1 6.4
331(10) 0.01074 321.1 6.3
335(9) 0.01110 321.1 6.2
321(10) 0.01097 321.1 6.1
328(10) 0.01035 321.1 6.1
340(10) 0.00973 321.1 6.0
333(10) 0.01072 321.1 5.9
332(9) 0.01115 321.1 5.9
310(10) 0.01073 321.1 5.8
317(10) 0.01041 321.1 5.8
297(9) 0.01219 321.1 5.7
333(10) 0.01079 321.1 5.7
331(9) 0.01115 321.1 5.6
323(10) 0.01089 321.1 5.6
328(10) 0.00986 321.1 5.5
332(10) 0.01036 321.1 5.5
304(9) 0.01182 321.1 5.5
311(9) 0.01194 321.1 5.5
325(10) 0.01055 321.1 5.4
326(10) 0.00945 321.1 5.4
334(10) 0.01031 321.1 5.4
336(10) 0.01103 321.1 5.4
310(9) 0.01198 321.1 5.3
336(10) 0.01030 321.1 5.3
344(10) 0.00934 321.1 5.3
322(10) 0.01097 321.1 5.3
290(9) 0.01286 321.1 5.3
326(9) 0.01135 321.1 5.3
308(9) 0.01155 321.1 5.3
348(10) 0.00917 321.1 5.3
334(10) 0.01040 321.2 5.3
315(9) 0.01186 321.2 5.3
311(9) 0.01193 321.2 5.3
319(10) 0.01100 321.2 5.3
317(10) 0.01056 321.2 5.3
340(10) 0.01008 321.2 5.3
338(10) 0.01104 321.2 5.3
321(9) 0.01141 321.2 5.4
316(10) 0.01090 321.2 5.4
310(10) 0.01088 321.2 5.4
310(9) 0.01118 321.2 5.5
310(9) 0.01190 321.2 5.5
328(9) 0.01113 321.2 5.6
325(10) 0.01051 321.2 5.6
346(10) 0.00931 321.2 5.7
345(10) 0.01012 321.2 5.8
306(9) 0.01225 321.3 5.8
336(10) 0.01041 321.3 5.9
330(10) 0.01056 321.3 6.0
306(10) 0.01105 321.3 6.1
295(9) 0.01240 321.3 6.3
307(9) 0.01201 321.3 6.4
333(10) 0.01043 321.3 6.5
340(10) 0.01004 321.3 6.7
350(10) 0.00957 321.3 6.8
316(9) 0.01117 321.3 7.0
317(9) 0.01178 321.3 7.2
326(10) 0.01100 321.3 7.5
293(9) 0.01194 321.3 7.7
309(9) 0.01121 321.3 8.0
336(10) 0.01091 321.3 8.3
334(9) 0.01113 321.3 8.6
328(10) 0.01050 321.3 9.0
327(10) 0.01012 321.4 9.5
318(10) 0.01103 321.4 9.9
329(10) 0.01105 321.4 10.5
331(9) 0.01122 321.4 11.1
345(10) 0.01018 321.4 11.9
331(10) 0.01024 321.4 12.7
361(10) 0.00932 321.4 13.7
323(9) 0.01147 321.4 14.9
329(9) 0.01127 321.4 16.3
349(10) 0.01017 321.4 18.2
325(10) 0.01009 321.4 20.6
349(10) 0.00973 321.4 23.8
357(10) 0.01042 321.4 28.0
362(10) 0.01007 321.4 33.4
357(10) 0.00965 321.4 40.4
390(11) 0.00806 321.4 49.3
383(10) 0.00914 321.5 60.2
405(11) 0.00902 321.5 73.2
394(10) 0.00955 321.5 88.2
440(11) 0.00803 321.5 104.8
465(12) 0.00693 321.5 122.1
486(12) 0.00724 321.5 139.0
489(11) 0.00765 321.5 154.0
518(12) 0.00706 321.5 165.6
546(13) 0.00637 321.5 172.2
540(13) 0.00611 321.5 172.7
489(12) 0.00705 321.5 167.0
473(11) 0.00788 321.5 156.0
460(11) 0.00768 321.5 141.6
439(11) 0.00768 321.5 126.2
449(12) 0.00735 321.5 111.5
420(11) 0.00815 321.5 98.9
396(10) 0.00935 321.5 89.1
400(11) 0.00888 321.6 82.5
412(11) 0.00838 321.6 79.1
399(11) 0.00847 321.6 78.5
424(11) 0.00809 321.6 79.7
402(10) 0.00928 321.6 81.4
408(11) 0.00850 321.6 81.9
413(11) 0.00790 321.6 79.8
377(11) 0.00897 321.6 74.7
401(11) 0.00878 321.6 67.2
387(10) 0.00942 321.6 58.7
382(10) 0.00913 321.6 50.3
365(10) 0.00920 321.6 42.8
373(11) 0.00902 321.6 36.4
350(10) 0.01043 321.6 31.4
353(10) 0.01050 321.6 27.6
358(10) 0.00927 321.6 24.9
323(10) 0.01006 321.6 23.1
367(10) 0.00925 321.7 22.0
349(10) 0.01052 321.7 21.4
379(10) 0.00973 321.7 21.3
375(10) 0.00935 321.7 21.7
353(10) 0.00951 321.7 22.4
354(10) 0.01005 321.7 23.7
352(10) 0.01023 321.7 25.7
374(10) 0.00993 321.7 28.5
374(10) 0.00923 321.7 32.5
382(11) 0.00826 321.7 38.0
382(11) 0.00903 321.7 45.5
381(10) 0.00978 321.7 55.0
415(11) 0.00896 321.7 67.0
425(11) 0.00817 321.7 81.4
403(11) 0.00833 321.7 98.1
463(12) 0.00730 321.7 116.3
421(11) 0.00865 321.8 135.0
478(11) 0.00767 321.8 152.2
489(12) 0.00708 321.8 165.5
524(13) 0.00628 321.8 172.3
486(12) 0.00744 321.8 170.9
535(12) 0.00689 321.8 161.7
483(11) 0.00760 321.8 146.8
461(12) 0.00745 321.8 128.8
408(11) 0.00812 321.8 110.1
426(11) 0.00782 321.8 92.3
398(10) 0.00925 321.8 76.3
357(10) 0.01032 321.8 62.6
373(10) 0.00939 321.8 51.4
353(10) 0.00937 321.8 42.5
363(10) 0.00925 321.8 35.6
355(10) 0.01054 321.8 30.5
344(10) 0.01051 321.8 26.7
373(10) 0.00926 321.9 24.0
347(10) 0.00971 321.9 22.0
345(10) 0.01043 321.9 20.5
357(10) 0.01031 321.9 19.4
327(10) 0.01086 321.9 18.6
330(10) 0.00997 321.9 18.0
357(10) 0.00922 321.9 17.5
345(10) 0.01017 321.9 17.1
346(10) 0.01062 321.9 16.8
337(10) 0.01080 321.9 16.6
335(10) 0.00975 321.9 16.4
303(9) 0.01167 321.9 16.3
306(9) 0.01171 321.9 16.3
304(9) 0.01227 321.9 16.4
304(9) 0.01132 321.9 16.3
318(10) 0.01026 321.9 16.4
331(10) 0.01005 322.0 16.5
295(9) 0.01241 322.0 16.6
340(10) 0.01090 322.0 16.8
330(10) 0.01045 322.0 17.0
318(10) 0.01055 322.0 17.2
321(10) 0.01079 322.0 17.4
312(9) 0.01159 322.0 17.7
323(9) 0.01148 322.0 17.9
322(10) 0.01034 322.0 18.2
357(11) 0.00892 322.0 18.5
344(10) 0.01014 322.0 18.9
360(10) 0.01022 322.0 19.2
343(10) 0.01072 322.0 19.6
344(10) 0.00987 322.0 20.0
347(10) 0.00944 322.0 20.4
341(10) 0.01041 322.0 20.8
344(10) 0.01098 322.0 21.3
355(10) 0.01017 322.1 21.7
337(10) 0.01042 322.1 22.2
325(10) 0.00983 322.1 22.7
332(10) 0.01027 322.1 23.3
344(10) 0.01093 322.1 23.8
333(10) 0.01097 322.1 24.4
361(10) 0.00978 322.1 25.0
362(10) 0.00914 322.1 25.6
366(10) 0.00935 322.1 26.3
326(9) 0.01128 322.1 27.0
334(10) 0.01073 322.1 27.7
336(10) 0.01006 322.1 28.4
344(10) 0.00957 322.1 29.2
363(10) 0.00927 322.1 30.0
352(10) 0.01043 322.1 30.9
353(10) 0.01030 322.1 31.9
353(10) 0.00970 322.1 32.9
348(10) 0.00960 322.2 34.1
371(10) 0.00929 322.2 35.5
347(10) 0.01059 322.2 37.3
363(10) 0.00979 322.2 39.8
369(10) 0.00955 322.2 43.4
380(11) 0.00903 322.2 48.7
395(11) 0.00898 322.2 56.0
390(10) 0.00951 322.2 65.6
423(11) 0.00811 322.2 77.2
402(11) 0.00855 322.2 89.4
454(11) 0.00758 322.2 100.3
494(12) 0.00720 322.2 107.0
454(11) 0.00825 322.2 107.1
452(12) 0.00739 322.2 101.0
408(11) 0.00841 322.2 91.4
422(11) 0.00809 322.2 81.0
390(10) 0.00930 322.3 71.7
388(10) 0.00961 322.3 64.4
395(11) 0.00855 322.3 59.4
389(11) 0.00861 322.3 56.3
367(10) 0.00974 322.3 54.8
397(10) 0.00929 322.3 54.2
391(10) 0.00948 322.3 54.2
363(10) 0.00961 322.3 54.6
366(11) 0.00884 322.3 55.2
352(10) 0.01005 322.3 56.0
355(10) 0.01027 322.3 57.0
387(10) 0.00960 322.3 58.2
386(10) 0.00920 322.3 59.5
399(11) 0.00810 322.3 61.1
384(11) 0.00900 322.3 62.8
390(10) 0.00959 322.3 64.9
351(10) 0.01047 322.3 67.1
381(10) 0.00911 322.4 69.6
397(11) 0.00825 322.4 72.2
406(11) 0.00837 322.4 75.0
417(11) 0.00894 322.4 77.8
405(11) 0.00898 322.4 80.5
415(11) 0.00832 322.4 82.9
441(12) 0.00732 322.4 84.7
426(11) 0.00828 322.4 85.8
458(11) 0.00803 322.4 86.0
414(11) 0.00881 322.4 85.1
428(11) 0.00799 322.4 83.1
416(11) 0.00795 322.4 80.2
422(11) 0.00804 322.4 76.5
388(10) 0.00952 322.4 72.4
397(10) 0.00921 322.4 67.9
383(10) 0.00909 322.4 63.5
394(11) 0.00832 322.4 59.1
376(10) 0.00912 322.5 54.9
396(10) 0.00945 322.5 51.0
386(11) 0.00886 322.5 47.4
372(11) 0.00907 322.5 44.2
367(10) 0.00930 322.5 41.2
360(10) 0.00984 322.5 38.7
359(10) 0.01043 322.5 36.4
381(10) 0.00911 322.5 34.5
347(10) 0.01002 322.5 32.8
358(10) 0.00977 322.5 31.4
357(10) 0.00990 322.5 30.1
347(10) 0.01061 322.5 29.1
345(10) 0.00987 322.5 28.2
347(10) 0.00939 322.5 27.5
333(10) 0.01085 322.5 26.9
345(10) 0.01036 322.5 26.3
356(10) 0.01049 322.6 25.9
334(10) 0.01016 322.6 25.6
327(10) 0.00991 322.6 25.3
339(10) 0.01014 322.6 25.2
331(10) 0.01099 322.6 25.1
323(9) 0.01160 322.6 25.0
341(10) 0.01037 322.6 25.1
356(10) 0.00929 322.6 25.2
336(10) 0.01066 322.6 25.4
316(9) 0.01152 322.6 25.6
343(10) 0.01075 322.6 26.0
332(10) 0.01070 322.6 26.4
358(11) 0.00881 322.6 26.8
325(10) 0.01093 322.6 27.4
335(9) 0.01113 322.6 28.0
347(10) 0.01079 322.6 28.7
361(10) 0.00986 322.6 29.5
374(11) 0.00850 322.7 30.4
359(10) 0.00990 322.7 31.3
344(10) 0.01086 322.7 32.4
356(10) 0.01020 322.7 33.6
334(10) 0.01045 322.7 34.8
360(11) 0.00897 322.7 36.2
368(10) 0.00912 322.7 37.7
356(10) 0.01049 322.7 39.3
343(10) 0.01030 322.7 41.0
349(10) 0.00970 322.7 42.8
345(10) 0.00957 322.7 44.9
355(10) 0.00942 322.7 47.0
331(9) 0.01132 322.7 49.3
356(10) 0.01008 322.7 51.8
348(10) 0.01012 322.7 54.5
340(10) 0.01011 322.7 57.4
348(10) 0.00979 322.8 60.5
365(10) 0.01020 322.8 63.8
394(11) 0.00877 322.8 67.3
391(11) 0.00870 322.8 71.1
396(11) 0.00869 322.8 75.1
391(10) 0.00909 322.8 79.4
376(10) 0.00998 322.8 83.9
393(11) 0.00903 322.8 88.6
409(11) 0.00836 322.8 93.5
420(11) 0.00822 322.8 98.7
411(11) 0.00881 322.8 104.1
410(11) 0.00893 322.8 109.6
399(11) 0.00875 322.8 115.2
421(11) 0.00827 322.8 120.9
447(11) 0.00772 322.8 126.7
410(11) 0.00892 322.8 132.4
428(11) 0.00861 322.8 138.1
450(12) 0.00738 322.9 143.5
457(12) 0.00736 322.9 148.7
425(11) 0.00826 322.9 153.4
439(11) 0.00831 322.9 157.7
460(11) 0.00807 322.9 161.3
493(12) 0.00698 322.9 164.1
473(12) 0.00713 322.9 165.9
488(12) 0.00712 322.9 166.8
458(11) 0.00813 322.9 166.6
417(11) 0.00895 322.9 165.3
449(11) 0.00770 322.9 163.0
452(12) 0.00708 322.9 159.7
441(11) 0.00787 322.9 155.5
440(11) 0.00848 322.9 150.6
426(11) 0.00868 322.9 145.1
414(11) 0.00857 322.9 139.3
429(12) 0.00720 322.9 133.2
431(11) 0.00805 323.0 127.0
390(10) 0.00955 323.0 120.9
405(10) 0.00907 323.0 114.8
399(11) 0.00881 323.0 108.9
394(11) 0.00811 323.0 103.2
374(10) 0.00960 323.0 97.9
399(10) 0.00931 323.0 92.8
389(10) 0.00945 323.0 88.0
387(10) 0.00919 323.0 83.6
397(11) 0.00828 323.0 79.5
356(10) 0.00960 323.0 75.7
362(10) 0.01032 323.0 72.1
363(10) 0.01019 323.0 68.7
387(11) 0.00888 323.0 65.6
400(11) 0.00831 323.0 62.6
389(10) 0.00915 323.0 59.7
391(10) 0.00947 323.1 56.9
325(9) 0.01130 323.1 54.3
350(10) 0.00994 323.1 51.7
357(10) 0.00976 323.1 49.3
365(10) 0.00939 323.1 47.0
359(10) 0.01038 323.1 44.8
364(10) 0.00975 323.1 42.8
396(11) 0.00827 323.1 40.9
332(10) 0.01065 323.1 39.2
370(10) 0.00968 323.1 37.7
373(10) 0.01009 323.1 36.3
325(10) 0.01098 323.1 35.0
374(11) 0.00880 323.1 33.9
350(10) 0.00988 323.1 32.9
350(10) 0.01020 323.1 32.0
348(10) 0.01065 323.1 31.3
368(10) 0.00964 323.1 30.7
358(10) 0.00908 323.2 30.1
310(9) 0.01158 323.2 29.7
340(10) 0.01086 323.2 29.4
353(10) 0.01040 323.2 29.2
355(10) 0.00990 323.2 29.1
352(10) 0.00920 323.2 29.0
380(10) 0.00922 323.2 29.1
376(10) 0.00964 323.2 29.2
352(10) 0.01070 323.2 29.5
382(10) 0.00933 323.2 29.9
353(10) 0.00949 323.2 30.4
346(10) 0.01070 323.2 31.1
374(10) 0.01000 323.2 32.0
355(10) 0.01057 323.2 33.2
362(10) 0.00983 323.2 34.7
374(11) 0.00848 323.2 36.6
347(10) 0.01021 323.3 39.0
371(10) 0.01009 323.3 41.9
370(10) 0.00987 323.3 45.5
405(11) 0.00830 323.3 49.8
390(11) 0.00825 323.3 54.9
388(11) 0.00889 323.3 60.9
408(10) 0.00923 323.3 67.8
414(11) 0.00872 323.3 75.5
425(11) 0.00830 323.3 84.0
448(12) 0.00746 323.3 93.0
407(11) 0.00858 323.3 102.2
458(11) 0.00812 323.3 111.3
451(11) 0.00821 323.3 119.7
499(12) 0.00692 323.3 126.7
487(12) 0.00699 323.3 131.5
512(12) 0.00681 323.3 133.5
490(11) 0.00764 323.3 132.4
456(11) 0.00792 323.4 128.3
449(12) 0.00750 323.4 121.8
487(12) 0.00697 323.4 113.6
500(12) 0.00713 323.4 104.3
426(11) 0.00879 323.4 94.6
416(11) 0.00864 323.4 85.0
401(11) 0.00888 323.4 75.8
410(11) 0.00852 323.4 67.4
375(10) 0.00971 323.4 59.7
363(10) 0.01039 323.4 52.9
362(10) 0.00981 323.4 47.0
375(11) 0.00907 323.4 41.9
381(11) 0.00888 323.4 37.5
335(10) 0.01081 323.4 33.9
370(10) 0.01005 323.4 30.9
346(10) 0.01027 323.4 28.4
348(10) 0.00968 323.4 26.3
345(10) 0.00987 323.5 24.5
343(10) 0.01042 323.5 23.0
341(10) 0.01078 323.5 21.8
329(10) 0.01031 323.5 20.7
325(10) 0.01015 323.5 19.8
322(10) 0.01108 323.5 19.0
326(10) 0.01086 323.5 18.2
328(9) 0.01141 323.5 17.5
336(10) 0.01039 323.5 16.9
335(10) 0.01017 323.5 16.4
361(10) 0.00956 323.5 15.9
336(10) 0.01090 323.5 15.4
334(9) 0.01126 323.5 14.9
342(10) 0.01022 323.5 14.5
341(10) 0.00939 323.5 14.2
343(10) 0.01015 323.5 13.8
336(9) 0.01119 323.6 13.5
315(9) 0.01176 323.6 13.2
371(11) 0.00903 323.6 13.0
331(10) 0.00969 323.6 12.7
332(10) 0.01025 323.6 12.5
326(9) 0.01145 323.6 12.3
327(9) 0.01131 323.6 12.2
315(9) 0.01130 323.6 12.1
339(10) 0.00961 323.6 12.0
340(10) 0.01059 323.6 11.9
336(10) 0.01102 323.6 11.9
318(9) 0.01141 323.6 11.9
318(9) 0.01112 323.6 11.9
324(10) 0.01063 323.6 11.9
357(10) 0.00961 323.6 12.0
339(10) 0.01103 323.6 12.0
331(10) 0.01093 323.6 12.1
321(10) 0.01095 323.7 12.2
333(10) 0.01022 323.7 12.2
314(9) 0.01115 323.7 12.3
334(9) 0.01119 323.7 12.3
347(10) 0.01048 323.7 12.3
338(10) 0.01056 323.7 12.2
352(10) 0.00974 323.7 12.1
348(10) 0.00979 323.7 12.0
336(9) 0.01113 323.7 11.8
354(10) 0.01007 323.7 11.6
314(9) 0.01115 323.7 11.4
348(10) 0.00943 323.7 11.1
352(10) 0.00993 323.7 10.9
341(10) 0.01098 323.7 10.6
342(10) 0.00984 323.7 10.4
303(9) 0.01129 323.7 10.2
318(10) 0.01093 323.8 10.0
327(10) 0.01105 323.8 9.8
334(9) 0.01112 323.8 9.7
335(10) 0.01041 323.8 9.5
343(10) 0.00931 323.8 9.4
301(9) 0.01168 323.8 9.3
290(9) 0.01245 323.8 9.2
333(9) 0.01128 323.8 9.1
325(10) 0.01051 323.8 9.1
313(10) 0.01031 323.7 9.1
333(10) 0.01064 323.7 9.1
309(9) 0.01213 323.7 9.1
314(9) 0.01171 323.7 9.1
307(9) 0.01163 323.6 9.1
315(10) 0.01020 323.6 9.2
312(9) 0.01123 323.6 9.3
320(9) 0.01168 323.6 9.3
354(10) 0.01005 323.6 9.4
293(9) 0.01200 323.5 9.5
327(10) 0.00974 323.5 9.6
326(10) 0.01068 323.5 9.8
326(9) 0.01143 323.5 9.9
298(9) 0.01228 323.5 10.0
351(10) 0.00966 323.4 10.2
322(10) 0.01054 323.4 10.4
328(10) 0.01062 323.4 10.6
303(9) 0.01229 323.4 10.8
322(9) 0.01131 323.3 11.1
330(10) 0.01094 323.3 11.3
355(10) 0.00929 323.3 11.6
303(9) 0.01152 323.3 11.9
327(9) 0.01136 323.3 12.3
340(10) 0.01076 323.2 12.7
354(10) 0.00951 323.2 13.1
335(10) 0.00985 323.2 13.5
332(10) 0.00993 323.2 14.0
331(9) 0.01128 323.1 14.6
303(9) 0.01221 323.1 15.2
341(10) 0.01012 323.1 15.8
351(10) 0.00996 323.1 16.5
332(10) 0.01062 323.1 17.3
312(9) 0.01193 323.0 18.2
307(9) 0.01157 323.0 19.1
338(10) 0.00982 323.0 20.2
316(10) 0.01084 323.0 21.3
321(9) 0.01131 323.0 22.6
354(10) 0.01065 322.9 23.9
341(10) 0.01033 322.9 25.4
360(10) 0.00936 322.9 27.0
344(10) 0.00990 322.9 28.7
339(10) 0.01033 322.8 30.5
357(10) 0.01042 322.8 32.5
372(11) 0.00896 322.8 34.6
343(10) 0.00982 322.8 36.9
340(10) 0.00987 322.8 39.3
351(10) 0.01028 322.7 41.9
360(10) 0.01039 322.7 44.6
344(10) 0.01035 322.7 47.4
334(10) 0.00976 322.7 50.4
364(10) 0.00913 322.6 53.5
333(9) 0.01109 322.6 56.7
350(10) 0.01051 322.6 60.1
361(10) 0.00978 322.6 63.5
355(10) 0.00922 322.6 67.0
353(10) 0.01000 322.5 70.6
378(10) 0.00970 322.5 74.2
362(10) 0.01031 322.5 77.7
375(10) 0.00937 322.5 81.3
390(11) 0.00801 322.4 84.7
382(11) 0.00883 322.4 88.0
395(10) 0.00931 322.4 91.1
405(10) 0.00915 322.4 94.0
400(11) 0.00857 322.4 96.6
376(11) 0.00875 322.3 98.8
425(11) 0.00807 322.3 100.6
408(10) 0.00911 322.3 102.0
381(10) 0.00952 322.3 102.8
405(11) 0.00841 322.3 103.2
383(11) 0.00881 322.2 103.1
355(10) 0.00984 322.2 102.4
377(10) 0.00983 322.2 101.3
366(10) 0.00987 322.2 99.7
377(10) 0.00948 322.1 97.7
383(10) 0.00913 322.1 95.4
395(11) 0.00845 322.1 92.7
395(10) 0.00937 322.1 89.8
379(10) 0.00961 322.1 86.7
391(11) 0.00882 322.0 83.4
357(10) 0.00948 322.0 80.0
372(10) 0.00938 322.0 76.6
374(10) 0.01001 322.0 73.2
367(10) 0.00953 321.9 69.8
381(11) 0.00895 321.9 66.4
365(10) 0.00937 321.9 63.1
365(10) 0.00964 321.9 59.9
362(10) 0.01022 321.9 56.8
374(10) 0.00951 321.8 53.9
388(11) 0.00858 321.8 51.1
332(10) 0.01027 321.8 48.4
337(10) 0.01052 321.8 45.9
377(10) 0.00976 321.8 43.5
351(10) 0.00994 321.7 41.3
372(10) 0.00911 321.7 39.2
368(10) 0.00980 321.7 37.4
360(10) 0.01013 321.7 35.6
356(10) 0.01046 321.6 34.1
339(10) 0.01023 321.6 32.7
347(10) 0.00958 321.6 31.4
362(10) 0.00950 321.6 30.3
360(10) 0.00990 321.6 29.3
329(9) 0.01137 321.5 28.5
340(10) 0.01012 321.5 27.8
349(10) 0.00957 321.5 27.3
336(10) 0.01050 321.5 26.9
339(10) 0.01071 321.4 26.6
343(10) 0.01095 321.4 26.5
343(10) 0.01052 321.4 26.4
336(10) 0.00988 321.4 26.5
345(10) 0.00953 321.4 26.8
349(10) 0.01073 321.3 27.1
358(10) 0.01045 321.3 27.5
362(10) 0.00972 321.3 28.1
373(11) 0.00884 321.3 28.8
364(10) 0.00979 321.2 29.6
345(10) 0.01091 321.2 30.6
368(10) 0.00995 321.2 31.6
354(10) 0.01017 321.2 32.8
347(10) 0.00943 321.2 34.0
359(10) 0.00970 321.1 35.4
347(10) 0.01085 321.1 36.9
337(10) 0.01068 321.1 38.6
349(10) 0.00988 321.1 40.3
353(10) 0.00937 321.1 42.1
341(10) 0.01002 321.0 44.1
359(10) 0.01028 321.0 46.1
373(10) 0.00972 321.0 48.3
370(10) 0.00929 321.0 50.5
366(10) 0.00908 320.9 52.8
349(10) 0.00984 320.9 55.2
361(10) 0.01030 320.9 57.7
345(10) 0.01044 320.9 60.2
341(10) 0.00989 320.9 62.7
382(11) 0.00903 320.8 65.2
403(11) 0.00855 320.8 67.8
372(10) 0.01005 320.8 70.3
384(11) 0.00869 320.8 72.8
374(10) 0.00917 320.7 75.1
369(10) 0.00944 320.7 77.4
389(11) 0.00906 320.7 79.5
402(10) 0.00930 320.7 81.5
404(11) 0.00867 320.7 83.2
409(11) 0.00822 320.6 84.7
395(11) 0.00892 320.6 85.9
415(11) 0.00874 320.6 86.9
386(10) 0.00959 320.6 87.5
391(11) 0.00849 320.6 87.8
412(11) 0.00788 320.5 87.8
422(11) 0.00808 320.5 87.5
385(10) 0.00955 320.5 86.8
411(11) 0.00907 320.5 85.8
390(11) 0.00889 320.4 84.6
398(11) 0.00845 320.4 83.1
429(11) 0.00836 320.4 81.4
410(11) 0.00905 320.4 79.5
405(10) 0.00914 320.4 77.5
380(10) 0.00940 320.3 75.3
382(11) 0.00848 320.3 73.1
370(10) 0.00936 320.3 70.8
372(10) 0.01010 320.3 68.5
394(10) 0.00919 320.2 66.2
367(10) 0.00952 320.2 64.0
365(11) 0.00888 320.2 61.8
355(10) 0.00995 320.2 59.6
382(10) 0.00976 320.2 57.6
362(10) 0.01018 320.1 55.6
356(10) 0.00930 320.1 53.8
341(10) 0.00952 320.1 52.1
360(10) 0.00946 320.1 50.5
343(10) 0.01067 320.1 49.1
330(9) 0.01123 320.0 47.8
360(10) 0.00956 320.0 46.7
360(10) 0.00908 320.0 45.7
354(10) 0.00975 320.0 44.9
323(9) 0.01137 319.9 44.3
332(9) 0.01112 319.9 43.8
368(10) 0.00940 319.9 43.4
379(11) 0.00889 319.9 43.3
339(10) 0.01054 319.9 43.2
370(10) 0.00997 319.8 43.3
350(10) 0.01030 319.8 43.5
358(10) 0.00935 319.8 43.9
340(10) 0.01007 319.8 44.4
377(10) 0.00919 319.7 44.9
354(10) 0.01045 319.7 45.6
363(10) 0.00987 319.7 46.3
348(10) 0.00983 319.7 47.1
356(10) 0.00972 319.7 47.8
395(11) 0.00894 319.6 48.6
364(10) 0.01020 319.6 49.4
347(10) 0.00998 319.6 50.2
379(11) 0.00888 319.6 50.8
389(11) 0.00899 319.5 51.4
365(10) 0.01004 319.5 51.8
370(10) 0.01010 319.5 52.1
370(10) 0.00916 319.5 52.2
371(11) 0.00877 319.5 52.1
374(10) 0.00912 319.4 51.9
358(10) 0.00997 319.4 51.4
345(10) 0.01070 319.4 50.7
341(10) 0.01033 319.4 49.9
360(10) 0.00909 319.4 48.8
339(10) 0.00997 319.3 47.6
323(9) 0.01146 319.3 46.3
345(10) 0.01073 319.3 44.9
352(10) 0.00963 319.3 43.4
321(10) 0.00996 319.2 41.8
316(9) 0.01134 319.2 40.1
366(10) 0.01010 319.2 38.5
343(10) 0.01089 319.2 36.8
362(10) 0.00950 319.2 35.1
340(10) 0.00962 319.1 33.5
358(10) 0.00954 319.1 31.9
387(10) 0.00951 319.1 30.3
348(10) 0.01050 319.1 28.8
340(10) 0.01016 319.0 27.3
337(10) 0.00973 319.0 25.8
336(10) 0.01061 319.0 24.5
336(10) 0.01102 319.0 23.2
316(9) 0.01146 319.0 21.9
329(10) 0.01056 318.9 20.9
334(10) 0.00984 318.9 19.7
331(10) 0.01033 318.9 18.7
332(9) 0.01114 318.9 17.7
317(9) 0.01131 318.9 16.8
351(10) 0.00971 318.8 16.0
344(10) 0.00962 318.8 15.2
330(10) 0.01042 318.8 14.4
333(9) 0.01120 318.8 13.8
322(9) 0.01126 318.7 13.1
339(10) 0.01032 318.7 12.5
314(10) 0.01075 318.7 12.0
337(10) 0.01039 318.7 11.5
324(9) 0.01144 318.7 11.1
314(10) 0.01092 318.6 10.7
347(10) 0.00935 318.6 10.3
311(9) 0.01120 318.6 9.9
309(9) 0.01158 318.6 9.6
314(9) 0.01169 318.5 9.3
304(10) 0.01108 318.5 9.1
320(10) 0.01068 318.5 8.8
329(10) 0.01032 318.5 8.6
311(9) 0.01125 318.5 8.4
318(9) 0.01163 318.4 8.2
304(9) 0.01173 318.5 8.1
335(10) 0.01016 318.5 7.9
337(10) 0.01063 318.5 7.8
363(10) 0.01004 318.5 7.7
345(10) 0.01067 318.5 7.6
325(10) 0.01048 318.5 7.5
331(10) 0.01018 318.5 7.5
341(10) 0.01009 318.6 7.4
303(9) 0.01215 318.6 7.4
327(9) 0.01136 318.6 7.4
305(9) 0.01139 318.6 7.4
306(10) 0.01072 318.6 7.4
318(9) 0.01143 318.6 7.4
338(10) 0.01095 318.6 7.5
343(10) 0.01078 318.7 7.6
321(9) 0.01112 318.7 7.8
350(11) 0.00893 318.7 8.0
336(10) 0.00992 318.7 8.3
314(9) 0.01164 318.7 8.9
317(9) 0.01158 318.7 9.9
295(9) 0.01210 318.8 11.9
328(10) 0.00977 318.8 15.9
344(10) 0.00994 318.8 23.3
324(9) 0.01134 318.8 35.5
360(10) 0.01009 318.8 53.2
360(10) 0.00982 318.8 75.1
397(11) 0.00820 318.8 97.1
425(11) 0.00788 318.9 112.8
429(11) 0.00860 318.9 115.5
411(11) 0.00886 318.9 104.1
376(10) 0.00937 318.9 83.6
389(11) 0.00859 318.9 61.1
382(10) 0.00924 318.9 41.6
359(10) 0.01040 318.9 27.3
347(10) 0.01012 319.0 18.3
335(10) 0.01036 319.0 13.2
343(10) 0.00995 319.0 10.6
319(10) 0.01092 319.0 9.3
325(9) 0.01145 319.0 8.7
323(10) 0.01086 319.0 8.3
330(10) 0.01026 319.0 8.1
316(10) 0.01086 319.1 7.9
307(9) 0.01159 319.1 7.9
303(9) 0.01229 319.1 7.8
314(9) 0.01126 319.1 7.8
336(10) 0.00978 319.1 7.8
330(10) 0.01007 319.1 7.9
315(9) 0.01148 319.1 8.0
322(9) 0.01163 319.2 8.1
330(10) 0.01059 319.2 8.3
356(10) 0.00948 319.2 8.4
321(10) 0.01108 319.2 8.6
309(9) 0.01192 319.2 8.9
321(9) 0.01157 319.2 9.1
301(9) 0.01154 319.2 9.4
307(9) 0.01119 319.3 9.7
327(10) 0.01080 319.3 10.1
304(9) 0.01214 319.3 10.4
312(9) 0.01189 319.3 10.8
321(10) 0.01068 319.3 11.3
314(10) 0.01054 319.3 11.7
349(10) 0.00982 319.4 12.2
335(10) 0.01101 319.4 12.8
341(10) 0.01095 319.4 13.4
319(10) 0.01099 319.4 14.0
309(10) 0.01066 319.4 14.7
317(10) 0.01071 319.4 15.4
330(9) 0.01127 319.4 16.2
338(10) 0.01073 319.5 16.9
330(10) 0.01054 319.5 17.8
329(10) 0.00982 319.5 18.7
332(10) 0.01026 319.5 19.6
359(10) 0.01021 319.5 20.5
336(10) 0.01060 319.5 21.7
334(10) 0.01031 319.5 22.7
349(10) 0.00913 319.6 23.8
351(10) 0.00974 319.6 24.9
345(10) 0.01063 319.6 26.1
373(10) 0.00978 319.6 27.3
355(10) 0.01012 319.6 28.5
339(10) 0.01019 319.6 29.7
354(10) 0.00959 319.6 30.9
350(10) 0.01022 319.7 32.2
361(10) 0.01026 319.7 33.4
363(10) 0.00949 319.7 34.6
376(11) 0.00903 319.7 35.8
374(10) 0.00939 319.7 37.0
365(10) 0.01012 319.7 38.1
365(10) 0.00973 319.7 39.2
371(10) 0.00941 319.8 40.2
374(10) 0.00909 319.8 41.1
434(11) 0.00785 319.8 41.9
362(10) 0.01029 319.8 42.5
388(11) 0.00885 319.8 43.1
385(11) 0.00863 319.8 43.5
354(10) 0.01010 319.9 43.8
356(10) 0.00994 319.9 44.0
360(10) 0.01047 319.9 44.0
346(10) 0.00984 319.9 43.8
390(11) 0.00842 319.9 43.5
401(11) 0.00865 319.9 43.0
360(10) 0.01006 319.9 42.5
345(10) 0.01074 320.0 41.8
368(10) 0.00916 320.0 40.9
364(10) 0.00919 320.0 40.0
358(10) 0.00954 320.0 39.0
347(10) 0.01067 320.0 38.0
379(10) 0.00974 320.0 36.8
390(11) 0.00866 320.0 35.7
364(11) 0.00883 320.1 34.5
332(10) 0.01020 320.1 33.2
363(10) 0.00997 320.1 32.0
341(10) 0.01074 320.1 30.7
351(10) 0.00973 320.1 29.5
311(10) 0.01065 320.1 28.3
346(10) 0.00969 320.1 27.1
350(10) 0.01061 320.2 25.9
334(10) 0.01106 320.2 24.8
313(10) 0.01104 320.2 23.6
330(10) 0.00959 320.2 22.6
337(10) 0.01032 320.2 21.5
324(9) 0.01149 320.2 20.5
313(9) 0.01193 320.2 19.6
340(10) 0.01013 320.3 18.7
334(10) 0.00978 320.3 17.8
345(10) 0.01003 320.3 17.0
328(9) 0.01116 320.3 16.2
322(9) 0.01136 320.3 15.5
321(10) 0.01053 320.3 14.8
317(10) 0.01037 320.3 14.2
328(10) 0.01050 320.4 13.6
329(9) 0.01139 320.4 13.1
344(10) 0.01047 320.4 12.6
317(9) 0.01111 320.4 12.1
328(10) 0.01019 320.4 11.7
350(10) 0.00980 320.4 11.4
361(10) 0.01034 320.5 11.1
330(10) 0.01101 320.5 10.8
334(10) 0.01016 320.5 10.6
319(9) 0.01114 320.5 10.4
320(9) 0.01111 320.5 10.3
332(9) 0.01135 320.5 10.3
340(10) 0.01072 320.5 10.3
340(10) 0.01026 320.6 10.4
339(10) 0.01010 320.6 10.6
347(10) 0.01076 320.6 10.9
330(9) 0.01127 320.6 11.4
297(9) 0.01169 320.6 12.3
307(10) 0.01106 320.6 13.7
335(10) 0.01017 320.6 16.1
347(10) 0.01084 320.7 20.3
358(10) 0.01027 320.7 27.2
375(10) 0.00933 320.7 38.0
402(11) 0.00860 320.7 53.4
440(11) 0.00771 320.7 73.4
451(11) 0.00792 320.7 96.4
489(11) 0.00770 320.7 118.8
515(12) 0.00677 320.8 134.9
503(12) 0.00659 320.8 138.6
498(12) 0.00695 320.8 128.4
453(11) 0.00817 320.8 108.3
418(11) 0.00878 320.8 84.9
407(11) 0.00831 320.8 62.7
373(11) 0.00834 320.8 44.6
365(10) 0.00953 320.9 31.1
353(10) 0.01050 320.9 22.0
335(9) 0.01125 320.9 16.3
342(10) 0.01038 320.9 12.8
325(10) 0.01037 320.9 10.7
356(10) 0.00994 320.9 9.3
314(9) 0.01186 321.0 8.4
324(9) 0.01111 321.0 7.7
332(10) 0.01037 321.0 7.2
327(10) 0.01010 321.0 6.8
323(10) 0.01044 321.0 6.4
318(9) 0.01170 321.0 6.1
312(9) 0.01154 321.0 5.8
341(10) 0.01004 321.1 5.6
313(10) 0.01076 321.1 5.4
306(9) 0.01171 321.1 5.3
311(9) 0.01207 321.1 5.1
307(9) 0.01186 321.1 5.0
295(9) 0.01190 321.1 4.9
314(10) 0.01064 321.1 4.8
326(10) 0.01080 321.2 4.7
335(10) 0.01099 321.2 4.6
296(9) 0.01207 321.2 4.6
315(10) 0.01056 321.2 4.5
336(10) 0.00981 321.2 4.5
334(10) 0.01040 321.2 4.5
324(9) 0.01146 321.2 4.5
329(10) 0.01098 321.3 4.5
327(10) 0.01028 321.3 4.5
338(10) 0.00984 321.3 4.5
328(10) 0.01103 321.3 4.5
328(9) 0.01131 321.3 4.5
337(10) 0.01021 321.3 4.6
320(10) 0.01076 321.3 4.6
300(9) 0.01197 321.4 4.7
315(9) 0.01154 321.4 4.8
359(10) 0.01036 321.4 4.8
310(9) 0.01129 321.4 4.9
324(10) 0.01054 321.4 5.1
323(9) 0.01116 321.4 5.2
338(10) 0.01068 321.4 5.3
324(9) 0.01140 321.5 5.5
330(10) 0.01035 321.5 5.7
337(10) 0.00958 321.5 6.0
313(10) 0.01107 321.5 6.3
315(9) 0.01166 321.5 6.7
323(9) 0.01153 321.5 7.4
334(10) 0.01025 321.6 8.4
349(10) 0.00956 321.6 10.0
365(10) 0.00966 321.6 12.1
371(10) 0.00986 321.6 14.8
350(10) 0.01068 321.6 17.9
381(10) 0.00916 321.6 20.9
385(11) 0.00813 321.6 22.9
376(10) 0.00947 321.7 23.2
383(10) 0.00981 321.7 21.9
383(10) 0.00965 321.7 19.5
336(10) 0.01068 321.7 17.0
356(10) 0.00932 321.7 14.8
337(10) 0.01060 321.7 13.1
326(9) 0.01149 321.7 12.1
337(10) 0.01093 321.8 11.5
342(10) 0.01023 321.8 11.3
324(10) 0.01011 321.8 11.3
305(9) 0.01143 321.8 11.4
319(9) 0.01169 321.8 11.6
329(10) 0.01103 321.8 11.7
315(10) 0.01098 321.8 11.9
348(10) 0.00947 321.9 12.0
351(10) 0.00941 321.9 12.1
359(10) 0.01037 321.9 12.2
337(10) 0.01083 321.9 12.3
334(10) 0.01044 321.9 12.3
335(10) 0.01035 321.9 12.3
335(10) 0.01023 321.9 12.3
345(10) 0.01086 322.0 12.3
344(10) 0.01041 322.0 12.3
331(10) 0.01040 322.0 12.2
338(10) 0.01000 322.0 12.2
325(10) 0.01094 322.0 12.1
319(9) 0.01166 322.0 12.1
344(10) 0.01042 322.1 12.0
333(10) 0.01047 322.1 11.9
344(10) 0.01016 322.1 11.8
338(10) 0.01056 322.1 11.8
346(10) 0.01071 322.1 11.7
343(10) 0.01008 322.1 11.7
310(10) 0.01090 322.1 11.6
303(9) 0.01162 322.2 11.6
326(9) 0.01127 322.2 11.6
332(9) 0.01132 322.2 11.6
337(10) 0.01044 322.2 11.6
333(10) 0.01010 322.2 11.6
339(10) 0.01039 322.2 11.7
323(10) 0.01106 322.2 11.7
329(9) 0.01132 322.3 11.8
305(9) 0.01113 322.3 11.9
323(10) 0.00989 322.3 12.0
323(10) 0.01083 322.3 12.2
340(10) 0.01082 322.3 12.3
332(9) 0.01130 322.3 12.5
331(10) 0.01071 322.3 12.7
335(10) 0.00988 322.4 13.0
318(10) 0.01103 322.4 13.3
324(9) 0.01146 322.4 13.6
350(10) 0.01041 322.4 13.9
327(10) 0.01072 322.4 14.2
346(10) 0.00916 322.4 14.6
318(10) 0.01097 322.4 15.0
307(9) 0.01228 322.5 15.4
322(9) 0.01129 322.5 15.8
334(10) 0.01057 322.5 16.3
318(10) 0.01036 322.5 16.8
293(9) 0.01209 322.5 17.2
327(9) 0.01135 322.5 17.7
322(9) 0.01132 322.6 18.2
336(10) 0.01005 322.6 18.7
321(10) 0.01057 322.6 19.1
338(10) 0.01040 322.6 19.6
315(9) 0.01191 322.6 20.0
348(10) 0.01027 322.6 20.3
338(10) 0.01007 322.6 20.7
356(10) 0.00935 322.7 20.9
327(10) 0.01097 322.7 21.2
334(9) 0.01116 322.7 21.3
324(10) 0.01099 322.7 21.4
352(10) 0.00949 322.7 21.4
323(10) 0.01067 322.7 21.3
333(10) 0.01063 322.7 21.1
320(9) 0.01174 322.8 20.9
325(10) 0.01055 322.8 20.6
348(10) 0.00959 322.8 20.2
339(10) 0.00989 322.8 19.8
321(9) 0.01108 322.8 19.3
329(9) 0.01128 322.8 18.8
338(10) 0.01015 322.8 18.2
320(10) 0.01058 322.9 17.7
342(10) 0.01015 322.9 17.1
348(10) 0.01044 322.9 16.4
333(9) 0.01122 322.9 15.8
336(10) 0.01019 322.9 15.2
328(10) 0.01032 322.9 14.5
331(10) 0.01079 322.9 13.9
320(9) 0.01162 323.0 13.3
321(9) 0.01156 323.0 12.7
332(10) 0.01034 323.0 12.2
320(10) 0.01004 323.0 11.7
308(9) 0.01172 323.0 11.1
331(9) 0.01115 323.0 10.6
336(9) 0.01111 323.0 10.2
315(9) 0.01145 323.1 9.7
337(10) 0.00960 323.1 9.3
319(10) 0.01104 323.1 8.9
339(10) 0.01099 323.1 8.6
276(9) 0.01358 323.1 8.3
307(9) 0.01141 323.1 8.0
318(10) 0.01008 323.2 7.7
328(10) 0.01052 323.2 7.5
298(9) 0.01261 323.2 7.3
317(9) 0.01163 323.2 7.2
340(10) 0.01016 323.2 7.1
306(10) 0.01082 323.2 7.1
326(10) 0.01031 323.2 7.0
317(9) 0.01146 323.3 7.1
311(9) 0.01192 323.3 7.2
333(10) 0.01068 323.3 7.4
343(10) 0.00988 323.3 7.6
332(10) 0.01073 323.3 8.0
310(9) 0.01214 323.3 8.6
315(9) 0.01134 323.3 9.6
302(9) 0.01179 323.4 10.9
351(10) 0.00956 323.4 13.1
356(10) 0.01008 323.4 16.2
335(9) 0.01119 323.4 20.7
367(10) 0.00977 323.4 26.8
342(10) 0.01002 323.4 34.7
328(10) 0.01042 323.4 44.2
359(10) 0.00976 323.5 54.8
347(10) 0.01077 323.5 65.1
350(10) 0.01007 323.5 73.5
383(11) 0.00857 323.5 77.8
373(10) 0.00920 323.5 76.5
383(10) 0.00930 323.5 70.2
333(9) 0.01126 323.5 60.9
345(10) 0.00960 323.6 50.7
339(10) 0.01001 323.6 41.1
377(10) 0.00936 323.6 33.0
361(10) 0.01016 323.6 26.6
336(9) 0.01114 323.6 21.9
328(10) 0.01028 323.6 18.6
348(10) 0.00944 323.7 16.3
348(10) 0.01016 323.7 14.6
345(10) 0.01085 323.7 13.1
339(10) 0.01098 323.7 11.8
340(10) 0.00997 323.7 10.5
330(10) 0.00968 323.7 9.4
324(9) 0.01113 323.7 8.5
321(9) 0.01150 323.8 7.7
326(9) 0.01144 323.8 7.0
327(10) 0.01066 323.8 6.5
303(10) 0.01084 323.8 6.1
342(10) 0.00993 323.8 5.7
323(9) 0.01146 323.8 5.5
337(9) 0.01109 323.8 5.3
343(10) 0.00983 323.9 5.2
316(10) 0.01035 323.9 5.2
329(10) 0.01079 323.9 5.1
329(9) 0.01135 323.9 5.1
321(9) 0.01143 323.9 5.1
344(10) 0.01006 323.9 5.2
320(10) 0.01038 323.9 5.3
316(9) 0.01126 324.0 5.4
319(9) 0.01158 324.0 5.5
335(10) 0.01098 324.0 5.7
324(10) 0.01043 324.0 5.9
316(10) 0.01041 324.0 6.2
331(10) 0.01042 324.0 6.6
329(9) 0.01128 324.0 7.1
349(10) 0.01001 324.1 7.7
303(9) 0.01111 324.1 8.5
325(10) 0.01010 324.1 9.5
336(10) 0.01040 324.1 10.6
335(10) 0.01101 324.1 12.0
348(10) 0.01023 324.1 13.6
316(10) 0.01102 324.1 15.4
346(10) 0.00984 324.2 17.4
310(9) 0.01145 324.2 19.6
335(9) 0.01115 324.2 22.0
332(10) 0.01089 324.2 24.4
341(10) 0.01001 324.2 26.7
303(9) 0.01168 324.2 28.7
328(10) 0.01095 324.3 30.4
352(10) 0.01062 324.3 31.3
351(10) 0.01008 324.3 31.6
344(10) 0.01000 324.3 31.0
345(10) 0.00983 324.3 29.7
348(10) 0.01027 324.3 28.0
350(10) 0.01079 324.3 25.8
330(10) 0.01072 324.4 23.5
343(10) 0.00956 324.4 21.2
323(9) 0.01112 324.4 18.9
323(9) 0.01142 324.4 16.9
322(9) 0.01146 324.4 15.0
333(10) 0.01029 324.4 13.3
335(10) 0.00983 324.4 11.9
317(10) 0.01092 324.5 10.7
312(9) 0.01141 324.5 9.7
331(9) 0.01125 324.5 8.9
325(10) 0.00997 324.5 8.4
326(10) 0.01064 324.5 7.8
330(9) 0.01118 324.5 7.4
315(9) 0.01157 324.5 7.1
344(10) 0.01010 324.6 6.9
337(10) 0.00955 324.6 6.7
314(10) 0.01083 324.6 6.6
327(10) 0.01107 324.6 6.5
317(9) 0.01168 324.6 6.4
305(9) 0.01127 324.6 6.4
309(10) 0.01070 324.6 6.3
326(10) 0.01090 324.7 6.3
338(9) 0.01112 324.7 6.3
309(9) 0.01182 324.7 6.3
326(10) 0.01071 324.7 6.4
305(9) 0.01110 324.7 6.4
328(10) 0.01014 324.7 6.4
317(9) 0.01174 324.8 6.4
329(9) 0.01116 324.8 6.5
349(10) 0.00967 324.8 6.5
307(10) 0.01067 324.8 6.6
329(10) 0.01074 324.8 6.6
357(10) 0.01047 324.8 6.7
320(9) 0.01157 324.8 6.7
324(10) 0.01103 324.9 6.8
336(10) 0.00993 324.9 6.8
326(10) 0.01076 324.9 6.9
332(9) 0.01115 324.9 6.9
317(9) 0.01125 324.9 6.9
319(10) 0.01069 324.9 7.0
320(9) 0.01111 324.9 7.0
320(10) 0.01099 325.0 7.0
324(9) 0.01155 325.0 7.1
332(10) 0.01054 325.0 7.2
341(10) 0.01004 325.0 7.2
339(10) 0.01025 325.0 7.2
324(9) 0.01116 325.0 7.2
344(10) 0.01081 325.0 7.2
351(10) 0.00989 325.1 7.2
336(10) 0.01038 325.1 7.2
333(10) 0.01092 325.1 7.1
341(10) 0.01088 325.1 7.1
332(9) 0.01121 325.1 7.1
309(10) 0.01076 325.1 7.0
311(10) 0.01096 325.1 7.0
328(10) 0.01039 325.1 7.0
342(10) 0.01084 325.1 6.9
315(9) 0.01185 325.1 6.9
335(10) 0.01049 325.1 6.8
345(10) 0.00963 325.1 6.7
345(10) 0.01025 325.1 6.7
327(9) 0.01133 325.1 6.6
361(10) 0.01022 325.1 6.5
348(10) 0.00982 325.1 6.5
314(10) 0.01064 325.1 6.4
327(10) 0.01068 325.1 6.4
338(10) 0.01091 325.1 6.3
327(9) 0.01136 325.1 6.2
349(10) 0.00972 325.1 6.2
326(10) 0.00996 325.1 6.1
300(9) 0.01204 325.1 6.1
329(9) 0.01139 325.1 6.0
331(10) 0.01099 325.1 5.9
323(10) 0.01075 325.1 5.9
343(10) 0.00949 325.1 5.9
322(9) 0.01109 325.1 5.8
315(9) 0.01188 325.1 5.8
362(10) 0.00994 325.1 5.7
351(10) 0.01031 325.1 5.7
340(10) 0.00999 325.1 5.7
301(9) 0.01177 325.1 5.7
299(9) 0.01255 325.1 5.7
332(10) 0.01067 325.1 5.6
337(10) 0.01013 325.1 5.6
300(9) 0.01212 325.1 5.7
310(10) 0.01106 325.1 5.7
320(9) 0.01167 325.1 5.7
346(10) 0.01024 325.1 5.7
323(10) 0.01054 325.1 5.8
310(9) 0.01114 325.1 5.8
301(9) 0.01190 325.1 5.9
335(9) 0.01108 325.1 5.9
313(9) 0.01148 325.1 6.0
331(10) 0.01050 325.1 6.1
318(10) 0.01105 325.1 6.2
329(10) 0.01077 325.1 6.3
315(9) 0.01181 325.1 6.5
318(10) 0.01079 325.1 6.6
330(10) 0.01028 325.1 6.8
325(10) 0.01103 325.1 7.0
322(9) 0.01126 325.1 7.2
327(9) 0.01135 325.1 7.4
316(9) 0.01115 325.1 7.6
366(11) 0.00887 325.1 8.0
335(10) 0.01031 325.1 8.3
329(9) 0.01125 325.1 8.6
347(10) 0.01071 325.1 9.0
317(10) 0.01098 325.1 9.4
336(10) 0.00983 325.1 9.9
328(10) 0.01036 325.1 10.4
329(9) 0.01149 325.1 11.0
332(10) 0.01105 325.1 11.7
357(10) 0.00997 325.1 12.4
364(10) 0.00910 325.1 13.3
373(10) 0.00923 325.1 14.2
362(10) 0.00995 325.1 15.4
333(9) 0.01141 325.1 16.8
347(10) 0.00981 325.1 18.6
359(10) 0.00915 325.1 21.0
375(10) 0.00951 325.1 24.3
360(10) 0.01023 325.1 29.1
358(10) 0.01042 325.1 36.1
374(10) 0.00959 325.1 46.0
403(11) 0.00813 325.1 59.2
430(11) 0.00776 325.1 75.7
436(11) 0.00845 325.1 94.8
450(11) 0.00799 325.1 114.6
481(12) 0.00706 325.1 132.1
495(12) 0.00666 325.1 144.6
465(12) 0.00748 325.1 151.6
475(11) 0.00789 325.1 156.7
467(11) 0.00768 325.1 163.9
469(12) 0.00742 325.1 176.3
494(12) 0.00666 325.1 194.8
514(12) 0.00649 325.1 218.4
531(12) 0.00705 325.1 243.7
574(13) 0.00611 325.1 265.6
511(12) 0.00673 325.1 279.1
486(12) 0.00713 325.1 281.7
525(12) 0.00672 325.1 274.8
545(12) 0.00684 325.1 262.0
523(12) 0.00666 325.1 246.4
552(13) 0.00609 325.1 230.0
521(12) 0.00661 325.1 213.7
498(12) 0.00716 325.1 197.9
483(11) 0.00777 325.1 182.4
496(12) 0.00712 325.1 166.8
471(12) 0.00723 325.1 150.9
435(11) 0.00788 325.1 134.6
410(11) 0.00872 325.1 118.5
404(10) 0.00930 325.1 103.0
409(11) 0.00834 325.1 88.6
413(11) 0.00797 325.1 75.7
379(11) 0.00907 325.1 64.3
355(10) 0.01037 325.1 54.6
377(10) 0.00974 325.1 46.4
370(10) 0.00946 325.1 39.6
354(11) 0.00905 325.1 34.1
370(10) 0.00940 325.1 29.7
335(10) 0.01107 325.1 26.1
343(10) 0.01096 325.1 23.3
343(10) 0.01017 325.1 21.0
351(10) 0.00950 325.1 19.2
338(10) 0.01033 325.1 17.7
342(10) 0.01082 325.1 16.4
343(10) 0.01077 325.1 15.4
359(10) 0.01007 325.1 14.5
363(11) 0.00885 325.1 13.7
325(10) 0.01097 325.1 13.0
371(10) 0.01008 325.1 12.4
341(10) 0.01072 325.1 11.9
320(10) 0.01062 325.1 11.4
342(10) 0.00922 325.1 11.0
334(10) 0.01035 325.1 10.7
330(9) 0.01125 325.1 10.3
347(10) 0.01060 325.1 10.0
346(10) 0.01034 325.1 9.8
338(10) 0.00991 325.1 9.5
333(10) 0.01053 325.1 9.3
322(9) 0.01152 325.1 9.1
311(9) 0.01194 325.1 9.0
340(10) 0.01017 325.1 8.8
321(10) 0.01075 325.1 8.7
332(10) 0.01061 325.1 8.6
317(9) 0.01171 325.1 8.5
360(10) 0.00998 325.1 8.5
327(10) 0.01056 325.1 8.4
326(10) 0.01056 325.1 8.4
316(9) 0.01149 325.1 8.3
318(9) 0.01169 325.1 8.3
369(10) 0.00943 325.1 8.3
353(10) 0.00984 325.1 8.3
339(10) 0.01021 325.1 8.3
342(10) 0.01058 325.1 8.4
317(9) 0.01164 325.1 8.4
328(10) 0.01069 325.1 8.6
315(10) 0.01069 325.1 8.7
318(10) 0.01050 325.1 9.0
331(10) 0.01065 325.1 9.4
325(9) 0.01145 325.1 9.9
337(10) 0.01006 325.1 10.5
345(10) 0.00993 325.1 11.4
349(10) 0.01020 325.1 12.4
319(9) 0.01152 325.1 13.6
347(10) 0.01069 325.1 15.0
349(10) 0.01028 325.1 16.6
347(10) 0.00953 325.1 18.2
325(10) 0.01080 325.1 19.8
345(10) 0.01052 325.1 21.1
350(10) 0.01080 325.1 22.0
336(10) 0.01007 325.1 22.4
330(10) 0.00994 325.1 22.0
343(10) 0.01056 325.1 21.1
384(10) 0.00946 325.1 19.7
361(10) 0.01045 325.1 18.0
339(10) 0.01030 325.1 16.3
355(10) 0.00924 325.1 14.6
330(9) 0.01118 325.1 13.1
341(10) 0.01082 325.1 11.7
341(10) 0.01094 325.1 10.5
318(9) 0.01130 325.1 9.6
311(10) 0.01076 325.1 8.8
350(10) 0.01019 325.1 8.2
329(9) 0.01143 325.1 7.7
332(10) 0.01102 325.1 7.3
339(10) 0.01015 325.1 7.0
344(10) 0.00964 325.1 6.8
343(10) 0.01028 325.1 6.6
337(10) 0.01107 325.1 6.4
330(9) 0.01130 325.1 6.3
354(10) 0.00947 325.1 6.2
337(10) 0.01000 325.1 6.0
304(9) 0.01177 325.1 6.0
333(9) 0.01123 325.1 5.9
310(9) 0.01150 325.1 5.8
318(9) 0.01111 325.1 5.7
327(10) 0.01036 325.1 5.7
339(10) 0.00984 325.1 5.6
351(10) 0.01069 325.1 5.6
340(10) 0.01074 325.1 5.5
343(10) 0.01008 325.1 5.5
328(10) 0.01013 325.1 5.5
337(10) 0.01032 325.1 5.5
351(10) 0.01066 325.1 5.5
326(10) 0.01097 325.1 5.4
329(10) 0.01044 325.1 5.4
354(10) 0.00959 325.1 5.4
355(10) 0.00992 325.1 5.4
357(10) 0.01042 325.1 5.4
327(10) 0.01075 325.1 5.4
324(10) 0.01040 325.1 5.4
328(10) 0.01035 325.1 5.4
346(10) 0.01026 325.1 5.4
356(10) 0.01056 325.1 5.5
328(10) 0.01041 325.1 5.5
320(10) 0.01088 325.1 5.5
336(10) 0.01074 325.1 5.5
316(9) 0.01177 325.1 5.6
310(9) 0.01191 325.1 5.6
341(10) 0.01027 325.1 5.7
351(10) 0.00927 325.1 5.7
325(10) 0.01075 325.2 5.8
318(9) 0.01182 325.2 5.9
317(9) 0.01184 325.3 5.9
333(10) 0.01048 325.3 6.0
315(10) 0.01042 325.3 6.1
297(9) 0.01139 325.4 6.2
301(9) 0.01226 325.4 6.3
319(9) 0.01151 325.4 6.5
333(10) 0.01061 325.5 6.6
352(10) 0.00911 325.5 6.7
331(10) 0.01083 325.6 6.9
352(10) 0.01063 325.6 7.0
325(9) 0.01146 325.6 7.2
328(10) 0.01056 325.7 7.4
336(10) 0.00990 325.7 7.6
323(9) 0.01112 325.7 7.9
337(9) 0.01111 325.8 8.1
341(10) 0.01074 325.8 8.4
328(10) 0.01065 325.9 8.6
350(10) 0.00977 325.9 9.0
354(10) 0.00998 325.9 9.3
325(9) 0.01145 326.0 9.6
347(10) 0.01042 326.0 10.0
345(10) 0.01004 326.0 10.4
316(9) 0.01128 326.1 10.9
339(10) 0.01015 326.1 11.3
372(10) 0.01001 326.1 11.9
351(10) 0.01049 326.2 12.4
335(10) 0.01046 326.2 13.0
347(10) 0.00975 326.3 13.7
367(10) 0.00943 326.3 14.4
343(10) 0.01082 326.3 15.2
354(10) 0.00990 326.4 16.1
354(10) 0.00950 326.4 17.1
336(10) 0.00993 326.4 18.2
330(10) 0.01090 326.5 19.5
351(10) 0.01057 326.5 21.1
357(10) 0.00939 326.6 23.0
369(10) 0.00924 326.6 25.6
379(10) 0.00928 326.6 29.1
359(10) 0.01023 326.7 34.2
397(10) 0.00950 326.7 41.6
395(11) 0.00880 326.7 52.4
399(11) 0.00823 326.8 67.8
411(11) 0.00814 326.8 88.7
444(11) 0.00786 326.9 115.5
453(11) 0.00821 326.9 147.6
461(11) 0.00757 326.9 183.2
549(13) 0.00590 327.0 218.1
571(13) 0.00619 327.0 246.2
573(13) 0.00639 327.0 260.0
589(13) 0.00629 327.1 255.1
531(12) 0.00666 327.1 233.6
493(12) 0.00678 327.2 202.2
465(11) 0.00759 327.2 167.9
415(11) 0.00887 327.2 135.8
413(10) 0.00912 327.3 108.5
407(11) 0.00862 327.3 87.3
419(11) 0.00782 327.3 72.0
391(11) 0.00883 327.4 61.9
371(10) 0.01009 327.4 56.1
412(11) 0.00904 327.5 53.4
386(10) 0.00924 327.5 53.0
396(11) 0.00818 327.5 54.3
380(11) 0.00896 327.6 57.0
392(10) 0.00947 327.6 60.8
393(10) 0.00941 327.6 65.6
411(11) 0.00848 327.7 71.3
393(11) 0.00844 327.7 77.9
400(11) 0.00885 327.8 85.2
442(11) 0.00848 327.8 93.2
447(11) 0.00816 327.8 101.5
454(11) 0.00768 327.9 110.0
491(12) 0.00673 327.9 118.1
457(12) 0.00740 327.9 125.4
516(12) 0.00717 328.0 131.2
454(11) 0.00803 328.0 135.0
484(12) 0.00700 328.1 136.3
459(12) 0.00726 328.1 134.8
438(11) 0.00800 328.1 130.8
472(11) 0.00784 328.2 124.6
437(11) 0.00823 328.2 117.0
458(12) 0.00724 328.2 108.4
417(11) 0.00822 328.3 99.5
390(10) 0.00920 328.3 90.6
416(11) 0.00900 328.4 82.2
406(11) 0.00855 328.4 74.4
407(11) 0.00828 328.4 67.3
400(11) 0.00857 328.5 61.0
426(11) 0.00818 328.5 55.6
423(11) 0.00884 328.5 51.1
392(11) 0.00886 328.6 47.4
396(11) 0.00857 328.6 44.6
371(10) 0.00950 328.7 42.6
383(10) 0.00951 328.7 41.6
375(10) 0.01006 328.7 41.5
367(10) 0.00950 328.8 42.7
369(11) 0.00882 328.8 45.2
352(10) 0.00983 328.8 49.3
358(10) 0.00983 328.9 54.9
382(10) 0.00982 328.9 62.1
396(11) 0.00873 329.0 70.6
383(11) 0.00855 329.0 79.6
393(10) 0.00919 329.0 88.1
419(11) 0.00877 329.1 94.4
411(10) 0.00911 329.1 96.9
400(11) 0.00864 329.1 94.7
411(11) 0.00764 329.2 88.6
414(11) 0.00802 329.2 80.1
377(10) 0.00985 329.3 70.8
372(10) 0.00989 329.3 62.0
380(11) 0.00901 329.3 54.4
369(11) 0.00866 329.4 48.2
352(10) 0.00998 329.4 43.4
372(10) 0.01005 329.4 40.1
356(10) 0.01020 329.5 37.9
357(10) 0.00997 329.5 36.6
362(10) 0.00928 329.6 36.1
374(10) 0.00919 329.6 36.2
383(10) 0.00953 329.6 36.7
377(10) 0.00986 329.7 37.5
358(10) 0.00983 329.7 38.8
391(11) 0.00856 329.7 40.3
409(11) 0.00849 329.8 42.1
390(10) 0.00945 329.8 44.2
386(10) 0.00953 329.9 46.6
394(11) 0.00875 329.9 49.1
396(11) 0.00827 329.9 51.7
394(11) 0.00891 330.0 54.2
389(10) 0.00957 330.0 56.6
436(11) 0.00800 330.0 58.6
436(11) 0.00759 330.1 60.0
422(11) 0.00775 330.1 60.6
406(11) 0.00862 330.2 60.5
401(10) 0.00924 330.2 59.6
393(11) 0.00895 330.2 58.3
399(11) 0.00854 330.3 56.5
381(11) 0.00862 330.3 54.7
347(10) 0.01008 330.3 52.7
365(10) 0.01021 330.4 50.9
412(11) 0.00822 330.4 49.2
387(11) 0.00870 330.5 47.6
355(10) 0.00969 330.5 46.2
368(10) 0.00983 330.5 45.0
389(10) 0.00960 330.6 44.0
363(10) 0.00970 330.6 43.1
376(11) 0.00877 330.6 42.3
388(11) 0.00906 330.7 41.7
409(11) 0.00899 330.7 41.1
397(10) 0.00944 330.8 40.5
352(10) 0.01021 330.8 40.0
383(11) 0.00850 330.8 39.5
390(11) 0.00870 330.9 39.0
378(10) 0.00979 330.9 38.4
382(10) 0.00985 330.9 37.9
382(11) 0.00883 331.0 37.3
364(11) 0.00896 331.0 36.7
363(10) 0.00976 331.1 36.0
372(10) 0.00990 331.1 35.4
375(10) 0.00989 331.1 34.7
365(10) 0.00950 331.2 34.0
362(11) 0.00866 331.2 33.3
337(10) 0.01039 331.2 32.5
384(10) 0.00962 331.3 31.8
356(10) 0.01040 331.3 31.0
369(10) 0.00973 331.4 30.2
355(10) 0.00932 331.4 29.5
345(10) 0.00967 331.4 28.7
321(9) 0.01157 331.5 27.9
346(10) 0.01063 331.5 27.1
356(10) 0.00989 331.5 26.4
328(10) 0.01029 331.6 25.6
345(10) 0.00996 331.6 24.9
351(10) 0.01064 331.7 24.1
366(10) 0.00986 331.7 23.4
344(10) 0.00993 331.7 22.7
361(10) 0.00925 331.8 22.0
374(10) 0.00949 331.8 21.3
342(10) 0.01082 331.8 20.6
353(10) 0.01029 331.9 20.0
363(10) 0.00943 331.9 19.3
379(11) 0.00889 332.0 18.7
368(10) 0.00952 332.0 18.1
347(10) 0.01078 332.0 17.6
326(10) 0.01091 332.1 17.0
354(10) 0.00942 332.1 16.5
353(10) 0.00972 332.1 16.0
369(10) 0.00967 332.2 15.5
358(10) 0.01029 332.2 15.0
376(10) 0.00913 332.3 14.5
398(11) 0.00834 332.3 14.1
354(10) 0.00986 332.3 13.7
348(10) 0.01064 332.4 13.3
371(10) 0.01005 332.4 12.9
367(10) 0.00932 332.4 12.6
317(10) 0.01071 332.5 12.3
350(10) 0.00948 332.5 11.9
341(10) 0.01058 332.6 11.6
327(9) 0.01137 332.6 11.3
343(10) 0.00987 332.6 11.1
324(10) 0.01000 332.7 10.8
323(10) 0.01079 332.7 10.6
323(9) 0.01120 332.7 10.4
341(10) 0.01106 332.8 10.2
355(10) 0.00998 332.8 10.0
352(10) 0.00955 332.9 9.8
372(10) 0.00911 332.9 9.6
367(10) 0.01013 332.9 9.5
368(10) 0.01006 333.0 9.3
350(10) 0.00987 333.0 9.2
350(10) 0.00918 333.0 9.1
357(10) 0.00981 333.1 9.0
357(10) 0.01038 333.1 8.9
364(10) 0.01015 333.2 8.8
349(10) 0.00989 333.2 8.8
330(10) 0.01023 333.2 8.7
351(10) 0.01007 333.3 8.6
377(10) 0.00992 333.3 8.6
340(10) 0.01068 333.3 8.6
341(10) 0.01048 333.4 8.6
341(10) 0.01007 333.4 8.6
362(10) 0.00989 333.5 8.6
351(10) 0.01058 333.5 8.6
380(10) 0.00947 333.5 8.6
318(10) 0.01085 333.6 8.7
326(10) 0.00971 333.6 8.7
347(10) 0.00982 333.6 8.8
340(10) 0.01091 333.7 8.8
345(10) 0.01036 333.7 8.9
335(10) 0.01008 333.8 9.0
322(10) 0.01045 333.8 9.1
348(10) 0.01020 333.8 9.2
353(10) 0.01058 333.9 9.4
347(10) 0.01019 333.9 9.5
319(9) 0.01114 333.9 9.7
329(10) 0.01040 334.0 9.9
355(10) 0.00994 334.0 10.1
351(10) 0.01062 334.1 10.3
335(10) 0.01031 334.1 10.6
371(11) 0.00873 334.1 10.9
346(10) 0.01018 334.2 11.2
345(10) 0.01054 334.2 11.5
343(10) 0.01091 334.2 11.9
355(10) 0.00981 334.3 12.4
360(10) 0.00939 334.3 12.8
344(10) 0.00987 334.4 13.4
355(10) 0.01006 334.4 13.9
347(10) 0.01076 334.4 14.6
344(10) 0.01045 334.5 15.3
334(10) 0.00993 334.5 16.0
379(10) 0.00911 334.5 16.9
374(10) 0.00960 334.6 17.8
366(10) 0.01030 334.6 18.8
360(10) 0.00961 334.7 19.9
368(11) 0.00901 334.7 21.0
367(10) 0.00972 334.7 22.3
364(10) 0.01025 334.8 23.7
352(10) 0.01052 334.8 25.1
364(10) 0.00937 334.8 26.7
361(11) 0.00888 334.9 28.3
331(10) 0.01076 334.9 30.0
354(10) 0.01050 335.0 31.7
348(10) 0.01066 335.0 33.5
361(10) 0.00976 335.0 35.3
392(11) 0.00833 335.1 37.1
358(10) 0.00978 335.1 38.8
386(10) 0.00956 335.1 40.5
388(10) 0.00947 335.2 42.1
399(11) 0.00896 335.2 43.5
377(11) 0.00879 335.3 44.9
392(11) 0.00851 335.3 46.2
415(11) 0.00888 335.3 47.4
391(10) 0.00935 335.4 48.5
381(10) 0.00913 335.4 49.6
397(11) 0.00861 335.4 50.8
382(11) 0.00905 335.5 51.9
406(10) 0.00920 335.5 53.0
413(11) 0.00886 335.6 54.1
390(11) 0.00904 335.6 55.2
385(11) 0.00888 335.6 56.2
403(11) 0.00839 335.7 57.3
385(10) 0.00959 335.7 58.3
405(11) 0.00874 335.7 59.2
397(11) 0.00889 335.8 60.1
407(11) 0.00848 335.8 60.8
379(10) 0.00975 335.9 61.5
393(10) 0.00945 335.9 62.0
411(11) 0.00828 335.9 62.4
395(11) 0.00869 336.0 62.5
403(11) 0.00854 336.0 62.5
418(11) 0.00864 336.0 62.3
416(11) 0.00893 336.1 62.0
402(11) 0.00889 336.1 61.5
407(11) 0.00839 336.2 60.8
436(11) 0.00775 336.2 60.0
408(11) 0.00892 336.2 59.0
413(11) 0.00899 336.3 58.0
410(11) 0.00839 336.3 56.8
395(11) 0.00854 336.3 55.6
421(11) 0.00810 336.4 54.3
387(10) 0.00953 336.4 53.1
405(10) 0.00912 336.5 51.8
394(11) 0.00881 336.5 50.5
386(11) 0.00855 336.5 49.2
364(10) 0.00976 336.6 48.0
388(10) 0.00958 336.6 46.8
429(11) 0.00871 336.6 45.7
406(11) 0.00878 336.7 44.7
407(11) 0.00792 336.7 43.8
389(11) 0.00900 336.8 43.0
384(10) 0.00969 336.8 42.3
345(10) 0.01073 336.8 41.7
383(11) 0.00893 336.9 41.2
372(11) 0.00862 336.9 40.8
396(11) 0.00838 336.9 40.6
378(10) 0.00987 337.0 40.4
406(11) 0.00901 337.0 40.4
375(10) 0.00963 337.0 40.6
381(11) 0.00847 337.1 40.8
365(10) 0.00916 337.1 41.2
361(10) 0.01031 337.2 41.7
383(10) 0.00950 337.2 42.3
367(10) 0.00913 337.2 43.1
378(11) 0.00876 337.3 44.0
401(11) 0.00860 337.3 45.0
377(10) 0.00994 337.3 46.2
394(10) 0.00913 337.4 47.6
387(11) 0.00893 337.4 49.1
391(11) 0.00886 337.5 50.8
380(10) 0.00953 337.5 52.6
378(10) 0.00986 337.5 54.6
378(10) 0.00949 337.6 56.8
383(10) 0.00913 337.6 59.1
396(11) 0.00886 337.6 61.5
399(11) 0.00856 337.7 64.0
396(10) 0.00940 337.7 66.6
387(11) 0.00894 337.8 69.1
389(11) 0.00885 337.8 71.7
388(11) 0.00903 337.8 74.3
401(11) 0.00900 337.9 76.7
368(10) 0.01015 337.9 78.9
367(10) 0.00937 337.9 81.0
401(11) 0.00842 338.0 82.7
404(11) 0.00872 338.0 84.2
391(10) 0.00932 338.1 85.2
402(10) 0.00929 338.1 85.9
390(11) 0.00872 338.1 86.0
408(11) 0.00800 338.2 85.8
402(11) 0.00880 338.2 85.1
407(11) 0.00898 338.2 84.0
389(10) 0.00958 338.3 82.8
388(11) 0.00905 338.3 81.6
397(11) 0.00832 338.4 81.0
375(10) 0.00951 338.4 82.1
384(10) 0.00928 338.4 85.8
416(10) 0.00908 338.5 92.6
429(11) 0.00801 338.5 102.0
439(12) 0.00738 338.5 111.4
449(11) 0.00771 338.6 116.8
422(11) 0.00876 338.6 114.6
399(10) 0.00922 338.7 104.4
407(11) 0.00817 338.7 89.5
387(11) 0.00863 338.7 73.8
391(10) 0.00916 338.8 60.5
365(10) 0.01023 338.8 50.6
403(10) 0.00914 338.8 43.8
417(11) 0.00807 338.9 39.3
362(11) 0.00899 338.9 36.0
357(10) 0.00959 339.0 33.4
367(10) 0.01018 339.0 31.1
358(10) 0.01048 339.0 29.2
346(10) 0.01030 339.1 27.3
357(10) 0.00950 339.1 25.7
384(10) 0.00911 339.1 24.1
374(10) 0.01010 339.2 22.8
386(11) 0.00904 339.2 21.5
366(10) 0.00944 339.3 20.4
344(10) 0.01017 339.3 19.3
359(10) 0.00949 339.3 18.4
364(10) 0.01028 339.4 17.6
354(10) 0.01022 339.4 16.9
393(11) 0.00870 339.4 16.2
387(11) 0.00866 339.5 15.7
367(10) 0.00963 339.5 15.2
346(10) 0.01079 339.6 14.7
355(10) 0.00980 339.6 14.4
358(10) 0.00915 339.6 14.1
349(10) 0.00959 339.7 13.9
359(10) 0.01004 339.7 13.7
323(9) 0.01153 339.7 13.6
370(10) 0.00944 339.8 13.6
377(11) 0.00897 339.8 13.6
373(11) 0.00905 339.9 13.6
335(10) 0.01071 339.9 13.8
363(10) 0.01018 339.9 14.0
374(10) 0.00917 340.0 14.3
344(10) 0.00960 340.0 14.7
360(10) 0.00962 340.0 15.2
380(10) 0.00959 340.1 15.8
390(10) 0.00955 340.1 16.8
370(10) 0.00956 340.2 18.2
385(11) 0.00881 340.2 20.1
396(11) 0.00874 340.2 23.1
394(10) 0.00938 340.3 27.7
400(10) 0.00929 340.3 34.5
421(11) 0.00827 340.3 44.3
466(12) 0.00676 340.4 57.5
478(12) 0.00720 340.4 74.2
522(12) 0.00704 340.5 93.4
529(12) 0.00714 340.5 113.3
545(13) 0.00620 340.5 130.2
559(13) 0.00565 340.6 139.7
548(12) 0.00643 340.6 138.4
505(12) 0.00738 340.6 126.8
463(11) 0.00795 340.7 108.8
445(11) 0.00772 340.7 89.1
438(11) 0.00764 340.8 70.5
411(11) 0.00846 340.8 54.8
416(11) 0.00901 340.8 42.6
397(10) 0.00918 340.9 33.8
389(11) 0.00876 340.9 27.8
370(11) 0.00898 340.9 23.8
378(10) 0.00910 341.0 21.3
414(11) 0.00903 341.0 19.7
377(10) 0.00978 341.1 18.7
375(10) 0.00916 341.1 18.1
367(10) 0.00929 341.1 17.7
352(10) 0.00991 341.2 17.4
370(10) 0.01002 341.2 17.4
365(10) 0.00996 341.2 17.5
375(11) 0.00892 341.3 17.7
352(10) 0.00945 341.3 18.0
366(10) 0.00941 341.4 18.4
379(10) 0.00987 341.4 19.0
375(10) 0.00956 341.4 19.7
368(11) 0.00895 341.5 20.5
338(10) 0.01043 341.5 21.4
382(10) 0.00913 341.5 22.4
368(10) 0.01008 341.6 23.5
366(10) 0.00958 341.6 24.8
349(10) 0.00994 341.7 26.0
387(11) 0.00839 341.7 27.4
357(10) 0.01001 341.7 28.7
364(10) 0.01020 341.8 30.0
371(10) 0.00936 341.8 31.3
368(10) 0.00910 341.8 32.5
393(11) 0.00864 341.9 33.5
383(10) 0.00970 341.9 34.2
373(10) 0.01002 342.0 34.8
383(10) 0.00908 342.0 35.1
376(11) 0.00899 342.0 35.0
368(10) 0.00960 342.1 34.8
388(10) 0.00946 342.1 34.3
387(10) 0.00968 342.1 33.6
377(10) 0.00920 342.2 32.8
376(11) 0.00874 342.2 32.0
356(10) 0.00991 342.3 31.1
405(10) 0.00910 342.3 30.3
366(10) 0.01012 342.3 29.5
380(11) 0.00903 342.4 28.7
384(11) 0.00856 342.4 28.2
346(10) 0.01027 342.4 27.7
351(10) 0.01066 342.5 27.4
377(10) 0.00983 342.5 27.2
365(10) 0.00966 342.6 27.3
379(11) 0.00840 342.6 27.6
388(11) 0.00893 342.6 28.1
378(10) 0.00982 342.7 29.0
394(10) 0.00931 342.7 30.2
396(11) 0.00882 342.7 32.0
393(11) 0.00842 342.8 34.3
381(10) 0.00910 342.8 37.5
429(11) 0.00876 342.9 41.7
410(11) 0.00866 342.9 47.0
411(11) 0.00842 342.9 53.8
435(11) 0.00758 343.0 62.0
445(11) 0.00765 343.0 71.9
471(11) 0.00787 343.0 83.5
497(12) 0.00728 343.1 96.5
511(12) 0.00663 343.1 110.5
507(12) 0.00652 343.2 124.7
501(12) 0.00673 343.2 138.2
528(12) 0.00709 343.2 149.4
530(12) 0.00672 343.3 156.6
517(12) 0.00658 343.3 158.6
495(12) 0.00693 343.3 154.9
498(12) 0.00710 343.4 146.3
516(12) 0.00729 343.4 134.3
489(12) 0.00705 343.5 120.7
459(12) 0.00742 343.5 106.7
477(12) 0.00703 343.5 93.3
441(11) 0.00812 343.6 81.0
405(10) 0.00908 343.6 70.3
419(11) 0.00827 343.6 61.1
397(11) 0.00847 343.7 53.5
389(11) 0.00892 343.7 47.3
369(10) 0.00989 343.8 42.4
419(11) 0.00891 343.8 38.6
394(11) 0.00881 343.8 35.6
404(11) 0.00842 343.9 33.2
392(11) 0.00873 343.9 31.3
372(10) 0.00984 343.9 29.8
372(10) 0.00991 344.0 28.6
387(11) 0.00890 344.0 27.5
376(11) 0.00896 344.1 26.5
369(10) 0.00949 344.1 25.6
364(10) 0.01005 344.1 24.7
366(10) 0.01021 344.2 23.8
358(10) 0.01013 344.2 22.8
371(11) 0.00880 344.2 21.9
370(10) 0.00932 344.3 20.9
356(10) 0.01040 344.3 19.9
389(10) 0.00960 344.4 18.9
360(10) 0.01010 344.4 18.0
380(11) 0.00861 344.4 17.1
358(10) 0.01010 344.5 16.2
376(10) 0.00990 344.5 15.4
358(10) 0.01040 344.5 14.6
355(10) 0.00940 344.6 13.9
330(10) 0.00992 344.6 13.3
360(10) 0.00915 344.7 12.7
343(10) 0.01086 344.7 12.1
329(9) 0.01137 344.7 11.6
372(10) 0.00934 344.8 11.1
344(10) 0.00973 344.8 10.7
335(10) 0.01042 344.8 10.3
315(9) 0.01188 344.9 10.0
367(10) 0.00974 344.9 9.6
338(10) 0.01027 345.0 9.3
358(10) 0.00947 345.0 9.1
349(10) 0.01011 345.0 8.8
352(10) 0.01063 345.1 8.6
372(10) 0.00976 345.1 8.4
382(10) 0.00908 345.1 8.2
337(10) 0.01042 345.2 8.1
339(10) 0.01045 345.2 8.0
340(10) 0.01095 345.3 7.9
343(10) 0.01056 345.3 7.8
354(10) 0.00947 345.3 7.7
352(10) 0.00991 345.4 7.6
371(10) 0.00958 345.4 7.6
355(10) 0.01059 345.4 7.6
379(10) 0.00910 345.5 7.6
368(10) 0.00929 345.5 7.6
361(10) 0.00996 345.6 7.7
387(10) 0.00942 345.6 7.7
371(10) 0.01001 345.6 7.8
342(10) 0.01023 345.7 8.0
370(11) 0.00888 345.7 8.1
361(10) 0.00951 345.7 8.3
365(10) 0.00989 345.8 8.5
355(10) 0.01053 345.8 8.8
369(10) 0.00960 345.9 9.1
368(11) 0.00894 345.9 9.4
391(11) 0.00900 345.9 9.8
343(10) 0.01082 346.0 10.3
395(10) 0.00949 346.0 10.8
361(10) 0.00983 346.0 11.5
380(11) 0.00839 346.1 12.3
395(11) 0.00876 346.1 13.2
374(10) 0.00991 346.2 14.4
368(10) 0.01005 346.2 15.9
363(10) 0.00989 346.2 17.9
394(11) 0.00798 346.3 20.6
405(11) 0.00852 346.3 24.3
404(11) 0.00898 346.3 29.2
376(10) 0.00980 346.4 35.7
406(11) 0.00834 346.4 44.3
407(11) 0.00789 346.5 55.3
421(11) 0.00823 346.5 68.8
399(10) 0.00922 346.5 84.9
435(11) 0.00848 346.6 103.2
467(12) 0.00730 346.6 123.0
460(12) 0.00729 346.6 142.6
513(12) 0.00664 346.7 160.0
522(12) 0.00713 346.7 172.3
504(12) 0.00711 346.8 176.8
500(12) 0.00700 346.8 172.5
537(13) 0.00614 346.8 160.4
483(12) 0.00741 346.9 143.1
448(11) 0.00826 346.9 123.4
426(11) 0.00833 346.9 103.7
399(11) 0.00858 347.0 85.3
406(11) 0.00834 347.0 69.2
407(11) 0.00863 347.1 55.6
394(10) 0.00942 347.1 44.6
394(10) 0.00923 347.1 36.0
403(11) 0.00824 347.2 29.4
361(10) 0.00959 347.2 24.5
378(10) 0.00932 347.2 20.9
379(10) 0.00988 347.3 18.3
377(10) 0.00919 347.3 16.3
360(10) 0.00961 347.3 14.9
372(11) 0.00894 347.4 13.8
353(10) 0.01022 347.4 12.9
355(10) 0.01043 347.5 12.3
360(10) 0.00938 347.5 11.8
389(11) 0.00858 347.5 11.5
368(10) 0.00935 347.6 11.3
362(10) 0.01016 347.6 11.2
336(10) 0.01105 347.6 11.2
345(10) 0.01011 347.7 11.3
349(10) 0.00936 347.7 11.4
368(10) 0.00912 347.8 11.7
331(9) 0.01118 347.8 12.1
354(10) 0.01073 347.8 12.6
338(10) 0.01091 347.9 13.1
344(10) 0.00957 347.9 13.8
376(11) 0.00897 347.9 14.5
344(10) 0.01090 348.0 15.3
361(10) 0.00988 348.0 16.1
374(10) 0.00940 348.1 17.0
353(10) 0.00951 348.1 17.8
358(10) 0.00988 348.1 18.7
361(10) 0.01034 348.2 19.5
372(10) 0.00995 348.2 20.2
378(11) 0.00883 348.2 20.8
356(11) 0.00880 348.3 21.2
373(10) 0.00925 348.3 21.5
371(10) 0.01012 348.4 21.5
367(10) 0.00999 348.4 21.3
356(10) 0.00980 348.4 20.8
358(10) 0.00928 348.5 20.2
333(10) 0.01058 348.5 19.4
363(10) 0.01038 348.5 18.5
353(10) 0.01014 348.6 17.5
344(10) 0.01006 348.6 16.5
378(11) 0.00874 348.7 15.4
353(10) 0.00987 348.7 14.4
359(10) 0.01042 348.7 13.4
357(10) 0.01026 348.8 12.4
364(10) 0.00933 348.8 11.5
348(10) 0.00997 348.8 10.6
356(10) 0.00997 348.9 9.9
351(10) 0.01071 348.9 9.1
367(10) 0.00962 349.0 8.5
361(10) 0.00942 349.0 7.9
381(11) 0.00860 349.0 7.4
353(10) 0.01006 349.1 6.9
352(10) 0.01064 349.1 6.5
350(10) 0.00986 349.1 6.1
352(10) 0.00967 349.2 5.8
345(10) 0.01004 349.2 5.5
384(10) 0.00945 349.3 5.3
355(10) 0.01056 349.3 5.1
356(10) 0.00943 349.3 4.9
353(10) 0.00944 349.4 4.8
349(10) 0.01011 349.4 4.6
386(10) 0.00930 349.4 4.5
341(10) 0.01088 349.5 4.4
361(10) 0.00955 349.5 4.3
365(11) 0.00884 349.6 4.3
377(11) 0.00905 349.6 4.2
360(10) 0.01008 349.6 4.1
362(10) 0.01029 349.7 4.1
354(10) 0.00997 349.7 4.0
346(10) 0.00935 349.7 4.0
380(11) 0.00904 349.8 4.0
380(10) 0.00978 349.8 3.9
371(10) 0.01007 349.9 3.9
355(10) 0.00987 349.9 3.9
358(10) 0.00921 349.9 3.9
375(10) 0.00907 350.0 3.9
329(9) 0.01152 350.0 3.9
352(10) 0.01071 350.0 3.9
381(10) 0.00921 350.1 3.9
355(10) 0.00913 350.1 3.9
344(10) 0.01015 350.2 3.9
363(10) 0.01012 350.2 3.9
324(9) 0.01155 350.2 3.9
340(10) 0.01007 350.3 3.9
365(11) 0.00890 350.3 3.9
332(10) 0.01079 350.3 3.9
342(10) 0.01087 350.4 3.9
368(10) 0.01012 350.4 4.0
354(10) 0.00977 350.5 4.0
338(10) 0.00982 350.5 4.0
358(10) 0.00966 350.5 4.1
365(10) 0.01030 350.5 4.1
372(10) 0.00963 350.6 4.2
360(10) 0.00979 350.6 4.2
388(11) 0.00867 350.6 4.3
331(10) 0.01042 350.6 4.4
362(10) 0.01039 350.7 4.5
375(10) 0.00966 350.7 4.5
362(10) 0.00973 350.7 4.6
361(10) 0.00943 350.7 4.7
367(10) 0.00963 350.8 4.8
350(10) 0.01058 350.8 4.9
359(10) 0.00968 350.8 5.1
351(10) 0.00982 350.8 5.2
340(10) 0.01014 350.9 5.4
364(10) 0.00988 350.9 5.5
356(10) 0.01044 350.9 5.7
344(10) 0.01000 350.9 5.9
346(10) 0.00959 351.0 6.1
396(11) 0.00863 351.0 6.3
370(10) 0.00983 351.0 6.5
389(10) 0.00959 351.0 6.8
367(10) 0.00942 351.1 7.0
333(10) 0.01007 351.1 7.3
357(10) 0.00986 351.1 7.6
368(10) 0.00989 351.1 7.8
379(10) 0.00977 351.2 8.1
363(10) 0.00969 351.2 8.4
357(10) 0.00922 351.2 8.7
355(10) 0.00950 351.2 9.0
375(10) 0.00977 351.3 9.3
369(10) 0.01015 351.3 9.6
353(10) 0.00981 351.3 9.9
346(10) 0.00948 351.3 10.2
355(10) 0.00978 351.4 10.5
366(10) 0.01010 351.4 10.7
378(10) 0.00984 351.4 10.9
342(10) 0.01045 351.4 11.1
382(11) 0.00804 351.5 11.2
356(10) 0.00972 351.5 11.3
355(10) 0.01051 351.5 11.4
356(10) 0.01031 351.5 11.5
357(10) 0.01001 351.6 11.5
345(10) 0.00945 351.6 11.6
350(10) 0.00980 351.6 11.6
362(10) 0.01032 351.6 11.6
366(10) 0.00992 351.7 11.6
341(10) 0.01027 351.7 11.7
385(11) 0.00848 351.7 11.7
370(10) 0.00939 351.7 11.8
356(10) 0.01055 351.8 11.8
343(10) 0.01043 351.8 11.9
350(10) 0.00966 351.8 12.1
357(10) 0.00935 351.8 12.2
370(10) 0.00933 351.8 12.4
350(10) 0.01063 351.9 12.7
374(10) 0.00980 351.9 13.0
362(10) 0.00924 351.9 13.4
344(10) 0.00994 351.9 13.8
366(10) 0.00953 352.0 14.2
360(10) 0.01032 352.0 14.7
356(10) 0.01012 352.0 15.2
367(11) 0.00897 352.0 15.8
381(11) 0.00879 352.1 16.4
372(10) 0.00954 352.1 17.1
363(10) 0.01029 352.1 17.9
344(10) 0.01026 352.1 18.7
391(11) 0.00835 352.2 19.6
346(10) 0.00983 352.2 20.5
355(10) 0.01008 352.2 21.5
386(10) 0.00960 352.2 22.6
366(10) 0.00976 352.3 23.7
363(10) 0.00912 352.3 24.9
356(10) 0.00997 352.3 26.1
393(10) 0.00923 352.3 27.4
382(10) 0.00972 352.4 28.7
381(10) 0.00930 352.4 30.1
379(11) 0.00898 352.4 31.5
385(10) 0.00919 352.4 33.0
390(10) 0.00931 352.5 34.4
382(10) 0.00965 352.5 36.0
381(11) 0.00905 352.5 37.5
393(11) 0.00810 352.5 39.1
382(11) 0.00884 352.6 40.6
400(10) 0.00912 352.6 42.2
357(10) 0.01034 352.6 43.7
373(10) 0.00941 352.6 45.2
361(11) 0.00882 352.7 46.7
407(11) 0.00832 352.7 48.1
396(10) 0.00934 352.7 49.5
373(10) 0.01002 352.7 50.8
366(10) 0.00963 352.8 52.1
412(11) 0.00763 352.8 53.2
402(11) 0.00862 352.8 54.3
412(11) 0.00897 352.8 55.3
424(11) 0.00851 352.9 56.3
384(10) 0.00920 352.9 57.1
393(11) 0.00860 352.9 57.9
380(10) 0.00912 352.9 58.7
400(10) 0.00932 353.0 59.4
428(11) 0.00830 353.0 60.1
412(11) 0.00849 353.0 60.8
420(11) 0.00816 353.0 61.4
424(11) 0.00840 353.1 62.1
416(11) 0.00889 353.1 62.7
443(11) 0.00806 353.1 63.3
439(11) 0.00774 353.1 63.9
413(11) 0.00830 353.2 64.4
403(11) 0.00887 353.2 64.8
438(11) 0.00853 353.2 65.1
435(11) 0.00812 353.2 65.3
448(11) 0.00774 353.3 65.3
434(11) 0.00781 353.3 65.0
424(11) 0.00843 353.3 64.5
401(10) 0.00928 353.3 63.6
404(11) 0.00866 353.4 62.4
438(11) 0.00776 353.4 60.7
423(11) 0.00820 353.4 58.6
404(11) 0.00903 353.4 56.0
393(10) 0.00948 353.4 53.1
417(11) 0.00846 353.5 50.1
401(11) 0.00838 353.5 47.1
392(11) 0.00901 353.5 44.3
380(10) 0.00968 353.5 41.7
410(11) 0.00896 353.6 39.3
382(10) 0.00918 353.6 37.2
371(11) 0.00903 353.6 35.4
398(11) 0.00872 353.6 33.8
414(11) 0.00862 353.7 32.4
384(10) 0.00975 353.7 31.3
402(11) 0.00857 353.7 30.3
394(11) 0.00791 353.7 29.5
390(11) 0.00885 353.8 28.8
402(10) 0.00913 353.8 28.3
409(11) 0.00899 353.8 27.9
389(11) 0.00871 353.8 27.7
394(11) 0.00788 353.9 27.5
402(11) 0.00852 353.9 27.5
388(10) 0.00963 353.9 27.5
385(10) 0.00954 353.9 27.7
368(10) 0.00925 354.0 27.9
380(11) 0.00835 354.0 28.1
398(11) 0.00874 354.0 28.5
388(10) 0.00968 354.0 28.9
381(10) 0.00949 354.1 29.3
410(11) 0.00839 354.1 29.8
393(11) 0.00828 354.1 30.3
400(11) 0.00850 354.1 30.9
379(10) 0.00990 354.2 31.4
383(10) 0.00918 354.2 32.0
366(10) 0.00956 354.2 32.7
405(11) 0.00828 354.2 33.3
411(11) 0.00837 354.3 33.9
392(10) 0.00952 354.3 34.5
387(11) 0.00901 354.3 35.1
399(11) 0.00833 354.3 35.7
388(11) 0.00885 354.4 36.2
419(11) 0.00819 354.4 36.8
388(10) 0.00971 354.4 37.2
413(11) 0.00878 354.4 37.6
408(11) 0.00830 354.5 38.0
419(11) 0.00789 354.5 38.3
420(11) 0.00851 354.5 38.6
384(10) 0.00967 354.5 38.7
405(11) 0.00806 354.6 38.8
388(11) 0.00844 354.6 38.8
405(11) 0.00850 354.6 38.8
417(11) 0.00877 354.6 38.7
392(10) 0.00949 354.7 38.5
378(10) 0.00929 354.7 38.2
396(11) 0.00862 354.7 37.9
394(11) 0.00881 354.7 37.5
371(10) 0.00973 354.8 37.0
411(10) 0.00910 354.8 36.5
414(11) 0.00840 354.8 36.0
395(11) 0.00829 354.8 35.4
372(10) 0.00946 354.9 34.8
386(10) 0.00949 354.9 34.2
393(10) 0.00935 354.9 33.6
387(11) 0.00896 354.9 32.9
388(11) 0.00814 355.0 32.3
377(11) 0.00895 355.0 31.6
389(10) 0.00920 355.0 31.0
354(10) 0.01049 355.0 30.3
401(11) 0.00877 355.1 29.7
409(11) 0.00769 355.1 29.1
382(10) 0.00923 355.1 28.5
386(10) 0.00943 355.1 27.9
386(10) 0.00951 355.1 27.4
376(10) 0.00938 355.2 26.8
412(11) 0.00788 355.2 26.3
384(11) 0.00893 355.2 25.8
389(10) 0.00967 355.2 25.4
409(11) 0.00874 355.3 25.0
365(10) 0.00965 355.3 24.6
359(10) 0.00913 355.3 24.2
357(10) 0.00972 355.3 23.8
380(10) 0.00973 355.4 23.5
354(10) 0.01047 355.4 23.2
370(10) 0.00957 355.4 22.9
380(11) 0.00876 355.4 22.6
377(10) 0.00920 355.5 22.3
366(10) 0.01025 355.5 22.1
399(11) 0.00897 355.5 21.8
375(10) 0.00950 355.5 21.6
366(10) 0.00948 355.6 21.3
395(11) 0.00878 355.6 21.1
396(10) 0.00941 355.6 20.8
357(10) 0.01019 355.6 20.6
397(11) 0.00856 355.7 20.3
364(10) 0.00951 355.7 20.0
381(10) 0.00919 355.7 19.8
377(10) 0.00989 355.7 19.5
382(10) 0.00914 355.8 19.2
384(11) 0.00900 355.8 19.0
395(11) 0.00863 355.8 18.8
360(10) 0.01002 355.8 18.6
379(10) 0.00982 355.9 18.4
389(10) 0.00915 355.9 18.3
408(11) 0.00795 355.9 18.3
363(10) 0.01003 355.9 18.3
376(10) 0.00982 356.0 18.5
364(10) 0.01013 356.0 18.8
374(10) 0.00944 356.0 19.2
396(11) 0.00829 356.0 19.8
373(10) 0.00932 356.1 20.7
360(10) 0.01024 356.1 21.8
377(10) 0.00974 356.1 23.2
371(10) 0.00941 356.1 24.9
387(11) 0.00827 356.2 26.9
368(10) 0.00973 356.2 29.2
379(10) 0.00965 356.2 31.8
396(10) 0.00941 356.2 34.5
410(11) 0.00805 356.3 37.3
388(11) 0.00819 356.3 40.1
415(11) 0.00829 356.3 42.4
390(10) 0.00957 356.3 44.1
375(10) 0.00996 356.4 45.0
402(11) 0.00858 356.4 44.8
395(11) 0.00811 356.4 43.5
403(11) 0.00847 356.4 41.4
386(10) 0.00962 356.5 38.6
398(10) 0.00920 356.5 35.5
388(11) 0.00878 356.5 32.2
371(11) 0.00905 356.5 29.1
373(10) 0.00939 356.6 26.1
388(10) 0.00970 356.6 23.4
359(10) 0.01026 356.6 20.9
379(10) 0.00921 356.6 18.8
355(10) 0.00951 356.7 17.1
382(11) 0.00894 356.7 15.6
377(10) 0.00982 356.7 14.3
327(9) 0.01132 356.7 13.4
345(10) 0.01014 356.7 12.6
355(10) 0.00937 356.8 11.9
357(10) 0.00978 356.8 11.5
361(10) 0.01025 356.8 11.1
346(10) 0.01046 356.8 10.8
361(10) 0.00982 356.9 10.6
349(10) 0.00985 356.9 10.4
360(10) 0.00981 356.9 10.3
371(10) 0.01002 356.9 10.3
373(10) 0.00958 357.0 10.2
393(11) 0.00845 357.0 10.3
371(10) 0.00935 357.0 10.3
381(10) 0.00955 357.0 10.4
376(10) 0.00984 357.1 10.6
334(10) 0.01064 357.1 10.8
363(10) 0.00952 357.1 11.0
404(11) 0.00866 357.1 11.4
378(10) 0.00962 357.2 11.8
364(10) 0.01029 357.2 12.3
389(11) 0.00873 357.2 13.0
377(11) 0.00876 357.2 13.8
367(10) 0.00934 357.3 14.9
368(10) 0.00984 357.3 16.2
396(10) 0.00932 357.3 17.9
378(10) 0.00944 357.3 20.1
405(11) 0.00811 357.4 22.7
377(10) 0.00927 357.4 26.0
386(10) 0.00975 357.4 30.0
434(11) 0.00841 357.4 34.8
400(11) 0.00869 357.5 40.3
387(11) 0.00846 357.5 46.7
419(11) 0.00810 357.5 53.9
414(11) 0.00889 357.5 61.7
424(11) 0.00870 357.6 69.9
418(11) 0.00806 357.6 78.2
416(12) 0.00744 357.6 86.1
448(11) 0.00787 357.6 92.9
464(11) 0.00804 357.7 98.0
471(11) 0.00780 357.7 100.5
478(12) 0.00731 357.7 100.3
485(12) 0.00674 357.7 97.3
476(12) 0.00730 357.8 91.9
443(11) 0.00847 357.8 84.8
427(11) 0.00855 357.8 76.8
443(11) 0.00795 357.8 68.5
400(11) 0.00855 357.9 60.3
404(11) 0.00847 357.9 52.5
407(11) 0.00906 357.9 45.5
431(11) 0.00827 357.9 39.2
389(11) 0.00893 358.0 33.7
386(11) 0.00890 358.0 29.0
394(11) 0.00879 358.0 25.1
374(10) 0.01004 358.0 21.9
388(10) 0.00919 358.1 19.3
377(10) 0.00908 358.1 17.2
362(10) 0.00956 358.1 15.5
391(11) 0.00886 358.1 14.2
380(10) 0.00985 358.2 13.1
372(10) 0.00947 358.2 12.3
382(11) 0.00899 358.2 11.6
378(11) 0.00899 358.2 11.1
361(10) 0.00999 358.3 10.6
357(10) 0.01045 358.3 10.2
338(10) 0.01030 358.3 9.9
367(11) 0.00889 358.3 9.6
343(10) 0.01008 358.4 9.4
349(10) 0.01005 358.4 9.2
358(10) 0.01046 358.4 9.1
371(10) 0.00952 358.4 8.9
352(10) 0.00952 358.4 8.8
356(10) 0.00979 358.5 8.8
372(10) 0.00986 358.5 8.7
380(10) 0.00979 358.5 8.6
363(10) 0.00968 358.5 8.6
358(10) 0.00942 358.6 8.6
373(10) 0.00951 358.6 8.6
390(10) 0.00921 358.6 8.6
364(10) 0.01021 358.6 8.6
353(10) 0.01010 358.7 8.7
345(10) 0.00924 358.7 8.7
355(10) 0.00980 358.7 8.8
385(10) 0.00969 358.7 8.8
378(10) 0.00984 358.8 8.9
374(10) 0.00962 358.8 9.0
365(11) 0.00883 358.8 9.1
344(10) 0.01036 358.8 9.2
370(10) 0.00999 358.9 9.3
366(10) 0.01007 358.9 9.4
366(10) 0.00974 358.9 9.6
374(11) 0.00891 358.9 9.7
374(11) 0.00858 359.0 9.8
355(10) 0.01037 359.0 10.0
359(10) 0.01024 359.0 10.1
340(10) 0.00992 359.0 10.3
360(11) 0.00905 359.1 10.4
376(10) 0.00949 359.1 10.6
355(10) 0.01050 359.1 10.8
378(10) 0.00954 359.1 10.9
359(10) 0.00962 359.2 11.1
368(11) 0.00885 359.2 11.3
362(10) 0.00935 359.2 11.5
379(10) 0.00988 359.2 11.6
391(11) 0.00903 359.3 11.9
360(10) 0.00974 359.3 12.0
399(11) 0.00826 359.3 12.2
357(10) 0.00961 359.3 12.4
363(10) 0.01025 359.4 12.6
347(10) 0.01031 359.4 12.8
350(10) 0.01027 359.4 13.0
374(10) 0.00923 359.4 13.2
367(10) 0.01005 359.5 13.4
360(10) 0.01016 359.5 13.5
372(10) 0.00916 359.5 13.7
363(10) 0.00927 359.5 13.9
349(10) 0.00989 359.6 14.1
384(10) 0.00925 359.6 14.2
382(10) 0.00971 359.6 14.4
376(10) 0.00910 359.6 14.6
408(11) 0.00809 359.7 14.7
399(11) 0.00868 359.7 14.9
377(10) 0.00947 359.7 15.0
374(10) 0.00996 359.7 15.2
359(10) 0.01000 359.8 15.3
358(10) 0.00940 359.8 15.5
368(10) 0.00937 359.8 15.6
348(10) 0.01067 359.8 15.7
371(10) 0.01002 359.8 15.8
337(10) 0.01039 359.9 15.9
370(11) 0.00880 359.9 16.0
372(10) 0.00922 359.9 16.1
366(10) 0.01007 359.9 16.2
375(10) 0.00985 359.9 16.3
348(10) 0.00986 360.0 16.4
381(11) 0.00841 360.0 16.5
375(10) 0.00917 360.0 16.5
348(10) 0.01057 360.0 16.6
364(10) 0.01028 360.0 16.7
375(10) 0.00941 360.0 16.7
360(10) 0.00910 360.1 16.8
359(10) 0.00982 360.1 16.9
354(10) 0.01035 360.1 16.9
380(10) 0.00984 360.1 16.9
357(10) 0.00993 360.1 17.0
347(10) 0.00990 360.1 17.0
359(10) 0.00948 360.2 17.1
391(10) 0.00948 360.2 17.1
376(10) 0.00989 360.2 17.1
376(10) 0.00920 360.2 17.2
379(11) 0.00878 360.2 17.2
375(11) 0.00902 360.2 17.2
362(10) 0.01033 360.3 17.3
368(10) 0.00971 360.3 17.3
378(11) 0.00907 360.3 17.3
372(10) 0.00936 360.3 17.3
387(11) 0.00902 360.3 17.3
333(9) 0.01108 360.3 17.3
367(10) 0.00949 360.4 17.4
385(11) 0.00886 360.4 17.4
384(11) 0.00877 360.4 17.4
358(10) 0.00973 360.4 17.4
351(10) 0.01056 360.4 17.4
373(10) 0.00953 360.4 17.4
391(11) 0.00896 360.5 17.4
377(10) 0.00919 360.5 17.4
390(10) 0.00921 360.5 17.4
381(10) 0.00974 360.5 17.5
388(11) 0.00866 360.5 17.5
358(10) 0.00974 360.5 17.5
384(11) 0.00871 360.6 17.5
361(10) 0.00958 360.6 17.6
365(10) 0.01023 360.6 17.6
393(10) 0.00910 360.6 17.6
399(11) 0.00851 360.6 17.7
368(10) 0.00968 360.7 17.7
378(10) 0.00995 360.7 17.8
373(10) 0.00989 360.7 17.8
356(10) 0.00971 360.7 17.9
377(11) 0.00853 360.7 18.0
381(10) 0.00924 360.7 18.0
382(10) 0.00959 360.8 18.1
376(10) 0.00994 360.8 18.2
390(11) 0.00873 360.8 18.3
390(11) 0.00832 360.8 18.3
385(10) 0.00913 360.8 18.4
364(10) 0.01021 360.8 18.5
354(10) 0.01039 360.9 18.6
362(10) 0.00964 360.9 18.7
366(11) 0.00888 360.9 18.8
362(10) 0.00983 360.9 18.9
378(10) 0.00986 360.9 19.0
376(10) 0.00968 360.9 19.1
383(11) 0.00869 361.0 19.2
372(11) 0.00877 361.0 19.3
379(11) 0.00887 361.0 19.3
360(10) 0.01031 361.0 19.4
399(10) 0.00912 361.0 19.5
378(10) 0.00923 361.0 19.5
381(11) 0.00887 361.1 19.6
384(10) 0.00910 361.1 19.6
362(10) 0.01020 361.1 19.6
397(11) 0.00886 361.1 19.7
362(10) 0.00977 361.1 19.7
360(10) 0.00936 361.1 19.7
384(11) 0.00890 361.2 19.6
418(11) 0.00878 361.2 19.6
410(11) 0.00892 361.2 19.6
405(11) 0.00838 361.2 19.5
368(10) 0.00936 361.2 19.5
366(10) 0.00972 361.3 19.4
373(10) 0.00985 361.3 19.3
350(10) 0.01011 361.3 19.2
355(10) 0.00980 361.3 19.2
376(11) 0.00884 361.3 19.1
403(11) 0.00871 361.3 19.0
345(10) 0.01071 361.4 19.0
387(10) 0.00928 361.4 19.0
382(11) 0.00901 361.4 19.1
364(10) 0.00982 361.4 19.3
387(10) 0.00938 361.4 19.7
377(10) 0.00973 361.4 20.4
417(11) 0.00833 361.5 21.4
401(11) 0.00834 361.5 22.9
396(11) 0.00865 361.5 24.9
407(11) 0.00894 361.5 27.6
398(10) 0.00936 361.5 30.8
398(11) 0.00886 361.5 34.5
408(11) 0.00819 361.6 38.2
438(11) 0.00801 361.6 41.5
406(10) 0.00910 361.6 43.6
423(11) 0.00881 361.6 43.9
407(11) 0.00847 361.6 42.2
382(11) 0.00866 361.6 39.0
393(11) 0.00866 361.7 35.1
391(10) 0.00933 361.7 31.1
386(10) 0.00973 361.7 27.4
372(10) 0.00973 361.7 24.3
399(11) 0.00817 361.7 21.7
406(11) 0.00891 361.7 19.8
373(10) 0.00989 361.8 18.3
399(10) 0.00916 361.8 17.3
396(11) 0.00871 361.8 16.6
387(11) 0.00831 361.8 16.2
370(10) 0.00958 361.8 15.9
382(10) 0.00981 361.8 15.7
385(10) 0.00938 361.9 15.5
367(11) 0.00906 361.9 15.5
379(11) 0.00902 361.9 15.4
394(11) 0.00895 361.9 15.4
356(10) 0.01036 361.9 15.4
352(10) 0.01041 362.0 15.4
375(11) 0.00898 362.0 15.5
369(11) 0.00905 362.0 15.5
370(10) 0.00921 362.0 15.5
339(10) 0.01096 362.0 15.6
353(10) 0.01027 362.0 15.6
366(10) 0.00930 362.1 15.7
376(10) 0.00911 362.1 15.7
377(10) 0.00950 362.1 15.7
358(10) 0.01028 362.1 15.7
392(11) 0.00888 362.1 15.7
391(11) 0.00898 362.1 15.6
388(11) 0.00899 362.2 15.6
361(10) 0.01002 362.2 15.5
355(10) 0.01046 362.2 15.4
395(11) 0.00882 362.2 15.3
349(10) 0.01019 362.2 15.2
366(10) 0.00973 362.2 15.1
408(11) 0.00866 362.3 14.9
394(10) 0.00940 362.3 14.7
362(10) 0.00975 362.3 14.6
362(10) 0.00927 362.3 14.4
356(10) 0.00997 362.3 14.2
372(10) 0.00962 362.3 14.0
386(10) 0.00972 362.4 13.8
369(10) 0.00951 362.4 13.6
379(11) 0.00859 362.4 13.4
368(10) 0.00963 362.4 13.2
342(10) 0.01074 362.4 13.1
367(10) 0.01006 362.4 12.9
347(10) 0.00980 362.5 12.8
379(11) 0.00874 362.5 12.6
379(10) 0.00966 362.5 12.5
384(10) 0.00964 362.5 12.4
333(9) 0.01130 362.5 12.3
347(10) 0.01007 362.5 12.3
358(10) 0.00931 362.6 12.3
359(10) 0.00971 362.6 12.3
374(10) 0.00991 362.6 12.3
348(10) 0.01059 362.6 12.4
368(10) 0.00943 362.6 12.4
394(11) 0.00816 362.7 12.5
369(10) 0.00954 362.7 12.6
392(10) 0.00951 362.7 12.7
363(10) 0.01009 362.7 12.9
350(10) 0.01017 362.7 13.1
350(10) 0.00926 362.7 13.3
358(10) 0.00938 362.8 13.5
348(10) 0.01069 362.8 13.7
368(10) 0.00980 362.8 13.9
377(10) 0.00940 362.8 14.2
375(11) 0.00901 362.8 14.4
385(11) 0.00906 362.8 14.7
387(10) 0.00957 362.9 15.0
362(10) 0.01005 362.9 15.3
358(10) 0.00985 362.9 15.6
390(11) 0.00854 362.9 15.9
398(11) 0.00859 362.9 16.2
369(10) 0.00995 362.9 16.6
368(10) 0.00976 363.0 17.0
369(10) 0.00924 363.0 17.6
367(10) 0.00952 363.0 18.3
369(10) 0.00976 363.0 19.2
332(9) 0.01114 363.0 20.5
379(11) 0.00903 363.0 22.3
397(11) 0.00833 363.1 24.6
356(10) 0.00988 363.1 27.8
378(10) 0.00953 363.1 31.8
398(10) 0.00929 363.1 36.7
398(11) 0.00892 363.1 42.6
385(11) 0.00864 363.1 49.4
386(11) 0.00889 363.2 56.7
411(11) 0.00874 363.2 64.1
403(10) 0.00916 363.2 70.8
391(11) 0.00895 363.2 75.8
399(11) 0.00853 363.2 78.1
417(11) 0.00835 363.3 77.0
406(11) 0.00887 363.3 73.0
398(10) 0.00929 363.3 66.7
394(11) 0.00864 363.3 59.3
407(11) 0.00821 363.3 51.6
382(10) 0.00938 363.3 44.3
377(10) 0.00978 363.4 37.8
392(10) 0.00950 363.4 32.2
390(11) 0.00897 363.4 27.7
379(11) 0.00844 363.4 24.1
380(10) 0.00911 363.4 21.4
395(10) 0.00938 363.4 19.4
365(10) 0.01028 363.5 18.0
356(10) 0.00973 363.5 17.2
367(11) 0.00881 363.5 16.8
377(10) 0.00927 363.5 16.7
361(10) 0.01029 363.5 17.0
368(10) 0.00992 363.5 17.5
371(10) 0.00955 363.6 18.3
377(11) 0.00883 363.6 19.3
387(11) 0.00901 363.6 20.7
362(10) 0.01024 363.6 22.3
395(10) 0.00925 363.6 24.1
407(11) 0.00841 363.6 26.2
406(11) 0.00788 363.7 28.5
422(11) 0.00810 363.7 31.0
413(11) 0.00898 363.7 33.7
405(10) 0.00908 363.7 36.3
383(11) 0.00903 363.7 38.8
422(11) 0.00802 363.7 41.1
423(11) 0.00819 363.8 43.0
408(10) 0.00914 363.8 44.3
411(11) 0.00845 363.8 44.9
387(11) 0.00896 363.8 44.9
365(10) 0.00943 363.8 44.2
380(10) 0.00914 363.8 43.1
370(10) 0.01011 363.9 41.6
405(11) 0.00861 363.9 40.0
368(10) 0.00922 363.9 38.4
416(11) 0.00786 363.9 36.8
392(11) 0.00889 363.9 35.4
398(10) 0.00931 364.0 34.2
374(10) 0.00944 364.0 33.2
367(11) 0.00900 364.0 32.5
402(11) 0.00814 364.0 32.0
403(11) 0.00878 364.0 31.7
383(10) 0.00959 364.0 31.7
379(11) 0.00883 364.1 31.8
408(11) 0.00820 364.1 32.0
368(10) 0.00963 364.1 32.3
394(10) 0.00915 364.1 32.7
405(10) 0.00915 364.1 33.0
383(10) 0.00913 364.1 33.4
391(11) 0.00861 364.2 33.8
393(11) 0.00866 364.2 34.0
385(10) 0.00929 364.2 34.0
395(10) 0.00934 364.2 33.9
366(10) 0.00959 364.2 33.6
370(10) 0.00916 364.2 33.2
386(11) 0.00893 364.3 32.6
387(10) 0.00947 364.3 31.9
386(10) 0.00966 364.3 31.0
380(11) 0.00899 364.3 30.1
375(11) 0.00853 364.3 29.0
371(10) 0.00966 364.3 27.9
369(10) 0.01009 364.4 26.8
381(10) 0.00968 364.4 25.6
368(10) 0.00951 364.4 24.5
352(10) 0.00947 364.4 23.3
354(10) 0.01009 364.4 22.2
391(10) 0.00956 364.4 21.1
387(10) 0.00936 364.5 20.0
372(10) 0.00947 364.5 19.0
375(11) 0.00879 364.5 18.1
380(11) 0.00887 364.5 17.2
365(10) 0.01022 364.5 16.3
376(10) 0.00960 364.6 15.5
362(10) 0.00918 364.6 14.8
379(11) 0.00875 364.6 14.2
367(10) 0.00953 364.6 13.6
390(10) 0.00954 364.6 13.1
402(11) 0.00897 364.6 12.6
392(11) 0.00895 364.7 12.2
358(10) 0.00972 364.7 11.8
359(10) 0.00970 364.7 11.5
375(10) 0.00984 364.7 11.2
374(10) 0.00913 364.7 11.0
327(10) 0.01096 364.7 10.8
389(11) 0.00868 364.8 10.7
356(10) 0.01010 364.8 10.5
333(9) 0.01109 364.8 10.5
349(10) 0.01005 364.8 10.4
364(10) 0.00917 364.8 10.4
338(10) 0.01006 364.8 10.5
345(10) 0.01032 364.9 10.5
347(10) 0.01067 364.9 10.6
358(10) 0.00945 364.9 10.7
358(10) 0.00946 364.9 10.8
355(10) 0.01003 364.9 10.9
369(10) 0.00969 364.9 11.1
350(10) 0.01068 365.0 11.3
347(10) 0.00995 365.0 11.4
375(11) 0.00860 365.0 11.6
359(10) 0.00990 365.0 11.8
368(10) 0.00985 365.0 12.0
370(10) 0.01005 365.0 12.2
365(10) 0.00947 365.1 12.4
361(11) 0.00897 365.1 12.5
352(10) 0.01040 365.1 12.7
356(10) 0.01044 365.1 12.9
385(10) 0.00959 365.1 13.0
386(11) 0.00899 365.1 13.1
382(11) 0.00845 365.2 13.2
391(11) 0.00843 365.2 13.3
364(10) 0.01007 365.1 13.3
370(10) 0.00971 365.1 13.3
375(10) 0.00948 365.0 13.3
381(11) 0.00862 364.9 13.2
336(10) 0.01060 364.9 13.2
372(10) 0.00991 364.8 13.1
349(10) 0.01054 364.8 12.9
358(10) 0.00985 364.7 12.8
388(11) 0.00830 364.7 12.6
365(10) 0.00962 364.6 12.4
367(10) 0.01013 364.6 12.2
358(10) 0.01022 364.5 12.0
348(10) 0.01014 364.4 11.8
372(10) 0.00910 364.4 11.6
380(10) 0.00917 364.3 11.4
344(10) 0.01084 364.3 11.2
380(10) 0.00910 364.2 11.0
341(10) 0.01016 364.2 10.8
359(10) 0.00917 364.1 10.7
373(10) 0.00931 364.0 10.5
383(10) 0.00973 364.0 10.3
335(10) 0.01102 363.9 10.2
360(10) 0.00961 363.9 10.1
340(10) 0.01013 363.8 10.0
361(10) 0.00949 363.8 9.9
401(10) 0.00929 363.7 9.8
366(10) 0.00972 363.7 9.7
348(10) 0.01010 363.6 9.7
371(10) 0.00908 363.5 9.7
364(10) 0.00950 363.5 9.7
352(10) 0.01061 363.4 9.8
384(11) 0.00903 363.4 9.8
386(11) 0.00879 363.3 9.9
380(11) 0.00897 363.3 10.0
368(10) 0.00978 363.2 10.2
363(10) 0.01014 363.1 10.4
372(10) 0.00958 363.1 10.6
365(11) 0.00896 363.0 10.8
373(10) 0.00930 363.0 11.2
374(10) 0.00985 362.9 11.5
346(10) 0.01055 362.9 12.0
343(10) 0.00988 362.8 12.5
397(11) 0.00783 362.7 13.2
393(11) 0.00906 362.7 13.9
379(10) 0.00978 362.6 14.8
391(10) 0.00912 362.6 15.9
372(10) 0.00952 362.5 17.2
392(11) 0.00805 362.5 18.9
396(11) 0.00862 362.4 20.9
398(10) 0.00929 362.4 23.4
406(10) 0.00909 362.3 26.5
372(10) 0.00970 362.2 30.2
414(11) 0.00773 362.2 34.6
434(11) 0.00809 362.1 39.7
447(11) 0.00830 362.1 45.5
418(11) 0.00889 362.0 52.3
450(11) 0.00801 362.0 60.6
493(12) 0.00669 361.9 71.6
448(11) 0.00793 361.8 87.1
461(11) 0.00813 361.8 108.8
544(12) 0.00655 361.7 138.1
511(12) 0.00705 361.7 174.7
611(14) 0.00533 361.6 216.4
682(14) 0.00506 361.6 258.5
679(14) 0.00543 361.5 292.5
681(14) 0.00529 361.5 308.8
673(14) 0.00503 361.4 301.1
573(13) 0.00584 361.3 272.0
554(13) 0.00639 361.3 230.7
537(12) 0.00694 361.2 186.4
525(12) 0.00670 361.2 145.3
475(12) 0.00735 361.1 111.1
483(12) 0.00711 361.1 84.7
457(11) 0.00761 361.0 65.8
421(11) 0.00888 360.9 52.9
423(11) 0.00835 360.9 44.7
424(11) 0.00808 360.8 39.6
412(11) 0.00855 360.8 36.5
419(11) 0.00877 360.7 34.6
401(10) 0.00925 360.7 33.6
393(11) 0.00890 360.6 33.0
427(11) 0.00759 360.6 32.8
378(10) 0.00922 360.5 32.8
387(10) 0.00914 360.4 33.1
374(10) 0.01000 360.4 33.4
370(11) 0.00895 360.3 34.0
367(10) 0.00910 360.3 34.6
382(11) 0.00895 360.2 35.3
385(10) 0.00948 360.2 36.1
388(10) 0.00946 360.1 36.9
388(10) 0.00917 360.0 37.8
395(11) 0.00835 360.0 38.8
361(10) 0.00976 359.9 39.7
367(10) 0.01001 359.9 40.6
402(10) 0.00916 359.8 41.6
390(11) 0.00894 359.8 42.5
395(11) 0.00805 359.7 43.4
390(11) 0.00878 359.7 44.2
398(10) 0.00920 359.6 44.9
387(10) 0.00953 359.5 45.6
362(10) 0.00961 359.5 46.2
395(11) 0.00793 359.4 46.7
387(11) 0.00899 359.4 47.0
396(10) 0.00943 359.3 47.3
403(10) 0.00918 359.3 47.5
389(10) 0.00917 359.2 47.5
396(11) 0.00819 359.1 47.4
390(11) 0.00875 359.1 47.2
366(10) 0.01004 359.0 47.0
389(10) 0.00932 359.0 46.6
378(10) 0.00912 358.9 46.2
366(11) 0.00896 358.9 45.7
386(11) 0.00873 358.8 45.1
383(10) 0.00958 358.8 44.5
380(10) 0.00963 358.7 43.9
407(11) 0.00848 358.6 43.3
407(11) 0.00834 358.6 42.7
411(11) 0.00833 358.5 42.1
404(10) 0.00918 358.5 41.6
413(11) 0.00836 358.4 41.2
404(11) 0.00808 358.4 40.8
378(10) 0.00907 358.3 40.5
401(11) 0.00889 358.2 40.3
355(10) 0.01047 358.2 40.3
375(10) 0.00920 358.1 40.4
406(11) 0.00827 358.1 40.7
402(11) 0.00877 358.0 41.2
410(11) 0.00875 358.0 42.0
394(10) 0.00947 357.9 43.0
394(11) 0.00897 357.9 44.3
405(11) 0.00826 357.8 45.9
377(10) 0.00932 357.7 47.9
426(11) 0.00855 357.7 50.2
402(10) 0.00918 357.6 52.9
427(11) 0.00835 357.6 56.0
452(12) 0.00726 357.5 59.5
412(11) 0.00835 357.5 63.3
426(11) 0.00871 357.4 67.5
457(11) 0.00810 357.3 72.1
461(12) 0.00727 357.3 76.9
443(12) 0.00748 357.2 81.9
486(12) 0.00708 357.2 86.9
472(11) 0.00769 357.1 91.9
491(11) 0.00758 357.1 96.8
500(12) 0.00686 357.0 101.2
503(13) 0.00625 357.0 105.0
487(12) 0.00705 356.9 107.9
503(12) 0.00736 356.8 109.9
499(12) 0.00738 356.8 110.7
475(12) 0.00741 356.7 110.3
501(13) 0.00618 356.7 108.8
503(12) 0.00694 356.6 106.2
481(11) 0.00766 356.6 102.9
477(11) 0.00775 356.5 98.8
478(12) 0.00717 356.4 94.3
460(12) 0.00722 356.4 89.6
460(12) 0.00753 356.3 84.8
462(11) 0.00799 356.3 80.1
430(11) 0.00868 356.2 75.5
432(11) 0.00808 356.2 71.1
444(12) 0.00749 356.1 67.0
443(11) 0.00780 356.1 63.2
416(11) 0.00885 356.0 59.7
386(10) 0.00933 355.9 56.6
443(12) 0.00746 355.9 53.8
418(11) 0.00758 355.8 51.3
419(11) 0.00801 355.8 49.1
387(10) 0.00959 355.7 47.2
392(11) 0.00901 355.7 45.6
418(11) 0.00821 355.6 44.2
427(11) 0.00807 355.5 43.0
451(11) 0.00760 355.5 42.1
399(10) 0.00925 355.4 41.3
403(10) 0.00908 355.4 40.7
423(11) 0.00798 355.3 40.3
425(11) 0.00794 355.3 40.0
417(11) 0.00832 355.2 39.9
434(11) 0.00856 355.2 39.9
418(11) 0.00815 355.1 40.2
403(11) 0.00844 355.0 40.6
402(11) 0.00835 355.0 41.4
406(11) 0.00870 354.9 42.4
417(11) 0.00892 354.9 43.8
395(11) 0.00875 354.8 45.7
384(11) 0.00884 354.8 48.1
417(11) 0.00844 354.7 51.0
447(11) 0.00812 354.6 54.7
430(11) 0.00864 354.6 59.1
436(11) 0.00806 354.5 64.2
443(11) 0.00758 354.5 70.2
449(11) 0.00801 354.4 77.1
455(11) 0.00818 354.4 84.7
428(11) 0.00861 354.3 93.1
496(12) 0.00684 354.2 102.1
482(12) 0.00657 354.2 111.4
497(12) 0.00708 354.1 120.7
504(12) 0.00732 354.1 129.5
536(12) 0.00700 354.0 137.3
519(12) 0.00694 354.0 143.5
519(13) 0.00628 353.9 147.5
568(13) 0.00599 353.9 148.7
538(12) 0.00686 353.8 147.1
565(12) 0.00654 353.7 142.8
553(13) 0.00637 353.7 136.1
526(13) 0.00637 353.6 127.6
502(12) 0.00704 353.6 118.0
509(12) 0.00733 353.5 107.8
475(11) 0.00763 353.5 97.5
457(11) 0.00767 353.4 87.5
437(11) 0.00779 353.3 78.0
435(11) 0.00806 353.3 69.2
411(11) 0.00906 353.2 61.3
439(11) 0.00839 353.2 54.1
412(11) 0.00835 353.1 47.8
413(11) 0.00785 353.1 42.3
366(10) 0.00936 353.0 37.6
387(10) 0.00966 353.0 33.6
363(10) 0.01010 352.9 30.1
371(10) 0.00969 352.8 27.2
387(11) 0.00895 352.8 24.8
386(11) 0.00902 352.7 22.7
382(10) 0.00967 352.7 21.0
359(10) 0.00990 352.6 19.5
337(10) 0.00997 352.6 18.3
391(11) 0.00830 352.5 17.2
362(10) 0.00969 352.4 16.2
332(9) 0.01119 352.4 15.4
351(10) 0.01011 352.3 14.6
373(10) 0.00931 352.3 14.0
382(11) 0.00884 352.2 13.3
329(9) 0.01109 352.2 12.8
362(10) 0.01032 352.1 12.3
346(10) 0.00958 352.1 11.8
376(11) 0.00879 352.0 11.4
391(11) 0.00872 351.9 11.0
358(10) 0.01019 351.9 10.6
367(10) 0.01015 351.8 10.3
362(10) 0.00980 351.8 10.0
377(11) 0.00889 351.7 9.7
357(10) 0.00994 351.7 9.5
352(10) 0.01038 351.6 9.2
355(10) 0.01048 351.5 9.0
366(10) 0.00926 351.5 8.9
338(10) 0.00962 351.4 8.7
353(10) 0.00969 351.4 8.6
366(10) 0.01011 351.3 8.5
366(10) 0.01024 351.3 8.4
397(11) 0.00873 351.2 8.3
373(11) 0.00849 351.2 8.2
351(10) 0.01015 351.1 8.2
376(10) 0.00984 351.0 8.2
363(10) 0.01022 351.0 8.2
348(10) 0.01002 350.9 8.2
372(11) 0.00861 350.9 8.2
361(10) 0.00966 350.8 8.2
364(10) 0.01018 350.8 8.3
350(10) 0.01044 350.7 8.3
358(10) 0.01000 350.6 8.4
366(10) 0.00907 350.6 8.5
339(10) 0.01041 350.5 8.5
339(10) 0.01101 350.5 8.6
355(10) 0.01002 350.4 8.6
377(11) 0.00896 350.4 8.7
380(11) 0.00856 350.3 8.7
352(10) 0.01008 350.3 8.7
376(10) 0.00991 350.2 8.7
325(9) 0.01110 350.1 8.7
352(10) 0.00977 350.1 8.7
339(10) 0.00990 350.0 8.6
325(10) 0.01059 350.0 8.6
332(9) 0.01118 349.9 8.5
345(10) 0.01051 349.9 8.4
353(10) 0.01016 349.8 8.3
355(10) 0.00948 349.7 8.2
338(10) 0.01066 349.7 8.0
354(10) 0.01044 349.6 7.9
326(10) 0.01075 349.6 7.7
348(10) 0.00948 349.5 7.5
346(10) 0.01010 349.5 7.3
346(10) 0.01025 349.4 7.2
323(9) 0.01153 349.4 7.0
356(10) 0.00990 349.3 6.8
375(10) 0.00915 349.2 6.6
398(11) 0.00866 349.2 6.4
362(10) 0.01020 349.1 6.2
366(10) 0.00998 349.1 6.0
366(10) 0.00934 349.0 5.9
334(10) 0.00981 349.0 5.7
350(10) 0.00967 348.9 5.5
378(10) 0.00978 348.8 5.4
357(10) 0.01038 348.8 5.2
326(10) 0.01093 348.7 5.1
348(10) 0.00928 348.7 4.9
358(10) 0.00961 348.6 4.8
368(10) 0.01025 348.6 4.7
359(10) 0.01012 348.5 4.6
344(10) 0.01017 348.5 4.4
331(10) 0.00959 348.4 4.3
345(10) 0.01011 348.3 4.2
347(10) 0.01068 348.3 4.1
340(10) 0.01066 348.2 4.1
335(10) 0.01009 348.2 4.0
320(10) 0.01006 348.1 3.9
345(10) 0.00994 348.1 3.8
376(10) 0.00991 348.0 3.8
369(10) 0.01007 347.9 3.7
351(10) 0.00963 347.9 3.6
326(10) 0.00982 347.8 3.6
349(10) 0.00981 347.8 3.5
353(10) 0.01057 347.7 3.5
338(10) 0.01084 347.7 3.4
361(10) 0.00985 347.6 3.4
338(10) 0.01009 347.6 3.4
346(10) 0.00967 347.5 3.3
357(10) 0.01034 347.4 3.3
324(10) 0.01107 347.4 3.3
353(10) 0.00953 347.3 3.2
331(10) 0.01018 347.3 3.2
337(10) 0.01015 347.2 3.2
346(10) 0.01065 347.2 3.2
353(10) 0.01007 347.1 3.1
344(10) 0.00988 347.0 3.1
341(10) 0.00992 347.0 3.1
342(10) 0.01049 346.9 3.1
351(10) 0.01055 346.9 3.1
348(10) 0.00997 346.8 3.1
339(10) 0.00995 346.8 3.1
346(10) 0.00960 346.7 3.0
347(10) 0.01007 346.6 3.0
339(10) 0.01107 346.6 3.0
334(10) 0.01061 346.5 3.0
355(10) 0.00933 346.5 3.0
369(10) 0.00928 346.5 3.0
343(10) 0.01036 346.5 3.0
315(9) 0.01181 346.5 3.0
333(10) 0.01054 346.5 3.0
349(10) 0.01001 346.5 3.0
365(10) 0.00943 346.5 3.0
346(10) 0.01056 346.5 3.0
337(9) 0.01114 346.5 3.0
316(10) 0.01095 346.5 3.0
325(10) 0.01007 346.5 3.0
336(10) 0.01019 346.5 3.1
321(9) 0.01129 346.5 3.1
343(10) 0.01078 346.5 3.1
351(10) 0.01004 346.5 3.1
343(10) 0.00966 346.5 3.1
371(10) 0.00915 346.5 3.1
365(10) 0.01016 346.5 3.1
345(10) 0.01087 346.5 3.1
356(10) 0.00967 346.5 3.2
361(11) 0.00905 346.5 3.2
359(10) 0.00941 346.5 3.2
332(9) 0.01123 346.5 3.2
370(10) 0.00986 346.5 3.2
341(10) 0.01026 346.5 3.3
365(11) 0.00895 346.5 3.3
370(10) 0.00929 346.5 3.3
361(10) 0.01016 346.5 3.3
378(10) 0.00976 346.5 3.4
362(10) 0.00978 346.4 3.4
358(10) 0.00941 346.4 3.4
330(10) 0.01066 346.4 3.5
337(10) 0.01106 346.4 3.5
329(9) 0.01119 346.4 3.6
349(10) 0.00980 346.4 3.6
334(10) 0.01002 346.4 3.6
350(10) 0.00978 346.4 3.7
372(10) 0.01005 346.4 3.7
346(10) 0.01009 346.4 3.8
354(10) 0.00953 346.4 3.8
348(10) 0.01014 346.4 3.9
341(10) 0.01036 346.4 4.0
324(9) 0.01148 346.4 4.0
350(10) 0.01004 346.4 4.1
345(10) 0.00995 346.4 4.1
355(10) 0.00966 346.4 4.2
369(10) 0.00969 346.4 4.3
359(10) 0.01030 346.4 4.4
350(10) 0.01012 346.4 4.5
355(10) 0.00960 346.4 4.5
325(10) 0.01073 346.4 4.6
365(10) 0.00978 346.4 4.7
338(10) 0.01091 346.4 4.8
359(10) 0.00951 346.4 4.9
365(10) 0.00911 346.4 5.1
339(10) 0.01011 346.4 5.2
345(10) 0.01067 346.4 5.3
337(10) 0.01106 346.4 5.4
341(10) 0.01038 346.4 5.6
347(10) 0.00964 346.4 5.7
348(10) 0.01015 346.4 5.9
364(10) 0.01008 346.4 6.1
343(10) 0.01087 346.4 6.2
335(10) 0.01048 346.4 6.4
351(10) 0.00922 346.4 6.6
361(10) 0.00956 346.4 6.9
374(10) 0.00986 346.4 7.1
346(10) 0.01063 346.4 7.3
339(10) 0.01025 346.4 7.6
347(10) 0.00935 346.4 7.9
355(10) 0.00966 346.4 8.2
361(10) 0.01031 346.4 8.6
359(10) 0.01035 346.4 8.9
372(11) 0.00901 346.4 9.3
343(10) 0.00954 346.4 9.8
356(10) 0.00950 346.4 10.2
347(10) 0.01069 346.4 10.7
376(10) 0.00983 346.4 11.3
353(10) 0.00993 346.4 11.8
355(10) 0.00920 346.4 12.5
342(10) 0.01032 346.4 13.1
360(10) 0.01031 346.4 13.9
368(10) 0.00988 346.4 14.7
360(10) 0.00941 346.4 15.5
343(10) 0.00971 346.4 16.4
350(10) 0.00967 346.4 17.4
389(10) 0.00954 346.4 18.4
361(10) 0.01008 346.4 19.5
366(10) 0.00954 346.4 20.7
384(11) 0.00866 346.4 21.9
347(10) 0.01012 346.4 23.2
374(10) 0.00983 346.4 24.6
389(10) 0.00913 346.4 26.0
368(10) 0.00948 346.4 27.5
358(10) 0.00919 346.4 29.1
348(10) 0.00978 346.4 30.7
359(10) 0.01040 346.4 32.4
350(10) 0.01012 346.4 34.2
368(11) 0.00903 346.4 36.0
374(10) 0.00917 346.4 37.8
390(10) 0.00934 346.3 39.6
393(10) 0.00935 346.3 41.5
418(11) 0.00844 346.3 43.3
398(11) 0.00847 346.3 45.2
367(10) 0.00966 346.3 47.0
393(10) 0.00924 346.3 48.7
382(10) 0.00969 346.3 50.4
421(11) 0.00801 346.3 51.9
425(12) 0.00754 346.3 53.3
395(11) 0.00894 346.3 54.6
380(10) 0.00969 346.3 55.7
415(11) 0.00893 346.3 56.6
404(11) 0.00886 346.3 57.3
417(11) 0.00776 346.3 57.7
401(11) 0.00857 346.3 57.9
408(11) 0.00902 346.3 57.9
404(10) 0.00923 346.3 57.6
391(11) 0.00897 346.3 57.1
378(11) 0.00873 346.3 56.4
376(10) 0.00966 346.3 55.4
401(10) 0.00927 346.3 54.3
394(10) 0.00936 346.3 53.0
384(10) 0.00909 346.3 51.5
392(11) 0.00836 346.3 50.0
397(11) 0.00878 346.3 48.3
376(10) 0.00975 346.3 46.6
371(10) 0.00983 346.3 44.8
383(11) 0.00899 346.3 43.1
388(11) 0.00851 346.3 41.2
366(10) 0.00923 346.3 39.4
389(10) 0.00943 346.3 37.5
362(10) 0.01014 346.3 35.7
378(11) 0.00906 346.3 34.0
364(10) 0.00915 346.3 32.2
352(10) 0.00987 346.3 30.6
374(10) 0.00997 346.3 28.9
354(10) 0.01012 346.3 27.4
361(10) 0.00941 346.3 25.9
338(10) 0.00999 346.3 24.5
335(10) 0.01074 346.3 23.1
356(10) 0.01050 346.3 21.8
348(10) 0.01028 346.3 20.6
362(11) 0.00898 346.3 19.4
376(11) 0.00860 346.3 18.3
340(10) 0.01024 346.3 17.3
377(10) 0.00981 346.3 16.4
377(10) 0.00949 346.3 15.5
379(11) 0.00902 346.3 14.6
346(10) 0.01050 346.3 13.9
372(10) 0.00957 346.3 13.1
374(10) 0.00994 346.3 12.5
382(11) 0.00897 346.3 11.9
344(10) 0.00971 346.3 11.3
330(10) 0.01057 346.3 10.8
373(10) 0.00949 346.3 10.3
357(10) 0.01040 346.3 9.9
343(10) 0.01017 346.3 9.5
369(11) 0.00892 346.3 9.1
375(11) 0.00903 346.3 8.8
341(10) 0.01062 346.3 8.5
341(10) 0.01088 346.3 8.2
340(10) 0.01017 346.3 7.9
341(10) 0.00925 346.3 7.7
348(10) 0.00996 346.3 7.5
346(10) 0.01049 346.3 7.3
379(10) 0.00977 346.3 7.2
376(10) 0.00963 346.3 7.0
376(11) 0.00848 346.3 6.9
367(11) 0.00894 346.3 6.8
345(10) 0.01063 346.3 6.7
345(10) 0.01062 346.3 6.6
329(10) 0.01098 346.3 6.5
351(11) 0.00902 346.2 6.5
351(10) 0.00972 346.2 6.4
358(10) 0.01044 346.2 6.4
367(10) 0.00978 346.2 6.4
363(10) 0.00970 346.2 6.4
366(11) 0.00897 346.2 6.4
367(10) 0.00944 346.2 6.4
341(10) 0.01088 346.2 6.4
346(10) 0.01023 346.2 6.5
376(10) 0.00909 346.2 6.5
349(10) 0.00966 346.2 6.6
343(10) 0.01013 346.2 6.7
379(10) 0.00982 346.2 6.8
359(10) 0.01016 346.2 7.0
345(10) 0.01000 346.2 7.1
346(10) 0.00968 346.2 7.3
368(10) 0.00943 346.2 7.6
358(10) 0.01042 346.2 7.9
329(10) 0.01078 346.2 8.2
339(10) 0.01036 346.2 8.5
355(10) 0.00981 346.2 8.9
361(10) 0.00969 346.2 9.4
360(10) 0.01036 346.2 9.9
363(10) 0.00969 346.2 10.5
323(10) 0.01101 346.2 11.2
376(11) 0.00869 346.2 12.0
368(10) 0.00983 346.2 12.9
369(10) 0.00989 346.2 14.0
357(10) 0.00965 346.2 15.3
369(11) 0.00905 346.2 17.0
361(10) 0.00956 346.2 19.4
401(11) 0.00887 346.2 22.9
366(10) 0.01006 346.2 28.3
399(11) 0.00861 346.2 36.4
402(11) 0.00838 346.2 48.2
423(11) 0.00846 346.2 63.9
461(11) 0.00774 346.2 83.1
481(11) 0.00772 346.2 103.8
484(12) 0.00706 346.2 122.2
488(12) 0.00668 346.2 133.1
480(12) 0.00746 346.2 132.3
449(11) 0.00814 346.2 120.6
453(11) 0.00827 346.2 102.8
409(11) 0.00858 346.2 83.7
405(11) 0.00791 346.2 66.7
450(12) 0.00750 346.2 53.3
385(10) 0.00973 346.2 43.8
395(10) 0.00930 346.2 37.4
410(11) 0.00864 346.2 33.5
392(11) 0.00817 346.2 31.0
379(10) 0.00945 346.2 29.3
396(10) 0.00930 346.2 28.0
371(10) 0.01008 346.2 26.9
388(10) 0.00913 346.2 25.7
387(11) 0.00841 346.2 24.4
368(10) 0.00949 346.2 23.1
361(10) 0.01021 346.2 21.8
362(10) 0.01016 346.2 20.5
369(10) 0.00929 346.2 19.3
351(10) 0.00953 346.2 18.1
371(11) 0.00900 346.2 16.9
374(10) 0.00992 346.2 15.9
355(10) 0.01014 346.2 14.9
375(10) 0.00918 346.2 14.0
394(11) 0.00850 346.2 13.1
361(10) 0.00949 346.2 12.3
331(9) 0.01123 346.2 11.6
354(10) 0.00996 346.2 10.9
356(10) 0.00956 346.2 10.3
342(10) 0.01000 346.2 9.7
352(10) 0.00997 346.2 9.2
352(10) 0.01052 346.1 8.7
338(10) 0.01047 346.1 8.3
335(10) 0.01062 346.1 7.9
383(11) 0.00874 346.1 7.6
353(10) 0.00998 346.1 7.2
325(9) 0.01160 346.1 7.0
366(10) 0.00946 346.1 6.7
364(10) 0.00912 346.1 6.5
332(10) 0.01034 346.1 6.3
335(10) 0.01056 346.1 6.1
359(10) 0.01038 346.1 5.9
331(10) 0.00999 346.1 5.8
320(10) 0.01045 346.1 5.7
352(10) 0.00966 346.1 5.5
362(10) 0.00986 346.1 5.4
357(10) 0.01035 346.1 5.4
348(10) 0.01016 346.1 5.3
355(10) 0.00958 346.1 5.2
331(10) 0.01053 346.1 5.2
340(10) 0.01077 346.1 5.1
373(10) 0.00997 346.1 5.1
339(10) 0.01003 346.1 5.0
351(10) 0.00926 346.1 5.0
385(11) 0.00854 346.1 5.0
355(10) 0.01031 346.1 5.0
357(10) 0.01040 346.1 5.0
345(10) 0.00984 346.1 5.0
353(11) 0.00869 346.1 5.0
352(10) 0.01010 346.1 5.0
342(10) 0.01073 346.1 5.0
358(10) 0.01035 346.1 5.0
338(10) 0.01024 346.1 5.1
352(11) 0.00902 346.1 5.1
327(10) 0.01067 346.1 5.2
350(10) 0.01067 346.1 5.2
356(10) 0.01040 346.1 5.3
366(10) 0.00960 346.1 5.4
364(11) 0.00905 346.1 5.5
344(10) 0.01039 346.1 5.6
337(10) 0.01104 346.1 5.8
370(10) 0.00943 346.1 5.9
341(10) 0.01024 346.1 6.1
358(10) 0.00924 346.1 6.3
351(10) 0.00979 346.1 6.6
345(10) 0.01071 346.1 7.0
341(10) 0.01064 346.1 7.4
343(10) 0.01035 346.1 8.0
358(10) 0.00952 346.1 8.6
377(11) 0.00902 346.1 9.3
327(9) 0.01133 346.1 10.2
340(10) 0.01045 346.1 11.2
372(10) 0.00933 346.1 12.2
365(10) 0.00922 346.1 13.4
362(10) 0.00957 346.1 14.5
363(10) 0.01037 346.1 15.5
353(10) 0.00989 346.1 16.4
375(10) 0.00918 346.1 17.0
382(11) 0.00865 346.1 17.3
354(10) 0.01005 346.1 17.3
378(10) 0.00982 346.1 17.0
371(11) 0.00901 346.1 16.4
360(10) 0.00940 346.1 15.8
351(10) 0.01001 346.1 15.2
355(10) 0.01041 346.1 14.6
355(10) 0.01037 346.1 14.1
370(10) 0.00946 346.1 13.8
384(11) 0.00853 346.1 13.5
357(10) 0.01004 346.1 13.3
362(10) 0.00990 346.1 13.3
373(10) 0.01003 346.1 13.3
349(10) 0.01013 346.1 13.4
352(10) 0.00920 346.0 13.6
342(10) 0.01006 346.0 13.9
361(10) 0.01009 346.0 14.2
356(10) 0.01036 346.0 14.5
375(10) 0.00941 346.0 14.9
384(11) 0.00856 346.0 15.3
379(10) 0.00907 346.0 15.7
363(10) 0.01013 346.0 16.1
374(10) 0.01001 346.0 16.5
353(10) 0.00957 346.0 16.9
373(11) 0.00824 346.0 17.3
328(10) 0.01078 346.0 17.7
369(10) 0.00999 346.0 17.9
370(10) 0.00986 346.0 18.1
375(11) 0.00901 346.0 18.2
362(11) 0.00891 346.0 18.2
365(10) 0.00967 346.0 18.1
340(10) 0.01098 346.0 17.9
363(10) 0.01014 346.0 17.7
361(10) 0.00957 346.0 17.6
348(10) 0.00964 346.0 17.4
359(10) 0.00974 346.0 17.3
388(10) 0.00959 346.0 17.2
378(10) 0.00945 346.0 17.1
358(10) 0.00967 346.0 17.0
355(10) 0.00955 346.0 17.0
375(10) 0.00936 346.0 17.0
357(10) 0.01047 346.0 17.1
347(10) 0.01058 346.0 17.1
381(11) 0.00875 346.0 17.2
357(10) 0.00936 346.0 17.4
332(10) 0.01072 346.0 17.6
350(10) 0.01051 346.0 17.8
359(10) 0.00985 346.0 18.0
376(11) 0.00893 346.0 18.3
374(10) 0.00935 346.0 18.6
338(10) 0.01038 346.0 19.0
336(10) 0.01099 346.0 19.4
371(10) 0.00917 346.0 19.9
367(10) 0.00910 346.0 20.4
362(10) 0.00939 346.0 21.1
356(10) 0.01021 346.0 21.8
380(10) 0.00977 346.0 22.8
376(10) 0.00911 346.0 24.2
379(11) 0.00874 346.0 26.2
392(11) 0.00888 346.0 29.3
401(10) 0.00909 346.0 33.8
385(10) 0.00964 346.0 40.2
388(11) 0.00877 346.0 48.6
435(11) 0.00762 346.0 58.4
425(11) 0.00824 346.0 68.4
409(11) 0.00900 346.0 76.5
409(10) 0.00911 346.0 80.1
397(11) 0.00864 346.0 78.1
435(12) 0.00720 346.0 72.0
418(11) 0.00854 346.0 64.2
394(10) 0.00937 346.0 56.9
411(11) 0.00895 346.0 51.2
379(10) 0.00946 346.0 47.7
400(11) 0.00805 346.0 46.2
443(12) 0.00749 346.0 46.1
393(10) 0.00942 346.0 47.0
391(10) 0.00937 346.0 48.4
417(11) 0.00825 346.0 49.9
406(11) 0.00801 346.0 51.2
407(11) 0.00852 346.0 52.2
410(10) 0.00910 346.0 53.0
401(11) 0.00900 346.0 53.4
416(11) 0.00818 346.0 53.6
408(11) 0.00814 346.0 53.6
412(11) 0.00850 346.0 53.3
408(10) 0.00916 346.0 52.8
386(10) 0.00922 345.9 52.1
435(11) 0.00771 345.9 51.3
392(11) 0.00856 345.9 50.2
432(11) 0.00774 345.9 49.0
410(11) 0.00901 345.9 47.7
430(11) 0.00833 345.9 46.2
391(11) 0.00862 345.9 44.6
387(11) 0.00884 345.9 43.1
374(10) 0.00936 345.9 41.5
393(10) 0.00942 345.9 40.0
425(11) 0.00828 345.9 38.7
392(11) 0.00858 345.9 37.5
381(11) 0.00885 345.9 36.6
380(10) 0.00920 345.9 36.1
379(10) 0.00989 345.9 35.9
388(10) 0.00914 345.9 36.3
388(11) 0.00886 345.9 37.2
386(11) 0.00896 345.9 38.8
416(11) 0.00808 345.9 41.0
367(10) 0.01003 345.9 43.8
381(10) 0.00931 345.9 47.0
388(11) 0.00859 345.9 50.4
380(11) 0.00898 345.9 53.4
383(10) 0.00940 345.9 55.6
398(10) 0.00925 345.9 56.2
374(10) 0.00930 345.9 55.0
377(11) 0.00865 345.9 52.1
366(10) 0.00955 345.9 48.1
388(10) 0.00951 345.9 43.6
373(10) 0.00988 345.9 39.1
353(10) 0.00991 345.9 35.0
375(11) 0.00857 345.9 31.3
359(10) 0.00963 345.9 28.2
360(10) 0.01042 345.9 25.7
359(10) 0.01025 345.9 23.6
363(10) 0.00941 345.9 22.0
340(10) 0.00946 345.9 20.8
357(10) 0.00978 345.9 19.9
350(10) 0.01061 345.9 19.1
363(10) 0.01002 345.9 18.6
374(10) 0.00916 345.9 18.1
377(11) 0.00879 345.9 17.7
376(11) 0.00896 345.9 17.4
364(10) 0.01010 345.9 17.1
377(10) 0.00971 345.9 16.9
356(10) 0.00976 345.9 16.7
364(10) 0.00907 345.9 16.6
373(10) 0.00933 345.9 16.5
357(10) 0.01038 345.9 16.5
369(10) 0.01002 345.9 16.5
349(10) 0.00999 345.9 16.6
345(10) 0.00978 345.9 16.8
373(10) 0.00922 345.9 17.1
356(10) 0.01039 345.9 17.6
382(10) 0.00925 345.9 18.4
372(10) 0.00915 345.9 19.6
376(11) 0.00852 345.9 21.3
353(10) 0.00986 345.9 23.7
378(10) 0.00982 345.9 26.8
388(11) 0.00889 345.9 30.7
391(11) 0.00873 345.9 35.2
393(11) 0.00890 345.9 40.0
372(10) 0.00936 345.9 44.7
402(10) 0.00925 345.9 48.5
396(11) 0.00878 345.9 50.4
395(11) 0.00855 345.9 49.9
364(10) 0.00993 345.9 47.2
364(10) 0.00986 345.9 43.1
368(10) 0.01013 345.9 38.4
383(11) 0.00887 345.9 34.0
378(10) 0.00908 345.9 30.0
379(10) 0.00910 345.8 26.7
362(10) 0.00972 345.8 24.3
364(10) 0.01020 345.8 22.5
381(11) 0.00901 345.8 21.3
371(11) 0.00864 345.8 20.5
355(10) 0.00925 345.8 20.1
383(10) 0.00940 345.8 20.0
365(10) 0.01035 345.8 20.0
352(10) 0.00982 345.8 20.1
396(11) 0.00827 345.8 20.3
352(10) 0.01015 345.8 20.6
365(10) 0.01005 345.8 20.9
365(10) 0.01020 345.8 21.2
365(10) 0.00949 345.8 21.6
351(10) 0.00915 345.8 22.0
376(10) 0.00926 345.8 22.4
364(10) 0.01026 345.8 22.8
346(10) 0.01052 345.8 23.2
343(10) 0.01002 345.8 23.6
365(11) 0.00903 345.8 24.0
377(10) 0.00917 345.8 24.4
395(10) 0.00922 345.8 24.8
408(11) 0.00887 345.8 25.2
375(10) 0.00933 345.8 25.5
349(10) 0.00942 345.8 25.8
374(11) 0.00895 345.8 26.1
398(10) 0.00912 345.8 26.3
380(10) 0.00965 345.8 26.5
395(11) 0.00891 345.8 26.7
375(11) 0.00863 345.8 26.9
357(10) 0.00980 345.8 27.0
360(10) 0.01021 345.8 27.2
355(10) 0.01018 345.8 27.3
359(10) 0.00952 345.8 27.4
366(10) 0.00951 345.8 27.4
360(10) 0.00957 345.8 27.5
357(10) 0.01037 345.8 27.6
376(10) 0.00964 345.8 27.6
361(10) 0.00972 345.8 27.7
375(10) 0.00910 345.8 27.7
371(10) 0.00935 345.8 27.8
345(10) 0.01079 345.8 27.8
382(11) 0.00906 345.8 27.9
372(11) 0.00906 345.8 27.9
335(10) 0.01044 345.8 27.9
356(10) 0.01001 345.8 28.0
375(10) 0.00989 345.8 28.0
385(10) 0.00911 345.8 28.0
389(11) 0.00848 345.8 28.0
373(10) 0.00943 345.8 28.0
376(10) 0.00980 345.8 28.0
371(10) 0.00995 345.8 27.9
369(10) 0.00949 345.8 27.9
393(11) 0.00834 345.8 27.9
385(11) 0.00900 345.8 27.9
375(10) 0.00985 345.8 27.9
367(10) 0.01014 345.8 27.8
362(10) 0.00928 345.8 27.8
392(11) 0.00814 345.8 27.8
386(11) 0.00876 345.8 27.8
362(10) 0.01008 345.8 27.8
375(10) 0.00995 345.8 27.8
351(10) 0.00976 345.8 27.8
360(11) 0.00895 345.8 27.9
365(10) 0.00932 345.8 27.9
379(10) 0.00987 345.8 28.0
362(10) 0.01008 345.8 28.1
335(10) 0.01048 345.8 28.2
343(11) 0.00879 345.8 28.3
386(11) 0.00890 345.8 28.5
373(10) 0.00980 345.8 28.6
371(10) 0.01002 345.7 28.8
372(10) 0.00950 345.7 29.0
378(11) 0.00844 345.7 29.3
390(11) 0.00877 345.7 29.5
372(10) 0.00996 345.7 29.8
390(11) 0.00896 345.7 30.1
399(11) 0.00874 345.7 30.5
374(11) 0.00890 345.7 30.9
367(10) 0.00957 345.7 31.3
371(10) 0.00991 345.7 31.7
359(10) 0.00993 345.7 32.2
378(11) 0.00900 345.7 32.6
360(10) 0.00924 345.7 33.1
366(10) 0.00933 345.7 33.7
419(11) 0.00883 345.7 34.2
377(10) 0.00946 345.7 34.7
369(10) 0.00922 345.7 35.2
392(11) 0.00867 345.7 35.7
406(11) 0.00874 345.7 36.2
387(10) 0.00971 345.7 36.6
391(11) 0.00878 345.7 37.0
386(11) 0.00849 345.7 37.2
378(10) 0.00915 345.7 37.4
400(11) 0.00904 345.7 37.4
409(10) 0.00916 345.7 37.2
378(10) 0.00940 345.7 36.9
375(10) 0.00932 345.7 36.4
367(10) 0.00965 345.7 35.8
404(11) 0.00890 345.7 35.1
377(10) 0.00973 345.7 34.3
380(11) 0.00880 345.7 33.5
384(11) 0.00861 345.7 32.6
374(10) 0.00924 345.7 31.7
376(10) 0.00970 345.7 30.8
394(10) 0.00938 345.7 29.9
357(10) 0.00960 345.7 29.1
355(10) 0.00922 345.7 28.3
339(10) 0.01017 345.7 27.6
384(10) 0.00937 345.7 27.0
354(10) 0.01069 345.7 26.4
374(10) 0.00930 345.7 25.9
363(11) 0.00888 345.7 25.5
358(10) 0.00988 345.7 25.1
376(10) 0.00978 345.7 24.8
362(10) 0.01029 345.7 24.6
405(11) 0.00834 345.7 24.4
393(11) 0.00823 345.7 24.3
369(10) 0.00958 345.7 24.2
383(10) 0.00963 345.7 24.2
350(10) 0.01060 345.7 24.2
364(10) 0.00960 345.7 24.3
361(10) 0.00920 345.7 24.3
370(10) 0.00940 345.7 24.4
348(10) 0.01068 345.7 24.5
393(10) 0.00924 345.7 24.7
366(10) 0.00993 345.7 24.8
394(11) 0.00836 345.7 24.9
388(11) 0.00906 345.7 25.1
394(10) 0.00937 345.7 25.3
349(10) 0.01059 345.7 25.4
380(11) 0.00897 345.7 25.6
372(10) 0.00908 345.7 25.8
378(10) 0.00928 345.7 26.0
370(10) 0.01008 345.7 26.2
365(10) 0.00946 345.7 26.4
380(10) 0.00932 345.7 26.6
370(10) 0.00956 345.7 26.9
349(10) 0.01040 345.7 27.2
371(10) 0.00994 345.7 27.5
381(11) 0.00906 345.7 27.8
392(11) 0.00865 345.7 28.1
383(10) 0.00914 345.7 28.4
396(11) 0.00902 345.6 28.8
379(10) 0.00978 345.6 29.1
368(10) 0.00923 345.6 29.5
365(10) 0.00960 345.6 29.8
398(11) 0.00853 345.6 30.2
394(11) 0.00903 345.6 30.5
371(10) 0.01008 345.6 30.9
392(11) 0.00896 345.6 31.2
370(11) 0.00891 345.6 31.5
417(11) 0.00789 345.6 31.8
409(11) 0.00870 345.6 32.1
382(10) 0.00966 345.6 32.3
384(11) 0.00878 345.6 32.6
402(11) 0.00797 345.6 32.8
391(11) 0.00865 345.6 33.0
388(10) 0.00947 345.6 33.1
369(10) 0.01016 345.6 33.3
376(10) 0.00928 345.6 33.4
394(11) 0.00829 345.6 33.5
385(10) 0.00939 345.6 33.6
398(10) 0.00918 345.6 33.7
385(10) 0.00966 345.6 33.8
355(10) 0.01029 345.6 33.9
376(11) 0.00873 345.6 34.0
387(10) 0.00926 345.6 34.1
387(10) 0.00953 345.6 34.3
354(10) 0.01059 345.6 34.5
379(11) 0.00889 345.6 34.7
352(10) 0.00948 345.6 35.0
379(10) 0.00934 345.6 35.4
404(10) 0.00930 345.6 35.9
392(10) 0.00924 345.6 36.5
387(11) 0.00884 345.6 37.2
413(11) 0.00788 345.6 38.2
375(10) 0.00926 345.6 39.3
395(10) 0.00956 345.6 40.7
370(10) 0.00987 345.6 42.3
401(11) 0.00852 345.6 44.2
397(11) 0.00864 345.6 46.4
396(11) 0.00868 345.6 48.9
403(10) 0.00921 345.6 51.7
388(10) 0.00930 345.6 54.7
404(11) 0.00850 345.6 58.0
395(11) 0.00857 345.6 61.5
407(11) 0.00844 345.6 65.2
402(10) 0.00926 345.6 68.8
384(10) 0.00948 345.6 72.3
434(11) 0.00782 345.6 75.5
431(11) 0.00791 345.6 78.2
441(11) 0.00784 345.6 80.2
430(11) 0.00864 345.6 81.1
430(11) 0.00834 345.6 80.9
441(11) 0.00778 345.6 79.6
447(11) 0.00767 345.6 77.2
401(11) 0.00905 345.6 73.9
398(10) 0.00939 345.6 69.9
394(11) 0.00881 345.6 65.5
397(11) 0.00881 345.6 60.9
385(11) 0.00893 345.6 56.4
367(10) 0.00984 345.6 52.0
362(10) 0.01023 345.6 47.8
350(10) 0.01008 345.6 43.9
385(11) 0.00893 345.6 40.4
383(10) 0.00943 345.6 37.2
373(10) 0.00988 345.6 34.3
371(10) 0.01011 345.6 31.9
362(10) 0.00942 345.6 29.7
403(11) 0.00774 345.6 27.9
380(10) 0.00947 345.6 26.3
348(10) 0.01065 345.6 25.0
378(10) 0.00968 345.6 23.9
366(10) 0.00973 345.5 23.0
352(10) 0.00938 345.5 22.2
364(10) 0.00969 345.5 21.5
365(10) 0.00997 345.5 21.0
351(10) 0.01043 345.5 20.5
357(10) 0.00989 345.5 20.1
386(11) 0.00854 345.5 19.8
368(10) 0.00977 345.5 19.5
368(10) 0.01013 345.5 19.3
378(10) 0.00965 345.5 19.1
334(10) 0.01066 345.5 19.0
332(10) 0.00979 345.5 18.8
373(10) 0.00927 345.5 18.7
392(10) 0.00945 345.5 18.6
366(10) 0.00982 345.5 18.6
370(10) 0.00939 345.5 18.5
350(10) 0.00975 345.5 18.5
358(10) 0.00942 345.5 18.4
359(10) 0.01025 345.5 18.4
338(10) 0.01065 345.5 18.4
364(10) 0.00939 345.5 18.4
360(10) 0.00945 345.5 18.4
356(10) 0.00995 345.5 18.4
358(10) 0.01031 345.5 18.4
349(10) 0.01007 345.5 18.4
368(10) 0.00920 345.5 18.4
357(10) 0.00976 345.5 18.4
347(10) 0.01023 345.5 18.3
366(10) 0.01020 345.5 18.3
358(10) 0.00982 345.5 18.3
334(10) 0.00994 345.5 18.2
336(10) 0.01041 345.5 18.2
338(10) 0.01074 345.5 18.1
333(9) 0.01109 345.5 18.0
360(10) 0.00980 345.5 17.9
357(10) 0.00946 345.5 17.8
360(10) 0.00975 345.5 17.6
366(10) 0.01005 345.5 17.5
367(10) 0.01008 345.5 17.3
370(10) 0.00942 345.5 17.2
374(11) 0.00868 345.5 17.0
377(10) 0.00916 345.5 16.9
364(10) 0.01006 345.5 16.7
352(10) 0.01049 345.5 16.5
362(10) 0.00950 345.5 16.4
360(11) 0.00896 345.5 16.2
345(10) 0.01005 345.5 16.0
369(10) 0.00989 345.5 15.8
361(10) 0.01024 345.5 15.7
370(10) 0.00925 345.5 15.5
348(10) 0.00944 345.5 15.4
324(9) 0.01109 345.5 15.3
355(10) 0.01047 345.5 15.2
346(10) 0.01061 345.5 15.1
381(10) 0.00937 345.5 15.0
382(11) 0.00837 345.5 14.9
349(10) 0.00954 345.5 14.9
329(9) 0.01121 345.5 14.9
346(10) 0.01078 345.5 14.9
356(10) 0.00985 345.5 15.0
348(10) 0.00943 345.5 15.1
374(10) 0.00918 345.5 15.2
357(10) 0.01050 345.5 15.3
364(10) 0.00984 345.5 15.5
356(10) 0.00935 345.5 15.8
337(10) 0.00986 345.5 16.1
357(10) 0.00958 345.5 16.4
379(10) 0.00967 345.5 16.8
366(10) 0.00995 345.5 17.3
385(11) 0.00893 345.5 17.8
366(11) 0.00886 345.5 18.5
364(10) 0.00936 345.4 19.4
367(10) 0.01012 345.4 20.5
391(10) 0.00916 345.4 22.2
376(10) 0.00922 345.4 24.5
385(11) 0.00879 345.4 27.6
375(10) 0.00932 345.4 31.8
391(10) 0.00948 345.4 37.1
408(11) 0.00879 345.4 43.3
387(11) 0.00862 345.4 49.9
375(10) 0.00917 345.4 56.1
380(10) 0.00953 345.4 60.7
394(10) 0.00942 345.4 62.2
414(11) 0.00846 345.4 60.4
375(10) 0.00919 345.4 56.1
382(11) 0.00907 345.4 50.5
379(10) 0.00976 345.4 44.8
396(10) 0.00945 345.4 39.7
399(11) 0.00851 345.4 35.6
368(10) 0.00912 345.4 32.5
350(10) 0.00976 345.4 30.3
374(10) 0.00971 345.4 28.8
379(10) 0.00977 345.4 27.8
355(10) 0.00952 345.4 27.1
367(11) 0.00892 345.4 26.6
356(10) 0.00962 345.4 26.1
368(10) 0.01008 345.4 25.7
353(10) 0.01037 345.4 25.3
357(10) 0.00960 345.4 24.8
373(11) 0.00851 345.4 24.3
348(10) 0.00996 345.4 23.8
339(10) 0.01093 345.4 23.2
352(10) 0.01058 345.4 22.7
371(10) 0.00929 345.4 22.1
383(11) 0.00829 345.4 21.4
358(10) 0.00979 345.4 20.8
368(10) 0.01018 345.4 20.1
359(10) 0.01016 345.4 19.5
375(10) 0.00908 345.4 18.8
341(10) 0.00978 345.4 18.2
343(10) 0.01005 345.4 17.5
372(10) 0.00995 345.4 16.9
329(10) 0.01104 345.4 16.3
362(10) 0.00959 345.4 15.7
346(10) 0.00969 345.4 15.1
353(10) 0.00981 345.4 14.5
348(10) 0.01073 345.4 14.0
382(10) 0.00937 345.4 13.5
347(10) 0.00955 345.4 13.0
353(10) 0.00920 345.4 12.5
363(10) 0.00957 345.4 12.1
344(10) 0.01068 345.4 11.7
361(10) 0.01004 345.4 11.3
361(10) 0.00955 345.4 10.9
361(10) 0.00946 345.4 10.6
352(10) 0.00959 345.4 10.3
366(10) 0.01013 345.4 10.0
348(10) 0.01031 345.4 9.7
374(11) 0.00903 345.4 9.5
368(10) 0.00918 345.4 9.3
356(10) 0.00966 345.4 9.1
374(10) 0.00996 345.4 9.0
357(10) 0.00964 345.4 8.8
350(10) 0.00973 345.4 8.7
349(10) 0.00992 345.4 8.6
347(10) 0.01046 345.4 8.5
349(10) 0.01055 345.4 8.5
324(10) 0.01097 345.4 8.5
358(10) 0.00914 345.4 8.5
342(10) 0.01016 345.4 8.5
345(10) 0.01059 345.4 8.5
344(10) 0.01074 345.4 8.6
335(10) 0.01012 345.4 8.8
339(10) 0.00948 345.3 8.9
351(10) 0.01001 345.3 9.1
373(10) 0.00985 345.3 9.4
335(10) 0.01107 345.3 9.6
346(10) 0.00991 345.3 9.9
354(10) 0.00924 345.3 10.2
363(10) 0.00973 345.3 10.4
352(10) 0.01065 345.3 10.6
360(10) 0.01024 345.3 10.7
343(10) 0.01025 345.3 10.8
360(11) 0.00900 345.3 10.8
364(10) 0.00957 345.3 10.9
356(10) 0.01041 345.3 11.1
360(10) 0.00989 345.3 11.2
344(10) 0.01020 345.3 11.4
355(10) 0.00909 345.3 11.6
338(10) 0.01013 345.3 11.8
342(10) 0.01077 345.3 12.1
391(10) 0.00937 345.3 12.3
343(10) 0.00991 345.3 12.5
352(11) 0.00892 345.3 12.7
373(10) 0.00931 345.3 12.9
366(10) 0.01022 345.3 13.1
358(10) 0.00985 345.3 13.2
333(10) 0.01014 345.3 13.3
330(10) 0.01037 345.3 13.4
365(10) 0.00961 345.3 13.5
356(10) 0.01035 345.3 13.5
344(10) 0.01076 345.3 13.5
354(10) 0.00964 345.3 13.4
349(10) 0.00976 345.3 13.3
334(10) 0.01046 345.3 13.2
354(10) 0.01051 345.3 13.1
351(10) 0.01024 345.3 12.9
360(10) 0.00945 345.3 12.7
346(10) 0.00974 345.3 12.4
355(10) 0.00993 345.3 12.2
345(10) 0.01073 345.3 11.9
363(10) 0.00954 345.3 11.6
354(10) 0.00980 345.3 11.3
354(10) 0.00967 345.3 11.0
371(10) 0.00967 345.3 10.7
369(10) 0.00995 345.3 10.4
336(10) 0.01043 345.3 10.1
325(10) 0.01034 345.3 9.8
333(10) 0.01013 345.3 9.5
321(9) 0.01136 345.3 9.2
349(10) 0.01064 345.3 8.9
339(10) 0.01043 345.3 8.6
351(10) 0.00922 345.3 8.4
362(10) 0.00939 345.3 8.1
355(10) 0.01021 345.3 7.9
346(10) 0.01076 345.3 7.7
333(10) 0.01029 345.3 7.5
354(10) 0.00908 345.3 7.4
334(10) 0.01045 345.3 7.3
322(9) 0.01154 345.3 7.2
375(10) 0.00985 345.3 7.1
332(10) 0.01047 345.3 7.1
333(10) 0.00999 345.3 7.1
349(10) 0.01001 345.3 7.2
342(10) 0.01082 345.3 7.4
361(10) 0.01013 345.3 7.7
334(10) 0.01042 345.3 8.2
327(10) 0.00994 345.3 8.9
317(9) 0.01116 345.3 9.7
343(10) 0.01085 345.3 10.8
341(10) 0.01060 345.3 12.1
356(10) 0.00956 345.3 13.7
355(10) 0.00946 345.3 15.5
368(10) 0.00936 345.3 17.5
364(10) 0.01021 345.2 19.6
367(10) 0.00982 345.2 21.7
352(10) 0.01035 345.2 23.5
360(10) 0.00926 345.2 24.9
351(10) 0.01009 345.2 25.7
356(10) 0.01032 345.2 25.6
351(10) 0.01009 345.2 24.6
333(10) 0.01007 345.2 23.0
351(10) 0.00943 345.2 21.0
356(10) 0.00967 345.2 18.8
331(9) 0.01110 345.2 16.6
348(10) 0.01015 345.2 14.5
353(10) 0.00959 345.2 12.5
363(10) 0.00947 345.2 10.9
366(10) 0.00946 345.2 9.4
348(10) 0.01062 345.2 8.2
354(10) 0.00993 345.2 7.2
358(10) 0.00959 345.2 6.5
324(10) 0.01096 345.2 5.8
350(10) 0.01027 345.2 5.4
365(10) 0.01026 345.2 5.0
364(10) 0.00965 345.2 4.7
336(10) 0.00974 345.2 4.5
330(10) 0.01008 345.2 4.3
361(10) 0.00995 345.2 4.1
354(10) 0.01038 345.2 4.0
328(10) 0.01047 345.2 3.9
358(10) 0.00918 345.2 3.8
362(10) 0.00952 345.2 3.7
354(10) 0.01046 345.2 3.6
356(10) 0.01042 345.2 3.6
333(10) 0.01000 345.2 3.5
353(10) 0.00919 345.2 3.5
366(10) 0.00963 345.2 3.4
347(10) 0.01072 345.2 3.4
340(10) 0.01073 345.2 3.4
335(10) 0.01015 345.2 3.3
333(10) 0.00982 345.2 3.3
354(10) 0.00971 345.2 3.3
312(9) 0.01185 345.2 3.3
322(9) 0.01141 345.2 3.2
339(10) 0.01031 345.2 3.2
330(10) 0.00999 345.2 3.2
352(10) 0.01006 345.2 3.2
336(10) 0.01106 345.2 3.2
321(9) 0.01127 345.2 3.1
372(10) 0.00915 345.2 3.1
332(10) 0.00963 345.2 3.1
333(10) 0.01015 345.2 3.1
330(9) 0.01119 345.2 3.1
347(10) 0.01052 345.2 3.0
357(10) 0.00934 345.2 3.0
323(10) 0.01018 345.2 3.0
367(10) 0.00910 345.2 3.0
321(9) 0.01161 345.2 3.0
376(10) 0.00950 345.2 2.9
344(10) 0.01044 345.2 2.9
342(10) 0.01016 345.2 2.9
362(10) 0.00963 345.2 2.9
334(9) 0.01123 345.2 2.9
337(10) 0.01053 345.2 2.9
320(10) 0.01064 345.2 2.9
332(10) 0.01020 345.2 2.8
366(10) 0.00957 345.2 2.8
341(10) 0.01100 345.2 2.8
330(10) 0.01079 345.2 2.8
354(10) 0.00977 345.2 2.8
353(10) 0.00986 345.2 2.8
344(10) 0.01049 345.2 2.8
334(9) 0.01112 345.2 2.8
335(10) 0.01010 345.2 2.8
351(10) 0.00981 345.1 2.8
331(10) 0.01076 345.1 2.9
349(10) 0.01023 345.1 2.9
362(10) 0.01027 345.1 2.9
328(10) 0.01070 345.1 2.9
329(10) 0.01030 345.1 2.9
366(10) 0.00932 345.1 2.9
314(9) 0.01186 345.1 3.0
345(10) 0.01060 345.1 3.0
342(10) 0.01019 345.1 3.0
357(11) 0.00888 345.1 3.0
343(10) 0.01013 345.1 3.0
353(10) 0.01032 345.1 3.1
377(10) 0.00976 345.1 3.1
346(10) 0.01019 345.1 3.1
354(11) 0.00895 345.1 3.1
328(10) 0.01081 345.1 3.2
353(10) 0.01047 345.1 3.2
328(9) 0.01125 345.1 3.2
335(10) 0.01062 345.1 3.2
343(10) 0.00952 345.1 3.2
356(10) 0.00952 345.1 3.3
337(9) 0.01115 345.1 3.3
361(10) 0.00998 345.1 3.3
359(10) 0.01002 345.1 3.3
363(11) 0.00895 345.1 3.3
345(10) 0.01011 345.1 3.3
344(10) 0.01073 345.1 3.3
344(10) 0.01057 345.1 3.3
342(10) 0.01045 345.1 3.4
336(10) 0.00984 345.1 3.4
343(10) 0.00997 345.1 3.4
345(10) 0.01074 345.1 3.4
357(10) 0.00996 345.1 3.4
352(10) 0.00977 345.1 3.4
338(10) 0.00977 345.1 3.4
329(10) 0.01050 345.1 3.4
346(10) 0.01064 345.1 3.4
328(10) 0.01106 345.1 3.4
363(10) 0.00923 345.1 3.3
347(10) 0.00962 345.1 3.3
333(10) 0.01036 345.1 3.3
353(10) 0.01041 345.1 3.3
371(10) 0.00957 345.1 3.3
316(10) 0.01102 345.1 3.3
329(10) 0.01032 345.1 3.3
351(10) 0.00994 345.1 3.3
342(10) 0.01083 345.1 3.3
333(10) 0.01018 345.1 3.3
334(10) 0.00968 345.1 3.3
333(10) 0.01009 345.1 3.3
362(10) 0.00973 345.1 3.3
337(10) 0.01104 345.1 3.3
351(10) 0.00955 345.1 3.3
337(10) 0.00998 345.1 3.3
342(10) 0.01012 345.1 3.3
315(9) 0.01153 345.1 3.3
365(10) 0.01004 345.1 3.3
343(10) 0.01025 345.1 3.3
329(10) 0.01022 345.1 3.4
342(10) 0.01022 345.1 3.4
358(10) 0.01018 345.1 3.4
341(10) 0.01072 345.1 3.4
338(10) 0.00990 345.1 3.5
353(10) 0.00908 345.1 3.5
322(9) 0.01128 345.1 3.5
357(10) 0.01013 345.1 3.6
359(10) 0.01030 345.1 3.6
364(10) 0.00939 345.1 3.7
325(10) 0.00982 345.1 3.8
343(10) 0.01019 345.1 3.8
348(10) 0.01075 345.1 3.9
367(10) 0.01003 345.1 4.0
351(10) 0.00977 345.1 4.1
354(11) 0.00899 345.1 4.2
368(10) 0.00951 345.1 4.3
351(10) 0.01047 345.1 4.4
357(10) 0.01012 345.1 4.5
347(10) 0.01043 345.1 4.6
360(10) 0.00912 345.1 4.8
307(9) 0.01139 345.1 4.9
329(9) 0.01118 345.1 5.1
334(10) 0.01091 345.1 5.3
328(10) 0.01008 345.1 5.4
331(10) 0.00997 345.1 5.6
334(10) 0.01030 345.1 5.8
325(9) 0.01142 345.1 6.0
327(10) 0.01093 345.1 6.2
326(10) 0.01054 345.1 6.5
343(10) 0.00989 345.1 6.7
357(10) 0.00979 345.1 6.9
328(9) 0.01135 345.1 7.2
330(10) 0.01074 345.1 7.4
333(10) 0.01037 345.1 7.7
362(10) 0.00924 345.1 7.9
342(10) 0.00992 345.1 8.2
331(10) 0.01107 345.1 8.5
333(10) 0.01043 345.1 8.8
340(10) 0.00995 345.1 9.0
356(10) 0.00957 345.1 9.3
349(10) 0.00999 345.1 9.6
352(10) 0.01036 345.1 9.9
384(11) 0.00892 345.1 10.2
347(10) 0.01000 345.1 10.6
352(10) 0.00985 345.1 10.9
395(11) 0.00881 345.1 11.2
367(10) 0.01029 345.1 11.6
346(10) 0.00995 345.1 12.0
363(11) 0.00873 345.1 12.4
336(10) 0.01006 345.1 12.9
331(9) 0.01131 345.1 13.4
370(10) 0.00984 345.1 13.9
357(10) 0.00995 345.1 14.6
353(10) 0.00915 345.1 15.3
359(10) 0.00958 345.1 16.0
369(10) 0.00997 345.1 16.9
378(10) 0.00983 345.1 17.9
339(10) 0.01031 345.1 18.9
324(10) 0.00989 345.1 20.1
358(10) 0.00956 345.1 21.3
359(10) 0.01010 345.1 22.7
389(10) 0.00939 345.1 24.2
372(10) 0.00925 345.1 25.7
363(11) 0.00881 345.1 27.3
367(10) 0.00972 345.1 29.0
387(10) 0.00940 345.1 30.8
384(10) 0.00957 345.1 32.5
386(10) 0.00927 345.1 34.2
367(10) 0.00928 345.1 35.8
371(10) 0.00952 345.1 37.4
380(10) 0.00976 345.1 38.7
401(11) 0.00905 345.1 39.8
370(10) 0.00950 345.1 40.6
370(11) 0.00893 345.1 41.2
377(11) 0.00873 345.1 41.4
372(10) 0.01004 345.1 41.2
368(10) 0.00973 345.1 40.8
408(11) 0.00851 345.1 40.1
404(11) 0.00815 345.1 39.2
366(10) 0.00963 345.1 38.0
353(10) 0.01058 345.1 36.7
346(10) 0.01023 345.1 35.3
367(10) 0.00951 345.1 33.9
358(10) 0.00981 345.1 32.3
375(10) 0.00912 345.1 30.8
370(10) 0.01003 345.1 29.2
376(10) 0.00948 345.1 27.7
366(10) 0.00925 345.1 26.2
359(10) 0.00939 345.1 24.7
332(10) 0.01069 345.1 23.2
374(10) 0.00975 345.1 21.8
364(10) 0.00949 345.1 20.5
361(10) 0.00954 345.1 19.2
333(10) 0.01048 345.1 17.9
341(10) 0.01026 345.1 16.8
351(10) 0.01055 345.1 15.7
363(10) 0.00960 345.1 14.7
356(10) 0.00943 345.1 13.7
357(10) 0.00980 345.1 12.9
321(9) 0.01127 345.1 12.0
355(10) 0.01015 345.1 11.3
333(10) 0.01043 345.1 10.6
328(10) 0.01023 345.1 9.9
360(10) 0.00942 345.1 9.3
317(9) 0.01188 345.1 8.8
375(10) 0.00968 345.1 8.3
346(10) 0.01014 345.1 7.8
353(10) 0.00933 345.1 7.4
358(10) 0.00957 345.1 7.0
349(10) 0.01076 345.1 6.6
364(10) 0.01014 345.1 6.3
339(10) 0.01004 345.1 6.0
320(10) 0.01006 345.1 5.7
358(10) 0.00971 345.1 5.5
363(10) 0.01012 345.1 5.2
365(10) 0.00986 345.1 5.0
336(10) 0.01083 345.1 4.8
337(10) 0.00976 345.1 4.7
374(11) 0.00901 345.1 4.5
349(10) 0.01074 345.1 4.3
339(10) 0.01074 345.1 4.2
344(10) 0.00987 345.1 4.1
343(10) 0.00983 345.1 4.0
387(11) 0.00893 345.1 3.9
369(10) 0.00988 345.1 3.8
344(10) 0.01073 345.1 3.7
347(10) 0.00978 345.1 3.7
329(10) 0.01013 345.1 3.6
329(10) 0.01068 345.1 3.5
327(9) 0.01130 345.1 3.5
352(10) 0.00983 345.1 3.5
333(10) 0.01046 345.1 3.4
344(10) 0.01015 345.1 3.4
329(10) 0.01087 345.1 3.4
312(9) 0.01181 345.1 3.4
348(10) 0.01000 345.1 3.4
337(10) 0.00970 345.1 3.4
322(10) 0.01029 345.1 3.4
317(10) 0.01082 345.1 3.4
350(10) 0.01058 345.1 3.4
359(10) 0.00943 345.1 3.4
352(10) 0.00930 345.1 3.4
345(10) 0.00983 345.1 3.5
347(10) 0.01020 345.1 3.5
350(10) 0.01052 345.1 3.5
340(10) 0.01000 345.1 3.6
366(11) 0.00898 345.1 3.6
370(10) 0.00919 345.1 3.7
323(9) 0.01131 345.1 3.7
339(10) 0.01097 345.1 3.8
355(10) 0.00964 345.1 3.9
357(10) 0.00944 345.1 4.0
331(10) 0.01071 345.1 4.1
326(9) 0.01130 345.1 4.2
362(10) 0.01014 345.1 4.3
311(9) 0.01126 345.1 4.4
350(10) 0.00915 345.1 4.5
361(10) 0.00960 345.1 4.7
353(10) 0.01037 345.1 4.9
398(10) 0.00924 345.1 5.1
349(10) 0.01026 345.1 5.4
355(10) 0.00915 345.1 5.8
332(10) 0.01059 345.1 6.2
367(10) 0.00969 345.1 6.7
357(10) 0.01023 345.1 7.4
374(10) 0.00929 345.1 8.2
354(10) 0.00925 345.1 9.1
347(10) 0.01015 345.1 10.2
365(10) 0.01018 345.1 11.3
352(10) 0.01040 345.1 12.4
361(10) 0.00967 345.1 13.4
383(11) 0.00853 345.1 14.2
339(10) 0.01048 345.1 14.6
376(10) 0.00987 345.1 14.5
363(10) 0.01000 345.1 14.1
314(9) 0.01151 345.1 13.5
374(11) 0.00880 345.1 12.7
386(11) 0.00879 345.1 11.8
336(10) 0.01094 345.1 11.1
366(10) 0.00987 345.1 10.4
340(10) 0.01062 345.1 9.9
358(10) 0.00978 345.1 9.4
359(10) 0.00982 345.1 9.1
371(10) 0.01010 345.1 8.9
336(10) 0.01051 345.1 8.8
349(10) 0.00969 345.1 8.7
353(10) 0.00985 345.1 8.7
355(10) 0.01025 345.1 8.7
332(9) 0.01123 345.1 8.7
348(10) 0.01012 345.1 8.7
334(10) 0.01044 345.1 8.8
337(10) 0.01023 345.1 8.8
351(10) 0.01029 345.1 8.8
341(10) 0.01089 345.1 8.9
362(10) 0.00973 345.1 8.9
379(11) 0.00873 345.1 8.9
356(10) 0.00951 345.1 8.9
336(10) 0.01060 345.1 8.9
337(10) 0.01104 345.1 8.9
337(10) 0.01017 345.1 9.0
332(10) 0.01022 345.1 9.0
353(10) 0.00998 345.1 9.0
358(10) 0.01022 345.1 9.0
319(9) 0.01139 345.1 9.0
358(10) 0.00995 345.1 9.0
344(10) 0.00970 345.1 9.0
360(10) 0.00957 345.1 9.0
362(10) 0.01009 345.1 8.9
371(10) 0.01016 345.1 8.9
370(10) 0.00959 345.1 8.9
346(10) 0.00913 345.1 8.9
345(10) 0.01026 345.1 8.9
356(10) 0.01033 345.1 8.9
344(10) 0.01077 345.1 8.8
330(10) 0.01063 345.1 8.8
361(10) 0.00908 345.1 8.8
354(10) 0.00945 345.1 8.8
344(10) 0.01080 345.1 8.8
356(10) 0.01045 345.1 8.8
353(10) 0.00992 345.1 8.8
353(10) 0.00940 345.1 8.8
345(10) 0.00958 345.1 8.8
340(10) 0.01096 345.1 8.8
355(10) 0.01009 345.1 8.8
341(10) 0.00985 345.1 8.9
351(10) 0.00917 345.1 9.0
326(10) 0.01070 345.1 9.0
360(10) 0.01030 345.1 9.2
375(10) 0.00951 345.1 9.4
375(11) 0.00905 345.1 9.7
358(10) 0.00937 345.1 10.2
329(10) 0.01084 345.1 11.0
353(10) 0.01059 345.1 12.1
360(10) 0.00980 345.1 13.5
346(10) 0.01017 345.1 15.0
382(11) 0.00896 345.1 16.4
349(10) 0.01018 345.1 17.2
358(10) 0.01038 345.1 17.2
371(10) 0.00962 345.1 16.5
381(11) 0.00897 345.1 15.6
353(10) 0.00978 345.1 14.7
371(10) 0.00950 345.1 14.0
362(10) 0.01043 345.1 13.5
338(10) 0.01037 345.1 13.2
332(10) 0.01020 345.1 13.0
343(10) 0.01010 345.1 12.8
341(10) 0.01070 345.1 12.6
354(10) 0.01050 345.1 12.4
347(10) 0.01005 345.1 12.2
367(11) 0.00868 345.1 12.1
336(10) 0.01043 345.1 12.0
347(10) 0.01054 345.1 11.9
368(10) 0.01015 345.1 11.8
350(10) 0.00968 345.1 11.8
343(10) 0.00926 345.1 11.8
355(10) 0.00969 345.1 11.9
365(10) 0.01027 345.1 12.0
341(10) 0.01082 345.1 12.1
337(10) 0.01043 345.1 12.2
361(10) 0.00912 345.1 12.3
363(10) 0.00978 345.1 12.4
383(10) 0.00965 345.1 12.6
373(10) 0.00998 345.1 12.7
333(10) 0.01047 345.1 12.9
340(10) 0.00960 345.1 13.1
384(11) 0.00872 345.1 13.2
344(10) 0.01080 345.1 13.4
393(10) 0.00937 345.1 13.6
350(10) 0.00960 345.1 13.7
341(10) 0.00924 345.1 13.9
353(10) 0.00993 345.1 14.1
365(10) 0.01024 345.1 14.3
341(10) 0.01064 345.1 14.4
340(10) 0.01022 345.1 14.6
360(10) 0.00941 345.1 14.8
371(10) 0.00924 345.1 15.0
384(10) 0.00963 345.1 15.2
369(10) 0.00989 345.1 15.4
350(10) 0.00972 345.1 15.6
340(10) 0.00973 345.1 15.8
327(10) 0.01061 345.1 16.0
393(10) 0.00943 345.1 16.3
359(10) 0.00965 345.1 16.5
349(10) 0.00945 345.1 16.7
363(11) 0.00904 345.1 17.0
367(10) 0.00972 345.1 17.2
340(10) 0.01094 345.1 17.4
360(10) 0.00977 345.1 17.6
369(10) 0.00939 345.1 17.8
369(10) 0.00942 345.1 18.0
359(10) 0.01015 345.1 18.2
367(10) 0.01009 345.1 18.3
355(10) 0.00954 345.1 18.4
335(10) 0.01051 345.1 18.5
375(11) 0.00871 345.1 18.6
353(10) 0.01039 345.1 18.7
374(10) 0.00989 345.1 18.9
342(10) 0.01031 345.1 19.1
347(10) 0.00960 345.1 19.4
368(10) 0.00943 345.1 20.0
370(10) 0.00986 345.1 20.8
419(11) 0.00875 345.1 22.1
400(11) 0.00852 345.1 23.9
355(10) 0.00961 345.1 26.4
368(10) 0.00919 345.1 29.9
377(10) 0.00979 345.1 34.3
392(10) 0.00938 345.1 39.9
385(10) 0.00911 345.1 46.5
394(11) 0.00813 345.1 53.9
389(10) 0.00918 345.1 61.6
410(11) 0.00906 345.1 68.9
407(10) 0.00913 345.1 74.6
399(11) 0.00893 345.1 77.6
421(12) 0.00741 345.1 77.1
374(10) 0.00922 345.1 73.3
392(10) 0.00937 345.1 67.2
382(10) 0.00961 345.1 60.2
371(10) 0.00909 345.1 53.4
392(11) 0.00828 345.1 47.5
393(11) 0.00864 345.1 43.0
364(10) 0.01014 345.1 39.9
389(10) 0.00949 345.1 38.3
395(11) 0.00883 345.1 37.6
372(10) 0.00912 345.1 37.3
406(11) 0.00853 345.1 36.6
370(10) 0.01003 345.1 34.8
369(10) 0.00982 345.1 31.9
397(11) 0.00852 345.1 28.3
390(11) 0.00851 345.1 24.5
344(10) 0.01042 345.1 20.8
392(10) 0.00951 345.1 17.6
346(10) 0.01030 345.1 15.0
328(10) 0.01063 345.1 12.9
365(11) 0.00893 345.1 11.2
363(10) 0.00962 345.1 10.0
345(10) 0.01071 345.1 9.1
345(10) 0.01012 345.1 8.4
352(10) 0.00975 345.1 7.9
356(10) 0.01008 345.1 7.5
364(10) 0.01002 345.1 7.1
319(9) 0.01157 345.1 6.8
337(10) 0.01009 345.1 6.6
363(11) 0.00890 345.1 6.3
347(10) 0.01004 345.1 6.1
357(10) 0.00985 345.1 6.0
308(9) 0.01194 345.1 5.8
341(10) 0.01018 345.1 5.6
341(10) 0.01015 345.1 5.5
345(10) 0.01046 345.1 5.4
402(11) 0.00876 345.1 5.3
323(9) 0.01158 345.1 5.2
318(10) 0.01097 345.1 5.1
328(10) 0.00954 345.1 5.0
333(10) 0.01003 345.1 5.0
326(10) 0.01098 345.1 4.9
324(9) 0.01160 345.1 4.9
341(10) 0.01022 345.1 4.8
354(10) 0.00929 345.1 4.8
354(10) 0.00997 345.1 4.7
334(10) 0.01091 345.1 4.7
319(9) 0.01147 345.1 4.7
330(10) 0.01040 345.1 4.7
363(11) 0.00859 345.1 4.7
367(10) 0.00920 345.1 4.6
343(10) 0.01069 345.1 4.6
352(10) 0.01047 345.1 4.6
329(10) 0.01053 345.1 4.6
332(10) . . .
362(11) . . .
338(9) . . .
367(10) . . .
346(10) . . .
342(10) . . .
351(10) . . .
344(10) . . .
360(10) . . .
332(10) . . .
364(11) . . .
330(10) . . .
349(10) . . .
352(10) . . .
340(10) . . .
340(10) . . .
351(10) . . .
363(10) . . .
344(10) . . .
329(10) . . .
324(10) . . .
317(9) . . .
340(10) . . .
330(10) . . .
354(10) . . .
329(10) . . .
311(9) . . .
346(10) . . .
329(10) . . .
326(10) . . .
347(10) . . .
340(10) . . .
348(10) . . .
330(10) . . .
327(10) . . .
357(10) . . .
357(10) . . .
337(10) . . .
330(10) . . .
342(10) . . .
348(10) . . .
372(10) . . .
333(10) . . .
345(10) . . .
364(11) . . .
320(10) . . .
335(10) . . .
315(9) . . .
337(10) . . .
344(10) . . .
346(10) . . .
336(9) . . .
345(10) . . .
325(10) . . .
312(10) . . .
339(10) . . .
325(9) . . .
318(9) . . .
352(10) . . .
326(10) . . .
325(10) . . .
360(10) . . .
329(10) . . .
361(10) . . .
346(10) . . .
356(10) . . .
337(10) . . .
335(10) . . .
336(10) . . .
352(10) . . .
337(10) . . .
311(9) . . .
348(10) . . .
337(10) . . .
354(10) . . .
350(10) . . .
331(9) . . .
384(11) . . .
337(10) . . .
344(10) . . .
337(10) . . .
337(10) . . .
350(10) . . .
344(10) . . .
349(10) . . .
348(10) . . .
347(10) . . .
341(10) . . .
343(10) . . .
330(10) . . .
374(10) . . .
372(10) . . .
351(10) . . .
345(10) . . .
374(10) . . .
375(10) . . .
363(10) . . .
350(10) . . .
361(11) . . .
335(10) . . .
361(10) . . .
348(10) . . .
344(10) . . .
362(11) . . .
349(10) . . .
347(10) . . .
379(10) . . .
363(10) . . .
373(10) . . .
363(10) . . .
370(10) . . .
357(10) . . .
327(10) . . .
380(11) . . .
347(10) . . .
353(10) . . .
335(10) . . .
357(10) . . .
378(11) . . .
374(10) . . .
333(10) . . .
357(10) . . .
325(10) . . .
340(10) . . .
340(10) . . .
331(9) . . .
374(10) . . .
351(10) . . .
364(10) . . .
339(10) . . .
341(10) . . .
331(10) . . .
331(10) . . .
335(10) . . .
330(10) . . .
332(9) . . .
366(10) . . .
349(10) . . .
350(10) . . .
359(10) . . .
362(10) . . .
351(10) . . .
348(10) . . .
353(10) . . .
348(10) . . .
361(10) . . .
340(10) . . .
329(10) . . .
325(10) . . .
324(9) . . .
332(10) . . .
344(10) . . .
332(10) . . .
342(10) . . .
319(9) . . .
345(10) . . .
329(10) . . .
348(10) . . .
331(10) . . .
340(10) . . .
363(10) . . .
332(10) . . .
369(11) . . .
327(10) . . .
335(9) . . .
376(10) . . .
352(10) . . .
343(10) . . .
344(10) . . .
335(10) . . .
331(10) . . .
338(10) . . .
369(10) . . .
365(10) . . .
345(10) . . .
311(9) . . .
316(10) . . .
318(10) . . .
333(10) . . .
339(10) . . .
343(10) . . .
343(10) . . .
336(10) . . .
322(9) . . .
334(10) . . .
319(10) . . .
349(11) . . .
324(10) . . .
320(9) . . .
344(10) . . .
347(10) . . .
373(11) . . .
367(10) . . .
350(10) . . .
337(10) . . .
371(10) . . .
349(11) . . .
332(10) . . .
327(9) . . .
326(9) . . .
359(10) . . .
346(10) . . .
346(10) . . .
339(10) . . .
372(10) . . .
353(10) . . .
335(10) . . .
316(10) . . .
383(10) . . .
348(10) . . .
362(10) . . .
349(10) . . .
346(10) . . .
315(9) . . .
344(10) . . .
313(9) . . .
335(10) . . .
349(10) . . .
317(9) . . .
349(10) . . .
332(10) . . .
304(9) . . .
338(10) . . .
340(10) . . .
332(10) . . .
320(10) . . .
336(10) . . .
368(10) . . .
329(9) . . .
312(10) . . .
334(10) . . .
336(10) . . .
360(10) . . .
324(9) . . .
315(9) . . .
326(10) . . .
336(10) . . .
335(10) . . .
326(9) . . .
339(10) . . .
352(11) . . .
343(10) . . .
341(10) . . .
353(10) . . .
337(10) . . .
346(10) . . .
343(10) . . .
346(10) . . .
327(9) . . .
327(10) . . .
336(10) . . .
353(10) . . .
338(10) . . .
365(10) . . .
343(10) . . .
356(11) . . .
349(10) . . .
372(10) . . .
354(10) . . .
384(11) . . .
378(11) . . .
377(10) . . .
352(10) . . .
373(10) . . .
378(11) . . .
378(11) . . .
380(10) . . .
408(11) . . .
414(11) . . .
429(11) . . .
477(12) . . .
445(11) . . .
462(11) . . .
426(11) . . .
382(11) . . .
419(11) . . .
402(11) . . .
389(10) . . .
368(10) . . .
379(11) . . .
386(11) . . .
361(10) . . .
367(10) . . .
344(10) . . .
358(10) . . .
342(10) . . .
363(10) . . .
362(10) . . .
339(10) . . .
318(10) . . .
342(10) . . .
348(10) . . .
346(10) . . .
357(10) . . .
353(11) . . .
335(10) . . .
321(9) . . .
350(10) . . .
356(10) . . .
320(10) . . .
336(10) . . .
339(10) . . .
298(9) . . .
362(10) . . .
324(10) . . .
335(10) . . .
345(10) . . .
342(10) . . .
330(10) . . .
308(10) . . .
357(10) . . .
379(10) . . .
331(9) . . .
370(10) . . .
336(10) . . .
331(10) . . .
321(9) . . .
333(10) . . .
352(10) . . .
321(10) . . .
350(10) . . .
337(10) . . .
336(10) . . .
353(10) . . .
336(10) . . .
325(10) . . .
370(10) . . .
389(11) . . .
352(10) . . .
344(10) . . .
323(9) . . .
355(10) . . .
339(10) . . .
347(10) . . .
337(10) . . .
332(10) . . .
331(10) . . .
337(10) . . .
332(10) . . .
317(9) . . .
334(10) . . .
330(9) . . .
341(10) . . .
345(10) . . .
331(10) . . .
315(9) . . .
336(10) . . .
329(10) . . .
321(10) . . .
346(10) . . .
361(10) . . .
336(10) . . .
334(10) . . .
305(10) . . .
316(10) . . .
326(9) . . .
350(10) . . .
353(10) . . .
319(10) . . .
335(10) . . .
315(9) . . .
332(10) . . .
335(10) . . .
348(10) . . .
366(10) . . .
318(9) . . .
327(10) . . .
327(10) . . .
338(10) . . .
318(10) . . .
329(9) . . .
345(10) . . .
351(10) . . .
316(10) . . .
315(9) . . .
332(9) . . .
308(9) . . .
328(10) . . .
305(9) . . .
286(9) . . .
334(10) . . .
309(9) . . .
312(10) . . .
291(9) . . .
308(9) . . .
330(9) . . .
339(10) . . .
326(10) . . .
315(9) . . .
295(9) . . .
320(9) . . .
320(10) . . .
316(10) . . .
295(9) . . .
328(9) . . .
316(9) . . .
312(9) . . .
317(10) . . .
307(9) . . .
323(9) . . .
329(10) . . .
322(10) . . .
330(10) . . .
322(10) . . .
315(9) . . .
310(9) . . .
325(10) . . .
311(10) . . .
320(10) . . .
312(9) . . .
302(9) . . .
312(10) . . .
282(9) . . .
318(10) . . .
311(9) . . .
328(10) . . .
295(9) . . .
310(10) . . .
308(9) . . .
307(9) . . .
335(10) . . .
317(10) . . .
329(10) . . .
315(10) . . .
346(10) . . .
311(10) . . .
297(9) . . .
321(10) . . .
338(10) . . .
312(9) . . .
324(10) . . .
343(10) . . .
324(10) . . .
305(9) . . .
329(9) . . .
320(10) . . .
335(10) . . .
359(10) . . .
309(9) . . .
334(10) . . .
302(9) . . .
318(10) . . .
321(10) . . .
318(9) . . .
345(10) . . .
343(10) . . .
356(11) . . .
322(10) . . .
361(10) . . .
335(9) . . .
361(10) . . .
333(10) . . .
343(10) . . .
360(10) . . .
368(10) . . .
351(10) . . .
382(11) . . .
405(11) . . .
385(10) . . .
410(11) . . .
374(10) . . .
399(11) . . .
359(10) . . .
363(10) . . .
363(10) . . .
392(11) . . .
396(11) . . .
393(11) . . .
387(10) . . .
366(10) . . .
349(10) . . .
386(11) . . .
398(11) . . .
382(10) . . .
349(10) . . .
322(10) . . .
320(10) . . .
345(10) . . .
355(10) . . .
341(10) . . .
358(10) . . .
329(10) . . .
350(10) . . .
344(10) . . .
320(10) . . .
337(10) . . .
316(9) . . .
355(10) . . .
329(9) . . .
311(9) . . .
314(10) . . .
355(10) . . .
332(10) . . .
321(9) . . .
310(9) . . .
312(10) . . .
304(9) . . .
328(9) . . .
323(9) . . .
313(10) . . .
309(10) . . .
324(10) . . .
342(10) . . .
316(9) . . .
331(10) . . .
308(10) . . .
297(9) . . .
323(9) . . .
312(9) . . .
334(10) . . .
323(10) . . .
319(10) . . .
287(9) . . .
284(9) . . .
326(10) . . .
298(9) . . .
278(9) . . .
276(9) . . .
307(9) . . .
322(10) . . .
290(9) . . .
318(9) . . .
324(9) . . .
296(9) . . .
293(9) . . .
295(9) . . .
300(9) . . .
297(9) . . .
306(9) . . .
302(9) . . .
294(9) . . .
300(9) . . .
317(9) . . .
310(10) . . .
308(10) . . .
297(9) . . .
312(9) . . .
305(9) . . .
292(9) . . .
268(9) . . .
305(9) . . .
301(9) . . .
296(9) . . .
315(10) . . .
319(10) . . .
287(9) . . .
331(10) . . .
314(9) . . .
300(9) . . .
316(10) . . .
305(9) . . .
276(9) . . .
317(9) . . .
340(10) . . .
330(10) . . .
296(9) . . .
306(9) . . .
320(9) . . .
306(9) . . .
309(10) . . .
300(9) . . .
304(9) . . .
333(10) . . .
303(9) . . .
289(9) . . .
298(9) . . .
301(9) . . .
287(9) . . .
309(10) . . .
311(10) . . .
325(10) . . .
313(9) . . .
273(9) . . .
309(10) . . .
324(10) . . .
316(9) . . .
311(9) . . .
293(9) . . .
301(9) . . .
321(10) . . .
297(9) . . .
306(9) . . .
325(10) . . .
324(10) . . .
284(9) . . .
284(9) . . .
271(9) . . .
303(9) . . .
310(10) . . .
300(9) . . .
303(9) . . .
282(9) . . .
288(9) . . .
304(10) . . .
305(9) . . .
318(9) . . .
321(9) . . .
286(9) . . .
297(10) . . .
305(10) . . .
287(9) . . .
312(9) . . .
314(10) . . .
299(10) . . .
299(9) . . .
272(9) . . .
315(9) . . .
289(9) . . .
304(9) . . .
301(9) . . .
303(9) . . .
319(9) . . .
303(9) . . .
295(9) . . .
320(10) . . .
293(9) . . .
299(9) . . .
307(9) . . .
292(9) . . .
320(10) . . .
286(9) . . .
285(9) . . .
302(9) . . .
322(10) . . .
290(9) . . .
309(9) . . .
306(9) . . .
299(9) . . .
308(9) . . .
310(9) . . .
273(9) . . .
302(9) . . .
303(10) . . .
292(9) . . .
319(9) . . .
311(9) . . .
324(10) . . .
300(9) . . .
286(9) . . .
296(9) . . .
292(9) . . .
307(10) . . .
299(10) . . .
299(9) . . .
312(9) . . .
311(9) . . .
312(9) . . .
324(10) . . .
303(9) . . .
328(9) . . .
320(9) . . .
340(10) . . .
316(10) . . .
308(10) . . .
311(9) . . .
324(9) . . .
310(10) . . .
287(9) . . .
306(9) . . .
282(9) . . .
307(9) . . .
313(9) . . .
312(10) . . .
311(10) . . .
295(9) . . .
304(9) . . .
306(10) . . .
306(10) . . .
298(9) . . .
250(8) . . .
295(9) . . .
298(9) . . .
288(9) . . .
300(9) . . .
307(9) . . .
283(9) . . .
265(9) . . .
300(9) . . .
323(10) . . .
318(9) . . .
290(9) . . .
320(10) . . .
312(9) . . .
350(10) . . .
335(10) . . .
352(10) . . .
342(10) . . .
353(10) . . .
341(10) . . .
323(9) . . .
339(10) . . .
323(10) . . .
331(10) . . .
302(9) . . .
289(9) . . .
302(9) . . .
307(10) . . .
300(9) . . .
318(9) . . .
255(8) . . .
288(9) . . .
298(10) . . .
302(9) . . .
298(9) . . .
266(9) . . .
284(9) . . .
283(9) . . .
280(9) . . .
316(9) . . .
295(9) . . .
289(9) . . .
298(10) . . .
302(10) . . .
265(8) . . .
311(9) . . .
294(9) . . .
304(9) . . .
311(9) . . .
288(9) . . .
260(9) . . .
275(9) . . .
297(9) . . .
303(9) . . .
296(9) . . .
289(9) . . .
300(10) . . .
266(9) . . .
278(9) . . .
268(8) . . .
284(9) . . .
263(9) . . .
283(9) . . .
269(9) . . .
272(9) . . .
257(9) . . .
271(9) . . .
279(9) . . .
277(9) . . .
265(9) . . .
274(9) . . .
274(9) . . .
288(9) . . .
299(9) . . .
290(9) . . .
288(9) . . .
286(9) . . .
280(9) . . .
272(9) . . .
289(9) . . .
286(9) . . .
267(9) . . .
287(9) . . .
287(9) . . .
264(8) . . .
294(9) . . .
271(9) . . .
276(9) . . .
294(9) . . .
290(9) . . .
293(9) . . .
301(10) . . .
295(9) . . .
258(8) . . .
290(9) . . .
268(9) . . .
283(9) . . .
267(9) . . .
277(9) . . .
300(9) . . .
317(9) . . .
289(9) . . .
279(9) . . .
263(8) . . .
261(9) . . .
283(9) . . .
280(9) . . .
285(9) . . .
294(9) . . .
292(9) . . .
274(9) . . .
278(9) . . .
279(9) . . .
287(9) . . .
279(9) . . .
297(10) . . .
290(9) . . .
266(9) . . .
265(8) . . .
292(9) . . .
308(10) . . .
313(10) . . .
308(9) . . .
312(9) . . .
296(9) . . .
292(9) . . .
301(9) . . .
276(9) . . .
301(9) . . .
290(9) . . .
300(10) . . .
312(10) . . .
317(9) . . .
317(9) . . .
319(10) . . .
291(9) . . .
320(10) . . .
313(9) . . .
313(9) . . .
305(9) . . .
311(10) . . .
299(9) . . .
304(9) . . .
312(9) . . .
287(9) . . .
323(10) . . .
298(9) . . .
323(9) . . .
306(9) . . .
294(9) . . .
271(9) . . .
309(9) . . .
331(9) . . .
302(9) . . .
298(9) . . .
325(10) . . .
328(10) . . .
325(9) . . .
309(9) . . .
345(10) . . .
333(10) . . .
320(9) . . .
321(9) . . .
330(10) . . .
347(10) . . .
347(10) . . .
323(10) . . .
324(9) . . .
352(10) . . .
348(10) . . .
343(10) . . .
336(10) . . .
324(9) . . .
317(10) . . .
317(10) . . .
332(10) . . .
322(9) . . .
294(9) . . .
316(10) . . .
318(10) . . .
319(10) . . .
340(10) . . .
310(9) . . .
302(9) . . .
289(9) . . .
314(10) . . .
313(9) . . .
312(9) . . .
309(10) . . .
312(10) . . .
299(9) . . .
291(9) . . .
286(9) . . .
280(9) . . .
292(10) . . .
297(10) . . .
258(8) . . .
271(9) . . .
283(9) . . .
309(10) . . .
278(9) . . .
300(9) . . .
299(9) . . .
270(9) . . .
273(9) . . .
274(9) . . .
306(9) . . .
290(9) . . .
296(9) . . .
265(9) . . .
283(9) . . .
270(8) . . .
312(9) . . .
296(9) . . .
280(9) . . .
273(9) . . .
305(9) . . .
281(9) . . .
275(9) . . .
257(9) . . .
260(8) . . .
258(8) . . .
286(9) . . .
261(9) . . .
273(9) . . .
286(9) . . .
302(9) . . .
272(9) . . .
280(9) . . .
300(9) . . .
304(9) . . .
264(9) . . .
270(9) . . .
279(9) . . .
293(9) . . .
276(9) . . .
256(8) . . .
263(9) . . .
257(9) . . .
264(9) . . .
271(9) . . .
262(8) . . .
256(9) . . .
265(9) . . .
259(9) . . .
268(8) . . .
277(9) . . .
280(9) . . .
270(9) . . .
269(9) . . .
267(8) . . .
249(8) . . .
279(9) . . .
270(9) . . .
270(9) . . .
260(8) . . .
248(8) . . .
241(9) . . .
252(9) . . .
258(9) . . .
264(8) . . .
273(9) . . .
265(9) . . .
267(9) . . .
241(8) . . .
241(8) . . .
283(9) . . .
270(9) . . .
267(9) . . .
252(8) . . .
253(8) . . .
271(9) . . .
264(9) . . .
246(8) . . .
253(8) . . .
259(8) . . .
255(8) . . .
267(9) . . .
288(9) . . .
261(8) . . .
283(9) . . .
280(9) . . .
270(9) . . .
269(9) . . .
260(8) . . .
278(9) . . .
286(9) . . .
282(9) . . .
230(8) . . .
272(9) . . .
261(8) . . .
279(9) . . .
244(9) . . .
271(9) . . .
278(9) . . .
251(8) . . .
265(9) . . .
271(9) . . .
249(8) . . .
246(8) . . .
275(9) . . .
277(9) . . .
288(9) . . .
291(9) . . .
281(9) . . .
283(9) . . .
275(9) . . .
246(8) . . .
263(9) . . .
272(9) . . .
258(9) . . .
282(9) . . .
273(9) . . .
255(9) . . .
247(8) . . .
258(9) . . .
263(9) . . .
277(9) . . .
275(9) . . .
296(9) . . .
248(9) . . .
277(9) . . .
269(9) . . .
280(9) . . .
259(8) . . .
283(9) . . .
264(9) . . .
282(9) . . .
266(9) . . .
280(9) . . .
272(9) . . .
246(9) . . .
245(9) . . .
244(8) . . .
259(8) . . .
270(9) . . .
275(9) . . .
260(9) . . .
270(9) . . .
271(9) . . .
262(9) . . .
270(9) . . .
254(9) . . .
262(8) . . .
258(8) . . .
249(9) . . .
265(9) . . .
267(9) . . .
261(8) . . .
256(8) . . .
285(9) . . .
265(9) . . .
258(9) . . .
247(8) . . .
283(9) . . .
259(9) . . .
272(9) . . .
258(8) . . .
242(8) . . .
260(9) . . .
232(8) . . .
238(8) . . .
247(8) . . .
265(8) . . .
271(9) . . .
248(8) . . .
260(9) . . .
257(9) . . .
254(8) . . .
226(8) . . .
243(9) . . .
254(9) . . .
267(9) . . .
273(9) . . .
252(9) . . .
240(9) . . .
251(9) . . .
256(8) . . .
236(8) . . .
250(8) . . .
261(9) . . .
234(8) . . .
257(8) . . .
253(8) . . .
260(9) . . .
226(8) . . .
246(9) . . .
262(9) . . .
270(9) . . .
251(8) . . .
264(9) . . .
252(8) . . .
257(8) . . .
268(9) . . .
226(8) . . .
241(8) . . .
255(9) . . .
266(9) . . .
250(8) . . .
244(9) . . .
269(9) . . .
257(9) . . .
263(8) . . .
241(8) . . .
237(8) . . .
272(9) . . .
244(8) . . .
257(8) . . .
271(9) . . .
243(8) . . .
260(9) . . .
239(8) . . .
257(8) . . .
260(9) . . .
229(8) . . .
245(8) . . .
258(9) . . .
257(8) . . .
254(9) . . .
263(9) . . .
240(8) . . .
251(8) . . .
257(8) . . .
244(8) . . .
250(9) . . .
244(8) . . .
248(8) . . .
251(8) . . .
232(8) . . .
261(9) . . .
281(9) . . .
251(8) . . .
264(8) . . .
270(9) . . .
265(9) . . .
259(9) . . .
252(8) . . .
263(8) . . .
255(9) . . .
253(9) . . .
236(8) . . .
254(8) . . .
266(8) . . .
266(9) . . .
244(9) . . .
256(9) . . .
251(8) . . .
236(8) . . .
246(8) . . .
243(8) . . .
258(9) . . .
255(8) . . .
256(9) . . .
232(8) . . .
236(8) . . .
259(9) . . .
240(8) . . .
259(9) . . .
247(9) . . .
245(9) . . .
237(8) . . .
240(8) . . .
252(9) . . .
271(9) . . .
244(8) . . .
239(8) . . .
253(8) . . .
243(8) . . .
243(9) . . .
255(9) . . .
246(8) . . .
238(8) . . .
220(8) . . .
250(9) . . .
259(9) . . .
253(8) . . .
251(8) . . .
248(9) . . .
230(8) . . .
242(8) . . .
232(8) . . .
258(8) . . .
238(8) . . .
221(8) . . .
234(8) . . .
233(8) . . .
249(8) . . .
258(9) . . .
254(9) . . .
225(8) . . .
244(8) . . .
239(8) . . .
249(8) . . .
256(9) . . .
239(8) . . .
238(8) . . .
223(8) . . .
247(8) . . .
223(8) . . .
243(8) . . .
250(8) . . .
220(8) . . .
227(8) . . .
233(8) . . .
218(8) . . .
226(8) . . .
226(8) . . .
258(9) . . .
257(9) . . .
231(8) . . .
221(8) . . .
236(8) . . .
247(8) . . .
263(9) . . .
246(8) . . .
241(8) . . .
246(9) . . .
241(8) . . .
241(8) . . .
255(8) . . .
245(8) . . .
231(8) . . .
230(8) . . .
222(8) . . .
241(8) . . .
236(8) . . .
230(8) . . .
237(9) . . .
232(8) . . .
232(8) . . .
242(8) . . .
235(8) . . .
239(9) . . .
256(9) . . .
239(8) . . .
254(8) . . .
223(8) . . .
233(9) . . .
224(8) . . .
227(8) . . .
217(8) . . .
219(8) . . .
227(8) . . .
226(8) . . .
221(8) . . .
227(8) . . .
241(8) . . .
268(9) . . .
247(8) . . .
236(8) . . .
246(8) . . .
238(8) . . .
221(8) . . .
245(8) . . .
234(8) . . .
216(8) . . .
225(8) . . .
233(8) . . .
235(8) . . .
227(8) . . .
231(8) . . .
230(8) . . .
229(8) . . .
226(8) . . .
226(8) . . .
237(8) . . .
234(8) . . .
239(8) . . .
234(8) . . .
253(8) . . .
236(8) . . .
231(9) . . .
227(8) . . .
253(8) . . .
230(8) . . .
235(8) . . .
243(9) . . .
227(8) . . .
233(8) . . .
222(8) . . .
248(8) . . .
235(9) . . .
240(9) . . .
212(8) . . .
248(8) . . .
248(9) . . .
232(9) . . .
234(9) . . .
243(8) . . .
231(8) . . .
233(9) . . .
229(8) . . .
231(8) . . .
227(8) . . .
241(8) . . .
224(8) . . .
245(8) . . .
221(8) . . .
240(8) . . .
232(8) . . .
225(8) . . .
225(8) . . .
239(8) . . .
248(8) . . .
247(8) . . .
262(9) . . .
244(9) . . .
259(9) . . .
253(8) . . .
241(8) . . .
242(9) . . .
243(8) . . .
237(8) . . .
241(8) . . .
252(9) . . .
267(9) . . .
234(8) . . .
277(9) . . .
263(8) . . .
275(9) . . .
253(9) . . .
308(9) . . .
297(9) . . .
291(9) . . .
302(9) . . .
279(9) . . .
255(9) . . .
254(8) . . .
287(9) . . .
242(8) . . .
249(9) . . .
254(9) . . .
245(8) . . .
238(8) . . .
240(8) . . .
238(9) . . .
236(9) . . .
234(8) . . .
233(8) . . .
233(8) . . .
244(9) . . .
263(9) . . .
252(8) . . .
271(9) . . .
264(9) . . .
263(9) . . .
266(9) . . .
265(9) . . .
256(8) . . .
263(9) . . .
256(9) . . .
242(8) . . .
257(8) . . .
260(8) . . .
249(8) . . .
253(9) . . .
255(9) . . .
261(8) . . .
254(8) . . .
235(8) . . .
216(8) . . .
250(8) . . .
254(8) . . .
241(8) . . .
252(9) . . .
246(9) . . .
239(8) . . .
244(8) . . .
257(9) . . .
249(8) . . .
255(9) . . .
265(9) . . .
233(8) . . .
224(8) . . .
240(9) . . .
240(8) . . .
227(8) . . .
252(8) . . .
224(8) . . .
251(9) . . .
237(8) . . .
237(8) . . .
235(8) . . .
236(8) . . .
242(9) . . .
234(8) . . .
229(8) . . .
225(8) . . .
231(8) . . .
263(9) . . .
255(9) . . .
255(8) . . .
269(9) . . .
259(9) . . .
262(9) . . .
244(8) . . .
250(8) . . .
233(8) . . .
287(9) . . .
255(9) . . .
270(9) . . .
260(8) . . .
267(9) . . .
268(9) . . .
290(9) . . .
265(9) . . .
259(8) . . .
255(8) . . .
240(9) . . .
240(8) . . .
252(8) . . .
265(9) . . .
312(9) . . .
303(10) . . .
278(9) . . .
302(9) . . .
279(9) . . .
281(9) . . .
274(9) . . .
261(8) . . .
271(9) . . .
268(9) . . .
280(9) . . .
291(9) . . .
256(9) . . .
270(9) . . .
256(8) . . .
249(9) . . .
262(9) . . .
288(9) . . .
272(9) . . .
297(9) . . .
272(9) . . .
269(9) . . .
280(9) . . .
231(8) . . .
231(8) . . .
263(9) . . .
241(8) . . .
257(9) . . .
243(8) . . .
227(8) . . .
247(9) . . .
248(9) . . .
244(8) . . .
234(8) . . .
247(8) . . .
246(8) . . .
254(9) . . .
251(8) . . .
243(8) . . .
233(8) . . .
243(8) . . .
231(8) . . .
236(8) . . .
251(8) . . .
270(9) . . .
259(9) . . .
227(8) . . .
254(9) . . .
230(8) . . .
221(8) . . .
226(8) . . .
233(8) . . .
244(8) . . .
252(8) . . .
233(8) . . .
236(8) . . .
232(9) . . .
212(8) . . .
240(8) . . .
238(9) . . .
221(8) . . .
228(8) . . .
242(8) . . .
237(8) . . .
249(9) . . .
248(9) . . .
245(8) . . .
243(8) . . .
227(8) . . .
229(8) . . .
237(9) . . .
236(8) . . .
242(8) . . .
217(8) . . .
224(8) . . .
214(8) . . .
246(8) . . .
238(8) . . .
224(8) . . .
222(8) . . .
235(8) . . .
239(8) . . .
228(8) . . .
224(8) . . .
247(9) . . .
242(8) . . .
228(8) . . .
210(8) . . .
230(8) . . .
255(8) . . .
243(8) . . .
248(8) . . .
225(8) . . .
242(8) . . .
235(8) . . .
235(8) . . .
236(8) . . .
225(8) . . .
238(8) . . .
230(8) . . .
253(9) . . .
222(8) . . .
228(8) . . .
228(8) . . .
243(8) . . .
238(8) . . .
240(8) . . .
253(8) . . .
221(8) . . .
239(9) . . .
240(8) . . .
242(8) . . .
235(8) . . .
253(9) . . .
207(8) . . .
207(8) . . .
215(8) . . .
222(8) . . .
222(8) . . .
218(8) . . .
237(8) . . .
238(8) . . .
223(8) . . .
221(8) . . .
212(8) . . .
211(8) . . .
233(8) . . .
230(8) . . .
235(8) . . .
248(9) . . .
244(8) . . .
238(8) . . .
239(8) . . .
236(8) . . .
249(9) . . .
232(8) . . .
248(8) . . .
236(8) . . .
235(8) . . .
238(8) . . .
233(8) . . .
226(8) . . .
241(8) . . .
242(8) . . .
242(9) . . .
239(8) . . .
252(8) . . .
251(9) . . .
224(8) . . .
219(8) . . .
211(8) . . .
217(8) . . .
244(8) . . .
230(8) . . .
231(8) . . .
246(8) . . .
243(8) . . .
219(8) . . .
243(9) . . .
234(8) . . .
238(8) . . .
229(8) . . .
220(8) . . .
213(8) . . .
227(8) . . .
246(8) . . .
230(8) . . .
222(8) . . .
208(8) . . .
221(8) . . .
220(8) . . .
236(8) . . .
235(8) . . .
210(8) . . .
214(8) . . .
239(8) . . .
237(8) . . .
215(8) . . .
213(8) . . .
226(8) . . .
209(8) . . .
221(8) . . .
234(8) . . .
230(8) . . .
220(8) . . .
220(8) . . .
212(8) . . .
228(8) . . .
230(8) . . .
242(8) . . .
222(8) . . .
214(8) . . .
225(8) . . .
218(8) . . .
214(8) . . .
219(8) . . .
228(8) . . .
240(8) . . .
225(8) . . .
235(8) . . .
204(7) . . .
235(8) . . .
213(8) . . .
221(8) . . .
222(8) . . .
211(8) . . .
248(8) . . .
236(8) . . .
240(8) . . .
221(8) . . .
214(8) . . .
197(7) . . .
218(8) . . .
214(8) . . .
230(8) . . .
224(8) . . .
222(8) . . .
231(9) . . .
225(8) . . .
224(8) . . .
194(7) . . .
211(8) . . .
214(8) . . .
214(8) . . .
190(7) . . .
215(8) . . .
228(8) . . .
230(8) . . .
223(8) . . .
216(8) . . .
215(8) . . .
242(8) . . .
219(8) . . .
241(8) . . .
232(8) . . .
229(8) . . .
225(8) . . .
240(9) . . .
239(8) . . .
225(8) . . .
211(8) . . .
229(8) . . .
217(8) . . .
237(8) . . .
206(7) . . .
223(8) . . .
227(8) . . .
210(8) . . .
235(8) . . .
234(8) . . .
201(8) . . .
246(9) . . .
237(8) . . .
223(8) . . .
221(8) . . .
231(8) . . .
203(8) . . .
222(8) . . .
215(8) . . .
228(8) . . .
233(8) . . .
198(7) . . .
245(8) . . .
227(8) . . .
235(8) . . .
238(8) . . .
242(9) . . .
234(8) . . .
238(8) . . .
226(8) . . .
250(9) . . .
239(9) . . .
230(8) . . .
250(8) . . .
230(8) . . .
197(8) . . .
219(8) . . .
224(8) . . .
228(8) . . .
220(8) . . .
241(8) . . .
217(8) . . .
197(7) . . .
224(8) . . .
202(7) . . .
216(8) . . .
213(8) . . .
216(8) . . .
217(8) . . .
227(8) . . .
214(8) . . .
218(8) . . .
220(8) . . .
199(7) . . .
216(8) . . .
219(8) . . .
215(8) . . .
221(8) . . .
224(8) . . .
225(8) . . .
215(8) . . .
223(8) . . .
230(8) . . .
256(8) . . .
221(8) . . .
228(8) . . .
221(8) . . .
238(8) . . .
242(8) . . .
218(8) . . .
207(8) . . .
211(8) . . .
215(8) . . .
202(7) . . .
243(9) . . .
217(8) . . .
232(8) . . .
213(8) . . .
229(8) . . .
207(8) . . .
229(8) . . .
220(8) . . .
221(8) . . .
199(7) . . .
200(8) . . .
223(8) . . .
236(8) . . .
236(8) . . .
221(8) . . .
214(8) . . .
235(9) . . .
212(8) . . .
217(8) . . .
223(8) . . .
212(8) . . .
206(8) . . .
233(8) . . .
237(8) . . .
206(7) . . .
206(8) . . .
202(8) . . .
217(8) . . .
228(8) . . .
202(7) . . .
233(8) . . .
221(8) . . .
206(8) . . .
223(8) . . .
214(8) . . .
198(8) . . .
199(8) . . .
225(8) . . .
214(8) . . .
216(8) . . .
226(8) . . .
218(8) . . .
209(8) . . .
214(8) . . .
240(8) . . .
213(8) . . .
235(8) . . .
207(7) . . .
209(8) . . .
212(8) . . .
213(8) . . .
229(8) . . .
212(8) . . .
216(8) . . .
231(8) . . .
202(8) . . .
199(8) . . .
214(8) . . .
211(8) . . .
199(7) . . .
217(8) . . .
225(8) . . .
206(7) . . .
220(8) . . .
217(8) . . .
220(8) . . .
204(8) . . .
217(8) . . .
237(8) . . .
226(8) . . .
225(8) . . .
223(8) . . .
229(8) . . .
195(7) . . .
208(8) . . .
208(8) . . .
230(8) . . .
215(8) . . .
228(8) . . .
195(8) . . .
204(8) . . .
210(8) . . .
224(8) . . .
207(8) . . .
199(8) . . .
217(8) . . .
223(8) . . .
211(8) . . .
226(8) . . .
239(8) . . .
215(8) . . .
222(8) . . .
224(8) . . .
182(7) . . .
226(8) . . .
224(8) . . .
213(8) . . .
218(8) . . .
200(8) . . .
220(8) . . .
222(8) . . .
229(8) . . .
203(7) . . .
195(7) . . .
213(8) . . .
217(8) . . .
231(8) . . .
225(8) . . .
233(8) . . .
249(9) . . .
233(8) . . .
220(8) . . .
211(7) . . .
220(8) . . .
226(9) . . .
220(8) . . .
217(8) . . .
225(8) . . .
210(8) . . .
232(8) . . .
235(8) . . .
249(8) . . .
242(8) . . .
253(9) . . .
221(8) . . .
210(8) . . .
227(8) . . .
215(8) . . .
243(8) . . .
221(8) . . .
241(8) . . .
227(8) . . .
237(8) . . .
231(8) . . .
238(8) . . .
259(9) . . .
251(8) . . .
250(9) . . .
261(9) . . .
254(9) . . .
239(8) . . .
265(8) . . .
253(9) . . .
259(9) . . .
265(9) . . .
229(8) . . .
230(8) . . .
252(9) . . .
250(9) . . .
240(8) . . .
237(8) . . .
229(8) . . .
226(8) . . .
254(9) . . .
249(9) . . .
243(8) . . .
220(8) . . .
245(8) . . .
208(8) . . .
205(8) . . .
231(8) . . .
244(8) . . .
219(8) . . .
198(8) . . .
217(8) . . .
217(8) . . .
211(8) . . .
220(8) . . .
231(9) . . .
222(8) . . .
227(8) . . .
229(8) . . .
225(8) . . .
217(8) . . .
202(8) . . .
229(8) . . .
218(8) . . .
217(8) . . .
202(8) . . .
225(8) . . .
228(8) . . .
200(7) . . .
223(8) . . .
229(8) . . .
233(8) . . .
217(8) . . .
200(8) . . .
216(8) . . .
223(8) . . .
214(8) . . .
207(7) . . .
187(7) . . .
202(8) . . .
225(8) . . .
230(8) . . .
221(8) . . .
218(8) . . .
228(8) . . .
195(7) . . .
212(8) . . .
211(8) . . .
220(8) . . .
210(8) . . .
215(8) . . .
216(8) . . .
219(8) . . .
232(8) . . .
227(8) . . .
205(8) . . .
195(7) . . .
197(7) . . .
219(8) . . .
220(8) . . .
206(8) . . .
225(8) . . .
202(7) . . .
227(8) . . .
209(8) . . .
209(8) . . .
220(8) . . .
238(8) . . .
205(8) . . .
206(8) . . .
210(8) . . .
219(8) . . .
220(8) . . .
214(8) . . .
195(8) . . .
192(8) . . .
216(8) . . .
224(8) . . .
214(8) . . .
204(8) . . .
214(8) . . .
205(7) . . .
218(8) . . .
206(8) . . .
212(8) . . .
206(8) . . .
210(8) . . .
198(7) . . .
210(8) . . .
219(8) . . .
209(8) . . .
211(8) . . .
208(8) . . .
216(8) . . .
187(7) . . .
216(8) . . .
213(8) . . .
204(8) . . .
209(8) . . .
218(8) . . .
226(8) . . .
201(7) . . .
196(8) . . .
195(8) . . .
229(8) . . .
210(8) . . .
210(8) . . .
209(8) . . .
208(8) . . .
205(8) . . .
197(7) . . .
192(7) . . .
223(8) . . .
207(8) . . .
217(8) . . .
206(7) . . .
220(8) . . .
218(8) . . .
224(8) . . .
204(8) . . .
196(7) . . .
183(7) . . .
217(8) . . .
219(8) . . .
218(8) . . .
217(8) . . .
230(8) . . .
211(8) . . .
198(8) . . .
218(8) . . .
217(8) . . .
205(7) . . .
220(8) . . .
219(8) . . .
210(8) . . .
210(8) . . .
219(8) . . .
206(8) . . .
223(8) . . .
221(8) . . .
220(8) . . .
226(8) . . .
224(8) . . .
218(8) . . .
212(8) . . .
221(8) . . .
222(8) . . .
213(8) . . .
213(8) . . .
217(8) . . .
195(7) . . .
230(8) . . .
215(8) . . .
218(8) . . .
223(8) . . .
214(8) . . .
238(8) . . .
210(8) . . .
194(7) . . .
223(8) . . .
211(8) . . .
193(7) . . .
216(8) . . .
204(8) . . .
207(7) . . .
201(7) . . .
215(8) . . .
195(8) . . .
198(8) . . .
216(8) . . .
205(7) . . .
235(8) . . .
209(8) . . .
215(8) . . .
213(8) . . .
201(7) . . .
201(8) . . .
208(8) . . .
221(8) . . .
215(8) . . .
207(7) . . .
218(8) . . .
221(8) . . .
235(8) . . .
199(7) . . .
218(8) . . .
225(8) . . .
241(9) . . .
238(8) . . .
241(8) . . .
243(8) . . .
223(8) . . .
259(9) . . .
278(9) . . .
248(8) . . .
223(8) . . .
224(8) . . .
262(9) . . .
236(8) . . .
234(8) . . .
233(8) . . .
229(8) . . .
220(8) . . .
231(8) . . .
221(8) . . .
234(8) . . .
226(8) . . .
220(8) . . .
208(8) . . .
206(7) . . .
221(8) . . .
222(8) . . .
241(8) . . .
223(8) . . .
206(8) . . .
241(8) . . .
227(8) . . .
232(8) . . .
211(7) . . .
210(8) . . .
216(8) . . .
216(8) . . .
222(8) . . .
222(8) . . .
227(8) . . .
224(8) . . .
223(8) . . .
215(8) . . .
199(7) . . .
224(8) . . .
214(8) . . .
251(9) . . .
218(8) . . .
207(8) . . .
219(8) . . .
241(9) . . .
232(8) . . .
216(8) . . .
219(8) . . .
227(8) . . .
252(9) . . .
230(8) . . .
251(8) . . .
225(8) . . .
234(8) . . .
229(8) . . .
241(9) . . .
242(8) . . .
220(8) . . .
239(8) . . .
224(8) . . .
218(8) . . .
208(7) . . .
243(8) . . .
239(8) . . .
232(8) . . .
220(8) . . .
229(8) . . .
220(8) . . .
231(8) . . .
227(9) . . .
210(8) . . .
237(8) . . .
224(8) . . .
220(8) . . .
207(8) . . .
222(8) . . .
211(8) . . .
207(7) . . .
226(8) . . .
218(8) . . .
210(8) . . .
249(8) . . .
217(8) . . .
196(7) . . .
221(8) . . .
208(8) . . .
227(8) . . .
219(8) . . .
198(7) . . .
204(8) . . .
224(8) . . .
196(7) . . .
228(8) . . .
218(8) . . .
218(8) . . .
208(8) . . .
219(8) . . .
226(8) . . .
221(8) . . .
218(8) . . .
224(8) . . .
201(7) . . .
207(8) . . .
228(8) . . .
216(8) . . .
219(8) . . .
212(8) . . .
240(8) . . .
219(8) . . .
210(8) . . .
226(8) . . .
201(7) . . .
212(8) . . .
210(8) . . .
223(8) . . .
209(8) . . .
225(8) . . .
222(8) . . .
230(8) . . .
224(8) . . .
220(8) . . .
243(8) . . .
243(9) . . .
234(8) . . .
251(9) . . .
242(8) . . .
252(8) . . .
252(9) . . .
241(9) . . .
240(8) . . .
247(8) . . .
218(8) . . .
232(8) . . .
214(8) . . .
207(8) . . .
198(7) . . .
223(8) . . .
216(8) . . .
220(8) . . .
229(8) . . .
201(7) . . .
232(8) . . .
221(8) . . .
200(8) . . .
227(8) . . .
217(8) . . .
244(9) . . .
234(8) . . .
210(8) . . .
214(8) . . .
221(8) . . .
252(8) . . .
234(9) . . .
226(8) . . .
216(8) . . .
220(8) . . .
220(8) . . .
225(8) . . .
207(8) . . .
235(8) . . .
205(7) . . .
209(8) . . .
217(8) . . .
228(8) . . .
200(7) . . .
197(7) . . .
207(8) . . .
211(8) . . .
215(8) . . .
214(8) . . .
204(8) . . .
209(8) . . .
193(8) . . .
198(7) . . .
203(8) . . .
226(8) . . .
224(8) . . .
211(8) . . .
210(8) . . .
221(8) . . .
199(7) . . .
198(8) . . .
188(7) . . .
219(8) . . .
224(8) . . .
223(8) . . .
187(7) . . .
213(8) . . .
202(8) . . .
231(8) . . .
231(8) . . .
207(8) . . .
211(8) . . .
205(8) . . .
198(7) . . .
195(7) . . .
194(7) . . .
216(8) . . .
203(8) . . .
215(8) . . .
198(8) . . .
197(8) . . .
207(8) . . .
181(7) . . .
215(8) . . .
195(8) . . .
191(8) . . .
209(8) . . .
189(7) . . .
209(8) . . .
209(8) . . .
212(8) . . .
224(8) . . .
211(8) . . .
198(7) . . .
218(8) . . .
201(8) . . .
195(7) . . .
196(7) . . .
203(7) . . .
210(8) . . .
230(9) . . .
194(7) . . .
205(7) . . .
214(8) . . .
215(8) . . .
211(8) . . .
217(8) . . .
199(7) . . .
220(8) . . .
212(8) . . .
192(8) . . .
212(8) . . .
191(7) . . .
203(7) . . .
208(8) . . .
232(8) . . .
221(8) . . .
205(8) . . .
228(8) . . .
226(8) . . .
216(8) . . .
230(8) . . .
222(8) . . .
227(8) . . .
204(8) . . .
198(7) . . .
228(8) . . .
216(8) . . .
232(8) . . .
217(8) . . .
211(8) . . .
205(8) . . .
206(7) . . .
214(8) . . .
228(8) . . .
239(8) . . .
224(8) . . .
209(8) . . .
218(8) . . .
213(8) . . .
212(8) . . .
211(8) . . .
231(8) . . .
216(8) . . .
221(8) . . .
226(8) . . .
226(8) . . .
214(8) . . .
239(8) . . .
238(9) . . .
240(8) . . .
230(8) . . .
248(8) . . .
257(9) . . .
250(9) . . .
243(9) . . .
249(8) . . .
258(8) . . .
270(9) . . .
243(8) . . .
239(8) . . .
260(8) . . .
265(9) . . .
261(9) . . .
231(8) . . .
238(8) . . .
231(8) . . .
249(8) . . .
251(8) . . .
231(8) . . .
221(8) . . .
231(8) . . .
240(8) . . .
210(8) . . .
226(8) . . .
233(8) . . .
209(8) . . .
217(8) . . .
205(8) . . .
234(9) . . .
217(8) . . .
214(8) . . .
216(8) . . .
217(8) . . .
222(8) . . .
204(8) . . .
214(8) . . .
209(8) . . .
205(8) . . .
207(8) . . .
213(8) . . .
200(7) . . .
185(7) . . .
211(8) . . .
228(8) . . .
221(8) . . .
212(8) . . .
205(8) . . .
224(9) . . .
219(8) . . .
212(8) . . .
191(7) . . .
202(8) . . .
217(8) . . .
221(8) . . .
222(8) . . .
207(7) . . .
211(8) . . .
209(8) . . .
192(7) . . .
203(7) . . .
214(8) . . .
214(8) . . .
198(8) . . .
207(8) . . .
180(7) . . .
202(8) . . .
213(8) . . .
195(8) . . .
216(8) . . .
212(8) . . .
202(8) . . .
236(8) . . .
224(8) . . .
218(8) . . .
212(8) . . .
210(8) . . .
199(8) . . .
215(8) . . .
211(8) . . .
215(8) . . .
229(8) . . .
211(8) . . .
207(8) . . .
219(8) . . .
221(8) . . .
210(8) . . .
197(8) . . .
193(8) . . .
201(8) . . .
198(7) . . .
221(8) . . .
213(8) . . .
224(8) . . .
226(8) . . .
208(8) . . .
196(8) . . .
215(8) . . .
242(8) . . .
212(8) . . .
214(8) . . .
215(8) . . .
212(8) . . .
221(8) . . .
209(7) . . .
207(8) . . .
214(8) . . .
200(8) . . .
214(8) . . .
206(7) . . .
207(8) . . .
210(8) . . .
243(9) . . .
229(8) . . .
206(8) . . .
198(7) . . .
225(8) . . .
233(8) . . .
205(8) . . .
224(8) . . .
198(7) . . .
188(7) . . .
204(8) . . .
203(8) . . .
198(7) . . .
217(8) . . .
210(8) . . .
232(8) . . .
196(8) . . .
215(8) . . .
205(8) . . .
218(8) . . .
206(8) . . .
200(7) . . .
237(8) . . .
219(8) . . .
195(8) . . .
226(8) . . .
231(8) . . .
227(8) . . .
223(8) . . .
224(8) . . .
258(9) . . .
240(8) . . .
228(8) . . .
246(8) . . .
223(8) . . .
246(9) . . .
268(9) . . .
273(9) . . .
249(8) . . .
248(9) . . .
252(8) . . .
243(8) . . .
229(8) . . .
223(8) . . .
227(8) . . .
217(8) . . .
241(8) . . .
236(8) . . .
216(8) . . .
201(8) . . .
215(8) . . .
222(8) . . .
235(8) . . .
212(8) . . .
212(8) . . .
213(8) . . .
199(7) . . .
211(8) . . .
215(8) . . .
235(8) . . .
204(8) . . .
213(8) . . .
211(8) . . .
212(8) . . .
220(8) . . .
217(8) . . .
188(7) . . .
198(8) . . .
224(8) . . .
201(8) . . .
225(8) . . .
209(8) . . .
210(8) . . .
205(8) . . .
210(8) . . .
206(8) . . .
209(8) . . .
202(8) . . .
212(8) . . .
231(8) . . .
194(7) . . .
201(7) . . .
210(8) . . .
218(8) . . .
229(8) . . .
249(8) . . .
205(7) . . .
222(8) . . .
213(8) . . .
211(8) . . .
209(8) . . .
210(8) . . .
236(8) . . .
220(8) . . .
211(8) . . .
229(8) . . .
196(7) . . .
213(8) . . .
198(8) . . .
189(7) . . .
197(7) . . .
198(7) . . .
198(8) . . .
205(8) . . .
186(7) . . .
220(8) . . .
215(8) . . .
199(8) . . .
199(8) . . .
216(8) . . .
208(7) . . .
206(8) . . .
193(8) . . .
187(7) . . .
191(7) . . .
207(7) . . .
194(7) . . .
184(7) . . .
209(8) . . .
222(8) . . .
217(8) . . .
197(8) . . .
198(8) . . .
212(8) . . .
197(7) . . .
197(7) . . .
211(8) . . .
206(8) . . .
207(8) . . .
197(7) . . .
197(7) . . .
208(8) . . .
208(8) . . .
198(7) . . .
206(8) . . .
184(7) . . .
196(8) . . .
199(8) . . .
197(8) . . .
201(7) . . .
179(7) . . .
203(8) . . .
200(8) . . .
200(8) . . .
198(7) . . .
184(7) . . .
201(8) . . .
197(8) . . .
206(8) . . .
190(7) . . .
206(7) . . .
206(8) . . .
225(8) . . .
197(8) . . .
205(7) . . .
211(8) . . .
185(7) . . .
198(8) . . .
204(8) . . .
203(7) . . .
211(8) . . .
206(8) . . .
195(8) . . .
194(7) . . .
187(7) . . .
192(7) . . .
194(8) . . .
192(7) . . .
198(7) . . .
228(8) . . .
215(8) . . .
231(8) . . .
209(8) . . .
205(7) . . .
194(7) . . .
234(8) . . .
221(8) . . .
237(8) . . .
227(8) . . .
189(7) . . .
210(8) . . .
211(8) . . .
222(8) . . .
224(8) . . .
197(7) . . .
224(8) . . .
225(8) . . .
209(8) . . .
198(7) . . .
200(7) . . .
192(8) . . .
191(8) . . .
211(8) . . .
197(7) . . .
204(7) . . .
203(8) . . .
221(8) . . .
205(8) . . .
196(7) . . .
219(8) . . .
200(8) . . .
203(8) . . .
190(7) . . .
210(8) . . .
217(8) . . .
219(8) . . .
228(8) . . .
208(8) . . .
209(8) . . .
201(8) . . .
203(8) . . .
202(8) . . .
186(7) . . .
207(7) . . .
227(8) . . .
211(8) . . .
198(8) . . .
200(7) . . .
216(8) . . .
216(8) . . .
214(8) . . .
208(8) . . .
244(8) . . .
217(8) . . .
211(8) . . .
231(8) . . .
216(8) . . .
206(7) . . .
222(8) . . .
218(8) . . .
201(8) . . .
229(8) . . .
213(8) . . .
198(7) . . .
192(7) . . .
207(8) . . .
225(8) . . .
208(7) . . .
223(8) . . .
218(8) . . .
220(8) . . .
234(8) . . .
210(8) . . .
243(8) . . .
233(8) . . .
229(8) . . .
227(8) . . .
226(8) . . .
238(8) . . .
237(8) . . .
240(9) . . .
232(8) . . .
233(8) . . .
228(8) . . .
228(8) . . .
240(8) . . .
229(8) . . .
228(8) . . .
219(8) . . .
222(8) . . .
212(8) . . .
223(8) . . .
221(8) . . .
223(8) . . .
230(8) . . .
243(8) . . .
250(8) . . .
223(8) . . .
233(8) . . .
242(8) . . .
240(8) . . .
236(8) . . .
223(8) . . .
238(8) . . .
226(8) . . .
189(7) . . .
240(8) . . .
247(8) . . .
235(8) . . .
226(8) . . .
243(9) . . .
223(8) . . .
236(8) . . .
231(8) . . .
227(8) . . .
237(8) . . .
242(8) . . .
248(8) . . .
227(8) . . .
227(8) . . .
232(8) . . .
246(8) . . .
234(8) . . .
235(8) . . .
241(9) . . .
206(8) . . .
240(8) . . .
211(8) . . .
233(8) . . .
234(9) . . .
240(9) . . .
243(8) . . .
234(8) . . .
204(8) . . .
218(8) . . .
220(8) . . .
227(8) . . .
223(8) . . .
199(8) . . .
203(8) . . .
212(8) . . .
193(7) . . .
187(7) . . .
222(8) . . .
208(8) . . .
214(8) . . .
229(8) . . .
200(8) . . .
210(8) . . .
211(8) . . .
217(8) . . .
213(8) . . .
203(8) . . .
193(8) . . .
228(8) . . .
208(8) . . .
206(7) . . .
190(7) . . .
195(8) . . .
217(8) . . .
194(7) . . .
197(7) . . .
212(8) . . .
202(8) . . .
195(7) . . .
212(8) . . .
193(7) . . .
224(8) . . .
219(8) . . .
222(8) . . .
199(7) . . .
197(7) . . .
206(8) . . .
219(8) . . .
207(8) . . .
194(7) . . .
208(7) . . .
221(8) . . .
204(8) . . .
219(8) . . .
196(7) . . .
203(7) . . .
203(8) . . .
206(8) . . .
200(8) . . .
231(8) . . .
188(7) . . .
192(7) . . .
220(8) . . .
225(8) . . .
211(8) . . .
232(8) . . .
221(8) . . .
190(7) . . .
214(8) . . .
211(8) . . .
234(8) . . .
225(8) . . .
213(8) . . .
211(8) . . .
212(8) . . .
203(8) . . .
194(8) . . .
187(7) . . .
202(7) . . .
238(8) . . .
208(8) . . .
216(8) . . .
195(7) . . .
220(8) . . .
192(7) . . .
193(7) . . .
226(8) . . .
203(8) . . .
205(7) . . .
226(8) . . .
219(8) . . .
218(8) . . .
207(8) . . .
213(8) . . .
207(7) . . .
225(8) . . .
192(8) . . .
202(8) . . .
208(7) . . .
197(7) . . .
190(8) . . .
197(8) . . .
189(7) . . .
206(7) . . .
169(7) . . .
192(7) . . .
232(8) . . .
223(8) . . .
213(8) . . .
209(8) . . .
203(7) . . .
199(8) . . .
215(8) . . .
199(7) . . .
189(7) . . .
219(8) . . .
188(7) . . .
202(8) . . .
206(7) . . .
219(8) . . .
219(8) . . .
209(8) . . .
217(8) . . .
199(7) . . .
201(8) . . .
194(8) . . .
204(8) . . .
213(8) . . .
209(8) . . .
224(8) . . .
214(8) . . .
206(8) . . .
217(8) . . .
237(8) . . .
232(8) . . .
234(9) . . .
221(8) . . .
213(8) . . .
188(7) . . .
212(8) . . .
208(8) . . .
216(8) . . .
206(7) . . .
194(7) . . .
211(8) . . .
220(8) . . .
222(8) . . .
207(7) . . .
180(7) . . .
207(8) . . .
200(8) . . .
217(8) . . .
240(8) . . .
237(8) . . .
211(8) . . .
207(8) . . .
230(8) . . .
226(8) . . .
207(8) . . .
218(8) . . .
208(8) . . .
219(8) . . .
226(8) . . .
224(8) . . .
214(8) . . .
213(8) . . .
234(8) . . .
220(8) . . .
210(8) . . .
237(8) . . .
224(8) . . .
237(8) . . .
208(8) . . .
230(8) . . .
209(8) . . .
223(8) . . .
240(8) . . .
225(8) . . .
207(8) . . .
214(8) . . .
226(8) . . .
218(8) . . .
231(8) . . .
228(8) . . .
216(8) . . .
221(8) . . .
221(8) . . .
219(8) . . .
220(8) . . .
213(8) . . .
220(8) . . .
209(7) . . .
220(8) . . .
252(9) . . .
240(9) . . .
254(9) . . .
244(8) . . .
232(8) . . .
236(8) . . .
219(8) . . .
192(7) . . .
221(8) . . .
195(7) . . .
208(8) . . .
224(8) . . .
213(8) . . .
194(7) . . .
214(8) . . .
218(8) . . .
210(8) . . .
219(8) . . .
212(8) . . .
212(8) . . .
205(8) . . .
210(8) . . .
216(8) . . .
201(7) . . .
200(7) . . .
214(8) . . .
227(8) . . .
213(8) . . .
213(8) . . .
209(8) . . .
220(8) . . .
223(8) . . .
199(8) . . .
196(7) . . .
213(8) . . .
213(8) . . .
235(9) . . .
223(8) . . .
228(8) . . .
210(8) . . .
200(8) . . .
214(8) . . .
208(7) . . .
209(8) . . .
228(8) . . .
226(8) . . .
227(8) . . .
215(8) . . .
228(8) . . .
211(8) . . .
214(8) . . .
226(8) . . .
215(8) . . .
211(8) . . .
235(8) . . .
237(9) . . .
213(8) . . .
203(7) . . .
213(8) . . .
217(8) . . .
215(8) . . .
221(8) . . .
199(7) . . .
231(8) . . .
227(8) . . .
201(8) . . .
210(8) . . .
209(8) . . .
199(7) . . .
212(8) . . .
198(8) . . .
209(8) . . .
215(8) . . .
206(8) . . .
206(8) . . .
210(8) . . .
193(8) . . .
219(8) . . .
196(7) . . .
191(7) . . .
192(8) . . .
192(8) . . .
189(7) . . .
190(8) . . .
197(8) . . .
207(8) . . .
224(8) . . .
221(8) . . .
228(8) . . .
214(8) . . .
217(8) . . .
207(8) . . .
190(7) . . .
184(7) . . .
212(8) . . .
206(8) . . .
210(8) . . .
198(7) . . .
220(8) . . .
199(8) . . .
186(7) . . .
195(7) . . .
212(8) . . .
202(8) . . .
223(8) . . .
214(8) . . .
200(7) . . .
192(7) . . .
210(8) . . .
198(8) . . .
228(8) . . .
203(7) . . .
193(7) . . .
203(8) . . .
216(8) . . .
199(8) . . .
202(7) . . .
218(8) . . .
221(8) . . .
179(7) . . .
211(8) . . .
203(7) . . .
187(7) . . .
188(7) . . .
210(8) . . .
201(8) . . .
190(7) . . .
201(7) . . .
210(8) . . .
217(8) . . .
210(8) . . .
182(7) . . .
200(8) . . .
196(8) . . .
202(8) . . .
222(8) . . .
185(7) . . .
185(7) . . .
197(8) . . .
191(7) . . .
206(8) . . .
181(7) . . .
203(8) . . .
199(8) . . .
199(8) . . .
202(7) . . .
208(8) . . .
216(8) . . .
221(9) . . .
225(8) . . .
199(7) . . .
211(8) . . .
245(9) . . .
223(8) . . .
209(8) . . .
231(8) . . .
206(7) . . .
208(8) . . .
219(8) . . .
220(8) . . .
214(8) . . .
227(8) . . .
214(8) . . .
218(8) . . .
201(8) . . .
217(8) . . .
221(8) . . .
214(8) . . .
226(8) . . .
230(8) . . .
230(8) . . .
194(7) . . .
226(8) . . .
215(8) . . .
228(8) . . .
230(8) . . .
224(8) . . .
221(8) . . .
215(8) . . .
234(8) . . .
201(7) . . .
213(8) . . .
218(8) . . .
221(8) . . .
223(8) . . .
211(8) . . .
195(8) . . .
203(8) . . .
220(8) . . .
214(8) . . .
210(8) . . .
208(8) . . .
215(8) . . .
213(8) . . .
215(8) . . .
206(7) . . .
216(8) . . .
216(8) . . .
198(7) . . .
230(8) . . .
219(8) . . .
195(7) . . .
204(8) . . .
177(7) . . .
202(7) . . .
191(7) . . .
207(8) . . .
230(9) . . .
203(8) . . .
203(8) . . .
219(8) . . .
201(8) . . .
199(8) . . .
184(7) . . .
201(7) . . .
198(7) . . .
197(8) . . .
208(8) . . .
194(8) . . .
202(7) . . .
192(7) . . .
192(8) . . .
197(8) . . .
215(8) . . .
205(7) . . .
200(7) . . .
203(8) . . .
218(8) . . .
227(8) . . .
201(7) . . .
173(7) . . .
219(8) . . .
227(8) . . .
205(8) . . .
203(7) . . .
231(8) . . .
209(8) . . .
222(8) . . .
193(7) . . .
201(7) . . .
218(8) . . .
218(8) . . .
195(7) . . .
208(8) . . .
195(7) . . .
182(7) . . .
179(7) . . .
180(7) . . .
204(8) . . .
197(7) . . .
197(8) . . .
198(8) . . .
195(8) . . .
224(8) . . .
214(8) . . .
183(7) . . .
208(8) . . .
197(8) . . .
211(8) . . .
205(7) . . .
226(8) . . .
201(8) . . .
186(7) . . .
185(7) . . .
192(7) . . .
192(7) . . .
194(8) . . .
196(7) . . .
196(7) . . .
200(8) . . .
203(8) . . .
187(7) . . .
209(8) . . .
183(7) . . .
198(7) . . .
217(8) . . .
210(8) . . .
206(8) . . .
179(7) . . .
191(7) . . .
186(8) . . .
195(8) . . .
184(7) . . .
184(7) . . .
202(8) . . .
177(7) . . .
184(7) . . .
194(8) . . .
202(7) . . .
191(8) . . .
193(8) . . .
175(7) . . .
199(8) . . .
192(7) . . .
202(8) . . .
188(8) . . .
208(8) . . .
205(7) . . .
217(8) . . .
196(7) . . .
205(8) . . .
191(8) . . .
186(7) . . .
195(7) . . .
217(8) . . .
224(9) . . .
205(8) . . .
211(8) . . .
173(7) . . .
199(8) . . .
213(8) . . .
210(8) . . .
200(7) . . .
181(7) . . .
204(8) . . .
209(8) . . .
208(8) . . .
179(7) . . .
195(7) . . .
204(8) . . .
193(7) . . .
228(8) . . .
212(8) . . .
196(7) . . .
212(8) . . .
210(8) . . .
200(8) . . .
221(8) . . .
219(8) . . .
188(7) . . .
210(8) . . .
201(7) . . .
216(8) . . .
198(7) . . .
207(8) . . .
193(8) . . .
186(7) . . .
221(8) . . .
215(8) . . .
204(8) . . .
200(8) . . .
197(7) . . .
200(7) . . .
218(8) . . .
205(8) . . .
221(8) . . .
182(7) . . .
204(7) . . .
214(8) . . .
222(8) . . .
198(8) . . .
215(8) . . .
204(7) . . .
213(8) . . .
228(9) . . .
203(7) . . .
232(8) . . .
207(8) . . .
220(8) . . .
207(8) . . .
210(8) . . .
210(8) . . .
206(7) . . .
208(8) . . .
230(9) . . .
199(7) . . .
201(7) . . .
229(8) . . .
186(7) . . .
201(8) . . .
195(7) . . .
199(7) . . .
207(8) . . .
194(8) . . .
207(8) . . .
226(8) . . .
213(8) . . .
205(8) . . .
192(7) . . .
191(7) . . .
197(7) . . .
193(7) . . .
232(8) . . .
200(8) . . .
213(8) . . .
214(8) . . .
210(7) . . .
214(8) . . .
191(7) . . .
195(8) . . .
204(8) . . .
238(8) . . .
190(7) . . .
206(8) . . .
213(8) . . .
189(7) . . .
205(8) . . .
201(8) . . .
202(8) . . .
202(8) . . .
206(7) . . .
184(7) . . .
210(8) . . .
231(8) . . .
203(7) . . .
212(8) . . .
212(8) . . .
199(8) . . .
197(8) . . .
213(8) . . .
216(8) . . .
187(7) . . .
205(8) . . .
187(7) . . .
202(8) . . .
201(7) . . .
180(7) . . .
220(8) . . .
214(8) . . .
201(7) . . .
190(7) . . .
191(7) . . .
188(7) . . .
188(7) . . .
186(7) . . .
204(7) . . .
197(8) . . .
193(7) . . .
183(7) . . .
201(8) . . .
193(7) . . .
198(7) . . .
192(7) . . .
191(7) . . .
207(8) . . .
207(7) . . .
195(8) . . .
193(8) . . .
213(8) . . .
225(8) . . .
196(7) . . .
196(8) . . .
193(8) . . .
192(7) . . .
188(7) . . .
224(8) . . .
214(8) . . .
199(8) . . .
208(8) . . .
184(7) . . .
186(7) . . .
203(8) . . .
209(8) . . .
206(8) . . .
203(7) . . .
204(7) . . .
221(8) . . .
189(8) . . .
178(7) . . .
203(7) . . .
191(7) . . .
201(8) . . .
213(8) . . .
217(8) . . .
192(7) . . .
218(8) . . .
213(8) . . .
200(8) . . .
205(8) . . .
193(7) . . .
210(8) . . .
211(8) . . .
213(8) . . .
226(8) . . .
217(8) . . .
206(8) . . .
207(8) . . .
211(8) . . .
209(8) . . .
203(7) . . .
182(7) . . .
197(8) . . .
220(8) . . .
215(8) . . .
207(7) . . .
201(7) . . .
219(8) . . .
199(7) . . .
201(7) . . .
182(7) . . .
197(7) . . .
189(7) . . .
185(7) . . .
191(7) . . .
207(8) . . .
200(8) . . .
205(8) . . .
200(8) . . .
187(7) . . .
184(7) . . .
189(7) . . .
198(8) . . .
210(8) . . .
212(8) . . .
194(7) . . .
201(8) . . .
207(8) . . .
195(7) . . .
197(7) . . .
193(7) . . .
200(8) . . .
200(8) . . .
225(8) . . .
212(8) . . .
203(7) . . .
199(8) . . .
202(8) . . .
219(8) . . .
205(7) . . .
210(8) . . .
186(7) . . .
205(8) . . .
204(8) . . .
198(7) . . .
190(7) . . .
200(8) . . .
202(8) . . .
203(8) . . .
200(7) . . .
223(8) . . .
213(8) . . .
221(8) . . .
217(8) . . .
192(7) . . .
227(8) . . .
206(8) . . .
199(8) . . .
182(7) . . .
205(7) . . .
209(8) . . .
201(8) . . .
200(8) . . .
215(8) . . .
215(8) . . .
206(8) . . .
218(8) . . .
212(8) . . .
200(7) . . .
201(7) . . .
180(7) . . .
185(8) . . .
185(7) . . .
214(8) . . .
199(7) . . .
212(8) . . .
200(8) . . .
178(7) . . .
198(7) . . .
194(7) . . .
204(8) . . .
187(8) . . .
200(8) . . .
202(7) . . .
200(7) . . .
188(7) . . .
182(7) . . .
201(8) . . .
183(7) . . .
206(8) . . .
199(8) . . .
188(7) . . .
188(7) . . .
189(7) . . .
163(7) . . .
195(8) . . .
192(7) . . .
192(7) . . .
191(7) . . .
187(7) . . .
169(7) . . .
200(8) . . .
180(7) . . .
193(7) . . .
212(8) . . .
184(8) . . .
200(8) . . .
208(8) . . .
197(7) . . .
198(8) . . .
200(8) . . .
188(7) . . .
200(8) . . .
200(7) . . .
204(8) . . .
191(8) . . .
194(8) . . .
184(7) . . .
193(7) . . .
180(7) . . .
185(8) . . .
198(8) . . .
198(7) . . .
193(7) . . .
212(8) . . .
179(7) . . .
205(8) . . .
185(7) . . .
191(7) . . .
198(8) . . .
195(8) . . .
198(8) . . .
204(7) . . .
188(7) . . .
188(7) . . .
218(8) . . .
187(7) . . .
192(7) . . .
179(7) . . .
185(8) . . .
194(8) . . .
211(8) . . .
204(7) . . .
187(7) . . .
198(8) . . .
170(7) . . .
171(7) . . .
178(7) . . .
178(7) . . .
199(8) . . .
209(8) . . .
186(7) . . .
167(7) . . .
197(7) . . .
200(8) . . .
190(8) . . .
191(7) . . .
183(7) . . .
195(8) . . .
200(8) . . .
197(7) . . .
185(7) . . .
165(7) . . .
194(8) . . .
188(7) . . .
197(8) . . .
184(7) . . .
183(7) . . .
206(8) . . .
188(7) . . .
195(8) . . .
181(7) . . .
200(7) . . .
188(7) . . .
196(8) . . .
185(7) . . .
208(8) . . .
208(8) . . .
186(7) . . .
201(8) . . .
187(7) . . .
185(7) . . .
195(7) . . .
201(8) . . .
167(7) . . .
182(7) . . .
199(7) . . .
214(8) . . .
196(8) . . .
176(7) . . .
198(8) . . .
192(7) . . .
180(7) . . .
208(8) . . .
198(8) . . .
187(7) . . .
195(7) . . .
192(7) . . .
202(8) . . .
199(8) . . .
176(7) . . .
179(7) . . .
168(7) . . .
176(7) . . .
211(8) . . .
216(8) . . .
213(8) . . .
180(7) . . .
195(8) . . .
199(8) . . .
193(7) . . .
188(7) . . .
204(8) . . .
190(7) . . .
180(7) . . .
198(7) . . .
197(7) . . .
220(8) . . .
214(8) . . .
196(8) . . .
199(7) . . .
202(7) . . .
201(8) . . .
209(8) . . .
201(8) . . .
200(8) . . .
184(7) . . .
194(8) . . .
207(8) . . .
215(8) . . .
214(8) . . .
214(8) . . .
200(8) . . .
212(8) . . .
216(8) . . .
163(7) . . .
180(7) . . .
194(7) . . .
207(8) . . .
202(8) . . .
182(7) . . .
201(7) . . .
198(7) . . .
204(8) . . .
189(7) . . .
194(7) . . .
195(7) . . .
199(8) . . .
210(8) . . .
188(7) . . .
199(7) . . .
185(7) . . .
214(8) . . .
192(8) . . .
196(8) . . .
190(7) . . .
199(8) . . .
195(8) . . .
215(8) . . .
180(7) . . .
196(7) . . .
179(7) . . .
199(8) . . .
188(7) . . .
187(7) . . .
195(7) . . .
191(8) . . .
205(8) . . .
194(7) . . .
196(7) . . .
197(7) . . .
207(8) . . .
191(7) . . .
209(8) . . .
200(7) . . .
195(7) . . .
201(8) . . .
176(7) . . .
204(8) . . .
187(7) . . .
186(7) . . .
168(7) . . .
191(8) . . .
205(8) . . .
203(7) . . .
190(7) . . .
178(7) . . .
192(8) . . .
201(7) . . .
203(7) . . .
196(7) . . .
180(7) . . .
183(8) . . .
202(8) . . .
204(7) . . .
183(7) . . .
173(7) . . .
177(7) . . .
198(8) . . .
188(7) . . .
188(7) . . .
187(7) . . .
188(7) . . .
174(7) . . .
167(7) . . .
187(7) . . .
174(7) . . .
188(7) . . .
186(7) . . .
191(7) . . .
196(7) . . .
177(7) . . .
173(7) . . .
196(8) . . .
184(7) . . .
186(7) . . .
186(7) . . .
197(8) . . .
177(7) . . .
185(7) . . .
203(8) . . .
193(8) . . .
193(7) . . .
192(7) . . .
194(7) . . .
203(8) . . .
181(7) . . .
182(7) . . .
203(8) . . .
186(7) . . .
186(7) . . .
189(8) . . .
188(7) . . .
206(7) . . .
188(7) . . .
197(8) . . .
193(8) . . .
184(7) . . .
211(8) . . .
174(7) . . .
189(7) . . .
209(8) . . .
178(7) . . .
174(7) . . .
185(7) . . .
196(8) . . .
214(8) . . .
201(8) . . .
194(7) . . .
209(8) . . .
210(8) . . .
209(8) . . .
217(8) . . .
219(8) . . .
198(8) . . .
198(8) . . .
187(7) . . .
199(8) . . .
188(7) . . .
198(8) . . .
201(8) . . .
203(8) . . .
192(7) . . .
209(7) . . .
194(8) . . .
199(8) . . .
197(8) . . .
202(7) . . .
191(7) . . .
196(8) . . .
201(8) . . .
195(8) . . .
208(8) . . .
191(7) . . .
199(8) . . .
191(8) . . .
188(7) . . .
199(7) . . .
189(7) . . .
196(8) . . .
198(8) . . .
200(7) . . .
184(7) . . .
210(8) . . .
183(7) . . .
192(7) . . .
198(7) . . .
196(7) . . .
197(7) . . .
206(8) . . .
198(8) . . .
203(8) . . .
192(7) . . .
199(7) . . .
198(8) . . .
208(8) . . .
177(7) . . .
189(7) . . .
203(7) . . .
197(8) . . .
186(7) . . .
191(7) . . .
179(7) . . .
194(8) . . .
203(8) . . .
170(7) . . .
187(7) . . .
187(7) . . .
201(8) . . .
193(7) . . .
207(8) . . .
176(7) . . .
208(8) . . .
179(7) . . .
195(8) . . .
189(7) . . .
197(7) . . .
214(8) . . .
198(8) . . .
198(8) . . .
191(7) . . .
186(7) . . .
170(7) . . .
183(7) . . .
193(8) . . .
188(7) . . .
175(7) . . .
184(7) . . .
184(7) . . .
199(8) . . .
192(7) . . .
204(7) . . .
206(8) . . .
193(8) . . .
201(8) . . .
196(8) . . .
194(7) . . .
204(7) . . .
202(8) . . .
211(8) . . .
182(7) . . .
206(7) . . .
208(8) . . .
202(8) . . .
196(8) . . .
189(7) . . .
184(7) . . .
181(7) . . .
194(8) . . .
189(8) . . .
190(8) . . .
186(7) . . .
168(7) . . .
188(7) . . .
193(8) . . .
183(7) . . .
190(7) . . .
187(7) . . .
195(7) . . .
187(7) . . .
206(8) . . .
191(7) . . .
205(8) . . .
198(8) . . .
198(8) . . .
191(7) . . .
195(7) . . .
188(7) . . .
202(8) . . .
200(8) . . .
175(7) . . .
204(7) . . .
190(7) . . .
186(7) . . .
196(8) . . .
191(7) . . .
178(7) . . .
188(7) . . .
188(8) . . .
189(7) . . .
187(7) . . .
210(8) . . .
196(8) . . .
200(8) . . .
182(7) . . .
198(7) . . .
195(7) . . .
183(7) . . .
191(8) . . .
174(7) . . .
204(7) . . .
178(7) . . .
176(7) . . .
193(8) . . .
175(7) . . .
198(7) . . .
197(7) . . .
192(7) . . .
188(7) . . .
181(7) . . .
211(8) . . .
175(7) . . .
194(8) . . .
189(7) . . .
196(7) . . .
198(7) . . .
198(7) . . .
205(8) . . .
198(8) . . .
179(7) . . .
190(7) . . .
207(8) . . .
198(8) . . .
202(8) . . .
202(7) . . .
170(7) . . .
188(8) . . .
192(8) . . .
202(8) . . .
191(7) . . .
203(7) . . .
202(8) . . .
202(8) . . .
209(8) . . .
184(7) . . .
193(7) . . .
225(8) . . .
194(8) . . .
196(8) . . .
197(7) . . .
188(7) . . .
194(7) . . .
187(8) . . .
186(7) . . .
204(7) . . .
207(7) . . .
207(8) . . .
170(7) . . .
173(7) . . .
186(7) . . .
202(7) . . .
204(8) . . .
183(8) . . .
195(8) . . .
185(7) . . .
202(7) . . .
200(8) . . .
203(8) . . .
195(7) . . .
225(8) . . .
194(7) . . .
199(8) . . .
210(8) . . .
202(8) . . .
212(8) . . .
197(7) . . .
201(8) . . .
216(8) . . .
199(7) . . .
207(7) . . .
207(8) . . .
202(8) . . .
202(8) . . .
203(8) . . .
200(7) . . .
177(7) . . .
203(8) . . .
208(8) . . .
183(7) . . .
194(7) . . .
210(8) . . .
196(8) . . .
187(7) . . .
219(8) . . .
205(7) . . .
212(8) . . .
208(8) . . .
193(8) . . .
209(8) . . .
208(8) . . .
208(8) . . .
196(8) . . .
200(8) . . .
206(7) . . .
200(7) . . .
214(8) . . .
197(8) . . .
207(8) . . .
198(7) . . .
182(7) . . .
202(8) . . .
219(8) . . .
209(8) . . .
208(7) . . .
199(7) . . .
197(8) . . .
199(8) . . .
195(7) . . .
199(7) . . .
188(7) . . .
211(8) . . .
196(8) . . .
198(8) . . .
178(7) . . .
193(8) . . .
191(8) . . .
193(7) . . .
240(8) . . .
201(7) . . .
174(7) . . .
209(8) . . .
192(7) . . .
198(7) . . .
197(7) . . .
193(8) . . .
185(7) . . .
191(7) . . .
185(7) . . .
203(7) . . .
189(7) . . .
201(8) . . .
196(7) . . .
207(8) . . .
196(7) . . .
178(7) . . .
180(7) . . .
186(7) . . .
188(7) . . .
190(7) . . .
192(8) . . .
178(7) . . .
185(7) . . .
183(7) . . .
209(7) . . .
210(8) . . .
186(8) . . .
194(7) . . .
201(7) . . .
202(7) . . .
190(7) . . .
185(8) . . .
174(7) . . .
182(7) . . .
204(7) . . .
188(7) . . .
176(7) . . .
182(7) . . .
168(7) . . .
190(7) . . .
178(7) . . .
191(7) . . .
194(7) . . .
195(7) . . .
166(7) . . .
189(7) . . .
190(7) . . .
193(8) . . .
178(7) . . .
188(8) . . .
165(7) . . .
168(7) . . .
165(7) . . .
189(7) . . .
190(7) . . .
206(8) . . .
181(7) . . .
209(8) . . .
191(7) . . .
188(7) . . .
191(8) . . .
184(7) . . .
186(7) . . .
178(7) . . .
180(7) . . .
193(8) . . .
189(7) . . .
178(7) . . .
181(7) . . .
187(7) . . .
202(8) . . .
186(7) . . .
195(7) . . .
207(7) . . .
195(8) . . .
193(8) . . .
195(7) . . .
178(7) . . .
184(7) . . .
170(7) . . .
188(8) . . .
207(8) . . .
191(7) . . .
192(7) . . .
188(7) . . .
198(8) . . .
198(8) . . .
168(7) . . .
184(7) . . .
189(7) . . .
197(8) . . .
172(7) . . .
198(7) . . .
194(7) . . .
180(7) . . .
172(7) . . .
181(7) . . .
204(7) . . .
192(7) . . .
184(7) . . .
174(7) . . .
188(7) . . .
176(7) . . .
179(7) . . .
176(7) . . .
178(7) . . .
181(7) . . .
184(7) . . .
187(7) . . .
179(7) . . .
167(7) . . .
192(7) . . .
179(7) . . .
184(7) . . .
174(7) . . .
181(7) . . .
173(7) . . .
189(7) . . .
198(8) . . .
186(7) . . .
198(8) . . .
199(7) . . .
209(8) . . .
185(7) . . .
182(8) . . .
190(7) . . .
186(7) . . .
195(7) . . .
182(7) . . .
200(8) . . .
193(8) . . .
172(7) . . .
182(7) . . .
187(7) . . .
184(7) . . .
169(7) . . .
190(7) . . .
180(7) . . .
166(7) . . .
194(8) . . .
186(7) . . .
185(7) . . .
157(7) . . .
168(7) . . .
191(8) . . .
180(7) . . .
169(7) . . .
181(7) . . .
181(7) . . .
181(7) . . .
194(7) . . .
195(7) . . .
204(8) . . .
181(7) . . .
178(7) . . .
196(7) . . .
207(7) . . .
197(8) . . .
194(8) . . .
176(7) . . .
191(7) . . .
181(7) . . .
196(8) . . .
171(7) . . .
192(8) . . .
198(7) . . .
174(7) . . .
180(7) . . .
205(8) . . .
181(7) . . .
185(7) . . .
165(7) . . .
204(8) . . .
179(7) . . .
172(7) . . .
188(7) . . .
182(7) . . .
193(8) . . .
181(7) . . .
190(7) . . .
196(7) . . .
195(7) . . .
211(8) . . .
184(8) . . .
186(7) . . .
174(7) . . .
197(7) . . .
184(7) . . .
198(8) . . .
193(8) . . .
195(7) . . .
172(7) . . .
176(7) . . .
188(7) . . .
197(8) . . .
186(7) . . .
179(7) . . .
186(7) . . .
187(7) . . .
181(7) . . .
193(7) . . .
192(7) . . .
186(7) . . .
191(7) . . .
181(7) . . .
168(7) . . .
188(7) . . .
188(7) . . .
203(8) . . .
183(7) . . .
187(7) . . .
176(7) . . .
175(7) . . .
186(7) . . .
179(7) . . .
164(7) . . .
189(8) . . .
191(8) . . .
172(7) . . .
181(7) . . .
176(7) . . .
179(7) . . .
185(8) . . .
174(7) . . .
205(8) . . .
196(7) . . .
180(7) . . .
171(7) . . .
185(7) . . .
191(7) . . .
202(7) . . .
182(7) . . .
187(8) . . .
179(7) . . .
206(8) . . .
177(7) . . .
178(7) . . .
173(7) . . .
191(7) . . .
178(7) . . .
179(7) . . .
169(7) . . .
202(8) . . .
201(8) . . .
176(7) . . .
165(7) . . .
171(7) . . .
176(7) . . .
184(7) . . .
198(7) . . .
198(8) . . .
195(8) . . .
206(8) . . .
191(7) . . .
184(7) . . .
191(7) . . .
202(8) . . .
203(8) . . .
204(8) . . .
181(7) . . .
182(7) . . .
194(8) . . .
202(8) . . .
186(7) . . .
173(7) . . .
189(7) . . .
198(8) . . .
183(7) . . .
185(7) . . .
172(7) . . .
203(8) . . .
190(8) . . .
181(7) . . .
169(7) . . .
176(7) . . .
174(7) . . .
166(7) . . .
195(8) . . .
189(7) . . .
169(7) . . .
198(8) . . .
190(8) . . .
194(8) . . .
184(7) . . .
178(7) . . .
185(7) . . .
190(8) . . .
201(8) . . .
195(7) . . .
176(7) . . .
178(7) . . .
192(8) . . .
171(7) . . .
186(7) . . .
181(7) . . .
168(7) . . .
187(7) . . .
187(7) . . .
183(7) . . .
182(7) . . .
162(7) . . .
178(7) . . .
173(7) . . .
186(7) . . .
195(7) . . .
179(7) . . .
167(7) . . .
177(7) . . .
170(7) . . .
184(7) . . .
174(7) . . .
174(7) . . .
191(7) . . .
188(7) . . .
180(7) . . .
185(7) . . .
177(7) . . .
200(7) . . .
178(7) . . .
184(7) . . .
185(8) . . .
158(7) . . .
174(7) . . .
168(7) . . .
183(7) . . .
163(7) . . .
181(7) . . .
166(7) . . .
196(7) . . .
194(8) . . .
181(8) . . .
191(8) . . .
194(7) . . .
177(7) . . .
166(7) . . .
183(7) . . .
190(7) . . .
171(7) . . .
169(7) . . .
176(7) . . .
176(7) . . .
179(7) . . .
182(7) . . .
199(7) . . .
195(7) . . .
183(7) . . .
175(7) . . .
178(7) . . .
184(7) . . .
189(7) . . .
184(7) . . .
183(7) . . .
190(7) . . .
192(7) . . .
171(7) . . .
215(8) . . .
201(7) . . .
189(7) . . .
196(8) . . .
196(8) . . .
195(8) . . .
194(7) . . .
193(7) . . .
181(7) . . .
178(7) . . .
189(7) . . .
200(8) . . .
180(7) . . .
202(8) . . .
183(7) . . .
180(7) . . .
174(7) . . .
163(7) . . .
166(7) . . .
175(7) . . .
188(7) . . .
178(7) . . .
180(7) . . .
185(7) . . .
187(8) . . .
198(8) . . .
195(7) . . .
179(7) . . .
201(8) . . .
194(8) . . .
194(7) . . .
184(7) . . .
223(8) . . .
199(8) . . .
177(7) . . .
190(8) . . .
205(7) . . .
191(7) . . .
173(7) . . .
179(8) . . .
178(7) . . .
202(7) . . .
200(7) . . .
179(7) . . .
204(8) . . .
179(7) . . .
211(8) . . .
188(7) . . .
189(8) . . .
182(7) . . .
183(7) . . .
198(7) . . .
199(8) . . .
178(8) . . .
192(8) . . .
209(8) . . .
190(7) . . .
183(7) . . .
184(7) . . .
206(8) . . .
178(7) . . .
188(7) . . .
189(7) . . .
193(8) . . .
208(8) . . .
188(7) . . .
191(7) . . .
214(8) . . .
209(8) . . .
181(7) . . .
202(7) . . .
217(8) . . .
184(7) . . .
197(8) . . .
187(7) . . .
202(7) . . .
210(8) . . .
215(8) . . .
193(8) . . .
178(7) . . .
190(7) . . .
187(7) . . .
182(7) . . .
180(7) . . .
182(7) . . .
179(7) . . .
177(7) . . .
188(7) . . .
167(7) . . .
176(7) . . .
174(7) . . .
176(7) . . .
169(7) . . .
159(7) . . .
173(7) . . .
176(7) . . .
180(7) . . .
171(7) . . .
169(7) . . .
176(7) . . .
181(7) . . .
193(8) . . .
177(7) . . .
168(7) . . .
179(7) . . .
168(7) . . .
179(7) . . .
189(8) . . .
163(7) . . .
165(7) . . .
184(7) . . .
202(8) . . .
185(7) . . .
193(7) . . .
186(7) . . .
186(7) . . .
175(7) . . .
198(8) . . .
182(7) . . .
180(7) . . .
179(7) . . .
184(7) . . .
177(7) . . .
167(7) . . .
188(7) . . .
178(7) . . .
171(7) . . .
162(7) . . .
192(7) . . .
167(7) . . .
175(7) . . .
175(7) . . .
182(7) . . .
193(8) . . .
197(7) . . .
198(7) . . .
194(7) . . .
173(7) . . .
174(7) . . .
182(7) . . .
201(7) . . .
191(7) . . .
184(7) . . .
182(7) . . .
193(7) . . .
173(7) . . .
195(8) . . .
187(7) . . .
186(7) . . .
207(7) . . .
179(7) . . .
176(7) . . .
193(8) . . .
172(7) . . .
184(7) . . .
197(8) . . .
211(8) . . .
204(8) . . .
192(7) . . .
212(8) . . .
198(8) . . .
196(8) . . .
203(8) . . .
199(7) . . .
196(7) . . .
206(8) . . .
212(8) . . .
190(7) . . .
173(7) . . .
213(8) . . .
199(8) . . .
193(8) . . .
189(7) . . .
188(7) . . .
202(7) . . .
173(7) . . .
175(7) . . .
185(7) . . .
166(7) . . .
191(7) . . .
184(7) . . .
196(8) . . .
175(7) . . .
183(7) . . .
182(7) . . .
173(7) . . .
180(7) . . .
181(7) . . .
168(7) . . .
182(7) . . .
191(8) . . .
182(8) . . .
180(7) . . .
170(7) . . .
176(7) . . .
179(7) . . .
176(7) . . .
182(7) . . .
169(7) . . .
178(7) . . .
178(7) . . .
187(7) . . .
184(7) . . .
192(7) . . .
198(7) . . .
187(7) . . .
184(7) . . .
185(7) . . .
187(7) . . .
171(7) . . .
188(8) . . .
187(7) . . .
200(7) . . .
187(7) . . .
195(7) . . .
196(8) . . .
172(7) . . .
186(7) . . .
211(8) . . .
194(7) . . .
207(8) . . .
210(8) . . .
190(7) . . .
178(7) . . .
189(7) . . .
197(8) . . .
186(7) . . .
198(7) . . .
174(7) . . .
187(7) . . .
197(8) . . .
179(7) . . .
182(7) . . .
186(7) . . .
186(7) . . .
182(7) . . .
180(7) . . .
176(7) . . .
191(7) . . .
163(7) . . .
181(7) . . .
188(7) . . .
182(7) . . .
179(7) . . .
179(7) . . .
176(7) . . .
184(7) . . .
192(7) . . .
174(7) . . .
189(8) . . .
180(7) . . .
178(7) . . .
197(7) . . .
184(7) . . .
181(7) . . .
156(7) . . .
168(7) . . .
167(7) . . .
181(7) . . .
191(8) . . .
173(7) . . .
195(7) . . .
216(8) . . .
188(7) . . .
171(7) . . .
169(7) . . .
190(7) . . .
167(7) . . .
174(7) . . .
189(8) . . .
174(7) . . .
182(7) . . .
156(6) . . .
154(7) . . .
193(8) . . .
192(7) . . .
170(7) . . .
171(7) . . .
185(7) . . .
166(7) . . .
180(7) . . .
189(7) . . .
181(7) . . .
175(7) . . .
172(7) . . .
185(7) . . .
201(7) . . .
173(7) . . .
182(7) . . .
179(7) . . .
177(7) . . .
196(7) . . .
186(7) . . .
197(8) . . .
165(7) . . .
184(7) . . .
187(7) . . .
166(7) . . .
170(7) . . .
162(7) . . .
178(7) . . .
186(7) . . .
184(7) . . .
175(7) . . .
188(7) . . .
196(7) . . .
187(7) . . .
181(7) . . .
192(8) . . .
189(7) . . .
200(8) . . .
153(6) . . .
172(7) . . .
165(7) . . .
193(8) . . .
195(7) . . .
164(7) . . .
177(7) . . .
178(7) . . .
169(7) . . .
176(7) . . .
183(7) . . .
179(7) . . .
185(8) . . .
184(7) . . .
189(7) . . .
202(7) . . .
191(7) . . .
189(8) . . .
183(7) . . .
179(7) . . .
178(7) . . .
189(7) . . .
174(7) . . .
168(7) . . .
187(7) . . .
170(7) . . .
180(7) . . .
167(7) . . .
150(6) . . .
168(7) . . .
183(7) . . .
189(7) . . .
192(8) . . .
171(7) . . .
168(7) . . .
172(7) . . .
185(7) . . .
198(8) . . .
191(7) . . .
173(7) . . .
177(7) . . .
170(7) . . .
162(7) . . .
154(6) . . .
185(7) . . .
184(7) . . .
181(7) . . .
180(7) . . .
183(7) . . .
174(7) . . .
179(7) . . .
186(8) . . .
186(7) . . .
172(7) . . .
177(7) . . .
172(7) . . .
173(8) . . .
177(7) . . .
182(7) . . .
166(7) . . .
185(7) . . .
186(8) . . .
191(7) . . .
181(7) . . .
207(7) . . .
194(7) . . .
165(7) . . .
174(7) . . .
183(7) . . .
173(7) . . .
182(7) . . .
176(7) . . .
183(7) . . .
196(7) . . .
168(7) . . .
164(7) . . .
184(8) . . .
197(8) . . .
177(7) . . .
182(7) . . .
179(7) . . .
183(7) . . .
197(8) . . .
161(7) . . .
169(7) . . .
167(7) . . .
180(7) . . .
183(7) . . .
203(7) . . .
182(7) . . .
163(7) . . .
183(7) . . .
198(7) . . .
177(7) . . .
171(7) . . .
165(7) . . .
183(7) . . .
172(7) . . .
173(7) . . .
178(7) . . .
186(8) . . .
171(7) . . .
167(7) . . .
185(7) . . .
190(7) . . .
181(7) . . .
173(7) . . .
173(7) . . .
172(7) . . .
184(7) . . .
170(7) . . .
179(7) . . .
169(7) . . .
167(7) . . .
182(7) . . .
184(8) . . .
149(6) . . .
156(7) . . .
164(7) . . .
170(7) . . .
204(8) . . .
172(7) . . .
190(7) . . .
176(7) . . .
172(7) . . .
166(7) . . .
177(7) . . .
166(7) . . .
161(7) . . .
167(7) . . .
179(7) . . .
159(7) . . .
190(7) . . .
165(7) . . .
177(7) . . .
197(8) . . .
206(8) . . .
164(7) . . .
178(7) . . .
173(7) . . .
179(7) . . .
176(7) . . .
165(7) . . .
179(7) . . .
177(7) . . .
179(7) . . .
170(7) . . .
196(7) . . .
188(8) . . .
179(8) . . .
189(7) . . .
182(7) . . .
171(7) . . .
175(7) . . .
168(7) . . .
163(7) . . .
185(7) . . .
162(7) . . .
172(7) . . .
198(8) . . .
171(7) . . .
178(7) . . .
184(7) . . .
178(7) . . .
172(7) . . .
167(7) . . .
159(7) . . .
181(7) . . .
181(7) . . .
187(8) . . .
150(7) . . .
161(7) . . .
175(7) . . .
185(7) . . .
157(7) . . .
154(7) . . .
187(7) . . .
161(7) . . .
174(7) . . .
180(7) . . .
170(7) . . .
169(7) . . .
159(7) . . .
186(7) . . .
176(7) . . .
166(7) . . .
167(7) . . .
174(7) . . .
177(7) . . .
162(7) . . .
174(7) . . .
172(7) . . .
169(7) . . .
169(7) . . .
167(7) . . .
168(7) . . .
156(7) . . .
163(7) . . .
163(7) . . .
162(7) . . .
155(7) . . .
154(6) . . .
155(7) . . .
159(7) . . .
176(7) . . .
184(7) . . .
165(7) . . .
176(7) . . .
160(7) . . .
163(7) . . .
172(7) . . .
162(7) . . .
170(7) . . .
161(7) . . .
179(7) . . .
179(7) . . .
157(7) . . .
175(7) . . .
173(7) . . .
168(7) . . .
168(7) . . .
160(7) . . .
172(7) . . .
166(7) . . .
182(7) . . .
164(7) . . .
156(7) . . .
163(7) . . .
163(7) . . .
175(7) . . .
167(7) . . .
174(7) . . .
171(7) . . .
169(7) . . .
168(7) . . .
160(7) . . .
159(7) . . .
161(7) . . .
156(7) . . .
163(7) . . .
160(7) . . .
161(7) . . .
175(7) . . .
166(7) . . .
171(7) . . .
163(7) . . .
180(7) . . .
156(7) . . .
163(7) . . .
160(7) . . .
168(7) . . .
170(7) . . .
171(7) . . .
179(7) . . .
155(7) . . .
147(6) . . .
162(7) . . .
168(7) . . .
164(7) . . .
158(7) . . .
169(7) . . .
173(7) . . .
156(7) . . .
158(7) . . .
169(7) . . .
168(7) . . .
156(6) . . .
180(7) . . .
169(7) . . .
167(7) . . .
166(7) . . .
162(7) . . .
166(7) . . .
165(7) . . .
164(7) . . .
172(7) . . .
151(7) . . .
158(7) . . .
173(7) . . .
190(7) . . .
172(7) . . .
166(7) . . .
173(7) . . .
165(7) . . .
176(7) . . .
163(7) . . .
159(7) . . .
177(7) . . .
171(7) . . .
172(7) . . .
175(7) . . .
171(7) . . .
149(6) . . .
160(7) . . .
161(7) . . .
148(7) . . .
158(7) . . .
178(7) . . .
164(7) . . .
163(7) . . .
164(7) . . .
188(7) . . .
187(7) . . .
168(7) . . .
162(7) . . .
161(7) . . .
183(8) . . .
162(7) . . .
193(7) . . .
180(7) . . .
165(7) . . .
166(7) . . .
154(7) . . .
172(7) . . .
152(6) . . .
172(7) . . .
166(7) . . .
171(7) . . .
179(7) . . .
177(7) . . .
182(7) . . .
172(7) . . .
165(7) . . .
198(7) . . .
187(7) . . .
179(7) . . .
179(7) . . .
167(7) . . .
158(7) . . .
167(7) . . .
150(6) . . .
162(7) . . .
179(7) . . .
172(7) . . .
162(7) . . .
181(7) . . .
149(6) . . .
157(7) . . .
160(7) . . .
160(7) . . .
171(7) . . .
160(7) . . .
179(7) . . .
174(7) . . .
158(7) . . .
166(7) . . .
182(8) . . .
164(7) . . .
159(7) . . .
170(7) . . .
173(7) . . .
168(7) . . .
168(7) . . .
181(7) . . .
172(7) . . .
166(7) . . .
166(7) . . .
185(7) . . .
169(7) . . .
153(6) . . .
163(7) . . .
180(7) . . .
169(7) . . .
178(7) . . .
184(7) . . .
165(7) . . .
165(7) . . .
174(7) . . .
175(7) . . .
171(7) . . .
175(7) . . .
189(7) . . .
174(7) . . .
181(7) . . .
177(7) . . .
178(7) . . .
168(7) . . .
184(7) . . .
171(7) . . .
161(7) . . .
174(7) . . .
163(7) . . .
161(7) . . .
172(7) . . .
169(7) . . .
155(7) . . .
155(7) . . .
153(6) . . .
154(7) . . .
158(7) . . .
167(7) . . .
160(7) . . .
169(7) . . .
173(7) . . .
170(7) . . .
185(8) . . .
188(7) . . .
182(7) . . .
167(7) . . .
193(8) . . .
173(7) . . .
180(7) . . .
177(7) . . .
171(7) . . .
184(7) . . .
177(7) . . .
172(7) . . .
174(7) . . .
171(7) . . .
179(7) . . .
185(7) . . .
187(7) . . .
180(7) . . .
175(7) . . .
184(8) . . .
160(7) . . .
164(7) . . .
174(7) . . .
164(7) . . .
147(7) . . .
159(7) . . .
175(7) . . .
180(7) . . .
182(7) . . .
172(7) . . .
174(7) . . .
171(7) . . .
163(7) . . .
155(6) . . .
158(7) . . .
165(7) . . .
164(7) . . .
190(7) . . .
174(7) . . .
162(7) . . .
156(7) . . .
193(7) . . .
179(7) . . .
160(7) . . .
159(7) . . .
178(7) . . .
165(7) . . .
163(7) . . .
164(7) . . .
170(7) . . .
166(7) . . .
168(7) . . .
164(7) . . .
182(8) . . .
173(7) . . .
174(7) . . .
167(7) . . .
176(7) . . .
165(7) . . .
167(7) . . .
193(7) . . .
161(7) . . .
154(7) . . .
175(7) . . .
195(7) . . .
167(7) . . .
162(7) . . .
174(7) . . .
172(7) . . .
188(7) . . .
161(7) . . .
196(7) . . .
172(7) . . .
184(8) . . .
161(7) . . .
181(7) . . .
165(7) . . .
170(7) . . .
184(8) . . .
178(7) . . .
156(7) . . .
154(7) . . .
183(7) . . .
187(7) . . .
179(7) . . .
176(7) . . .
198(7) . . .
174(7) . . .
174(7) . . .
182(7) . . .
180(7) . . .
190(7) . . .
197(8) . . .
163(7) . . .
177(7) . . .
179(7) . . .
168(7) . . .
170(7) . . .
185(7) . . .
179(7) . . .
174(7) . . .
182(7) . . .
177(7) . . .
170(7) . . .
159(7) . . .
156(6) . . .
177(7) . . .
176(7) . . .
204(8) . . .
183(7) . . .
197(7) . . .
201(8) . . .
171(7) . . .
175(7) . . .
170(7) . . .
184(7) . . .
178(7) . . .
172(7) . . .
190(7) . . .
172(7) . . .
178(7) . . .
165(7) . . .
172(7) . . .
167(7) . . .
172(7) . . .
172(7) . . .
170(7) . . .
173(7) . . .
167(7) . . .
180(7) . . .
175(7) . . .
156(7) . . .
155(7) . . .
161(7) . . .
172(7) . . .
156(7) . . .
143(6) . . .
165(7) . . .
166(7) . . .
163(7) . . .
160(7) . . .
160(7) . . .
150(7) . . .
164(7) . . .
144(6) . . .
167(7) . . .
169(7) . . .
163(7) . . .
172(7) . . .
166(7) . . .
166(7) . . .
174(7) . . .
147(6) . . .
154(7) . . .
175(7) . . .
152(7) . . .
175(7) . . .
163(7) . . .
169(7) . . .
154(6) . . .
165(7) . . .
166(7) . . .
179(7) . . .
160(7) . . .
169(7) . . .
162(7) . . .
171(7) . . .
169(7) . . .
160(7) . . .
170(7) . . .
162(7) . . .
172(7) . . .
184(7) . . .
157(6) . . .
179(7) . . .
175(7) . . .
177(7) . . .
170(7) . . .
160(7) . . .
171(7) . . .
161(7) . . .
152(7) . . .
173(7) . . .
166(7) . . .
176(7) . . .
161(7) . . .
158(7) . . .
155(7) . . .
159(7) . . .
163(7) . . .
153(7) . . .
145(6) . . .
164(7) . . .
165(7) . . .
151(7) . . .
146(6) . . .
160(7) . . .
166(7) . . .
166(7) . . .
156(7) . . .
170(7) . . .
163(7) . . .
159(7) . . .
166(7) . . .
161(7) . . .
160(7) . . .
155(7) . . .
168(7) . . .
161(7) . . .
168(7) . . .
161(7) . . .
169(7) . . .
156(6) . . .
171(7) . . .
145(6) . . .
136(6) . . .
157(7) . . .
176(7) . . .
161(7) . . .
169(7) . . .
164(7) . . .
160(7) . . .
174(7) . . .
156(6) . . .
166(7) . . .
157(7) . . .
150(6) . . .
138(6) . . .
154(6) . . .
163(7) . . .
151(7) . . .
158(7) . . .
164(7) . . .
154(6) . . .
167(7) . . .
158(7) . . .
150(7) . . .
161(7) . . .
150(7) . . .
149(7) . . .
167(7) . . .
159(7) . . .
146(6) . . .
141(6) . . .
158(7) . . .
156(7) . . .
130(6) . . .
146(6) . . .
146(6) . . .
169(7) . . .
166(7) . . .
139(6) . . .
164(7) . . .
163(7) . . .
158(7) . . .
162(7) . . .
178(7) . . .
165(7) . . .
166(7) . . .
158(7) . . .
175(7) . . .
182(7) . . .
164(7) . . .
157(7) . . .
159(7) . . .
180(7) . . .
160(7) . . .
149(6) . . .
132(6) . . .
151(7) . . .
154(7) . . .
156(7) . . .
148(6) . . .
186(7) . . .
154(7) . . .
161(7) . . .
158(6) . . .
163(7) . . .
148(6) . . .
157(7) . . .
146(6) . . .
157(7) . . .
159(6) . . .
156(7) . . .
144(7) . . .
168(7) . . .
150(6) . . .
167(7) . . .
166(7) . . .
156(7) . . .
169(7) . . .
176(7) . . .
151(7) . . .
165(7) . . .
169(7) . . .
170(7) . . .
164(7) . . .
163(7) . . .
162(7) . . .
176(7) . . .
179(7) . . .
165(7) . . .
165(7) . . .
169(7) . . .
175(7) . . .
164(7) . . .
171(7) . . .
171(7) . . .
171(7) . . .
184(7) . . .
196(7) . . .
177(7) . . .
176(7) . . .
162(7) . . .
186(7) . . .
164(7) . . .
175(7) . . .
175(7) . . .
167(7) . . .
180(7) . . .
164(7) . . .
168(7) . . .
173(7) . . .
152(7) . . .
165(7) . . .
165(7) . . .
165(7) . . .
177(7) . . .
175(7) . . .
168(7) . . .
183(7) . . .
162(7) . . .
163(7) . . .
155(7) . . .
166(7) . . .
168(7) . . .
170(7) . . .
168(7) . . .
165(7) . . .
170(7) . . .
154(6) . . .
164(7) . . .
171(7) . . .
170(7) . . .
170(7) . . .
185(7) . . .
155(7) . . .
162(7) . . .
194(8) . . .
167(7) . . .
172(7) . . .
173(7) . . .
181(7) . . .
162(7) . . .
175(7) . . .
167(7) . . .
157(7) . . .
162(7) . . .
166(7) . . .
157(7) . . .
163(7) . . .
180(7) . . .
160(7) . . .
168(7) . . .
165(7) . . .
162(7) . . .
139(6) . . .
176(7) . . .
172(7) . . .
177(7) . . .
150(6) . . .
172(7) . . .
181(7) . . .
169(7) . . .
183(7) . . .
178(7) . . .
167(7) . . .
160(7) . . .
163(7) . . .
168(7) . . .
169(7) . . .
175(7) . . .
166(7) . . .
169(7) . . .
172(7) . . .
164(7) . . .
155(7) . . .
162(7) . . .
156(7) . . .
156(7) . . .
154(6) . . .
157(7) . . .
154(7) . . .
171(7) . . .
169(7) . . .
155(7) . . .
157(7) . . .
150(6) . . .
167(7) . . .
166(7) . . .
164(7) . . .
152(6) . . .
171(7) . . .
155(7) . . .
153(6) . . .
157(7) . . .
174(7) . . .
182(7) . . .
175(7) . . .
166(7) . . .
169(7) . . .
151(7) . . .
154(7) . . .
161(7) . . .
156(6) . . .
161(7) . . .
147(6) . . .
177(7) . . .
155(7) . . .
165(7) . . .
164(7) . . .
155(7) . . .
166(7) . . .
157(6) . . .
167(7) . . .
158(7) . . .
145(7) . . .
149(6) . . .
179(7) . . .
158(7) . . .
155(7) . . .
162(7) . . .
155(7) . . .
157(7) . . .
176(7) . . .
164(7) . . .
155(7) . . .
158(7) . . .
182(7) . . .
167(7) . . .
165(7) . . .
177(7) . . .
159(7) . . .
168(7) . . .
172(7) . . .
164(7) . . .
164(7) . . .
167(7) . . .
176(7) . . .
172(7) . . .
164(7) . . .
161(7) . . .
167(7) . . .
154(6) . . .
137(6) . . .
136(6) . . .
163(7) . . .
162(7) . . .
179(7) . . .
146(7) . . .
148(7) . . .
163(7) . . .
160(7) . . .
165(7) . . .
170(7) . . .
164(7) . . .
165(7) . . .
161(7) . . .
174(7) . . .
150(7) . . .
152(7) . . .
170(7) . . .
138(6) . . .
140(6) . . .
152(7) . . .
137(6) . . .
153(7) . . .
147(6) . . .
174(7) . . .
168(7) . . .
163(7) . . .
183(7) . . .
159(7) . . .
174(7) . . .
154(7) . . .
155(7) . . .
166(7) . . .
151(6) . . .
151(6) . . .
148(7) . . .
156(7) . . .
143(6) . . .
162(7) . . .
166(7) . . .
166(7) . . .
160(7) . . .
157(7) . . .
175(7) . . .
163(7) . . .
162(7) . . .
152(6) . . .
161(7) . . .
169(7) . . .
150(7) . . .
141(6) . . .
167(7) . . .
143(6) . . .
179(7) . . .
145(6) . . .
155(7) . . .
166(7) . . .
142(6) . . .
158(7) . . .
159(7) . . .
151(7) . . .
145(6) . . .
156(6) . . .
160(7) . . .
148(7) . . .
172(7) . . .
164(7) . . .
153(6) . . .
164(7) . . .
164(7) . . .
153(7) . . .
155(7) . . .
152(6) . . .
157(7) . . .
151(6) . . .
146(7) . . .
151(7) . . .
162(7) . . .
154(6) . . .
144(7) . . .
147(7) . . .
152(7) . . .
168(7) . . .
172(7) . . .
169(7) . . .
167(7) . . .
178(7) . . .
156(7) . . .
152(6) . . .
148(7) . . .
155(7) . . .
186(7) . . .
159(7) . . .
142(6) . . .
161(7) . . .
158(7) . . .
162(7) . . .
166(7) . . .
182(7) . . .
164(7) . . .
174(7) . . .
155(7) . . .
157(7) . . .
172(7) . . .
155(7) . . .
153(7) . . .
164(7) . . .
172(7) . . .
156(7) . . .
152(7) . . .
155(7) . . .
161(7) . . .
148(6) . . .
167(7) . . .
161(7) . . .
152(7) . . .
139(6) . . .
159(7) . . .
159(7) . . .
157(7) . . .
156(7) . . .
145(6) . . .
161(7) . . .
157(7) . . .
168(7) . . .
174(7) . . .
153(6) . . .
171(7) . . .
168(7) . . .
172(7) . . .
163(7) . . .
145(6) . . .
167(7) . . .
171(7) . . .
150(7) . . .
162(7) . . .
168(7) . . .
170(7) . . .
167(7) . . .
169(7) . . .
175(7) . . .
156(6) . . .
174(7) . . .
153(7) . . .
161(7) . . .
158(7) . . .
173(7) . . .
155(7) . . .
154(7) . . .
162(7) . . .
168(7) . . .
161(7) . . .
158(7) . . .
155(7) . . .
158(7) . . .
154(6) . . .
163(7) . . .
142(6) . . .
165(7) . . .
172(7) . . .
183(7) . . .
157(6) . . .
174(7) . . .
175(7) . . .
156(7) . . .
163(7) . . .
165(7) . . .
160(7) . . .
179(8) . . .
156(7) . . .
162(7) . . .
168(7) . . .
168(7) . . .
154(7) . . .
185(7) . . .
176(7) . . .
193(7) . . .
195(8) . . .
158(7) . . .
171(7) . . .
173(7) . . .
164(7) . . .
180(7) . . .
171(7) . . .
161(7) . . .
176(7) . . .
164(7) . . .
162(7) . . .
159(7) . . .
174(7) . . .
181(7) . . .
186(7) . . .
155(7) . . .
163(7) . . .
178(7) . . .
168(7) . . .
166(7) . . .
137(6) . . .
168(7) . . .
179(7) . . .
160(6) . . .
162(7) . . .
175(7) . . .
167(7) . . .
166(7) . . .
173(7) . . .
161(7) . . .
161(7) . . .
140(6) . . .
172(7) . . .
137(6) . . .
153(7) . . .
158(7) . . .
174(7) . . .
162(7) . . .
169(7) . . .
173(7) . . .
174(7) . . .
171(7) . . .
160(7) . . .
159(7) . . .
178(7) . . .
148(7) . . .
154(7) . . .
157(7) . . .
164(7) . . .
162(7) . . .
161(7) . . .
154(7) . . .
158(7) . . .
162(7) . . .
182(7) . . .
168(7) . . .
167(7) . . .
146(6) . . .
165(7) . . .
172(7) . . .
177(7) . . .
151(7) . . .
148(6) . . .
151(6) . . .
170(7) . . .
156(7) . . .
166(7) . . .
160(7) . . .
144(6) . . .
153(7) . . .
156(7) . . .
159(7) . . .
155(6) . . .
160(7) . . .
144(7) . . .
157(7) . . .
178(7) . . .
154(6) . . .
161(7) . . .
156(7) . . .
154(7) . . .
171(7) . . .
154(6) . . .
144(6) . . .
169(7) . . .
154(7) . . .
172(7) . . .
159(7) . . .
165(7) . . .
160(7) . . .
173(7) . . .
163(7) . . .
156(6) . . .
168(7) . . .
165(7) . . .
150(6) . . .
153(6) . . .
155(6) . . .
156(7) . . .
136(6) . . .
142(6) . . .
156(7) . . .
180(7) . . .
159(7) . . .
147(7) . . .
148(6) . . .
147(6) . . .
152(7) . . .
160(7) . . .
152(7) . . .
165(7) . . .
144(6) . . .
157(7) . . .
149(7) . . .
163(7) . . .
159(7) . . .
173(7) . . .
162(7) . . .
152(7) . . .
161(7) . . .
154(7) . . .
167(7) . . .
163(7) . . .
141(6) . . .
163(7) . . .
155(7) . . .
127(6) . . .
154(7) . . .
163(7) . . .
151(7) . . .
159(7) . . .
158(7) . . .
170(7) . . .
149(7) . . .
158(7) . . .
157(7) . . .
147(6) . . .
158(7) . . .
152(7) . . .
155(7) . . .
169(7) . . .
160(7) . . .
148(7) . . .
158(7) . . .
163(7) . . .
168(7) . . .
170(7) . . .
151(7) . . .
157(7) . . .
138(6) . . .
160(7) . . .
160(7) . . .
152(6) . . .
174(7) . . .
145(6) . . .
154(6) . . .
157(7) . . .
188(8) . . .
152(7) . . .
168(7) . . .
165(7) . . .
155(7) . . .
156(7) . . .
155(7) . . .
160(7) . . .
147(6) . . .
166(7) . . .
152(7) . . .
145(7) . . .
150(6) . . .
154(6) . . .
149(7) . . .
152(7) . . .
150(7) . . .
175(7) . . .
174(7) . . .
162(7) . . .
148(7) . . .
165(7) . . .
145(6) . . .
155(6) . . .
150(6) . . .
168(7) . . .
171(7) . . .
169(7) . . .
145(6) . . .
137(6) . . .
144(7) . . .
138(6) . . .
147(6) . . .
149(6) . . .
149(6) . . .
142(7) . . .
144(7) . . .
162(7) . . .
158(7) . . .
157(7) . . .
168(7) . . .
154(6) . . .
144(6) . . .
150(6) . . .
152(7) . . .
147(7) . . .
158(7) . . .
171(7) . . .
158(7) . . .
149(7) . . .
158(7) . . .
145(6) . . .
150(6) . . .
162(7) . . .
167(7) . . .
155(7) . . .
147(6) . . .
166(7) . . .
153(7) . . .
143(6) . . .
156(7) . . .
159(7) . . .
164(7) . . .
162(7) . . .
155(7) . . .
151(6) . . .
162(7) . . .
139(6) . . .
139(6) . . .
159(7) . . .
147(6) . . .
166(7) . . .
169(7) . . .
151(7) . . .
169(7) . . .
142(6) . . .
161(7) . . .
159(7) . . .
155(7) . . .
161(7) . . .
160(7) . . .
145(6) . . .
153(7) . . .
145(6) . . .
162(7) . . .
167(7) . . .
159(7) . . .
145(6) . . .
143(6) . . .
164(7) . . .
161(7) . . .
148(6) . . .
163(7) . . .
151(7) . . .
151(7) . . .
159(7) . . .
166(7) . . .
144(6) . . .
151(7) . . .
174(7) . . .
158(7) . . .
153(6) . . .
177(7) . . .
170(7) . . .
163(7) . . .
140(6) . . .
163(7) . . .
148(6) . . .
167(7) . . .
153(7) . . .
132(6) . . .
163(7) . . .
167(7) . . .
162(7) . . .
144(6) . . .
155(7) . . .
142(6) . . .
144(6) . . .
171(7) . . .
158(7) . . .
159(7) . . .
174(7) . . .
149(7) . . .
141(6) . . .
169(7) . . .
162(7) . . .
174(7) . . .
152(6) . . .
154(7) . . .
129(6) . . .
160(7) . . .
155(6) . . .
152(7) . . .
154(7) . . .
150(7) . . .
157(6) . . .
152(6) . . .
148(6) . . .
149(7) . . .
153(7) . . .
144(6) . . .
155(7) . . .
177(7) . . .
178(8) . . .
148(6) . . .
139(6) . . .
146(6) . . .
165(7) . . .
154(7) . . .
140(6) . . .
158(7) . . .
151(7) . . .
150(7) . . .
156(7) . . .
156(7) . . .
156(6) . . .
178(7) . . .
179(7) . . .
159(7) . . .
145(6) . . .
142(6) . . .
143(7) . . .
153(7) . . .
151(6) . . .
157(7) . . .
171(7) . . .
158(7) . . .
160(7) . . .
167(7) . . .
174(7) . . .
172(7) . . .
169(7) . . .
165(7) . . .
168(7) . . .
159(7) . . .
140(6) . . .
154(7) . . .
156(7) . . .
151(7) . . .
145(6) . . .
164(7) . . .
166(7) . . .
162(7) . . .
145(6) . . .
157(6) . . .
158(7) . . .
150(7) . . .
152(7) . . .
169(7) . . .
173(7) . . .
160(7) . . .
149(6) . . .
167(7) . . .
144(6) . . .
152(6) . . .
144(6) . . .
156(7) . . .
162(7) . . .
152(7) . . .
146(6) . . .
169(7) . . .
166(7) . . .
175(7) . . .
157(7) . . .
166(7) . . .
169(7) . . .
151(7) . . .
161(7) . . .
166(7) . . .
186(7) . . .
173(7) . . .
168(7) . . .
174(7) . . .
171(7) . . .
196(7) . . .
176(7) . . .
169(7) . . .
169(7) . . .
166(7) . . .
160(7) . . .
177(7) . . .
174(7) . . .
160(7) . . .
165(7) . . .
149(6) . . .
154(7) . . .
151(7) . . .
132(6) . . .
143(6) . . .
165(7) . . .
159(7) . . .
168(7) . . .
158(7) . . .
146(6) . . .
172(7) . . .
170(7) . . .
160(7) . . .
185(7) . . .
150(6) . . .
156(6) . . .
163(7) . . .
147(7) . . .
165(7) . . .
172(7) . . .
151(6) . . .
162(7) . . .
156(7) . . .
159(7) . . .
167(7) . . .
160(7) . . .
160(7) . . .
182(7) . . .
178(7) . . .
174(7) . . .
175(7) . . .
178(7) . . .
170(7) . . .
174(7) . . .
180(7) . . .
175(7) . . .
169(7) . . .
157(7) . . .
159(7) . . .
192(7) . . .
164(7) . . .
172(7) . . .
178(7) . . .
169(7) . . .
150(6) . . .
185(7) . . .
181(7) . . .
190(7) . . .
177(7) . . .
174(7) . . .
173(7) . . .
173(7) . . .
169(7) . . .
171(7) . . .
160(7) . . .
174(7) . . .
175(7) . . .
169(7) . . .
173(7) . . .
163(7) . . .
176(7) . . .
156(7) . . .
182(7) . . .
193(7) . . .
184(7) . . .
178(7) . . .
180(7) . . .
183(7) . . .
172(7) . . .
171(7) . . .
177(7) . . .
177(7) . . .
181(7) . . .
161(6) . . .
164(7) . . .
158(7) . . .
165(7) . . .
167(7) . . .
173(7) . . .
153(6) . . .
160(7) . . .
158(7) . . .
178(7) . . .
185(7) . . .
162(7) . . .
175(7) . . .
157(7) . . .
179(7) . . .
183(7) . . .
181(7) . . .
168(7) . . .
140(6) . . .
173(7) . . .
164(7) . . .
207(8) . . .
174(7) . . .
171(7) . . .
163(7) . . .
174(7) . . .
181(7) . . .
168(7) . . .
181(7) . . .
175(7) . . .
193(7) . . .
192(7) . . .
188(8) . . .
192(8) . . .
182(7) . . .
184(7) . . .
164(7) . . .
183(8) . . .
169(7) . . .
160(7) . . .
183(7) . . .
162(7) . . .
169(8) . . .
156(7) . . .
166(7) . . .
170(7) . . .
174(7) . . .
177(7) . . .
180(7) . . .
169(7) . . .
171(7) . . .
172(7) . . .
178(7) . . .
181(7) . . .
162(7) . . .
169(7) . . .
168(7) . . .
165(7) . . .
157(7) . . .
168(7) . . .
169(7) . . .
170(7) . . .
179(7) . . .
180(7) . . .
170(7) . . .
158(7) . . .
173(7) . . .
162(7) . . .
166(7) . . .
164(7) . . .
168(7) . . .
177(7) . . .
157(7) . . .
163(7) . . .
171(7) . . .
186(7) . . .
155(7) . . .
162(7) . . .
177(7) . . .
164(7) . . .
149(7) . . .
156(7) . . .
151(6) . . .
155(6) . . .
156(6) . . .
164(7) . . .
162(7) . . .
146(6) . . .
179(7) . . .
141(6) . . .
156(7) . . .
166(7) . . .
170(7) . . .
153(6) . . .
159(7) . . .
165(7) . . .
152(7) . . .
157(7) . . .
156(7) . . .
152(6) . . .
175(7) . . .
158(7) . . .
160(7) . . .
157(7) . . .
166(7) . . .
144(6) . . .
151(7) . . .
181(7) . . .
166(7) . . .
149(6) . . .
139(6) . . .
161(7) . . .
171(7) . . .
165(7) . . .
150(6) . . .
171(7) . . .
146(6) . . .
162(7) . . .
160(7) . . .
147(6) . . .
173(7) . . .
160(7) . . .
156(7) . . .
152(6) . . .
154(7) . . .
158(7) . . .
153(7) . . .
153(6) . . .
167(7) . . .
159(7) . . .
159(7) . . .
160(7) . . .
165(7) . . .
164(7) . . .
149(7) . . .
160(7) . . .
141(6) . . .
158(7) . . .
162(7) . . .
153(6) . . .
161(7) . . .
169(7) . . .
157(6) . . .
167(7) . . .
158(7) . . .
167(7) . . .
160(7) . . .
176(7) . . .
163(7) . . .
162(7) . . .
167(7) . . .
172(7) . . .
147(6) . . .
164(7) . . .
169(7) . . .
167(7) . . .
164(7) . . .
172(7) . . .
167(7) . . .
159(7) . . .
175(7) . . .
166(7) . . .
153(6) . . .
152(6) . . .
139(6) . . .
156(7) . . .
163(7) . . .
165(7) . . .
164(7) . . .
160(7) . . .
150(7) . . .
161(7) . . .
176(7) . . .
155(7) . . .
164(7) . . .
149(7) . . .
149(6) . . .
142(6) . . .
171(7) . . .
160(7) . . .
158(7) . . .
168(7) . . .
158(7) . . .
190(7) . . .
149(7) . . .
149(7) . . .
143(6) . . .
167(7) . . .
162(7) . . .
138(7) . . .
161(7) . . .
151(6) . . .
165(7) . . .
159(7) . . .
175(7) . . .
143(6) . . .
150(6) . . .
174(7) . . .
150(6) . . .
163(7) . . .
146(6) . . .
141(6) . . .
159(7) . . .
155(7) . . .
170(7) . . .
161(7) . . .
160(7) . . .
155(7) . . .
166(7) . . .
161(7) . . .
170(7) . . .
161(7) . . .
166(7) . . .
150(7) . . .
156(7) . . .
154(7) . . .
167(7) . . .
164(7) . . .
156(7) . . .
158(7) . . .
146(6) . . .
158(7) . . .
145(6) . . .
179(7) . . .
181(7) . . .
173(7) . . .
162(7) . . .
176(7) . . .
166(7) . . .
168(7) . . .
164(7) . . .
159(7) . . .
168(7) . . .
173(7) . . .
184(7) . . .
167(7) . . .
170(7) . . .
165(7) . . .
144(7) . . .
167(7) . . .
169(7) . . .
176(7) . . .
160(7) . . .
160(7) . . .
171(7) . . .
168(7) . . .
146(6) . . .
176(7) . . .
157(7) . . .
160(7) . . .
157(7) . . .
158(7) . . .
151(7) . . .
159(7) . . .
160(7) . . .
159(7) . . .
135(6) . . .
141(6) . . .
156(7) . . .
151(6) . . .
158(7) . . .
153(6) . . .
158(7) . . .
155(7) . . .
157(7) . . .
168(7) . . .
152(7) . . .
148(7) . . .
139(6) . . .
155(7) . . .
155(7) . . .
159(7) . . .
163(7) . . .
159(7) . . .
176(7) . . .
170(7) . . .
172(7) . . .
161(7) . . .
151(6) . . .
151(6) . . .
163(7) . . .
153(7) . . .
157(7) . . .
157(7) . . .
172(7) . . .
155(7) . . .
147(6) . . .
168(7) . . .
158(7) . . .
157(7) . . .
167(7) . . .
165(7) . . .
162(7) . . .
150(7) . . .
148(6) . . .
153(7) . . .
166(7) . . .
158(7) . . .
161(7) . . .
152(6) . . .
157(7) . . .
141(6) . . .
166(7) . . .
153(7) . . .
143(6) . . .
163(7) . . .
158(7) . . .
160(7) . . .
157(7) . . .
161(7) . . .
159(7) . . .
167(7) . . .
144(7) . . .
145(6) . . .
166(7) . . .
156(7) . . .
166(7) . . .
151(7) . . .
139(6) . . .
165(7) . . .
139(6) . . .
157(7) . . .
155(7) . . .
173(7) . . .
159(7) . . .
174(7) . . .
165(7) . . .
162(7) . . .
168(7) . . .
154(7) . . .
138(6) . . .
168(7) . . .
168(7) . . .
133(6) . . .
145(6) . . .
165(7) . . .
152(7) . . .
141(6) . . .
156(6) . . .
149(6) . . .
146(6) . . .
146(7) . . .
165(7) . . .
164(7) . . .
166(7) . . .
140(6) . . .
165(7) . . .
160(7) . . .
163(7) . . .
151(6) . . .
161(7) . . .
127(6) . . .
153(7) . . .
170(7) . . .
161(7) . . .
166(7) . . .
159(7) . . .
143(6) . . .
152(6) . . .
162(7) . . .
157(7) . . .
151(7) . . .
168(7) . . .
159(7) . . .
146(6) . . .
153(6) . . .
176(7) . . .
146(6) . . .
139(6) . . .
148(6) . . .
142(6) . . .
164(7) . . .
140(6) . . .
131(6) . . .
148(7) . . .
157(7) . . .
139(6) . . .
145(6) . . .
162(7) . . .
157(7) . . .
149(7) . . .
154(7) . . .
146(6) . . .
154(6) . . .
156(7) . . .
158(7) . . .
163(7) . . .
162(7) . . .
161(7) . . .
151(6) . . .
159(7) . . .
156(7) . . .
151(6) . . .
136(6) . . .
152(7) . . .
141(7) . . .
150(7) . . .
160(7) . . .
149(6) . . .
167(7) . . .
146(7) . . .
154(7) . . .
155(6) . . .
141(6) . . .
156(7) . . .
149(7) . . .
154(7) . . .
146(6) . . .
155(7) . . .
153(6) . . .
169(7) . . .
162(7) . . .
168(7) . . .
152(6) . . .
140(7) . . .
150(7) . . .
141(6) . . .
153(6) . . .
146(6) . . .
147(6) . . .
152(7) . . .
151(6) . . .
151(6) . . .
151(7) . . .
158(7) . . .
152(7) . . .
144(6) . . .
139(6) . . .
137(6) . . .
156(7) . . .
144(6) . . .
127(6) . . .
171(7) . . .
159(7) . . .
158(7) . . .
135(6) . . .
150(6) . . .
159(7) . . .
154(7) . . .
142(6) . . .
144(6) . . .
152(6) . . .
171(7) . . .
158(7) . . .
159(7) . . .
148(7) . . .
159(7) . . .
145(6) . . .
157(7) . . .
154(7) . . .
147(7) . . .
136(6) . . .
147(6) . . .
151(6) . . .
152(7) . . .
152(7) . . .
154(6) . . .
159(7) . . .
140(6) . . .
161(7) . . .
157(7) . . .
159(7) . . .
154(7) . . .
165(7) . . .
165(7) . . .
146(6) . . .
156(7) . . .
142(6) . . .
133(6) . . .
152(7) . . .
147(6) . . .
156(6) . . .
152(7) . . .
158(7) . . .
156(7) . . .
158(7) . . .
143(6) . . .
169(7) . . .
149(7) . . .
173(7) . . .
147(6) . . .
162(7) . . .
155(7) . . .
136(6) . . .
149(7) . . .
147(6) . . .
168(7) . . .
145(6) . . .
157(7) . . .
149(7) . . .
155(7) . . .
148(6) . . .
158(7) . . .
160(7) . . .
159(7) . . .
168(7) . . .
155(6) . . .
155(7) . . .
142(6) . . .
176(7) . . .
160(7) . . .
144(6) . . .
160(7) . . .
163(7) . . .
160(7) . . .
168(7) . . .
165(7) . . .
160(7) . . .
142(6) . . .
156(7) . . .
170(7) . . .
161(7) . . .
165(7) . . .
169(7) . . .
149(6) . . .
157(6) . . .
156(6) . . .
161(7) . . .
147(7) . . .
157(7) . . .
157(7) . . .
147(7) . . .
139(6) . . .
158(7) . . .
146(7) . . .
131(6) . . .
144(6) . . .
146(6) . . .
150(6) . . .
145(7) . . .
131(6) . . .
155(7) . . .
135(6) . . .
130(6) . . .
148(7) . . .
146(7) . . .
132(6) . . .
149(6) . . .
146(6) . . .
148(7) . . .
134(6) . . .
136(6) . . .
146(6) . . .
147(6) . . .
146(7) . . .
142(7) . . .
148(6) . . .
161(6) . . .
168(7) . . .
149(7) . . .
149(7) . . .
142(6) . . .
141(6) . . .
138(6) . . .
150(7) . . .
155(7) . . .
136(6) . . .
141(6) . . .
138(6) . . .
130(6) . . .
146(6) . . .
146(6) . . .
142(6) . . .
156(7) . . .
136(6) . . .
143(6) . . .
145(6) . . .
160(7) . . .
146(6) . . .
140(6) . . .
136(6) . . .
133(6) . . .
146(6) . . .
148(6) . . .
139(6) . . .
145(6) . . .
134(6) . . .
149(7) . . .
151(7) . . .
145(6) . . .
151(7) . . .
150(6) . . .
145(7) . . .
142(7) . . .
136(6) . . .
143(6) . . .
131(6) . . .
149(7) . . .
138(6) . . .
147(7) . . .
158(7) . . .
148(6) . . .
139(6) . . .
142(7) . . .
153(7) . . .
137(6) . . .
146(6) . . .
148(6) . . .
133(6) . . .
152(7) . . .
129(6) . . .
150(6) . . .
154(7) . . .
149(7) . . .
143(6) . . .
146(6) . . .
145(6) . . .
136(6) . . .
126(6) . . .
141(6) . . .
147(6) . . .
163(7) . . .
147(7) . . .
149(7) . . .
147(7) . . .
143(6) . . .
140(6) . . .
156(7) . . .
137(6) . . .
151(6) . . .
125(6) . . .
151(6) . . .
145(7) . . .
147(7) . . .
160(7) . . .
162(7) . . .
168(7) . . .
164(7) . . .
165(7) . . .
149(6) . . .
154(6) . . .
142(6) . . .
148(7) . . .
142(6) . . .
140(6) . . .
143(6) . . .
153(7) . . .
148(7) . . .
156(7) . . .
144(6) . . .
142(6) . . .
151(7) . . .
154(7) . . .
141(6) . . .
141(6) . . .
145(6) . . .
143(7) . . .
137(6) . . .
145(6) . . .
129(6) . . .
162(7) . . .
154(7) . . .
162(7) . . .
158(7) . . .
126(6) . . .
146(6) . . .
149(7) . . .
124(6) . . .
129(6) . . .
144(6) . . .
161(7) . . .
136(6) . . .
162(7) . . .
169(7) . . .
155(6) . . .
128(6) . . .
149(7) . . .
148(7) . . .
145(7) . . .
141(6) . . .
133(6) . . .
143(6) . . .
169(7) . . .
133(6) . . .
139(6) . . .
152(7) . . .
162(7) . . .
148(6) . . .
146(6) . . .
162(7) . . .
140(6) . . .
153(7) . . .
145(7) . . .
146(6) . . .
135(6) . . .
159(7) . . .
146(7) . . .
156(7) . . .
144(6) . . .
144(6) . . .
159(7) . . .
166(7) . . .
153(7) . . .
147(6) . . .
151(6) . . .
158(7) . . .
143(7) . . .
164(7) . . .
145(6) . . .
159(7) . . .
162(7) . . .
142(7) . . .
140(6) . . .
147(6) . . .
148(6) . . .
145(7) . . .
153(7) . . .
148(7) . . .
151(6) . . .
165(7) . . .
153(7) . . .
145(6) . . .
180(7) . . .
177(7) . . .
149(6) . . .
156(7) . . .
143(7) . . .
150(6) . . .
152(6) . . .
150(6) . . .
167(7) . . .
166(7) . . .
140(6) . . .
139(6) . . .
150(7) . . .
156(7) . . .
144(6) . . .
156(7) . . .
148(6) . . .
143(7) . . .
156(7) . . .
141(6) . . .
143(6) . . .
153(6) . . .
149(6) . . .
147(7) . . .
153(7) . . .
146(6) . . .
136(6) . . .
157(7) . . .
143(7) . . .
153(7) . . .
162(7) . . .
140(6) . . .
138(6) . . .
160(7) . . .
153(7) . . .
165(7) . . .
151(6) . . .
135(6) . . .
129(6) . . .
126(6) . . .
129(6) . . .
145(6) . . .
135(6) . . .
141(6) . . .
157(7) . . .
156(6) . . .
144(6) . . .
145(6) . . .
143(7) . . .
156(7) . . .
162(7) . . .
136(6) . . .
143(6) . . .
145(7) . . .
152(7) . . .
147(6) . . .
143(6) . . .
135(6) . . .
167(7) . . .
143(6) . . .
144(6) . . .
153(7) . . .
144(7) . . .
138(6) . . .
142(6) . . .
133(6) . . .
142(6) . . .
157(7) . . .
135(6) . . .
132(6) . . .
141(6) . . .
153(7) . . .
149(7) . . .
148(6) . . .
155(6) . . .
144(6) . . .
137(6) . . .
146(7) . . .
149(6) . . .
152(6) . . .
151(6) . . .
141(6) . . .
155(7) . . .
170(7) . . .
160(7) . . .
140(6) . . .
148(7) . . .
135(6) . . .
143(7) . . .
136(6) . . .
143(6) . . .
136(6) . . .
142(7) . . .
136(7) . . .
155(7) . . .
133(6) . . .
134(6) . . .
128(6) . . .
142(6) . . .
125(6) . . .
135(6) . . .
138(6) . . .
156(7) . . .
136(6) . . .
130(6) . . .
136(6) . . .
134(6) . . .
137(6) . . .
131(6) . . .
160(7) . . .
144(6) . . .
144(6) . . .
138(6) . . .
133(6) . . .
142(6) . . .
139(6) . . .
136(6) . . .
136(6) . . .
164(7) . . .
140(6) . . .
145(7) . . .
147(7) . . .
153(7) . . .
153(6) . . .
133(6) . . .
143(6) . . .
134(6) . . .
160(7) . . .
144(6) . . .
158(7) . . .
132(6) . . .
141(7) . . .
157(7) . . .
164(7) . . .
147(6) . . .
153(7) . . .
146(7) . . .
158(7) . . .
155(6) . . .
127(6) . . .
165(7) . . .
148(7) . . .
135(6) . . .
147(6) . . .
141(6) . . .
154(7) . . .
152(7) . . .
163(7) . . .
154(6) . . .
152(6) . . .
147(6) . . .
160(7) . . .
142(6) . . .
130(6) . . .
151(7) . . .
157(7) . . .
157(7) . . .
145(6) . . .
150(6) . . .
151(6) . . .
146(7) . . .
145(7) . . .
146(6) . . .
119(6) . . .
156(7) . . .
160(7) . . .
155(7) . . .
140(6) . . .
146(6) . . .
160(7) . . .
159(7) . . .
148(7) . . .
155(7) . . .
157(7) . . .
145(6) . . .
158(7) . . .
157(7) . . .
130(6) . . .
137(6) . . .
171(7) . . .
142(7) . . .
142(6) . . .
151(6) . . .
138(6) . . .
160(7) . . .
146(7) . . .
148(6) . . .
144(6) . . .
135(6) . . .
136(6) . . .
148(7) . . .
139(6) . . .
138(6) . . .
129(6) . . .
141(6) . . .
144(7) . . .
144(6) . . .
145(6) . . .
150(6) . . .
153(7) . . .
153(7) . . .
133(6) . . .
150(6) . . .
141(6) . . .
125(6) . . .
147(7) . . .
143(7) . . .
146(6) . . .
149(6) . . .
153(6) . . .
125(6) . . .
144(6) . . .
157(7) . . .
136(6) . . .
135(6) . . .
128(6) . . .
142(6) . . .
150(6) . . .
150(7) . . .
137(7) . . .
145(7) . . .
146(6) . . .
148(6) . . .
151(7) . . .
142(7) . . .
157(7) . . .
156(6) . . .
149(6) . . .
140(6) . . .
130(6) . . .
160(7) . . .
158(6) . . .
137(6) . . .
142(6) . . .
159(7) . . .
165(7) . . .
149(6) . . .
151(6) . . .
126(6) . . .
143(7) . . .
160(7) . . .
150(6) . . .
140(6) . . .
149(7) . . .
153(7) . . .
144(6) . . .
145(6) . . .
141(6) . . .
148(7) . . .
157(7) . . .
144(6) . . .
143(6) . . .
137(6) . . .
130(6) . . .
150(7) . . .
152(7) . . .
145(6) . . .
129(6) . . .
153(7) . . .
162(7) . . .
146(6) . . .
162(7) . . .
135(6) . . .
154(7) . . .
164(7) . . .
159(7) . . .
141(6) . . .
135(6) . . .
166(7) . . .
146(6) . . .
157(7) . . .
161(7) . . .
154(6) . . .
150(6) . . .
158(7) . . .
147(6) . . .
147(6) . . .
173(7) . . .
153(7) . . .
142(6) . . .
158(7) . . .
144(6) . . .
150(7) . . .
144(7) . . .
161(7) . . .
154(6) . . .
147(6) . . .
144(6) . . .
143(7) . . .
146(6) . . .
151(6) . . .
158(7) . . .
152(7) . . .
138(7) . . .
147(6) . . .
168(7) . . .
143(6) . . .
125(6) . . .
138(6) . . .
141(6) . . .
151(6) . . .
149(6) . . .
134(6) . . .
155(7) . . .
150(7) . . .
151(6) . . .
144(6) . . .
133(6) . . .
155(7) . . .
153(7) . . .
154(6) . . .
144(6) . . .
155(7) . . .
133(6) . . .
154(7) . . .
140(6) . . .
156(7) . . .
149(7) . . .
153(7) . . .
140(6) . . .
151(6) . . .
142(6) . . .
149(6) . . .
140(6) . . .
149(6) . . .
146(6) . . .
161(7) . . .
148(7) . . .
150(6) . . .
168(7) . . .
158(6) . . .
154(7) . . .
155(7) . . .
158(7) . . .
174(7) . . .
181(7) . . .
159(7) . . .
162(7) . . .
155(7) . . .
160(7) . . .
157(7) . . .
149(7) . . .
151(7) . . .
141(6) . . .
152(6) . . .
150(6) . . .
156(7) . . .
163(7) . . .
159(7) . . .
180(7) . . .
148(6) . . .
154(7) . . .
151(7) . . .
171(7) . . .
160(7) . . .
164(7) . . .
146(7) . . .
132(6) . . .
157(7) . . .
171(7) . . .
152(6) . . .
156(7) . . .
169(7) . . .
145(7) . . .
138(6) . . .
150(7) . . .
154(7) . . .
140(6) . . .
159(7) . . .
159(7) . . .
155(7) . . .
150(7) . . .
158(7) . . .
146(6) . . .
147(6) . . .
149(6) . . .
160(7) . . .
172(7) . . .
171(7) . . .
170(7) . . .
178(7) . . .
161(7) . . .
156(7) . . .
157(7) . . .
159(6) . . .
158(7) . . .
158(7) . . .
143(6) . . .
141(6) . . .
140(6) . . .
146(7) . . .
159(7) . . .
164(7) . . .
164(7) . . .
162(7) . . .
145(7) . . .
141(7) . . .
138(6) . . .
156(6) . . .
153(7) . . .
146(6) . . .
153(7) . . .
155(7) . . .
160(7) . . .
144(6) . . .
165(7) . . .
146(6) . . .
132(6) . . .
143(6) . . .
165(7) . . .
156(7) . . .
155(7) . . .
149(6) . . .
133(6) . . .
157(7) . . .
151(7) . . .
154(7) . . .
145(6) . . .
147(6) . . .
146(6) . . .
136(6) . . .
155(7) . . .
174(7) . . .
150(6) . . .
151(7) . . .
161(7) . . .
143(6) . . .
151(6) . . .
166(7) . . .
166(7) . . .
153(7) . . .
148(7) . . .
149(6) . . .
162(7) . . .
153(7) . . .
159(7) . . .
174(7) . . .
161(7) . . .
162(7) . . .
157(7) . . .
156(7) . . .
168(7) . . .
158(7) . . .
166(7) . . .
151(7) . . .
160(7) . . .
145(6) . . .
141(6) . . .
153(6) . . .
153(7) . . .
150(7) . . .
162(7) . . .
164(7) . . .
162(7) . . .
159(7) . . .
134(6) . . .
144(6) . . .
162(7) . . .
161(7) . . .
155(7) . . .
157(7) . . .
159(7) . . .
137(6) . . .
138(6) . . .
157(7) . . .
154(7) . . .
149(6) . . .
142(6) . . .
145(6) . . .
148(6) . . .
165(7) . . .
147(6) . . .
146(6) . . .
138(6) . . .
138(6) . . .
147(6) . . .
154(6) . . .
156(6) . . .
156(7) . . .
146(7) . . .
144(7) . . .
146(6) . . .
155(7) . . .
151(7) . . .
156(7) . . .
156(7) . . .
144(6) . . .
154(6) . . .
137(6) . . .
151(7) . . .
141(6) . . .
146(6) . . .
147(6) . . .
145(6) . . .
149(7) . . .
144(6) . . .
145(6) . . .
148(6) . . .
153(7) . . .
152(7) . . .
159(7) . . .
160(7) . . .
148(6) . . .
155(7) . . .
147(7) . . .
150(7) . . .
139(6) . . .
144(6) . . .
141(6) . . .
146(7) . . .
152(7) . . .
148(6) . . .
157(7) . . .
151(7) . . .
162(7) . . .
155(7) . . .
170(7) . . .
159(7) . . .
158(7) . . .
146(6) . . .
148(6) . . .
139(6) . . .
139(6) . . .
148(7) . . .
161(7) . . .
157(6) . . .
140(6) . . .
159(7) . . .
160(7) . . .
149(7) . . .
146(6) . . .
149(6) . . .
152(7) . . .
140(7) . . .
166(7) . . .
134(6) . . .
144(6) . . .
133(6) . . .
139(6) . . .
158(7) . . .
164(7) . . .
167(7) . . .
164(7) . . .
166(7) . . .
168(7) . . .
145(6) . . .
163(7) . . .
156(7) . . .
156(7) . . .
145(6) . . .
153(6) . . .
151(7) . . .
153(7) . . .
154(7) . . .
142(6) . . .
142(6) . . .
151(6) . . .
169(7) . . .
136(6) . . .
152(7) . . .
159(7) . . .
155(7) . . .
142(6) . . .
176(7) . . .
157(7) . . .
163(7) . . .
167(7) . . .
163(7) . . .
179(7) . . .
178(7) . . .
165(7) . . .
152(7) . . .
162(7) . . .
164(7) . . .
171(7) . . .
169(7) . . .
142(6) . . .
155(7) . . .
161(7) . . .
166(7) . . .
157(6) . . .
147(7) . . .
142(7) . . .
156(7) . . .
158(6) . . .
159(7) . . .
152(7) . . .
166(7) . . .
162(7) . . .
157(6) . . .
153(6) . . .
167(7) . . .
162(7) . . .
158(7) . . .
156(6) . . .
145(6) . . .
157(7) . . .
151(7) . . .
159(7) . . .
151(6) . . .
147(6) . . .
150(6) . . .
138(6) . . .
155(7) . . .
160(7) . . .
150(6) . . .
153(7) . . .
144(6) . . .
140(6) . . .
142(6) . . .
167(7) . . .
143(7) . . .
158(7) . . .
148(6) . . .
153(6) . . .
162(7) . . .
161(7) . . .
155(7) . . .
155(6) . . .
157(6) . . .
157(7) . . .
158(7) . . .
141(6) . . .
135(6) . . .
146(6) . . .
151(7) . . .
137(7) . . .
160(7) . . .
155(7) . . .
148(6) . . .
162(7) . . .
158(7) . . .
146(6) . . .
160(7) . . .
140(6) . . .
163(7) . . .
154(7) . . .
144(7) . . .
146(6) . . .
154(6) . . .
148(7) . . .
154(7) . . .
146(6) . . .
169(7) . . .
164(7) . . .
168(7) . . .
139(6) . . .
160(7) . . .
167(7) . . .
141(6) . . .
134(6) . . .
165(7) . . .
150(7) . . .
146(6) . . .
165(7) . . .
143(6) . . .
152(7) . . .
172(7) . . .
159(7) . . .
140(6) . . .
136(6) . . .
141(6) . . .
143(6) . . .
159(7) . . .
158(7) . . .
138(6) . . .
160(7) . . .
154(7) . . .
150(6) . . .
176(7) . . .
162(7) . . .
162(7) . . .
164(7) . . .
171(7) . . .
150(7) . . .
169(7) . . .
179(7) . . .
166(7) . . .
159(7) . . .
152(7) . . .
155(7) . . .
157(7) . . .
146(6) . . .
164(7) . . .
155(7) . . .
161(7) . . .
167(7) . . .
160(7) . . .
154(6) . . .
154(7) . . .
161(7) . . .
152(7) . . .
156(6) . . .
139(6) . . .
152(7) . . .
146(7) . . .
143(7) . . .
142(6) . . .
133(6) . . .
151(7) . . .
155(7) . . .
157(7) . . .
158(7) . . .
163(7) . . .
137(6) . . .
144(7) . . .
137(6) . . .
149(6) . . .
137(6) . . .
141(7) . . .
140(7) . . .
153(7) . . .
149(6) . . .
139(6) . . .
140(6) . . .
137(6) . . .
149(7) . . .
140(6) . . .
155(7) . . .
149(7) . . .
144(6) . . .
153(6) . . .
159(7) . . .
144(7) . . .
163(7) . . .
155(7) . . .
152(6) . . .
148(6) . . .
146(6) . . .
141(6) . . .
133(6) . . .
151(7) . . .
141(6) . . .
139(6) . . .
162(7) . . .
129(6) . . .
134(6) . . .
133(6) . . .
143(7) . . .
141(7) . . .
150(7) . . .
141(6) . . .
147(6) . . .
150(6) . . .
167(7) . . .
157(7) . . .
163(7) . . .
138(6) . . .
139(6) . . .
148(7) . . .
156(7) . . .
151(6) . . .
147(6) . . .
153(7) . . .
141(6) . . .
132(6) . . .
137(6) . . .
147(6) . . .
139(6) . . .
161(7) . . .
143(6) . . .
158(6) . . .
129(6) . . .
142(6) . . .
143(6) . . .
143(6) . . .
163(7) . . .
153(7) . . .
158(7) . . .
156(7) . . .
148(6) . . .
135(6) . . .
141(7) . . .
134(6) . . .
151(7) . . .
149(6) . . .
141(6) . . .
154(7) . . .
165(7) . . .
145(6) . . .
149(6) . . .
141(6) . . .
144(6) . . .
155(7) . . .
143(6) . . .
131(6) . . .
155(6) . . .
161(7) . . .
158(7) . . .
138(6) . . .
142(6) . . .
139(6) . . .
146(6) . . .
140(7) . . .
143(6) . . .
170(7) . . .
160(7) . . .
149(7) . . .
170(7) . . .
154(7) . . .
155(6) . . .
156(7) . . .
148(6) . . .
151(7) . . .
145(7) . . .
165(7) . . .
138(6) . . .
146(6) . . .
146(7) . . .
148(7) . . .
146(6) . . .
136(6) . . .
150(7) . . .
149(7) . . .
143(7) . . .
140(6) . . .
154(7) . . .
146(7) . . .
146(7) . . .
136(6) . . .
136(6) . . .
153(7) . . .
151(7) . . .
153(7) . . .
141(6) . . .
149(6) . . .
149(6) . . .
157(7) . . .
152(7) . . .
149(6) . . .
152(6) . . .
140(6) . . .
140(7) . . .
139(6) . . .
147(6) . . .
136(6) . . .
139(6) . . .
140(7) . . .
149(7) . . .
145(6) . . .
148(6) . . .
149(6) . . .
141(7) . . .
134(6) . . .
153(6) . . .
145(6) . . .
145(7) . . .
147(7) . . .
129(6) . . .
137(6) . . .
151(7) . . .
149(6) . . .
167(7) . . .
160(7) . . .
178(7) . . .
153(6) . . .
155(7) . . .
164(7) . . .
150(6) . . .
144(6) . . .
144(6) . . .
159(7) . . .
158(7) . . .
141(6) . . .
148(6) . . .
158(7) . . .
157(7) . . .
148(7) . . .
146(6) . . .
140(6) . . .
154(7) . . .
151(7) . . .
167(7) . . .
145(6) . . .
152(6) . . .
142(6) . . .
155(7) . . .
150(7) . . .
148(6) . . .
144(6) . . .
168(7) . . .
147(7) . . .
140(6) . . .
132(6) . . .
140(6) . . .
145(6) . . .
163(7) . . .
162(7) . . .
152(6) . . .
139(6) . . .
149(7) . . .
144(7) . . .
168(7) . . .
169(7) . . .
151(7) . . .
154(7) . . .
158(7) . . .
162(7) . . .
144(6) . . .
155(6) . . .
167(7) . . .
134(6) . . .
138(6) . . .
152(6) . . .
152(6) . . .
164(7) . . .
156(7) . . .
138(6) . . .
157(6) . . .
153(7) . . .
170(7) . . .
137(6) . . .
135(6) . . .
141(6) . . .
156(7) . . .
148(7) . . .
136(6) . . .
155(7) . . .
144(6) . . .
143(6) . . .
141(6) . . .
131(6) . . .
142(6) . . .
156(7) . . .
159(7) . . .
155(7) . . .
162(7) . . .
146(6) . . .
145(6) . . .
151(7) . . .
154(7) . . .
145(6) . . .
152(6) . . .
135(6) . . .
138(6) . . .
147(7) . . .
149(6) . . .
149(6) . . .
145(6) . . .
157(7) . . .
168(7) . . .
148(6) . . .
145(6) . . .
154(6) . . .
146(7) . . .
148(7) . . .
156(7) . . .
146(6) . . .
140(6) . . .
159(7) . . .
149(7) . . .
149(7) . . .
144(6) . . .
150(6) . . .
155(7) . . .
144(7) . . .
155(7) . . .
154(6) . . .
152(7) . . .
148(7) . . .
141(7) . . .
141(6) . . .
143(6) . . .
136(6) . . .
147(7) . . .
154(7) . . .
154(7) . . .
162(7) . . .
152(7) . . .
165(7) . . .
148(6) . . .
154(7) . . .
159(7) . . .
139(6) . . .
152(7) . . .
157(7) . . .
141(6) . . .
116(6) . . .
139(6) . . .
140(6) . . .
157(7) . . .
163(7) . . .
151(6) . . .
139(6) . . .
149(7) . . .
141(6) . . .
141(6) . . .
157(7) . . .
151(7) . . .
139(6) . . .
170(7) . . .
140(6) . . .
155(6) . . .
151(7) . . .
146(7) . . .
144(6) . . .
149(6) . . .
137(6) . . .
135(6) . . .
133(6) . . .
155(7) . . .
144(6) . . .
157(7) . . .
145(6) . . .
152(7) . . .
145(6) . . .
139(6) . . .
153(7) . . .
142(6) . . .
142(6) . . .
161(7) . . .
153(6) . . .
147(7) . . .
153(7) . . .
146(7) . . .
164(7) . . .
143(6) . . .
143(6) . . .
154(7) . . .
159(7) . . .
143(6) . . .
143(6) . . .
145(6) . . .
142(7) . . .
136(6) . . .
148(6) . . .
147(6) . . .
144(6) . . .
146(7) . . .
142(6) . . .
169(7) . . .
152(6) . . .
157(7) . . .
144(7) . . .
149(6) . . .
157(6) . . .
145(6) . . .
164(7) . . .
145(7) . . .
147(6) . . .
153(6) . . .
165(7) . . .
166(7) . . .
162(7) . . .
158(7) . . .
142(6) . . .
162(7) . . .
150(7) . . .
148(7) . . .
143(6) . . .
149(6) . . .
143(6) . . .
134(6) . . .
156(7) . . .
156(7) . . .
149(6) . . .
168(7) . . .
159(7) . . .
163(7) . . .
151(7) . . .
156(6) . . .
145(6) . . .
151(7) . . .
153(7) . . .
133(6) . . .
161(7) . . .
164(7) . . .
150(7) . . .
145(7) . . .
151(6) . . .
152(6) . . .
153(7) . . .
134(6) . . .
138(6) . . .
158(7) . . .
158(7) . . .
143(7) . . .
131(6) . . .
138(6) . . .
152(6) . . .
149(6) . . .
159(7) . . .
153(7) . . .
151(7) . . .
139(6) . . .
150(6) . . .
148(7) . . .
154(7) . . .
146(7) . . .
150(6) . . .
145(6) . . .
141(6) . . .
150(7) . . .
138(6) . . .
171(7) . . .
129(6) . . .
159(7) . . .
151(7) . . .
160(7) . . .
151(6) . . .
149(6) . . .
158(7) . . .
133(6) . . .
149(7) . . .
158(7) . . .
160(7) . . .
152(7) . . .
151(7) . . .
152(7) . . .
149(6) . . .
146(6) . . .
143(6) . . .
162(7) . . .
139(6) . . .
138(6) . . .
158(7) . . .
151(7) . . .
149(7) . . .
142(6) . . .
136(6) . . .
143(6) . . .
158(7) . . .
144(7) . . .
146(6) . . .
148(6) . . .
146(7) . . .
135(6) . . .
130(6) . . .
142(6) . . .
144(6) . . .
159(7) . . .
155(7) . . .
137(6) . . .
173(7) . . .
153(6) . . .
149(6) . . .
167(7) . . .
139(6) . . .
162(7) . . .
161(7) . . .
144(6) . . .
159(7) . . .
175(7) . . .
138(6) . . .
169(7) . . .
146(6) . . .
149(7) . . .
144(6) . . .
140(6) . . .
144(6) . . .
138(6) . . .
149(7) . . .
132(6) . . .
143(6) . . .
165(7) . . .
148(7) . . .
141(7) . . .
145(6) . . .
156(6) . . .
152(7) . . .
141(6) . . .
148(7) . . .
159(7) . . .
151(6) . . .
146(7) . . .
141(6) . . .
154(7) . . .
145(6) . . .
155(6) . . .
140(6) . . .
132(6) . . .
136(6) . . .
146(6) . . .
143(6) . . .
133(6) . . .
126(6) . . .
146(6) . . .
156(7) . . .
151(6) . . .
153(7) . . .
152(7) . . .
145(7) . . .
137(6) . . .
150(6) . . .
137(6) . . .
139(7) . . .
160(7) . . .
148(6) . . .
130(6) . . .
154(7) . . .
137(7) . . .
143(6) . . .
161(7) . . .
157(7) . . .
152(7) . . .
157(7) . . .
149(7) . . .
142(6) . . .
147(6) . . .
145(7) . . .
151(7) . . .
160(7) . . .
149(6) . . .
156(7) . . .
165(7) . . .
140(6) . . .
165(7) . . .
161(7) . . .
139(6) . . .
150(6) . . .
141(6) . . .
160(7) . . .
159(7) . . .
161(7) . . .
160(7) . . .
160(7) . . .
158(7) . . .
153(6) . . .
157(7) . . .
152(7) . . .
142(7) . . .
142(6) . . .
137(6) . . .
157(7) . . .
148(6) . . .
149(6) . . .
152(6) . . .
142(6) . . .
149(6) . . .
155(7) . . .
150(7) . . .
145(6) . . .
158(7) . . .
155(7) . . .
153(7) . . .
166(7) . . .
151(6) . . .
149(6) . . .
140(6) . . .
143(7) . . .
148(7) . . .
148(6) . . .
157(7) . . .
163(7) . . .
144(7) . . .
147(6) . . .
148(6) . . .
129(6) . . .
145(7) . . .
152(7) . . .
138(6) . . .
157(6) . . .
152(7) . . .
129(6) . . .
149(7) . . .
151(7) . . .
150(6) . . .
140(6) . . .
159(7) . . .
137(6) . . .
153(7) . . .
149(6) . . .
148(6) . . .
131(6) . . .
136(7) . . .
143(7) . . .
139(6) . . .
148(6) . . .
149(7) . . .
150(7) . . .
148(6) . . .
144(6) . . .
143(7) . . .
129(6) . . .
141(6) . . .
132(6) . . .
147(6) . . .
149(7) . . .
154(7) . . .
149(7) . . .
164(7) . . .
143(6) . . .
144(6) . . .
135(6) . . .
132(6) . . .
146(6) . . .
151(6) . . .
150(6) . . .
136(6) . . .
158(7) . . .
142(6) . . .
124(6) . . .
157(7) . . .
140(7) . . .
150(7) . . .
136(6) . . .
156(7) . . .
141(6) . . .
149(7) . . .
142(6) . . .
143(6) . . .
147(6) . . .
165(7) . . .
140(6) . . .
134(6) . . .
151(6) . . .
128(6) . . .
136(6) . . .
135(6) . . .
164(7) . . .
161(7) . . .
142(6) . . .
137(6) . . .
137(6) . . .
159(7) . . .
152(6) . . .
155(7) . . .
150(7) . . .
132(6) . . .
136(6) . . .
135(6) . . .
150(6) . . .
133(6) . . .
144(7) . . .
148(7) . . .
143(6) . . .
133(6) . . .
145(7) . . .
152(7) . . .
158(7) . . .
147(6) . . .
149(7) . . .
116(6) . . .
140(6) . . .
137(6) . . .
141(6) . . .
152(7) . . .
148(7) . . .
129(6) . . .
142(6) . . .
158(7) . . .
143(6) . . .
133(6) . . .
161(7) . . .
152(6) . . .
139(6) . . .
147(6) . . .
149(7) . . .
155(7) . . .
129(6) . . .
149(6) . . .
148(7) . . .
142(7) . . .
156(7) . . .
161(7) . . .
166(7) . . .
136(6) . . .
137(6) . . .
127(6) . . .
151(6) . . .
146(6) . . .
171(7) . . .
136(6) . . .
140(6) . . .
135(6) . . .
151(6) . . .
157(7) . . .
133(6) . . .
139(6) . . .
149(6) . . .
148(6) . . .
152(7) . . .
158(7) . . .
134(6) . . .
140(6) . . .
151(7) . . .
160(7) . . .
152(7) . . .
141(6) . . .
138(6) . . .
139(7) . . .
137(6) . . .
152(7) . . .
132(6) . . .
133(6) . . .
162(7) . . .
158(7) . . .
149(7) . . .
142(6) . . .
155(6) . . .
148(7) . . .
143(7) . . .
149(7) . . .
154(6) . . .
144(6) . . .
156(7) . . .
140(7) . . .
145(6) . . .
156(7) . . .
146(6) . . .
158(7) . . .
151(7) . . .
161(7) . . .
146(6) . . .
137(6) . . .
142(6) . . .
146(7) . . .
139(6) . . .
141(6) . . .
138(6) . . .
153(7) . . .
153(7) . . .
148(6) . . .
149(6) . . .
149(7) . . .
134(6) . . .
146(7) . . .
163(7) . . .
145(6) . . .
156(7) . . .
146(7) . . .
126(6) . . .
133(6) . . .
145(6) . . .
145(6) . . .
143(6) . . .
132(6) . . .
153(6) . . .
133(6) . . .
136(6) . . .
148(7) . . .
140(6) . . .
153(6) . . .
159(7) . . .
130(6) . . .
142(6) . . .
167(7) . . .
143(6) . . .
130(6) . . .
129(6) . . .
134(6) . . .
150(7) . . .
135(6) . . .
142(6) . . .
149(7) . . .
148(7) . . .
142(7) . . .
138(6) . . .
148(6) . . .
130(6) . . .
130(6) . . .
132(6) . . .
150(6) . . .
140(6) . . .
141(7) . . .
159(7) . . .
151(7) . . .
139(6) . . .
160(7) . . .
160(7) . . .
151(7) . . .
149(7) . . .
136(6) . . .
122(6) . . .
157(7) . . .
147(7) . . .
155(7) . . .
150(6) . . .
141(6) . . .
139(6) . . .
131(6) . . .
144(6) . . .
156(6) . . .
136(6) . . .
136(6) . . .
136(6) . . .
145(6) . . .
147(6) . . .
127(6) . . .
143(7) . . .
133(6) . . .
154(7) . . .
155(6) . . .
133(6) . . .
136(7) . . .
150(7) . . .
163(7) . . .
160(7) . . .
139(6) . . .
139(6) . . .
137(6) . . .
156(6) . . .
134(6) . . .
146(6) . . .
143(7) . . .
130(6) . . .
141(6) . . .
139(6) . . .
146(6) . . .
161(7) . . .
153(7) . . .
142(6) . . .
153(6) . . .
166(7) . . .
152(7) . . .
145(6) . . .
145(6) . . .
150(6) . . .
154(7) . . .
148(7) . . .
141(7) . . .
138(6) . . .
145(6) . . .
157(7) . . .
153(7) . . .
144(7) . . .
136(6) . . .
138(6) . . .
143(7) . . .
144(7) . . .
144(6) . . .
140(6) . . .
150(7) . . .
144(7) . . .
130(6) . . .
156(7) . . .
134(6) . . .
158(7) . . .
151(7) . . .
152(7) . . .
144(6) . . .
136(6) . . .
151(7) . . .
158(7) . . .
143(6) . . .
139(6) . . .
140(6) . . .
136(6) . . .
142(7) . . .
135(6) . . .
150(6) . . .
147(6) . . .
150(7) . . .
151(7) . . .
158(7) . . .
133(6) . . .
138(6) . . .
136(6) . . .
139(6) . . .
141(6) . . .
132(6) . . .
143(6) . . .
144(6) . . .
143(7) . . .
151(7) . . .
148(6) . . .
140(6) . . .
140(6) . . .
134(6) . . .
136(6) . . .
136(6) . . .
147(6) . . .
170(7) . . .
155(7) . . .
150(7) . . .
148(6) . . .
151(7) . . .
137(6) . . .
144(7) . . .
151(7) . . .
151(6) . . .
157(7) . . .
168(7) . . .
150(6) . . .
167(7) . . .
152(6) . . .
164(7) . . .
154(7) . . .
158(7) . . .
144(6) . . .
146(6) . . .
144(7) . . .
121(6) . . .
159(7) . . .
165(7) . . .
162(7) . . .
160(7) . . .
149(7) . . .
134(6) . . .
151(6) . . .
163(7) . . .
159(7) . . .
142(7) . . .
133(6) . . .
136(6) . . .
129(6) . . .
152(7) . . .
144(7) . . .
127(6) . . .
148(6) . . .
137(6) . . .
156(7) . . .
157(7) . . .
143(6) . . .
142(6) . . .
145(6) . . .
147(7) . . .
155(7) . . .
144(6) . . .
141(6) . . .
127(6) . . .
146(7) . . .
141(7) . . .
124(6) . . .
141(6) . . .
137(6) . . .
127(6) . . .
144(6) . . .
150(7) . . .
144(6) . . .
137(6) . . .
157(7) . . .
140(6) . . .
132(6) . . .
142(6) . . .
144(7) . . .
136(6) . . .
142(6) . . .
134(6) . . .
145(6) . . .
126(6) . . .
126(6) . . .
126(6) . . .
147(6) . . .
138(6) . . .
132(6) . . .
142(7) . . .
154(7) . . .
137(6) . . .
133(6) . . .
157(7) . . .
161(7) . . .
143(6) . . .
148(6) . . .
140(6) . . .
152(7) . . .
141(7) . . .
128(6) . . .
163(7) . . .
137(6) . . .
152(7) . . .
136(7) . . .
160(7) . . .
145(6) . . .
135(6) . . .
150(7) . . .
166(7) . . .
140(6) . . .
168(7) . . .
149(7) . . .
152(7) . . .
155(7) . . .
174(7) . . .
144(6) . . .
143(6) . . .
160(7) . . .
147(6) . . .
156(7) . . .
133(6) . . .
162(7) . . .
167(7) . . .
147(7) . . .
133(6) . . .
140(6) . . .
142(6) . . .
144(6) . . .
149(7) . . .
163(7) . . .
148(6) . . .
140(6) . . .
134(6) . . .
152(7) . . .
142(6) . . .
156(7) . . .
139(6) . . .
151(7) . . .
153(7) . . .
169(7) . . .
153(6) . . .
144(7) . . .
153(7) . . .
143(6) . . .
136(6) . . .
156(6) . . .
131(6) . . .
134(7) . . .
135(6) . . .
143(6) . . .
152(7) . . .
157(7) . . .
160(7) . . .
140(6) . . .
144(6) . . .
137(6) . . .
136(6) . . .
141(6) . . .
144(6) . . .
142(6) . . .
156(7) . . .
136(6) . . .
151(7) . . .
140(6) . . .
150(6) . . .
146(6) . . .
135(6) . . .
157(7) . . .
161(7) . . .
161(7) . . .
135(6) . . .
143(7) . . .
135(6) . . .
130(6) . . .
138(6) . . .
147(7) . . .
145(7) . . .
159(7) . . .
146(6) . . .
143(6) . . .
143(6) . . .
150(7) . . .
148(6) . . .
145(6) . . .
142(6) . . .
152(7) . . .
158(7) . . .
148(7) . . .
122(6) . . .
146(6) . . .
162(7) . . .
135(6) . . .
140(6) . . .
135(6) . . .
147(6) . . .
136(6) . . .
155(7) . . .
140(6) . . .
151(6) . . .
134(6) . . .
139(6) . . .
142(7) . . .
135(6) . . .
137(6) . . .
146(6) . . .
141(6) . . .
148(7) . . .
155(7) . . .
156(7) . . .
155(7) . . .
148(7) . . .
149(7) . . .
154(7) . . .
157(6) . . .
146(6) . . .
140(6) . . .
149(7) . . .
135(6) . . .
137(6) . . .
141(6) . . .
137(6) . . .
144(6) . . .
145(6) . . .
164(7) . . .
156(7) . . .
151(7) . . .
157(7) . . .
162(7) . . .
147(6) . . .
152(7) . . .
161(7) . . .
166(7) . . .
144(6) . . .
164(7) . . .
143(6) . . .
145(7) . . .
145(6) . . .
133(6) . . .
156(6) . . .
153(6) . . .
153(7) . . .
151(6) . . .
147(6) . . .
147(6) . . .
159(7) . . .
151(7) . . .
135(6) . . .
139(6) . . .
148(6) . . .
139(6) . . .
152(7) . . .
151(6) . . .
156(6) . . .
130(6) . . .
140(6) . . .
147(7) . . .
147(7) . . .
159(6) . . .
153(7) . . .
140(6) . . .
151(7) . . .
153(7) . . .
156(6) . . .
139(6) . . .
124(6) . . .
132(6) . . .
139(6) . . .
133(6) . . .
156(7) . . .
128(6) . . .
135(6) . . .
151(7) . . .
134(6) . . .
143(6) . . .
150(7) . . .
142(6) . . .
168(7) . . .
142(6) . . .
126(6) . . .
138(6) . . .
132(6) . . .
117(6) . . .
136(6) . . .
138(6) . . .
135(6) . . .
149(7) . . .
139(6) . . .
133(6) . . .
137(6) . . .
140(7) . . .
152(7) . . .
143(6) . . .
148(6) . . .
144(6) . . .
153(7) . . .
136(6) . . .
143(6) . . .
143(6) . . .
147(7) . . .
147(7) . . .
138(6) . . .
148(6) . . .
144(6) . . .
139(6) . . .
150(7) . . .
150(7) . . .
136(6) . . .
152(7) . . .
132(6) . . .
140(6) . . .
145(7) . . .
152(7) . . .
141(6) . . .
137(6) . . .
129(6) . . .
131(6) . . .
138(6) . . .
140(6) . . .
141(6) . . .
140(7) . . .
127(6) . . .
137(6) . . .
136(6) . . .
135(6) . . .
142(7) . . .
137(6) . . .
146(6) . . .
142(6) . . .
148(7) . . .
143(6) . . .
127(6) . . .
130(6) . . .
146(6) . . .
169(7) . . .
154(7) . . .
145(6) . . .
136(6) . . .
152(7) . . .
130(6) . . .
144(7) . . .
130(6) . . .
142(6) . . .
158(7) . . .
140(7) . . .
150(7) . . .
145(6) . . .
146(6) . . .
148(6) . . .
149(7) . . .
136(6) . . .
142(6) . . .
135(6) . . .
142(6) . . .
149(7) . . .
142(6) . . .
144(6) . . .
154(7) . . .
127(6) . . .
134(6) . . .
145(6) . . .
157(7) . . .
125(6) . . .
139(6) . . .
144(7) . . .
136(6) . . .
136(6) . . .
148(6) . . .
136(6) . . .
144(7) . . .
138(6) . . .
134(6) . . .
141(6) . . .
122(6) . . .
128(6) . . .
143(6) . . .
127(6) . . .
138(6) . . .
136(6) . . .
141(7) . . .
136(6) . . .
140(6) . . .
119(6) . . .
139(6) . . .
146(7) . . .
150(6) . . .
144(6) . . .
137(6) . . .
133(6) . . .
128(6) . . .
148(6) . . .
146(6) . . .
136(6) . . .
155(7) . . .
134(6) . . .
133(6) . . .
156(6) . . .
144(7) . . .
129(6) . . .
135(6) . . .
126(6) . . .
131(6) . . .
134(6) . . .
145(7) . . .
154(7) . . .
146(6) . . .
143(6) . . .
133(6) . . .
148(7) . . .
137(6) . . .
143(6) . . .
139(6) . . .
145(7) . . .
154(7) . . .
141(6) . . .
140(6) . . .
151(6) . . .
131(6) . . .
149(7) . . .
132(6) . . .
135(6) . . .
144(6) . . .
143(6) . . .
140(7) . . .
142(6) . . .
150(6) . . .
144(7) . . .
128(6) . . .
134(6) . . .
133(6) . . .
137(6) . . .
144(7) . . .
145(7) . . .
129(6) . . .
132(6) . . .
129(6) . . .
126(6) . . .
134(6) . . .
136(6) . . .
136(6) . . .
131(6) . . .
150(7) . . .
139(6) . . .
146(6) . . .
129(6) . . .
145(6) . . .
132(6) . . .
151(7) . . .
125(6) . . .
149(6) . . .
129(6) . . .
153(7) . . .
122(6) . . .
150(7) . . .
137(6) . . .
132(6) . . .
143(6) . . .
144(7) . . .
137(6) . . .
157(7) . . .
124(6) . . .
129(6) . . .
135(6) . . .
146(7) . . .
147(6) . . .
138(6) . . .
140(6) . . .
142(6) . . .
135(6) . . .
143(6) . . .
134(6) . . .
131(6) . . .
130(6) . . .
130(6) . . .
144(6) . . .
139(6) . . .
135(6) . . .
132(6) . . .
136(6) . . .
139(6) . . .
146(6) . . .
138(6) . . .
149(7) . . .
123(6) . . .
144(6) . . .
147(7) . . .
139(6) . . .
124(6) . . .
146(6) . . .
127(6) . . .
152(7) . . .
137(6) . . .
138(6) . . .
139(6) . . .
139(6) . . .
151(7) . . .
144(7) . . .
134(6) . . .
134(6) . . .
124(6) . . .
139(6) . . .
142(7) . . .
147(6) . . .
139(6) . . .
143(6) . . .
141(6) . . .
135(6) . . .
118(6) . . .
133(6) . . .
131(6) . . .
139(6) . . .
137(7) . . .
136(6) . . .
132(6) . . .
139(6) . . .
146(6) . . .
141(6) . . .
143(6) . . .
146(6) . . .
139(6) . . .
136(6) . . .
136(6) . . .
143(6) . . .
125(6) . . .
117(6) . . .
128(6) . . .
130(6) . . .
132(6) . . .
145(6) . . .
129(6) . . .
138(6) . . .
129(6) . . .
116(6) . . .
139(6) . . .
162(7) . . .
130(6) . . .
127(6) . . .
125(6) . . .
142(6) . . .
124(6) . . .
130(6) . . .
126(6) . . .
132(6) . . .
135(6) . . .
126(6) . . .
148(7) . . .
145(7) . . .
125(6) . . .
135(6) . . .
145(7) . . .
130(6) . . .
131(6) . . .
140(6) . . .
125(6) . . .
130(6) . . .
149(7) . . .
130(6) . . .
145(6) . . .
137(6) . . .
132(6) . . .
147(7) . . .
129(6) . . .
148(6) . . .
132(6) . . .
135(6) . . .
126(6) . . .
126(6) . . .
135(6) . . .
142(6) . . .
133(6) . . .
123(6) . . .
137(6) . . .
141(6) . . .
141(6) . . .
148(7) . . .
139(6) . . .
142(6) . . .
142(6) . . .
131(6) . . .
148(7) . . .
140(6) . . .
138(6) . . .
150(6) . . .
150(7) . . .
141(6) . . .
132(6) . . .
136(6) . . .
138(6) . . .
141(6) . . .
128(6) . . .
140(6) . . .
139(6) . . .
123(6) . . .
125(6) . . .
139(7) . . .
124(6) . . .
126(6) . . .
129(6) . . .
135(6) . . .
131(6) . . .
147(7) . . .
146(6) . . .
151(6) . . .
157(7) . . .
140(7) . . .
154(7) . . .
147(6) . . .
147(6) . . .
151(7) . . .
147(7) . . .
131(6) . . .
124(6) . . .
138(6) . . .
134(6) . . .
120(6) . . .
132(6) . . .
135(6) . . .
144(6) . . .
136(6) . . .
130(6) . . .
132(6) . . .
130(6) . . .
120(6) . . .
124(6) . . .
139(6) . . .
153(7) . . .
138(6) . . .
131(6) . . .
132(6) . . .
128(6) . . .
140(6) . . .
141(6) . . .
141(6) . . .
148(7) . . .
127(6) . . .
139(6) . . .
131(6) . . .
137(6) . . .
151(7) . . .
145(6) . . .
145(6) . . .
144(6) . . .
149(7) . . .
144(7) . . .
136(6) . . .
151(6) . . .
124(6) . . .
145(6) . . .
124(6) . . .
116(6) . . .
133(6) . . .
143(6) . . .
140(6) . . .
141(7) . . .
136(6) . . .
137(6) . . .
146(6) . . .
136(6) . . .
131(6) . . .
137(6) . . .
138(6) . . .
138(6) . . .
140(6) . . .
128(6) . . .
128(6) . . .
144(6) . . .
135(6) . . .
132(6) . . .
136(6) . . .
139(7) . . .
134(6) . . .
139(6) . . .
120(6) . . .
141(7) . . .
125(6) . . .
147(6) . . .
134(6) . . .
138(6) . . .
149(7) . . .
164(7) . . .
162(7) . . .
144(6) . . .
143(7) . . .
149(7) . . .
140(6) . . .
161(7) . . .
146(7) . . .
145(7) . . .
134(6) . . .
127(6) . . .
139(6) . . .
145(7) . . .
129(6) . . .
155(7) . . .
142(6) . . .
128(6) . . .
133(6) . . .
126(6) . . .
133(6) . . .
129(6) . . .
119(6) . . .
145(7) . . .
135(6) . . .
140(6) . . .
150(6) . . .
138(6) . . .
134(6) . . .
127(6) . . .
134(6) . . .
136(6) . . .
144(6) . . .
156(7) . . .
131(6) . . .
122(6) . . .
136(6) . . .
151(6) . . .
128(6) . . .
133(6) . . .
124(6) . . .
136(6) . . .
127(6) . . .
117(6) . . .
144(6) . . .
137(6) . . .
137(6) . . .
157(7) . . .
140(6) . . .
128(6) . . .
137(6) . . .
121(6) . . .
137(6) . . .
144(7) . . .
139(6) . . .
141(6) . . .
132(6) . . .
140(7) . . .
145(7) . . .
131(6) . . .
120(6) . . .
130(6) . . .
138(6) . . .
135(6) . . .
149(7) . . .
130(6) . . .
129(6) . . .
144(7) . . .
136(7) . . .
120(6) . . .
136(6) . . .
123(6) . . .
131(6) . . .
148(7) . . .
149(7) . . .
135(6) . . .
154(6) . . .
136(6) . . .
129(6) . . .
127(6) . . .
102(5) . . .
133(6) . . .
140(6) . . .
143(6) . . .
132(6) . . .
123(6) . . .
157(7) . . .
144(6) . . .
124(6) . . .
143(7) . . .
128(6) . . .
137(6) . . .
125(6) . . .
127(6) . . .
128(6) . . .
139(6) . . .
136(6) . . .
130(6) . . .
145(7) . . .
127(6) . . .
121(6) . . .
140(6) . . .
141(6) . . .
130(6) . . .
131(6) . . .
137(6) . . .
153(7) . . .
142(7) . . .
122(6) . . .
142(7) . . .
138(6) . . .
138(6) . . .
152(7) . . .
132(6) . . .
142(6) . . .
126(6) . . .
156(7) . . .
136(6) . . .
126(6) . . .
117(6) . . .
136(6) . . .
130(6) . . .
138(7) . . .
143(6) . . .
126(6) . . .
136(6) . . .
137(6) . . .
162(7) . . .
144(6) . . .
128(6) . . .
141(6) . . .
138(6) . . .
126(6) . . .
132(6) . . .
122(6) . . .
117(6) . . .
130(6) . . .
133(6) . . .
145(6) . . .
143(6) . . .
132(6) . . .
137(6) . . .
124(6) . . .
125(6) . . .
119(6) . . .
148(6) . . .
146(6) . . .
144(7) . . .
136(6) . . .
144(6) . . .
151(7) . . .
119(6) . . .
129(6) . . .
146(6) . . .
127(6) . . .
130(6) . . .
140(6) . . .
141(6) . . .
138(6) . . .
142(6) . . .
125(6) . . .
148(7) . . .
128(6) . . .
136(6) . . .
143(6) . . .
125(6) . . .
126(6) . . .
122(6) . . .
126(6) . . .
137(6) . . .
132(6) . . .
121(6) . . .
126(6) . . .
126(6) . . .
125(6) . . .
122(6) . . .
154(7) . . .
134(6) . . .
142(6) . . .
132(6) . . .
138(6) . . .
129(6) . . .
150(7) . . .
122(6) . . .
137(6) . . .
128(6) . . .
127(6) . . .
126(6) . . .
132(6) . . .
140(6) . . .
133(6) . . .
132(6) . . .
123(6) . . .
140(6) . . .
142(6) . . .
131(6) . . .
137(6) . . .
123(6) . . .
129(6) . . .
136(6) . . .
127(6) . . .
126(6) . . .
131(6) . . .
130(6) . . .
135(6) . . .
127(6) . . .
141(7) . . .
135(6) . . .
139(6) . . .
128(6) . . .
152(7) . . .
139(6) . . .
132(6) . . .
128(6) . . .
141(6) . . .
139(7) . . .
137(6) . . .
115(6) . . .
127(6) . . .
120(6) . . .
148(7) . . .
138(6) . . .
135(6) . . .
129(6) . . .
139(6) . . .
136(6) . . .
132(6) . . .
122(6) . . .
128(6) . . .
131(6) . . .
142(7) . . .
141(6) . . .
134(6) . . .
134(6) . . .
120(6) . . .
136(7) . . .
128(6) . . .
137(6) . . .
130(6) . . .
149(7) . . .
128(6) . . .
132(6) . . .
135(6) . . .
127(6) . . .
123(6) . . .
120(6) . . .
143(6) . . .
132(6) . . .
136(6) . . .
142(6) . . .
143(6) . . .
143(6) . . .
136(6) . . .
127(6) . . .
131(6) . . .
140(7) . . .
126(6) . . .
127(6) . . .
127(6) . . .
138(7) . . .
135(6) . . .
140(6) . . .
132(6) . . .
137(6) . . .
144(7) . . .
147(6) . . .
124(6) . . .
129(6) . . .
130(6) . . .
138(7) . . .
134(6) . . .
143(6) . . .
132(6) . . .
149(7) . . .
134(7) . . .
131(6) . . .
142(6) . . .
136(6) . . .
143(7) . . .
142(7) . . .
121(6) . . .
117(6) . . .
117(6) . . .
148(7) . . .
116(6) . . .
147(7) . . .
135(6) . . .
138(6) . . .
147(7) . . .
132(6) . . .
132(6) . . .
151(6) . . .
136(6) . . .
140(6) . . .
126(6) . . .
124(6) . . .
152(6) . . .
139(6) . . .
125(6) . . .
136(6) . . .
140(6) . . .
130(6) . . .
123(6) . . .
123(6) . . .
127(6) . . .
116(6) . . .
121(6) . . .
136(6) . . .
150(7) . . .
130(6) . . .
130(6) . . .
156(6) . . .
130(6) . . .
136(6) . . .
126(6) . . .
123(6) . . .
128(6) . . .
136(7) . . .
140(7) . . .
138(6) . . .
147(6) . . .
132(6) . . .
139(6) . . .
145(7) . . .
140(6) . . .
133(6) . . .
130(6) . . .
117(6) . . .
128(6) . . .
148(7) . . .
129(6) . . .
141(6) . . .
129(6) . . .
130(6) . . .
137(6) . . .
140(6) . . .
136(6) . . .
118(6) . . .
134(6) . . .
143(7) . . .
125(6) . . .
123(6) . . .
122(6) . . .
124(6) . . .
131(6) . . .
133(6) . . .
127(6) . . .
141(7) . . .
124(6) . . .
113(6) . . .
123(6) . . .
139(6) . . .
127(6) . . .
138(7) . . .
119(6) . . .
137(6) . . .
137(6) . . .
126(6) . . .
127(6) . . .
122(6) . . .
126(6) . . .
131(6) . . .
137(6) . . .
132(6) . . .
144(6) . . .
135(6) . . .
126(6) . . .
126(6) . . .
126(6) . . .
133(6) . . .
142(6) . . .
128(6) . . .
114(6) . . .
118(6) . . .
122(6) . . .
125(6) . . .
139(6) . . .
126(6) . . .
126(6) . . .
124(6) . . .
128(6) . . .
133(6) . . .
129(6) . . .
130(6) . . .
119(6) . . .
144(6) . . .
144(7) . . .
140(7) . . .
126(6) . . .
125(6) . . .
129(6) . . .
136(7) . . .
116(6) . . .
149(7) . . .
140(6) . . .
146(6) . . .
119(6) . . .
124(6) . . .
138(6) . . .
146(6) . . .
140(6) . . .
122(6) . . .
127(6) . . .
134(6) . . .
129(6) . . .
131(6) . . .
136(6) . . .
139(6) . . .
129(6) . . .
122(6) . . .
124(6) . . .
129(6) . . .
145(6) . . .
121(6) . . .
134(6) . . .
126(6) . . .
127(6) . . .
132(6) . . .
133(6) . . .
127(6) . . .
138(6) . . .
138(6) . . .
127(6) . . .
131(6) . . .
126(6) . . .
137(6) . . .
146(7) . . .
137(6) . . .
125(6) . . .
128(6) . . .
135(6) . . .
133(6) . . .
143(6) . . .
131(6) . . .
116(6) . . .
123(6) . . .
119(6) . . .
117(6) . . .
134(6) . . .
119(6) . . .
131(6) . . .
130(6) . . .
130(6) . . .
137(6) . . .
132(6) . . .
128(6) . . .
133(6) . . .
137(6) . . .
153(6) . . .
148(7) . . .
124(6) . . .
140(6) . . .
125(6) . . .
130(6) . . .
136(6) . . .
117(6) . . .
124(6) . . .
121(6) . . .
125(6) . . .
128(6) . . .
134(6) . . .
118(6) . . .
130(6) . . .
141(6) . . .
149(7) . . .
146(7) . . .
127(6) . . .
141(6) . . .
147(6) . . .
143(6) . . .
134(7) . . .
139(6) . . .
134(6) . . .
131(6) . . .
136(6) . . .
114(6) . . .
128(6) . . .
130(6) . . .
124(6) . . .
134(6) . . .
119(6) . . .
115(6) . . .
132(6) . . .
135(6) . . .
141(6) . . .
119(6) . . .
120(6) . . .
126(6) . . .
132(6) . . .
141(7) . . .
114(6) . . .
119(6) . . .
132(6) . . .
131(6) . . .
135(6) . . .
131(6) . . .
136(6) . . .
128(6) . . .
140(6) . . .
130(6) . . .
119(6) . . .
135(6) . . .
139(6) . . .
154(7) . . .
136(6) . . .
137(7) . . .
117(6) . . .
122(6) . . .
132(6) . . .
129(6) . . .
106(6) . . .
135(6) . . .
131(6) . . .
140(6) . . .
135(6) . . .
127(6) . . .
127(6) . . .
134(6) . . .
127(6) . . .
128(6) . . .
132(6) . . .
147(6) . . .
128(6) . . .
125(6) . . .
128(6) . . .
118(6) . . .
117(6) . . .
133(6) . . .
130(6) . . .
118(6) . . .
131(6) . . .
130(6) . . .
147(6) . . .
145(6) . . .
136(7) . . .
121(6) . . .
122(6) . . .
127(6) . . .
123(6) . . .
136(7) . . .
130(6) . . .
120(6) . . .
117(6) . . .
127(6) . . .
135(6) . . .
124(6) . . .
136(6) . . .
131(6) . . .
115(6) . . .
124(6) . . .
136(6) . . .
141(6) . . .
140(6) . . .
140(6) . . .
145(6) . . .
125(6) . . .
131(6) . . .
117(6) . . .
142(7) . . .
120(6) . . .
126(6) . . .
135(6) . . .
125(6) . . .
136(6) . . .
117(6) . . .
139(6) . . .
144(6) . . .
131(6) . . .
128(6) . . .
128(6) . . .
126(6) . . .
127(6) . . .
131(6) . . .
140(6) . . .
132(6) . . .
134(6) . . .
125(6) . . .
127(6) . . .
122(6) . . .
131(6) . . .
115(6) . . .
130(6) . . .
128(6) . . .
123(6) . . .
151(7) . . .
141(6) . . .
128(6) . . .
130(6) . . .
119(6) . . .
107(6) . . .
137(6) . . .
121(6) . . .
118(6) . . .
126(6) . . .
122(6) . . .
124(6) . . .
133(6) . . .
133(6) . . .
132(6) . . .
131(6) . . .
128(6) . . .
134(6) . . .
137(6) . . .
127(6) . . .
136(6) . . .
138(6) . . .
129(6) . . .
127(6) . . .
134(6) . . .
116(6) . . .
149(6) . . .
130(6) . . .
133(6) . . .
135(6) . . .
132(6) . . .
123(6) . . .
123(6) . . .
129(6) . . .
129(6) . . .
137(6) . . .
141(6) . . .
140(6) . . .
136(7) . . .
142(6) . . .
142(6) . . .
118(6) . . .
129(6) . . .
125(6) . . .
122(6) . . .
118(6) . . .
144(6) . . .
145(7) . . .
131(6) . . .
124(6) . . .
123(6) . . .
129(6) . . .
134(6) . . .
121(6) . . .
147(7) . . .
119(6) . . .
134(6) . . .
131(6) . . .
154(7) . . .
144(6) . . .
134(6) . . .
135(6) . . .
118(6) . . .
121(6) . . .
128(6) . . .
126(6) . . .
127(6) . . .
106(6) . . .
122(6) . . .
132(6) . . .
117(6) . . .
139(7) . . .
120(6) . . .
100(5) . . .
142(6) . . .
127(6) . . .
126(6) . . .
126(6) . . .
145(7) . . .
118(6) . . .
139(6) . . .
139(6) . . .
127(6) . . .
125(6) . . .
122(6) . . .
130(6) . . .
131(6) . . .
123(6) . . .
129(6) . . .
133(6) . . .
120(6) . . .
116(6) . . .
119(6) . . .
125(6) . . .
130(6) . . .
145(6) . . .
121(6) . . .
109(6) . . .
133(6) . . .
136(6) . . .
121(6) . . .
119(6) . . .
131(6) . . .
140(6) . . .
133(6) . . .
129(6) . . .
123(6) . . .
125(6) . . .
131(6) . . .
129(6) . . .
146(7) . . .
142(6) . . .
134(6) . . .
138(6) . . .
124(6) . . .
120(6) . . .
137(6) . . .
141(6) . . .
131(6) . . .
136(6) . . .
123(6) . . .
141(7) . . .
112(6) . . .
125(6) . . .
119(6) . . .
128(6) . . .
143(7) . . .
136(6) . . .
134(6) . . .
138(6) . . .
121(6) . . .
126(6) . . .
131(6) . . .
141(6) . . .
131(6) . . .
125(6) . . .
131(6) . . .
121(6) . . .
142(6) . . .
137(6) . . .
143(6) . . .
138(6) . . .
130(6) . . .
128(6) . . .
127(6) . . .
140(6) . . .
128(6) . . .
136(6) . . .
128(6) . . .
141(6) . . .
123(6) . . .
135(6) . . .
132(6) . . .
124(6) . . .
121(6) . . .
132(6) . . .
123(6) . . .
121(6) . . .
138(6) . . .
121(6) . . .
137(6) . . .
123(6) . . .
123(6) . . .
111(5) . . .
127(6) . . .
135(6) . . .
146(7) . . .
151(7) . . .
135(6) . . .
141(6) . . .
147(6) . . .
130(6) . . .
129(6) . . .
119(6) . . .
127(6) . . .
129(6) . . .
129(6) . . .
133(6) . . .
139(6) . . .
125(6) . . .
129(6) . . .
144(7) . . .
130(6) . . .
121(6) . . .
126(6) . . .
110(6) . . .
128(6) . . .
118(6) . . .
144(6) . . .
145(6) . . .
153(7) . . .
134(6) . . .
137(6) . . .
130(6) . . .
124(6) . . .
120(6) . . .
123(6) . . .
123(6) . . .
128(6) . . .
132(6) . . .
145(7) . . .
130(6) . . .
142(6) . . .
157(7) . . .
139(6) . . .
130(6) . . .
127(6) . . .
138(6) . . .
151(7) . . .
148(7) . . .
142(7) . . .
120(6) . . .
138(6) . . .
133(6) . . .
130(6) . . .
125(6) . . .
130(6) . . .
125(6) . . .
134(6) . . .
119(6) . . .
122(6) . . .
134(6) . . .
125(6) . . .
119(6) . . .
118(6) . . .
139(6) . . .
143(6) . . .
128(6) . . .
129(6) . . .
124(6) . . .
129(6) . . .
126(6) . . .
138(6) . . .
133(6) . . .
126(6) . . .
124(6) . . .
128(6) . . .
121(6) . . .
127(6) . . .
140(7) . . .
137(6) . . .
118(6) . . .
134(6) . . .
127(6) . . .
131(6) . . .
130(6) . . .
122(6) . . .
131(6) . . .
148(7) . . .
132(6) . . .
137(6) . . .
144(6) . . .
128(6) . . .
111(6) . . .
122(6) . . .
119(6) . . .
128(6) . . .
135(6) . . .
133(6) . . .
126(6) . . .
135(6) . . .
135(6) . . .
152(7) . . .
118(6) . . .
123(6) . . .
120(6) . . .
132(6) . . .
125(6) . . .
128(6) . . .
129(6) . . .
132(6) . . .
110(5) . . .
135(6) . . .
130(6) . . .
129(6) . . .
114(6) . . .
133(6) . . .
121(6) . . .
125(6) . . .
119(6) . . .
125(6) . . .
134(6) . . .
129(6) . . .
122(6) . . .
112(6) . . .
126(6) . . .
110(5) . . .
122(6) . . .
117(6) . . .
125(6) . . .
130(6) . . .
131(6) . . .
126(6) . . .
122(6) . . .
124(6) . . .
115(6) . . .
125(6) . . .
119(6) . . .
133(7) . . .
119(6) . . .
122(6) . . .
123(6) . . .
130(6) . . .
125(6) . . .
133(6) . . .
109(5) . . .
121(6) . . .
134(6) . . .
127(6) . . .
137(7) . . .
124(6) . . .
140(6) . . .
114(6) . . .
103(6) . . .
124(6) . . .
135(6) . . .
132(6) . . .
136(6) . . .
131(6) . . .
110(5) . . .
123(6) . . .
126(6) . . .
120(6) . . .
136(6) . . .
131(6) . . .
120(6) . . .
127(6) . . .
130(6) . . .
121(6) . . .
122(6) . . .
140(6) . . .
134(6) . . .
130(6) . . .
136(6) . . .
131(6) . . .
122(6) . . .
115(6) . . .
141(7) . . .
119(6) . . .
132(6) . . .
133(6) . . .
122(6) . . .
133(7) . . .
125(6) . . .
136(6) . . .
112(6) . . .
122(6) . . .
143(7) . . .
135(6) . . .
136(6) . . .
133(6) . . .
135(6) . . .
131(7) . . .
127(6) . . .
129(6) . . .
139(6) . . .
147(7) . . .
117(6) . . .
119(6) . . .
136(6) . . .
129(6) . . .
126(6) . . .
120(6) . . .
124(6) . . .
139(6) . . .
135(6) . . .
125(6) . . .
110(6) . . .
127(6) . . .
126(6) . . .
131(6) . . .
120(6) . . .
134(6) . . .
122(6) . . .
117(6) . . .
131(6) . . .
128(6) . . .
133(6) . . .
138(6) . . .
131(6) . . .
120(6) . . .
119(6) . . .
129(6) . . .
121(6) . . .
132(6) . . .
132(6) . . .
130(6) . . .
122(6) . . .
127(6) . . .
137(6) . . .
127(6) . . .
107(6) . . .
129(6) . . .
127(6) . . .
114(6) . . .
131(6) . . .
119(6) . . .
116(6) . . .
126(6) . . .
116(6) . . .
127(6) . . .
93(5) . . .
135(6) . . .
121(6) . . .
122(6) . . .
128(6) . . .
139(7) . . .
127(6) . . .
116(6) . . .
134(6) . . .
138(6) . . .
116(6) . . .
135(6) . . .
124(6) . . .
123(6) . . .
114(6) . . .
118(6) . . .
122(6) . . .
117(6) . . .
137(6) . . .
127(6) . . .
130(6) . . .
126(6) . . .
125(6) . . .
117(6) . . .
121(6) . . .
128(6) . . .
132(6) . . .
122(6) . . .
124(6) . . .
134(6) . . .
128(6) . . .
132(6) . . .
119(6) . . .
135(6) . . .
134(6) . . .
138(6) . . .
135(6) . . .
131(6) . . .
129(6) . . .
132(6) . . .
123(6) . . .
123(6) . . .
142(6) . . .
134(6) . . .
136(7) . . .
123(6) . . .
122(6) . . .
126(6) . . .
128(6) . . .
127(6) . . .
127(6) . . .
108(5) . . .
124(6) . . .
127(6) . . .
123(6) . . .
115(6) . . .
102(5) . . .
131(6) . . .
125(6) . . .
125(6) . . .
128(6) . . .
109(5) . . .
129(6) . . .
123(6) . . .
127(6) . . .
129(6) . . .
128(6) . . .
134(6) . . .
138(6) . . .
128(6) . . .
143(6) . . .
129(6) . . .
118(6) . . .
138(6) . . .
136(6) . . .
126(6) . . .
114(6) . . .
132(6) . . .
123(6) . . .
131(6) . . .
130(6) . . .
118(6) . . .
121(6) . . .
134(6) . . .
132(6) . . .
122(6) . . .
122(6) . . .
118(6) . . .
123(6) . . .
122(6) . . .
110(6) . . .
123(6) . . .
133(6) . . .
132(7) . . .
135(6) . . .
130(6) . . .
119(6) . . .
127(6) . . .
137(7) . . .
129(6) . . .
122(6) . . .
122(6) . . .
117(6) . . .
131(7) . . .
118(6) . . .
127(6) . . .
127(6) . . .
128(6) . . .
141(7) . . .
129(6) . . .
132(6) . . .
122(6) . . .
123(6) . . .
123(6) . . .
142(6) . . .
134(6) . . .
123(6) . . .
117(6) . . .
118(6) . . .
119(6) . . .
112(6) . . .
126(6) . . .
135(6) . . .
125(6) . . .
112(6) . . .
114(6) . . .
116(6) . . .
127(6) . . .
122(6) . . .
121(6) . . .
133(6) . . .
137(6) . . .
129(6) . . .
130(6) . . .
125(6) . . .
124(6) . . .
117(6) . . .
137(7) . . .
124(6) . . .
134(6) . . .
117(6) . . .
122(6) . . .
122(6) . . .
110(6) . . .
116(6) . . .
131(6) . . .
130(6) . . .
125(6) . . .
138(6) . . .
124(6) . . .
137(6) . . .
120(6) . . .
110(6) . . .
128(6) . . .
134(6) . . .
118(6) . . .
116(6) . . .
131(6) . . .
138(6) . . .
115(6) . . .
99(5) . . .
115(6) . . .
110(6) . . .
112(6) . . .
111(5) . . .
118(6) . . .
119(6) . . .
133(6) . . .
133(6) . . .
124(6) . . .
122(6) . . .
122(6) . . .
137(6) . . .
118(6) . . .
119(6) . . .
121(6) . . .
121(6) . . .
126(6) . . .
134(6) . . .
133(6) . . .
131(6) . . .
134(6) . . .
116(6) . . .
109(5) . . .
127(6) . . .
136(6) . . .
126(6) . . .
134(6) . . .
119(6) . . .
121(6) . . .
123(6) . . .
127(6) . . .
115(6) . . .
122(6) . . .
113(6) . . .
114(6) . . .
130(7) . . .
120(6) . . .
114(6) . . .
128(6) . . .
125(6) . . .
108(6) . . .
107(6) . . .
127(6) . . .
132(6) . . .
112(6) . . .
125(6) . . .
128(6) . . .
117(6) . . .
126(6) . . .
123(6) . . .
108(6) . . .
122(6) . . .
123(6) . . .
103(5) . . .
126(6) . . .
124(6) . . .
122(6) . . .
132(6) . . .
112(6) . . .
131(6) . . .
122(6) . . .
134(6) . . .
132(6) . . .
124(6) . . .
125(6) . . .
132(6) . . .
107(6) . . .
121(6) . . .
124(6) . . .
123(6) . . .
112(6) . . .
120(6) . . .
120(6) . . .
120(6) . . .
143(7) . . .
115(6) . . .
123(6) . . .
119(6) . . .
125(6) . . .
104(6) . . .
118(6) . . .
130(6) . . .
123(6) . . .
120(6) . . .
119(6) . . .
125(6) . . .
127(6) . . .
120(6) . . .
130(6) . . .
130(6) . . .
115(6) . . .
131(6) . . .
125(6) . . .
125(6) . . .
112(6) . . .
117(6) . . .
117(6) . . .
128(6) . . .
127(6) . . .
117(6) . . .
122(6) . . .
127(6) . . .
134(6) . . .
118(6) . . .
117(6) . . .
134(6) . . .
126(6) . . .
121(6) . . .
126(6) . . .
124(6) . . .
109(6) . . .
123(6) . . .
130(6) . . .
118(6) . . .
127(6) . . .
128(6) . . .
130(6) . . .
116(6) . . .
114(6) . . .
116(6) . . .
118(6) . . .
126(6) . . .
129(6) . . .
116(6) . . .
126(6) . . .
113(6) . . .
123(6) . . .
115(6) . . .
123(6) . . .
117(6) . . .
141(6) . . .
121(6) . . .
119(6) . . .
120(6) . . .
130(6) . . .
122(6) . . .
114(6) . . .
107(6) . . .
129(6) . . .
121(6) . . .
135(6) . . .
124(6) . . .
124(6) . . .
132(6) . . .
111(6) . . .
117(6) . . .
125(6) . . .
130(6) . . .
113(6) . . .
128(6) . . .
128(6) . . .
141(6) . . .
121(6) . . .
120(6) . . .
114(6) . . .
108(5) . . .
115(6) . . .
118(6) . . .
120(6) . . .
117(6) . . .
115(6) . . .
114(6) . . .
120(6) . . .
125(6) . . .
130(6) . . .
117(6) . . .
132(6) . . .
123(6) . . .
120(6) . . .
116(6) . . .
122(6) . . .
134(6) . . .
138(7) . . .
132(6) . . .
123(6) . . .
119(6) . . .
116(6) . . .
127(6) . . .
114(6) . . .
136(6) . . .
143(6) . . .
115(6) . . .
123(6) . . .
115(6) . . .
124(6) . . .
114(6) . . .
111(6) . . .
114(6) . . .
128(6) . . .
111(6) . . .
102(5) . . .
108(6) . . .
126(6) . . .
117(6) . . .
121(6) . . .
131(6) . . .
113(6) . . .
126(6) . . .
122(6) . . .
137(6) . . .
136(6) . . .
129(6) . . .
124(6) . . .
121(6) . . .
125(6) . . .
114(6) . . .
133(6) . . .
118(6) . . .
113(6) . . .
126(6) . . .
120(6) . . .
128(6) . . .
119(6) . . .
124(6) . . .
122(6) . . .
118(6) . . .
122(6) . . .
134(6) . . .
136(6) . . .
128(6) . . .
114(6) . . .
120(6) . . .
127(6) . . .
124(6) . . .
127(6) . . .
122(6) . . .
112(6) . . .
104(6) . . .
106(5) . . .
128(6) . . .
119(6) . . .
125(6) . . .
110(6) . . .
103(5) . . .
125(6) . . .
130(6) . . .
132(6) . . .
110(6) . . .
130(6) . . .
127(6) . . .
121(6) . . .
138(7) . . .
116(6) . . .
118(6) . . .
114(6) . . .
115(6) . . .
109(6) . . .
128(6) . . .
109(5) . . .
124(6) . . .
122(6) . . .
113(6) . . .
134(6) . . .
118(6) . . .
131(6) . . .
112(6) . . .
134(6) . . .
111(6) . . .
116(6) . . .
119(6) . . .
118(6) . . .
129(6) . . .
105(5) . . .
122(6) . . .
120(6) . . .
134(6) . . .
111(6) . . .
99(5) . . .
125(6) . . .
135(6) . . .
122(6) . . .
120(6) . . .
124(6) . . .
123(6) . . .
124(6) . . .
132(6) . . .
114(6) . . .
120(6) . . .
126(6) . . .
119(6) . . .
116(6) . . .
119(6) . . .
120(6) . . .
112(5) . . .
119(6) . . .
121(6) . . .
122(6) . . .
127(6) . . .
117(6) . . .
130(6) . . .
120(6) . . .
102(5) . . .
111(5) . . .
137(6) . . .
130(6) . . .
113(6) . . .
132(6) . . .
128(6) . . .
111(6) . . .
114(6) . . .
123(6) . . .
124(6) . . .
102(5) . . .
110(6) . . .
134(6) . . .
124(6) . . .
118(6) . . .
116(6) . . .
126(6) . . .
115(6) . . .
122(6) . . .
115(6) . . .
115(6) . . .
114(6) . . .
126(6) . . .
122(6) . . .
119(6) . . .
128(6) . . .
115(6) . . .
122(6) . . .
104(5) . . .
102(5) . . .
118(6) . . .
110(5) . . .
118(6) . . .
131(6) . . .
118(6) . . .
122(6) . . .
106(5) . . .
121(6) . . .
123(6) . . .
106(5) . . .
102(5) . . .
115(6) . . .
116(6) . . .
111(6) . . .
120(6) . . .
112(5) . . .
138(6) . . .
113(6) . . .
119(6) . . .
115(6) . . .
118(6) . . .
116(6) . . .
116(6) . . .
118(6) . . .
124(6) . . .
121(6) . . .
123(6) . . .
113(6) . . .
109(6) . . .
119(6) . . .
114(6) . . .
110(6) . . .
118(6) . . .
119(6) . . .
117(6) . . .
112(6) . . .
123(6) . . .
122(6) . . .
110(6) . . .
107(5) . . .
131(6) . . .
109(6) . . .
117(6) . . .
110(5) . . .
109(5) . . .
120(6) . . .
116(6) . . .
119(6) . . .
121(6) . . .
125(6) . . .
104(6) . . .
109(6) . . .
117(6) . . .
135(6) . . .
116(6) . . .
113(6) . . .
107(6) . . .
116(6) . . .
114(6) . . .
125(6) . . .
121(6) . . .
102(5) . . .
118(6) . . .
120(6) . . .
117(6) . . .
116(6) . . .
131(7) . . .
109(5) . . .
119(6) . . .
110(6) . . .
115(6) . . .
130(6) . . .
119(6) . . .
103(5) . . .
102(5) . . .
120(6) . . .
102(5) . . .
112(6) . . .
127(6) . . .
117(6) . . .
112(6) . . .
118(6) . . .
114(6) . . .
136(6) . . .
110(5) . . .
122(6) . . .
119(6) . . .
105(6) . . .
119(6) . . .
124(6) . . .
113(6) . . .
110(6) . . .
124(6) . . .
115(6) . . .
130(6) . . .
123(6) . . .
115(6) . . .
113(6) . . .
126(6) . . .
113(6) . . .
113(6) . . .
121(6) . . .
125(6) . . .
126(6) . . .
118(6) . . .
111(6) . . .
121(6) . . .
126(6) . . .
138(6) . . .
136(6) . . .
116(6) . . .
114(6) . . .
126(6) . . .
112(6) . . .
118(6) . . .
119(6) . . .
112(6) . . .
121(6) . . .
116(6) . . .
112(6) . . .
129(7) . . .
116(6) . . .
119(6) . . .
136(6) . . .
104(5) . . .
106(6) . . .
115(6) . . .
111(5) . . .
112(6) . . .
117(6) . . .
111(6) . . .
105(6) . . .
115(6) . . .
118(6) . . .
119(6) . . .
111(6) . . .
103(5) . . .
117(6) . . .
128(6) . . .
124(6) . . .
119(6) . . .
125(6) . . .
111(5) . . .
97(5) . . .
112(6) . . .
116(6) . . .
129(6) . . .
126(6) . . .
122(6) . . .
119(6) . . .
124(6) . . .
123(6) . . .
121(6) . . .
120(6) . . .
110(6) . . .
110(6) . . .
128(6) . . .
130(6) . . .
126(6) . . .
126(6) . . .
140(6) . . .
136(6) . . .
132(6) . . .
121(6) . . .
112(6) . . .
123(6) . . .
115(6) . . .
123(6) . . .
123(6) . . .
129(6) . . .
126(6) . . .
134(6) . . .
133(6) . . .
127(6) . . .
127(6) . . .
110(6) . . .
107(5) . . .
132(6) . . .
108(5) . . .
117(6) . . .
125(6) . . .
116(6) . . .
120(6) . . .
121(6) . . .
123(6) . . .
120(6) . . .
120(6) . . .
119(6) . . .
124(6) . . .
110(6) . . .
135(6) . . .
127(6) . . .
125(6) . . .
125(6) . . .
112(6) . . .
128(6) . . .
129(6) . . .
123(6) . . .
122(6) . . .
129(6) . . .
140(6) . . .
129(6) . . .
131(6) . . .
127(6) . . .
123(6) . . .
137(6) . . .
121(6) . . .
112(6) . . .
124(6) . . .
111(6) . . .
121(6) . . .
117(6) . . .
124(6) . . .
113(6) . . .
124(6) . . .
120(6) . . .
113(6) . . .
109(5) . . .
111(6) . . .
116(6) . . .
115(6) . . .
119(6) . . .
126(6) . . .
119(6) . . .
125(6) . . .
116(6) . . .
122(6) . . .
127(6) . . .
129(6) . . .
114(6) . . .
114(6) . . .
123(6) . . .
121(6) . . .
110(5) . . .
124(6) . . .
124(6) . . .
125(6) . . .
118(6) . . .
121(6) . . .
119(6) . . .
123(6) . . .
118(6) . . .
123(6) . . .
111(6) . . .
100(5) . . .
98(5) . . .
127(6) . . .
127(6) . . .
124(6) . . .
114(6) . . .
104(5) . . .
113(6) . . .
119(6) . . .
107(5) . . .
110(6) . . .
130(6) . . .
117(6) . . .
110(6) . . .
116(6) . . .
121(6) . . .
116(6) . . .
99(6) . . .
120(6) . . .
110(6) . . .
112(6) . . .
102(5) . . .
119(6) . . .
127(6) . . .
120(6) . . .
116(6) . . .
127(6) . . .
106(5) . . .
123(6) . . .
127(6) . . .
126(6) . . .
119(6) . . .
122(6) . . .
112(6) . . .
106(6) . . .
113(6) . . .
119(6) . . .
107(6) . . .
103(5) . . .
118(6) . . .
117(6) . . .
118(6) . . .
117(6) . . .
120(6) . . .
109(6) . . .
109(5) . . .
105(5) . . .
102(5) . . .
113(6) . . .
111(6) . . .
115(6) . . .
114(6) . . .
104(5) . . .
116(6) . . .
119(6) . . .
121(6) . . .
100(6) . . .
114(6) . . .
116(6) . . .
134(6) . . .
103(5) . . .
110(6) . . .
115(6) . . .
124(6) . . .
116(6) . . .
113(6) . . .
122(6) . . .
115(6) . . .
123(6) . . .
108(6) . . .
113(5) . . .
118(6) . . .
111(6) . . .
111(6) . . .
125(6) . . .
106(5) . . .
109(6) . . .
117(6) . . .
100(5) . . .
116(6) . . .
108(5) . . .
109(6) . . .
127(6) . . .
100(5) . . .
115(6) . . .
121(6) . . .
112(6) . . .
109(6) . . .
111(6) . . .
120(6) . . .
115(6) . . .
117(6) . . .
118(6) . . .
121(6) . . .
128(6) . . .
108(5) . . .
124(6) . . .
121(6) . . .
105(5) . . .
110(5) . . .
134(6) . . .
123(6) . . .
122(6) . . .
112(6) . . .
116(6) . . .
114(6) . . .
98(6) . . .
107(6) . . .
117(6) . . .
119(6) . . .
120(6) . . .
118(6) . . .
125(6) . . .
120(6) . . .
115(6) . . .
129(6) . . .
109(6) . . .
112(6) . . .
116(6) . . .
124(6) . . .
129(6) . . .
133(7) . . .
105(5) . . .
124(6) . . .
105(5) . . .
111(6) . . .
110(6) . . .
122(6) . . .
125(6) . . .
115(6) . . .
104(5) . . .
119(6) . . .
120(6) . . .
123(6) . . .
121(6) . . .
118(6) . . .
114(6) . . .
120(6) . . .
128(6) . . .
117(6) . . .
121(6) . . .
117(6) . . .
118(6) . . .
107(5) . . .
114(6) . . .
115(6) . . .
121(6) . . .
123(6) . . .
113(5) . . .
124(6) . . .
113(6) . . .
115(6) . . .
109(5) . . .
113(6) . . .
113(6) . . .
106(5) . . .
111(6) . . .
120(6) . . .
122(6) . . .
107(6) . . .
113(6) . . .
108(6) . . .
106(5) . . .
116(6) . . .
109(6) . . .
106(6) . . .
112(6) . . .
114(6) . . .
130(6) . . .
118(6) . . .
114(6) . . .
112(6) . . .
97(5) . . .
102(5) . . .
122(6) . . .
111(6) . . .
122(6) . . .
97(5) . . .
120(6) . . .
115(6) . . .
116(6) . . .
92(5) . . .
120(6) . . .
123(6) . . .
133(6) . . .
113(6) . . .
107(6) . . .
120(6) . . .
117(6) . . .
104(5) . . .
112(6) . . .
116(6) . . .
117(6) . . .
127(6) . . .
124(6) . . .
124(6) . . .
105(5) . . .
116(6) . . .
109(6) . . .
106(6) . . .
108(6) . . .
110(6) . . .
120(6) . . .
122(6) . . .
112(6) . . .
123(6) . . .
119(6) . . .
125(6) . . .
111(6) . . .
119(6) . . .
124(6) . . .
125(6) . . .
118(6) . . .
112(6) . . .
106(6) . . .
118(6) . . .
110(5) . . .
122(6) . . .
113(6) . . .
109(6) . . .
114(6) . . .
133(6) . . .
133(6) . . .
133(6) . . .
114(6) . . .
109(5) . . .
103(5) . . .
107(5) . . .
112(6) . . .
122(6) . . .
118(6) . . .
121(6) . . .
110(5) . . .
114(6) . . .
115(6) . . .
126(6) . . .
115(6) . . .
120(6) . . .
111(6) . . .
102(5) . . .
115(6) . . .
109(5) . . .
114(6) . . .
128(6) . . .
123(6) . . .
117(6) . . .
117(6) . . .
113(6) . . .
109(6) . . .
116(6) . . .
112(6) . . .
122(6) . . .
120(6) . . .
101(6) . . .
111(6) . . .
114(6) . . .
115(6) . . .
108(6) . . .
105(6) . . .
124(6) . . .
112(6) . . .
110(5) . . .
110(6) . . .
122(6) . . .
99(5) . . .
127(6) . . .
115(6) . . .
114(6) . . .
106(6) . . .
109(5) . . .
120(6) . . .
102(5) . . .
111(6) . . .
106(6) . . .
104(6) . . .
94(5) . . .
125(6) . . .
121(6) . . .
122(6) . . .
99(5) . . .
110(6) . . .
120(6) . . .
110(6) . . .
109(6) . . .
110(6) . . .
106(5) . . .
91(5) . . .
98(5) . . .
117(6) . . .
104(5) . . .
105(5) . . .
116(6) . . .
115(6) . . .
111(6) . . .
103(5) . . .
117(6) . . .
118(6) . . .
126(6) . . .
119(6) . . .
106(6) . . .
110(5) . . .
119(6) . . .
118(6) . . .
113(6) . . .
119(6) . . .
117(6) . . .
108(6) . . .
109(6) . . .
125(6) . . .
121(6) . . .
101(5) . . .
110(6) . . .
127(6) . . .
105(5) . . .
100(5) . . .
132(6) . . .
112(6) . . .
107(6) . . .
98(5) . . .
109(6) . . .
112(6) . . .
121(6) . . .
93(5) . . .
116(6) . . .
111(5) . . .
109(5) . . .
102(5) . . .
102(6) . . .
109(6) . . .
123(6) . . .
114(6) . . .
110(6) . . .
109(6) . . .
112(6) . . .
122(6) . . .
110(6) . . .
106(6) . . .
99(6) . . .
91(5) . . .
113(6) . . .
108(6) . . .
120(6) . . .
120(6) . . .
112(6) . . .
117(6) . . .
108(5) . . .
106(5) . . .
96(5) . . .
112(6) . . .
104(5) . . .
122(6) . . .
115(6) . . .
95(5) . . .
119(6) . . .
112(6) . . .
113(6) . . .
99(5) . . .
108(6) . . .
110(6) . . .
114(6) . . .
98(5) . . .
118(6) . . .
120(6) . . .
103(5) . . .
103(5) . . .
110(6) . . .
96(5) . . .
102(6) . . .
111(6) . . .
103(5) . . .
88(5) . . .
107(6) . . .
98(6) . . .
111(5) . . .
104(5) . . .
102(5) . . .
99(6) . . .
95(5) . . .
110(6) . . .
127(6) . . .
120(6) . . .
109(6) . . .
109(6) . . .
114(6) . . .
114(5) . . .
131(6) . . .
108(6) . . .
117(6) . . .
113(6) . . .
118(6) . . .
113(6) . . .
117(6) . . .
113(6) . . .
99(5) . . .
108(5) . . .
107(6) . . .
95(5) . . .
120(6) . . .
111(5) . . .
113(6) . . .
112(6) . . .
106(6) . . .
104(6) . . .
102(5) . . .
112(6) . . .
111(6) . . .
115(6) . . .
113(6) . . .
99(5) . . .
115(6) . . .
113(6) . . .
117(6) . . .
109(5) . . .
116(6) . . .
105(6) . . .
120(6) . . .
109(6) . . .
103(5) . . .
111(5) . . .
113(6) . . .
109(6) . . .
112(6) . . .
115(6) . . .
96(5) . . .
125(6) . . .
111(6) . . .
106(6) . . .
117(6) . . .
117(6) . . .
107(6) . . .
98(6) . . .
116(6) . . .
125(6) . . .
108(5) . . .
122(6) . . .
114(6) . . .
123(6) . . .
107(5) . . .
117(6) . . .
107(5) . . .
111(6) . . .
99(5) . . .
117(6) . . .
124(6) . . .
110(6) . . .
119(6) . . .
112(6) . . .
122(6) . . .
119(6) . . .
116(6) . . .
116(6) . . .
105(6) . . .
111(5) . . .
103(5) . . .
109(6) . . .
118(6) . . .
119(6) . . .
108(5) . . .
86(5) . . .
114(6) . . .
113(6) . . .
111(6) . . .
127(6) . . .
111(6) . . .
104(6) . . .
119(6) . . .
117(6) . . .
113(5) . . .
113(6) . . .
119(6) . . .
121(6) . . .
112(6) . . .
90(5) . . .
107(6) . . .
110(6) . . .
104(6) . . .
111(5) . . .
116(6) . . .
116(6) . . .
115(6) . . .
109(6) . . .
110(5) . . .
107(5) . . .
120(6) . . .
115(6) . . .
127(6) . . .
108(5) . . .
117(6) . . .
115(6) . . .
125(6) . . .
109(6) . . .
99(5) . . .
100(5) . . .
112(6) . . .
122(6) . . .
117(6) . . .
124(6) . . .
114(6) . . .
111(6) . . .
112(6) . . .
109(6) . . .
106(5) . . .
111(6) . . .
101(5) . . .
109(6) . . .
101(5) . . .
103(5) . . .
102(6) . . .
104(6) . . .
96(5) . . .
114(6) . . .
104(5) . . .
103(5) . . .
101(6) . . .
108(6) . . .
106(5) . . .
109(5) . . .
111(6) . . .
117(6) . . .
100(5) . . .
108(5) . . .
113(6) . . .
126(6) . . .
118(6) . . .
121(6) . . .
110(6) . . .
100(5) . . .
112(6) . . .
101(6) . . .
134(6) . . .
119(6) . . .
110(5) . . .
117(6) . . .
111(6) . . .
109(6) . . .
112(6) . . .
118(6) . . .
107(6) . . .
109(6) . . .
124(6) . . .
112(6) . . .
104(5) . . .
116(6) . . .
112(6) . . .
112(6) . . .
106(5) . . .
112(5) . . .
98(5) . . .
111(6) . . .
118(6) . . .
124(6) . . .
126(6) . . .
111(6) . . .
103(6) . . .
96(5) . . .
93(5) . . .
105(5) . . .
97(5) . . .
123(6) . . .
117(6) . . .
123(6) . . .
117(6) . . .
120(6) . . .
112(6) . . .
99(5) . . .
111(5) . . .
117(6) . . .
106(6) . . .
120(6) . . .
115(6) . . .
108(5) . . .
124(6) . . .
104(6) . . .
112(6) . . .
119(6) . . .
114(6) . . .
111(6) . . .
113(6) . . .
112(6) . . .
110(6) . . .
109(5) . . .
107(5) . . .
111(6) . . .
103(5) . . .
120(6) . . .
111(6) . . .
102(5) . . .
111(6) . . .
120(6) . . .
115(6) . . .
123(6) . . .
112(6) . . .
105(5) . . .
114(6) . . .
117(6) . . .
105(5) . . .
123(6) . . .
121(6) . . .
118(6) . . .
119(6) . . .
99(5) . . .
103(6) . . .
104(5) . . .
116(6) . . .
106(5) . . .
114(6) . . .
107(6) . . .
99(5) . . .
100(5) . . .
113(6) . . .
104(5) . . .
99(6) . . .
111(6) . . .
103(5) . . .
122(6) . . .
113(6) . . .
105(6) . . .
105(5) . . .
106(5) . . .
115(6) . . .
109(6) . . .
113(6) . . .
104(6) . . .
114(6) . . .
106(5) . . .
120(6) . . .
114(6) . . .
95(5) . . .
103(5) . . .
95(5) . . .
125(6) . . .
112(6) . . .
115(6) . . .
97(5) . . .
96(5) . . .
105(6) . . .
112(6) . . .
108(6) . . .
113(6) . . .
109(6) . . .
111(6) . . .
102(6) . . .
108(5) . . .
110(5) . . .
92(5) . . .
105(5) . . .
106(6) . . .
104(6) . . .
101(5) . . .
111(6) . . .
99(5) . . .
97(5) . . .
111(6) . . .
105(5) . . .
85(5) . . .
101(6) . . .
111(6) . . .
105(5) . . .
103(5) . . .
104(5) . . .
112(6) . . .
96(5) . . .
126(6) . . .
119(6) . . .
117(6) . . .
118(6) . . .
97(5) . . .
109(6) . . .
132(6) . . .
105(5) . . .
106(6) . . .
117(6) . . .
109(5) . . .
102(5) . . .
112(6) . . .
97(5) . . .
111(6) . . .
98(5) . . .
109(5) . . .
102(5) . . .
92(5) . . .
115(6) . . .
123(6) . . .
116(6) . . .
99(5) . . .
111(6) . . .
104(5) . . .
125(6) . . .
119(6) . . .
106(6) . . .
118(6) . . .
104(6) . . .
100(5) . . .
115(6) . . .
105(6) . . .
104(6) . . .
108(6) . . .
101(5) . . .
98(5) . . .
111(6) . . .
95(5) . . .
83(5) . . .
105(5) . . .
111(6) . . .
105(6) . . .
106(6) . . .
105(5) . . .
98(5) . . .
111(6) . . .
102(6) . . .
95(5) . . .
115(6) . . .
104(5) . . .
97(5) . . .
106(6) . . .
109(6) . . .
96(5) . . .
106(5) . . .
100(6) . . .
102(6) . . .
108(6) . . .
112(6) . . .
109(6) . . .
107(6) . . .
100(6) . . .
102(6) . . .
99(5) . . .
102(5) . . .
111(6) . . .
103(6) . . .
89(5) . . .
109(5) . . .
101(5) . . .
122(6) . . .
114(6) . . .
102(6) . . .
105(5) . . .
99(5) . . .
104(5) . . .
104(6) . . .
117(6) . . .
104(5) . . .
106(5) . . .
106(5) . . .
92(5) . . .
97(5) . . .
108(5) . . .
110(6) . . .
101(5) . . .
95(5) . . .
103(5) . . .
100(5) . . .
103(5) . . .
121(6) . . .
109(6) . . .
98(5) . . .
95(5) . . .
117(6) . . .
112(6) . . .
103(5) . . .
102(5) . . .
114(6) . . .
101(5) . . .
109(6) . . .
100(5) . . .
118(6) . . .
111(6) . . .
99(6) . . .
108(6) . . .
110(6) . . .
101(5) . . .
106(5) . . .
100(5) . . .
99(6) . . .
107(6) . . .
98(5) . . .
114(6) . . .
102(5) . . .
100(6) . . .
99(5) . . .
114(6) . . .
104(5) . . .
108(6) . . .
105(6) . . .
115(6) . . .
109(5) . . .
112(6) . . .
98(5) . . .
99(6) . . .
102(6) . . .
101(5) . . .
104(5) . . .
106(5) . . .
116(6) . . .
111(6) . . .
120(6) . . .
111(6) . . .
98(5) . . .
112(6) . . .
103(5) . . .
106(5) . . .
107(6) . . .
105(6) . . .
98(5) . . .
110(6) . . .
104(5) . . .
107(6) . . .
105(6) . . .
105(6) . . .
94(5) . . .
101(5) . . .
106(6) . . .
89(5) . . .
103(6) . . .
97(5) . . .
105(5) . . .
107(6) . . .
102(5) . . .
99(5) . . .
118(6) . . .
117(6) . . .
117(6) . . .
112(6) . . .
107(6) . . .
98(5) . . .
100(5) . . .
98(5) . . .
88(5) . . .
110(6) . . .
110(5) . . .
102(5) . . .
102(5) . . .
98(5) . . .
116(6) . . .
95(5) . . .
96(5) . . .
102(6) . . .
100(5) . . .
120(6) . . .
126(6) . . .
98(5) . . .
92(5) . . .
109(6) . . .
105(5) . . .
113(6) . . .
109(6) . . .
103(5) . . .
104(6) . . .
123(6) . . .
118(6) . . .
114(6) . . .
104(6) . . .
97(5) . . .
99(5) . . .
102(5) . . .
114(6) . . .
96(5) . . .
93(5) . . .
103(6) . . .
113(6) . . .
119(6) . . .
107(6) . . .
118(6) . . .
96(5) . . .
89(5) . . .
98(5) . . .
100(5) . . .
121(6) . . .
111(6) . . .
116(6) . . .
114(6) . . .
118(6) . . .
118(6) . . .
108(5) . . .
101(5) . . .
119(6) . . .
113(6) . . .
106(6) . . .
120(6) . . .
107(5) . . .
92(5) . . .
96(6) . . .
108(6) . . .
108(5) . . .
119(6) . . .
91(5) . . .
106(6) . . .
111(6) . . .
118(6) . . .
110(6) . . .
93(5) . . .
98(6) . . .
109(6) . . .
104(5) . . .
129(6) . . .
97(5) . . .
113(6) . . .
108(6) . . .
119(6) . . .
124(6) . . .
119(6) . . .
109(6) . . .
105(5) . . .
96(5) . . .
112(6) . . .
107(6) . . .
94(5) . . .
112(6) . . .
88(5) . . .
97(6) . . .
93(5) . . .
90(5) . . .
104(6) . . .
111(5) . . .
92(5) . . .
113(6) . . .
110(6) . . .
114(6) . . .
99(5) . . .
104(5) . . .
116(6) . . .
104(5) . . .
105(5) . . .
87(5) . . .
100(5) . . .
125(6) . . .
104(5) . . .
114(6) . . .
101(5) . . .
110(6) . . .
110(6) . . .
109(6) . . .
96(5) . . .
94(5) . . .
97(5) . . .
110(6) . . .
106(6) . . .
109(5) . . .
97(5) . . .
101(6) . . .
115(6) . . .
93(5) . . .
101(5) . . .
111(6) . . .
112(6) . . .
103(6) . . .
104(6) . . .
97(5) . . .
112(6) . . .
112(6) . . .
122(6) . . .
109(6) . . .
104(5) . . .
103(5) . . .
101(6) . . .
97(6) . . .
108(6) . . .
107(5) . . .
113(6) . . .
116(6) . . .
116(6) . . .
109(5) . . .
98(5) . . .
95(5) . . .
96(5) . . .
95(5) . . .
101(5) . . .
115(6) . . .
103(5) . . .
112(6) . . .
103(5) . . .
102(5) . . .
115(6) . . .
115(6) . . .
107(6) . . .
98(5) . . .
99(5) . . .
95(5) . . .
105(6) . . .
105(6) . . .
109(6) . . .
111(5) . . .
123(6) . . .
104(5) . . .
107(6) . . .
106(5) . . .
113(6) . . .
97(5) . . .
104(5) . . .
95(5) . . .
98(5) . . .
94(5) . . .
101(5) . . .
109(6) . . .
117(6) . . .
107(6) . . .
111(5) . . .
88(5) . . .
100(5) . . .
97(5) . . .
118(6) . . .
104(5) . . .
105(5) . . .
92(5) . . .
117(6) . . .
108(5) . . .
104(5) . . .
103(6) . . .
102(5) . . .
114(6) . . .
93(5) . . .
96(5) . . .
115(6) . . .
94(5) . . .
108(6) . . .
106(5) . . .
112(6) . . .
104(5) . . .
105(6) . . .
88(5) . . .
97(5) . . .
92(5) . . .
124(6) . . .
97(6) . . .
111(6) . . .
99(5) . . .
99(5) . . .
98(5) . . .
115(6) . . .
102(6) . . .
108(5) . . .
95(5) . . .
108(6) . . .
107(6) . . .
94(5) . . .
110(6) . . .
106(5) . . .
100(5) . . .
95(5) . . .
100(5) . . .
100(5) . . .
119(6) . . .
115(6) . . .
99(6) . . .
109(6) . . .
102(5) . . .
92(5) . . .
97(5) . . .
125(6) . . .
106(6) . . .
99(5) . . .
103(6) . . .
90(5) . . .
126(6) . . .
102(5) . . .
88(5) . . .
96(5) . . .
109(6) . . .
110(6) . . .
87(5) . . .
96(5) . . .
111(6) . . .
105(6) . . .
112(6) . . .
105(5) . . .
104(5) . . .
101(5) . . .
102(6) . . .
100(6) . . .
116(6) . . .
95(5) . . .
99(5) . . .
103(6) . . .
111(6) . . .
108(6) . . .
102(5) . . .
111(6) . . .
99(5) . . .
106(6) . . .
88(5) . . .
110(5) . . .
97(5) . . .
98(6) . . .
109(6) . . .
104(5) . . .
95(5) . . .
100(5) . . .
105(6) . . .
105(5) . . .
100(5) . . .
98(5) . . .
102(5) . . .
94(5) . . .
108(6) . . .
107(5) . . .
109(5) . . .
105(5) . . .
101(5) . . .
94(5) . . .
93(5) . . .
114(6) . . .
114(6) . . .
108(6) . . .
116(6) . . .
101(5) . . .
97(5) . . .
112(6) . . .
119(6) . . .
108(5) . . .
103(5) . . .
118(6) . . .
99(6) . . .
113(6) . . .
93(5) . . .
102(5) . . .
113(6) . . .
99(5) . . .
108(6) . . .
114(6) . . .
119(6) . . .
108(6) . . .
101(6) . . .
97(5) . . .
88(5) . . .
105(5) . . .
98(5) . . .
109(6) . . .
96(5) . . .
100(5) . . .
103(5) . . .
119(6) . . .
103(6) . . .
106(6) . . .
105(5) . . .
106(5) . . .
103(5) . . .
112(6) . . .
109(6) . . .
95(5) . . .
92(5) . . .
97(5) . . .
92(5) . . .
110(6) . . .
107(5) . . .
102(5) . . .
89(5) . . .
91(5) . . .
96(5) . . .
106(5) . . .
101(5) . . .
91(5) . . .
89(5) . . .
92(5) . . .
108(5) . . .
99(5) . . .
95(5) . . .
97(5) . . .
101(5) . . .
101(5) . . .
96(5) . . .
94(5) . . .
87(5) . . .
96(5) . . .
103(5) . . .
115(6) . . .
100(5) . . .
93(5) . . .
83(5) . . .
95(5) . . .
94(5) . . .
103(5) . . .
104(5) . . .
117(6) . . .
116(6) . . .
101(5) . . .
113(6) . . .
104(6) . . .
95(5) . . .
109(5) . . .
84(5) . . .
106(6) . . .
107(6) . . .
107(5) . . .
111(6) . . .
101(5) . . .
99(6) . . .
109(6) . . .
98(5) . . .
104(5) . . .
111(6) . . .
104(6) . . .
97(5) . . .
83(5) . . .
104(5) . . .
108(6) . . .
88(5) . . .
98(5) . . .
101(5) . . .
97(5) . . .
99(5) . . .
108(6) . . .
114(6) . . .
84(5) . . .
98(5) . . .
100(6) . . .
95(5) . . .
92(5) . . .
96(5) . . .
98(5) . . .
109(6) . . .
105(6) . . .
88(5) . . .
94(5) . . .
103(5) . . .
109(6) . . .
108(6) . . .
91(5) . . .
96(5) . . .
93(5) . . .
98(5) . . .
93(5) . . .
105(5) . . .
94(5) . . .
111(6) . . .
101(5) . . .
101(5) . . .
109(5) . . .
104(5) . . .
120(6) . . .
97(5) . . .
97(5) . . .
96(5) . . .
98(5) . . .
88(5) . . .
97(6) . . .
110(6) . . .
99(5) . . .
100(5) . . .
106(5) . . .
105(6) . . .
107(6) . . .
97(5) . . .
104(5) . . .
102(5) . . .
98(5) . . .
90(5) . . .
91(5) . . .
107(5) . . .
96(5) . . .
94(5) . . .
92(5) . . .
88(5) . . .
96(5) . . .
98(5) . . .
101(6) . . .
114(6) . . .
114(6) . . .
102(6) . . .
93(5) . . .
93(5) . . .
94(5) . . .
101(5) . . .
95(5) . . .
108(6) . . .
95(5) . . .
84(5) . . .
112(6) . . .
105(5) . . .
100(5) . . .
106(6) . . .
115(6) . . .
111(6) . . .
111(6) . . .
91(5) . . .
93(5) . . .
97(5) . . .
91(5) . . .
95(5) . . .
113(6) . . .
107(6) . . .
112(6) . . .
113(6) . . .
111(6) . . .
104(6) . . .
104(5) . . .
103(5) . . .
96(5) . . .
90(5) . . .
105(6) . . .
103(5) . . .
104(5) . . .
96(5) . . .
85(5) . . .
96(6) . . .
95(5) . . .
94(5) . . .
95(5) . . .
91(5) . . .
100(6) . . .
92(5) . . .
120(6) . . .
115(6) . . .
115(6) . . .
103(6) . . .
104(6) . . .
109(5) . . .
101(5) . . .
94(5) . . .
111(6) . . .
101(5) . . .
88(5) . . .
102(6) . . .
104(6) . . .
93(5) . . .
112(6) . . .
108(5) . . .
111(6) . . .
112(6) . . .
100(5) . . .
94(5) . . .
98(5) . . .
95(5) . . .
89(5) . . .
105(6) . . .
91(5) . . .
106(5) . . .
98(5) . . .
82(5) . . .
88(5) . . .
96(5) . . .
105(5) . . .
97(5) . . .
99(5) . . .
96(5) . . .
96(5) . . .
105(5) . . .
91(5) . . .
110(6) . . .
99(5) . . .
93(5) . . .
104(5) . . .
109(6) . . .
108(6) . . .
90(5) . . .
85(5) . . .
101(5) . . .
89(5) . . .
100(6) . . .
86(5) . . .
85(5) . . .
97(5) . . .
105(6) . . .
115(6) . . .
106(6) . . .
93(5) . . .
97(5) . . .
97(5) . . .
111(6) . . .
90(5) . . .
95(5) . . .
102(5) . . .
108(6) . . .
112(6) . . .
105(5) . . .
97(5) . . .
101(5) . . .
104(6) . . .
87(5) . . .
92(5) . . .
91(5) . . .
111(6) . . .
108(6) . . .
103(5) . . .
108(6) . . .
111(5) . . .
94(5) . . .
102(6) . . .
100(5) . . .
95(5) . . .
99(5) . . .
97(5) . . .
104(6) . . .
106(5) . . .
104(5) . . .
95(5) . . .
87(5) . . .
86(5) . . .
96(6) . . .
91(5) . . .
98(5) . . .
90(5) . . .
90(5) . . .
102(6) . . .
99(5) . . .
97(5) . . .
99(5) . . .
103(6) . . .
97(5) . . .
106(5) . . .
95(5) . . .
104(6) . . .
93(5) . . .
100(5) . . .
110(5) . . .
100(5) . . .
93(5) . . .
105(6) . . .
99(5) . . .
89(5) . . .
85(5) . . .
89(5) . . .
84(5) . . .
104(5) . . .
81(5) . . .
107(6) . . .
111(6) . . .
100(5) . . .
99(5) . . .
98(5) . . .
95(5) . . .
94(5) . . .
92(5) . . .
96(5) . . .
101(5) . . .
109(6) . . .
79(5) . . .
94(5) . . .
90(5) . . .
98(5) . . .
99(5) . . .
95(5) . . .
92(5) . . .
100(5) . . .
86(5) . . .
96(5) . . .
92(5) . . .
89(5) . . .
85(5) . . .
108(6) . . .
103(6) . . .
105(6) . . .
105(6) . . .
110(5) . . .
96(5) . . .
102(5) . . .
105(6) . . .
96(5) . . .
92(5) . . .
106(5) . . .
107(6) . . .
95(5) . . .
102(6) . . .
112(6) . . .
99(5) . . .
99(5) . . .
102(6) . . .
96(5) . . .
86(5) . . .
85(5) . . .
96(5) . . .
95(5) . . .
105(5) . . .
100(5) . . .
97(5) . . .
104(6) . . .
99(5) . . .
97(5) . . .
107(5) . . .
106(6) . . .
99(6) . . .
85(5) . . .
89(5) . . .
93(5) . . .
96(5) . . .
97(5) . . .
109(6) . . .
102(5) . . .
92(5) . . .
94(5) . . .
94(5) . . .
109(6) . . .
101(5) . . .
97(5) . . .
93(5) . . .
97(6) . . .
100(5) . . .
101(5) . . .
91(5) . . .
87(5) . . .
102(6) . . .
97(5) . . .
97(5) . . .
101(5) . . .
90(5) . . .
96(5) . . .
99(5) . . .
85(5) . . .
91(5) . . .
102(5) . . .
109(6) . . .
97(5) . . .
103(5) . . .
96(5) . . .
92(5) . . .
98(6) . . .
78(5) . . .
87(5) . . .
90(5) . . .
93(5) . . .
102(5) . . .
91(5) . . .
97(5) . . .
97(5) . . .
94(5) . . .
95(5) . . .
87(5) . . .
108(5) . . .
111(6) . . .
102(6) . . .
104(6) . . .
110(6) . . .
100(5) . . .
90(5) . . .
86(5) . . .
88(5) . . .
86(5) . . .
102(5) . . .
103(5) . . .
87(5) . . .
104(6) . . .
89(5) . . .
94(5) . . .
92(5) . . .
102(6) . . .
94(5) . . .
108(5) . . .
94(5) . . .
95(5) . . .
110(6) . . .
93(5) . . .
106(5) . . .
95(5) . . .
93(5) . . .
94(6) . . .
85(5) . . .
81(5) . . .
99(5) . . .
96(5) . . .
101(6) . . .
89(5) . . .
92(5) . . .
90(5) . . .
97(5) . . .
83(5) . . .
94(5) . . .
93(5) . . .
115(6) . . .
100(5) . . .
100(5) . . .
96(5) . . .
92(5) . . .
108(6) . . .
96(6) . . .
90(5) . . .
106(5) . . .
108(5) . . .
87(5) . . .
99(6) . . .
85(5) . . .
91(5) . . .
90(5) . . .
87(5) . . .
95(5) . . .
112(6) . . .
102(5) . . .
103(5) . . .
97(5) . . .
110(6) . . .
107(6) . . .
106(5) . . .
99(5) . . .
88(5) . . .
101(6) . . .
90(5) . . .
104(5) . . .
97(5) . . .
102(6) . . .
83(5) . . .
80(5) . . .
93(5) . . .
105(5) . . .
90(5) . . .
80(5) . . .
96(5) . . .
99(5) . . .
88(5) . . .
95(5) . . .
106(6) . . .
90(5) . . .
93(5) . . .
93(5) . . .
92(5) . . .
85(5) . . .
93(5) . . .
93(5) . . .
103(5) . . .
97(5) . . .
89(5) . . .
99(5) . . .
90(5) . . .
87(5) . . .
97(5) . . .
106(6) . . .
106(5) . . .
99(5) . . .
88(5) . . .
102(6) . . .
80(5) . . .
93(5) . . .
111(5) . . .
101(5) . . .
93(5) . . .
101(5) . . .
99(5) . . .
104(5) . . .
99(5) . . .
105(6) . . .
105(5) . . .
114(6) . . .
93(5) . . .
94(5) . . .
97(5) . . .
89(5) . . .
91(5) . . .
98(5) . . .
98(5) . . .
101(6) . . .
96(5) . . .
96(5) . . .
77(5) . . .
107(6) . . .
117(6) . . .
102(5) . . .
100(5) . . .
92(5) . . .
95(5) . . .
97(5) . . .
100(5) . . .
92(5) . . .
110(6) . . .
87(5) . . .
91(5) . . .
107(6) . . .
90(5) . . .
107(6) . . .
92(5) . . .
95(5) . . .
114(6) . . .
91(5) . . .
96(5) . . .
101(5) . . .
107(6) . . .
105(5) . . .
87(5) . . .
101(6) . . .
107(6) . . .
104(6) . . .
88(5) . . .
91(5) . . .
82(5) . . .
103(6) . . .
88(5) . . .
91(5) . . .
106(5) . . .
94(5) . . .
96(6) . . .
98(5) . . .
99(5) . . .
96(5) . . .
100(5) . . .
108(6) . . .
92(5) . . .
97(5) . . .
78(5) . . .
90(5) . . .
106(6) . . .
100(5) . . .
92(5) . . .
103(5) . . .
85(5) . . .
95(5) . . .
84(5) . . .
90(5) . . .
93(5) . . .
96(5) . . .
103(6) . . .
112(6) . . .
96(5) . . .
101(5) . . .
90(5) . . .
86(5) . . .
95(5) . . .
120(6) . . .
109(6) . . .
102(5) . . .
95(5) . . .
88(5) . . .
82(5) . . .
89(5) . . .
104(6) . . .
104(6) . . .
105(6) . . .
102(5) . . .
98(5) . . .
96(5) . . .
91(5) . . .
93(5) . . .
78(5) . . .
95(5) . . .
92(5) . . .
96(5) . . .
114(6) . . .
100(5) . . .
90(5) . . .
98(5) . . .
98(5) . . .
87(5) . . .
101(5) . . .
89(5) . . .
92(5) . . .
91(5) . . .
87(5) . . .
100(5) . . .
94(5) . . .
103(6) . . .
107(6) . . .
96(5) . . .
87(5) . . .
98(5) . . .
94(5) . . .
96(5) . . .
106(5) . . .
95(5) . . .
82(5) . . .
87(5) . . .
96(6) . . .
97(5) . . .
103(5) . . .
97(5) . . .
102(6) . . .
101(5) . . .
103(5) . . .
103(5) . . .
107(6) . . .
93(5) . . .
95(5) . . .
90(5) . . .
102(5) . . .
87(5) . . .
92(5) . . .
96(5) . . .
112(5) . . .
99(6) . . .
108(6) . . .
107(6) . . .
106(6) . . .
108(5) . . .
77(5) . . .
90(5) . . .
107(6) . . .
105(5) . . .
111(6) . . .
101(5) . . .
93(5) . . .
105(6) . . .
90(5) . . .
85(5) . . .
94(5) . . .
96(5) . . .
97(5) . . .
105(5) . . .
95(5) . . .
82(5) . . .
89(5) . . .
101(5) . . .
104(5) . . .
104(5) . . .
92(5) . . .
89(5) . . .
92(5) . . .
105(5) . . .
103(5) . . .
90(5) . . .
87(5) . . .
74(5) . . .
106(5) . . .
95(5) . . .
92(5) . . .
83(5) . . .
114(6) . . .
95(5) . . .
92(5) . . .
89(5) . . .
82(5) . . .
109(6) . . .
97(5) . . .
94(5) . . .
101(5) . . .
98(5) . . .
89(5) . . .
90(5) . . .
103(5) . . .
95(5) . . .
89(5) . . .
97(5) . . .
101(5) . . .
79(5) . . .
89(5) . . .
97(6) . . .
89(5) . . .
98(5) . . .
104(6) . . .
84(5) . . .
93(5) . . .
80(5) . . .
84(5) . . .
103(6) . . .
94(5) . . .
103(6) . . .
100(5) . . .
95(5) . . .
101(5) . . .
103(6) . . .
91(5) . . .
87(5) . . .
90(5) . . .
97(5) . . .
96(5) . . .
89(5) . . .
91(5) . . .
96(5) . . .
96(5) . . .
94(5) . . .
95(5) . . .
87(5) . . .
96(5) . . .
93(5) . . .
92(5) . . .
94(6) . . .
81(5) . . .
91(5) . . .
106(6) . . .
109(6) . . .
94(5) . . .
92(5) . . .
100(5) . . .
99(5) . . .
95(5) . . .
104(5) . . .
93(5) . . .
91(5) . . .
92(5) . . .
97(5) . . .
97(5) . . .
99(5) . . .
87(5) . . .
92(5) . . .
105(6) . . .
101(5) . . .
106(5) . . .
81(5) . . .
111(6) . . .
96(5) . . .
102(5) . . .
98(5) . . .
98(5) . . .
92(5) . . .
88(5) . . .
78(5) . . .
86(5) . . .
95(5) . . .
94(5) . . .
92(5) . . .
101(5) . . .
112(6) . . .
93(5) . . .
90(5) . . .
91(5) . . .
105(5) . . .
98(5) . . .
89(5) . . .
92(6) . . .
96(5) . . .
95(5) . . .
93(5) . . .
84(5) . . .
81(5) . . .
81(5) . . .
90(5) . . .
95(5) . . .
93(5) . . .
90(5) . . .
86(5) . . .
100(5) . . .
82(5) . . .
92(5) . . .
95(5) . . .
95(5) . . .
92(5) . . .
110(6) . . .
89(5) . . .
93(5) . . .
96(5) . . .
108(5) . . .
103(5) . . .
91(5) . . .
94(5) . . .
99(5) . . .
108(5) . . .
85(5) . . .
109(6) . . .
85(5) . . .
93(5) . . .
96(5) . . .
95(5) . . .
89(5) . . .
90(5) . . .
83(5) . . .
91(5) . . .
87(5) . . .
82(5) . . .
78(5) . . .
88(5) . . .
98(5) . . .
83(5) . . .
90(5) . . .
73(5) . . .
105(5) . . .
108(5) . . .
94(5) . . .
82(5) . . .
102(5) . . .
90(5) . . .
93(5) . . .
86(5) . . .
90(5) . . .
76(5) . . .
98(5) . . .
83(5) . . .
97(5) . . .
88(5) . . .
70(5) . . .
87(5) . . .
91(5) . . .
86(5) . . .
95(5) . . .
91(5) . . .
88(5) . . .
100(5) . . .
101(6) . . .
98(5) . . .
90(5) . . .
98(5) . . .
101(5) . . .
95(5) . . .
98(5) . . .
82(5) . . .
91(5) . . .
74(5) . . .
110(6) . . .
89(5) . . .
88(5) . . .
81(5) . . .
86(5) . . .
83(5) . . .
92(5) . . .
97(5) . . .
91(5) . . .
99(6) . . .
86(5) . . .
92(6) . . .
92(5) . . .
92(5) . . .
93(5) . . .
94(5) . . .
97(5) . . .
95(5) . . .
87(5) . . .
95(5) . . .
95(6) . . .
88(5) . . .
104(5) . . .
89(5) . . .
93(5) . . .
103(6) . . .
106(6) . . .
103(5) . . .
94(5) . . .
100(5) . . .
95(5) . . .
90(5) . . .
84(5) . . .
108(6) . . .
106(6) . . .
94(6) . . .
97(5) . . .
89(5) . . .
80(5) . . .
97(5) . . .
91(5) . . .
95(5) . . .
110(5) . . .
102(5) . . .
92(5) . . .
88(5) . . .
88(5) . . .
82(5) . . .
84(5) . . .
97(6) . . .
85(5) . . .
116(6) . . .
85(5) . . .
98(6) . . .
93(5) . . .
87(5) . . .
104(5) . . .
105(5) . . .
97(5) . . .
95(6) . . .
83(5) . . .
88(5) . . .
94(5) . . .
98(5) . . .
92(5) . . .
106(6) . . .
105(5) . . .
83(5) . . .
104(6) . . .
106(6) . . .
98(6) . . .
93(5) . . .
86(5) . . .
94(5) . . .
90(5) . . .
91(5) . . .
92(5) . . .
101(5) . . .
99(5) . . .
101(6) . . .
75(5) . . .
103(5) . . .
95(5) . . .
87(5) . . .
100(6) . . .
92(5) . . .
95(5) . . .
103(5) . . .
97(5) . . .
90(5) . . .
87(5) . . .
88(5) . . .
108(5) . . .
101(5) . . .
103(5) . . .
91(5) . . .
96(5) . . .
98(5) . . .
90(5) . . .
96(5) . . .
101(5) . . .
90(5) . . .
107(6) . . .
90(5) . . .
79(5) . . .
109(6) . . .
90(5) . . .
86(5) . . .
103(6) . . .
97(5) . . .
87(5) . . .
114(6) . . .
94(5) . . .
98(5) . . .
96(5) . . .
80(5) . . .
89(5) . . .
91(5) . . .
94(5) . . .
94(5) . . .
96(5) . . .
86(5) . . .
96(5) . . .
98(5) . . .
99(5) . . .
108(5) . . .
95(5) . . .
95(5) . . .
95(5) . . .
93(5) . . .
93(5) . . .
85(5) . . .
84(5) . . .
91(6) . . .
95(5) . . .
103(5) . . .
89(5) . . .
89(5) . . .
106(6) . . .
96(5) . . .
78(5) . . .
90(5) . . .
89(5) . . .
97(5) . . .
96(5) . . .
86(5) . . .
87(5) . . .
90(5) . . .
99(5) . . .
91(5) . . .
91(5) . . .
76(5) . . .
103(6) . . .
92(5) . . .
97(5) . . .
93(5) . . .
99(6) . . .
89(5) . . .
84(5) . . .
90(5) . . .
83(5) . . .
91(5) . . .
118(6) . . .
94(5) . . .
102(5) . . .
84(5) . . .
81(5) . . .
89(5) . . .
91(5) . . .
96(5) . . .
94(5) . . .
99(5) . . .
98(6) . . .
98(5) . . .
99(5) . . .
104(5) . . .
91(5) . . .
81(5) . . .
100(5) . . .
99(5) . . .
104(5) . . .
102(5) . . .
105(6) . . .
104(6) . . .
92(5) . . .
92(5) . . .
74(4) . . .
78(5) . . .
81(5) . . .
88(5) . . .
106(5) . . .
97(5) . . .
88(5) . . .
99(5) . . .
85(5) . . .
89(5) . . .
98(5) . . .
98(5) . . .
83(5) . . .
83(5) . . .
105(6) . . .
90(5) . . .
100(5) . . .
79(5) . . .
82(5) . . .
98(5) . . .
103(6) . . .
111(6) . . .
103(5) . . .
102(5) . . .
92(5) . . .
94(5) . . .
99(6) . . .
100(5) . . .
80(5) . . .
84(5) . . .
90(5) . . .
105(5) . . .
97(5) . . .
115(6) . . .
99(5) . . .
107(6) . . .
89(5) . . .
103(5) . . .
102(5) . . .
98(5) . . .
103(6) . . .
101(6) . . .
97(5) . . .
94(5) . . .
86(5) . . .
95(5) . . .
82(5) . . .
78(5) . . .
99(5) . . .
78(5) . . .
93(5) . . .
92(5) . . .
94(5) . . .
89(5) . . .
102(6) . . .
86(5) . . .
102(5) . . .
101(5) . . .
97(5) . . .
95(5) . . .
82(5) . . .
115(6) . . .
97(5) . . .
94(5) . . .
93(5) . . .
100(6) . . .
82(5) . . .
73(4) . . .
89(5) . . .
90(5) . . .
99(5) . . .
84(5) . . .
87(5) . . .
99(6) . . .
92(5) . . .
101(5) . . .
107(5) . . .
86(5) . . .
88(5) . . .
104(6) . . .
92(5) . . .
94(5) . . .
84(5) . . .
98(5) . . .
91(5) . . .
94(5) . . .
85(5) . . .
102(5) . . .
95(5) . . .
102(5) . . .
80(5) . . .
84(5) . . .
89(5) . . .
81(5) . . .
105(6) . . .
94(5) . . .
83(5) . . .
88(5) . . .
87(5) . . .
89(5) . . .
86(5) . . .
77(5) . . .
91(5) . . .
86(5) . . .
103(6) . . .
84(5) . . .
89(5) . . .
84(5) . . .
98(6) . . .
91(5) . . .
85(5) . . .
88(5) . . .
87(5) . . .
93(5) . . .
84(5) . . .
78(5) . . .
90(5) . . .
92(5) . . .
91(5) . . .
95(5) . . .
96(5) . . .
96(5) . . .
95(5) . . .
96(6) . . .
85(5) . . .
90(5) . . .
91(5) . . .
94(5) . . .
88(5) . . .
81(5) . . .
72(4) . . .
83(5) . . .
74(5) . . .
77(5) . . .
93(5) . . .
94(5) . . .
97(5) . . .
103(5) . . .
93(5) . . .
92(5) . . .
97(5) . . .
91(5) . . .
96(5) . . .
98(6) . . .
105(6) . . .
96(5) . . .
79(5) . . .
92(5) . . .
95(5) . . .
90(5) . . .
84(5) . . .
83(5) . . .
95(5) . . .
92(5) . . .
104(5) . . .
101(5) . . .
88(5) . . .
72(5) . . .
79(5) . . .
82(5) . . .
94(5) . . .
92(5) . . .
82(5) . . .
93(5) . . .
90(5) . . .
92(5) . . .
96(5) . . .
93(5) . . .
98(5) . . .
91(5) . . .
86(5) . . .
98(5) . . .
89(5) . . .
90(5) . . .
98(5) . . .
92(5) . . .
88(5) . . .
89(5) . . .
88(5) . . .
101(5) . . .
96(5) . . .
82(5) . . .
85(5) . . .
89(5) . . .
107(5) . . .
81(5) . . .
83(5) . . .
85(5) . . .
99(6) . . .
84(5) . . .
106(5) . . .
104(6) . . .
85(5) . . .
102(6) . . .
107(5) . . .
86(5) . . .
98(5) . . .
91(5) . . .
92(5) . . .
94(5) . . .
85(5) . . .
97(5) . . .
90(5) . . .
99(6) . . .
100(5) . . .
90(5) . . .
96(5) . . .
94(5) . . .
81(5) . . .
84(5) . . .
86(5) . . .
82(5) . . .
103(6) . . .
87(5) . . .
103(5) . . .
91(5) . . .
92(5) . . .
93(5) . . .
87(5) . . .
91(5) . . .
87(5) . . .
81(5) . . .
72(4) . . .
86(5) . . .
93(5) . . .
90(5) . . .
99(5) . . .
90(5) . . .
87(5) . . .
78(5) . . .
74(5) . . .
86(5) . . .
89(5) . . .
76(5) . . .
90(5) . . .
95(5) . . .
90(5) . . .
89(5) . . .
88(5) . . .
98(5) . . .
93(5) . . .
91(5) . . .
102(5) . . .
96(5) . . .
101(5) . . .
97(5) . . .
104(6) . . .
97(5) . . .
85(5) . . .
96(5) . . .
88(5) . . .
86(5) . . .
79(5) . . .
95(5) . . .
109(6) . . .
85(5) . . .
83(5) . . .
88(5) . . .
93(5) . . .
84(5) . . .
92(5) . . .
90(5) . . .
92(5) . . .
96(5) . . .
85(5) . . .
97(6) . . .
89(5) . . .
87(5) . . .
93(5) . . .
85(5) . . .
86(5) . . .
107(5) . . .
93(5) . . .
105(5) . . .
103(6) . . .
98(5) . . .
100(5) . . .
106(5) . . .
94(5) . . .
108(6) . . .
99(6) . . .
91(5) . . .
92(5) . . .
95(5) . . .
85(5) . . .
95(6) . . .
87(5) . . .
86(5) . . .
99(5) . . .
92(5) . . .
84(5) . . .
85(5) . . .
111(6) . . .
89(5) . . .
86(5) . . .
101(6) . . .
87(5) . . .
85(5) . . .
91(5) . . .
96(5) . . .
93(5) . . .
103(5) . . .
85(5) . . .
94(5) . . .
78(5) . . .
80(5) . . .
94(5) . . .
99(5) . . .
91(5) . . .
82(5) . . .
90(5) . . .
87(5) . . .
85(5) . . .
81(5) . . .
86(5) . . .
76(5) . . .
97(5) . . .
83(5) . . .
71(4) . . .
80(5) . . .
94(5) . . .
91(5) . . .
97(5) . . .
99(5) . . .
88(5) . . .
94(5) . . .
112(6) . . .
83(5) . . .
90(5) . . .
95(5) . . .
103(5) . . .
88(5) . . .
100(5) . . .
97(5) . . .
86(5) . . .
77(5) . . .
80(5) . . .
96(5) . . .
75(5) . . .
83(5) . . .
78(5) . . .
90(5) . . .
98(5) . . .
79(5) . . .
89(5) . . .
86(5) . . .
76(5) . . .
73(4) . . .
100(6) . . .
89(5) . . .
81(5) . . .
89(5) . . .
103(5) . . .
98(5) . . .
92(5) . . .
95(5) . . .
84(5) . . .
85(5) . . .
88(5) . . .
93(5) . . .
80(5) . . .
87(5) . . .
82(5) . . .
83(5) . . .
95(5) . . .
106(5) . . .
100(5) . . .
94(5) . . .
84(5) . . .
93(5) . . .
86(5) . . .
79(5) . . .
85(5) . . .
81(5) . . .
94(5) . . .
89(5) . . .
92(5) . . .
89(5) . . .
86(5) . . .
85(5) . . .
83(5) . . .
82(5) . . .
113(6) . . .
87(5) . . .
72(5) . . .
102(5) . . .
95(5) . . .
95(5) . . .
88(5) . . .
89(5) . . .
83(5) . . .
92(5) . . .
83(5) . . .
82(5) . . .
91(5) . . .
85(5) . . .
92(5) . . .
88(5) . . .
81(5) . . .
85(5) . . .
92(5) . . .
92(5) . . .
104(6) . . .
91(5) . . .
80(5) . . .
96(5) . . .
94(5) . . .
82(5) . . .
86(5) . . .
91(5) . . .
89(5) . . .
77(5) . . .
94(5) . . .
87(5) . . .
81(5) . . .
85(5) . . .
85(5) . . .
74(5) . . .
78(5) . . .
97(5) . . .
79(5) . . .
79(5) . . .
77(5) . . .
80(5) . . .
98(5) . . .
79(5) . . .
92(5) . . .
87(5) . . .
78(5) . . .
83(5) . . .
78(5) . . .
80(5) . . .
84(5) . . .
82(5) . . .
96(5) . . .
89(5) . . .
93(5) . . .
81(5) . . .
86(5) . . .
88(5) . . .
77(5) . . .
88(5) . . .
86(5) . . .
86(5) . . .
89(5) . . .
87(5) . . .
87(5) . . .
92(5) . . .
88(5) . . .
88(5) . . .
82(5) . . .
85(5) . . .
74(5) . . .
87(5) . . .
89(5) . . .
84(5) . . .
80(5) . . .
86(5) . . .
95(5) . . .
96(5) . . .
80(5) . . .
83(5) . . .
81(5) . . .
100(5) . . .
82(5) . . .
95(5) . . .
85(5) . . .
97(5) . . .
82(5) . . .
92(5) . . .
95(5) . . .
72(5) . . .
85(5) . . .
93(5) . . .
88(5) . . .
92(5) . . .
82(5) . . .
80(5) . . .
91(5) . . .
84(5) . . .
97(5) . . .
76(5) . . .
87(5) . . .
80(5) . . .
86(5) . . .
89(5) . . .
83(5) . . .
82(5) . . .
96(5) . . .
86(5) . . .
71(5) . . .
77(5) . . .
86(5) . . .
89(5) . . .
94(5) . . .
93(5) . . .
71(4) . . .
84(5) . . .
87(5) . . .
94(5) . . .
87(5) . . .
84(5) . . .
80(5) . . .
92(5) . . .
99(5) . . .
94(5) . . .
93(5) . . .
83(5) . . .
90(5) . . .
90(5) . . .
89(5) . . .
83(5) . . .
84(5) . . .
98(5) . . .
75(5) . . .
79(5) . . .
73(4) . . .
88(5) . . .
85(5) . . .
82(5) . . .
92(5) . . .
92(5) . . .
100(5) . . .
94(5) . . .
76(5) . . .
88(5) . . .
85(5) . . .
85(5) . . .
81(5) . . .
98(6) . . .
90(6) . . .
85(5) . . .
72(5) . . .
81(5) . . .
86(5) . . .
84(5) . . .
92(5) . . .
86(5) . . .
75(4) . . .
76(5) . . .
78(5) . . .
72(5) . . .
87(5) . . .
90(5) . . .
93(5) . . .
80(5) . . .
85(5) . . .
93(5) . . .
88(5) . . .
95(5) . . .
94(5) . . .
85(5) . . .
92(5) . . .
89(5) . . .
79(5) . . .
86(5) . . .
92(5) . . .
70(4) . . .
81(5) . . .
84(5) . . .
83(5) . . .
92(5) . . .
90(5) . . .
85(5) . . .
95(5) . . .
111(6) . . .
92(5) . . .
81(5) . . .
84(5) . . .
72(4) . . .
85(5) . . .
92(5) . . .
79(5) . . .
77(5) . . .
83(5) . . .
85(5) . . .
83(5) . . .
98(5) . . .
100(5) . . .
95(6) . . .
93(5) . . .
100(5) . . .
92(5) . . .
82(5) . . .
82(5) . . .
92(5) . . .
72(5) . . .
97(5) . . .
84(5) . . .
86(5) . . .
86(5) . . .
91(5) . . .
84(5) . . .
86(5) . . .
92(5) . . .
82(5) . . .
78(5) . . .
82(5) . . .
85(5) . . .
80(5) . . .
85(5) . . .
76(5) . . .
95(5) . . .
83(5) . . .
94(5) . . .
98(5) . . .
84(5) . . .
88(5) . . .
90(5) . . .
89(5) . . .
100(5) . . .
99(5) . . .
89(5) . . .
77(5) . . .
77(5) . . .
76(5) . . .
73(4) . . .
76(5) . . .
85(5) . . .
86(5) . . .
85(5) . . .
94(5) . . .
95(5) . . .
96(5) . . .
93(5) . . .
85(5) . . .
91(5) . . .
88(5) . . .
85(5) . . .
97(5) . . .
86(5) . . .
98(5) . . .
83(5) . . .
75(5) . . .
88(5) . . .
96(5) . . .
87(5) . . .
81(5) . . .
101(6) . . .
101(5) . . .
86(5) . . .
84(5) . . .
73(5) . . .
85(5) . . .
85(5) . . .
89(5) . . .
87(5) . . .
90(5) . . .
90(5) . . .
85(5) . . .
87(5) . . .
84(5) . . .
90(5) . . .
86(5) . . .
91(5) . . .
93(5) . . .
79(5) . . .
85(5) . . .
102(5) . . .
86(5) . . .
83(5) . . .
80(5) . . .
95(5) . . .
85(5) . . .
87(5) . . .
93(5) . . .
86(5) . . .
84(5) . . .
97(6) . . .
79(5) . . .
89(5) . . .
84(5) . . .
98(6) . . .
92(5) . . .
95(5) . . .
77(5) . . .
84(5) . . .
96(5) . . .
76(5) . . .
89(5) . . .
102(5) . . .
83(5) . . .
90(5) . . .
87(5) . . .
79(5) . . .
92(5) . . .
100(5) . . .
94(5) . . .
81(5) . . .
79(5) . . .
95(5) . . .
86(5) . . .
89(5) . . .
83(5) . . .
79(5) . . .
81(5) . . .
93(5) . . .
108(6) . . .
103(5) . . .
93(5) . . .
85(5) . . .
76(5) . . .
94(5) . . .
85(5) . . .
93(5) . . .
85(5) . . .
93(5) . . .
86(5) . . .
81(5) . . .
82(5) . . .
71(5) . . .
96(5) . . .
100(6) . . .
84(5) . . .
81(5) . . .
83(5) . . .
75(5) . . .
93(5) . . .
77(5) . . .
77(5) . . .
96(6) . . .
80(5) . . .
80(5) . . .
85(5) . . .
82(5) . . .
84(5) . . .
83(5) . . .
86(5) . . .
81(5) . . .
75(5) . . .
83(5) . . .
100(6) . . .
90(5) . . .
77(5) . . .
70(4) . . .
85(5) . . .
76(5) . . .
87(5) . . .
82(5) . . .
88(5) . . .
87(5) . . .
76(5) . . .
67(4) . . .
71(4) . . .
74(5) . . .
78(5) . . .
74(5) . . .
81(5) . . .
89(5) . . .
75(5) . . .
78(5) . . .
68(4) . . .
84(5) . . .
92(5) . . .
87(5) . . .
77(5) . . .
81(5) . . .
83(5) . . .
85(5) . . .
88(5) . . .
89(5) . . .
95(6) . . .
88(5) . . .
79(5) . . .
72(5) . . .
87(5) . . .
87(5) . . .
83(5) . . .
85(5) . . .
85(5) . . .
77(5) . . .
99(5) . . .
97(5) . . .
77(5) . . .
88(5) . . .
88(5) . . .
91(5) . . .
85(5) . . .
87(5) . . .
91(5) . . .
80(5) . . .
88(5) . . .
103(5) . . .
95(5) . . .
91(5) . . .
92(5) . . .
95(5) . . .
91(5) . . .
93(5) . . .
96(5) . . .
107(6) . . .
92(5) . . .
82(5) . . .
79(5) . . .
87(5) . . .
82(5) . . .
89(5) . . .
81(5) . . .
75(4) . . .
72(4) . . .
90(5) . . .
84(5) . . .
85(5) . . .
99(5) . . .
91(5) . . .
85(5) . . .
90(5) . . .
92(5) . . .
87(5) . . .
88(5) . . .
79(5) . . .
81(5) . . .
102(5) . . .
91(5) . . .
88(5) . . .
80(5) . . .
91(5) . . .
75(5) . . .
87(5) . . .
76(5) . . .
87(5) . . .
85(5) . . .
80(5) . . .
77(5) . . .
75(5) . . .
86(5) . . .
89(5) . . .
82(5) . . .
83(5) . . .
78(5) . . .
80(5) . . .
65(4) . . .
84(5) . . .
97(5) . . .
99(6) . . .
83(5) . . .
85(5) . . .
90(5) . . .
93(5) . . .
80(5) . . .
88(5) . . .
101(5) . . .
82(5) . . .
78(5) . . .
84(5) . . .
92(5) . . .
89(5) . . .
95(5) . . .
78(5) . . .
89(5) . . .
69(4) . . .
82(5) . . .
83(5) . . .
79(5) . . .
89(5) . . .
78(5) . . .
79(5) . . .
83(5) . . .
94(5) . . .
82(5) . . .
88(5) . . .
87(5) . . .
101(5) . . .
91(5) . . .
83(5) . . .
77(5) . . .
86(5) . . .
77(5) . . .
81(5) . . .
69(4) . . .
92(5) . . .
90(5) . . .
78(5) . . .
86(5) . . .
76(5) . . .
87(5) . . .
85(5) . . .
76(5) . . .
83(5) . . .
71(5) . . .
86(5) . . .
83(5) . . .
72(5) . . .
101(6) . . .
73(5) . . .
87(5) . . .
93(5) . . .
91(5) . . .
88(5) . . .
86(5) . . .
94(5) . . .
82(5) . . .
86(5) . . .
95(6) . . .
94(5) . . .
83(5) . . .
85(5) . . .
86(5) . . .
78(5) . . .
82(5) . . .
78(5) . . .
73(4) . . .
68(4) . . .
79(5) . . .
82(5) . . .
90(5) . . .
81(5) . . .
83(5) . . .
70(4) . . .
87(5) . . .
77(5) . . .
87(5) . . .
96(5) . . .
77(5) . . .
81(5) . . .
93(5) . . .
80(5) . . .
81(5) . . .
83(5) . . .
75(5) . . .
79(5) . . .
70(4) . . .
75(5) . . .
82(5) . . .
82(5) . . .
86(5) . . .
77(5) . . .
86(5) . . .
83(5) . . .
78(5) . . .
85(5) . . .
82(5) . . .
82(5) . . .
88(5) . . .
89(5) . . .
93(5) . . .
83(5) . . .
93(5) . . .
79(5) . . .
81(5) . . .
84(5) . . .
88(5) . . .
89(5) . . .
76(5) . . .
94(5) . . .
85(5) . . .
81(5) . . .
72(5) . . .
65(4) . . .
79(5) . . .
73(4) . . .
76(5) . . .
84(5) . . .
79(5) . . .
73(4) . . .
77(5) . . .
81(5) . . .
75(5) . . .
75(5) . . .
81(5) . . .
82(5) . . .
82(5) . . .
87(5) . . .
90(5) . . .
89(5) . . .
77(5) . . .
79(5) . . .
86(5) . . .
83(5) . . .
88(5) . . .
87(5) . . .
75(5) . . .
85(5) . . .
79(5) . . .
77(5) . . .
75(5) . . .
84(5) . . .
90(5) . . .
79(5) . . .
81(5) . . .
93(5) . . .
91(5) . . .
76(5) . . .
71(4) . . .
72(4) . . .
89(5) . . .
84(5) . . .
87(5) . . .
85(5) . . .
75(5) . . .
90(5) . . .
94(5) . . .
85(5) . . .
80(5) . . .
81(5) . . .
75(5) . . .
72(4) . . .
81(5) . . .
78(5) . . .
93(5) . . .
71(5) . . .
87(5) . . .
78(5) . . .
85(5) . . .
70(4) . . .
62(4) . . .
83(5) . . .
88(5) . . .
72(4) . . .
68(4) . . .
85(5) . . .
79(5) . . .
88(5) . . .
91(5) . . .
87(5) . . .
79(5) . . .
88(5) . . .
75(5) . . .
89(5) . . .
78(5) . . .
80(5) . . .
91(5) . . .
86(5) . . .
86(5) . . .
88(5) . . .
79(5) . . .
72(5) . . .
88(5) . . .
76(4) . . .
82(5) . . .
71(5) . . .
65(4) . . .
84(5) . . .
86(5) . . .
70(4) . . .
90(5) . . .
87(5) . . .
72(4) . . .
91(5) . . .
65(4) . . .
76(5) . . .
85(5) . . .
84(5) . . .
92(5) . . .
78(5) . . .
81(5) . . .
91(5) . . .
91(5) . . .
100(5) . . .
80(5) . . .
87(5) . . .
82(5) . . .
83(5) . . .
90(5) . . .
88(5) . . .
92(5) . . .
95(5) . . .
76(5) . . .
83(5) . . .
82(5) . . .
93(5) . . .
93(5) . . .
79(5) . . .
75(4) . . .
82(5) . . .
88(5) . . .
88(5) . . .
84(5) . . .
79(5) . . .
69(5) . . .
83(5) . . .
85(5) . . .
93(5) . . .
90(5) . . .
97(5) . . .
90(5) . . .
77(5) . . .
77(5) . . .
80(5) . . .
81(5) . . .
77(5) . . .
85(5) . . .
81(5) . . .
80(5) . . .
89(5) . . .
69(4) . . .
79(5) . . .
84(5) . . .
70(5) . . .
87(5) . . .
77(5) . . .
79(5) . . .
86(5) . . .
80(5) . . .
88(5) . . .
80(5) . . .
71(4) . . .
80(5) . . .
86(5) . . .
75(5) . . .
85(5) . . .
81(5) . . .
84(5) . . .
82(5) . . .
82(5) . . .
90(5) . . .
80(5) . . .
74(5) . . .
76(5) . . .
89(5) . . .
84(5) . . .
86(5) . . .
83(5) . . .
79(5) . . .
93(5) . . .
87(5) . . .
82(5) . . .
84(5) . . .
89(5) . . .
73(5) . . .
78(5) . . .
76(5) . . .
85(5) . . .
84(5) . . .
77(5) . . .
80(5) . . .
83(5) . . .
91(5) . . .
75(5) . . .
78(5) . . .
85(5) . . .
86(5) . . .
87(5) . . .
82(5) . . .
69(5) . . .
82(5) . . .
84(5) . . .
67(4) . . .
72(5) . . .
81(5) . . .
73(5) . . .
67(4) . . .
88(5) . . .
77(5) . . .
80(5) . . .
83(5) . . .
83(5) . . .
108(6) . . .
89(5) . . .
88(5) . . .
83(5) . . .
73(4) . . .
80(5) . . .
79(5) . . .
87(5) . . .
97(5) . . .
95(5) . . .
78(5) . . .
76(5) . . .
78(5) . . .
86(5) . . .
91(5) . . .
87(5) . . .
83(5) . . .
95(5) . . .
85(5) . . .
81(5) . . .
93(5) . . .
77(5) . . .
75(5) . . .
75(5) . . .
67(4) . . .
77(5) . . .
95(5) . . .
74(4) . . .
89(5) . . .
90(5) . . .
89(5) . . .
75(5) . . .
83(5) . . .
70(4) . . .
85(5) . . .
84(5) . . .
81(5) . . .
78(5) . . .
79(5) . . .
79(5) . . .
94(5) . . .
84(5) . . .
75(4) . . .
77(5) . . .
80(5) . . .
78(5) . . .
79(5) . . .
73(4) . . .
82(5) . . .
87(5) . . .
85(5) . . .
86(5) . . .
84(5) . . .
72(4) . . .
81(5) . . .
83(5) . . .
82(5) . . .
79(5) . . .
72(4) . . .
82(5) . . .
75(5) . . .
84(5) . . .
86(5) . . .
82(5) . . .
77(5) . . .
71(5) . . .
62(4) . . .
65(4) . . .
84(5) . . .
76(5) . . .
91(5) . . .
91(5) . . .
80(5) . . .
91(5) . . .
70(4) . . .
79(5) . . .
80(5) . . .
80(5) . . .
97(5) . . .
76(5) . . .
78(5) . . .
79(5) . . .
80(5) . . .
70(4) . . .
83(5) . . .
81(5) . . .
76(5) . . .
72(4) . . .
64(4) . . .
73(5) . . .
79(5) . . .
72(4) . . .
80(5) . . .
78(5) . . .
87(5) . . .
90(5) . . .
88(5) . . .
83(5) . . .
90(5) . . .
79(5) . . .
82(5) . . .
82(5) . . .
78(5) . . .
85(5) . . .
80(5) . . .
86(5) . . .
72(4) . . .
85(5) . . .
84(5) . . .
73(5) . . .
89(5) . . .
80(5) . . .
84(5) . . .
68(5) . . .
79(5) . . .
67(4) . . .
73(4) . . .
80(5) . . .
79(5) . . .
76(5) . . .
90(5) . . .
74(5) . . .
82(5) . . .
75(5) . . .
79(5) . . .
90(5) . . .
84(5) . . .
82(5) . . .
89(5) . . .
74(5) . . .
79(5) . . .
77(5) . . .
83(5) . . .
89(5) . . .
78(5) . . .
83(5) . . .
81(5) . . .
75(5) . . .
76(5) . . .
86(5) . . .
82(5) . . .
70(4) . . .
71(5) . . .
74(5) . . .
94(5) . . .
84(5) . . .
83(5) . . .
80(5) . . .
86(5) . . .
84(5) . . .
80(5) . . .
68(4) . . .
77(5) . . .
78(5) . . .
76(5) . . .
75(5) . . .
93(5) . . .
90(5) . . .
83(5) . . .
79(5) . . .
78(5) . . .
80(5) . . .
75(5) . . .
79(5) . . .
93(5) . . .
69(4) . . .
74(5) . . .
84(5) . . .
87(5) . . .
73(5) . . .
85(5) . . .
81(5) . . .
65(4) . . .
74(5) . . .
75(5) . . .
76(5) . . .
75(5) . . .
71(5) . . .
85(5) . . .
85(5) . . .
77(5) . . .
80(5) . . .
81(5) . . .
86(5) . . .
87(5) . . .
77(5) . . .
80(5) . . .
74(5) . . .
85(5) . . .
83(5) . . .
78(5) . . .
71(5) . . .
91(5) . . .
86(5) . . .
79(5) . . .
80(5) . . .
82(5) . . .
75(5) . . .
68(5) . . .
94(5) . . .
88(5) . . .
78(5) . . .
74(5) . . .
81(5) . . .
74(4) . . .
71(4) . . .
94(5) . . .
73(5) . . .
81(5) . . .
75(4) . . .
75(5) . . .
80(5) . . .
85(5) . . .
72(4) . . .
93(5) . . .
86(5) . . .
94(5) . . .
78(5) . . .
69(5) . . .
78(5) . . .
85(5) . . .
77(5) . . .
87(5) . . .
68(4) . . .
84(5) . . .
72(5) . . .
86(5) . . .
78(5) . . .
82(5) . . .
77(5) . . .
79(5) . . .
83(5) . . .
81(5) . . .
75(4) . . .
74(5) . . .
75(5) . . .
70(5) . . .
68(4) . . .
78(5) . . .
80(5) . . .
69(4) . . .
73(5) . . .
78(5) . . .
88(5) . . .
83(5) . . .
79(5) . . .
73(5) . . .
71(4) . . .
74(5) . . .
85(5) . . .
82(5) . . .
85(5) . . .
83(5) . . .
86(5) . . .
88(5) . . .
88(5) . . .
79(5) . . .
83(5) . . .
82(5) . . .
76(5) . . .
77(5) . . .
77(5) . . .
74(5) . . .
79(5) . . .
85(5) . . .
73(5) . . .
76(5) . . .
77(5) . . .
85(5) . . .
90(5) . . .
78(5) . . .
82(5) . . .
84(5) . . .
78(5) . . .
95(5) . . .
82(5) . . .
69(4) . . .
78(5) . . .
74(5) . . .
74(5) . . .
77(5) . . .
74(5) . . .
78(5) . . .
74(4) . . .
80(5) . . .
68(4) . . .
64(4) . . .
88(5) . . .
83(5) . . .
75(5) . . .
83(5) . . .
79(5) . . .
75(5) . . .
84(5) . . .
87(5) . . .
75(5) . . .
72(4) . . .
89(5) . . .
75(5) . . .
76(5) . . .
75(5) . . .
81(5) . . .
72(4) . . .
72(4) . . .
73(5) . . .
92(5) . . .
83(5) . . .
78(5) . . .
72(5) . . .
65(4) . . .
81(5) . . .
69(4) . . .
81(5) . . .
79(5) . . .
79(5) . . .
81(5) . . .
76(5) . . .
73(4) . . .
78(5) . . .
79(5) . . .
73(5) . . .
85(5) . . .
84(5) . . .
77(5) . . .
94(5) . . .
86(5) . . .
85(5) . . .
69(4) . . .
65(4) . . .
76(5) . . .
77(5) . . .
69(4) . . .
82(5) . . .
75(5) . . .
78(5) . . .
88(5) . . .
77(5) . . .
76(5) . . .
77(5) . . .
70(4) . . .
87(5) . . .
84(5) . . .
90(5) . . .
85(5) . . .
83(5) . . .
81(5) . . .
80(5) . . .
93(5) . . .
78(5) . . .
73(5) . . .
74(5) . . .
84(5) . . .
85(5) . . .
75(5) . . .
79(5) . . .
78(5) . . .
90(5) . . .
87(5) . . .
84(5) . . .
69(5) . . .
80(5) . . .
72(4) . . .
64(4) . . .
75(5) . . .
79(5) . . .
78(5) . . .
84(5) . . .
85(5) . . .
80(5) . . .
80(5) . . .
80(5) . . .
75(5) . . .
72(4) . . .
66(4) . . .
84(5) . . .
76(5) . . .
67(4) . . .
65(4) . . .
83(5) . . .
68(4) . . .
71(4) . . .
77(5) . . .
74(5) . . .
81(5) . . .
78(5) . . .
89(5) . . .
75(4) . . .
82(5) . . .
72(5) . . .
72(4) . . .
78(5) . . .
84(5) . . .
103(5) . . .
95(5) . . .
81(5) . . .
84(5) . . .
81(5) . . .
82(5) . . .
83(5) . . .
75(5) . . .
91(5) . . .
79(5) . . .
79(5) . . .
83(5) . . .
94(5) . . .
90(5) . . .
79(5) . . .
74(5) . . .
81(5) . . .
81(5) . . .
77(5) . . .
94(5) . . .
82(5) . . .
78(5) . . .
78(5) . . .
76(5) . . .
96(5) . . .
92(5) . . .
79(5) . . .
87(5) . . .
93(5) . . .
89(5) . . .
80(5) . . .
82(5) . . .
69(4) . . .
78(5) . . .
82(5) . . .
72(5) . . .
89(5) . . .
73(5) . . .
74(4) . . .
78(5) . . .
85(5) . . .
79(5) . . .
89(5) . . .
83(5) . . .
74(5) . . .
71(5) . . .
78(5) . . .
84(5) . . .
70(4) . . .
75(5) . . .
74(5) . . .
84(5) . . .
76(5) . . .
70(4) . . .
88(5) . . .
87(5) . . .
68(4) . . .
71(4) . . .
70(4) . . .
74(5) . . .
75(5) . . .
88(5) . . .
76(5) . . .
76(5) . . .
74(5) . . .
79(5) . . .
66(5) . . .
74(5) . . .
91(5) . . .
77(5) . . .
82(5) . . .
84(5) . . .
81(5) . . .
86(5) . . .
84(5) . . .
83(5) . . .
73(5) . . .
74(4) . . .
75(5) . . .
81(5) . . .
73(5) . . .
85(5) . . .
72(4) . . .
80(5) . . .
65(4) . . .
69(4) . . .
91(5) . . .
78(5) . . .
72(5) . . .
68(4) . . .
67(4) . . .
78(5) . . .
68(4) . . .
78(5) . . .
85(5) . . .
78(5) . . .
77(5) . . .
76(4) . . .
76(5) . . .
81(5) . . .
87(5) . . .
69(4) . . .
82(5) . . .
70(4) . . .
87(5) . . .
90(5) . . .
74(4) . . .
67(4) . . .
78(5) . . .
83(5) . . .
83(5) . . .
75(5) . . .
71(4) . . .
77(5) . . .
85(5) . . .
85(5) . . .
81(5) . . .
74(5) . . .
64(4) . . .
81(5) . . .
77(5) . . .
75(5) . . .
85(5) . . .
71(4) . . .
92(5) . . .
86(5) . . .
86(5) . . .
81(5) . . .
78(5) . . .
88(5) . . .
73(4) . . .
83(5) . . .
80(5) . . .
82(5) . . .
81(5) . . .
86(5) . . .
69(4) . . .
87(5) . . .
84(5) . . .
72(4) . . .
75(5) . . .
72(4) . . .
82(5) . . .
75(5) . . .
75(5) . . .
66(4) . . .
70(4) . . .
71(4) . . .
76(5) . . .
78(5) . . .
87(5) . . .
77(4) . . .
71(5) . . .
85(5) . . .
79(5) . . .
89(5) . . .
88(5) . . .
72(5) . . .
73(5) . . .
84(5) . . .
80(5) . . .
75(4) . . .
73(4) . . .
84(5) . . .
78(5) . . .
75(5) . . .
63(4) . . .
72(5) . . .
75(5) . . .
71(5) . . .
63(4) . . .
74(5) . . .
79(5) . . .
82(5) . . .
93(6) . . .
79(5) . . .
84(5) . . .
80(5) . . .
78(5) . . .
57(4) . . .
71(4) . . .
77(5) . . .
67(4) . . .
83(5) . . .
73(5) . . .
70(4) . . .
73(5) . . .
75(5) . . .
78(5) . . .
83(5) . . .
77(5) . . .
84(5) . . .
77(5) . . .
80(5) . . .
72(4) . . .
67(4) . . .
79(5) . . .
68(4) . . .
68(4) . . .
73(4) . . .
76(5) . . .
94(5) . . .
75(5) . . .
73(5) . . .
67(4) . . .
75(4) . . .
63(4) . . .
78(5) . . .
82(5) . . .
80(5) . . .
82(5) . . .
71(5) . . .
78(5) . . .
79(5) . . .
81(5) . . .
71(4) . . .
80(5) . . .
79(5) . . .
74(5) . . .
80(5) . . .
73(4) . . .
74(5) . . .
69(4) . . .
72(5) . . .
71(4) . . .
66(4) . . .
86(5) . . .
73(5) . . .
75(5) . . .
70(4) . . .
78(5) . . .
77(5) . . .
75(5) . . .
77(5) . . .
78(5) . . .
70(5) . . .
85(5) . . .
68(5) . . .
63(4) . . .
79(5) . . .
87(5) . . .
84(5) . . .
70(5) . . .
68(4) . . .
77(5) . . .
75(5) . . .
81(5) . . .
70(4) . . .
76(4) . . .
70(4) . . .
83(5) . . .
73(5) . . .
83(5) . . .
79(5) . . .
80(5) . . .
75(5) . . .
83(5) . . .
78(5) . . .
76(5) . . .
76(4) . . .
72(5) . . .
64(4) . . .
80(5) . . .
73(4) . . .
76(5) . . .
73(5) . . .
75(5) . . .
69(4) . . .
70(4) . . .
89(5) . . .
85(5) . . .
72(5) . . .
91(5) . . .
69(4) . . .
65(4) . . .
75(5) . . .
78(5) . . .
83(5) . . .
62(4) . . .
80(5) . . .
88(5) . . .
81(5) . . .
75(5) . . .
84(5) . . .
79(5) . . .
62(4) . . .
67(4) . . .
75(5) . . .
70(4) . . .
78(5) . . .
78(5) . . .
69(5) . . .
77(5) . . .
78(5) . . .
90(5) . . .
72(4) . . .
69(4) . . .
68(4) . . .
73(4) . . .
76(5) . . .
78(5) . . .
71(4) . . .
79(5) . . .
81(5) . . .
86(5) . . .
85(5) . . .
85(5) . . .
74(4) . . .
80(5) . . .
85(5) . . .
83(5) . . .
83(5) . . .
63(4) . . .
72(4) . . .
72(4) . . .
78(5) . . .
70(4) . . .
86(5) . . .
93(5) . . .
80(5) . . .
83(5) . . .
76(5) . . .
74(4) . . .
72(5) . . .
80(5) . . .
70(4) . . .
69(4) . . .
72(4) . . .
70(4) . . .
80(5) . . .
64(4) . . .
71(4) . . .
73(4) . . .
84(5) . . .
68(4) . . .
82(5) . . .
67(4) . . .
79(5) . . .
76(5) . . .
77(5) . . .
68(4) . . .
85(5) . . .
68(4) . . .
83(5) . . .
76(5) . . .
90(5) . . .
75(5) . . .
69(4) . . .
76(5) . . .
80(5) . . .
79(5) . . .
79(5) . . .
67(4) . . .
75(5) . . .
83(5) . . .
87(5) . . .
79(5) . . .
79(5) . . .
72(5) . . .
82(5) . . .
78(5) . . .
85(5) . . .
78(5) . . .
76(5) . . .
89(5) . . .
76(5) . . .
61(4) . . .
77(5) . . .
77(5) . . .
66(4) . . .
70(5) . . .
74(4) . . .
77(5) . . .
72(5) . . .
77(5) . . .
76(5) . . .
80(5) . . .
66(4) . . .
69(4) . . .
67(4) . . .
93(5) . . .
87(5) . . .
82(5) . . .
78(5) . . .
69(4) . . .
71(4) . . .
69(4) . . .
78(5) . . .
75(5) . . .
83(5) . . .
80(5) . . .
78(5) . . .
88(5) . . .
85(5) . . .
77(5) . . .
70(4) . . .
76(4) . . .
78(5) . . .
69(5) . . .
79(5) . . .
81(5) . . .
79(5) . . .
84(5) . . .
72(5) . . .
73(5) . . .
76(5) . . .
79(5) . . .
77(4) . . .
81(5) . . .
90(5) . . .
76(5) . . .
74(4) . . .
72(5) . . .
82(5) . . .
70(5) . . .
80(5) . . .
73(4) . . .
81(5) . . .
64(4) . . .
63(4) . . .
63(4) . . .
73(4) . . .
83(5) . . .
85(5) . . .
89(5) . . .
83(5) . . .
85(5) . . .
74(4) . . .
86(5) . . .
89(5) . . .
73(4) . . .
96(5) . . .
93(5) . . .
72(5) . . .
88(5) . . .
80(5) . . .
76(5) . . .
72(5) . . .
78(5) . . .
69(4) . . .
79(5) . . .
77(5) . . .
78(5) . . .
80(5) . . .
89(5) . . .
66(4) . . .
61(4) . . .
77(5) . . .
78(5) . . .
79(5) . . .
66(4) . . .
74(5) . . .
75(5) . . .
72(4) . . .
76(4) . . .
69(4) . . .
76(5) . . .
77(5) . . .
73(5) . . .
74(5) . . .
82(5) . . .
79(5) . . .
74(5) . . .
68(4) . . .
83(5) . . .
79(5) . . .
73(5) . . .
71(5) . . .
70(4) . . .
82(5) . . .
63(4) . . .
73(5) . . .
71(5) . . .
75(5) . . .
83(5) . . .
87(5) . . .
73(4) . . .
69(5) . . .
79(5) . . .
84(5) . . .
71(4) . . .
70(5) . . .
70(5) . . .
70(5) . . .
79(5) . . .
64(4) . . .
71(5) . . .
63(4) . . .
74(4) . . .
81(5) . . .
73(4) . . .
82(5) . . .
80(5) . . .
68(4) . . .
71(4) . . .
69(4) . . .
75(5) . . .
80(5) . . .
77(5) . . .
74(4) . . .
77(5) . . .
77(5) . . .
89(5) . . .
67(4) . . .
78(5) . . .
81(5) . . .
86(5) . . .
75(5) . . .
71(4) . . .
60(4) . . .
82(5) . . .
64(5) . . .
86(5) . . .
73(4) . . .
77(5) . . .
87(5) . . .
77(5) . . .
72(4) . . .
71(4) . . .
77(5) . . .
71(5) . . .
71(5) . . .
79(5) . . .
84(5) . . .
77(5) . . .
74(5) . . .
71(5) . . .
70(4) . . .
76(5) . . .
84(5) . . .
71(5) . . .
75(5) . . .
68(4) . . .
66(4) . . .
83(5) . . .
78(5) . . .
79(5) . . .
73(4) . . .
71(4) . . .
86(5) . . .
75(5) . . .
85(5) . . .
69(4) . . .
73(4) . . .
79(5) . . .
75(5) . . .
78(5) . . .
69(4) . . .
73(4) . . .
73(5) . . .
73(5) . . .
71(5) . . .
62(4) . . .
71(4) . . .
83(5) . . .
68(4) . . .
74(5) . . .
70(4) . . .
73(5) . . .
73(5) . . .
71(5) . . .
78(5) . . .
74(4) . . .
72(4) . . .
72(5) . . .
80(5) . . .
77(5) . . .
73(4) . . .
75(5) . . .
77(5) . . .
76(5) . . .
66(4) . . .
72(4) . . .
76(5) . . .
63(4) . . .
61(4) . . .
77(5) . . .
74(5) . . .
78(5) . . .
78(5) . . .
71(5) . . .
62(4) . . .
75(4) . . .
74(5) . . .
68(4) . . .
81(5) . . .
84(5) . . .
77(5) . . .
83(5) . . .
69(5) . . .
60(4) . . .
74(5) . . .
70(4) . . .
71(5) . . .
75(5) . . .
77(5) . . .
72(5) . . .
68(4) . . .
73(5) . . .
80(5) . . .
73(5) . . .
74(5) . . .
74(5) . . .
70(4) . . .
83(5) . . .
74(5) . . .
67(4) . . .
72(4) . . .
67(4) . . .
74(5) . . .
63(4) . . .
74(4) . . .
78(5) . . .
67(4) . . .
73(5) . . .
65(4) . . .
76(4) . . .
77(5) . . .
78(5) . . .
77(5) . . .
75(5) . . .
63(4) . . .
73(4) . . .
84(5) . . .
71(5) . . .
69(4) . . .
90(5) . . .
85(5) . . .
87(5) . . .
73(5) . . .
77(5) . . .
98(5) . . .
79(5) . . .
72(5) . . .
70(4) . . .
68(4) . . .
71(4) . . .
78(5) . . .
83(5) . . .
79(5) . . .
74(4) . . .
81(5) . . .
92(5) . . .
75(5) . . .
62(4) . . .
72(5) . . .
80(5) . . .
76(5) . . .
74(5) . . .
76(5) . . .
71(4) . . .
68(4) . . .
64(4) . . .
76(5) . . .
73(5) . . .
69(4) . . .
73(4) . . .
78(5) . . .
79(5) . . .
82(5) . . .
72(4) . . .
84(5) . . .
72(5) . . .
80(5) . . .
76(5) . . .
76(5) . . .
75(5) . . .
79(5) . . .
68(4) . . .
72(5) . . .
71(4) . . .
82(5) . . .
68(4) . . .
84(5) . . .
72(5) . . .
71(4) . . .
75(5) . . .
77(5) . . .
80(5) . . .
82(5) . . .
62(4) . . .
63(4) . . .
69(5) . . .
69(4) . . .
76(5) . . .
74(4) . . .
75(5) . . .
84(5) . . .
83(5) . . .
71(4) . . .
69(4) . . .
88(5) . . .
87(5) . . .
66(4) . . .
73(4) . . .
72(4) . . .
73(5) . . .
77(5) . . .
71(5) . . .
71(4) . . .
68(4) . . .
81(5) . . .
77(5) . . .
77(5) . . .
57(4) . . .
73(4) . . .
66(4) . . .
74(5) . . .
79(5) . . .
72(4) . . .
68(4) . . .
76(5) . . .
74(5) . . .
75(5) . . .
73(4) . . .
66(4) . . .
73(5) . . .
80(5) . . .
67(5) . . .
80(5) . . .
78(5) . . .
77(5) . . .
66(4) . . .
75(5) . . .
71(4) . . .
74(5) . . .
71(5) . . .
74(5) . . .
71(5) . . .
68(4) . . .
68(4) . . .
83(5) . . .
80(5) . . .
71(4) . . .
70(4) . . .
65(4) . . .
72(5) . . .
82(5) . . .
86(5) . . .
85(5) . . .
78(5) . . .
82(5) . . .
74(5) . . .
59(4) . . .
78(5) . . .
84(5) . . .
66(4) . . .
67(5) . . .
75(5) . . .
77(5) . . .
86(5) . . .
79(5) . . .
77(5) . . .
73(4) . . .
71(4) . . .
81(5) . . .
86(5) . . .
80(5) . . .
86(5) . . .
81(5) . . .
67(4) . . .
90(5) . . .
84(5) . . .
79(5) . . .
60(4) . . .
76(5) . . .
81(5) . . .
79(5) . . .
78(5) . . .
88(5) . . .
69(4) . . .
73(5) . . .
73(4) . . .
77(5) . . .
69(4) . . .
78(5) . . .
75(5) . . .
80(5) . . .
72(4) . . .
87(5) . . .
70(5) . . .
73(5) . . .
72(4) . . .
77(5) . . .
75(5) . . .
70(5) . . .
71(5) . . .
72(4) . . .
70(4) . . .
69(4) . . .
70(5) . . .
61(4) . . .
79(5) . . .
70(4) . . .
75(5) . . .
57(4) . . .
76(5) . . .
78(5) . . .
77(5) . . .
80(5) . . .
74(5) . . .
63(4) . . .
70(4) . . .
74(4) . . .
84(5) . . .
86(5) . . .
69(4) . . .
64(4) . . .
76(4) . . .
82(5) . . .
60(4) . . .
71(5) . . .
77(5) . . .
74(5) . . .
78(5) . . .
79(5) . . .
64(4) . . .
67(4) . . .
68(4) . . .
78(5) . . .
76(5) . . .
85(5) . . .
81(5) . . .
84(5) . . .
85(5) . . .
81(5) . . .
82(5) . . .
79(5) . . .
72(4) . . .
72(5) . . .
79(5) . . .
84(5) . . .
90(5) . . .
66(4) . . .
70(5) . . .
64(4) . . .
68(4) . . .
71(4) . . .
75(5) . . .
74(5) . . .
84(5) . . .
81(5) . . .
73(4) . . .
73(5) . . .
66(5) . . .
68(5) . . .
73(5) . . .
82(5) . . .
74(5) . . .
76(5) . . .
82(5) . . .
72(5) . . .
75(4) . . .
73(4) . . .
70(5) . . .
79(5) . . .
64(4) . . .
74(5) . . .
68(4) . . .
72(5) . . .
82(5) . . .
81(5) . . .
75(5) . . .
70(4) . . .
74(5) . . .
65(4) . . .
67(4) . . .
79(5) . . .
71(5) . . .
80(5) . . .
93(5) . . .
69(4) . . .
71(4) . . .
71(5) . . .
71(5) . . .
79(5) . . .
70(4) . . .
71(4) . . .
74(5) . . .
69(5) . . .
74(5) . . .
72(4) . . .
70(4) . . .
77(5) . . .
75(5) . . .
75(5) . . .
74(4) . . .
68(4) . . .
73(5) . . .
72(5) . . .
81(5) . . .
73(4) . . .
73(4) . . .
83(5) . . .
71(4) . . .
68(4) . . .
81(5) . . .
61(4) . . .
62(4) . . .
72(5) . . .
76(5) . . .
74(4) . . .
85(5) . . .
83(5) . . .
68(4) . . .
83(5) . . .
88(5) . . .
71(4) . . .
79(5) . . .
73(5) . . .
63(4) . . .
65(4) . . .
63(4) . . .
72(5) . . .
70(5) . . .
75(5) . . .
71(4) . . .
70(5) . . .
67(5) . . .
74(5) . . .
72(4) . . .
84(5) . . .
73(4) . . .
69(4) . . .
71(5) . . .
80(5) . . .
72(4) . . .
69(4) . . .
66(4) . . .
79(5) . . .
78(5) . . .
69(4) . . .
81(5) . . .
70(5) . . .
72(4) . . .
74(5) . . .
65(4) . . .
80(5) . . .
81(5) . . .
68(4) . . .
65(4) . . .
74(5) . . .
69(4) . . .
75(5) . . .
80(5) . . .
72(4) . . .
68(4) . . .
71(5) . . .
73(5) . . .
65(4) . . .
71(4) . . .
77(5) . . .
71(5) . . .
76(5) . . .
70(4) . . .
84(5) . . .
78(5) . . .
60(4) . . .
86(5) . . .
72(4) . . .
69(4) . . .
80(5) . . .
73(5) . . .
75(5) . . .
73(4) . . .
69(4) . . .
77(5) . . .
70(5) . . .
73(5) . . .
78(5) . . .
75(5) . . .
73(5) . . .
81(5) . . .
71(5) . . .
72(4) . . .
77(5) . . .
72(4) . . .
79(5) . . .
75(5) . . .
65(4) . . .
68(4) . . .
79(5) . . .
71(5) . . .
61(4) . . .
73(4) . . .
72(4) . . .
87(5) . . .
71(4) . . .
76(5) . . .
90(5) . . .
67(4) . . .
75(5) . . .
58(4) . . .
65(4) . . .
86(5) . . .
66(4) . . .
81(5) . . .
89(5) . . .
81(5) . . .
74(5) . . .
67(4) . . .
89(5) . . .
78(5) . . .
66(4) . . .
64(4) . . .
74(5) . . .
84(5) . . .
77(5) . . .
79(5) . . .
79(5) . . .
77(5) . . .
77(5) . . .
77(5) . . .
84(5) . . .
81(5) . . .
88(5) . . .
70(5) . . .
75(5) . . .
75(4) . . .
77(5) . . .
86(5) . . .
80(5) . . .
68(4) . . .
68(4) . . .
71(5) . . .
68(4) . . .
88(5) . . .
76(5) . . .
77(5) . . .
80(5) . . .
67(4) . . .
62(4) . . .
68(5) . . .
72(4) . . .
70(4) . . .
70(4) . . .
76(5) . . .
88(5) . . .
69(4) . . .
71(5) . . .
87(5) . . .
84(5) . . .
72(4) . . .
73(4) . . .
77(5) . . .
76(5) . . .
79(5) . . .
77(5) . . .
77(5) . . .
70(5) . . .
71(5) . . .
70(5) . . .
76(5) . . .
77(5) . . .
71(5) . . .
75(5) . . .
68(4) . . .
72(4) . . .
74(5) . . .
68(4) . . .
76(5) . . .
69(4) . . .
75(4) . . .
79(5) . . .
73(5) . . .
67(5) . . .
69(4) . . .
74(4) . . .
72(4) . . .
78(5) . . .
70(5) . . .
58(4) . . .
74(4) . . .
88(5) . . .
74(4) . . .
66(5) . . .
71(5) . . .
68(4) . . .
68(4) . . .
67(4) . . .
81(5) . . .
66(4) . . .
82(5) . . .
76(5) . . .
77(5) . . .
65(4) . . .
78(5) . . .
80(5) . . .
72(4) . . .
75(5) . . .
67(4) . . .
74(4) . . .
68(4) . . .
82(5) . . .
77(5) . . .
81(5) . . .
70(4) . . .
83(5) . . .
80(5) . . .
70(4) . . .
76(5) . . .
74(5) . . .
54(4) . . .
66(5) . . .
77(5) . . .
78(5) . . .
80(5) . . .
72(4) . . .
78(5) . . .
76(5) . . .
77(5) . . .
74(4) . . .
73(4) . . .
66(4) . . .
68(4) . . .
72(4) . . .
82(5) . . .
75(5) . . .
76(5) . . .
73(5) . . .
71(5) . . .
76(4) . . .
66(4) . . .
76(5) . . .
76(5) . . .
72(5) . . .
82(5) . . .
72(4) . . .
82(5) . . .
64(4) . . .
67(4) . . .
68(4) . . .
72(5) . . .
67(4) . . .
78(5) . . .
72(5) . . .
81(5) . . .
66(4) . . .
75(5) . . .
77(5) . . .
80(5) . . .
73(4) . . .
76(5) . . .
71(5) . . .
69(5) . . .
76(5) . . .
60(4) . . .
76(5) . . .
75(5) . . .
71(5) . . .
67(4) . . .
76(5) . . .
60(4) . . .
71(5) . . .
81(5) . . .
68(4) . . .
77(5) . . .
73(5) . . .
68(4) . . .
76(5) . . .
82(5) . . .
62(4) . . .
70(5) . . .
84(5) . . .
85(5) . . .
73(4) . . .
73(5) . . .
73(5) . . .
78(5) . . .
61(4) . . .
71(4) . . .
74(5) . . .
73(4) . . .
75(5) . . .
69(4) . . .
82(5) . . .
65(4) . . .
69(5) . . .
74(5) . . .
76(5) . . .
75(5) . . .
82(5) . . .
78(5) . . .
68(5) . . .
64(4) . . .
69(4) . . .
79(5) . . .
51(4) . . .
70(5) . . .
69(4) . . .
68(4) . . .
76(5) . . .
66(5) . . .
64(4) . . .
71(4) . . .
58(4) . . .
77(5) . . .
76(5) . . .
73(5) . . .
66(4) . . .
80(5) . . .
64(4) . . .
70(5) . . .
74(5) . . .
66(4) . . .
70(4) . . .
76(5) . . .
77(5) . . .
75(5) . . .
75(5) . . .
74(4) . . .
73(5) . . .
76(5) . . .
67(5) . . .
71(5) . . .
66(4) . . .
74(5) . . .
82(5) . . .
67(4) . . .
68(4) . . .
69(4) . . .
74(5) . . .
67(4) . . .
68(5) . . .
72(4) . . .
79(5) . . .
75(5) . . .
63(4) . . .
87(5) . . .
76(5) . . .
76(5) . . .
75(5) . . .
66(4) . . .
69(5) . . .
63(4) . . .
73(4) . . .
83(5) . . .
72(5) . . .
68(4) . . .
67(4) . . .
73(5) . . .
63(4) . . .
70(5) . . .
69(4) . . .
74(4) . . .
67(4) . . .
72(5) . . .
78(5) . . .
74(5) . . .
81(5) . . .
82(5) . . .
75(5) . . .
81(5) . . .
79(5) . . .
72(4) . . .
68(5) . . .
84(5) . . .
65(4) . . .
70(4) . . .
78(5) . . .
79(5) . . .
74(5) . . .
73(4) . . .
77(5) . . .
72(4) . . .
64(4) . . .
70(5) . . .
76(5) . . .
71(4) . . .
68(5) . . .
53(4) . . .
70(5) . . .
70(4) . . .
70(4) . . .
84(5) . . .
62(4) . . .
77(5) . . .
81(5) . . .
82(5) . . .
73(5) . . .
87(5) . . .
53(4) . . .
73(5) . . .
84(5) . . .
78(5) . . .
73(5) . . .
85(5) . . .
65(4) . . .
70(4) . . .
64(4) . . .
73(5) . . .
66(4) . . .
72(4) . . .
67(4) . . .
77(5) . . .
81(5) . . .
79(5) . . .
67(4) . . .
72(4) . . .
81(5) . . .
79(5) . . .
82(5) . . .
59(4) . . .
75(4) . . .
60(4) . . .
69(5) . . .
85(5) . . .
80(5) . . .
65(4) . . .
71(4) . . .
73(5) . . .
71(5) . . .
76(5) . . .
85(5) . . .
70(4) . . .
71(5) . . .
75(5) . . .
76(5) . . .
80(5) . . .
77(5) . . .
63(4) . . .
67(5) . . .
63(4) . . .
64(4) . . .
70(5) . . .
68(4) . . .
84(5) . . .
77(5) . . .
80(5) . . .
74(5) . . .
84(5) . . .
76(5) . . .
66(4) . . .
67(4) . . .
72(5) . . .
75(5) . . .
81(5) . . .
73(4) . . .
60(4) . . .
71(5) . . .
63(4) . . .
65(4) . . .
73(4) . . .
80(5) . . .
80(5) . . .
68(4) . . .
68(4) . . .
64(4) . . .
66(5) . . .
59(4) . . .
69(4) . . .
72(4) . . .
65(4) . . .
78(5) . . .
64(4) . . .
60(4) . . .
81(5) . . .
78(5) . . .
80(5) . . .
62(4) . . .
81(5) . . .
77(5) . . .
72(4) . . .
68(4) . . .
95(5) . . .
84(5) . . .
67(4) . . .
75(5) . . .
73(4) . . .
69(5) . . .
77(5) . . .
77(5) . . .
74(4) . . .
87(5) . . .
66(5) . . .
60(4) . . .
81(5) . . .
66(4) . . .
69(4) . . .
76(5) . . .
70(4) . . .
74(4) . . .
73(5) . . .
61(4) . . .
63(4) . . .
81(5) . . .
69(4) . . .
74(5) . . .
72(5) . . .
73(5) . . .
66(4) . . .
76(5) . . .
73(5) . . .
77(5) . . .
77(5) . . .
63(4) . . .
69(4) . . .
65(5) . . .
75(5) . . .
83(5) . . .
72(5) . . .
79(5) . . .
73(5) . . .
74(5) . . .
74(5) . . .
77(5) . . .
70(4) . . .
76(5) . . .
74(5) . . .
82(5) . . .
64(4) . . .
68(4) . . .
65(4) . . .
64(4) . . .
66(4) . . .
80(5) . . .
79(5) . . .
80(5) . . .
72(5) . . .
68(4) . . .
81(5) . . .
64(4) . . .
65(4) . . .
70(5) . . .
65(4) . . .
70(4) . . .
66(4) . . .
68(4) . . .
77(5) . . .
79(5) . . .
84(5) . . .
86(5) . . .
78(5) . . .
81(5) . . .
73(5) . . .
75(5) . . .
64(4) . . .
74(5) . . .
73(5) . . .
75(5) . . .
63(4) . . .
87(5) . . .
75(5) . . .
73(5) . . .
73(5) . . .
68(4) . . .
72(5) . . .
58(4) . . .
61(4) . . .
71(4) . . .
77(5) . . .
77(5) . . .
69(5) . . .
79(5) . . .
68(4) . . .
72(4) . . .
72(5) . . .
66(5) . . .
80(5) . . .
78(5) . . .
55(4) . . .
66(4) . . .
71(5) . . .
65(4) . . .
56(4) . . .
66(4) . . .
67(4) . . .
71(5) . . .
61(4) . . .
62(4) . . .
56(4) . . .
67(4) . . .
68(5) . . .
68(5) . . .
73(4) . . .
74(4) . . .
72(4) . . .
80(5) . . .
79(5) . . .
72(4) . . .
69(4) . . .
80(5) . . .
76(5) . . .
66(4) . . .
65(4) . . .
69(4) . . .
66(4) . . .
67(5) . . .
84(5) . . .
67(4) . . .
60(4) . . .
78(5) . . .
68(4) . . .
68(5) . . .
62(4) . . .
69(4) . . .
72(5) . . .
80(5) . . .
66(4) . . .
82(5) . . .
62(4) . . .
64(4) . . .
77(5) . . .
72(4) . . .
62(4) . . .
73(5) . . .
69(5) . . .
67(4) . . .
71(4) . . .
70(4) . . .
60(4) . . .
70(5) . . .
67(4) . . .
68(4) . . .
88(5) . . .
77(5) . . .
75(5) . . .
69(4) . . .
82(5) . . .
69(4) . . .
73(4) . . .
75(5) . . .
67(4) . . .
72(4) . . .
70(4) . . .
71(4) . . .
67(4) . . .
74(5) . . .
63(4) . . .
71(4) . . .
83(5) . . .
70(5) . . .
75(5) . . .
72(4) . . .
64(4) . . .
72(5) . . .
79(5) . . .
84(5) . . .
81(5) . . .
63(4) . . .
61(4) . . .
76(5) . . .
71(4) . . .
65(4) . . .
74(5) . . .
74(5) . . .
72(5) . . .
69(4) . . .
64(4) . . .
81(5) . . .
82(5) . . .
63(4) . . .
74(4) . . .
79(5) . . .
74(5) . . .
72(5) . . .
65(4) . . .
71(4) . . .
71(4) . . .
69(5) . . .
62(4) . . .
79(5) . . .
78(5) . . .
64(4) . . .
69(5) . . .
72(5) . . .
75(5) . . .
69(4) . . .
74(4) . . .
79(5) . . .
72(5) . . .
81(5) . . .
73(4) . . .
70(4) . . .
70(5) . . .
70(5) . . .
73(5) . . .
67(4) . . .
66(4) . . .
69(5) . . .
68(5) . . .
71(4) . . .
69(4) . . .
56(4) . . .
85(5) . . .
81(5) . . .
78(5) . . .
77(5) . . .
74(4) . . .
73(5) . . .
69(4) . . .
76(5) . . .
69(4) . . .
74(5) . . .
73(5) . . .
69(4) . . .
73(4) . . .
66(4) . . .
81(5) . . .
75(4) . . .
70(4) . . .
64(4) . . .
60(4) . . .
61(4) . . .
75(5) . . .
66(4) . . .
80(5) . . .
77(5) . . .
70(4) . . .
64(4) . . .
67(4) . . .
65(4) . . .
69(4) . . .
69(4) . . .
75(5) . . .
79(5) . . .
74(4) . . .
64(4) . . .
76(5) . . .
83(5) . . .
68(5) . . .
66(4) . . .
78(5) . . .
60(4) . . .
74(5) . . .
69(5) . . .
62(4) . . .
71(4) . . .
73(5) . . .
72(5) . . .
78(5) . . .
80(5) . . .
97(5) . . .
68(4) . . .
77(5) . . .
66(4) . . .
73(4) . . .
76(5) . . .
75(5) . . .
82(5) . . .
81(5) . . .
68(4) . . .
91(5) . . .
78(5) . . .
68(4) . . .
76(5) . . .
71(4) . . .
91(5) . . .
84(5) . . .
78(5) . . .
83(5) . . .
90(5) . . .
85(5) . . .
79(5) . . .
69(4) . . .
66(4) . . .
71(4) . . .
85(5) . . .
66(4) . . .
86(5) . . .
88(5) . . .
78(5) . . .
79(5) . . .
71(5) . . .
70(4) . . .
81(5) . . .
74(4) . . .
68(4) . . .
74(5) . . .
70(4) . . .
66(4) . . .
69(4) . . .
65(4) . . .
70(5) . . .
77(5) . . .
65(4) . . .
75(5) . . .
68(4) . . .
76(5) . . .
82(5) . . .
70(4) . . .
88(5) . . .
80(5) . . .
88(5) . . .
70(4) . . .
76(4) . . .
63(4) . . .
66(4) . . .
61(4) . . .
67(4) . . .
80(5) . . .
69(4) . . .
71(5) . . .
70(5) . . .
79(5) . . .
71(4) . . .
75(5) . . .
80(5) . . .
65(4) . . .
62(4) . . .
73(4) . . .
82(5) . . .
68(5) . . .
65(4) . . .
66(4) . . .
74(5) . . .
61(4) . . .
72(5) . . .
87(5) . . .
73(4) . . .
77(5) . . .
73(5) . . .
66(4) . . .
75(5) . . .
63(4) . . .
72(4) . . .
74(5) . . .
59(4) . . .
72(4) . . .
75(4) . . .
66(4) . . .
59(4) . . .
71(5) . . .
91(5) . . .
59(4) . . .
65(4) . . .
68(5) . . .
77(5) . . .
79(5) . . .
79(5) . . .
78(5) . . .
72(4) . . .
73(5) . . .
72(5) . . .
73(4) . . .
73(5) . . .
72(5) . . .
75(5) . . .
78(5) . . .
76(5) . . .
70(5) . . .
70(5) . . .
70(5) . . .
74(5) . . .
69(4) . . .
79(5) . . .
75(5) . . .
77(5) . . .
78(5) . . .
78(5) . . .
80(5) . . .
85(5) . . .
67(5) . . .
72(4) . . .
74(4) . . .
66(4) . . .
64(4) . . .
62(4) . . .
74(4) . . .
73(4) . . .
75(5) . . .
76(5) . . .
68(4) . . .
70(4) . . .
69(4) . . .
77(5) . . .
78(5) . . .
71(4) . . .
73(4) . . .
81(5) . . .
69(5) . . .
64(4) . . .
67(4) . . .
64(4) . . .
71(4) . . .
63(4) . . .
69(5) . . .
75(5) . . .
73(4) . . .
71(4) . . .
68(4) . . .
79(5) . . .
85(5) . . .
73(4) . . .
82(5) . . .
65(4) . . .
66(4) . . .
67(4) . . .
69(4) . . .
66(4) . . .
75(5) . . .
73(5) . . .
65(4) . . .
83(5) . . .
74(5) . . .
68(4) . . .
59(4) . . .
65(4) . . .
70(4) . . .
66(4) . . .
70(5) . . .
64(4) . . .
70(4) . . .
79(5) . . .
55(4) . . .
68(5) . . .
84(5) . . .
71(4) . . .
76(5) . . .
68(4) . . .
83(5) . . .
69(4) . . .
67(4) . . .
74(4) . . .
73(4) . . .
72(5) . . .
72(5) . . .
79(5) . . .
59(4) . . .
71(5) . . .
79(5) . . .
61(4) . . .
61(4) . . .
64(4) . . .
65(4) . . .
73(5) . . .
82(5) . . .
68(4) . . .
74(5) . . .
65(4) . . .
77(5) . . .
82(5) . . .
79(5) . . .
75(5) . . .
84(5) . . .
77(5) . . .
74(5) . . .
79(5) . . .
67(4) . . .
68(4) . . .
83(5) . . .
76(5) . . .
69(4) . . .
89(5) . . .
83(5) . . .
73(4) . . .
66(4) . . .
64(4) . . .
69(5) . . .
73(4) . . .
70(4) . . .
76(5) . . .
73(4) . . .
67(5) . . .
64(4) . . .
68(4) . . .
72(5) . . .
77(5) . . .
79(5) . . .
83(5) . . .
79(5) . . .
74(4) . . .
75(4) . . .
82(5) . . .
77(5) . . .
77(5) . . .
67(4) . . .
87(5) . . .
72(5) . . .
81(5) . . .
78(5) . . .
78(5) . . .
72(4) . . .
71(4) . . .
77(5) . . .
74(5) . . .
78(5) . . .
79(5) . . .
83(5) . . .
73(5) . . .
66(5) . . .
66(4) . . .
77(5) . . .
77(5) . . .
59(4) . . .
54(4) . . .
61(4) . . .
72(4) . . .
69(4) . . .
75(5) . . .
63(4) . . .
70(4) . . .
65(4) . . .
70(5) . . .
80(5) . . .
71(4) . . .
70(4) . . .
79(5) . . .
62(4) . . .
66(4) . . .
63(4) . . .
63(4) . . .
57(4) . . .
61(4) . . .
68(4) . . .
66(4) . . .
76(5) . . .
55(4) . . .
75(5) . . .
71(4) . . .
83(5) . . .
80(5) . . .
72(5) . . .
77(5) . . .
68(4) . . .
69(4) . . .
61(4) . . .
70(4) . . .
71(5) . . .
76(5) . . .
85(5) . . .
73(5) . . .
62(4) . . .
65(5) . . .
66(4) . . .
73(4) . . .
61(4) . . .
70(5) . . .
66(4) . . .
65(5) . . .
64(4) . . .
58(4) . . .
66(4) . . .
66(4) . . .
68(4) . . .
54(4) . . .
64(4) . . .
57(4) . . .
63(4) . . .
65(4) . . .
81(5) . . .
83(5) . . .
71(4) . . .
80(5) . . .
58(4) . . .
71(4) . . .
73(5) . . .
73(5) . . .
73(4) . . .
63(4) . . .
70(4) . . .
63(4) . . .
65(4) . . .
67(4) . . .
58(4) . . .
66(4) . . .
71(4) . . .
74(5) . . .
71(5) . . .
70(4) . . .
62(4) . . .
77(5) . . .
67(5) . . .
62(4) . . .
69(4) . . .
68(4) . . .
67(4) . . .
72(5) . . .
75(5) . . .
67(4) . . .
80(5) . . .
75(5) . . .
65(4) . . .
75(5) . . .
61(4) . . .
59(4) . . .
79(5) . . .
59(4) . . .
63(4) . . .
75(4) . . .
73(5) . . .
61(4) . . .
72(5) . . .
70(5) . . .
77(5) . . .
63(4) . . .
59(4) . . .
66(4) . . .
65(4) . . .
53(4) . . .
68(5) . . .
70(5) . . .
69(4) . . .
77(5) . . .
59(4) . . .
73(4) . . .
68(4) . . .
63(4) . . .
64(4) . . .
63(4) . . .
60(4) . . .
66(4) . . .
76(5) . . .
81(5) . . .
76(5) . . .
78(5) . . .
64(4) . . .
66(4) . . .
69(4) . . .
62(4) . . .
68(4) . . .
70(5) . . .
69(5) . . .
64(4) . . .
77(5) . . .
71(4) . . .
65(5) . . .
74(5) . . .
62(4) . . .
63(4) . . .
65(4) . . .
71(5) . . .
76(5) . . .
70(4) . . .
63(4) . . .
69(4) . . .
69(5) . . .
66(4) . . .
71(4) . . .
71(4) . . .
63(4) . . .
67(4) . . .
74(5) . . .
78(5) . . .
73(5) . . .
67(4) . . .
62(4) . . .
70(5) . . .
85(5) . . .
68(4) . . .
75(5) . . .
69(5) . . .
74(5) . . .
73(4) . . .
74(5) . . .
69(5) . . .
63(4) . . .
69(4) . . .
68(4) . . .
58(4) . . .
63(4) . . .
61(4) . . .
60(4) . . .
69(4) . . .
65(5) . . .
71(4) . . .
76(5) . . .
60(4) . . .
74(5) . . .
65(4) . . .
76(5) . . .
70(5) . . .
69(4) . . .
64(4) . . .
74(5) . . .
69(5) . . .
71(5) . . .
66(4) . . .
74(5) . . .
66(4) . . .
73(5) . . .
75(5) . . .
69(4) . . .
64(4) . . .
78(5) . . .
64(4) . . .
63(4) . . .
66(4) . . .
78(5) . . .
74(5) . . .
69(5) . . .
69(4) . . .
65(4) . . .
64(4) . . .
67(4) . . .
72(5) . . .
63(4) . . .
60(4) . . .
65(4) . . .
72(5) . . .
59(4) . . .
68(5) . . .
71(4) . . .
81(5) . . .
67(4) . . .
64(4) . . .
63(4) . . .
68(4) . . .
61(4) . . .
67(5) . . .
70(5) . . .
72(4) . . .
79(5) . . .
68(4) . . .
69(4) . . .
55(4) . . .
66(4) . . .
66(4) . . .
68(4) . . .
78(5) . . .
69(4) . . .
69(4) . . .
72(4) . . .
68(4) . . .
68(5) . . .
70(4) . . .
72(4) . . .
54(4) . . .
61(4) . . .
66(5) . . .
64(4) . . .
66(4) . . .
70(4) . . .
70(5) . . .
65(4) . . .
66(4) . . .
70(4) . . .
69(4) . . .
66(4) . . .
68(5) . . .
77(5) . . .
78(5) . . .
61(4) . . .
65(4) . . .
62(4) . . .
68(4) . . .
70(4) . . .
66(4) . . .
60(4) . . .
68(4) . . .
66(4) . . .
71(4) . . .
75(5) . . .
75(5) . . .
74(5) . . .
70(5) . . .
64(4) . . .
76(5) . . .
68(4) . . .
83(5) . . .
71(5) . . .
74(4) . . .
68(4) . . .
71(5) . . .
77(5) . . .
83(5) . . .
71(4) . . .
78(5) . . .
72(5) . . .
72(5) . . .
62(4) . . .
79(5) . . .
69(4) . . .
69(5) . . .
68(4) . . .
82(5) . . .
73(4) . . .
67(4) . . .
76(5) . . .
63(4) . . .
74(4) . . .
72(4) . . .
74(5) . . .
73(5) . . .
73(5) . . .
71(4) . . .
75(5) . . .
61(4) . . .
68(5) . . .
70(4) . . .
67(4) . . .
68(5) . . .
63(4) . . .
74(5) . . .
62(4) . . .
76(5) . . .
79(5) . . .
72(4) . . .
77(5) . . .
76(5) . . .
69(4) . . .
64(4) . . .
80(5) . . .
71(4) . . .
78(5) . . .
75(5) . . .
74(5) . . .
72(4) . . .
72(4) . . .
78(5) . . .
75(5) . . .
76(5) . . .
73(5) . . .
66(4) . . .
77(5) . . .
70(5) . . .
71(4) . . .
69(4) . . .
84(5) . . .
73(4) . . .
80(5) . . .
69(4) . . .
65(4) . . .
73(4) . . .
69(4) . . .
69(5) . . .
72(5) . . .
69(4) . . .
66(4) . . .
78(5) . . .
77(5) . . .
74(4) . . .
83(5) . . .
89(5) . . .
79(5) . . .
78(5) . . .
79(5) . . .
67(4) . . .
64(4) . . .
65(4) . . .
63(5) . . .
64(4) . . .
64(4) . . .
76(5) . . .
72(5) . . .
73(5) . . .
62(4) . . .
57(4) . . .
66(4) . . .
70(5) . . .
69(4) . . .
81(5) . . .
63(4) . . .
67(4) . . .
61(4) . . .
75(5) . . .
66(4) . . .
65(4) . . .
79(5) . . .
64(4) . . .
72(5) . . .
65(4) . . .
59(4) . . .
65(4) . . .
75(5) . . .
71(5) . . .
66(4) . . .
70(4) . . .
71(4) . . .
66(4) . . .
57(4) . . .
70(5) . . .
67(4) . . .
75(5) . . .
69(4) . . .
75(5) . . .
66(4) . . .
71(4) . . .
71(5) . . .
61(4) . . .
71(5) . . .
64(4) . . .
68(4) . . .
70(4) . . .
68(5) . . .
65(4) . . .
71(4) . . .
55(4) . . .
69(4) . . .
81(5) . . .
61(4) . . .
73(4) . . .
71(5) . . .
71(5) . . .
68(4) . . .
67(4) . . .
75(4) . . .
67(4) . . .
67(4) . . .
71(5) . . .
75(5) . . .
69(4) . . .
78(5) . . .
62(4) . . .
60(4) . . .
69(4) . . .
73(4) . . .
73(5) . . .
74(5) . . .
57(4) . . .
66(4) . . .
72(4) . . .
66(4) . . .
83(5) . . .
63(4) . . .
60(4) . . .
67(4) . . .
63(4) . . .
80(5) . . .
71(4) . . .
70(5) . . .
75(5) . . .
69(4) . . .
51(4) . . .
72(5) . . .
73(4) . . .
75(4) . . .
69(4) . . .
72(5) . . .
69(5) . . .
72(4) . . .
70(4) . . .
71(5) . . .
68(5) . . .
65(4) . . .
79(5) . . .
66(4) . . .
77(5) . . .
69(4) . . .
77(5) . . .
69(4) . . .
68(4) . . .
63(4) . . .
63(4) . . .
65(4) . . .
64(4) . . .
55(4) . . .
70(5) . . .
72(5) . . .
69(4) . . .
71(4) . . .
68(4) . . .
64(4) . . .
65(4) . . .
65(4) . . .
69(4) . . .
72(5) . . .
60(4) . . .
80(5) . . .
68(4) . . .
62(4) . . .
68(5) . . .
83(5) . . .
68(4) . . .
72(5) . . .
72(4) . . .
70(5) . . .
75(5) . . .
76(5) . . .
69(4) . . .
74(4) . . .
76(5) . . .
77(5) . . .
66(4) . . .
62(4) . . .
72(4) . . .
56(4) . . .
69(5) . . .
68(4) . . .
66(4) . . .
62(4) . . .
55(4) . . .
68(5) . . .
66(4) . . .
67(4) . . .
68(4) . . .
62(4) . . .
83(5) . . .
64(4) . . .
74(4) . . .
79(5) . . .
70(4) . . .
68(5) . . .
70(4) . . .
77(5) . . .
61(4) . . .
66(4) . . .
69(5) . . .
73(5) . . .
63(4) . . .
66(4) . . .
69(4) . . .
76(5) . . .
66(4) . . .
64(4) . . .
74(5) . . .
69(4) . . .
71(5) . . .
67(4) . . .
74(5) . . .
55(4) . . .
62(4) . . .
74(5) . . .
74(5) . . .
69(4) . . .
66(4) . . .
70(5) . . .
70(5) . . .
71(5) . . .
69(4) . . .
55(4) . . .
69(5) . . .
75(5) . . .
78(5) . . .
73(4) . . .
75(4) . . .
76(5) . . .
78(5) . . .
76(5) . . .
57(4) . . .
56(4) . . .
69(5) . . .
77(5) . . .
70(4) . . .
69(4) . . .
64(4) . . .
59(4) . . .
70(4) . . .
70(4) . . .
66(4) . . .
64(4) . . .
71(5) . . .
64(4) . . .
66(4) . . .
67(4) . . .
76(5) . . .
61(4) . . .
59(4) . . .
72(4) . . .
70(4) . . .
71(4) . . .
76(5) . . .
66(4) . . .
62(4) . . .
63(4) . . .
52(4) . . .
59(4) . . .
55(4) . . .
74(4) . . .
78(5) . . .
70(4) . . .
69(5) . . .
68(4) . . .
65(4) . . .
56(4) . . .
67(4) . . .
61(4) . . .
69(4) . . .
62(4) . . .
75(5) . . .
72(5) . . .
79(5) . . .
68(4) . . .
65(4) . . .
57(4) . . .
71(5) . . .
59(4) . . .
77(5) . . .
62(4) . . .
62(4) . . .
65(5) . . .
62(4) . . .
85(5) . . .
66(4) . . .
69(4) . . .
67(4) . . .
65(4) . . .
67(4) . . .
68(4) . . .
62(4) . . .
88(5) . . .
71(4) . . .
73(4) . . .
80(5) . . .
71(5) . . .
71(5) . . .
88(5) . . .
70(4) . . .
49(4) . . .
66(4) . . .
63(4) . . .
56(4) . . .
67(4) . . .
66(4) . . .
69(4) . . .
75(5) . . .
66(4) . . .
64(4) . . .
66(5) . . .
62(4) . . .
58(4) . . .
61(4) . . .
63(4) . . .
69(4) . . .
75(5) . . .
78(5) . . .
71(4) . . .
59(4) . . .
60(4) . . .
64(4) . . .
62(4) . . .
56(4) . . .
72(4) . . .
80(5) . . .
72(5) . . .
63(4) . . .
70(4) . . .
69(4) . . .
71(5) . . .
78(5) . . .
61(4) . . .
75(5) . . .
59(4) . . .
60(4) . . .
60(4) . . .
73(5) . . .
57(4) . . .
67(4) . . .
67(4) . . .
58(4) . . .
64(4) . . .
71(4) . . .
67(4) . . .
79(5) . . .
70(4) . . .
80(5) . . .
65(4) . . .
61(4) . . .
63(4) . . .
67(5) . . .
57(4) . . .
72(4) . . .
85(5) . . .
76(5) . . .
74(5) . . .
68(4) . . .
70(4) . . .
80(5) . . .
77(5) . . .
62(4) . . .
59(4) . . .
64(4) . . .
69(4) . . .
70(5) . . .
62(4) . . .
76(5) . . .
77(5) . . .
73(5) . . .
72(5) . . .
69(4) . . .
74(5) . . .
67(4) . . .
64(4) . . .
76(5) . . .
69(4) . . .
67(4) . . .
64(4) . . .
67(4) . . .
75(5) . . .
71(5) . . .
73(4) . . .
75(5) . . .
70(4) . . .
67(4) . . .
76(5) . . .
65(4) . . .
69(4) . . .
67(5) . . .
76(5) . . .
72(4) . . .
75(4) . . .
69(4) . . .
70(5) . . .
63(4) . . .
68(5) . . .
78(5) . . .
65(4) . . .
64(4) . . .
67(4) . . .
62(4) . . .
67(4) . . .
68(4) . . .
70(5) . . .
69(4) . . .
71(4) . . .
58(4) . . .
76(5) . . .
73(5) . . .
81(5) . . .
69(4) . . .
79(5) . . .
59(4) . . .
79(5) . . .
60(4) . . .
63(4) . . .
61(4) . . .
74(5) . . .
67(4) . . .
73(5) . . .
80(5) . . .
76(5) . . .
63(4) . . .
67(5) . . .
79(5) . . .
69(4) . . .
78(5) . . .
67(4) . . .
76(5) . . .
59(4) . . .
67(4) . . .
69(4) . . .
76(5) . . .
71(5) . . .
72(4) . . .
73(4) . . .
69(5) . . .
78(5) . . .
66(4) . . .
62(4) . . .
77(5) . . .
65(4) . . .
68(4) . . .
74(5) . . .
70(4) . . .
65(4) . . .
56(4) . . .
70(4) . . .
68(4) . . .
68(5) . . .
55(4) . . .
75(5) . . .
60(4) . . .
61(4) . . .
74(5) . . .
67(4) . . .
76(5) . . .
65(4) . . .
56(4) . . .
74(5) . . .
64(4) . . .
72(4) . . .
77(5) . . .
75(5) . . .
72(4) . . .
69(4) . . .
76(5) . . .
70(5) . . .
64(4) . . .
76(5) . . .
73(4) . . .
65(4) . . .
65(4) . . .
70(4) . . .
71(4) . . .
70(4) . . .
67(4) . . .
72(5) . . .
69(4) . . .
72(4) . . .
57(4) . . .
63(4) . . .
69(5) . . .
68(5) . . .
78(5) . . .
63(4) . . .
69(4) . . .
66(4) . . .
66(4) . . .
73(4) . . .
65(4) . . .
63(4) . . .
55(4) . . .
69(5) . . .
70(4) . . .
65(4) . . .
68(4) . . .
76(5) . . .
76(5) . . .
59(4) . . .
61(4) . . .
53(4) . . .
79(5) . . .
66(4) . . .
73(4) . . .
63(4) . . .
74(5) . . .
68(4) . . .
67(4) . . .
68(4) . . .
73(5) . . .
74(5) . . .
67(4) . . .
64(4) . . .
67(4) . . .
65(4) . . .
64(4) . . .
65(5) . . .
57(4) . . .
64(4) . . .
64(5) . . .
71(5) . . .
71(5) . . .
68(4) . . .
86(5) . . .
70(5) . . .
70(5) . . .
68(4) . . .
69(4) . . .
67(4) . . .
68(5) . . .
59(4) . . .
63(4) . . .
70(4) . . .
70(4) . . .
63(4) . . .
62(4) . . .
57(4) . . .
61(4) . . .
73(4) . . .
83(5) . . .
57(4) . . .
63(4) . . .
68(4) . . .
65(4) . . .
73(5) . . .
78(5) . . .
72(5) . . .
56(4) . . .
62(4) . . .
73(5) . . .
70(5) . . .
56(4) . . .
59(4) . . .
64(4) . . .
68(4) . . .
66(4) . . .
70(4) . . .
67(4) . . .
53(4) . . .
65(5) . . .
62(4) . . .
62(4) . . .
62(4) . . .
62(4) . . .
64(4) . . .
64(4) . . .
60(4) . . .
57(4) . . .
70(5) . . .
67(4) . . .
72(5) . . .
70(4) . . .
67(4) . . .
66(4) . . .
62(4) . . .
81(5) . . .
70(4) . . .
75(5) . . .
79(5) . . .
73(5) . . .
63(4) . . .
59(4) . . .
74(4) . . .
67(4) . . .
69(5) . . .
69(5) . . .
64(4) . . .
50(4) . . .
65(4) . . .
78(5) . . .
61(4) . . .
64(4) . . .
67(4) . . .
64(4) . . .
63(4) . . .
65(4) . . .
61(4) . . .
64(4) . . .
65(4) . . .
59(4) . . .
65(4) . . .
68(4) . . .
73(5) . . .
75(5) . . .
74(5) . . .
70(4) . . .
75(4) . . .
69(4) . . .
77(5) . . .
66(4) . . .
73(4) . . .
72(4) . . .
71(4) . . .
75(5) . . .
69(5) . . .
57(4) . . .
65(4) . . .
66(4) . . .
60(4) . . .
63(4) . . .
61(4) . . .
77(5) . . .
63(4) . . .
58(4) . . .
64(4) . . .
72(4) . . .
66(4) . . .
68(5) . . .
72(5) . . .
61(4) . . .
71(4) . . .
54(4) . . .
68(4) . . .
60(4) . . .
69(5) . . .
60(4) . . .
74(4) . . .
69(4) . . .
63(4) . . .
60(4) . . .
72(4) . . .
71(4) . . .
68(5) . . .
62(5) . . .
66(5) . . .
71(4) . . .
75(5) . . .
60(4) . . .
69(5) . . .
70(5) . . .
71(4) . . .
73(4) . . .
77(5) . . .
68(4) . . .
65(4) . . .
55(4) . . .
65(4) . . .
69(5) . . .
67(4) . . .
79(5) . . .
65(4) . . .
75(5) . . .
75(5) . . .
60(4) . . .
57(4) . . .
56(4) . . .
62(4) . . .
72(5) . . .
77(5) . . .
70(4) . . .
61(4) . . .
81(5) . . .
67(5) . . .
61(4) . . .
70(4) . . .
62(4) . . .
74(5) . . .
82(5) . . .
73(5) . . .
59(4) . . .
60(4) . . .
77(5) . . .
70(5) . . .
64(4) . . .
74(4) . . .
74(4) . . .
73(4) . . .
66(4) . . .
52(4) . . .
60(4) . . .
56(4) . . .
61(4) . . .
56(4) . . .
66(4) . . .
60(4) . . .
60(4) . . .
61(4) . . .
64(4) . . .
63(4) . . .
62(4) . . .
69(4) . . .
77(5) . . .
81(5) . . .
72(5) . . .
67(4) . . .
71(4) . . .
65(4) . . .
70(5) . . .
72(5) . . .
63(4) . . .
67(4) . . .
69(5) . . .
65(5) . . .
61(4) . . .
77(5) . . .
72(5) . . .
76(5) . . .
66(4) . . .
71(4) . . .
75(5) . . .
72(5) . . .
69(4) . . .
63(4) . . .
68(4) . . .
71(4) . . .
64(4) . . .
60(4) . . .
72(4) . . .
78(5) . . .
76(4) . . .
64(4) . . .
64(4) . . .
67(4) . . .
67(4) . . .
52(4) . . .
64(4) . . .
63(4) . . .
63(4) . . .
63(4) . . .
52(4) . . .
65(5) . . .
77(5) . . .
61(4) . . .
59(4) . . .
74(4) . . .
65(4) . . .
56(4) . . .
67(5) . . .
60(4) . . .
64(4) . . .
63(4) . . .
66(4) . . .
65(4) . . .
63(4) . . .
58(4) . . .
69(4) . . .
67(4) . . .
70(5) . . .
61(4) . . .
67(4) . . .
62(4) . . .
79(5) . . .
67(4) . . .
69(4) . . .
77(5) . . .
78(5) . . .
52(4) . . .
67(4) . . .
64(4) . . .
69(4) . . .
71(4) . . .
67(4) . . .
76(5) . . .
63(4) . . .
54(4) . . .
62(4) . . .
70(5) . . .
62(4) . . .
68(4) . . .
68(4) . . .
66(5) . . .
53(4) . . .
75(5) . . .
68(4) . . .
68(4) . . .
70(5) . . .
72(5) . . .
60(4) . . .
74(5) . . .
70(4) . . .
65(4) . . .
62(4) . . .
66(4) . . .
62(4) . . .
67(5) . . .
69(5) . . .
69(5) . . .
66(4) . . .
73(4) . . .
74(5) . . .
58(4) . . .
73(5) . . .
70(4) . . .
71(5) . . .
76(5) . . .
57(4) . . .
71(5) . . .
63(4) . . .
63(4) . . .
59(4) . . .
55(4) . . .
70(4) . . .
72(4) . . .
79(5) . . .
66(4) . . .
76(5) . . .
70(4) . . .
65(4) . . .
61(4) . . .
61(4) . . .
67(4) . . .
71(4) . . .
68(4) . . .
74(5) . . .
66(4) . . .
66(4) . . .
74(5) . . .
53(4) . . .
65(4) . . .
59(4) . . .
69(4) . . .
67(4) . . .
69(4) . . .
59(4) . . .
67(5) . . .
79(5) . . .
78(5) . . .
62(4) . . .
73(5) . . .
76(5) . . .
66(4) . . .
61(4) . . .
67(4) . . .
66(4) . . .
60(4) . . .
62(4) . . .
69(4) . . .
70(4) . . .
63(4) . . .
62(4) . . .
59(4) . . .
58(4) . . .
64(4) . . .
61(4) . . .
61(4) . . .
59(4) . . .
62(4) . . .
66(4) . . .
73(5) . . .
61(4) . . .
59(4) . . .
70(4) . . .
66(4) . . .
69(5) . . .
70(4) . . .
67(4) . . .
60(4) . . .
54(4) . . .
65(4) . . .
68(4) . . .
65(4) . . .
61(4) . . .
63(4) . . .
70(4) . . .
59(4) . . .
66(4) . . .
60(4) . . .
68(4) . . .
69(5) . . .
58(4) . . .
58(4) . . .
58(4) . . .
69(4) . . .
61(4) . . .
59(4) . . .
59(4) . . .
62(4) . . .
71(5) . . .
62(4) . . .
67(5) . . .
59(4) . . .
61(4) . . .
54(4) . . .
61(4) . . .
54(4) . . .
65(4) . . .
55(4) . . .
60(4) . . .
69(5) . . .
63(4) . . .
63(4) . . .
56(4) . . .
57(4) . . .
66(4) . . .
71(5) . . .
69(4) . . .
63(4) . . .
66(4) . . .
55(4) . . .
62(4) . . .
55(4) . . .
69(4) . . .
64(4) . . .
77(5) . . .
58(4) . . .
53(4) . . .
66(4) . . .
70(5) . . .
54(4) . . .
73(5) . . .
64(4) . . .
66(4) . . .
64(4) . . .
71(5) . . .
57(4) . . .
65(4) . . .
68(4) . . .
64(4) . . .
57(4) . . .
65(4) . . .
67(4) . . .
73(5) . . .
65(5) . . .
75(5) . . .
70(4) . . .
67(4) . . .
73(5) . . .
67(5) . . .
54(4) . . .
72(4) . . .
60(4) . . .
65(4) . . .
70(5) . . .
57(4) . . .
67(4) . . .
71(4) . . .
65(4) . . .
65(4) . . .
72(5) . . .
61(4) . . .
64(4) . . .
62(5) . . .
71(5) . . .
73(5) . . .
69(4) . . .
72(4) . . .
79(5) . . .
65(4) . . .
66(4) . . .
63(4) . . .
74(5) . . .
59(4) . . .
57(4) . . .
79(5) . . .
75(5) . . .
73(5) . . .
70(4) . . .
65(4) . . .
73(4) . . .
60(4) . . .
64(4) . . .
63(4) . . .
67(5) . . .
61(4) . . .
73(5) . . .
59(4) . . .
59(4) . . .
67(5) . . .
58(4) . . .
54(4) . . .
63(4) . . .
66(5) . . .
53(4) . . .
56(4) . . .
67(4) . . .
66(4) . . .
61(4) . . .
63(4) . . .
65(4) . . .
64(4) . . .
66(4) . . .
68(4) . . .
62(4) . . .
61(4) . . .
62(4) . . .
67(4) . . .
69(4) . . .
62(4) . . .
69(4) . . .
64(4) . . .
69(5) . . .
69(5) . . .
70(5) . . .
56(4) . . .
67(4) . . .
68(4) . . .
56(4) . . .
55(4) . . .
60(4) . . .
68(4) . . .
57(4) . . .
72(5) . . .
64(4) . . .
82(5) . . .
70(4) . . .
58(4) . . .
55(4) . . .
58(4) . . .
66(4) . . .
73(5) . . .
64(4) . . .
60(4) . . .
69(4) . . .
64(4) . . .
58(4) . . .
64(4) . . .
55(4) . . .
64(4) . . .
64(4) . . .
73(4) . . .
62(4) . . .
60(4) . . .
58(4) . . .
61(4) . . .
80(5) . . .
71(5) . . .
69(4) . . .
60(4) . . .
52(4) . . .
63(4) . . .
73(5) . . .
54(4) . . .
65(4) . . .
59(4) . . .
69(5) . . .
79(5) . . .
62(4) . . .
68(4) . . .
63(4) . . .
61(4) . . .
67(5) . . .
70(5) . . .
68(4) . . .
58(4) . . .
56(4) . . .
63(4) . . .
60(4) . . .
59(4) . . .
62(4) . . .
57(4) . . .
61(4) . . .
77(5) . . .
66(4) . . .
69(4) . . .
71(4) . . .
69(4) . . .
62(4) . . .
61(4) . . .
65(4) . . .
64(4) . . .
68(4) . . .
64(4) . . .
50(4) . . .
63(4) . . .
57(4) . . .
53(4) . . .
71(5) . . .
69(4) . . .
64(4) . . .
55(4) . . .
67(5) . . .
72(4) . . .
64(4) . . .
57(4) . . .
63(4) . . .
75(5) . . .
72(4) . . .
56(4) . . .
59(4) . . .
73(5) . . .
59(4) . . .
54(4) . . .
66(4) . . .
78(5) . . .
67(4) . . .
64(4) . . .
65(4) . . .
64(4) . . .
62(4) . . .
60(4) . . .
69(4) . . .
73(4) . . .
55(4) . . .
56(4) . . .
58(4) . . .
60(4) . . .
69(4) . . .
61(4) . . .
67(4) . . .
60(4) . . .
70(5) . . .
61(4) . . .
72(5) . . .
69(5) . . .
57(4) . . .
71(5) . . .
65(4) . . .
53(4) . . .
61(4) . . .
63(4) . . .
74(5) . . .
75(5) . . .
70(4) . . .
58(4) . . .
60(4) . . .
61(4) . . .
66(4) . . .
65(4) . . .
62(4) . . .
69(4) . . .
61(4) . . .
55(4) . . .
60(4) . . .
55(4) . . .
71(5) . . .
65(4) . . .
53(4) . . .
70(4) . . .
75(5) . . .
66(4) . . .
59(4) . . .
59(4) . . .
68(5) . . .
66(4) . . .
59(4) . . .
56(4) . . .
64(4) . . .
56(4) . . .
71(5) . . .
61(4) . . .
60(4) . . .
62(4) . . .
63(4) . . .
59(4) . . .
65(4) . . .
62(4) . . .
62(4) . . .
59(4) . . .
73(5) . . .
68(4) . . .
54(4) . . .
58(4) . . .
68(5) . . .
74(5) . . .
72(4) . . .
78(5) . . .
63(4) . . .
56(4) . . .
58(4) . . .
60(4) . . .
66(4) . . .
60(4) . . .
55(4) . . .
64(4) . . .
67(4) . . .
65(4) . . .
66(5) . . .
73(5) . . .
69(4) . . .
66(4) . . .
61(4) . . .
68(5) . . .
69(5) . . .
67(4) . . .
71(4) . . .
74(4) . . .
70(4) . . .
67(5) . . .
64(4) . . .
63(4) . . .
66(4) . . .
60(4) . . .
66(5) . . .
57(4) . . .
58(4) . . .
63(4) . . .
67(5) . . .
62(4) . . .
60(4) . . .
65(4) . . .
62(4) . . .
63(4) . . .
66(5) . . .
59(4) . . .
54(4) . . .
57(4) . . .
64(4) . . .
67(4) . . .
63(4) . . .
70(4) . . .
57(4) . . .
59(4) . . .
73(5) . . .
69(4) . . .
68(4) . . .
66(4) . . .
69(5) . . .
70(5) . . .
63(4) . . .
60(4) . . .
66(4) . . .
59(4) . . .
65(4) . . .
67(4) . . .
64(4) . . .
64(4) . . .
60(4) . . .
63(4) . . .
57(4) . . .
55(4) . . .
64(5) . . .
59(4) . . .
69(5) . . .
68(4) . . .
69(4) . . .
54(4) . . .
54(4) . . .
52(4) . . .
64(4) . . .
66(4) . . .
57(4) . . .
63(4) . . .
67(4) . . .
70(4) . . .
67(4) . . .
73(5) . . .
61(4) . . .
65(4) . . .
63(4) . . .
63(4) . . .
54(4) . . .
48(4) . . .
59(4) . . .
71(4) . . .
54(4) . . .
61(4) . . .
59(4) . . .
62(4) . . .
62(4) . . .
62(4) . . .
62(4) . . .
65(4) . . .
53(4) . . .
58(4) . . .
67(4) . . .
63(4) . . .
73(5) . . .
53(4) . . .
58(4) . . .
62(4) . . .
62(4) . . .
68(4) . . .
66(4) . . .
66(4) . . .
57(4) . . .
61(5) . . .
64(4) . . .
60(4) . . .
58(4) . . .
68(4) . . .
63(4) . . .
60(4) . . .
60(4) . . .
55(4) . . .
65(4) . . .
60(4) . . .
57(4) . . .
63(4) . . .
59(4) . . .
66(4) . . .
69(5) . . .
49(4) . . .
62(4) . . .
56(4) . . .
67(4) . . .
63(4) . . .
62(4) . . .
67(4) . . .
57(4) . . .
62(4) . . .
62(4) . . .
63(4) . . .
66(4) . . .
50(4) . . .
69(5) . . .
63(4) . . .
65(4) . . .
54(4) . . .
58(4) . . .
65(4) . . .
67(5) . . .
59(4) . . .
48(4) . . .
50(4) . . .
68(4) . . .
66(4) . . .
64(4) . . .
58(4) . . .
58(4) . . .
70(5) . . .
66(4) . . .
64(4) . . .
69(4) . . .
61(4) . . .
61(4) . . .
68(5) . . .
60(4) . . .
60(4) . . .
55(4) . . .
64(4) . . .
63(4) . . .
65(4) . . .
62(4) . . .
68(4) . . .
63(4) . . .
61(4) . . .
53(4) . . .
70(4) . . .
63(4) . . .
68(5) . . .
61(4) . . .
70(4) . . .
70(4) . . .
70(4) . . .
65(4) . . .
66(4) . . .
64(4) . . .
65(4) . . .
62(4) . . .
62(4) . . .
67(4) . . .
82(5) . . .
62(4) . . .
65(4) . . .
58(4) . . .
63(4) . . .
67(4) . . .
57(4) . . .
72(5) . . .
75(5) . . .
59(4) . . .
65(4) . . .
64(4) . . .
70(5) . . .
71(5) . . .
59(4) . . .
66(4) . . .
64(4) . . .
54(4) . . .
66(5) . . .
73(5) . . .
62(4) . . .
75(5) . . .
71(5) . . .
65(4) . . .
64(4) . . .
64(4) . . .
60(4) . . .
65(4) . . .
63(4) . . .
51(4) . . .
65(4) . . .
66(4) . . .
65(4) . . .
55(4) . . .
57(4) . . .
57(4) . . .
66(4) . . .
65(4) . . .
58(4) . . .
63(4) . . .
66(4) . . .
54(4) . . .
58(4) . . .
54(4) . . .
65(4) . . .
67(4) . . .
72(5) . . .
52(4) . . .
61(4) . . .
57(4) . . .
63(4) . . .
62(4) . . .
57(4) . . .
48(4) . . .
65(4) . . .
56(4) . . .
61(4) . . .
55(4) . . .
62(4) . . .
68(4) . . .
65(4) . . .
55(4) . . .
62(4) . . .
67(4) . . .
63(4) . . .
70(5) . . .
68(4) . . .
64(4) . . .
65(4) . . .
58(4) . . .
73(5) . . .
58(4) . . .
57(4) . . .
64(4) . . .
67(4) . . .
66(4) . . .
67(5) . . .
60(4) . . .
55(4) . . .
67(4) . . .
61(4) . . .
72(5) . . .
65(4) . . .
61(4) . . .
64(4) . . .
59(4) . . .
70(5) . . .
64(4) . . .
52(4) . . .
68(4) . . .
67(4) . . .
72(5) . . .
64(4) . . .
63(4) . . .
54(4) . . .
52(4) . . .
55(4) . . .
60(4) . . .
67(4) . . .
56(4) . . .
61(4) . . .
65(5) . . .
63(4) . . .
60(4) . . .
58(4) . . .
52(4) . . .
54(4) . . .
64(4) . . .
63(4) . . .
60(4) . . .
69(4) . . .
69(4) . . .
65(4) . . .
47(4) . . .
58(4) . . .
57(4) . . .
68(4) . . .
64(4) . . .
49(4) . . .
56(4) . . .
57(4) . . .
61(4) . . .
62(4) . . .
63(4) . . .
68(5) . . .
56(4) . . .
61(4) . . .
72(4) . . .
60(4) . . .
64(4) . . .
67(5) . . .
62(4) . . .
60(4) . . .
61(4) . . .
62(4) . . .
57(4) . . .
60(4) . . .
65(4) . . .
65(4) . . .
62(4) . . .
51(4) . . .
73(5) . . .
70(4) . . .
53(4) . . .
65(4) . . .
53(4) . . .
63(4) . . .
69(4) . . .
68(4) . . .
62(4) . . .
72(5) . . .
69(5) . . .
49(4) . . .
65(4) . . .
62(4) . . .
63(5) . . .
59(4) . . .
70(4) . . .
55(4) . . .
57(4) . . .
60(4) . . .
58(4) . . .
56(4) . . .
54(4) . . .
60(4) . . .
68(5) . . .
60(4) . . .
64(4) . . .
58(4) . . .
69(5) . . .
58(4) . . .
68(4) . . .
54(4) . . .
56(4) . . .
62(4) . . .
52(4) . . .
53(4) . . .
61(4) . . .
63(4) . . .
59(4) . . .
75(5) . . .
67(4) . . .
57(4) . . .
52(4) . . .
62(4) . . .
66(4) . . .
63(4) . . .
61(4) . . .
58(4) . . .
58(4) . . .
65(4) . . .
59(4) . . .
67(4) . . .
70(4) . . .
66(4) . . .
66(4) . . .
61(4) . . .
72(4) . . .
74(5) . . .
71(5) . . .
69(4) . . .
68(4) . . .
58(4) . . .
51(4) . . .
66(5) . . .
54(4) . . .
59(4) . . .
73(5) . . .
62(4) . . .
64(4) . . .
61(4) . . .
56(4) . . .
59(4) . . .
59(4) . . .
78(5) . . .
63(4) . . .
67(4) . . .
61(4) . . .
68(5) . . .
54(4) . . .
53(4) . . .
55(4) . . .
53(4) . . .
63(5) . . .
62(4) . . .
59(4) . . .
63(4) . . .
69(4) . . .
68(5) . . .
70(5) . . .
72(5) . . .
63(4) . . .
58(4) . . .
62(4) . . .
69(5) . . .
54(4) . . .
58(4) . . .
57(4) . . .
63(4) . . .
65(4) . . .
60(4) . . .
64(4) . . .
71(5) . . .
53(4) . . .
63(4) . . .
60(4) . . .
55(4) . . .
59(4) . . .
65(4) . . .
73(5) . . .
59(4) . . .
56(4) . . .
63(4) . . .
64(4) . . .
57(4) . . .
64(4) . . .
70(4) . . .
71(5) . . .
57(4) . . .
65(4) . . .
63(4) . . .
64(4) . . .
59(4) . . .
70(5) . . .
65(4) . . .
68(4) . . .
61(4) . . .
68(5) . . .
63(4) . . .
65(4) . . .
70(4) . . .
62(4) . . .
64(4) . . .
58(4) . . .
61(4) . . .
67(4) . . .
59(4) . . .
59(4) . . .
60(4) . . .
53(4) . . .
55(4) . . .
70(5) . . .
58(4) . . .
56(4) . . .
58(4) . . .
64(4) . . .
63(4) . . .
68(5) . . .
56(4) . . .
64(4) . . .
54(4) . . .
56(4) . . .
68(5) . . .
58(4) . . .
56(4) . . .
55(4) . . .
65(4) . . .
66(4) . . .
63(4) . . .
61(4) . . .
52(4) . . .
69(5) . . .
65(4) . . .
62(4) . . .
65(4) . . .
59(4) . . .
66(4) . . .
72(5) . . .
65(4) . . .
59(4) . . .
56(4) . . .
50(4) . . .
59(4) . . .
71(5) . . .
72(4) . . .
67(4) . . .
63(4) . . .
60(4) . . .
70(4) . . .
51(4) . . .
49(4) . . .
62(4) . . .
56(4) . . .
62(4) . . .
63(4) . . .
57(4) . . .
70(5) . . .
62(4) . . .
53(4) . . .
61(4) . . .
57(4) . . .
63(5) . . .
58(4) . . .
62(4) . . .
72(4) . . .
71(5) . . .
63(5) . . .
65(4) . . .
59(4) . . .
64(4) . . .
65(4) . . .
68(4) . . .
66(4) . . .
67(4) . . .
55(4) . . .
63(4) . . .
63(4) . . .
60(4) . . .
70(4) . . .
60(4) . . .
59(4) . . .
57(4) . . .
57(4) . . .
57(4) . . .
59(4) . . .
59(4) . . .
58(4) . . .
62(4) . . .
50(4) . . .
62(4) . . .
54(4) . . .
50(4) . . .
60(4) . . .
60(4) . . .
64(5) . . .
61(4) . . .
50(4) . . .
53(4) . . .
49(4) . . .
62(4) . . .
54(4) . . .
61(4) . . .
59(4) . . .
43.3(34) . . .
71(5) . . .
61(4) . . .
59(4) . . .
47(4) . . .
58(4) . . .
63(4) . . .
56(4) . . .
60(4) . . .
63(4) . . .
66(4) . . .
73(5) . . .
65(5) . . .
58(4) . . .
58(4) . . .
55(4) . . .
64(4) . . .
59(4) . . .
56(4) . . .
61(4) . . .
65(4) . . .
59(4) . . .
63(4) . . .
59(4) . . .
62(4) . . .
52(4) . . .
66(4) . . .
60(4) . . .
57(4) . . .
64(4) . . .
74(5) . . .
69(4) . . .
61(4) . . .
49(4) . . .
61(4) . . .
70(4) . . .
68(4) . . .
59(4) . . .
66(4) . . .
69(4) . . .
70(4) . . .
54(4) . . .
69(5) . . .
58(4) . . .
60(4) . . .
59(4) . . .
51(4) . . .
56(4) . . .
68(4) . . .
61(4) . . .
63(4) . . .
51(4) . . .
67(4) . . .
59(4) . . .
52(4) . . .
59(4) . . .
66(5) . . .
61(4) . . .
66(4) . . .
67(4) . . .
64(4) . . .
62(4) . . .
71(5) . . .
67(4) . . .
73(5) . . .
61(4) . . .
56(4) . . .
63(4) . . .
69(4) . . .
59(4) . . .
53(4) . . .
73(5) . . .
72(4) . . .
60(4) . . .
63(4) . . .
52(4) . . .
68(5) . . .
68(5) . . .
59(4) . . .
69(4) . . .
65(4) . . .
65(4) . . .
65(4) . . .
64(4) . . .
57(4) . . .
58(4) . . .
64(5) . . .
50(4) . . .
71(4) . . .
51(4) . . .
66(5) . . .
69(5) . . .
67(4) . . .
76(5) . . .
62(4) . . .
69(5) . . .
55(4) . . .
59(4) . . .
65(4) . . .
59(4) . . .
59(4) . . .
69(5) . . .
64(4) . . .
54(4) . . .
55(4) . . .
52(4) . . .
59(4) . . .
55(4) . . .
60(4) . . .
50(4) . . .
61(4) . . .
64(5) . . .
59(4) . . .
70(4) . . .
65(4) . . .
63(5) . . .
59(4) . . .
76(4) . . .
62(4) . . .
56(4) . . .
60(4) . . .
55(4) . . .
62(4) . . .
60(4) . . .
56(4) . . .
56(4) . . .
60(4) . . .
64(4) . . .
60(4) . . .
60(4) . . .
68(5) . . .
55(4) . . .
59(4) . . .
61(4) . . .
66(4) . . .
69(5) . . .
69(4) . . .
66(4) . . .
57(4) . . .
59(4) . . .
72(5) . . .
62(4) . . .
58(4) . . .
57(4) . . .
50(4) . . .
53(4) . . .
64(4) . . .
59(4) . . .
55(4) . . .
52(4) . . .
64(4) . . .
66(4) . . .
59(4) . . .
56(4) . . .
58(4) . . .
52(4) . . .
68(4) . . .
54(4) . . .
58(4) . . .
58(4) . . .
71(5) . . .
72(4) . . .
53(4) . . .
67(4) . . .
68(5) . . .
55(4) . . .
60(4) . . .
56(4) . . .
50(4) . . .
58(4) . . .
70(4) . . .
53(4) . . .
54(4) . . .
54(4) . . .
65(5) . . .
62(4) . . .
63(4) . . .
68(4) . . .
67(5) . . .
51(4) . . .
61(4) . . .
63(4) . . .
60(4) . . .
63(4) . . .
53(4) . . .
57(4) . . .
51(4) . . .
62(4) . . .
56(4) . . .
51(4) . . .
64(4) . . .
62(4) . . .
56(4) . . .
63(4) . . .
68(4) . . .
62(4) . . .
59(4) . . .
54(4) . . .
70(4) . . .
60(4) . . .
54(4) . . .
48(4) . . .
59(4) . . .
63(4) . . .
55(4) . . .
53(4) . . .
63(4) . . .
63(4) . . .
64(4) . . .
50(4) . . .
50(4) . . .
55(4) . . .
61(4) . . .
62(4) . . .
65(5) . . .
47(4) . . .
72(4) . . .
62(4) . . .
56(4) . . .
60(4) . . .
66(4) . . .
67(4) . . .
56(4) . . .
52(4) . . .
64(4) . . .
46(4) . . .
61(4) . . .
65(4) . . .
64(4) . . .
64(4) . . .
53(4) . . .
63(4) . . .
63(4) . . .
57(4) . . .
56(4) . . .
64(4) . . .
60(4) . . .
65(4) . . .
63(4) . . .
61(4) . . .
64(4) . . .
57(4) . . .
65(4) . . .
53(4) . . .
61(4) . . .
62(4) . . .
52(4) . . .
60(4) . . .
64(4) . . .
56(4) . . .
68(4) . . .
55(4) . . .
64(4) . . .
54(4) . . .
73(4) . . .
68(4) . . .
54(4) . . .
61(4) . . .
57(4) . . .
61(4) . . .
63(4) . . .
64(4) . . .
66(5) . . .
68(4) . . .
58(4) . . .
64(4) . . .
59(4) . . .
65(5) . . .
49(4) . . .
61(4) . . .
66(4) . . .
54(4) . . .
63(5) . . .
60(4) . . .
54(4) . . .
63(4) . . .
65(4) . . .
66(4) . . .
62(4) . . .
57(4) . . .
66(4) . . .
63(4) . . .
59(4) . . .
64(4) . . .
57(4) . . .
67(4) . . .
69(5) . . .
58(4) . . .
60(4) . . .
66(4) . . .
61(4) . . .
63(4) . . .
55(4) . . .
62(4) . . .
63(4) . . .
56(4) . . .
49(4) . . .
52(4) . . .
59(4) . . .
58(4) . . .
61(4) . . .
63(4) . . .
58(4) . . .
63(4) . . .
53(4) . . .
59(4) . . .
72(5) . . .
51(4) . . .
58(4) . . .
58(4) . . .
64(5) . . .
65(4) . . .
61(4) . . .
47(4) . . .
63(4) . . .
63(4) . . .
63(4) . . .
59(4) . . .
53(4) . . .
63(4) . . .
54(4) . . .
55(4) . . .
51(4) . . .
64(4) . . .
56(4) . . .
65(5) . . .
68(5) . . .
65(4) . . .
66(4) . . .
63(4) . . .
63(4) . . .
58(4) . . .
58(4) . . .
66(4) . . .
59(4) . . .
67(4) . . .
66(4) . . .
65(4) . . .
57(4) . . .
55(4) . . .
53(4) . . .
56(4) . . .
60(4) . . .
51(4) . . .
57(4) . . .
53(4) . . .
61(4) . . .
62(4) . . .
53(4) . . .
61(4) . . .
53(4) . . .
55(4) . . .
66(4) . . .
61(4) . . .
66(4) . . .
71(5) . . .
64(4) . . .
52(4) . . .
68(4) . . .
57(4) . . .
58(4) . . .
63(4) . . .
55(4) . . .
67(4) . . .
59(4) . . .
55(4) . . .
58(4) . . .
57(4) . . .
54(4) . . .
67(4) . . .
59(4) . . .
66(5) . . .
59(4) . . .
54(4) . . .
63(4) . . .
54(4) . . .
55(4) . . .
56(4) . . .
61(4) . . .
64(4) . . .
53(4) . . .
60(4) . . .
61(4) . . .
69(4) . . .
54(4) . . .
54(4) . . .
54(4) . . .
60(4) . . .
56(4) . . .
53(4) . . .
52(4) . . .
68(4) . . .
70(4) . . .
63(4) . . .
54(4) . . .
55(4) . . .
65(5) . . .
55(4) . . .
56(4) . . .
62(4) . . .
61(4) . . .
63(4) . . .
49(4) . . .
52(4) . . .
62(4) . . .
70(5) . . .
57(4) . . .
64(4) . . .
59(4) . . .
52(4) . . .
60(4) . . .
69(4) . . .
55(4) . . .
59(4) . . .
65(5) . . .
65(4) . . .
69(4) . . .
60(4) . . .
63(4) . . .
61(4) . . .
61(4) . . .
59(4) . . .
61(4) . . .
55(4) . . .
59(4) . . .
55(4) . . .
61(4) . . .
61(4) . . .
58(4) . . .
61(4) . . .
46(4) . . .
58(4) . . .
64(4) . . .
53(4) . . .
62(4) . . .
59(4) . . .
49(4) . . .
51(4) . . .
54(4) . . .
61(4) . . .
61(4) . . .
57(4) . . .
62(4) . . .
63(5) . . .
63(4) . . .
60(4) . . .
63(4) . . .
63(4) . . .
66(4) . . .
63(4) . . .
63(4) . . .
59(4) . . .
66(4) . . .
67(4) . . .
68(5) . . .
49(4) . . .
56(4) . . .
71(5) . . .
65(5) . . .
57(4) . . .
60(4) . . .
62(4) . . .
62(4) . . .
60(4) . . .
71(4) . . .
63(4) . . .
65(4) . . .
59(4) . . .
53(4) . . .
55(4) . . .
63(4) . . .
51(4) . . .
70(5) . . .
60(4) . . .
56(4) . . .
50(4) . . .
54(4) . . .
59(4) . . .
59(4) . . .
58(4) . . .
60(4) . . .
58(4) . . .
57(4) . . .
64(4) . . .
66(4) . . .
73(4) . . .
68(4) . . .
74(5) . . .
69(5) . . .
54(4) . . .
60(4) . . .
61(4) . . .
59(4) . . .
63(4) . . .
56(4) . . .
66(4) . . .
62(4) . . .
74(5) . . .
69(5) . . .
58(4) . . .
68(4) . . .
63(4) . . .
60(4) . . .
51(4) . . .
55(4) . . .
59(4) . . .
58(4) . . .
69(5) . . .
64(4) . . .
53(4) . . .
59(4) . . .
52(4) . . .
59(4) . . .
63(4) . . .
64(4) . . .
50(4) . . .
63(4) . . .
58(4) . . .
53(4) . . .
68(4) . . .
59(4) . . .
62(4) . . .
56(4) . . .
60(4) . . .
49(4) . . .
66(4) . . .
51(4) . . .
56(4) . . .
71(5) . . .
67(4) . . .
55(4) . . .
68(5) . . .
60(4) . . .
57(4) . . .
64(4) . . .
71(4) . . .
65(4) . . .
59(4) . . .
63(4) . . .
55(4) . . .
62(4) . . .
65(4) . . .
56(4) . . .
62(4) . . .
64(4) . . .
61(4) . . .
54(4) . . .
56(4) . . .
49(4) . . .
50(4) . . .
58(4) . . .
62(4) . . .
61(4) . . .
57(4) . . .
64(4) . . .
56(4) . . .
53(4) . . .
65(4) . . .
67(4) . . .
72(4) . . .
68(4) . . .
62(4) . . .
60(4) . . .
58(4) . . .
64(4) . . .
58(4) . . .
61(4) . . .
77(5) . . .
58(4) . . .
62(4) . . .
69(4) . . .
59(4) . . .
64(4) . . .
60(4) . . .
55(4) . . .
60(4) . . .
62(5) . . .
67(4) . . .
58(4) . . .
65(4) . . .
68(4) . . .
67(5) . . .
49(4) . . .
69(4) . . .
63(4) . . .
56(4) . . .
54(4) . . .
67(4) . . .
57(4) . . .
62(4) . . .
61(4) . . .
58(4) . . .
58(4) . . .
56(4) . . .
51(4) . . .
66(4) . . .
62(4) . . .
62(4) . . .
61(4) . . .
59(4) . . .
56(4) . . .
68(5) . . .
52(4) . . .
59(4) . . .
54(4) . . .
56(4) . . .
50(4) . . .
64(4) . . .
63(4) . . .
61(4) . . .
61(4) . . .
54(4) . . .
44.9(35) . . .
56(4) . . .
63(4) . . .
63(5) . . .
63(4) . . .
70(4) . . .
61(4) . . .
57(4) . . .
68(5) . . .
64(4) . . .
65(4) . . .
59(4) . . .
67(5) . . .
54(4) . . .
57(4) . . .
53(4) . . .
62(4) . . .
56(4) . . .
66(5) . . .
62(4) . . .
65(4) . . .
64(4) . . .
49(4) . . .
62(4) . . .
57(4) . . .
66(4) . . .
57(4) . . .
60(4) . . .
65(4) . . .
61(4) . . .
69(4) . . .
55(4) . . .
55(4) . . .
67(5) . . .
61(4) . . .
60(4) . . .
54(4) . . .
65(4) . . .
58(4) . . .
51(4) . . .
53(4) . . .
64(4) . . .
54(4) . . .
54(4) . . .
56(4) . . .
53(4) . . .
51(4) . . .
62(4) . . .
70(5) . . .
56(4) . . .
61(4) . . .
65(4) . . .
60(4) . . .
68(5) . . .
62(4) . . .
51(4) . . .
68(4) . . .
60(4) . . .
56(4) . . .
57(4) . . .
55(4) . . .
58(4) . . .
64(5) . . .
63(4) . . .
68(4) . . .
61(4) . . .
59(4) . . .
59(4) . . .
59(4) . . .
53(4) . . .
65(4) . . .
61(4) . . .
54(4) . . .
57(4) . . .
63(4) . . .
63(4) . . .
59(4) . . .
55(4) . . .
51(4) . . .
68(4) . . .
61(4) . . .
50(4) . . .
58(4) . . .
55(4) . . .
69(4) . . .
58(4) . . .
56(4) . . .
61(4) . . .
58(4) . . .
62(4) . . .
54(4) . . .
64(4) . . .
67(4) . . .
64(4) . . .
75(4) . . .
59(4) . . .
56(4) . . .
72(5) . . .
64(4) . . .
57(4) . . .
63(4) . . .
51(4) . . .
62(4) . . .
62(4) . . .
53(4) . . .
63(4) . . .
55(4) . . .
60(4) . . .
59(4) . . .
70(4) . . .
58(4) . . .
55(4) . . .
53(4) . . .
56(4) . . .
63(4) . . .
62(4) . . .
64(4) . . .
56(4) . . .
58(4) . . .
55(4) . . .
62(4) . . .
64(5) . . .
45(4) . . .
63(4) . . .
55(4) . . .
46(4) . . .
54(4) . . .
59(4) . . .
63(4) . . .
57(4) . . .
55(4) . . .
58(4) . . .
61(4) . . .
52(4) . . .
60(4) . . .
55(4) . . .
71(5) . . .
62(4) . . .
59(4) . . .
62(4) . . .
64(4) . . .
63(4) . . .
55(4) . . .
54(4) . . .
72(5) . . .
64(5) . . .
48(4) . . .
54(4) . . .
50(4) . . .
50(4) . . .
61(4) . . .
61(4) . . .
60(4) . . .
65(4) . . .
68(4) . . .
51(4) . . .
58(4) . . .
69(4) . . .
59(4) . . .
63(4) . . .
59(4) . . .
60(4) . . .
56(4) . . .
64(4) . . .
66(4) . . .
57(4) . . .
63(4) . . .
55(4) . . .
60(4) . . .
69(4) . . .
66(4) . . .
48(4) . . .
57(4) . . .
59(4) . . .
65(4) . . .
66(4) . . .
54(4) . . .
57(4) . . .
62(4) . . .
67(4) . . .
67(5) . . .
58(4) . . .
59(4) . . .
65(4) . . .
60(4) . . .
62(4) . . .
68(4) . . .
56(4) . . .
63(4) . . .
58(4) . . .
56(4) . . .
53(4) . . .
68(4) . . .
66(5) . . .
60(4) . . .
74(5) . . .
61(4) . . .
63(4) . . .
63(4) . . .
64(4) . . .
52(4) . . .
55(4) . . .
65(4) . . .
58(4) . . .
45(4) . . .
54(4) . . .
64(4) . . .
50(4) . . .
57(4) . . .
54(4) . . .
53(4) . . .
59(4) . . .
59(4) . . .
60(4) . . .
55(4) . . .
54(4) . . .
47(4) . . .
65(4) . . .
69(5) . . .
56(4) . . .
58(4) . . .
61(4) . . .
66(4) . . .
55(4) . . .
49(4) . . .
49(4) . . .
48(4) . . .
55(4) . . .
50(4) . . .
67(5) . . .
60(4) . . .
58(4) . . .
55(4) . . .
56(4) . . .
48(4) . . .
70(4) . . .
52(4) . . .
63(4) . . .
49(4) . . .
64(5) . . .
60(4) . . .
52(4) . . .
56(4) . . .
58(4) . . .
61(4) . . .
59(4) . . .
73(4) . . .
57(4) . . .
62(4) . . .
58(4) . . .
52(4) . . .
57(4) . . .
57(4) . . .
55(4) . . .
59(4) . . .
61(4) . . .
54(4) . . .
58(4) . . .
64(5) . . .
56(4) . . .
52(4) . . .
56(4) . . .
58(4) . . .
69(5) . . .
52(4) . . .
59(4) . . .
65(4) . . .
53(4) . . .
46(4) . . .
63(4) . . .
53(4) . . .
56(4) . . .
67(4) . . .
53(4) . . .
52(4) . . .
60(4) . . .
58(4) . . .
67(5) . . .
53(4) . . .
65(4) . . .
58(4) . . .
62(4) . . .
64(4) . . .
59(4) . . .
47(4) . . .
60(4) . . .
48(4) . . .
54(4) . . .
68(5) . . .
67(4) . . .
58(4) . . .
47(4) . . .
56(4) . . .
60(4) . . .
58(4) . . .
65(4) . . .
55(4) . . .
66(4) . . .
54(4) . . .
49(4) . . .
51(4) . . .
53(4) . . .
49(4) . . .
55(4) . . .
50(4) . . .
66(4) . . .
64(4) . . .
65(5) . . .
51(4) . . .
56(4) . . .
49(4) . . .
60(4) . . .
58(4) . . .
51(4) . . .
61(4) . . .
60(4) . . .
52(4) . . .
57(4) . . .
48(4) . . .
58(4) . . .
66(4) . . .
54(4) . . .
55(4) . . .
58(4) . . .
68(4) . . .
59(4) . . .
48(4) . . .
59(4) . . .
55(4) . . .
58(4) . . .
60(4) . . .
59(4) . . .
60(4) . . .
66(4) . . .
54(4) . . .
63(4) . . .
55(4) . . .
65(4) . . .
57(4) . . .
71(4) . . .
57(4) . . .
55(4) . . .
54(4) . . .
50(4) . . .
63(4) . . .
47(4) . . .
48(4) . . .
62(4) . . .
59(4) . . .
61(4) . . .
48(4) . . .
56(4) . . .
60(4) . . .
56(4) . . .
62(4) . . .
69(5) . . .
55(4) . . .
52(4) . . .
46(4) . . .
64(4) . . .
48(4) . . .
54(4) . . .
67(4) . . .
66(4) . . .
49(4) . . .
59(4) . . .
51(4) . . .
54(4) . . .
54(4) . . .
51(4) . . .
56(4) . . .
59(4) . . .
55(4) . . .
65(4) . . .
63(4) . . .
60(4) . . .
58(4) . . .
54(4) . . .
51(4) . . .
62(4) . . .
54(4) . . .
58(4) . . .
53(4) . . .
63(4) . . .
62(4) . . .
61(4) . . .
61(4) . . .
59(4) . . .
64(4) . . .
60(4) . . .
62(4) . . .
54(4) . . .
55(4) . . .
55(4) . . .
58(4) . . .
72(5) . . .
58(4) . . .
65(4) . . .
62(4) . . .
72(5) . . .
56(4) . . .
56(4) . . .
53(4) . . .
53(4) . . .
67(4) . . .
65(4) . . .
66(4) . . .
58(4) . . .
54(4) . . .
52(4) . . .
45(4) . . .
48(4) . . .
54(4) . . .
50(4) . . .
66(4) . . .
67(4) . . .
67(4) . . .
60(4) . . .
51(4) . . .
55(4) . . .
58(4) . . .
53(4) . . .
52(4) . . .
55(4) . . .
51(4) . . .
60(4) . . .
55(4) . . .
56(4) . . .
60(4) . . .
71(5) . . .
52(4) . . .
48(4) . . .
41.5(33) . . .
58(4) . . .
63(4) . . .
52(4) . . .
60(4) . . .
54(4) . . .
54(4) . . .
58(4) . . .
48(4) . . .
61(4) . . .
69(4) . . .
62(4) . . .
62(4) . . .
64(4) . . .
58(4) . . .
59(4) . . .
49(4) . . .
51(4) . . .
58(4) . . .
53(4) . . .
65(4) . . .
60(4) . . .
54(4) . . .
53(4) . . .
67(4) . . .
68(4) . . .
55(4) . . .
55(4) . . .
68(4) . . .
67(4) . . .
64(4) . . .
60(4) . . .
51(4) . . .
68(5) . . .
64(4) . . .
58(4) . . .
60(4) . . .
58(4) . . .
61(4) . . .
50(4) . . .
53(4) . . .
57(4) . . .
66(4) . . .
60(4) . . .
56(4) . . .
60(4) . . .
65(4) . . .
59(4) . . .
63(4) . . .
61(4) . . .
48(4) . . .
52(4) . . .
64(4) . . .
59(4) . . .
60(4) . . .
69(4) . . .
59(4) . . .
56(4) . . .
64(4) . . .
55(4) . . .
62(5) . . .
53(4) . . .
63(4) . . .
55(4) . . .
57(4) . . .
57(4) . . .
61(4) . . .
61(4) . . .
67(4) . . .
59(4) . . .
58(4) . . .
52(4) . . .
66(5) . . .
63(4) . . .
60(4) . . .
58(4) . . .
61(5) . . .
54(4) . . .
54(4) . . .
57(4) . . .
61(4) . . .
49(4) . . .
58(4) . . .
59(4) . . .
62(4) . . .
54(4) . . .
65(4) . . .
55(4) . . .
59(4) . . .
53(4) . . .
52(4) . . .
52(4) . . .
62(4) . . .
47(4) . . .
60(4) . . .
55(4) . . .
65(4) . . .
64(4) . . .
58(4) . . .
46(4) . . .
59(4) . . .
55(4) . . .
46(4) . . .
52(4) . . .
60(4) . . .
56(4) . . .
50(4) . . .
49(4) . . .
60(4) . . .
57(4) . . .
54(4) . . .
61(4) . . .
61(4) . . .
48(4) . . .
54(4) . . .
55(4) . . .
58(4) . . .
65(4) . . .
64(4) . . .
66(4) . . .
48(4) . . .
46(4) . . .
53(4) . . .
61(4) . . .
59(4) . . .
51(4) . . .
61(4) . . .
57(4) . . .
48(4) . . .
52(4) . . .
58(4) . . .
69(5) . . .
63(4) . . .
63(4) . . .
57(4) . . .
58(4) . . .
55(4) . . .
62(4) . . .
53(4) . . .
51(4) . . .
55(4) . . .
56(4) . . .
56(4) . . .
53(4) . . .
65(5) . . .
58(4) . . .
64(4) . . .
62(4) . . .
55(4) . . .
68(4) . . .
69(5) . . .
52(4) . . .
62(4) . . .
67(4) . . .
57(4) . . .
63(4) . . .
59(4) . . .
64(4) . . .
54(4) . . .
48(4) . . .
54(4) . . .
56(4) . . .
54(4) . . .
61(4) . . .
61(4) . . .
64(4) . . .
48(4) . . .
54(4) . . .
49(4) . . .
54(4) . . .
59(4) . . .
59(4) . . .
52(4) . . .
56(4) . . .
51(4) . . .
54(4) . . .
54(4) . . .
62(4) . . .
66(4) . . .
55(4) . . .
51(4) . . .
58(4) . . .
63(4) . . .
55(4) . . .
48(4) . . .
55(4) . . .
49(4) . . .
61(4) . . .
50(4) . . .
51(4) . . .
64(4) . . .
59(4) . . .
57(4) . . .
49(4) . . .
55(4) . . .
68(4) . . .
60(4) . . .
58(4) . . .
56(4) . . .
55(4) . . .
48(4) . . .
53(4) . . .
53(4) . . .
51(4) . . .
68(5) . . .
65(4) . . .
57(4) . . .
56(4) . . .
51(4) . . .
56(4) . . .
51(4) . . .
49(4) . . .
67(4) . . .
53(4) . . .
55(4) . . .
55(4) . . .
59(4) . . .
54(4) . . .
47(4) . . .
55(4) . . .
62(4) . . .
52(4) . . .
58(4) . . .
56(4) . . .
62(4) . . .
63(4) . . .
68(4) . . .
63(4) . . .
56(4) . . .
56(4) . . .
56(4) . . .
59(4) . . .
64(4) . . .
67(5) . . .
66(5) . . .
51(4) . . .
62(4) . . .
56(4) . . .
58(4) . . .
43.2(34) . . .
57(4) . . .
54(4) . . .
58(4) . . .
55(4) . . .
59(4) . . .
52(4) . . .
52(4) . . .
68(5) . . .
54(4) . . .
58(4) . . .
55(4) . . .
57(4) . . .
62(4) . . .
54(4) . . .
52(4) . . .
53(4) . . .
49(4) . . .
61(5) . . .
54(4) . . .
46(4) . . .
52(4) . . .
58(4) . . .
51(4) . . .
52(4) . . .
46(4) . . .
58(4) . . .
66(5) . . .
60(4) . . .
63(4) . . .
57(4) . . .
52(4) . . .
47(4) . . .
49(4) . . .
47(4) . . .
52(4) . . .
47(4) . . .
45(4) . . .
49(4) . . .
63(4) . . .
68(4) . . .
53(4) . . .
57(4) . . .
52(4) . . .
52(4) . . .
52(4) . . .
64(4) . . .
62(4) . . .
61(4) . . .
64(4) . . .
61(4) . . .
60(4) . . .
55(4) . . .
55(4) . . .
51(4) . . .
55(4) . . .
69(4) . . .
62(4) . . .
58(4) . . .
48(4) . . .
59(4) . . .
61(4) . . .
55(4) . . .
51(4) . . .
57(4) . . .
54(4) . . .
49(4) . . .
60(4) . . .
62(4) . . .
61(4) . . .
48(4) . . .
63(4) . . .
55(4) . . .
66(4) . . .
61(4) . . .
51(4) . . .
53(4) . . .
57(4) . . .
46(4) . . .
60(4) . . .
54(4) . . .
58(4) . . .
56(4) . . .
52(4) . . .
57(4) . . .
56(4) . . .
52(4) . . .
48(4) . . .
49(4) . . .
48(4) . . .
51(4) . . .
43.0(35) . . .
58(4) . . .
60(4) . . .
54(4) . . .
59(4) . . .
59(4) . . .
48(4) . . .
45(4) . . .
59(4) . . .
56(4) . . .
56(4) . . .
57(4) . . .
62(4) . . .
60(4) . . .
59(4) . . .
53(4) . . .
57(4) . . .
55(4) . . .
57(4) . . .
64(4) . . .
58(4) . . .
54(4) . . .
61(4) . . .
53(4) . . .
59(4) . . .
56(4) . . .
50(4) . . .
55(4) . . .
52(4) . . .
51(4) . . .
48(4) . . .
60(4) . . .
53(4) . . .
57(4) . . .
61(4) . . .
58(4) . . .
51(4) . . .
63(4) . . .
52(4) . . .
54(4) . . .
47(4) . . .
56(4) . . .
59(4) . . .
56(4) . . .
63(4) . . .
46(4) . . .
59(4) . . .
56(4) . . .
55(4) . . .
58(4) . . .
57(4) . . .
55(4) . . .
55(4) . . .
46(4) . . .
61(4) . . .
61(5) . . .
55(4) . . .
52(4) . . .
51(4) . . .
54(4) . . .
51(4) . . .
66(4) . . .
54(4) . . .
56(4) . . .
52(4) . . .
47(4) . . .
53(4) . . .
58(4) . . .
63(4) . . .
52(4) . . .
56(4) . . .
57(4) . . .
47(4) . . .
56(4) . . .
50(4) . . .
62(4) . . .
59(4) . . .
64(4) . . .
60(4) . . .
52(4) . . .
58(4) . . .
56(4) . . .
59(4) . . .
56(4) . . .
58(4) . . .
57(4) . . .
53(4) . . .
50(4) . . .
55(4) . . .
57(4) . . .
56(4) . . .
61(4) . . .
59(4) . . .
56(4) . . .
60(4) . . .
54(4) . . .
59(4) . . .
50(4) . . .
57(4) . . .
40.3(32) . . .
66(5) . . .
52(4) . . .
49(4) . . .
55(4) . . .
58(4) . . .
59(4) . . .
57(4) . . .
59(4) . . .
66(4) . . .
57(4) . . .
64(4) . . .
63(4) . . .
47(4) . . .
64(4) . . .
64(4) . . .
56(4) . . .
54(4) . . .
57(4) . . .
59(4) . . .
56(4) . . .
60(4) . . .
50(4) . . .
58(4) . . .
55(4) . . .
50(4) . . .
55(4) . . .
59(4) . . .
64(4) . . .
56(4) . . .
58(4) . . .
51(4) . . .
49(4) . . .
56(4) . . .
56(4) . . .
66(5) . . .
55(4) . . .
61(4) . . .
61(4) . . .
53(4) . . .
59(4) . . .
60(4) . . .
58(4) . . .
55(4) . . .
59(4) . . .
59(4) . . .
61(4) . . .
61(4) . . .
53(4) . . .
62(4) . . .
44(4) . . .
52(4) . . .
55(4) . . .
52(4) . . .
69(5) . . .
50(4) . . .
54(4) . . .
57(4) . . .
60(4) . . .
52(4) . . .
69(4) . . .
51(4) . . .
51(4) . . .
55(4) . . .
52(4) . . .
52(4) . . .
56(4) . . .
51(4) . . .
55(4) . . .
59(4) . . .
60(4) . . .
55(4) . . .
61(4) . . .
73(5) . . .
53(4) . . .
58(4) . . .
41.6(34) . . .
54(4) . . .
51(4) . . .
60(4) . . .
56(4) . . .
60(4) . . .
64(4) . . .
55(4) . . .
53(4) . . .
61(4) . . .
61(4) . . .
49(4) . . .
52(4) . . .
65(5) . . .
57(4) . . .
67(4) . . .
60(4) . . .
59(4) . . .
56(4) . . .
59(4) . . .
50(4) . . .
60(4) . . .
54(4) . . .
58(4) . . .
50(4) . . .
52(4) . . .
61(4) . . .
53(4) . . .
45(4) . . .
55(4) . . .
53(4) . . .
54(4) . . .
50(4) . . .
61(4) . . .
54(4) . . .
51(4) . . .
53(4) . . .
61(4) . . .
56(4) . . .
50(4) . . .
50(4) . . .
47(4) . . .
50(4) . . .
49(4) . . .
61(4) . . .
62(4) . . .
61(4) . . .
60(4) . . .
56(4) . . .
64(4) . . .
51(4) . . .
63(5) . . .
58(4) . . .
64(4) . . .
55(4) . . .
51(4) . . .
57(4) . . .
62(4) . . .
57(4) . . .
65(4) . . .
52(4) . . .
54(4) . . .
60(4) . . .
54(4) . . .
62(4) . . .
59(4) . . .
60(4) . . .
53(4) . . .
59(4) . . .
51(4) . . .
52(4) . . .
66(5) . . .
55(4) . . .
58(4) . . .
58(4) . . .
66(5) . . .
52(4) . . .
58(4) . . .
49(4) . . .
60(4) . . .
63(4) . . .
61(4) . . .
60(4) . . .
57(4) . . .
53(4) . . .
66(4) . . .
52(4) . . .
55(4) . . .
48(4) . . .
49(4) . . .
53(4) . . .
54(4) . . .
57(4) . . .
49(4) . . .
53(4) . . .
56(4) . . .
47(4) . . .
55(4) . . .
60(4) . . .
57(4) . . .
52(4) . . .
53(4) . . .
54(4) . . .
53(4) . . .
53(4) . . .
52(4) . . .
60(4) . . .
64(4) . . .
58(4) . . .
55(4) . . .
49(4) . . .
52(4) . . .
51(4) . . .
45.8(35) . . .
56(4) . . .
50(4) . . .
54(4) . . .
55(4) . . .
48(4) . . .
58(4) . . .
62(4) . . .
64(4) . . .
51(4) . . .
54(4) . . .
59(4) . . .
54(4) . . .
49(4) . . .
57(4) . . .
53(4) . . .
55(4) . . .
56(4) . . .
61(4) . . .
56(4) . . .
55(4) . . .
58(4) . . .
45(4) . . .
56(4) . . .
53(4) . . .
66(4) . . .
58(4) . . .
54(4) . . .
50(4) . . .
55(4) . . .
59(4) . . .
53(4) . . .
63(4) . . .
65(4) . . .
64(4) . . .
48(4) . . .
65(4) . . .
58(4) . . .
44(4) . . .
55(4) . . .
45(4) . . .
45(4) . . .
53(4) . . .
55(4) . . .
45.6(35) . . .
47(4) . . .
58(4) . . .
60(4) . . .
65(4) . . .
60(4) . . .
59(4) . . .
60(4) . . .
57(4) . . .
62(4) . . .
43.3(34) . . .
61(4) . . .
50(4) . . .
52(4) . . .
64(4) . . .
65(4) . . .
51(4) . . .
62(4) . . .
68(5) . . .
58(4) . . .
47(4) . . .
55(4) . . .
61(4) . . .
60(4) . . .
55(4) . . .
67(4) . . .
50(4) . . .
59(4) . . .
57(4) . . .
54(4) . . .
55(4) . . .
63(4) . . .
58(4) . . .
66(4) . . .
68(4) . . .
58(4) . . .
65(4) . . .
66(4) . . .
58(4) . . .
53(4) . . .
57(4) . . .
59(4) . . .
51(4) . . .
58(4) . . .
55(4) . . .
75(5) . . .
55(4) . . .
51(4) . . .
51(4) . . .
49(4) . . .
53(4) . . .
52(4) . . .
62(4) . . .
56(4) . . .
55(4) . . .
60(4) . . .
54(4) . . .
70(5) . . .
51(4) . . .
57(4) . . .
47(4) . . .
47(4) . . .
53(4) . . .
60(4) . . .
65(4) . . .
53(4) . . .
58(4) . . .
65(4) . . .
61(4) . . .
58(4) . . .
52(4) . . .
54(4) . . .
47(4) . . .
49(4) . . .
54(4) . . .
62(4) . . .
57(4) . . .
55(4) . . .
58(4) . . .
55(4) . . .
62(4) . . .
52(4) . . .
53(4) . . .
54(4) . . .
58(4) . . .
58(4) . . .
51(4) . . .
47(4) . . .
46(4) . . .
54(4) . . .
53(4) . . .
60(4) . . .
52(4) . . .
48(4) . . .
59(4) . . .
64(4) . . .
58(4) . . .
51(4) . . .
68(4) . . .
52(4) . . .
46(4) . . .
58(4) . . .
79(5) . . .
54(4) . . .
54(4) . . .
55(4) . . .
46.1(35) . . .
50(4) . . .
60(4) . . .
51(4) . . .
67(5) . . .
56(4) . . .
50(4) . . .
65(4) . . .
52(4) . . .
62(4) . . .
58(4) . . .
62(4) . . .
58(4) . . .
49(4) . . .
69(5) . . .
60(4) . . .
54(4) . . .
54(4) . . .
44(4) . . .
59(5) . . .
55(4) . . .
59(4) . . .
49(4) . . .
50(4) . . .
52(4) . . .
51(4) . . .
59(4) . . .
61(4) . . .
56(4) . . .
61(4) . . .
56(4) . . .
50(4) . . .
57(4) . . .
57(4) . . .
61(4) . . .
58(4) . . .
55(4) . . .
60(4) . . .
54(4) . . .
47(4) . . .
55(4) . . .
60(4) . . .
52(4) . . .
54(4) . . .
54(4) . . .
57(4) . . .
58(4) . . .
62(4) . . .
58(4) . . .
69(5) . . .
59(4) . . .
45(4) . . .
53(4) . . .
60(4) . . .
57(4) . . .
59(4) . . .
55(4) . . .
59(4) . . .
54(4) . . .
49(4) . . .
61(4) . . .
67(4) . . .
51(4) . . .
49(4) . . .
61(4) . . .
53(4) . . .
59(4) . . .
53(4) . . .
59(4) . . .
51(4) . . .
47(4) . . .
53(4) . . .
45(4) . . .
58(4) . . .
57(4) . . .
60(4) . . .
56(4) . . .
45(4) . . .
45(4) . . .
61(4) . . .
59(4) . . .
49(4) . . .
67(4) . . .
59(4) . . .
58(4) . . .
56(4) . . .
60(4) . . .
55(4) . . .
56(4) . . .
46(4) . . .
50(4) . . .
56(4) . . .
55(4) . . .
62(4) . . .
59(4) . . .
54(4) . . .
63(4) . . .
59(4) . . .
53(4) . . .
59(4) . . .
57(4) . . .
62(4) . . .
61(4) . . .
50(4) . . .
48(4) . . .
54(4) . . .
63(4) . . .
56(4) . . .
53(4) . . .
54(4) . . .
49(4) . . .
57(4) . . .
50(4) . . .
58(4) . . .
50(4) . . .
52(4) . . .
55(4) . . .
52(4) . . .
62(4) . . .
64(4) . . .
58(4) . . .
61(4) . . .
64(4) . . .
63(4) . . .
50(4) . . .
54(4) . . .
55(4) . . .
59(4) . . .
63(5) . . .
61(4) . . .
53(4) . . .
54(4) . . .
57(4) . . .
53(4) . . .
61(4) . . .
50(4) . . .
58(4) . . .
62(4) . . .
51(4) . . .
58(4) . . .
71(4) . . .
67(4) . . .
56(4) . . .
56(4) . . .
70(4) . . .
58(4) . . .
48(4) . . .
57(4) . . .
60(4) . . .
58(4) . . .
57(4) . . .
53(4) . . .
56(4) . . .
53(4) . . .
53(4) . . .
58(4) . . .
61(4) . . .
61(4) . . .
57(4) . . .
63(4) . . .
61(4) . . .
44(4) . . .
53(4) . . .
55(4) . . .
51(4) . . .
56(4) . . .
65(4) . . .
61(4) . . .
59(4) . . .
50(4) . . .
54(4) . . .
62(5) . . .
58(4) . . .
73(4) . . .
53(4) . . .
52(4) . . .
56(4) . . .
53(4) . . .
50(4) . . .
63(4) . . .
51(4) . . .
57(4) . . .
67(5) . . .
47(4) . . .
56(4) . . .
57(4) . . .
55(4) . . .
56(4) . . .
57(4) . . .
56(4) . . .
62(4) . . .
56(4) . . .
61(4) . . .
58(4) . . .
63(4) . . .
58(4) . . .
51(4) . . .
54(4) . . .
68(4) . . .
64(4) . . .
50(4) . . .
61(4) . . .
58(4) . . .
62(4) . . .
56(4) . . .
65(4) . . .
70(5) . . .
55(4) . . .
52(4) . . .
60(4) . . .
61(4) . . .
51(4) . . .
54(4) . . .
61(4) . . .
53(4) . . .
43(4) . . .
44.0(35) . . .
51(4) . . .
60(4) . . .
56(4) . . .
64(5) . . .
58(4) . . .
53(4) . . .
55(4) . . .
66(4) . . .
55(4) . . .
59(4) . . .
51(4) . . .
59(4) . . .
75(5) . . .
60(4) . . .
54(4) . . .
57(4) . . .
53(4) . . .
57(4) . . .
54(4) . . .
63(4) . . .
68(4) . . .
51(4) . . .
69(4) . . .
65(4) . . .
54(4) . . .
46(4) . . .
54(4) . . .
65(4) . . .
59(4) . . .
55(4) . . .
61(4) . . .
64(4) . . .
60(4) . . .
51(4) . . .
61(4) . . .
55(4) . . .
60(4) . . .
57(4) . . .
61(4) . . .
51(4) . . .
57(4) . . .
59(4) . . .
66(4) . . .
60(4) . . .
57(4) . . .
58(4) . . .
57(4) . . .
58(4) . . .
53(4) . . .
55(4) . . .
53(4) . . .
52(4) . . .
61(4) . . .
57(4) . . .
58(4) . . .
49(4) . . .
50(4) . . .
51(4) . . .
59(4) . . .
50(4) . . .
48(4) . . .
53(4) . . .
63(4) . . .
58(4) . . .
57(4) . . .
52(4) . . .
56(4) . . .
62(4) . . .
55(4) . . .
60(4) . . .
55(4) . . .
52(4) . . .
57(4) . . .
64(4) . . .
64(4) . . .
58(4) . . .
52(4) . . .
56(4) . . .
65(4) . . .
58(4) . . .
59(4) . . .
56(4) . . .
56(4) . . .
52(4) . . .
53(4) . . .
53(4) . . .
56(4) . . .
66(4) . . .
50(4) . . .
50(4) . . .
49(4) . . .
61(4) . . .
52(4) . . .
63(4) . . .
54(4) . . .
60(4) . . .
49(4) . . .
60(4) . . .
59(4) . . .
53(4) . . .
56(4) . . .
56(4) . . .
50(4) . . .
54(4) . . .
52(4) . . .
56(4) . . .
47(4) . . .
57(4) . . .
55(4) . . .
60(4) . . .
54(4) . . .
61(4) . . .
56(4) . . .
68(4) . . .
73(4) . . .
71(5) . . .
57(4) . . .
55(4) . . .
64(4) . . .
57(4) . . .
61(4) . . .
53(4) . . .
57(4) . . .
56(4) . . .
47(4) . . .
51(4) . . .
55(4) . . .
53(4) . . .
52(4) . . .
54(4) . . .
58(4) . . .
58(4) . . .
60(4) . . .
67(4) . . .
63(4) . . .
61(5) . . .
44.6(34) . . .
72(4) . . .
56(4) . . .
67(5) . . .
61(4) . . .
65(4) . . .
56(4) . . .
49(4) . . .
61(4) . . .
46(4) . . .
49(4) . . .
52(4) . . .
52(4) . . .
61(4) . . .
54(4) . . .
59(4) . . .
68(4) . . .
62(4) . . .
49(4) . . .
59(4) . . .
57(4) . . .
50(4) . . .
54(4) . . .
53(4) . . .
63(4) . . .
54(4) . . .
61(4) . . .
50(4) . . .
50(4) . . .
62(4) . . .
60(4) . . .
58(4) . . .
53(4) . . .
51(4) . . .
48(4) . . .
55(4) . . .
62(4) . . .
58(4) . . .
53(4) . . .
60(4) . . .
61(4) . . .
58(4) . . .
47(4) . . .
59(4) . . .
51(4) . . .
55(4) . . .
54(4) . . .
54(4) . . .
59(4) . . .
60(4) . . .
58(4) . . .
57(4) . . .
53(4) . . .
56(4) . . .
61(4) . . .
50(4) . . .
49(4) . . .
55(4) . . .
52(4) . . .
49(4) . . .
48(4) . . .
56(4) . . .
59(4) . . .
65(5) . . .
63(4) . . .
64(4) . . .
60(4) . . .
57(4) . . .
63(4) . . .
53(4) . . .
54(4) . . .
59(4) . . .
50(4) . . .
48(4) . . .
51(4) . . .
55(4) . . .
50(4) . . .
61(4) . . .
50(4) . . .
51(4) . . .
59(4) . . .
56(4) . . .
63(4) . . .
62(4) . . .
63(4) . . .
46(4) . . .
45.1(35) . . .
49(4) . . .
57(4) . . .
58(4) . . .
53(4) . . .
57(4) . . .
60(4) . . .
57(4) . . .
50(4) . . .
52(4) . . .
53(4) . . .
48(4) . . .
40.7(33) . . .
53(4) . . .
49(4) . . .
56(4) . . .
59(4) . . .
61(4) . . .
65(4) . . .
56(4) . . .
49(4) . . .
61(4) . . .
57(4) . . .
51(4) . . .
63(4) . . .
52(4) . . .
59(4) . . .
65(5) . . .
59(4) . . .
56(4) . . .
54(4) . . .
62(4) . . .
67(4) . . .
51(4) . . .
50(4) . . .
53(4) . . .
62(4) . . .
60(4) . . .
48(4) . . .
48(4) . . .
59(4) . . .
53(4) . . .
57(4) . . .
59(4) . . .
45(4) . . .
48(4) . . .
50(4) . . .
48(4) . . .
61(4) . . .
55(4) . . .
61(4) . . .
52(4) . . .
43(4) . . .
46(4) . . .
52(4) . . .
54(4) . . .
58(4) . . .
56(4) . . .
53(4) . . .
52(4) . . .
58(4) . . .
54(4) . . .
46(4) . . .
56(4) . . .
45(4) . . .
50(4) . . .
59(4) . . .
57(4) . . .
59(4) . . .
54(4) . . .
57(4) . . .
54(4) . . .
53(4) . . .
50(4) . . .
63(4) . . .
62(4) . . .
60(4) . . .
64(4) . . .
48(4) . . .
48(4) . . .
63(5) . . .
56(4) . . .
53(4) . . .
54(4) . . .
59(4) . . .
58(4) . . .
59(4) . . .
44(4) . . .
51(4) . . .
54(4) . . .
50(4) . . .
60(4) . . .
67(4) . . .
54(4) . . .
59(4) . . .
52(4) . . .
54(4) . . .
46(4) . . .
43.8(35) . . .
54(4) . . .
55(4) . . .
51(4) . . .
49(4) . . .
49(4) . . .
50(4) . . .
53(4) . . .
54(4) . . .
50(4) . . .
52(4) . . .
56(4) . . .
51(4) . . .
52(4) . . .
48(4) . . .
49(4) . . .
56(4) . . .
58(4) . . .
71(5) . . .
73(4) . . .
54(4) . . .
59(4) . . .
67(4) . . .
61(4) . . .
44.2(35) . . .
55(4) . . .
52(4) . . .
42(4) . . .
62(4) . . .
65(4) . . .
52(4) . . .
62(4) . . .
52(4) . . .
53(4) . . .
56(4) . . .
64(4) . . .
57(4) . . .
61(4) . . .
63(4) . . .
65(4) . . .
55(4) . . .
58(4) . . .
56(4) . . .
50(4) . . .
68(4) . . .
53(4) . . .
47(4) . . .
55(4) . . .
60(4) . . .
48(4) . . .
53(4) . . .
71(5) . . .
56(4) . . .
50(4) . . .
53(4) . . .
50(4) . . .
53(4) . . .
63(4) . . .
64(4) . . .
63(4) . . .
57(4) . . .
59(4) . . .
55(4) . . .
63(4) . . .
63(4) . . .
64(4) . . .
54(4) . . .
65(4) . . .
50(4) . . .
59(4) . . .
57(4) . . .
58(4) . . .
58(4) . . .
65(4) . . .
56(4) . . .
58(4) . . .
54(4) . . .
58(4) . . .
54(4) . . .
58(4) . . .
51(4) . . .
52(4) . . .
48(4) . . .
56(4) . . .
62(4) . . .
57(4) . . .
58(4) . . .
59(4) . . .
51(4) . . .
62(4) . . .
61(4) . . .
66(4) . . .
63(4) . . .
61(4) . . .
55(4) . . .
50(4) . . .
55(4) . . .
64(4) . . .
56(4) . . .
57(4) . . .
62(4) . . .
66(4) . . .
61(4) . . .
51(4) . . .
50(4) . . .
60(4) . . .
61(4) . . .
58(4) . . .
53(4) . . .
57(4) . . .
51(4) . . .
52(4) . . .
56(4) . . .
68(4) . . .
57(4) . . .
50(4) . . .
62(4) . . .
59(4) . . .
60(4) . . .
60(4) . . .
63(4) . . .
56(4) . . .
51(4) . . .
45.2(35) . . .
50(4) . . .
50(4) . . .
64(4) . . .
64(4) . . .
73(5) . . .
59(4) . . .
57(4) . . .
53(4) . . .
59(4) . . .
58(4) . . .
48(4) . . .
53(4) . . .
57(4) . . .
63(4) . . .
54(4) . . .
59(4) . . .
63(4) . . .
51(4) . . .
59(4) . . .
51(4) . . .
57(4) . . .
52(4) . . .
62(4) . . .
47(4) . . .
48(4) . . .
54(4) . . .
49(4) . . .
64(4) . . .
57(4) . . .
57(4) . . .
50(4) . . .
56(4) . . .
58(4) . . .
63(4) . . .
66(4) . . .
55(4) . . .
54(4) . . .
55(4) . . .
54(4) . . .
53(4) . . .
60(4) . . .
44.2(34) . . .
56(4) . . .
58(4) . . .
53(4) . . .
43.7(34) . . .
63(4) . . .
56(4) . . .
57(4) . . .
56(4) . . .
50(4) . . .
52(4) . . .
62(4) . . .
55(4) . . .
59(4) . . .
51(4) . . .
52(4) . . .
56(4) . . .
57(4) . . .
55(4) . . .
54(4) . . .
60(4) . . .
56(4) . . .
62(4) . . .
59(4) . . .
54(4) . . .
55(4) . . .
63(4) . . .
53(4) . . .
56(4) . . .
58(4) . . .
54(4) . . .
58(4) . . .
57(4) . . .
48(4) . . .
48(4) . . .
50(4) . . .
49(4) . . .
49(4) . . .
58(4) . . .
49(4) . . .
51(4) . . .
52(4) . . .
59(4) . . .
60(4) . . .
52(4) . . .
49(4) . . .
54(4) . . .
52(4) . . .
64(5) . . .
60(4) . . .
65(4) . . .
63(4) . . .
57(4) . . .
48(4) . . .
60(4) . . .
46(4) . . .
50(4) . . .
52(4) . . .
49(4) . . .
46(4) . . .
61(4) . . .
54(4) . . .
52(4) . . .
49(4) . . .
61(4) . . .
65(4) . . .
53(4) . . .
44(4) . . .
43.2(34) . . .
56(4) . . .
53(4) . . .
50(4) . . .
52(4) . . .
56(4) . . .
51(4) . . .
48(4) . . .
56(4) . . .
51(4) . . .
53(4) . . .
52(4) . . .
66(4) . . .
56(4) . . .
48(4) . . .
60(4) . . .
58(4) . . .
55(4) . . .
67(5) . . .
47(4) . . .
53(4) . . .
57(4) . . .
56(4) . . .
58(4) . . .
56(4) . . .
59(4) . . .
68(4) . . .
53(4) . . .
57(4) . . .
55(4) . . .
48(4) . . .
67(4) . . .
52(4) . . .
53(4) . . .
57(4) . . .
59(4) . . .
62(4) . . .
55(4) . . .
54(4) . . .
49(4) . . .
54(4) . . .
56(4) . . .
48(4) . . .
59(4) . . .
60(4) . . .
54(4) . . .
54(4) . . .
65(4) . . .
57(4) . . .
54(4) . . .
64(4) . . .
52(4) . . .
53(4) . . .
55(4) . . .
56(4) . . .
54(4) . . .
52(4) . . .
58(4) . . .
57(4) . . .
52(4) . . .
49(4) . . .
64(4) . . .
66(4) . . .
44(4) . . .
59(4) . . .
52(4) . . .
60(4) . . .
65(4) . . .
56(4) . . .
53(4) . . .
59(4) . . .
56(4) . . .
58(4) . . .
73(5) . . .
54(4) . . .
47(4) . . .
60(4) . . .
60(4) . . .
47(4) . . .
67(4) . . .
60(4) . . .
59(4) . . .
56(4) . . .
61(4) . . .
61(4) . . .
53(4) . . .
51(4) . . .
53(4) . . .
44(4) . . .
59(4) . . .
60(4) . . .
53(4) . . .
53(4) . . .
55(4) . . .
48(4) . . .
58(4) . . .
57(4) . . .
51(4) . . .
67(5) . . .
68(4) . . .
52(4) . . .
52(4) . . .
54(4) . . .
65(4) . . .
52(4) . . .
53(4) . . .
58(4) . . .
52(4) . . .
63(4) . . .
62(4) . . .
51(4) . . .
47(4) . . .
52(4) . . .
60(4) . . .
56(4) . . .
45(4) . . .
42.3(35) . . .
54(4) . . .
57(4) . . .
54(4) . . .
59(4) . . .
54(4) . . .
41.5(34) . . .
45(4) . . .
52(4) . . .
54(4) . . .
62(4) . . .
57(4) . . .
61(4) . . .
55(4) . . .
53(4) . . .
53(4) . . .
64(4) . . .
58(4) . . .
65(4) . . .
58(4) . . .
53(4) . . .
48(4) . . .
59(4) . . .
50(4) . . .
51(4) . . .
61(4) . . .
54(4) . . .
53(4) . . .
60(4) . . .
55(4) . . .
58(4) . . .
54(4) . . .
53(4) . . .
55(4) . . .
58(4) . . .
57(4) . . .
59(4) . . .
58(4) . . .
51(4) . . .
56(4) . . .
47(4) . . .
49(4) . . .
58(4) . . .
60(4) . . .
60(4) . . .
56(4) . . .
53(4) . . .
55(4) . . .
63(4) . . .
56(4) . . .
54(4) . . .
58(4) . . .
54(4) . . .
59(4) . . .
64(5) . . .
55(4) . . .
49(4) . . .
53(4) . . .
62(4) . . .
50(4) . . .
53(4) . . .
50(4) . . .
51(4) . . .
52(4) . . .
61(4) . . .
55(4) . . .
54(4) . . .
55(4) . . .
66(5) . . .
66(5) . . .
54(4) . . .
50(4) . . .
65(4) . . .
64(4) . . .
58(4) . . .
55(4) . . .
51(4) . . .
56(4) . . .
70(4) . . .
66(4) . . .
53(4) . . .
51(4) . . .
55(4) . . .
49(4) . . .
53(4) . . .
57(4) . . .
45.8(35) . . .
55(4) . . .
52(4) . . .
49(4) . . .
58(4) . . .
57(4) . . .
64(4) . . .
64(4) . . .
56(4) . . .
68(4) . . .
62(4) . . .
56(4) . . .
49(4) . . .
59(4) . . .
48(4) . . .
62(4) . . .
61(4) . . .
54(4) . . .
57(4) . . .
53(4) . . .
52(4) . . .
53(4) . . .
51(4) . . .
51(4) . . .
54(4) . . .
58(4) . . .
59(4) . . .
61(4) . . .
55(4) . . .
71(5) . . .
53(4) . . .
71(5) . . .
54(4) . . .
56(4) . . .
63(4) . . .
64(4) . . .
52(4) . . .
61(4) . . .
68(4) . . .
53(4) . . .
54(4) . . .
51(4) . . .
50(4) . . .
63(4) . . .
60(4) . . .
57(4) . . .
48(4) . . .
58(4) . . .
54(4) . . .
57(4) . . .
53(4) . . .
67(5) . . .
54(4) . . .
64(5) . . .
53(4) . . .
62(4) . . .
52(4) . . .
57(4) . . .
51(4) . . .
49(4) . . .
60(4) . . .
53(4) . . .
61(4) . . .
58(4) . . .
53(4) . . .
52(4) . . .
50(4) . . .
56(4) . . .
57(4) . . .
51(4) . . .
52(4) . . .
63(4) . . .
53(4) . . .
61(4) . . .
54(4) . . .
52(4) . . .
63(4) . . .
60(4) . . .
52(4) . . .
65(4) . . .
53(4) . . .
63(4) . . .
58(4) . . .
58(4) . . .
59(4) . . .
60(4) . . .
55(4) . . .
64(4) . . .
62(4) . . .
51(4) . . .
65(4) . . .
55(4) . . .
55(4) . . .
53(4) . . .
51(4) . . .
62(4) . . .
58(4) . . .
60(4) . . .
57(4) . . .
47(4) . . .
55(4) . . .
58(4) . . .
61(4) . . .
57(4) . . .
44.9(35) . . .
59(4) . . .
55(4) . . .
59(4) . . .
59(4) . . .
59(4) . . .
52(4) . . .
49(4) . . .
50(4) . . .
60(4) . . .
59(4) . . .
51(4) . . .
51(4) . . .
48(4) . . .
59(4) . . .
57(4) . . .
48(4) . . .
50(4) . . .
67(4) . . .
68(4) . . .
69(4) . . .
54(4) . . .
59(4) . . .
60(4) . . .
50(4) . . .
54(4) . . .
56(4) . . .
62(4) . . .
64(4) . . .
52(4) . . .
54(4) . . .
54(4) . . .
63(4) . . .
57(4) . . .
50(4) . . .
47(4) . . .
65(5) . . .
55(4) . . .
58(4) . . .
55(4) . . .
60(4) . . .
61(5) . . .
59(4) . . .
64(4) . . .
59(4) . . .
56(4) . . .
62(4) . . .
64(4) . . .
55(4) . . .
66(4) . . .
61(4) . . .
60(4) . . .
59(4) . . .
57(4) . . .
40.6(34) . . .
52(4) . . .
54(4) . . .
48(4) . . .
52(4) . . .
51(4) . . .
57(4) . . .
54(4) . . .
60(4) . . .
58(4) . . .
56(4) . . .
49(4) . . .
52(4) . . .
54(4) . . .
61(4) . . .
47(4) . . .
59(4) . . .
52(4) . . .
55(4) . . .
59(4) . . .
50(4) . . .
53(4) . . .
50(4) . . .
61(4) . . .
52(4) . . .
60(4) . . .
59(4) . . .
55(4) . . .
44.9(35) . . .
55(4) . . .
58(4) . . .
52(4) . . .
53(4) . . .
55(4) . . .
50(4) . . .
58(4) . . .
67(4) . . .
56(4) . . .
66(4) . . .
59(4) . . .
56(4) . . .
63(4) . . .
56(4) . . .
51(4) . . .
54(4) . . .
55(4) . . .
60(4) . . .
48(4) . . .
47(4) . . .
52(4) . . .
59(4) . . .
59(4) . . .
58(4) . . .
53(4) . . .
56(4) . . .
66(5) . . .
65(5) . . .
65(4) . . .
55(4) . . .
53(4) . . .
48(4) . . .
63(4) . . .
64(4) . . .
57(4) . . .
65(4) . . .
57(4) . . .
53(4) . . .
55(4) . . .
61(4) . . .
57(4) . . .
50(4) . . .
53(4) . . .
52(4) . . .
59(4) . . .
63(4) . . .
62(4) . . .
61(4) . . .
58(4) . . .
61(4) . . .
49(4) . . .
49(4) . . .
62(4) . . .
52(4) . . .
57(4) . . .
55(4) . . .
55(4) . . .
51(4) . . .
53(4) . . .
48(4) . . .
59(4) . . .
56(4) . . .
52(4) . . .
59(4) . . .
50(4) . . .
55(4) . . .
57(4) . . .
55(4) . . .
55(4) . . .
59(4) . . .
56(4) . . .
52(4) . . .
55(4) . . .
53(4) . . .
51(4) . . .
62(4) . . .
64(4) . . .
62(4) . . .
52(4) . . .
47(4) . . .
49(4) . . .
41.4(34) . . .
53(4) . . .
46(4) . . .
51(4) . . .
51(4) . . .
62(4) . . .
62(4) . . .
67(4) . . .
58(4) . . .
63(4) . . .
57(4) . . .
59(4) . . .
60(4) . . .
43.2(35) . . .
55(4) . . .
58(4) . . .
60(4) . . .
61(4) . . .
52(4) . . .
48(4) . . .
57(4) . . .
59(4) . . .
48(4) . . .
50(4) . . .
58(4) . . .
56(4) . . .
51(4) . . .
58(4) . . .
48(4) . . .
52(4) . . .
63(4) . . .
48(4) . . .
43.7(34) . . .
54(4) . . .
52(4) . . .
68(5) . . .
64(4) . . .
58(4) . . .
54(4) . . .
53(4) . . .
52(4) . . .
51(4) . . .
56(4) . . .
57(4) . . .
54(4) . . .
55(4) . . .
63(4) . . .
54(4) . . .
59(4) . . .
47(4) . . .
55(4) . . .
62(4) . . .
56(4) . . .
52(4) . . .
54(4) . . .
62(4) . . .
55(4) . . .
62(4) . . .
58(4) . . .
48(4) . . .
49(4) . . .
52(4) . . .
60(4) . . .
69(5) . . .
62(4) . . .
56(4) . . .
52(4) . . .
62(4) . . .
53(4) . . .
56(4) . . .
47(4) . . .
54(4) . . .
56(4) . . .
63(4) . . .
64(4) . . .
62(4) . . .
60(4) . . .
56(4) . . .
58(4) . . .
61(4) . . .
60(4) . . .
66(4) . . .
60(4) . . .
58(4) . . .
51(4) . . .
48(4) . . .
49(4) . . .
54(4) . . .
55(4) . . .
61(4) . . .
55(4) . . .
57(4) . . .
48(4) . . .
57(4) . . .
62(4) . . .
55(4) . . .
61(4) . . .
59(4) . . .
61(4) . . .
49(4) . . .
53(4) . . .
41.8(33) . . .
55(4) . . .
48(4) . . .
58(4) . . .
52(4) . . .
53(4) . . .
45.7(35) . . .
62(4) . . .
63(4) . . .
56(4) . . .
48(4) . . .
57(4) . . .
55(4) . . .
58(4) . . .
58(4) . . .
50(4) . . .
55(4) . . .
52(4) . . .
57(4) . . .
55(4) . . .
67(4) . . .
67(5) . . .
54(4) . . .
42.4(34) . . .
47(4) . . .
54(4) . . .
57(4) . . .
60(4) . . .
59(4) . . .
51(4) . . .
57(4) . . .
55(4) . . .
61(4) . . .
52(4) . . .
55(4) . . .
62(4) . . .
42(4) . . .
54(4) . . .
55(4) . . .
54(4) . . .
63(4) . . .
57(4) . . .
47(4) . . .
57(4) . . .
62(4) . . .
59(4) . . .
53(4) . . .
61(4) . . .
59(4) . . .
57(4) . . .
58(4) . . .
55(4) . . .
48(4) . . .
46(4) . . .
60(4) . . .
64(4) . . .
57(4) . . .
53(4) . . .
50(4) . . .
66(4) . . .
55(4) . . .
51(4) . . .
64(4) . . .
64(4) . . .
53(4) . . .
58(4) . . .
55(4) . . .
51(4) . . .
50(4) . . .
55(4) . . .
57(4) . . .
57(4) . . .
54(4) . . .
53(4) . . .
50(4) . . .
62(4) . . .
68(4) . . .
62(4) . . .
63(4) . . .
44(4) . . .
49(4) . . .
49(4) . . .
39.7(33) . . .
53(4) . . .
56(4) . . .
62(4) . . .
61(4) . . .
59(4) . . .
63(4) . . .
49(4) . . .
56(4) . . .
64(4) . . .
59(4) . . .
59(4) . . .
62(4) . . .
48(4) . . .
47(4) . . .
63(4) . . .
57(4) . . .
62(4) . . .
63(4) . . .
61(4) . . .
54(4) . . .
47(4) . . .
51(4) . . .
55(4) . . .
59(4) . . .
55(4) . . .
60(4) . . .
60(4) . . .
53(4) . . .
50(4) . . .
52(4) . . .
65(4) . . .
58(4) . . .
60(4) . . .
56(4) . . .
63(4) . . .
48(4) . . .
61(5) . . .
57(4) . . .
57(4) . . .
58(4) . . .
56(4) . . .
67(5) . . .
62(4) . . .
57(4) . . .
59(4) . . .
51(4) . . .
56(4) . . .
54(4) . . .
57(4) . . .
59(4) . . .
64(4) . . .
52(4) . . .
61(5) . . .
59(4) . . .
59(4) . . .
56(4) . . .
64(5) . . .
65(4) . . .
50(4) . . .
49(4) . . .
57(4) . . .
57(4) . . .
50(4) . . .
50(4) . . .
52(4) . . .
51(4) . . .
48(4) . . .
49(4) . . .
54(4) . . .
49(4) . . .
56(4) . . .
61(4) . . .
61(4) . . .
69(4) . . .
60(4) . . .
50(4) . . .
51(4) . . .
48(4) . . .
45(4) . . .
61(4) . . .
48(4) . . .
54(4) . . .
63(4) . . .
47(4) . . .
53(4) . . .
52(4) . . .
63(4) . . .
54(4) . . .
49(4) . . .
57(4) . . .
47(4) . . .
48(4) . . .
51(4) . . .
49(4) . . .
51(4) . . .
61(5) . . .
44(4) . . .
53(4) . . .
50(4) . . .
42.0(33) . . .
58(4) . . .
55(4) . . .
54(4) . . .
56(4) . . .
56(4) . . .
63(4) . . .
57(4) . . .
50(4) . . .
51(4) . . .
48(4) . . .
62(4) . . .
63(4) . . .
59(4) . . .
57(4) . . .
58(4) . . .
57(4) . . .
58(4) . . .
58(4) . . .
59(4) . . .
52(4) . . .
56(4) . . .
52(4) . . .
60(4) . . .
57(4) . . .
56(4) . . .
55(4) . . .
55(4) . . .
51(4) . . .
61(4) . . .
57(4) . . .
62(4) . . .
59(4) . . .
54(4) . . .
56(4) . . .
58(4) . . .
60(4) . . .
53(4) . . .
53(4) . . .
49(4) . . .
56(4) . . .
60(4) . . .
56(4) . . .
53(4) . . .
57(4) . . .
63(4) . . .
60(4) . . .
56(4) . . .
57(4) . . .
47(4) . . .
50(4) . . .
42.7(34) . . .
55(4) . . .
71(4) . . .
55(4) . . .
61(4) . . .
51(4) . . .
50(4) . . .
62(4) . . .
61(4) . . .
57(4) . . .
56(4) . . .
61(4) . . .
73(4) . . .
64(4) . . .
57(4) . . .
56(4) . . .
56(4) . . .
54(4) . . .
54(4) . . .
56(4) . . .
54(4) . . .
60(4) . . .
62(4) . . .
58(4) . . .
58(4) . . .
64(4) . . .
54(4) . . .
65(4) . . .
65(4) . . .
55(4) . . .
56(4) . . .
65(4) . . .
55(4) . . .
59(4) . . .
56(4) . . .
53(4) . . .
51(4) . . .
55(4) . . .
58(4) . . .
61(4) . . .
66(4) . . .
42.8(34) . . .
57(4) . . .
48(4) . . .
47(4) . . .
53(4) . . .
54(4) . . .
59(4) . . .
43.9(35) . . .
51(4) . . .
54(4) . . .
44.9(35) . . .
57(4) . . .
49(4) . . .
55(4) . . .
57(4) . . .
64(4) . . .
51(4) . . .
61(4) . . .
51(4) . . .
56(4) . . .
46(4) . . .
45(4) . . .
50(4) . . .
62(4) . . .
57(4) . . .
54(4) . . .
53(4) . . .
62(4) . . .
64(4) . . .
57(4) . . .
59(4) . . .
51(4) . . .
57(4) . . .
56(4) . . .
63(4) . . .
63(4) . . .
48(4) . . .
57(4) . . .
48(4) . . .
54(4) . . .
60(4) . . .
55(4) . . .
58(4) . . .
52(4) . . .
56(4) . . .
58(4) . . .
55(4) . . .
53(4) . . .
60(4) . . .
58(4) . . .
59(4) . . .
50(4) . . .
68(5) . . .
57(4) . . .
55(4) . . .
55(4) . . .
54(4) . . .
63(4) . . .
52(4) . . .
55(4) . . .
53(4) . . .
49(4) . . .
48(4) . . .
51(4) . . .
57(4) . . .
63(4) . . .
47(4) . . .
46(4) . . .
53(4) . . .
53(4) . . .
58(4) . . .
65(4) . . .
66(4) . . .
57(4) . . .
60(4) . . .
56(4) . . .
59(4) . . .
45.4(35) . . .
52(4) . . .
49(4) . . .
58(4) . . .
57(4) . . .
52(4) . . .
57(4) . . .
58(4) . . .
59(4) . . .
52(4) . . .
61(4) . . .
63(4) . . .
62(4) . . .
49(4) . . .
59(4) . . .
54(4) . . .
48(4) . . .
54(4) . . .
53(4) . . .
63(4) . . .
52(4) . . .
57(4) . . .
54(4) . . .
51(4) . . .
51(4) . . .
61(4) . . .
52(4) . . .
48(4) . . .
52(4) . . .
55(4) . . .
54(4) . . .
52(4) . . .
56(4) . . .
51(4) . . .
62(4) . . .
65(4) . . .
49(4) . . .
53(4) . . .
45(4) . . .
50(4) . . .
61(4) . . .
58(4) . . .
56(4) . . .
48(4) . . .
60(4) . . .
58(4) . . .
61(4) . . .
50(4) . . .
46(4) . . .
54(4) . . .
50(4) . . .
59(4) . . .
47(4) . . .
55(4) . . .
50(4) . . .
49(4) . . .
52(4) . . .
63(4) . . .
61(4) . . .
54(4) . . .
51(4) . . .
51(4) . . .
54(4) . . .
62(4) . . .
64(4) . . .
64(4) . . .
53(4) . . .
61(5) . . .
47(4) . . .
63(4) . . .
42.3(34) . . .
55(4) . . .
63(4) . . .
56(4) . . .
51(4) . . .
59(4) . . .
50(4) . . .
52(4) . . .
45(4) . . .
51(4) . . .
54(4) . . .
52(4) . . .
67(5) . . .
59(4) . . .
53(4) . . .
56(4) . . .
60(4) . . .
67(5) . . .
54(4) . . .
61(4) . . .
49(4) . . .
48(4) . . .
55(4) . . .
56(4) . . .
58(4) . . .
52(4) . . .
47(4) . . .
53(4) . . .
52(4) . . .
64(4) . . .
53(4) . . .
50(4) . . .
54(4) . . .
59(4) . . .
65(4) . . .
51(4) . . .
45(4) . . .
44(4) . . .
51(4) . . .
64(4) . . .
48(4) . . .
49(4) . . .
61(4) . . .
52(4) . . .
55(4) . . .
55(4) . . .
57(4) . . .
54(4) . . .
50(4) . . .
44.5(35) . . .
55(4) . . .
58(4) . . .
43.2(34) . . .
46(4) . . .
48(4) . . .
63(4) . . .
50(4) . . .
48(4) . . .
58(4) . . .
58(4) . . .
56(4) . . .
61(4) . . .
56(4) . . .
61(4) . . .
53(4) . . .
52(4) . . .
58(4) . . .
52(4) . . .
51(4) . . .
51(4) . . .
59(4) . . .
62(4) . . .
59(4) . . .
60(4) . . .
57(4) . . .
59(4) . . .
61(5) . . .
53(4) . . .
58(4) . . .
47(4) . . .
58(4) . . .
62(5) . . .
51(4) . . .
58(4) . . .
66(4) . . .
59(4) . . .
52(4) . . .
47(4) . . .
60(4) . . .
51(4) . . .
46(4) . . .
58(4) . . .
51(4) . . .
62(4) . . .
59(4) . . .
48(4) . . .
50(4) . . .
58(4) . . .
49(4) . . .
55(4) . . .
53(4) . . .
63(4) . . .
60(4) . . .
57(4) . . .
60(4) . . .
48(4) . . .
65(4) . . .
52(4) . . .
47(4) . . .
51(4) . . .
52(4) . . .
50(4) . . .
63(4) . . .
53(4) . . .
63(4) . . .
56(4) . . .
66(5) . . .
51(4) . . .
56(4) . . .
64(4) . . .
63(4) . . .
57(4) . . .
60(4) . . .
54(4) . . .
57(4) . . .
49(4) . . .
54(4) . . .
43.7(35) . . .
56(4) . . .
61(4) . . .
53(4) . . .
52(4) . . .
63(4) . . .
58(4) . . .
57(4) . . .
51(4) . . .
54(4) . . .
56(4) . . .
64(4) . . .
46(4) . . .
55(4) . . .
53(4) . . .
60(4) . . .
49(4) . . .
59(4) . . .
50(4) . . .
63(4) . . .
54(4) . . .
45(4) . . .
52(4) . . .
61(4) . . .
55(4) . . .
48(4) . . .
52(4) . . .
47(4) . . .
52(4) . . .
51(4) . . .
55(4) . . .
68(4) . . .
65(4) . . .
61(4) . . .
53(4) . . .
61(4) . . .
52(4) . . .
59(4) . . .
50(4) . . .
52(4) . . .
53(4) . . .
54(4) . . .
49(4) . . .
56(4) . . .
59(4) . . .
47(4) . . .
54(4) . . .
52(4) . . .
52(4) . . .
60(4) . . .
50(4) . . .
52(4) . . .
63(4) . . .
59(4) . . .
55(4) . . .
54(4) . . .
56(4) . . .
51(4) . . .
61(4) . . .
55(4) . . .
54(4) . . .
52(4) . . .
54(4) . . .
58(4) . . .
64(4) . . .
47(4) . . .
56(4) . . .
44(4) . . .
55(4) . . .
53(4) . . .
51(4) . . .
53(4) . . .
49(4) . . .
54(4) . . .
56(4) . . .
52(4) . . .
52(4) . . .
54(4) . . .
52(4) . . .
55(4) . . .
53(4) . . .
47(4) . . .
54(4) . . .
49(4) . . .
53(4) . . .
66(5) . . .
66(5) . . .
54(4) . . .
50(4) . . .
55(4) . . .
59(4) . . .
52(4) . . .
51(4) . . .
62(4) . . .
66(4) . . .
63(4) . . .
61(4) . . .
51(4) . . .
47(4) . . .
60(4) . . .
67(5) . . .
59(4) . . .
49(4) . . .
58(4) . . .
42.2(34) . . .
62(4) . . .
60(4) . . .
54(4) . . .
55(4) . . .
54(4) . . .
56(4) . . .
57(4) . . .
64(4) . . .
57(4) . . .
61(4) . . .
51(4) . . .
47(4) . . .
54(4) . . .
52(4) . . .
54(4) . . .
57(4) . . .
54(4) . . .
49(4) . . .
53(4) . . .
60(4) . . .
60(4) . . .
60(4) . . .
51(4) . . .
56(4) . . .
52(4) . . .
56(4) . . .
50(4) . . .
52(4) . . .
53(4) . . .
54(4) . . .
63(5) . . .
52(4) . . .
53(4) . . .
53(4) . . .
48(4) . . .
55(5) . . .
51(4) . . .
62(4) . . .
57(4) . . .
50(4) . . .
64(5) . . .
55(4) . . .
58(4) . . .
60(4) . . .
57(4) . . .
49(4) . . .
64(4) . . .
63(4) . . .
55(4) . . .
63(4) . . .
58(4) . . .
52(4) . . .
61(4) . . .
45.0(34) . . .
57(4) . . .
52(4) . . .
57(4) . . .
59(4) . . .
54(4) . . .
48(4) . . .
55(4) . . .
59(4) . . .
55(4) . . .
60(4) . . .
61(4) . . .
66(4) . . .
50(4) . . .
53(4) . . .
52(4) . . .
50(4) . . .
58(4) . . .
50(4) . . .
49(4) . . .
57(4) . . .
52(4) . . .
47(4) . . .
45(4) . . .
59(4) . . .
53(4) . . .
53(4) . . .
47(4) . . .
64(4) . . .
56(4) . . .
56(4) . . .
57(4) . . .
55(4) . . .
58(4) . . .
54(4) . . .
57(4) . . .
63(5) . . .
52(4) . . .
63(4) . . .
62(4) . . .
55(4) . . .
57(4) . . .
61(4) . . .
58(4) . . .
63(4) . . .
74(5) . . .
51(4) . . .
55(4) . . .
53(4) . . .
47(4) . . .
50(4) . . .
66(5) . . .
61(4) . . .
56(4) . . .
41.3(34) . . .
61(4) . . .
58(4) . . .
48(4) . . .
54(4) . . .
53(4) . . .
47(4) . . .
58(4) . . .
61(4) . . .
52(4) . . .
58(4) . . .
54(4) . . .
57(4) . . .
53(4) . . .
64(4) . . .
58(4) . . .
53(4) . . .
50(4) . . .
55(4) . . .
50(4) . . .
44(4) . . .
46(4) . . .
56(4) . . .
56(4) . . .
51(4) . . .
44(4) . . .
50(4) . . .
59(4) . . .
50(4) . . .
56(4) . . .
61(4) . . .
52(4) . . .
57(4) . . .
50(4) . . .
57(4) . . .
57(4) . . .
52(4) . . .
55(4) . . .
65(4) . . .
54(4) . . .
44(4) . . .
49(4) . . .
58(4) . . .
58(4) . . .
49(4) . . .
57(4) . . .
55(4) . . .
54(4) . . .
50(4) . . .
57(4) . . .
62(4) . . .
56(4) . . .
53(4) . . .
63(4) . . .
49(4) . . .
63(5) . . .
55(4) . . .
51(4) . . .
58(4) . . .
61(4) . . .
66(5) . . .
54(4) . . .
49(4) . . .
62(4) . . .
60(4) . . .
57(4) . . .
54(4) . . .
47(4) . . .
44.5(35) . . .
52(4) . . .
61(5) . . .
47(4) . . .
65(4) . . .
64(4) . . .
50(4) . . .
55(4) . . .
61(4) . . .
70(4) . . .
54(4) . . .
53(4) . . .
54(4) . . .
60(4) . . .
48(4) . . .
65(4) . . .
58(4) . . .
54(4) . . .
50(4) . . .
49(4) . . .
55(4) . . .
57(4) . . .
65(5) . . .
67(4) . . .
61(4) . . .
55(4) . . .
55(4) . . .
54(4) . . .
52(4) . . .
56(4) . . .
57(4) . . .
56(4) . . .
53(4) . . .
59(4) . . .
47(4) . . .
61(4) . . .
56(4) . . .
56(4) . . .
46(4) . . .
50(4) . . .
53(4) . . .
62(4) . . .
55(4) . . .
52(4) . . .
63(4) . . .
57(4) . . .
55(4) . . .
48(4) . . .
48(4) . . .
50(4) . . .
60(4) . . .
59(4) . . .
56(4) . . .
55(4) . . .
55(4) . . .
58(4) . . .
50(4) . . .
50(4) . . .
63(4) . . .
60(4) . . .
60(4) . . .
55(4) . . .
59(4) . . .
59(4) . . .
59(4) . . .
51(4) . . .
68(5) . . .
66(4) . . .
53(4) . . .
61(4) . . .
61(4) . . .
67(5) . . .
61(4) . . .
56(4) . . .
62(4) . . .
58(4) . . .
52(4) . . .
53(4) . . .
54(4) . . .
71(5) . . .
60(4) . . .
55(4) . . .
62(4) . . .
58(4) . . .
58(4) . . .
52(4) . . .
62(4) . . .
52(4) . . .
49(4) . . .
55(4) . . .
63(4) . . .
51(4) . . .
47(4) . . .
53(4) . . .
50(4) . . .
54(4) . . .
51(4) . . .
57(4) . . .
54(4) . . .
48(4) . . .
67(5) . . .
57(4) . . .
54(4) . . .
64(4) . . .
55(4) . . .
60(4) . . .
64(4) . . .
52(4) . . .
58(4) . . .
53(4) . . .
58(4) . . .
46(4) . . .
51(4) . . .
46(4) . . .
51(4) . . .
63(4) . . .
57(4) . . .
64(4) . . .
57(4) . . .
62(4) . . .
59(4) . . .
59(4) . . .
51(4) . . .
64(4) . . .
67(4) . . .
55(4) . . .
61(4) . . .
55(4) . . .
57(4) . . .
47(4) . . .
58(4) . . .
59(4) . . .
49(4) . . .
56(4) . . .
54(4) . . .
48(4) . . .
65(4) . . .
51(4) . . .
54(4) . . .
52(4) . . .
51(4) . . .
57(4) . . .
43.2(34) . . .
50(4) . . .
59(4) . . .
60(4) . . .
62(4) . . .
57(4) . . .
48(4) . . .
56(4) . . .
52(4) . . .
54(4) . . .
52(4) . . .
55(4) . . .
49(4) . . .
47(4) . . .
54(4) . . .
43.1(35) . . .
49(4) . . .
47(4) . . .
58(4) . . .
57(4) . . .
50(4) . . .
56(4) . . .
59(4) . . .
46(4) . . .
60(4) . . .
56(4) . . .
61(4) . . .
58(4) . . .
66(4) . . .
48(4) . . .
46(4) . . .
54(4) . . .
51(4) . . .
49(4) . . .
63(4) . . .
64(4) . . .
47(4) . . .
51(4) . . .
57(4) . . .
52(4) . . .
49(4) . . .
56(4) . . .
57(4) . . .
56(4) . . .
56(4) . . .
48(4) . . .
61(4) . . .
50(4) . . .
48(4) . . .
56(4) . . .
56(4) . . .
62(4) . . .
56(4) . . .
55(4) . . .
51(4) . . .
60(4) . . .
62(4) . . .
55(4) . . .
50(4) . . .
51(4) . . .
52(4) . . .
45(4) . . .
55(4) . . .
50(4) . . .
56(4) . . .
59(4) . . .
60(4) . . .
47(4) . . .
64(4) . . .
60(4) . . .
58(4) . . .
71(5) . . .
62(4) . . .
63(4) . . .
51(4) . . .
55(4) . . .
59(5) . . .
54(4) . . .
52(4) . . .
62(4) . . .
59(4) . . .
56(4) . . .
60(4) . . .
52(4) . . .
64(4) . . .
50(4) . . .
57(4) . . .
58(4) . . .
51(4) . . .
52(4) . . .
47(4) . . .
50(4) . . .
59(4) . . .
53(4) . . .
47(4) . . .
63(4) . . .
55(4) . . .
59(4) . . .
56(4) . . .
53(4) . . .
56(4) . . .
59(4) . . .
49(4) . . .
58(4) . . .
51(4) . . .
52(4) . . .
56(4) . . .
52(4) . . .
38.0(32) . . .
62(4) . . .
60(4) . . .
58(4) . . .
46(4) . . .
52(4) . . .
50(4) . . .
60(4) . . .
58(4) . . .
44.8(35) . . .
52(4) . . .
59(4) . . .
49(4) . . .
56(4) . . .
48(4) . . .
61(4) . . .
54(4) . . .
58(4) . . .
57(4) . . .
62(4) . . .
54(4) . . .
49(4) . . .
49(4) . . .
57(4) . . .
55(4) . . .
47(4) . . .
54(4) . . .
47(4) . . .
50(4) . . .
56(4) . . .
49(4) . . .
60(4) . . .
54(4) . . .
55(4) . . .
41.9(34) . . .
56(4) . . .
58(4) . . .
49(4) . . .
58(4) . . .
49(4) . . .
57(4) . . .
55(4) . . .
55(4) . . .
55(4) . . .
50(4) . . .
47(4) . . .
57(4) . . .
51(4) . . .
56(4) . . .
49(4) . . .
58(4) . . .
53(4) . . .
65(4) . . .
57(4) . . .
52(4) . . .
53(4) . . .
48(4) . . .
53(4) . . .
68(4) . . .
59(4) . . .
56(4) . . .
65(5) . . .
52(4) . . .
60(4) . . .
47(4) . . .
54(4) . . .
53(4) . . .
47(4) . . .
54(4) . . .
55(4) . . .
52(4) . . .
53(4) . . .
42.2(34) . . .
51(4) . . .
47(4) . . .
50(4) . . .
54(4) . . .
68(5) . . .
57(4) . . .
61(4) . . .
54(4) . . .
51(4) . . .
56(4) . . .
53(4) . . .
58(4) . . .
54(4) . . .
56(4) . . .
63(4) . . .
48(4) . . .
62(4) . . .
51(4) . . .
48(4) . . .
57(4) . . .
58(4) . . .
55(4) . . .
48(4) . . .
47(4) . . .
51(4) . . .
52(4) . . .
52(4) . . .
55(4) . . .
55(4) . . .
58(4) . . .
57(4) . . .
53(4) . . .
61(5) . . .
53(4) . . .
61(4) . . .
55(4) . . .
46(4) . . .
58(4) . . .
67(5) . . .
65(4) . . .
55(4) . . .
55(4) . . .
56(4) . . .
51(4) . . .
56(4) . . .
53(4) . . .
61(4) . . .
57(4) . . .
58(4) . . .
56(4) . . .
62(4) . . .
64(4) . . .
49(4) . . .
55(4) . . .
55(4) . . .
52(4) . . .
41.8(35) . . .
50(4) . . .
57(4) . . .
58(4) . . .
49(4) . . .
62(4) . . .
58(4) . . .
56(4) . . .
59(4) . . .
64(4) . . .
56(4) . . .
60(4) . . .
52(4) . . .
53(4) . . .
54(4) . . .
56(4) . . .
65(4) . . .
60(4) . . .
53(4) . . .
53(4) . . .
60(4) . . .
54(4) . . .
56(4) . . .
57(4) . . .
53(4) . . .
52(4) . . .
46(4) . . .
62(4) . . .
52(4) . . .
55(4) . . .
54(4) . . .
60(4) . . .
47(4) . . .
55(4) . . .
58(4) . . .
55(4) . . .
65(4) . . .
50(4) . . .
61(4) . . .
53(4) . . .
56(4) . . .
55(4) . . .
57(4) . . .
59(4) . . .
56(4) . . .
48(4) . . .
54(4) . . .
43.8(35) . . .
63(4) . . .
60(4) . . .
46(4) . . .
54(4) . . .
65(4) . . .
50(4) . . .
60(4) . . .
47(4) . . .
51(4) . . .
57(4) . . .
58(4) . . .
56(4) . . .
58(4) . . .
51(4) . . .
56(4) . . .
60(4) . . .
56(4) . . .
55(4) . . .
50(4) . . .
51(4) . . .
71(5) . . .
61(4) . . .
60(4) . . .
51(4) . . .
48(4) . . .
57(4) . . .
60(4) . . .
59(4) . . .
62(4) . . .
44.2(34) . . .
56(4) . . .
52(4) . . .
62(4) . . .
59(4) . . .
52(4) . . .
49(4) . . .
63(5) . . .
52(4) . . .
51(4) . . .
50(4) . . .
55(4) . . .
56(4) . . .
62(4) . . .
56(4) . . .
56(4) . . .
58(4) . . .
53(4) . . .
55(4) . . .
54(4) . . .
48(4) . . .
63(4) . . .
53(4) . . .
55(4) . . .
41.7(34) . . .
45(4) . . .
50(4) . . .
47(4) . . .
53(4) . . .
56(4) . . .
47(4) . . .
55(4) . . .
49(4) . . .
55(4) . . .
52(4) . . .
44(4) . . .
53(4) . . .
50(4) . . .
51(4) . . .
54(4) . . .
51(4) . . .
58(4) . . .
58(4) . . .
53(4) . . .
52(4) . . .
59(4) . . .
48(4) . . .
48(4) . . .
58(4) . . .
55(4) . . .
51(4) . . .
51(4) . . .
50(4) . . .
47(4) . . .
58(4) . . .
55(4) . . .
57(4) . . .
57(4) . . .
48(4) . . .
55(4) . . .
46(4) . . .
50(4) . . .
56(4) . . .
55(4) . . .
60(4) . . .
55(4) . . .
47(4) . . .
55(4) . . .
51(4) . . .
52(4) . . .
67(4) . . .
62(4) . . .
54(4) . . .
61(4) . . .
60(4) . . .
48(4) . . .
54(4) . . .
57(4) . . .
60(4) . . .
56(4) . . .
63(4) . . .
60(4) . . .
65(4) . . .
63(4) . . .
46(4) . . .
51(4) . . .
57(4) . . .
64(4) . . .
58(4) . . .
49(4) . . .
56(4) . . .
56(4) . . .
54(4) . . .
70(4) . . .
54(4) . . .
49(4) . . .
49(4) . . .
53(4) . . .
61(4) . . .
54(4) . . .
54(4) . . .
51(4) . . .
50(4) . . .
57(4) . . .
56(4) . . .
58(5) . . .
50(4) . . .
64(4) . . .
53(4) . . .
63(4) . . .
54(4) . . .
54(4) . . .
53(4) . . .
55(4) . . .
67(4) . . .
58(4) . . .
55(4) . . .
58(4) . . .
56(4) . . .
51(4) . . .
49(4) . . .
61(4) . . .
49(4) . . .
60(4) . . .
50(4) . . .
38.9(33) . . .
54(4) . . .
55(4) . . .
56(4) . . .
58(4) . . .
60(4) . . .
58(4) . . .
51(4) . . .
54(4) . . .
54(4) . . .
61(4) . . .
59(4) . . .
60(4) . . .
55(4) . . .
57(4) . . .
57(4) . . .
48(4) . . .
39.9(33) . . .
49(4) . . .
60(4) . . .
57(4) . . .
53(4) . . .
57(4) . . .
57(4) . . .
55(4) . . .
66(5) . . .
60(4) . . .
57(4) . . .
59(4) . . .
54(4) . . .
53(4) . . .
60(4) . . .
56(4) . . .
57(4) . . .
57(4) . . .
61(4) . . .
58(4) . . .
54(4) . . .
54(4) . . .
54(4) . . .
53(4) . . .
50(4) . . .
52(4) . . .
52(4) . . .
58(4) . . .
60(4) . . .
59(4) . . .
58(4) . . .
52(4) . . .
50(4) . . .
54(4) . . .
54(4) . . .
52(4) . . .
61(4) . . .
52(4) . . .
55(4) . . .
55(4) . . .
59(4) . . .
64(4) . . .
63(4) . . .
56(4) . . .
56(4) . . .
57(4) . . .
46(4) . . .
59(4) . . .
58(4) . . .
59(4) . . .
48(4) . . .
54(4) . . .
47(4) . . .
56(4) . . .
41.1(33) . . .
60(4) . . .
49(4) . . .
51(4) . . .
67(4) . . .
63(4) . . .
54(4) . . .
59(4) . . .
52(4) . . .
52(4) . . .
59(4) . . .
51(4) . . .
50(4) . . .
63(4) . . .
58(4) . . .
48(4) . . .
57(4) . . .
49(4) . . .
55(4) . . .
53(4) . . .
59(4) . . .
58(4) . . .
53(4) . . .
55(4) . . .
51(4) . . .
53(4) . . .
56(4) . . .
49(4) . . .
49(4) . . .
49(4) . . .
55(4) . . .
52(4) . . .
53(4) . . .
45(4) . . .
48(4) . . .
49(4) . . .
60(4) . . .
62(4) . . .
65(4) . . .
58(4) . . .
59(4) . . .
56(4) . . .
51(4) . . .
57(4) . . .
58(4) . . .
53(4) . . .
58(4) . . .
66(4) . . .
54(4) . . .
46(4) . . .
57(4) . . .
53(4) . . .
66(5) . . .
54(4) . . .
54(4) . . .
50(4) . . .
59(4) . . .
61(4) . . .
54(4) . . .
62(4) . . .
51(4) . . .
55(4) . . .
58(4) . . .
61(4) . . .
51(4) . . .
45(4) . . .
63(4) . . .
64(4) . . .
57(4) . . .
48(4) . . .
63(4) . . .
57(4) . . .
53(4) . . .
56(4) . . .
57(4) . . .
52(4) . . .
59(4) . . .
56(4) . . .
46.8(35) . . .
48(4) . . .
46(4) . . .
52(4) . . .
54(4) . . .
52(4) . . .
46(4) . . .
53(4) . . .
50(4) . . .
51(4) . . .
59(4) . . .
52(4) . . .
56(4) . . .
53(4) . . .
63(4) . . .
58(4) . . .
53(4) . . .
63(4) . . .
61(4) . . .
62(4) . . .
67(4) . . .
56(4) . . .
52(4) . . .
58(4) . . .
60(4) . . .
45(4) . . .
59(4) . . .
62(4) . . .
56(4) . . .
52(4) . . .
67(4) . . .
53(4) . . .
51(4) . . .
59(4) . . .
48(4) . . .
54(4) . . .
62(4) . . .
44(4) . . .
50(4) . . .
43.0(34) . . .
54(4) . . .
57(4) . . .
60(4) . . .
48(4) . . .
51(4) . . .
52(4) . . .
47(4) . . .
50(4) . . .
58(4) . . .
52(4) . . .
53(4) . . .
62(4) . . .
61(4) . . .
62(4) . . .
71(4) . . .
54(4) . . .
52(4) . . .
52(4) . . .
46(4) . . .
56(4) . . .
59(4) . . .
43(4) . . .
55(4) . . .
62(4) . . .
56(4) . . .
54(4) . . .
48(4) . . .
52(4) . . .
54(4) . . .
55(4) . . .
57(4) . . .
57(4) . . .
52(4) . . .
52(4) . . .
54(4) . . .
61(4) . . .
62(5) . . .
58(4) . . .
65(4) . . .
64(4) . . .
61(4) . . .
57(4) . . .
56(4) . . .
42(4) . . .
62(4) . . .
57(4) . . .
49(4) . . .
52(4) . . .
54(4) . . .
55(4) . . .
54(4) . . .
53(4) . . .
47(4) . . .
53(4) . . .
64(4) . . .
55(4) . . .
49(4) . . .
50(4) . . .
51(4) . . .
45(4) . . .
55(4) . . .
60(4) . . .
58(4) . . .
53(4) . . .
49(4) . . .
58(4) . . .
51(4) . . .
52(4) . . .
55(4) . . .
45(4) . . .
56(4) . . .
61(4) . . .
64(4) . . .
48(4) . . .
61(4) . . .
51(4) . . .
47(4) . . .
58(4) . . .
52(4) . . .
54(4) . . .
61(4) . . .
54(4) . . .
49(4) . . .
55(4) . . .
54(4) . . .
48(4) . . .
63(5) . . .
51(4) . . .
49(4) . . .
42.1(35) . . .
58(4) . . .
49(4) . . .
51(4) . . .
59(4) . . .
59(4) . . .
59(4) . . .
62(4) . . .
55(4) . . .
49(4) . . .
51(4) . . .
62(5) . . .
53(4) . . .
50(4) . . .
58(4) . . .
66(4) . . .
51(4) . . .
51(4) . . .
61(4) . . .
52(4) . . .
50(4) . . .
49(4) . . .
54(4) . . .
43.9(35) . . .
51(4) . . .
56(4) . . .
52(4) . . .
55(4) . . .
52(4) . . .
56(4) . . .
51(4) . . .
53(4) . . .
49(4) . . .
51(4) . . .
44(4) . . .
48(4) . . .
51(4) . . .
51(4) . . .
54(4) . . .
54(4) . . .
47(4) . . .
46(4) . . .
57(4) . . .
55(4) . . .
51(4) . . .
57(4) . . .
47(4) . . .
53(4) . . .
52(4) . . .
60(4) . . .
56(4) . . .
60(4) . . .
61(4) . . .
58(4) . . .
64(4) . . .
56(4) . . .
53(4) . . .
52(4) . . .
49(4) . . .
52(4) . . .
56(4) . . .
56(4) . . .
48(4) . . .
44.2(34) . . .
49(4) . . .
50(4) . . .
56(4) . . .
53(4) . . .
59(4) . . .
45(4) . . .
42(4) . . .
50(4) . . .
57(4) . . .
56(4) . . .
54(4) . . .
52(4) . . .
50(4) . . .
56(4) . . .
46(4) . . .
49(4) . . .
53(4) . . .
59(4) . . .
58(4) . . .
55(4) . . .
55(4) . . .
62(4) . . .
50(4) . . .
65(4) . . .
52(4) . . .
54(4) . . .
53(4) . . .
59(4) . . .
54(4) . . .
67(4) . . .
51(4) . . .
55(4) . . .
59(4) . . .
52(4) . . .
58(4) . . .
59(4) . . .
59(4) . . .
52(4) . . .
51(4) . . .
63(4) . . .
46(4) . . .
61(4) . . .
50(4) . . .
57(4) . . .
46(4) . . .
64(5) . . .
58(4) . . .
58(4) . . .
59(4) . . .
51(4) . . .
50(4) . . .
47(4) . . .
56(4) . . .
56(4) . . .
45(4) . . .
51(4) . . .
43.1(35) . . .
52(4) . . .
54(4) . . .
52(4) . . .
57(4) . . .
56(4) . . .
49(4) . . .
47(4) . . .
54(4) . . .
49(4) . . .
56(4) . . .
65(4) . . .
46(4) . . .
48(4) . . .
47(4) . . .
53(4) . . .
48(4) . . .
53(4) . . .
61(4) . . .
66(4) . . .
59(4) . . .
64(4) . . .
57(4) . . .
54(4) . . .
56(4) . . .
64(4) . . .
54(4) . . .
47(4) . . .
58(4) . . .
58(4) . . .
55(4) . . .
58(4) . . .
52(4) . . .
55(4) . . .
58(4) . . .
54(4) . . .
52(4) . . .
51(4) . . .
49(4) . . .
54(4) . . .
45.4(35) . . .
53(4) . . .
51(4) . . .
53(4) . . .
61(4) . . .
65(4) . . .
65(4) . . .
55(4) . . .
43(4) . . .
53(4) . . .
49(4) . . .
54(4) . . .
49(4) . . .
50(4) . . .
54(4) . . .
43.7(34) . . .
47(4) . . .
47(4) . . .
48(4) . . .
55(4) . . .
57(4) . . .
55(4) . . .
55(4) . . .
49(4) . . .
57(4) . . .
52(4) . . .
52(4) . . .
59(4) . . .
57(4) . . .
53(4) . . .
50(4) . . .
45.0(35) . . .
43(4) . . .
43(4) . . .
43(4) . . .
58(4) . . .
57(4) . . .
53(4) . . .
52(4) . . .
50(4) . . .
51(4) . . .
68(5) . . .
50(4) . . .
49(4) . . .
55(4) . . .
63(4) . . .
58(4) . . .
49(4) . . .
46(4) . . .
47(4) . . .
47(4) . . .
54(4) . . .
57(4) . . .
58(4) . . .
46.6(35) . . .
55(4) . . .
41.0(33) . . .
52(4) . . .
49(4) . . .
59(4) . . .
41.7(34) . . .
44(4) . . .
51(4) . . .
59(4) . . .
57(4) . . .
55(4) . . .
58(4) . . .
51(4) . . .
55(4) . . .
65(4) . . .
60(4) . . .
62(4) . . .
58(4) . . .
57(4) . . .
53(4) . . .
54(4) . . .
59(4) . . .
55(4) . . .
64(4) . . .
55(4) . . .
54(4) . . .
54(4) . . .
55(4) . . .
59(4) . . .
48(4) . . .
55(4) . . .
55(4) . . .
53(4) . . .
63(4) . . .
53(4) . . .
52(4) . . .
56(4) . . .
52(4) . . .
53(4) . . .
49(4) . . .
50(4) . . .
46(4) . . .
43.0(34) . . .
62(4) . . .
52(4) . . .
55(4) . . .
45(4) . . .
57(4) . . .
60(4) . . .
52(4) . . .
57(4) . . .
52(4) . . .
57(4) . . .
64(4) . . .
51(4) . . .
55(4) . . .
50(4) . . .
56(4) . . .
58(4) . . .
46(4) . . .
55(4) . . .
50(4) . . .
51(4) . . .
48(4) . . .
49(4) . . .
52(4) . . .
64(4) . . .
53(4) . . .
46(4) . . .
67(5) . . .
65(4) . . .
59(4) . . .
55(4) . . .
55(4) . . .
60(4) . . .
61(4) . . .
61(4) . . .
60(4) . . .
48(4) . . .
51(4) . . .
57(4) . . .
48(4) . . .
64(4) . . .
55(4) . . .
54(4) . . .
56(4) . . .
47(4) . . .
65(4) . . .
69(4) . . .
66(4) . . .
60(4) . . .
53(4) . . .
59(4) . . .
57(4) . . .
59(4) . . .
41(4) . . .
68(5) . . .
54(4) . . .
53(4) . . .
54(4) . . .
55(4) . . .
49(4) . . .
41.5(33) . . .
49(4) . . .
51(4) . . .
59(4) . . .
44.9(35) . . .
48(4) . . .
56(4) . . .
57(4) . . .
61(4) . . .
61(4) . . .
59(4) . . .
46(4) . . .
51(4) . . .
49(4) . . .
44(4) . . .
43.8(35) . . .
57(4) . . .
53(4) . . .
55(4) . . .
50(4) . . .
53(4) . . .
60(4) . . .
53(4) . . .
67(4) . . .
51(4) . . .
58(4) . . .
55(4) . . .
61(4) . . .
69(5) . . .
54(4) . . .
48(4) . . .
49(4) . . .
55(4) . . .
48(4) . . .
58(4) . . .
58(4) . . .
58(4) . . .
58(4) . . .
44(4) . . .
43(4) . . .
62(4) . . .
58(4) . . .
49(4) . . .
60(4) . . .
48(4) . . .
61(4) . . .
52(4) . . .
53(4) . . .
44.4(35) . . .
67(4) . . .
67(4) . . .
61(4) . . .
47(4) . . .
53(4) . . .
57(4) . . .
50(4) . . .
54(4) . . .
43.7(34) . . .
58(4) . . .
49(4) . . .
47(4) . . .
63(4) . . .
48(4) . . .
49(4) . . .
53(4) . . .
45.4(35) . . .
53(4) . . .
47(4) . . .
61(4) . . .
48(4) . . .
47(4) . . .
58(4) . . .
62(4) . . .
48(4) . . .
57(4) . . .
55(4) . . .
42(4) . . .
46(4) . . .
62(4) . . .
49(4) . . .
53(4) . . .
52(4) . . .
66(5) . . .
64(4) . . .
54(4) . . .
60(4) . . .
47(4) . . .
50(4) . . .
55(4) . . .
47(4) . . .
50(4) . . .
53(4) . . .
54(4) . . .
65(4) . . .
49(4) . . .
54(4) . . .
51(4) . . .
51(4) . . .
57(4) . . .
52(4) . . .
51(4) . . .
61(4) . . .
54(4) . . .
44.1(35) . . .
52(4) . . .
57(4) . . .
59(4) . . .
46(4) . . .
57(4) . . .
56(4) . . .
53(4) . . .
52(4) . . .
50(4) . . .
54(4) . . .
54(4) . . .
50(4) . . .
56(4) . . .
53(4) . . .
47(4) . . .
59(4) . . .
48(4) . . .
56(4) . . .
56(4) . . .
50(4) . . .
53(4) . . .
54(4) . . .
59(4) . . .
51(4) . . .
54(4) . . .
55(4) . . .
67(5) . . .
53(4) . . .
52(4) . . .
62(4) . . .
53(4) . . .
56(4) . . .
48(4) . . .
40.3(33) . . .
54(4) . . .
49(4) . . .
47(4) . . .
53(4) . . .
61(4) . . .
50(4) . . .
48(4) . . .
43(4) . . .
53(4) . . .
54(4) . . .
51(4) . . .
54(4) . . .
46(4) . . .
46(4) . . .
55(4) . . .
53(4) . . .
56(4) . . .
52(4) . . .
51(4) . . .
48(4) . . .
60(4) . . .
59(4) . . .
59(4) . . .
55(4) . . .
50(4) . . .
60(4) . . .
65(4) . . .
57(4) . . .
55(4) . . .
56(4) . . .
68(4) . . .
60(4) . . .
43(4) . . .
35.4(33) . . .
49(4) . . .
57(4) . . .
48(4) . . .
55(4) . . .
67(4) . . .
52(4) . . .
48(4) . . .
59(4) . . .
57(4) . . .
59(4) . . .
64(4) . . .
49(4) . . .
54(4) . . .
57(4) . . .
49(4) . . .
44(4) . . .
53(4) . . .
55(4) . . .
60(4) . . .
58(4) . . .
52(4) . . .
48(4) . . .
49(4) . . .
53(4) . . .
53(4) . . .
56(4) . . .
54(4) . . .
55(4) . . .
52(4) . . .
47(4) . . .
50(4) . . .
51(4) . . .
59(4) . . .
50(4) . . .
43.8(34) . . .
53(4) . . .
59(4) . . .
50(4) . . .
47(4) . . .
57(4) . . .
46.1(35) . . .
49(4) . . .
54(4) . . .
59(4) . . .
59(4) . . .
55(4) . . .
55(4) . . .
50(4) . . .
60(4) . . .
55(4) . . .
51(4) . . .
49(4) . . .
57(4) . . .
48(4) . . .
60(4) . . .
59(4) . . .
60(4) . . .
59(4) . . .
63(4) . . .
52(4) . . .
58(4) . . .
48(4) . . .
52(4) . . .
50(4) . . .
58(4) . . .
52(4) . . .
58(4) . . .
59(4) . . .
50(4) . . .
58(4) . . .
64(4) . . .
51(4) . . .
50(4) . . .
46(4) . . .
40.2(33) . . .
58(4) . . .
51(4) . . .
51(4) . . .
55(4) . . .
50(4) . . .
55(4) . . .
53(4) . . .
61(4) . . .
65(4) . . .
58(4) . . .
50(4) . . .
56(4) . . .
47(4) . . .
50(4) . . .
47(4) . . .
48(4) . . .
47(4) . . .
46(4) . . .
59(4) . . .
52(4) . . .
56(4) . . .
49(4) . . .
50(4) . . .
59(4) . . .
53(4) . . .
60(4) . . .
57(4) . . .
58(4) . . .
52(4) . . .
59(4) . . .
61(4) . . .
63(4) . . .
59(4) . . .
52(4) . . .
55(4) . . .
53(4) . . .
57(4) . . .
62(4) . . .
53(4) . . .
55(4) . . .
55(4) . . .
57(4) . . .
48(4) . . .
52(4) . . .
55(4) . . .
53(4) . . .
49(4) . . .
54(4) . . .
52(4) . . .
52(4) . . .
41.0(34) . . .
49(4) . . .
54(4) . . .
55(4) . . .
45(4) . . .
53(4) . . .
53(4) . . .
59(4) . . .
45.9(35) . . .
57(4) . . .
56(4) . . .
49(4) . . .
52(4) . . .
60(4) . . .
45(4) . . .
47(4) . . .
58(4) . . .
52(4) . . .
55(4) . . .
43.0(35) . . .
57(4) . . .
54(4) . . .
53(4) . . .
54(4) . . .
51(4) . . .
54(4) . . .
52(4) . . .
58(4) . . .
52(4) . . .
47(4) . . .
49(4) . . .
55(4) . . .
65(4) . . .
56(4) . . .
60(4) . . .
53(4) . . .
60(4) . . .
47(4) . . .
63(4) . . .
51(4) . . .
58(4) . . .
49(4) . . .
48(4) . . .
47(4) . . .
51(4) . . .
61(4) . . .
54(4) . . .
51(4) . . .
62(4) . . .
61(4) . . .
53(4) . . .
59(4) . . .
51(4) . . .
43.7(35) . . .
49(4) . . .
48(4) . . .
52(4) . . .
40.2(32) . . .
41.9(34) . . .
55(4) . . .
57(4) . . .
61(4) . . .
54(4) . . .
52(4) . . .
57(4) . . .
54(4) . . .
64(4) . . .
56(4) . . .
63(4) . . .
52(4) . . .
52(4) . . .
57(4) . . .
46(4) . . .
53(4) . . .
56(4) . . .
55(4) . . .
48(4) . . .
55(4) . . .
55(4) . . .
51(4) . . .
55(4) . . .
59(4) . . .
62(4) . . .
55(4) . . .
59(4) . . .
53(4) . . .
48(4) . . .
55(4) . . .
53(4) . . .
53(4) . . .
55(4) . . .
49(4) . . .
52(4) . . .
43(4) . . .
44(4) . . .
51(4) . . .
52(4) . . .
51(4) . . .
47(4) . . .
47(4) . . .
62(4) . . .
63(4) . . .
53(4) . . .
61(4) . . .
53(4) . . .
55(4) . . .
49(4) . . .
59(4) . . .
49(4) . . .
56(4) . . .
49(4) . . .
57(4) . . .
58(4) . . .
56(4) . . .
54(4) . . .
57(4) . . .
48(4) . . .
61(4) . . .
51(4) . . .
53(4) . . .
50(4) . . .
49(4) . . .
46(4) . . .
53(4) . . .
53(4) . . .
50(4) . . .
47(4) . . .
50(4) . . .
51(4) . . .
50(4) . . .
56(4) . . .
51(4) . . .
53(4) . . .
63(4) . . .
57(4) . . .
57(4) . . .
53(4) . . .
51(4) . . .
57(4) . . .
59(4) . . .
53(4) . . .
49(4) . . .
56(4) . . .
51(4) . . .
47(4) . . .
53(4) . . .
58(4) . . .
52(4) . . .
54(4) . . .
54(4) . . .
61(4) . . .
54(4) . . .
60(4) . . .
56(4) . . .
56(4) . . .
54(4) . . .
59(4) . . .
58(4) . . .
42.6(34) . . .
57(4) . . .
46(4) . . .
58(4) . . .
49(4) . . .
47(4) . . .
47(4) . . .
48(4) . . .
63(4) . . .
48(4) . . .
48(4) . . .
60(4) . . .
62(4) . . .
52(4) . . .
54(4) . . .
54(4) . . .
56(4) . . .
44(4) . . .
49(4) . . .
48(4) . . .
49(4) . . .
51(4) . . .
47(4) . . .
55(4) . . .
53(4) . . .
55(4) . . .
52(4) . . .
48(4) . . .
51(4) . . .
60(4) . . .
56(4) . . .
45(4) . . .
49(4) . . .
60(5) . . .
42.2(34) . . .
64(4) . . .
62(4) . . .
53(4) . . .
47(4) . . .
55(4) . . .
47(4) . . .
52(4) . . .
51(4) . . .
59(4) . . .
69(5) . . .
56(4) . . .
67(4) . . .
55(4) . . .
58(4) . . .
49(4) . . .
50(4) . . .
50(4) . . .
53(4) . . .
38.9(34) . . .
40.4(34) . . .
60(4) . . .
53(4) . . .
57(4) . . .
60(4) . . .
58(4) . . .
54(4) . . .
53(4) . . .
53(4) . . .
49(4) . . .
45(4) . . .
57(4) . . .
54(4) . . .
55(4) . . .
53(4) . . .
48(4) . . .
55(4) . . .
59(4) . . .
56(4) . . .
56(4) . . .
59(4) . . .
56(4) . . .
65(4) . . .
47(4) . . .
53(4) . . .
53(4) . . .
53(4) . . .
48(4) . . .
51(4) . . .
46(4) . . .
51(4) . . .
50(4) . . .
61(4) . . .
51(4) . . .
45(4) . . .
55(4) . . .
41.7(33) . . .
54(4) . . .
45(4) . . .
66(5) . . .
37.8(33) . . .
58(4) . . .
56(4) . . .
52(4) . . .
62(5) . . .
62(4) . . .
56(4) . . .
58(4) . . .
56(4) . . .
56(4) . . .
63(4) . . .
70(4) . . .
43.4(35) . . .
53(4) . . .
56(4) . . .
62(4) . . .
66(4) . . .
50(4) . . .
47(4) . . .
69(4) . . .
53(4) . . .
57(4) . . .
54(4) . . .
58(4) . . .
54(4) . . .
60(4) . . .
56(4) . . .
65(4) . . .
49(4) . . .
44(4) . . .
54(4) . . .
54(4) . . .
49(4) . . .
46(4) . . .
47(4) . . .
59(4) . . .
51(4) . . .
59(4) . . .
63(5) . . .
65(4) . . .
65(4) . . .
56(4) . . .
48(4) . . .
61(4) . . .
60(4) . . .
51(4) . . .
51(4) . . .
53(4) . . .
55(4) . . .
53(4) . . .
53(4) . . .
62(4) . . .
51(4) . . .
49(4) . . .
39.8(33) . . .
52(4) . . .
53(4) . . .
54(4) . . .
47(4) . . .
61(4) . . .
48(4) . . .
55(4) . . .
56(4) . . .
56(4) . . .
40.2(34) . . .
51(4) . . .
65(4) . . .
71(5) . . .
57(4) . . .
53(4) . . .
60(4) . . .
49(4) . . .
58(4) . . .
63(4) . . .
66(4) . . .
64(4) . . .
50(4) . . .
55(4) . . .
54(4) . . .
55(4) . . .
50(4) . . .
48(4) . . .
55(4) . . .
60(4) . . .
56(4) . . .
55(4) . . .
57(4) . . .
49(4) . . .
62(4) . . .
47(4) . . .
49(4) . . .
48(4) . . .
53(4) . . .
54(4) . . .
53(4) . . .
44.4(35) . . .
49(4) . . .
46(4) . . .
57(4) . . .
60(4) . . .
54(4) . . .
58(4) . . .
53(4) . . .
39.8(32) . . .
47(4) . . .
54(4) . . .
57(4) . . .
49(4) . . .
51(4) . . .
58(4) . . .
62(4) . . .
46(4) . . .
56(4) . . .
49(4) . . .
51(4) . . .
53(4) . . .
51(4) . . .
52(4) . . .
55(4) . . .
51(4) . . .
53(4) . . .
48(4) . . .
39.3(35) . . .
45.3(35) . . .
49(4) . . .
51(4) . . .
43(4) . . .
54(4) . . .
53(4) . . .
52(4) . . .
46(4) . . .
52(4) . . .
46(4) . . .
49(4) . . .
49(4) . . .
53(4) . . .
42.1(33) . . .
55(4) . . .
50(4) . . .
58(4) . . .
61(4) . . .
55(4) . . .
52(4) . . .
54(4) . . .
57(4) . . .
51(4) . . .
49(4) . . .
54(4) . . .
54(4) . . .
58(4) . . .
52(4) . . .
46(4) . . .
48(4) . . .
47(4) . . .
49(4) . . .
44(4) . . .
54(4) . . .
43.6(34) . . .
59(4) . . .
51(4) . . .
58(4) . . .
52(4) . . .
50(4) . . .
50(4) . . .
61(4) . . .
55(4) . . .
53(4) . . .
53(4) . . .
51(4) . . .
39.6(34) . . .
52(4) . . .
46(4) . . .
50(4) . . .
62(4) . . .
50(4) . . .
51(4) . . .
40.0(34) . . .
54(4) . . .
61(4) . . .
57(4) . . .
56(4) . . .
50(4) . . .
49(4) . . .
47(4) . . .
58(4) . . .
54(4) . . .
58(4) . . .
50(4) . . .
49(4) . . .
52(4) . . .
49(4) . . .
50(4) . . .
52(4) . . .
49(4) . . .
57(4) . . .
65(4) . . .
36.5(32) . . .
47(4) . . .
47(4) . . .
53(4) . . .
49(4) . . .
54(4) . . .
49(4) . . .
56(4) . . .
60(4) . . .
50(4) . . .
63(4) . . .
50(4) . . .
53(4) . . .
52(4) . . .
50(4) . . .
52(4) . . .
56(4) . . .
56(4) . . .
47(4) . . .
53(4) . . .
47(4) . . .
49(4) . . .
52(4) . . .
45(4) . . .
54(4) . . .
50(4) . . .
58(4) . . .
56(4) . . .
53(4) . . .
50(4) . . .
61(4) . . .
52(4) . . .
59(4) . . .
51(4) . . .
45(4) . . .
55(4) . . .
45(4) . . .
55(4) . . .
50(4) . . .
48(4) . . .
57(4) . . .
56(4) . . .
60(4) . . .
49(4) . . .
51(4) . . .
51(4) . . .
45(4) . . .
56(4) . . .
44(4) . . .
58(4) . . .
50(4) . . .
50(4) . . .
51(4) . . .
51(4) . . .
49(4) . . .
50(4) . . .
58(4) . . .
54(4) . . .
43.2(35) . . .
47(4) . . .
48(4) . . .
51(4) . . .
45(4) . . .
56(4) . . .
56(4) . . .
42(4) . . .
50(4) . . .
56(4) . . .
45(4) . . .
46(4) . . .
57(4) . . .
52(4) . . .
55(4) . . .
47(4) . . .
45(4) . . .
58(4) . . .
53(4) . . .
55(4) . . .
44(4) . . .
60(4) . . .
48(4) . . .
46(4) . . .
46(4) . . .
53(4) . . .
58(4) . . .
49(4) . . .
45(4) . . .
49(4) . . .
60(4) . . .
48(4) . . .
46(4) . . .
49(4) . . .
51(4) . . .
60(4) . . .
48(4) . . .
44(4) . . .
51(4) . . .
45(4) . . .
52(4) . . .
54(4) . . .
50(4) . . .
42(4) . . .
53(4) . . .
57(4) . . .
50(4) . . .
45(4) . . .
52(4) . . .
56(4) . . .
52(4) . . .
51(4) . . .
46(4) . . .
41.3(35) . . .
48(4) . . .
53(4) . . .
51(4) . . .
51(4) . . .
47(4) . . .
55(4) . . .
58(4) . . .
55(4) . . .
53(4) . . .
53(4) . . .
52(4) . . .
62(4) . . .
42.6(35) . . .
57(4) . . .
46(4) . . .
52(4) . . .
47(4) . . .
40.5(34) . . .
40.2(34) . . .
48(4) . . .
51(4) . . .
57(4) . . .
41(4) . . .
43(4) . . .
55(4) . . .
55(4) . . .
51(4) . . .
54(4) . . .
57(4) . . .
38.4(33) . . .
38.1(34) . . .
54(4) . . .
48(4) . . .
47(4) . . .
50(4) . . .
43.2(35) . . .
51(4) . . .
55(4) . . .
56(4) . . .
53(4) . . .
51(4) . . .
48(4) . . .
49(4) . . .
53(4) . . .
47(4) . . .
52(4) . . .
48(4) . . .
53(4) . . .
56(4) . . .
46(4) . . .
42.3(34) . . .
53(4) . . .
58(4) . . .
46(4) . . .
59(4) . . .
51(4) . . .
41.3(34) . . .
53(4) . . .
60(4) . . .
42.0(35) . . .
49(4) . . .
48(4) . . .
57(4) . . .
58(4) . . .
51(4) . . .
51(4) . . .
52(4) . . .
63(4) . . .
59(4) . . .
50(4) . . .
49(4) . . .
53(4) . . .
55(4) . . .
48(4) . . .
48(4) . . .
44.4(35) . . .
49(4) . . .
50(4) . . .
45(4) . . .
49(4) . . .
53(4) . . .
56(4) . . .
46(4) . . .
43(4) . . .
36.4(32) . . .
46.1(35) . . .
47(4) . . .
53(4) . . .
64(4) . . .
60(4) . . .
52(4) . . .
47(4) . . .
37.5(33) . . .
48(4) . . .
50(4) . . .
55(4) . . .
51(4) . . .
52(4) . . .
58(4) . . .
53(4) . . .
51(4) . . .
47(4) . . .
50(4) . . .
46(4) . . .
50(4) . . .
57(4) . . .
53(4) . . .
54(4) . . .
55(4) . . .
50(4) . . .
51(4) . . .
47(4) . . .
47(4) . . .
54(4) . . .
49(4) . . .
58(4) . . .
57(4) . . .
62(4) . . .
43.8(34) . . .
48(4) . . .
67(4) . . .
42.0(35) . . .
47(4) . . .
59(4) . . .
63(4) . . .
54(4) . . .
54(4) . . .
44(4) . . .
58(4) . . .
55(4) . . .
46(4) . . .
44(4) . . .
43(4) . . .
41.0(34) . . .
50(4) . . .
62(4) . . .
52(4) . . .
46(4) . . .
52(4) . . .
50(4) . . .
47(4) . . .
45(4) . . .
53(4) . . .
50(4) . . .
57(4) . . .
44.1(35) . . .
54(4) . . .
54(4) . . .
50(4) . . .
50(4) . . .
55(4) . . .
51(4) . . .
55(4) . . .
57(4) . . .
52(4) . . .
47(4) . . .
52(4) . . .
53(4) . . .
39.9(33) . . .
40.5(33) . . .
55(4) . . .
48(4) . . .
51(4) . . .
54(4) . . .
51(4) . . .
58(4) . . .
50(4) . . .
46(4) . . .
55(4) . . .
50(4) . . .
57(4) . . .
44.5(35) . . .
60(4) . . .
54(4) . . .
52(4) . . .
48(4) . . .
51(4) . . .
44.0(35) . . .
48(4) . . .
57(4) . . .
50(4) . . .
52(4) . . .
57(4) . . .
54(4) . . .
60(4) . . .
48(4) . . .
53(4) . . .
50(4) . . .
56(4) . . .
53(4) . . .
50(4) . . .
49(4) . . .
51(4) . . .
56(4) . . .
53(4) . . .
54(4) . . .
43.1(34) . . .
50(4) . . .
50(4) . . .
59(4) . . .
55(4) . . .
51(4) . . .
44.4(34) . . .
53(4) . . .
48(4) . . .
58(4) . . .
55(4) . . .
42.4(34) . . .
52(4) . . .
54(4) . . .
45(4) . . .
52(4) . . .
63(4) . . .
57(4) . . .
60(4) . . .
56(4) . . .
46(4) . . .
44.4(35) . . .
50(4) . . .
53(4) . . .
64(4) . . .
53(4) . . .
54(4) . . .
53(4) . . .
57(4) . . .
54(4) . . .
48(4) . . .
57(4) . . .
50(4) . . .
44(4) . . .
63(4) . . .
58(4) . . .
55(4) . . .
54(4) . . .
52(4) . . .
57(4) . . .
53(4) . . .
54(4) . . .
47(4) . . .
47(4) . . .
60(4) . . .
65(4) . . .
63(4) . . .
57(4) . . .
59(4) . . .
45.3(35) . . .
47(4) . . .
50(4) . . .
49(4) . . .
46(4) . . .
36.2(34) . . .
42.3(35) . . .
56(4) . . .
48(4) . . .
38.8(32) . . .
51(4) . . .
37.6(32) . . .
41.2(34) . . .
47(4) . . .
57(4) . . .
52(4) . . .
59(4) . . .
53(4) . . .
46(4) . . .
54(4) . . .
56(4) . . .
64(4) . . .
62(4) . . .
52(4) . . .
50(4) . . .
53(4) . . .
53(4) . . .
38.1(33) . . .
55(4) . . .
40.5(35) . . .
48(4) . . .
52(4) . . .
49(4) . . .
44(4) . . .
52(4) . . .
51(4) . . .
53(4) . . .
58(4) . . .
51(4) . . .
50(4) . . .
50(4) . . .
39.5(32) . . .
50(4) . . .
48(4) . . .
48(4) . . .
43.3(34) . . .
55(4) . . .
47(4) . . .
53(4) . . .
48(4) . . .
46(4) . . .
52(4) . . .
55(4) . . .
53(4) . . .
47(4) . . .
51(4) . . .
55(4) . . .
51(4) . . .
57(4) . . .
42(4) . . .
51(4) . . .
51(4) . . .
60(4) . . .
49(4) . . .
57(4) . . .
46(4) . . .
48(4) . . .
65(5) . . .
53(4) . . .
54(4) . . .
49(4) . . .
57(4) . . .
48(4) . . .
50(4) . . .
52(4) . . .
47(4) . . .
64(4) . . .
53(4) . . .
55(4) . . .
45(4) . . .
44.8(35) . . .
41.2(34) . . .
50(4) . . .
45(4) . . .
46(4) . . .
48(4) . . .
50(4) . . .
52(4) . . .
52(4) . . .
45.4(35) . . .
52(4) . . .
44(4) . . .
54(4) . . .
47(4) . . .
48(4) . . .
49(4) . . .
57(4) . . .
61(4) . . .
47(4) . . .
55(4) . . .
50(4) . . .
46(4) . . .
57(4) . . .
59(4) . . .
54(4) . . .
48(4) . . .
45(4) . . .
47(4) . . .
50(4) . . .
53(4) . . .
53(4) . . .
58(4) . . .
53(4) . . .
50(4) . . .
41.3(34) . . .
45(4) . . .
59(4) . . .
54(4) . . .
50(4) . . .
50(4) . . .
48(4) . . .
49(4) . . .
48(4) . . .
49(4) . . .
44.3(34) . . .
48(4) . . .
47(4) . . .
58(4) . . .
54(4) . . .
59(4) . . .
50(4) . . .
52(4) . . .
49(4) . . .
43.1(34) . . .
52(4) . . .
51(4) . . .
54(4) . . .
56(4) . . .
41.5(34) . . .
48(4) . . .
41.5(35) . . .
46(4) . . .
48(4) . . .
56(4) . . .
58(4) . . .
48(4) . . .
42.3(34) . . .
47(4) . . .
45(4) . . .
50(4) . . .
48(4) . . .
45(4) . . .
47(4) . . .
52(4) . . .
47(4) . . .
50(4) . . .
60(4) . . .
51(4) . . .
52(4) . . .
44(4) . . .
53(4) . . .
48(4) . . .
49(4) . . .
47(4) . . .
56(4) . . .
50(4) . . .
50(4) . . .
51(4) . . .
55(4) . . .
51(4) . . .
49(4) . . .
51(4) . . .
46(4) . . .
42.0(34) . . .
51(4) . . .
42.3(35) . . .
57(4) . . .
60(4) . . .
57(4) . . .
58(4) . . .
45.3(34) . . .
51(4) . . .
44.4(35) . . .
50(4) . . .
41.9(34) . . .
55(4) . . .
53(4) . . .
51(4) . . .
57(4) . . .
53(4) . . .
51(4) . . .
48(4) . . .
52(4) . . .
42.2(34) . . .
48(4) . . .
48(4) . . .
43.9(35) . . .
50(4) . . .
53(4) . . .
56(4) . . .
51(4) . . .
48(4) . . .
51(4) . . .
58(4) . . .
45(4) . . .
48(4) . . .
49(4) . . .
56(4) . . .
48(4) . . .
45(4) . . .
39.6(33) . . .
56(4) . . .
54(4) . . .
50(4) . . .
47(4) . . .
46(4) . . .
45(4) . . .
47(4) . . .
49(4) . . .
46(4) . . .
55(4) . . .
57(4) . . .
50(4) . . .
57(4) . . .
59(4) . . .
52(4) . . .
56(4) . . .
42.9(35) . . .
42.3(34) . . .
57(4) . . .
49(4) . . .
45(4) . . .
48(4) . . .
54(4) . . .
47(4) . . .
40.4(34) . . .
38.3(33) . . .
50(4) . . .
46(4) . . .
57(4) . . .
41.2(34) . . .
46(4) . . .
45(4) . . .
57(4) . . .
61(4) . . .
59(4) . . .
56(4) . . .
50(4) . . .
50(4) . . .
49(4) . . .
45(4) . . .
53(4) . . .
47(4) . . .
45(4) . . .
58(4) . . .
57(4) . . .
54(4) . . .
44.8(35) . . .
46(4) . . .
46(4) . . .
48(4) . . .
47(4) . . .
38.6(33) . . .
49(4) . . .
39.7(35) . . .
60(4) . . .
55(4) . . .
52(4) . . .
54(4) . . .
57(4) . . .
46(4) . . .
53(4) . . .
53(4) . . .
59(4) . . .
49(4) . . .
46(4) . . .
47(4) . . .
43.6(34) . . .
55(4) . . .
60(4) . . .
47(4) . . .
58(4) . . .
46(4) . . .
54(4) . . .
59(4) . . .
48(4) . . .
54(4) . . .
54(4) . . .
54(4) . . .
53(4) . . .
54(4) . . .
49(4) . . .
57(4) . . .
48(4) . . .
54(4) . . .
46(4) . . .
52(4) . . .
40.0(33) . . .
46(4) . . .
47(4) . . .
55(4) . . .
51(4) . . .
49(4) . . .
55(4) . . .
54(4) . . .
50(4) . . .
61(4) . . .
41.4(34) . . .
56(4) . . .
66(4) . . .
52(4) . . .
46(4) . . .
45(4) . . .
51(4) . . .
43.7(34) . . .
52(4) . . .
62(4) . . .
51(4) . . .
54(4) . . .
54(4) . . .
36.4(31) . . .
40.6(34) . . .
59(4) . . .
49(4) . . .
51(4) . . .
46(4) . . .
56(4) . . .
54(4) . . .
43.5(34) . . .
49(4) . . .
50(4) . . .
51(4) . . .
48(4) . . .
55(4) . . .
49(4) . . .
56(4) . . .
50(4) . . .
53(4) . . .
54(4) . . .
53(4) . . .
45.6(35) . . .
45(4) . . .
61(4) . . .
54(4) . . .
42.6(34) . . .
47(4) . . .
40.7(35) . . .
53(4) . . .
47(4) . . .
54(4) . . .
43.4(34) . . .
50(4) . . .
44(4) . . .
52(4) . . .
49(4) . . .
57(4) . . .
55(4) . . .
43(4) . . .
44(4) . . .
49(4) . . .
36.9(31) . . .
50(4) . . .
45(4) . . .
53(4) . . .
58(4) . . .
52(4) . . .
49(4) . . .
48(4) . . .
50(4) . . .
46(4) . . .
44(4) . . .
51(4) . . .
45(4) . . .
45(4) . . .
49(4) . . .
58(4) . . .
47(4) . . .
54(4) . . .
56(4) . . .
56(4) . . .
55(4) . . .
60(4) . . .
50(4) . . .
51(4) . . .
55(4) . . .
51(4) . . .
49(4) . . .
43(4) . . .
48(4) . . .
43.0(35) . . .
48(4) . . .
53(4) . . .
47(4) . . .
49(4) . . .
49(4) . . .
48(4) . . .
49(4) . . .
41.6(34) . . .
45(4) . . .
51(4) . . .
52(4) . . .
49(4) . . .
45(4) . . .
48(4) . . .
48(4) . . .
45(4) . . .
48(4) . . .
55(4) . . .
42.7(34) . . .
49(4) . . .
52(4) . . .
59(4) . . .
54(4) . . .
62(4) . . .
49(4) . . .
42.7(34) . . .
48(4) . . .
46(4) . . .
46(4) . . .
52(4) . . .
58(4) . . .
50(4) . . .
49(4) . . .
51(4) . . .
44(4) . . .
53(4) . . .
56(4) . . .
51(4) . . .
53(4) . . .
47(4) . . .
49(4) . . .
53(4) . . .
50(4) . . .
50(4) . . .
47(4) . . .
50(4) . . .
45(4) . . .
49(4) . . .
54(4) . . .
36.6(32) . . .
48(4) . . .
52(4) . . .
58(4) . . .
50(4) . . .
61(4) . . .
67(5) . . .
57(4) . . .
49(4) . . .
47(4) . . .
56(4) . . .
46(4) . . .
57(4) . . .
50(4) . . .
50(4) . . .
45(4) . . .
48(4) . . .
51(4) . . .
43.6(35) . . .
48(4) . . .
45(4) . . .
55(4) . . .
51(4) . . .
38.4(35) . . .
51(4) . . .
54(4) . . .
60(4) . . .
47(4) . . .
49(4) . . .
44.6(34) . . .
58(4) . . .
36.5(32) . . .
49(4) . . .
41.1(33) . . .
51(4) . . .
53(4) . . .
57(4) . . .
54(4) . . .
52(4) . . .
41.9(35) . . .
51(4) . . .
51(4) . . .
50(4) . . .
49(4) . . .
40.8(33) . . .
56(4) . . .
56(4) . . .
46(4) . . .
51(4) . . .
58(4) . . .
44(4) . . .
49(4) . . .
48(4) . . .
49(4) . . .
50(4) . . .
50(4) . . .
52(4) . . .
49(4) . . .
50(4) . . .
45(4) . . .
47(4) . . .
54(4) . . .
53(4) . . .
53(4) . . .
47(4) . . .
44(4) . . .
49(4) . . .
42.2(34) . . .
47(4) . . .
52(4) . . .
54(4) . . .
52(4) . . .
61(4) . . .
46.8(35) . . .
52(4) . . .
47(4) . . .
43(4) . . .
43.5(34) . . .
58(4) . . .
62(4) . . .
64(4) . . .
58(4) . . .
58(4) . . .
47(4) . . .
51(4) . . .
37.8(33) . . .
53(4) . . .
52(4) . . .
45(4) . . .
51(4) . . .
54(4) . . .
50(4) . . .
44.7(35) . . .
46(4) . . .
51(4) . . .
48(4) . . .
49(4) . . .
49(4) . . .
51(4) . . .
48(4) . . .
56(4) . . .
44.3(35) . . .
55(4) . . .
52(4) . . .
46(4) . . .
45(4) . . .
51(4) . . .
50(4) . . .
50(4) . . .
54(4) . . .
63(4) . . .
51(4) . . .
51(4) . . .
41.6(33) . . .
49(4) . . .
50(4) . . .
46(4) . . .
45.9(35) . . .
45(4) . . .
48(4) . . .
57(4) . . .
53(4) . . .
48(4) . . .
52(4) . . .
58(4) . . .
46(4) . . .
50(4) . . .
51(4) . . .
54(4) . . .
50(4) . . .
49(4) . . .
62(4) . . .
50(4) . . .
49(4) . . .
51(4) . . .
52(4) . . .
44.2(35) . . .
51(4) . . .
44(4) . . .
39.2(34) . . .
48(4) . . .
46(4) . . .
40.8(33) . . .
51(4) . . .
48(4) . . .
46(4) . . .
46(4) . . .
53(4) . . .
49(4) . . .
47(4) . . .
43.3(34) . . .
44.3(35) . . .
58(4) . . .
51(4) . . .
48(4) . . .
45(4) . . .
53(4) . . .
56(4) . . .
44(4) . . .
46(4) . . .
51(4) . . .
49(4) . . .
49(4) . . .
57(4) . . .
59(4) . . .
59(4) . . .
58(4) . . .
44.8(35) . . .
58(4) . . .
47(4) . . .
51(4) . . .
45(4) . . .
51(4) . . .
52(4) . . .
53(4) . . .
58(4) . . .
44.7(35) . . .
49(4) . . .
51(4) . . .
57(4) . . .
46.5(35) . . .
44.9(35) . . .
51(4) . . .
46(4) . . .
52(4) . . .
46.4(35) . . .
45(4) . . .
48(4) . . .
51(4) . . .
50(4) . . .
57(4) . . .
48(4) . . .
47(4) . . .
41.5(35) . . .
49(4) . . .
42.9(35) . . .
46(4) . . .
55(4) . . .
49(4) . . .
45(4) . . .
50(4) . . .
43.2(34) . . .
47(4) . . .
47(4) . . .
53(4) . . .
65(4) . . .
48(4) . . .
44.2(35) . . .
47(4) . . .
46.0(35) . . .
47(4) . . .
55(4) . . .
58(4) . . .
54(4) . . .
50(4) . . .
48(4) . . .
53(4) . . .
60(4) . . .
43.2(34) . . .
46(4) . . .
51(4) . . .
41.8(34) . . .
38.9(34) . . .
47(4) . . .
44.2(35) . . .
53(4) . . .
49(4) . . .
47(4) . . .
50(4) . . .
50(4) . . .
46(4) . . .
47(4) . . .
44(4) . . .
51(4) . . .
50(4) . . .
56(4) . . .
55(4) . . .
43.6(34) . . .
48(4) . . .
41.8(33) . . .
54(4) . . .
41.5(33) . . .
47(4) . . .
57(4) . . .
60(4) . . .
44(4) . . .
56(4) . . .
48(4) . . .
49(4) . . .
51(4) . . .
50(4) . . .
53(4) . . .
47(4) . . .
50(4) . . .
53(4) . . .
38.1(33) . . .
48(4) . . .
48(4) . . .
49(4) . . .
50(4) . . .
51(4) . . .
52(4) . . .
53(4) . . .
48(4) . . .
49(4) . . .
37.1(32) . . .
42(4) . . .
42.6(35) . . .
52(4) . . .
56(4) . . .
52(4) . . .
56(4) . . .
44(4) . . .
56(4) . . .
48(4) . . .
42.5(35) . . .
43.0(35) . . .
61(4) . . .
44.9(34) . . .
41.5(35) . . .
50(4) . . .
49(4) . . .
45(4) . . .
43.2(35) . . .
44.8(35) . . .
44.0(35) . . .
53(4) . . .
41.7(34) . . .
44.1(35) . . .
57(4) . . .
41.4(33) . . .
51(4) . . .
45(4) . . .
42.7(34) . . .
52(4) . . .
49(4) . . .
39.1(34) . . .
46(4) . . .
39.9(33) . . .
48(4) . . .
51(4) . . .
44.9(34) . . .
40.8(34) . . .
47(4) . . .
44(4) . . .
47(4) . . .
49(4) . . .
48(4) . . .
49(4) . . .
57(4) . . .
60(4) . . .
55(4) . . .
40.9(34) . . .
40.9(33) . . .
50(4) . . .
56(4) . . .
55(4) . . .
43.0(34) . . .
55(4) . . .
51(4) . . .
50(4) . . .
59(4) . . .
55(4) . . .
45(4) . . .
53(4) . . .
50(4) . . .
50(4) . . .
53(4) . . .
41.1(33) . . .
36.4(30) . . .
39.1(34) . . .
43.5(35) . . .
39.9(33) . . .
52(4) . . .
47(4) . . .
48(4) . . .
52(4) . . .
47(4) . . .
42.7(34) . . .
50(4) . . .
51(4) . . .
53(4) . . .
48(4) . . .
51(4) . . .
57(4) . . .
46(4) . . .
43.7(35) . . .
44(4) . . .
54(4) . . .
48(4) . . .
48(4) . . .
52(4) . . .
56(4) . . .
49(4) . . .
49(4) . . .
50(4) . . .
60(4) . . .
49(4) . . .
43(4) . . .
51(4) . . .
44(4) . . .
42.4(34) . . .
49(4) . . .
51(4) . . .
51(4) . . .
47(4) . . .
59(4) . . .
57(4) . . .
47(4) . . .
49(4) . . .
40.1(34) . . .
46(4) . . .
44(4) . . .
55(4) . . .
55(4) . . .
45(4) . . .
40.4(33) . . .
41.6(33) . . .
52(4) . . .
45(4) . . .
48(4) . . .
42.2(34) . . .
45.9(35) . . .
47(4) . . .
53(4) . . .
53(4) . . .
45(4) . . .
46(4) . . .
56(4) . . .
46(4) . . .
43(4) . . .
42.4(34) . . .
52(4) . . .
45(4) . . .
47(4) . . .
49(4) . . .
48(4) . . .
47(4) . . .
50(4) . . .
55(4) . . .
39.9(34) . . .
57(4) . . .
43(4) . . .
47(4) . . .
51(4) . . .
50(4) . . .
39.1(32) . . .
40.7(34) . . .
48(4) . . .
52(4) . . .
53(4) . . .
39.6(33) . . .
43(4) . . .
57(4) . . .
43.2(34) . . .
44.3(34) . . .
41.7(33) . . .
47(4) . . .
39.6(35) . . .
40.9(34) . . .
50(4) . . .
50(4) . . .
47(4) . . .
50(4) . . .
46(4) . . .
49(4) . . .
45(4) . . .
50(4) . . .
47(4) . . .
43(4) . . .
48(4) . . .
49(4) . . .
40.4(34) . . .
42.5(35) . . .
37.2(32) . . .
47(4) . . .
50(4) . . .
46(4) . . .
57(4) . . .
47(4) . . .
42.9(34) . . .
49(4) . . .
58(4) . . .
45(4) . . .
46(4) . . .
39.1(33) . . .
49(4) . . .
45(4) . . .
48(4) . . .
46(4) . . .
50(4) . . .
53(4) . . .
45(4) . . .
58(4) . . .
52(4) . . .
45.1(35) . . .
48(4) . . .
47(4) . . .
51(4) . . .
50(4) . . .
48(4) . . .
50(4) . . .
49(4) . . .
43.8(35) . . .
50(4) . . .
47(4) . . .
50(4) . . .
50(4) . . .
47(4) . . .
49(4) . . .
47(4) . . .
51(4) . . .
55(4) . . .
40(4) . . .
45(4) . . .
49(4) . . .
48(4) . . .
49(4) . . .
43.7(35) . . .
49(4) . . .
53(4) . . .
47(4) . . .
52(4) . . .
46(4) . . .
43.6(35) . . .
46(4) . . .
56(4) . . .
49(4) . . .
51(4) . . .
50(4) . . .
55(4) . . .
51(4) . . .
54(4) . . .
45(4) . . .
62(4) . . .
54(4) . . .
48(4) . . .
37.3(34) . . .
45.2(35) . . .
53(4) . . .
47(4) . . .
53(4) . . .
49(4) . . .
46(4) . . .
40.0(33) . . .
48(4) . . .
44(4) . . .
33.3(30) . . .
41.0(34) . . .
48(4) . . .
44(4) . . .
44(4) . . .
49(4) . . .
54(4) . . .
48(4) . . .
51(4) . . .
47(4) . . .
42.7(34) . . .
47(4) . . .
45.2(35) . . .
51(4) . . .
50(4) . . .
43.0(35) . . .
43.5(34) . . .
43.4(35) . . .
58(4) . . .
42.5(34) . . .
47(4) . . .
45(4) . . .
32.8(29) . . .
46(4) . . .
48(4) . . .
44(4) . . .
40.9(34) . . .
54(4) . . .
54(4) . . .
54(4) . . .
46(4) . . .
51(4) . . .
47(4) . . .
52(4) . . .
47(4) . . .
45(4) . . .
54(4) . . .
50(4) . . .
47(4) . . .
45(4) . . .
57(4) . . .
38.4(33) . . .
46(4) . . .
48(4) . . .
36.0(32) . . .
50(4) . . .
53(4) . . .
56(4) . . .
39.5(33) . . .
46(4) . . .
46(4) . . .
50(4) . . .
55(4) . . .
41(4) . . .
46(4) . . .
54(4) . . .
48(4) . . .
55(4) . . .
41.4(35) . . .
59(4) . . .
52(4) . . .
51(4) . . .
58(4) . . .
59(4) . . .
51(4) . . .
56(4) . . .
37.2(32) . . .
43(4) . . .
45(4) . . .
56(4) . . .
56(4) . . .
36.6(31) . . .
48(4) . . .
40.7(35) . . .
50(4) . . .
53(4) . . .
44.0(34) . . .
49(4) . . .
54(4) . . .
50(4) . . .
48(4) . . .
38.8(33) . . .
44(4) . . .
49(4) . . .
39.8(34) . . .
45(4) . . .
40.1(35) . . .
40.2(33) . . .
43.1(35) . . .
40.1(33) . . .
47(4) . . .
43.6(35) . . .
46(4) . . .
48(4) . . .
49(4) . . .
52(4) . . .
51(4) . . .
56(4) . . .
44(4) . . .
47(4) . . .
50(4) . . .
54(4) . . .
49(4) . . .
52(4) . . .
48(4) . . .
44.7(35) . . .
38.2(32) . . .
43(4) . . .
43.2(35) . . .
54(4) . . .
52(4) . . .
45(4) . . .
52(4) . . .
47(4) . . .
49(4) . . .
48(4) . . .
42(4) . . .
37.5(33) . . .
43.4(35) . . .
45.1(35) . . .
48(4) . . .
50(4) . . .
40.4(33) . . .
57(4) . . .
51(4) . . .
48(4) . . .
50(4) . . .
59(4) . . .
58(4) . . .
46(4) . . .
47(4) . . .
54(4) . . .
44.3(35) . . .
45.4(35) . . .
47(4) . . .
51(4) . . .
47(4) . . .
43.0(34) . . .
49(4) . . .
48(4) . . .
50(4) . . .
45(4) . . .
49(4) . . .
52(4) . . .
59(4) . . .
44.3(35) . . .
49(4) . . .
47(4) . . .
46(4) . . .
51(4) . . .
51(4) . . .
49(4) . . .
49(4) . . .
49(4) . . .
42.3(34) . . .
41.1(34) . . .
60(4) . . .
56(4) . . .
43.8(35) . . .
39.3(32) . . .
46(4) . . .
45(4) . . .
45(4) . . .
44(4) . . .
39.4(32) . . .
36.0(32) . . .
44(4) . . .
52(4) . . .
48(4) . . .
48(4) . . .
51(4) . . .
50(4) . . .
53(4) . . .
51(4) . . .
42.5(34) . . .
40.9(33) . . .
51(4) . . .
52(4) . . .
49(4) . . .
41(4) . . .
41.6(34) . . .
51(4) . . .
55(4) . . .
42.4(34) . . .
59(4) . . .
57(4) . . .
54(4) . . .
42.0(35) . . .
47(4) . . .
56(4) . . .
42.4(34) . . .
46(4) . . .
50(4) . . .
48(4) . . .
49(4) . . .
44.2(34) . . .
56(4) . . .
48(4) . . .
62(4) . . .
47(4) . . .
48(4) . . .
47(4) . . .
47(4) . . .
44.7(35) . . .
38.0(32) . . .
47(4) . . .
47(4) . . .
52(4) . . .
55(4) . . .
41.0(33) . . .
44(4) . . .
38.9(33) . . .
43.3(34) . . .
45.7(35) . . .
43.5(34) . . .
47(4) . . .
36.7(31) . . .
43.3(34) . . .
49(4) . . .
44.1(34) . . .
44(4) . . .
42.7(33) . . .
43.0(33) . . .
47(4) . . .
43(4) . . .
45(4) . . .
41(4) . . .
49(4) . . .
54(4) . . .
42.2(34) . . .
48(4) . . .
48(4) . . .
49(4) . . .
53(4) . . .
49(4) . . .
47(4) . . .
47(4) . . .
44.6(34) . . .
39.8(33) . . .
45(4) . . .
44(4) . . .
48(4) . . .
39.9(33) . . .
53(4) . . .
55(4) . . .
50(4) . . .
51(4) . . .
38.0(32) . . .
45(4) . . .
43.5(35) . . .
41.4(33) . . .
49(4) . . .
45.8(35) . . .
49(4) . . .
50(4) . . .
41.7(34) . . .
49(4) . . .
50(4) . . .
54(4) . . .
52(4) . . .
48(4) . . .
43.3(35) . . .
50(4) . . .
49(4) . . .
50(4) . . .
49(4) . . .
51(4) . . .
48(4) . . .
48(4) . . .
48(4) . . .
49(4) . . .
42.4(34) . . .
47(4) . . .
45(4) . . .
50(4) . . .
44.7(34) . . .
40.2(33) . . .
47(4) . . .
57(4) . . .
50(4) . . .
42.7(35) . . .
37.8(33) . . .
47(4) . . .
51(4) . . .
48(4) . . .
55(4) . . .
54(4) . . .
52(4) . . .
58(4) . . .
45(4) . . .
49(4) . . .
51(4) . . .
47(4) . . .
42(4) . . .
44.5(35) . . .
45(4) . . .
43.8(35) . . .
42.3(35) . . .
52(4) . . .
53(4) . . .
48(4) . . .
43.6(34) . . .
48(4) . . .
52(4) . . .
51(4) . . .
52(4) . . .
48(4) . . .
44.0(35) . . .
54(4) . . .
59(4) . . .
56(4) . . .
50(4) . . .
40.5(35) . . .
43(4) . . .
49(4) . . .
52(4) . . .
49(4) . . .
47(4) . . .
41(4) . . .
45(4) . . .
50(4) . . .
45(4) . . .
51(4) . . .
48(4) . . .
46(4) . . .
38.9(32) . . .
46(4) . . .
49(4) . . .
43(4) . . .
46(4) . . .
43.1(34) . . .
44.7(35) . . .
37.4(33) . . .
52(4) . . .
41.8(34) . . .
34.8(31) . . .
50(4) . . .
50(4) . . .
47(4) . . .
42.9(35) . . .
47(4) . . .
47(4) . . .
50(4) . . .
38.4(33) . . .
42.2(34) . . .
47(4) . . .
43(4) . . .
52(4) . . .
45(4) . . .
44(4) . . .
41.7(33) . . .
47(4) . . .
53(4) . . .
40.6(33) . . .
44.7(35) . . .
50(4) . . .
37.5(32) . . .
40(4) . . .
53(4) . . .
57(4) . . .
41.9(34) . . .
38.8(34) . . .
42(4) . . .
42(4) . . .
50(4) . . .
43.1(34) . . .
35.7(32) . . .
49(4) . . .
44(4) . . .
48(4) . . .
42.8(34) . . .
49(4) . . .
38.8(34) . . .
52(4) . . .
46(4) . . .
47(4) . . .
51(4) . . .
45(4) . . .
50(4) . . .
47(4) . . .
49(4) . . .
54(4) . . .
56(4) . . .
45(4) . . .
44.5(34) . . .
49(4) . . .
53(4) . . .
48(4) . . .
40.5(33) . . .
41.6(34) . . .
47(4) . . .
43(4) . . .
41.2(34) . . .
48(4) . . .
41.6(34) . . .
41.1(33) . . .
37.2(31) . . .
45.3(35) . . .
54(4) . . .
40.9(33) . . .
39.6(34) . . .
42(4) . . .
54(4) . . .
50(4) . . .
43.1(35) . . .
46(4) . . .
43(4) . . .
50(4) . . .
46(4) . . .
51(4) . . .
51(4) . . .
53(4) . . .
46(4) . . .
42.6(35) . . .
47(4) . . .
40(4) . . .
44(4) . . .
53(4) . . .
48(4) . . .
40.2(34) . . .
38.0(32) . . .
42.8(35) . . .
47(4) . . .
38.8(32) . . .
43(4) . . .
43(4) . . .
45(4) . . .
39.0(34) . . .
46(4) . . .
45(4) . . .
45(4) . . .
48(4) . . .
44.0(35) . . .
45.4(35) . . .
54(4) . . .
56(4) . . .
44(4) . . .
41(4) . . .
47(4) . . .
42(4) . . .
47(4) . . .
37.4(33) . . .
34.1(30) . . .
45.2(35) . . .
52(4) . . .
45(4) . . .
42(4) . . .
40.1(33) . . .
44.2(35) . . .
43.0(34) . . .
44(4) . . .
48(4) . . .
41.4(33) . . .
47(4) . . .
47(4) . . .
45(4) . . .
37.2(32) . . .
41.7(33) . . .
36.9(32) . . .
42.0(35) . . .
49(4) . . .
48(4) . . .
46(4) . . .
53(4) . . .
52(4) . . .
47(4) . . .
58(4) . . .
46.6(35) . . .
49(4) . . .
58(4) . . .
42.4(34) . . .
45(4) . . .
48(4) . . .
48(4) . . .
54(4) . . .
53(4) . . .
49(4) . . .
49(4) . . .
47(4) . . .
36.7(30) . . .
42(4) . . .
45(4) . . .
53(4) . . .
50(4) . . .
39.3(32) . . .
53(4) . . .
52(4) . . .
53(4) . . .
35.6(32) . . .
42(4) . . .
42(4) . . .
47(4) . . .
41.4(34) . . .
44(4) . . .
49(4) . . .
43.9(34) . . .
39.7(33) . . .
49(4) . . .
48(4) . . .
48(4) . . .
42(4) . . .
50(4) . . .
50(4) . . .
55(4) . . .
51(4) . . .
43(4) . . .
46.3(35) . . .
45(4) . . .
51(4) . . .
50(4) . . .
42.7(33) . . .
49(4) . . .
50(4) . . .
41.3(34) . . .
41(4) . . .
39(4) . . .
44(4) . . .
36.6(31) . . .
41(4) . . .
50(4) . . .
49(4) . . .
47(4) . . .
43(4) . . .
52(4) . . .
53(4) . . .
46(4) . . .
44(4) . . .
52(4) . . .
51(4) . . .
45.7(35) . . .
52(4) . . .
52(4) . . .
47(4) . . .
43(4) . . .
43(4) . . .
52(4) . . .
48(4) . . .
46(4) . . .
41.5(35) . . .
37.5(32) . . .
44.9(35) . . .
43.3(34) . . .
44.9(35) . . .
53(4) . . .
41.6(35) . . .
44(4) . . .
48(4) . . .
46(4) . . .
41.5(35) . . .
46(4) . . .
39.1(32) . . .
36.9(32) . . .
41(4) . . .
48(4) . . .
46(4) . . .
48(4) . . .
46(4) . . .
49(4) . . .
52(4) . . .
50(4) . . .
45(4) . . .
42.7(35) . . .
48(4) . . .
39.2(33) . . .
51(4) . . .
48(4) . . .
50(4) . . .
40.5(33) . . .
40(4) . . .
42.6(35) . . .
50(4) . . .
48(4) . . .
54(4) . . .
40.0(34) . . .
52(4) . . .
41.2(34) . . .
48(4) . . .
37.2(32) . . .
53(4) . . .
47(4) . . .
39.5(33) . . .
51(4) . . .
51(4) . . .
41(4) . . .
36.5(32) . . .
40.7(34) . . .
49(4) . . .
50(4) . . .
42(4) . . .
49(4) . . .
49(4) . . .
41.5(34) . . .
41.3(34) . . .
38.5(34) . . .
48(4) . . .
38.2(33) . . .
42.4(35) . . .
61(4) . . .
54(4) . . .
45(4) . . .
41.4(33) . . .
49(4) . . .
58(4) . . .
50(4) . . .
51(4) . . .
42.6(35) . . .
45(4) . . .
47(4) . . .
48(4) . . .
47.3(35) . . .
54(4) . . .
50(4) . . .
57(4) . . .
43(4) . . .
48(4) . . .
48(4) . . .
55(4) . . .
45(4) . . .
41.4(35) . . .
50(4) . . .
47(4) . . .
42.7(35) . . .
48(4) . . .
41.8(35) . . .
33.8(29) . . .
39.6(33) . . .
50(4) . . .
46(4) . . .
38.6(33) . . .
47(4) . . .
46(4) . . .
45(4) . . .
40.4(34) . . .
45(4) . . .
39.1(33) . . .
44(4) . . .
45(4) . . .
40.9(35) . . .
40.2(34) . . .
41.5(33) . . .
59(4) . . .
50(4) . . .
44(4) . . .
40.2(34) . . .
33.7(30) . . .
42.5(35) . . .
42.0(34) . . .
51(4) . . .
47(4) . . .
45.2(35) . . .
48(4) . . .
52(4) . . .
48(4) . . .
49(4) . . .
39.4(33) . . .
42(4) . . .
53(4) . . .
44(4) . . .
41.5(33) . . .
46(4) . . .
48(4) . . .
46(4) . . .
46(4) . . .
45(4) . . .
50(4) . . .
53(4) . . .
46(4) . . .
46(4) . . .
46(4) . . .
44.6(34) . . .
46(4) . . .
48(4) . . .
36.5(32) . . .
43.7(34) . . .
47(4) . . .
45.2(35) . . .
45(4) . . .
41.2(34) . . .
46(4) . . .
42.3(35) . . .
41.2(34) . . .
45(4) . . .
52(4) . . .
53(4) . . .
49(4) . . .
48(4) . . .
42(4) . . .
28.8(28) . . .
51(4) . . .
48(4) . . .
43.4(34) . . .
47(4) . . .
51(4) . . .
40.2(33) . . .
40.7(34) . . .
43(4) . . .
51(4) . . .
54(4) . . .
48(4) . . .
46(4) . . .
39.2(34) . . .
38.8(35) . . .
40.7(34) . . .
54(4) . . .
42.1(34) . . .
50(4) . . .
49(4) . . .
48(4) . . .
42.8(34) . . .
45.1(35) . . .
49(4) . . .
54(4) . . .
44(4) . . .
46(4) . . .
50(4) . . .
46(4) . . .
49(4) . . .
50(4) . . .
43.7(34) . . .
47(4) . . .
46(4) . . .
36.5(31) . . .
53(4) . . .
44.4(34) . . .
43(4) . . .
41(4) . . .
35.1(32) . . .
43.5(34) . . .
45(4) . . .
45(4) . . .
46(4) . . .
45(4) . . .
47(4) . . .
52(4) . . .
47(4) . . .
49(4) . . .
51(4) . . .
52(4) . . .
51(4) . . .
52(4) . . .
45(4) . . .
45(4) . . .
48(4) . . .
49(4) . . .
47(4) . . .
57(4) . . .
47(4) . . .
39.4(33) . . .
38(4) . . .
42(4) . . .
53(4) . . .
56(4) . . .
46(4) . . .
43.7(34) . . .
45(4) . . .
50(4) . . .
43(4) . . .
41.3(34) . . .
43.5(35) . . .
48(4) . . .
49(4) . . .
47(4) . . .
48(4) . . .
40.2(33) . . .
37.1(34) . . .
50(4) . . .
49(4) . . .
43.8(34) . . .
50(4) . . .
43(4) . . .
52(4) . . .
50(4) . . .
38.7(34) . . .
54(4) . . .
48(4) . . .
44.2(35) . . .
47(4) . . .
39.9(35) . . .
50(4) . . .
48(4) . . .
46(4) . . .
39.6(33) . . .
54(4) . . .
44(4) . . .
51(4) . . .
45(4) . . .
42.5(34) . . .
54(4) . . .
49(4) . . .
59(4) . . .
44(4) . . .
46(4) . . .
47(4) . . .
49(4) . . .
43.3(34) . . .
48(4) . . .
48(4) . . .
42.4(35) . . .
39.5(34) . . .
46(4) . . .
37.8(33) . . .
44.2(35) . . .
46(4) . . .
47(4) . . .
47(4) . . .
43.5(34) . . .
52(4) . . .
40.6(34) . . .
51(4) . . .
50(4) . . .
48(4) . . .
52(4) . . .
62(5) . . .
41.9(35) . . .
46(4) . . .
48(4) . . .
55(4) . . .
35.8(31) . . .
45(4) . . .
54(4) . . .
48(4) . . .
48(4) . . .
53(4) . . .
43(4) . . .
61(4) . . .
45(4) . . .
50(4) . . .
42.3(34) . . .
44(4) . . .
50(4) . . .
42.7(34) . . .
49(4) . . .
44(4) . . .
53(4) . . .
53(4) . . .
50(4) . . .
46(4) . . .
50(4) . . .
37.8(32) . . .
41.0(34) . . .
46(4) . . .
54(4) . . .
55(4) . . .
50(4) . . .
49(4) . . .
51(4) . . .
41.0(34) . . .
48(4) . . .
54(4) . . .
40.8(34) . . .
53(4) . . .
47(4) . . .
55(4) . . .
43(4) . . .
45(4) . . .
38.2(32) . . .
50(4) . . .
51(4) . . .
56(4) . . .
46(4) . . .
49(4) . . .
42.5(35) . . .
38.9(33) . . .
41(4) . . .
38.1(33) . . .
45(4) . . .
40.6(35) . . .
43(4) . . .
45(4) . . .
52(4) . . .
51(4) . . .
47(4) . . .
45(4) . . .
50(4) . . .
43.2(34) . . .
45(4) . . .
51(4) . . .
57(4) . . .
46(4) . . .
47(4) . . .
48(4) . . .
46(4) . . .
46(4) . . .
48(4) . . .
42.9(35) . . .
57(4) . . .
34.0(30) . . .
39.8(34) . . .
38.7(33) . . .
46(4) . . .
45(4) . . .
49(4) . . .
51(4) . . .
50(4) . . .
37.7(32) . . .
54(4) . . .
47(4) . . .
41(4) . . .
47(4) . . .
45(4) . . .
46(4) . . .
44(4) . . .
41.9(35) . . .
49(4) . . .
40.4(33) . . .
46(4) . . .
44(4) . . .
44(4) . . .
45(4) . . .
44.7(34) . . .
52(4) . . .
46(4) . . .
45(4) . . .
37.2(33) . . .
47(4) . . .
47(4) . . .
49(4) . . .
46(4) . . .
54(4) . . .
45.3(35) . . .
57(4) . . .
46(4) . . .
49(4) . . .
49(4) . . .
42.3(35) . . .
46(4) . . .
50(4) . . .
42.6(34) . . .
45(4) . . .
45(4) . . .
47(4) . . .
50(4) . . .
49(4) . . .
47(4) . . .
48(4) . . .
44(4) . . .
45(4) . . .
40.5(35) . . .
43.4(34) . . .
46(4) . . .
37.7(31) . . .
37.7(35) . . .
43(4) . . .
49(4) . . .
47(4) . . .
40(4) . . .
33.3(32) . . .
43.2(35) . . .
51(4) . . .
42.3(34) . . .
47(4) . . .
54(4) . . .
45.0(34) . . .
53(4) . . .
39.0(33) . . .
40.2(35) . . .
39.6(34) . . .
47(4) . . .
44.3(35) . . .
51(4) . . .
54(4) . . .
46(4) . . .
46(4) . . .
41.2(33) . . .
36.5(33) . . .
48(4) . . .
45(4) . . .
41.7(34) . . .
38.1(32) . . .
48(4) . . .
45(4) . . .
40.0(33) . . .
39.0(32) . . .
43.8(34) . . .
38.5(32) . . .
47(4) . . .
41(4) . . .
44.5(35) . . .
45.6(35) . . .
45(4) . . .
44(4) . . .
52(4) . . .
47(4) . . .
42.8(34) . . .
51(4) . . .
42.9(35) . . .
46(4) . . .
44.5(35) . . .
42.7(35) . . .
46(4) . . .
53(4) . . .
40.6(33) . . .
52(4) . . .
43.4(34) . . .
46(4) . . .
47(4) . . .
34.4(31) . . .
48(4) . . .
56(4) . . .
45(4) . . .
48(4) . . .
40.6(34) . . .
49(4) . . .
48(4) . . .
46(4) . . .
51(4) . . .
54(4) . . .
46(4) . . .
49(4) . . .
48(4) . . .
47(4) . . .
51(4) . . .
44.0(34) . . .
48(4) . . .
47(4) . . .
44(4) . . .
41.8(34) . . .
44.2(34) . . .
47(4) . . .
54(4) . . .
45(4) . . .
47(4) . . .
42.1(34) . . .
45(4) . . .
44(4) . . .
38.5(34) . . .
44.5(35) . . .
39.0(33) . . .
46(4) . . .
53(4) . . .
46(4) . . .
51(4) . . .
45(4) . . .
31.9(29) . . .
40.9(34) . . .
40.7(34) . . .
39.3(33) . . .
42.5(34) . . .
37.8(32) . . .
43(4) . . .
38.6(34) . . .
48(4) . . .
38.8(33) . . .
38.1(34) . . .
40.2(35) . . .
49(4) . . .
37.7(32) . . .
44(4) . . .
42(4) . . .
48(4) . . .
46(4) . . .
51(4) . . .
57(4) . . .
47(4) . . .
42.9(35) . . .
42.6(34) . . .
53(4) . . .
47(4) . . .
45(4) . . .
46(4) . . .
44.0(34) . . .
53(4) . . .
51(4) . . .
36.3(35) . . .
44(4) . . .
43.7(34) . . .
41.0(33) . . .
46(4) . . .
44(4) . . .
43.2(35) . . .
52(4) . . .
43.8(34) . . .
46(4) . . .
33.4(32) . . .
37.6(32) . . .
41.6(33) . . .
53(4) . . .
38.4(34) . . .
45(4) . . .
42(4) . . .
41.7(34) . . .
43(4) . . .
53(4) . . .
39.3(35) . . .
43(4) . . .
34.1(30) . . .
48(4) . . .
52(4) . . .
40.9(35) . . .
42.6(34) . . .
44.4(35) . . .
48(4) . . .
40.1(33) . . .
49(4) . . .
40.9(34) . . .
42.7(34) . . .
42.0(34) . . .
38.8(35) . . .
38.2(33) . . .
46(4) . . .
47(4) . . .
51(4) . . .
48(4) . . .
50(4) . . .
40.7(35) . . .
40.7(33) . . .
47(4) . . .
46(4) . . .
37.5(32) . . .
47(4) . . .
43.6(34) . . .
35.6(30) . . .
41(4) . . .
43(4) . . .
45.3(35) . . .
50(4) . . .
50(4) . . .
41(4) . . .
42.9(34) . . .
45(4) . . .
54(4) . . .
40.0(35) . . .
39.8(35) . . .
45(4) . . .
54(4) . . .
42.7(34) . . .
44(4) . . .
42(4) . . .
49(4) . . .
40.3(33) . . .
49(4) . . .
41.1(33) . . .
45(4) . . .
42(4) . . .
48(4) . . .
55(4) . . .
42(4) . . .
40(4) . . .
39.8(35) . . .
43.3(34) . . .
37.9(35) . . .
38.5(33) . . .
31.2(29) . . .
45(4) . . .
53(4) . . .
42.4(35) . . .
34.4(32) . . .
39.6(33) . . .
46(4) . . .
39.0(33) . . .
47(4) . . .
37.2(33) . . .
51(4) . . .
44.9(35) . . .
33.7(31) . . .
41(4) . . .
37.1(33) . . .
40.2(35) . . .
37.0(32) . . .
47(4) . . .
54(4) . . .
48(4) . . .
48(4) . . .
41.1(34) . . .
44.0(34) . . .
39.5(33) . . .
47(4) . . .
49(4) . . .
39.2(32) . . .
43.2(34) . . .
50(4) . . .
52(4) . . .
52(4) . . .
35.8(31) . . .
46(4) . . .
36.5(31) . . .
43(4) . . .
38.1(34) . . .
50(4) . . .
44(4) . . .
43(4) . . .
45(4) . . .
46(4) . . .
40.1(33) . . .
49(4) . . .
39.5(33) . . .
41(4) . . .
37.1(33) . . .
47(4) . . .
48(4) . . .
52(4) . . .
42.5(35) . . .
49(4) . . .
48(4) . . .
47(4) . . .
52(4) . . .
36.8(32) . . .
43.7(35) . . .
46(4) . . .
44(4) . . .
44(4) . . .
44(4) . . .
50(4) . . .
50(4) . . .
37.1(34) . . .
34.4(33) . . .
34.6(32) . . .
45.1(35) . . .
41.5(33) . . .
44(4) . . .
43(4) . . .
35.0(30) . . .
47(4) . . .
41.9(33) . . .
43(4) . . .
49(4) . . .
53(4) . . .
44.3(35) . . .
43.4(34) . . .
43.9(34) . . .
44(4) . . .
44.5(35) . . .
39.8(33) . . .
46.4(35) . . .
44(4) . . .
40(4) . . .
44(4) . . .
35.7(31) . . .
52(4) . . .
35.2(32) . . .
41.2(34) . . .
48(4) . . .
39.3(33) . . .
40.9(34) . . .
44(4) . . .
35.2(33) . . .
42(4) . . .
43.9(34) . . .
40.6(33) . . .
51(4) . . .
44(4) . . .
35.6(34) . . .
38.0(31) . . .
40(4) . . .
38.3(33) . . .
44(4) . . .
44.7(35) . . .
47(4) . . .
39.8(33) . . .
40(4) . . .
48(4) . . .
43.0(34) . . .
45.3(35) . . .
36.3(32) . . .
33.8(33) . . .
38.8(33) . . .
47(4) . . .
51(4) . . .
41.9(34) . . .
46(4) . . .
51(4) . . .
41.9(34) . . .
43.4(34) . . .
43(4) . . .
48(4) . . .
46(4) . . .
47(4) . . .
49(4) . . .
47(4) . . .
44(4) . . .
39.1(33) . . .
41.9(34) . . .
34.9(30) . . .
45(4) . . .
42.9(35) . . .
37.6(34) . . .
43.0(34) . . .
40.2(34) . . .
41.7(33) . . .
54(4) . . .
45(4) . . .
44(4) . . .
44.3(35) . . .
37.2(32) . . .
43(4) . . .
47(4) . . .
35.5(31) . . .
43(4) . . .
40.5(34) . . .
44(4) . . .
49(4) . . .
56(4) . . .
42.3(34) . . .
39.9(33) . . .
48(4) . . .
39.8(34) . . .
51(4) . . .
45(4) . . .
55(4) . . .
47(4) . . .
48(4) . . .
47(4) . . .
45(4) . . .
47(4) . . .
40.0(33) . . .
45(4) . . .
38.2(32) . . .
45(4) . . .
43(4) . . .
49(4) . . .
45(4) . . .
38.8(33) . . .
31.5(29) . . .
36.8(33) . . .
51(4) . . .
44.2(34) . . .
51(4) . . .
54(4) . . .
48(4) . . .
49(4) . . .
40.6(34) . . .
46(4) . . .
47(4) . . .
37.4(34) . . .
42(4) . . .
49(4) . . .
41.2(34) . . .
40.3(33) . . .
47(4) . . .
52(4) . . .
40.7(33) . . .
45(4) . . .
34.6(31) . . .
37.2(33) . . .
32.1(31) . . .
36.8(32) . . .
42.9(34) . . .
50(4) . . .
49(4) . . .
39.5(33) . . .
42.0(34) . . .
47(4) . . .
47(4) . . .
47(4) . . .
50(4) . . .
50(4) . . .
44(4) . . .
47(4) . . .
49(4) . . .
42.5(35) . . .
44(4) . . .
46(4) . . .
48(4) . . .
56(4) . . .
56(4) . . .
37.3(32) . . .
45(4) . . .
46(4) . . .
43(4) . . .
49(4) . . .
38.3(32) . . .
47(4) . . .
48(4) . . .
46(4) . . .
48(4) . . .
57(4) . . .
44.4(35) . . .
42(4) . . .
46(4) . . .
49(4) . . .
39.3(33) . . .
44(4) . . .
42(4) . . .
44(4) . . .
55(4) . . .
38.0(33) . . .
38.6(33) . . .
46(4) . . .
40.3(34) . . .
46(4) . . .
50(4) . . .
40.5(32) . . .
46(4) . . .
40.5(34) . . .
43.9(34) . . .
44.9(35) . . .
44(4) . . .
44(4) . . .
44(4) . . .
51(4) . . .
54(4) . . .
51(4) . . .
45(4) . . .
43.5(34) . . .
52(4) . . .
43(4) . . .
36.2(32) . . .
45(4) . . .
46(4) . . .
47(4) . . .
42.1(35) . . .
47(4) . . .
39.2(34) . . .
39.2(33) . . .
48(4) . . .
45(4) . . .
50(4) . . .
47(4) . . .
46(4) . . .
44.7(34) . . .
40.2(33) . . .
43(4) . . .
39.3(33) . . .
35.5(31) . . .
42.6(34) . . .
45(4) . . .
46(4) . . .
36.0(30) . . .
48(4) . . .
44.6(35) . . .
50(4) . . .
48(4) . . .
44(4) . . .
40.6(33) . . .
48(4) . . .
51(4) . . .
37.0(34) . . .
39.9(35) . . .
48(4) . . .
42.2(34) . . .
45(4) . . .
51(4) . . .
39.1(33) . . .
55(4) . . .
46(4) . . .
46(4) . . .
46(4) . . .
40.8(34) . . .
35.8(31) . . .
51(4) . . .
39.8(33) . . .
54(4) . . .
36.0(32) . . .
43.8(34) . . .
46(4) . . .
40.8(34) . . .
39.6(34) . . .
45(4) . . .
45.1(35) . . .
51(4) . . .
47(4) . . .
51(4) . . .
54(4) . . .
37.3(32) . . .
39.5(35) . . .
36.3(33) . . .
40.2(33) . . .
39.4(33) . . .
47(4) . . .
46(4) . . .
35.3(32) . . .
47(4) . . .
43.3(34) . . .
48(4) . . .
38.2(33) . . .
46(4) . . .
38.0(33) . . .
46.3(35) . . .
36.8(31) . . .
42.9(35) . . .
43(4) . . .
42.7(34) . . .
38.1(32) . . .
40.4(33) . . .
48(4) . . .
41(4) . . .
50(4) . . .
42.7(34) . . .
41.3(33) . . .
35.7(32) . . .
46(4) . . .
42(4) . . .
49(4) . . .
40.4(34) . . .
43.5(34) . . .
36.4(30) . . .
42.6(34) . . .
37.3(32) . . .
48(4) . . .
48(4) . . .
34.7(31) . . .
32.1(30) . . .
41.5(34) . . .
37.0(32) . . .
37.9(32) . . .
46(4) . . .
45(4) . . .
33.8(31) . . .
51(4) . . .
50(4) . . .
42.3(34) . . .
36.5(32) . . .
50(4) . . .
52(4) . . .
52(4) . . .
49(4) . . .
41.9(33) . . .
42.2(34) . . .
49(4) . . .
39.4(34) . . .
42(4) . . .
35.0(31) . . .
44(4) . . .
46(4) . . .
57(4) . . .
45(4) . . .
40.1(33) . . .
35.2(31) . . .
44(4) . . .
38.0(33) . . .
48(4) . . .
46(4) . . .
47(4) . . .
37.2(32) . . .
38.1(33) . . .
47(4) . . .
44(4) . . .
42.6(34) . . .
40.8(34) . . .
32.7(31) . . .
38(4) . . .
42.1(34) . . .
37.7(33) . . .
49(4) . . .
53(4) . . .
42.0(34) . . .
45.3(35) . . .
43.4(34) . . .
44(4) . . .
38.3(33) . . .
37.3(32) . . .
51(4) . . .
41.9(35) . . .
50(4) . . .
39.4(34) . . .
37.9(33) . . .
46(4) . . .
45(4) . . .
42(4) . . .
43(4) . . .
50(4) . . .
54(4) . . .
58(4) . . .
53(4) . . .
40.6(33) . . .
39.1(33) . . .
37.0(32) . . .
36.3(31) . . .
39.1(33) . . .
45(4) . . .
54(4) . . .
47(4) . . .
43.2(34) . . .
49(4) . . .
48(4) . . .
37.6(33) . . .
42.2(34) . . .
36.5(32) . . .
43(4) . . .
49(4) . . .
45.2(35) . . .
46(4) . . .
46(4) . . .
38(4) . . .
42(4) . . .
40.6(33) . . .
45.4(35) . . .
40.1(35) . . .
40(4) . . .
49(4) . . .
39.7(33) . . .
44(4) . . .
41(4) . . .
40(4) . . .
47(4) . . .
53(4) . . .
49(4) . . .
45.1(35) . . .
45(4) . . .
42.7(35) . . .
46(4) . . .
40.5(34) . . .
47(4) . . .
49(4) . . .
59(4) . . .
36.3(32) . . .
40.9(34) . . .
34.3(30) . . .
48(4) . . .
43.1(34) . . .
44.0(34) . . .
38.6(34) . . .
35.2(32) . . .
35.6(33) . . .
46(4) . . .
45(4) . . .
42(4) . . .
43(4) . . .
40.2(35) . . .
42.1(35) . . .
49(4) . . .
44(4) . . .
40.3(34) . . .
42.8(34) . . .
38.7(32) . . .
43.5(35) . . .
41.0(34) . . .
44.7(35) . . .
47(4) . . .
44(4) . . .
43.1(34) . . .
48(4) . . .
42(4) . . .
45(4) . . .
45.5(35) . . .
43.0(34) . . .
39.7(32) . . .
35.1(32) . . .
50(4) . . .
41.4(34) . . .
48(4) . . .
36.3(31) . . .
39.9(34) . . .
41(4) . . .
41.9(34) . . .
42.3(34) . . .
45.0(34) . . .
48(4) . . .
51(4) . . .
36.3(31) . . .
41.2(34) . . .
37.6(34) . . .
36.8(33) . . .
31.5(32) . . .
40.9(33) . . .
41.0(34) . . .
45(4) . . .
43(4) . . .
31.3(30) . . .
42.9(34) . . .
52(4) . . .
34.1(31) . . .
45(4) . . .
39.4(33) . . .
38.5(33) . . .
39.3(34) . . .
51(4) . . .
47(4) . . .
41.0(33) . . .
35.0(31) . . .
49(4) . . .
41(4) . . .
41.7(35) . . .
44.1(34) . . .
51(4) . . .
40.8(34) . . .
47(4) . . .
47(4) . . .
41.4(33) . . .
49(4) . . .
41(4) . . .
53(4) . . .
44.0(34) . . .
45(4) . . .
36.7(32) . . .
44(4) . . .
38.0(33) . . .
42(4) . . .
47(4) . . .
41.0(33) . . .
38.9(33) . . .
44(4) . . .
45(4) . . .
45.1(35) . . .
30.6(28) . . .
42.1(34) . . .
35.3(32) . . .
44(4) . . .
50(4) . . .
41.0(33) . . .
40(4) . . .
37.9(32) . . .
49(4) . . .
58(4) . . .
45.0(34) . . .
47(4) . . .
39.5(35) . . .
48(4) . . .
46(4) . . .
39.5(33) . . .
39.5(35) . . .
34.0(32) . . .
36.7(32) . . .
45.7(35) . . .
46(4) . . .
40(4) . . .
47(4) . . .
41.8(34) . . .
37.0(31) . . .
43(4) . . .
53(4) . . .
37.6(34) . . .
47(4) . . .
42.4(34) . . .
57(4) . . .
40.6(34) . . .
41(4) . . .
46(4) . . .
47(4) . . .
32.2(29) . . .
35.8(34) . . .
41.8(35) . . .
38.2(32) . . .
39.5(32) . . .
32.8(30) . . .
34.0(32) . . .
34.4(32) . . .
45.0(35) . . .
39.0(32) . . .
54(4) . . .
32.2(29) . . .
39.1(35) . . .
40.4(33) . . .
38.6(32) . . .
30.8(29) . . .
47(4) . . .
51(4) . . .
47(4) . . .
45.0(34) . . .
45(4) . . .
43(4) . . .
40.0(34) . . .
49(4) . . .
42.7(34) . . .
46(4) . . .
43(4) . . .
44.0(35) . . .
38.1(33) . . .
50(4) . . .
47(4) . . .
46(4) . . .
38.5(33) . . .
44.1(35) . . .
42(4) . . .
47(4) . . .
40.3(34) . . .
39.7(33) . . .
48(4) . . .
40.4(33) . . .
47(4) . . .
42(4) . . .
41.6(34) . . .
46(4) . . .
40.9(33) . . .
38.2(32) . . .
50(4) . . .
29.1(28) . . .
37.6(32) . . .
39.3(34) . . .
35.5(32) . . .
43.2(35) . . .
47(4) . . .
51(4) . . .
58(4) . . .
36.4(34) . . .
39.3(34) . . .
42.2(33) . . .
43.6(35) . . .
42(4) . . .
40(4) . . .
39(4) . . .
31.9(29) . . .
46(4) . . .
35.7(31) . . .
46(4) . . .
43(4) . . .
47(4) . . .
41.8(34) . . .
51(4) . . .
43(4) . . .
42(4) . . .
49(4) . . .
51(4) . . .
39.2(34) . . .
35.4(32) . . .
39.6(34) . . .
44.1(35) . . .
39.3(34) . . .
39.6(34) . . .
33.9(31) . . .
39.4(33) . . .
36.7(31) . . .
44(4) . . .
41(4) . . .
40.8(33) . . .
34.0(30) . . .
38.9(33) . . .
40(4) . . .
47(4) . . .
43(4) . . .
47(4) . . .
46(4) . . .
43.8(35) . . .
50(4) . . .
35.3(32) . . .
40.7(33) . . .
35.9(32) . . .
38.1(34) . . .
54(4) . . .
35.3(31) . . .
36.6(31) . . .
53(4) . . .
43(4) . . .
38.4(34) . . .
36.7(32) . . .
43.9(34) . . .
45(4) . . .
38.4(33) . . .
34.1(31) . . .
47(4) . . .
37.4(32) . . .
33.1(30) . . .
43(4) . . .
48(4) . . .
51(4) . . .
47(4) . . .
36.2(32) . . .
45(4) . . .
40.2(34) . . .
53(4) . . .
42.0(33) . . .
51(4) . . .
47(4) . . .
52(4) . . .
43(4) . . .
39.4(33) . . .
45(4) . . .
44(4) . . .
43(4) . . .
48(4) . . .
46(4) . . .
40.3(34) . . .
37.6(33) . . .
43(4) . . .
34.7(30) . . .
40.0(33) . . .
40.0(34) . . .
48(4) . . .
37.8(32) . . .
38.6(32) . . .
44.4(35) . . .
43(4) . . .
45(4) . . .
50(4) . . .
41.5(33) . . .
40.7(33) . . .
50(4) . . .
42.9(35) . . .
46(4) . . .
41.4(34) . . .
44.5(34) . . .
32.1(29) . . .
44(4) . . .
34.9(30) . . .
46(4) . . .
40.9(32) . . .
39.0(33) . . .
38.2(34) . . .
46(4) . . .
34.2(31) . . .
43.6(35) . . .
47(4) . . .
34.3(30) . . .
46(4) . . .
50(4) . . .
44.2(35) . . .
39.9(33) . . .
51(4) . . .
40.8(35) . . .
46(4) . . .
37.6(32) . . .
38.4(32) . . .
40.6(33) . . .
36.9(32) . . .
48(4) . . .
43.0(34) . . .
47(4) . . .
52(4) . . .
42.6(34) . . .
38.5(33) . . .
32.4(31) . . .
38.9(33) . . .
42(4) . . .
33.3(30) . . .
34.0(30) . . .
39(4) . . .
36.5(33) . . .
46(4) . . .
36.3(31) . . .
40.6(33) . . .
34.0(31) . . .
38.6(34) . . .
46(4) . . .
40.5(33) . . .
43.4(34) . . .
46(4) . . .
37.6(33) . . .
48(4) . . .
41.2(33) . . .
36.5(32) . . .
31.5(29) . . .
43(4) . . .
40.0(34) . . .
38.6(32) . . .
38.8(33) . . .
34.7(31) . . .
38.5(34) . . .
38.6(33) . . .
37.2(32) . . .
42.4(35) . . .
48(4) . . .
42(4) . . .
45(4) . . .
46(4) . . .
41.4(34) . . .
39.9(33) . . .
41.1(35) . . .
43(4) . . .
41.0(33) . . .
44(4) . . .
40.2(34) . . .
36.0(33) . . .
41.4(35) . . .
41.2(34) . . .
40.2(33) . . .
42(4) . . .
41(4) . . .
50(4) . . .
38.8(33) . . .
41.9(34) . . .
31.8(30) . . .
44(4) . . .
41.1(34) . . .
42.2(34) . . .
49(4) . . .
43(4) . . .
34.7(31) . . .
44.4(35) . . .
48(4) . . .
42.8(34) . . .
37.4(34) . . .
36.6(33) . . .
42.3(34) . . .
48(4) . . .
35.1(30) . . .
47(4) . . .
46(4) . . .
40.6(34) . . .
37.4(32) . . .
47(4) . . .
41.5(35) . . .
44(4) . . .
40.9(33) . . .
37.8(32) . . .
36.2(31) . . .
44(4) . . .
40(4) . . .
43.9(35) . . .
35.9(32) . . .
42.3(35) . . .
35.5(35) . . .
33.2(30) . . .
37.0(31) . . .
33.9(32) . . .
38.0(34) . . .
49(4) . . .
47(4) . . .
53(4) . . .
44.4(35) . . .
47(4) . . .
37.4(32) . . .
46(4) . . .
43.1(34) . . .
31.6(29) . . .
32.6(32) . . .
32.3(32) . . .
48(4) . . .
30.4(29) . . .
36.9(33) . . .
46(4) . . .
49(4) . . .
45(4) . . .
43.8(34) . . .
58(4) . . .
36.8(33) . . .
39.1(34) . . .
41.4(35) . . .
43.7(35) . . .
37.7(33) . . .
40(4) . . .
49(4) . . .
37.9(32) . . .
46(4) . . .
47(4) . . .
34.9(31) . . .
43.4(35) . . .
31.2(29) . . .
36.7(32) . . .
46(4) . . .
35.1(32) . . .
46(4) . . .
42.5(35) . . .
39.0(33) . . .
39.0(34) . . .
44(4) . . .
49(4) . . .
44.7(35) . . .
36.6(32) . . .
34.6(31) . . .
42(4) . . .
43(4) . . .
45(4) . . .
44.0(34) . . .
46(4) . . .
44(4) . . .
44(4) . . .
43.9(35) . . .
45(4) . . .
36.9(33) . . .
40.3(34) . . .
35.0(31) . . .
37.6(32) . . .
32.8(29) . . .
41.5(35) . . .
39(4) . . .
30.8(29) . . .
41.5(34) . . .
46(4) . . .
36.6(33) . . .
31.3(31) . . .
39(4) . . .
38.2(32) . . .
39.4(33) . . .
43.9(35) . . .
43(4) . . .
33.9(31) . . .
37.8(32) . . .
37.9(32) . . .
43(4) . . .
41.1(33) . . .
39.2(33) . . .
35.4(31) . . .
41.7(34) . . .
40.4(34) . . .
42.0(34) . . .
48(4) . . .
42.0(34) . . .
45(4) . . .
36.0(33) . . .
37.3(34) . . .
43.1(35) . . .
54(4) . . .
48(4) . . .
42(4) . . .
34.0(30) . . .
39.4(33) . . .
50(4) . . .
42.9(35) . . .
41(4) . . .
40.7(35) . . .
44.4(35) . . .
48(4) . . .
45(4) . . .
44(4) . . .
48(4) . . .
43.5(35) . . .
38.5(32) . . .
41.2(35) . . .
45(4) . . .
48(4) . . .
45(4) . . .
50(4) . . .
42(4) . . .
36.7(32) . . .
39.1(33) . . .
46(4) . . .
44(4) . . .
38.7(34) . . .
41(4) . . .
39.6(34) . . .
40.6(33) . . .
41.0(33) . . .
42.2(35) . . .
41(4) . . .
49(4) . . .
42.3(34) . . .
31.0(30) . . .
42(4) . . .
42(4) . . .
40.2(33) . . .
45(4) . . .
49(4) . . .
37.4(34) . . .
43(4) . . .
43.7(35) . . .
40.3(33) . . .
39.5(34) . . .
38.8(34) . . .
48(4) . . .
44.9(35) . . .
41.6(34) . . .
36.7(31) . . .
47(4) . . .
46(4) . . .
48(4) . . .
54(4) . . .
44(4) . . .
34.9(33) . . .
43(4) . . .
32.2(29) . . .
41.3(34) . . .
40.2(34) . . .
34.1(34) . . .
35.0(33) . . .
41.0(34) . . .
39.0(34) . . .
44(4) . . .
46(4) . . .
42(4) . . .
42.3(33) . . .
41(4) . . .
44(4) . . .
34.8(31) . . .
38.2(33) . . .
41.3(34) . . .
36.8(32) . . .
43(4) . . .
46(4) . . .
46(4) . . .
37.8(32) . . .
47(4) . . .
47(4) . . .
56(4) . . .
37.9(32) . . .
32.6(30) . . .
40.7(33) . . .
47(4) . . .
56(4) . . .
38.1(32) . . .
49(4) . . .
46(4) . . .
40.1(33) . . .
52(4) . . .
32.5(30) . . .
40.9(33) . . .
34.0(32) . . .
42(4) . . .
37.1(32) . . .
40.6(34) . . .
32.0(29) . . .
32.7(31) . . .
36.5(33) . . .
38.0(34) . . .
44(4) . . .
44(4) . . .
38.5(34) . . .
38(4) . . .
44(4) . . .
43.5(35) . . .
41.4(34) . . .
42.0(34) . . .
37.8(32) . . .
36.5(32) . . .
49(4) . . .
43.2(34) . . .
40.0(34) . . .
38.8(33) . . .
44(4) . . .
55(4) . . .
40.9(34) . . .
37.3(33) . . .
35.8(32) . . .
32.7(31) . . .
40.3(33) . . .
39.8(33) . . .
37.4(33) . . .
32.1(31) . . .
40.3(35) . . .
43.0(34) . . .
41.2(33) . . .
46(4) . . .
45(4) . . .
36.4(32) . . .
47(4) . . .
40.8(34) . . .
40.1(35) . . .
46(4) . . .
43.8(34) . . .
37.1(32) . . .
41.5(34) . . .
34.9(32) . . .
37.4(33) . . .
43.6(34) . . .
44.6(35) . . .
36.1(34) . . .
40(4) . . .
33.9(33) . . .
35.8(32) . . .
47(4) . . .
39(4) . . .
47(4) . . .
40.1(35) . . .
39.5(34) . . .
41.5(34) . . .
42(4) . . .
38.6(35) . . .
34.5(31) . . .
33.9(31) . . .
42.8(34) . . .
34.4(33) . . .
39.6(34) . . .
44(4) . . .
45(4) . . .
39.3(32) . . .
35.7(31) . . .
40(4) . . .
40.3(35) . . .
41.4(33) . . .
38.9(32) . . .
48(4) . . .
38.4(33) . . .
38.7(33) . . .
43.5(34) . . .
43.0(35) . . .
41.2(34) . . .
39.3(33) . . .
46(4) . . .
41.0(34) . . .
36.4(33) . . .
37.4(32) . . .
47(4) . . .
44(4) . . .
47(4) . . .
38.7(33) . . .
40.5(34) . . .
44(4) . . .
45(4) . . .
41.6(34) . . .
42(4) . . .
28.1(30) . . .
41(4) . . .
41.3(34) . . .
36.6(32) . . .
41(4) . . .
35.7(32) . . .
46(4) . . .
47(4) . . .
43.1(34) . . .
49(4) . . .
41(4) . . .
39.3(35) . . .
34.8(32) . . .
40.6(33) . . .
45(4) . . .
37.5(34) . . .
38.5(33) . . .
42.5(34) . . .
47(4) . . .
34.7(31) . . .
44(4) . . .
41(4) . . .
39.5(34) . . .
41.4(34) . . .
33.1(31) . . .
44(4) . . .
39.6(33) . . .
46(4) . . .
38.2(32) . . .
42.0(34) . . .
40.5(34) . . .
40(4) . . .
47(4) . . .
45(4) . . .
43(4) . . .
38.1(33) . . .
37.9(32) . . .
36.5(32) . . .
35.8(33) . . .
32.2(29) . . .
47(4) . . .
39.5(34) . . .
48(4) . . .
41.0(34) . . .
44(4) . . .
44(4) . . .
46(4) . . .
33.9(30) . . .
45(4) . . .
43(4) . . .
40.9(34) . . .
42.3(34) . . .
42.1(34) . . .
34.3(33) . . .
50(4) . . .
43(4) . . .
40.3(34) . . .
39.2(34) . . .
38(4) . . .
30.7(31) . . .
35.9(32) . . .
30.0(29) . . .
41.1(33) . . .
43.9(35) . . .
33.8(30) . . .
36.6(32) . . .
45.1(34) . . .
46(4) . . .
32.3(31) . . .
40(4) . . .
45(4) . . .
38.7(32) . . .
44(4) . . .
39.2(34) . . .
41.4(35) . . .
46(4) . . .
38.0(32) . . .
37.8(32) . . .
35.9(33) . . .
40(4) . . .
34.3(31) . . .
41.7(34) . . .
46(4) . . .
40.6(35) . . .
44(4) . . .
39.5(33) . . .
42.6(34) . . .
39.4(33) . . .
45(4) . . .
41.1(33) . . .
41.7(35) . . .
38.7(32) . . .
45(4) . . .
43.6(35) . . .
49(4) . . .
41.1(34) . . .
38.3(33) . . .
45(4) . . .
42.3(34) . . .
44.3(34) . . .
46(4) . . .
44.3(35) . . .
46(4) . . .
36.0(33) . . .
40.8(34) . . .
38.1(32) . . .
42.1(34) . . .
47(4) . . .
50(4) . . .
53(4) . . .
36.5(31) . . .
43.1(34) . . .
40.4(33) . . .
33.7(31) . . .
38.4(32) . . .
42.2(34) . . .
33.9(30) . . .
38.7(35) . . .
28.1(29) . . .
36.1(32) . . .
51(4) . . .
35.0(30) . . .
30.6(30) . . .
36.8(33) . . .
39.0(33) . . .
43.8(34) . . .
41.4(34) . . .
30.3(29) . . .
37.2(35) . . .
39.9(34) . . .
45.0(35) . . .
38.3(32) . . .
44(4) . . .
40(4) . . .
37.2(33) . . .
34.7(31) . . .
39.2(33) . . .
42.9(35) . . .
37.8(32) . . .
49(4) . . .
51(4) . . .
43(4) . . .
53(4) . . .
48(4) . . .
41.0(34) . . .
41.5(34) . . .
37.2(32) . . .
42(4) . . .
33.7(30) . . .
35.8(32) . . .
40.3(33) . . .
41.6(34) . . .
47(4) . . .
39.9(34) . . .
39.5(34) . . .
42.8(34) . . .
36.5(32) . . .
39.8(34) . . .
39.5(32) . . .
46(4) . . .
40.6(33) . . .
49(4) . . .
47(4) . . .
37.1(32) . . .
45.4(35) . . .
49(4) . . .
44(4) . . .
50(4) . . .
48(4) . . .
41.7(34) . . .
42.7(35) . . .
33.0(30) . . .
42(4) . . .
46(4) . . .
44.3(34) . . .
46(4) . . .
34.3(30) . . .
38.2(33) . . .
49(4) . . .
48(4) . . .
38.5(32) . . .
29.3(29) . . .
40.0(35) . . .
37.7(35) . . .
47(4) . . .
40.4(34) . . .
38.8(34) . . .
34.5(32) . . .
40(4) . . .
35.8(31) . . .
45(4) . . .
36.6(31) . . .
47(4) . . .
45(4) . . .
49(4) . . .
49(4) . . .
37.9(34) . . .
47(4) . . .
47(4) . . .
42.0(33) . . .
40(4) . . .
35.8(34) . . .
35.1(33) . . .
43.6(35) . . .
39.4(33) . . .
48(4) . . .
49(4) . . .
43(4) . . .
38.4(32) . . .
37.3(32) . . .
26.9(27) . . .
37.5(35) . . .
33.8(31) . . .
35.1(30) . . .
42.5(34) . . .
38.4(33) . . .
40(4) . . .
45(4) . . .
44.0(35) . . .
45.7(35) . . .
45(4) . . .
37.4(34) . . .
43(4) . . .
36.6(32) . . .
37.0(31) . . .
44(4) . . .
43(4) . . .
37.5(34) . . .
48(4) . . .
49(4) . . .
44(4) . . .
41(4) . . .
41.3(34) . . .
46(4) . . .
39.7(34) . . .
37.1(34) . . .
43(4) . . .
36.7(32) . . .
37.4(32) . . .
36.4(33) . . .
37.5(33) . . .
33.2(31) . . .
35.6(31) . . .
48(4) . . .
40.9(34) . . .
44(4) . . .
41.4(35) . . .
46(4) . . .
41.0(33) . . .
42(4) . . .
37.5(33) . . .
39.2(33) . . .
50(4) . . .
40.7(33) . . .
40.1(33) . . .
36.4(33) . . .
37.3(33) . . .
41.3(33) . . .
40.9(33) . . .
37.3(33) . . .
34.6(31) . . .
34.5(32) . . .
40.3(33) . . .
34.3(31) . . .
30.8(29) . . .
42(4) . . .
45(4) . . .
45.7(35) . . .
48(4) . . .
43(4) . . .
38.5(34) . . .
39.7(34) . . .
37.3(31) . . .
25.4(26) . . .
51(4) . . .
40(4) . . .
35.7(33) . . .
41.8(34) . . .
36.6(31) . . .
53(4) . . .
47(4) . . .
41(4) . . .
48(4) . . .
41.7(34) . . .
40.0(33) . . .
40(4) . . .
39.0(33) . . .
44.3(35) . . .
48(4) . . .
37.8(33) . . .
42.3(35) . . .
44(4) . . .
36.9(32) . . .
45(4) . . .
42(4) . . .
43(4) . . .
47(4) . . .
43.8(35) . . .
38.3(32) . . .
38.0(34) . . .
57(4) . . .
48(4) . . .
30.9(29) . . .
41.1(34) . . .
51(4) . . .
38.3(35) . . .
32.2(30) . . .
41.6(34) . . .
47(4) . . .
37.5(33) . . .
36.2(33) . . .
38.3(33) . . .
48(4) . . .
34.1(32) . . .
36.4(33) . . .
43.6(34) . . .
46(4) . . .
38.2(31) . . .
36.5(33) . . .
37.5(35) . . .
35.9(30) . . .
41.3(34) . . .
41.9(33) . . .
45(4) . . .
37.8(34) . . .
33.1(30) . . .
46(4) . . .
41.3(33) . . .
33.4(30) . . .
36.6(33) . . .
44(4) . . .
47(4) . . .
46(4) . . .
37.7(33) . . .
41(4) . . .
37.1(32) . . .
40.4(33) . . .
50(4) . . .
41.3(35) . . .
33.5(32) . . .
41.5(35) . . .
41.7(33) . . .
38.3(32) . . .
44(4) . . .
40(4) . . .
33.6(31) . . .
36.3(31) . . .
35.9(32) . . .
44(4) . . .
38.0(33) . . .
39.7(35) . . .
41.7(33) . . .
31.9(30) . . .
43(4) . . .
43(4) . . .
49(4) . . .
36.9(32) . . .
50(4) . . .
42.6(35) . . .
43(4) . . .
45(4) . . .
47(4) . . .
40.8(35) . . .
41(4) . . .
35.9(34) . . .
39.8(34) . . .
34.8(31) . . .
40.3(34) . . .
38.7(34) . . .
40(4) . . .
50(4) . . .
50(4) . . .
37.5(33) . . .
41(4) . . .
41(4) . . .
37.8(33) . . .
44.3(34) . . .
45(4) . . .
45(4) . . .
33.0(33) . . .
36.0(32) . . .
41.4(33) . . .
40.9(34) . . .
37.8(33) . . .
48(4) . . .
47(4) . . .
34.3(30) . . .
33.8(31) . . .
46(4) . . .
41(4) . . .
42.7(35) . . .
34.3(33) . . .
35.9(32) . . .
44(4) . . .
47(4) . . .
46(4) . . .
36.0(33) . . .
40(4) . . .
43(4) . . .
40.4(34) . . .
44.0(35) . . .
40.3(33) . . .
38.1(34) . . .
37.6(33) . . .
41.2(34) . . .
45(4) . . .
37.4(33) . . .
48(4) . . .
47(4) . . .
43(4) . . .
45(4) . . .
42(4) . . .
46(4) . . .
36.6(32) . . .
40.1(34) . . .
39.5(32) . . .
40(4) . . .
43(4) . . .
38.8(33) . . .
43(4) . . .
39.6(34) . . .
36.8(32) . . .
36.3(34) . . .
46(4) . . .
43.7(34) . . .
44.4(35) . . .
32.8(30) . . .
41(4) . . .
42(4) . . .
36.6(32) . . .
39.8(33) . . .
44(4) . . .
40.8(34) . . .
40.6(33) . . .
36.2(31) . . .
40.6(34) . . .
41(4) . . .
43(4) . . .
42(4) . . .
56(4) . . .
39.4(33) . . .
39.5(34) . . .
36.7(32) . . .
40.4(34) . . .
39.8(33) . . .
38.0(32) . . .
40(4) . . .
36.6(35) . . .
35.1(32) . . .
46(4) . . .
37.9(34) . . .
46(4) . . .
43(4) . . .
44.9(35) . . .
38.3(33) . . .
31.9(30) . . .
35.3(33) . . .
33.8(31) . . .
40.7(34) . . .
50(4) . . .
47(4) . . .
47(4) . . .
41.2(33) . . .
52(4) . . .
38.8(32) . . .
44(4) . . .
43(4) . . .
39.2(33) . . .
38.4(32) . . .
35.2(31) . . .
34.2(31) . . .
38(4) . . .
35.5(32) . . .
35.6(31) . . .
32.9(30) . . .
37.7(33) . . .
40(4) . . .
33.8(32) . . .
33.4(30) . . .
31.0(29) . . .
34.3(32) . . .
45(4) . . .
50(4) . . .
37.9(32) . . .
34.8(32) . . .
40(4) . . .
31.5(30) . . .
36.9(32) . . .
44.0(35) . . .
50(4) . . .
45(4) . . .
47(4) . . .
38.0(33) . . .
34.9(31) . . .
44(4) . . .
44(4) . . .
43(4) . . .
37(4) . . .
33.7(30) . . .
50(4) . . .
44(4) . . .
49(4) . . .
42.2(34) . . .
50(4) . . .
41.9(35) . . .
38(4) . . .
40.4(34) . . .
42.9(35) . . .
38.8(32) . . .
42.3(35) . . .
41(4) . . .
38.6(33) . . .
43(4) . . .
41.1(33) . . .
36.7(32) . . .
43(4) . . .
42.8(35) . . .
39.0(33) . . .
39.1(32) . . .
33.7(33) . . .
27.7(30) . . .
33.4(31) . . .
43.0(35) . . .
41.5(33) . . .
40.7(33) . . .
37.5(34) . . .
30.7(29) . . .
30.8(29) . . .
35.2(32) . . .
37.0(33) . . .
40(4) . . .
34.8(33) . . .
43.2(35) . . .
35.6(32) . . .
36.1(34) . . .
36.2(34) . . .
33.5(31) . . .
43.0(34) . . .
51(4) . . .
38.6(34) . . .
45(4) . . .
52(4) . . .
51(4) . . .
37.4(32) . . .
46(4) . . .
40.7(34) . . .
32.0(30) . . .
41.5(34) . . .
42(4) . . .
43.0(34) . . .
45(4) . . .
36.0(32) . . .
33.7(30) . . .
40.8(34) . . .
40.9(34) . . .
54(4) . . .
43(4) . . .
43.8(34) . . .
48(4) . . .
35.9(34) . . .
38.0(33) . . .
37.0(32) . . .
38.5(33) . . .
41.2(34) . . .
40(4) . . .
36.0(32) . . .
47(4) . . .
43.5(34) . . .
46(4) . . .
44(4) . . .
39.0(34) . . .
36.8(32) . . .
48(4) . . .
35.3(33) . . .
31.1(31) . . .
39.8(34) . . .
33.6(30) . . .
40.7(33) . . .
35.4(32) . . .
43(4) . . .
40(4) . . .
34.1(31) . . .
38.3(32) . . .
33.0(28) . . .
45(4) . . .
43(4) . . .
46(4) . . .
36.2(32) . . .
51(4) . . .
56(4) . . .
40.3(34) . . .
41.0(34) . . .
39.6(33) . . .
50(4) . . .
39.9(34) . . .
35.9(32) . . .
39.1(33) . . .
42.8(34) . . .
39(4) . . .
38(4) . . .
38.1(32) . . .
39.0(32) . . .
35.2(32) . . .
30.5(29) . . .
43(4) . . .
28.5(29) . . .
39.6(33) . . .
25.2(28) . . .
42(4) . . .
38.4(34) . . .
40.7(33) . . .
43.5(35) . . .
41(4) . . .
46(4) . . .
41.1(34) . . .
35.2(31) . . .
44.3(35) . . .
39.8(34) . . .
33.4(32) . . .
28.7(29) . . .
32.4(30) . . .
39.0(32) . . .
40.3(32) . . .
51(4) . . .
36.6(33) . . .
39.1(32) . . .
34.4(31) . . .
34.6(31) . . .
37.0(32) . . .
35.5(31) . . .
42.2(34) . . .
44.0(34) . . .
43(4) . . .
31.6(32) . . .
36.8(35) . . .
35.5(31) . . .
31.6(29) . . .
41.7(35) . . .
41.0(35) . . .
35.8(33) . . .
41.6(34) . . .
40.9(34) . . .
41.1(35) . . .
37.9(34) . . .
40.3(34) . . .
39.3(33) . . .
46(4) . . .
47(4) . . .
45(4) . . .
35.3(33) . . .
34.7(31) . . .
38.9(34) . . .
40(4) . . .
33.2(32) . . .
39.3(34) . . .
44.3(35) . . .
37.7(33) . . .
48(4) . . .
35.9(32) . . .
32.6(30) . . .
39.5(33) . . .
35.7(32) . . .
38.6(33) . . .
40.1(33) . . .
36.2(31) . . .
38.6(32) . . .
34.8(31) . . .
42(4) . . .
41(4) . . .
34.8(31) . . .
35.4(31) . . .
28.1(28) . . .
34.7(34) . . .
45(4) . . .
27.7(28) . . .
32.0(30) . . .
35.9(31) . . .
38.7(35) . . .
39.3(34) . . .
37.4(33) . . .
35.1(31) . . .
44.4(35) . . .
33.5(30) . . .
24.8(26) . . .
38.2(32) . . .
37.3(31) . . .
44(4) . . .
37.9(33) . . .
42.5(35) . . .
45(4) . . .
33.0(33) . . .
33.0(31) . . .
29.6(29) . . .
38.3(34) . . .
39.6(32) . . .
32.8(30) . . .
37.5(32) . . .
46(4) . . .
41.4(34) . . .
43.4(35) . . .
37.8(33) . . .
39.6(34) . . .
39.0(33) . . .
38.7(34) . . .
35.2(31) . . .
37.0(33) . . .
33.5(32) . . .
44(4) . . .
42.1(33) . . .
35.0(31) . . .
33.7(32) . . .
35.0(33) . . .
39.4(33) . . .
39.9(34) . . .
34.2(31) . . .
48(4) . . .
41.1(33) . . .
38.7(32) . . .
41.8(33) . . .
46(4) . . .
39.0(32) . . .
38.0(34) . . .
49(4) . . .
49(4) . . .
36.6(32) . . .
36.1(33) . . .
46(4) . . .
37.1(32) . . .
45.3(35) . . .
40.1(32) . . .
44(4) . . .
36.8(34) . . .
37.3(33) . . .
37.8(32) . . .
43(4) . . .
34.2(32) . . .
36.9(33) . . .
33.5(31) . . .
37.2(32) . . .
30.3(29) . . .
35.9(34) . . .
35.7(34) . . .
39.1(34) . . .
38.1(32) . . .
47(4) . . .
47(4) . . .
38.3(33) . . .
42.1(34) . . .
47(4) . . .
45(4) . . .
39.2(35) . . .
48(4) . . .
39.5(33) . . .
35.7(31) . . .
39.7(34) . . .
41(4) . . .
40.4(34) . . .
37.2(34) . . .
47(4) . . .
23.2(26) . . .
28.3(29) . . .
49(4) . . .
50(4) . . .
48(4) . . .
34.2(31) . . .
36.8(34) . . .
37.2(32) . . .
47(4) . . .
45(4) . . .
36.8(34) . . .
41(4) . . .
30.0(29) . . .
33.0(29) . . .
35.8(31) . . .
51(4) . . .
38(4) . . .
39.9(34) . . .
34.2(30) . . .
43(4) . . .
41.4(34) . . .
39.1(35) . . .
34.5(33) . . .
44(4) . . .
41.3(33) . . .
35.1(31) . . .
39.4(33) . . .
41.3(33) . . .
35.8(32) . . .
41.1(34) . . .
36.4(33) . . .
34.4(32) . . .
35.9(34) . . .
28.0(28) . . .
37.5(33) . . .
51(4) . . .
43.2(34) . . .
43.6(35) . . .
37.9(32) . . .
34.5(31) . . .
32.7(31) . . .
44(4) . . .
33.1(31) . . .
39.7(33) . . .
41.1(35) . . .
42(4) . . .
43.7(35) . . .
45.6(35) . . .
39.2(34) . . .
34.4(31) . . .
44(4) . . .
42.0(34) . . .
42.8(34) . . .
47(4) . . .
46(4) . . .
34.1(31) . . .
37.8(35) . . .
40.8(33) . . .
35.8(31) . . .
32.3(31) . . .
36.1(35) . . .
41(4) . . .
37.2(32) . . .
42.1(34) . . .
40.9(33) . . .
37.8(32) . . .
41.7(34) . . .
49(4) . . .
39.3(32) . . .
38.0(33) . . .
39.0(34) . . .
37.3(33) . . .
43(4) . . .
32.3(30) . . .
37.7(32) . . .
40(4) . . .
33.3(30) . . .
43.7(35) . . .
35.5(32) . . .
35.7(34) . . .
34.5(33) . . .
39.2(34) . . .
46(4) . . .
41.3(34) . . .
36.3(32) . . .
41(4) . . .
35.3(33) . . .
30.6(29) . . .
41(4) . . .
38.2(33) . . .
40.7(34) . . .
46(4) . . .
49(4) . . .
39.3(32) . . .
43.5(35) . . .
46(4) . . .
37.4(32) . . .
38.2(33) . . .
39.3(33) . . .
44(4) . . .
33.8(31) . . .
36.8(33) . . .
51(4) . . .
44.9(35) . . .
42.1(35) . . .
44(4) . . .
48(4) . . .
46(4) . . .
40.0(35) . . .
45(4) . . .
47(4) . . .
42(4) . . .
41.9(33) . . .
44(4) . . .
44(4) . . .
43(4) . . .
35.0(31) . . .
46(4) . . .
43(4) . . .
34.6(34) . . .
40.1(34) . . .
44(4) . . .
47(4) . . .
46(4) . . .
46(4) . . .
33.5(30) . . .
38.9(33) . . .
38.1(33) . . .
36.3(34) . . .
39.9(34) . . .
42.5(34) . . .
40.1(33) . . .
41(4) . . .
40.0(34) . . .
34.8(32) . . .
40.1(34) . . .
38.2(33) . . .
43(4) . . .
49(4) . . .
36.0(32) . . .
45(4) . . .
37.9(32) . . .
38.8(33) . . .
41(4) . . .
40.4(34) . . .
45(4) . . .
31.6(30) . . .
35.3(32) . . .
36.4(33) . . .
44(4) . . .
44.8(35) . . .
36.8(32) . . .
33.3(31) . . .
35.4(35) . . .
32.8(32) . . .
38.3(32) . . .
43.2(34) . . .
41.2(34) . . .
35.8(33) . . .
41.1(34) . . .
50(4) . . .
53(4) . . .
41.5(34) . . .
45(4) . . .
36.5(32) . . .
31.2(29) . . .
46(4) . . .
36.4(32) . . .
37.8(34) . . .
38(4) . . .
37.1(32) . . .
40.2(33) . . .
48(4) . . .
41(4) . . .
37.4(33) . . .
40.1(33) . . .
45(4) . . .
40(4) . . .
42(4) . . .
36.7(33) . . .
40(4) . . .
41.5(34) . . .
43(4) . . .
34.8(31) . . .
40(4) . . .
37.2(32) . . .
49(4) . . .
35.5(33) . . .
43(4) . . .
37.6(32) . . .
34.8(31) . . .
38.7(35) . . .
40.9(35) . . .
40(4) . . .
36(4) . . .
42.5(34) . . .
43(4) . . .
37.3(32) . . .
41.0(34) . . .
40.9(33) . . .
46(4) . . .
37.8(32) . . .
42.5(35) . . .
40.1(34) . . .
33.9(30) . . .
41.4(33) . . .
49(4) . . .
43(4) . . .
38.1(34) . . .
34.8(31) . . .
40.0(33) . . .
36.0(32) . . .
43(4) . . .
43.8(35) . . .
35.9(31) . . .
39.7(33) . . .
31.1(31) . . .
32.0(33) . . .
40.6(34) . . .
45.7(35) . . .
35.3(31) . . .
41.6(34) . . .
45(4) . . .
36.6(35) . . .
39.1(33) . . .
57(4) . . .
37.4(34) . . .
39(4) . . .
37.0(33) . . .
32.1(30) . . .
42.2(34) . . .
43(4) . . .
48(4) . . .
44(4) . . .
35.8(31) . . .
33.4(30) . . .
37.7(34) . . .
32.3(31) . . .
36.6(34) . . .
36.5(32) . . .
44(4) . . .
41(4) . . .
32.6(31) . . .
37.4(32) . . .
40.1(33) . . .
39.4(35) . . .
37.0(32) . . .
50(4) . . .
36.0(32) . . .
36.0(32) . . .
41(4) . . .
38.2(35) . . .
36.4(33) . . .
39.4(33) . . .
41.4(34) . . .
41.6(35) . . .
44(4) . . .
43.4(35) . . .
28.5(28) . . .
35.7(31) . . .
43(4) . . .
44(4) . . .
45(4) . . .
49(4) . . .
36.9(32) . . .
35.0(31) . . .
43(4) . . .
39.1(34) . . .
51(4) . . .
40.8(34) . . .
37.1(34) . . .
39(4) . . .
34.7(32) . . .
37.6(32) . . .
32.8(30) . . .
38.2(33) . . .
39(4) . . .
29.7(29) . . .
38.2(32) . . .
41.4(34) . . .
37.7(34) . . .
47(4) . . .
42(4) . . .
32.3(30) . . .
46(4) . . .
38.1(32) . . .
48(4) . . .
45(4) . . .
42.6(35) . . .
29.8(31) . . .
34.7(33) . . .
44(4) . . .
32.8(30) . . .
38.9(33) . . .
38.5(32) . . .
39.6(34) . . .
48(4) . . .
36.3(31) . . .
45(4) . . .
40(4) . . .
35.8(34) . . .
43(4) . . .
34.4(31) . . .
30.9(29) . . .
45(4) . . .
37.4(33) . . .
48(4) . . .
40.8(33) . . .
42.3(34) . . .
43(4) . . .
39.4(35) . . .
40.6(34) . . .
49(4) . . .
41.8(34) . . .
38.5(32) . . .
51(4) . . .
40.1(33) . . .
43.1(34) . . .
51(4) . . .
44.2(34) . . .
44(4) . . .
39.1(33) . . .
39.7(33) . . .
39.5(33) . . .
37.1(33) . . .
48(4) . . .
43(4) . . .
31.3(29) . . .
36.8(33) . . .
39.1(34) . . .
39.6(34) . . .
33.4(32) . . .
36.3(32) . . .
40.9(33) . . .
38.5(32) . . .
42.5(35) . . .
46(4) . . .
36.2(32) . . .
40.0(33) . . .
33.9(31) . . .
38.3(33) . . .
50(4) . . .
39.6(33) . . .
42.9(35) . . .
38.6(35) . . .
34.9(32) . . .
48(4) . . .
43.4(34) . . .
37.3(32) . . .
40(4) . . .
32.4(31) . . .
38.8(33) . . .
43.0(34) . . .
34.2(30) . . .
40(4) . . .
31.9(30) . . .
38.0(32) . . .
40.0(33) . . .
35.8(33) . . .
51(4) . . .
39.6(32) . . .
39.8(33) . . .
41.2(33) . . .
40.4(34) . . .
40.6(35) . . .
34.2(31) . . .
37.5(32) . . .
34.1(30) . . .
40.1(35) . . .
37.8(34) . . .
38.5(35) . . .
32.7(31) . . .
33.1(30) . . .
38.4(33) . . .
37.3(34) . . .
38.6(33) . . .
38.2(34) . . .
29.2(29) . . .
39(4) . . .
41(4) . . .
35.3(31) . . .
33.6(30) . . .
33.0(31) . . .
46(4) . . .
42.5(35) . . .
38.6(33) . . .
46(4) . . .
38.0(32) . . .
37.0(33) . . .
44(4) . . .
30.6(29) . . .
43.4(34) . . .
40.3(34) . . .
39.9(34) . . .
43(4) . . .
48(4) . . .
42.2(33) . . .
39.0(34) . . .
37.3(32) . . .
41.0(34) . . .
39.7(33) . . .
44.4(35) . . .
39.3(33) . . .
42(4) . . .
34.4(32) . . .
33.2(32) . . .
36.9(32) . . .
36.7(32) . . .
39(4) . . .
37.8(32) . . .
43.4(34) . . .
42.0(34) . . .
36.5(32) . . .
49(4) . . .
34.8(34) . . .
34.1(30) . . .
38.5(33) . . .
43(4) . . .
33.1(30) . . .
38.6(33) . . .
39.7(33) . . .
41.3(33) . . .
36.0(31) . . .
41(4) . . .
41.2(34) . . .
32.7(30) . . .
33.4(31) . . .
31.6(30) . . .
40.8(35) . . .
39.6(34) . . .
32.3(30) . . .
35.7(31) . . .
51(4) . . .
44(4) . . .
35.7(34) . . .
39.3(33) . . .
34.4(31) . . .
39(4) . . .
34.4(30) . . .
36.2(31) . . .
48(4) . . .
29.1(28) . . .
31.9(32) . . .
39(4) . . .
35.5(32) . . .
38.0(32) . . .
51(4) . . .
52(4) . . .
46(4) . . .
34.6(30) . . .
52(4) . . .
36.1(34) . . .
36.0(32) . . .
47(4) . . .
40.3(34) . . .
34.3(31) . . .
39.5(34) . . .
42(4) . . .
38.8(33) . . .
32.8(30) . . .
33.3(30) . . .
44(4) . . .
45(4) . . .
44.1(35) . . .
42.0(33) . . .
33.6(30) . . .
46(4) . . .
32.0(31) . . .
35.4(32) . . .
36.8(32) . . .
49(4) . . .
43(4) . . .
32.7(33) . . .
26.1(29) . . .
34.2(30) . . .
40.6(33) . . .
31.5(29) . . .
39.9(35) . . .
41.2(34) . . .
50(4) . . .
41.1(35) . . .
53(4) . . .
46(4) . . .
40.8(34) . . .
44(4) . . .
36.0(32) . . .
31.8(30) . . .
42(4) . . .
34.4(32) . . .
35.0(31) . . .
33.1(30) . . .
42(4) . . .
38.5(33) . . .
36.6(31) . . .
36.0(32) . . .
33.8(31) . . .
42.2(35) . . .
37.1(32) . . .
45(4) . . .
41.4(33) . . .
41.9(34) . . .
32.3(29) . . .
46(4) . . .
38.4(33) . . .
42.7(35) . . .
41.2(33) . . .
43(4) . . .
35.4(31) . . .
43.5(35) . . .
47(4) . . .
42.7(35) . . .
44(4) . . .
35.6(34) . . .
38.2(32) . . .
40.1(34) . . .
39.9(34) . . .
38.3(35) . . .
32.7(30) . . .
26.7(27) . . .
34.7(30) . . .
33.8(30) . . .
41.4(34) . . .
36.9(33) . . .
36.9(32) . . .
33.8(31) . . .
31.3(30) . . .
41(4) . . .
42(4) . . .
41.7(33) . . .
31.6(29) . . .
35.2(32) . . .
39.6(35) . . .
37.9(34) . . .
42.4(34) . . .
39.9(35) . . .
35.8(31) . . .
46(4) . . .
38.6(33) . . .
46(4) . . .
41.0(34) . . .
38.9(34) . . .
43(4) . . .
35.3(31) . . .
37.0(31) . . .
44.9(35) . . .
40.3(33) . . .
38.4(34) . . .
35.6(32) . . .
36.1(32) . . .
33.4(32) . . .
42(4) . . .
33.3(31) . . .
34.0(31) . . .
37.3(33) . . .
31.0(29) . . .
42(4) . . .
45(4) . . .
37.1(32) . . .
49(4) . . .
35.4(31) . . .
44(4) . . .
51(4) . . .
42.8(34) . . .
29.7(29) . . .
34.8(32) . . .
42(4) . . .
36.4(32) . . .
44.9(35) . . .
38.9(34) . . .
36.7(32) . . .
31.9(29) . . .
40.3(34) . . .
37.2(32) . . .
38.3(32) . . .
38.2(33) . . .
40(4) . . .
42(4) . . .
45(4) . . .
37.7(32) . . .
34.2(30) . . .
42.5(35) . . .
39.0(35) . . .
40.9(34) . . .
35.5(32) . . .
29.4(27) . . .
35.7(32) . . .
40.9(35) . . .
35.2(31) . . .
40.6(33) . . .
38.6(33) . . .
41.5(34) . . .
41.1(34) . . .
42.2(34) . . .
38.5(33) . . .
37.2(33) . . .
42(4) . . .
34.5(31) . . .
37.6(32) . . .
30.3(29) . . .
40.5(35) . . .
46(4) . . .
42.6(34) . . .
37.3(32) . . .
41.1(34) . . .
33.9(32) . . .
46(4) . . .
35.6(31) . . .
40.6(33) . . .
40.2(34) . . .
39.4(35) . . .
37.7(34) . . .
41.8(35) . . .
44.0(34) . . .
37.7(32) . . .
39.3(34) . . .
43(4) . . .
40.3(33) . . .
44(4) . . .
36.5(31) . . .
41(4) . . .
46(4) . . .
48(4) . . .
34.0(30) . . .
36.8(33) . . .
39(4) . . .
37.7(33) . . .
35.0(31) . . .
37.4(32) . . .
39.6(35) . . .
45(4) . . .
34.5(30) . . .
37.9(32) . . .
37.9(34) . . .
28.3(29) . . .
36.5(33) . . .
33.1(31) . . .
39.8(33) . . .
39.6(34) . . .
44(4) . . .
41.3(33) . . .
35.3(32) . . .
41.3(34) . . .
47(4) . . .
49(4) . . .
36.5(32) . . .
46(4) . . .
39.1(33) . . .
38.8(33) . . .
45(4) . . .
39.2(35) . . .
32.9(31) . . .
36.3(32) . . .
38.5(33) . . .
42(4) . . .
47(4) . . .
48(4) . . .
42(4) . . .
41.9(35) . . .
38.6(34) . . .
33.5(31) . . .
37.7(32) . . .
39.7(33) . . .
37.7(33) . . .
44(4) . . .
36.3(31) . . .
46(4) . . .
42.4(34) . . .
51(4) . . .
41(4) . . .
41(4) . . .
46(4) . . .
37.0(32) . . .
39.5(32) . . .
42(4) . . .
38.7(34) . . .
40.6(33) . . .
35.4(31) . . .
35.8(33) . . .
42(4) . . .
44(4) . . .
36.1(32) . . .
33.2(31) . . .
40.8(35) . . .
44(4) . . .
32.8(31) . . .
44.7(35) . . .
39.2(34) . . .
39(4) . . .
32.2(31) . . .
45(4) . . .
46(4) . . .
36.3(31) . . .
35.9(31) . . .
45(4) . . .
40.7(34) . . .
44(4) . . .
34.1(31) . . .
42(4) . . .
34.6(30) . . .
45(4) . . .
38.1(32) . . .
36.1(33) . . .
35.4(32) . . .
45(4) . . .
43.6(34) . . .
42.2(34) . . .
36.3(32) . . .
44(4) . . .
46(4) . . .
35.0(31) . . .
38.4(32) . . .
40.9(34) . . .
47(4) . . .
44(4) . . .
35.8(31) . . .
36.0(32) . . .
33.7(31) . . .
35.3(32) . . .
40.4(33) . . .
44(4) . . .
39.0(32) . . .
35.9(31) . . .
45(4) . . .
41.6(35) . . .
39.8(33) . . .
39.7(33) . . .
31.6(32) . . .
36.4(33) . . .
45(4) . . .
35.2(31) . . .
44.3(35) . . .
34.1(30) . . .
38.3(33) . . .
39.8(33) . . .
29.2(28) . . .
37.7(32) . . .
36.5(32) . . .
40(4) . . .
40.1(34) . . .
37.6(32) . . .
30.6(30) . . .
44(4) . . .
38.9(33) . . .
38.7(35) . . .
31.8(30) . . .
33.7(32) . . .
29.4(28) . . .
40.5(34) . . .
46(4) . . .
37.1(32) . . .
38.2(32) . . .
40.3(34) . . .
41(4) . . .
32.7(30) . . .
38.4(33) . . .
47(4) . . .
40(4) . . .
45(4) . . .
44(4) . . .
35.0(31) . . .
42.0(34) . . .
45(4) . . .
43(4) . . .
45(4) . . .
39.3(32) . . .
42.3(34) . . .
41.0(34) . . .
50(4) . . .
39.2(34) . . .
38.6(33) . . .
42(4) . . .
31.7(30) . . .
40.0(34) . . .
32.2(30) . . .
42.8(34) . . .
35.5(31) . . .
45(4) . . .
33.0(30) . . .
36.4(31) . . .
35.7(31) . . .
42(4) . . .
34.7(35) . . .
32.0(31) . . .
37.8(32) . . .
37.4(32) . . .
41.3(34) . . .
43(4) . . .
36.1(33) . . .
35.7(31) . . .
44.3(34) . . .
50(4) . . .
49(4) . . .
30.8(30) . . .
36.7(31) . . .
37.7(34) . . .
33.7(32) . . .
41(4) . . .
33.2(30) . . .
38.4(32) . . .
38.5(32) . . .
42.1(35) . . .
61(4) . . .
45(4) . . .
39.8(33) . . .
40.9(35) . . .
32.9(32) . . .
35.0(33) . . .
41.0(33) . . .
42.4(34) . . .
36.2(34) . . .
40(4) . . .
41(4) . . .
38.6(32) . . .
36.1(31) . . .
37.3(32) . . .
37.5(34) . . .
38.2(33) . . .
31.4(29) . . .
34.2(31) . . .
41(4) . . .
42(4) . . .
37.8(33) . . .
38.7(33) . . .
27.8(27) . . .
50(4) . . .
46(4) . . .
40.2(35) . . .
39.2(32) . . .
43.0(35) . . .
36.1(31) . . .
32.7(31) . . .
42.8(35) . . .
36.0(31) . . .
36.9(32) . . .
47(4) . . .
40(4) . . .
35.4(32) . . .
42.6(34) . . .
39.6(32) . . .
38.9(33) . . .
46(4) . . .
44(4) . . .
33.6(30) . . .
41(4) . . .
41(4) . . .
42.9(35) . . .
43.8(34) . . .
37.2(32) . . .
34.4(33) . . .
42.6(35) . . .
49(4) . . .
43(4) . . .
44(4) . . .
45(4) . . .
42(4) . . .
35.8(31) . . .
38.0(33) . . .
35.7(31) . . .
35.1(34) . . .
34.3(32) . . .
46(4) . . .
42.7(34) . . .
37.8(32) . . .
44(4) . . .
45(4) . . .
34.7(31) . . .
43.2(35) . . .
42.1(34) . . .
33.7(32) . . .
46(4) . . .
34.0(31) . . .
35.4(31) . . .
31.6(29) . . .
42.0(34) . . .
51(4) . . .
48(4) . . .
44.0(34) . . .
39.4(33) . . .
31.1(30) . . .
38.8(34) . . .
46(4) . . .
45(4) . . .
44.6(35) . . .
48(4) . . .
47(4) . . .
39.9(34) . . .
30.4(29) . . .
42.0(35) . . .
44(4) . . .
43(4) . . .
37.8(32) . . .
42.2(34) . . .
43.1(35) . . .
42(4) . . .
35.9(31) . . .
40.7(33) . . .
25.2(27) . . .
30.4(30) . . .
39.8(34) . . .
46(4) . . .
36.7(31) . . .
41.5(34) . . .
47(4) . . .
39.3(34) . . .
46(4) . . .
40.4(33) . . .
44.8(35) . . .
39.7(34) . . .
37.8(34) . . .
38(4) . . .
39.7(33) . . .
37.3(31) . . .
40.4(34) . . .
42(4) . . .
32.2(29) . . .
47(4) . . .
44.0(34) . . .
41(4) . . .
39(4) . . .
36.8(33) . . .
38.3(32) . . .
40.3(33) . . .
32.6(32) . . .
33.1(32) . . .
33.1(30) . . .
37.0(32) . . .
42.2(34) . . .
34.1(30) . . .
36.4(32) . . .
39.0(34) . . .
41.6(35) . . .
38.1(33) . . .
42.0(34) . . .
43(4) . . .
36.9(35) . . .
32.6(31) . . .
49(4) . . .
33.6(30) . . .
52(4) . . .
39.2(33) . . .
39.4(32) . . .
43(4) . . .
42(4) . . .
38.0(34) . . .
36.3(32) . . .
41.6(34) . . .
42(4) . . .
36.8(32) . . .
42.6(35) . . .
39.9(33) . . .
41.8(33) . . .
37.0(32) . . .
39.8(34) . . .
31.2(29) . . .
38.1(33) . . .
24.3(26) . . .
40.5(35) . . .
38(4) . . .
37.0(34) . . .
34.0(31) . . .
42.5(34) . . .
34(4) . . .
36(4) . . .
34.8(33) . . .
29.5(28) . . .
42.0(34) . . .
45(4) . . .
25.9(27) . . .
34.7(32) . . .
36.9(32) . . .
42(4) . . .
38.0(34) . . .
32.7(31) . . .
37.8(33) . . .
35.2(31) . . .
35.6(31) . . .
33.2(33) . . .
39(4) . . .
36.0(32) . . .
39.2(33) . . .
50(4) . . .
40.7(34) . . .
44(4) . . .
35.9(32) . . .
38.9(33) . . .
40.7(33) . . .
41.1(33) . . .
42.2(35) . . .
38.9(35) . . .
32.2(29) . . .
37.3(32) . . .
37.2(33) . . .
37.3(32) . . .
34.2(30) . . .
42.2(34) . . .
44(4) . . .
36.6(32) . . .
38.0(33) . . .
46(4) . . .
40.0(33) . . .
39.5(34) . . .
50(4) . . .
48(4) . . .
43.3(34) . . .
34.6(30) . . .
32.3(29) . . .
34.3(32) . . .
32.2(30) . . .
37.8(32) . . .
36.8(32) . . .
38.4(35) . . .
47(4) . . .
33.7(30) . . .
39.6(33) . . .
39.0(33) . . .
45(4) . . .
35.5(33) . . .
39.9(33) . . .
38.7(32) . . .
40.3(33) . . .
31.3(29) . . .
34.4(33) . . .
33.6(32) . . .
36.7(32) . . .
38.8(33) . . .
43.0(35) . . .
32.3(31) . . .
35.0(32) . . .
37.6(32) . . .
39.5(34) . . .
39.9(33) . . .
41(4) . . .
36.2(34) . . .
39.2(33) . . .
42(4) . . .
34.3(31) . . .
45(4) . . .
42(4) . . .
37.8(32) . . .
35.7(32) . . .
43(4) . . .
41.6(35) . . .
42.5(35) . . .
41.8(34) . . .
38.5(33) . . .
36.1(32) . . .
45(4) . . .
44(4) . . .
39.6(33) . . .
41.0(33) . . .
43(4) . . .
40.9(35) . . .
32.4(30) . . .
35.6(32) . . .
39(4) . . .
34.6(33) . . .
40(4) . . .
33.3(31) . . .
32.6(31) . . .
47(4) . . .
39.1(35) . . .
48(4) . . .
48(4) . . .
39.3(33) . . .
40.1(33) . . .
42(4) . . .
37.7(33) . . .
42(4) . . .
37.5(31) . . .
44.2(35) . . .
42(4) . . .
43(4) . . .
32.0(29) . . .
39.5(33) . . .
46(4) . . .
44(4) . . .
47(4) . . .
34.0(30) . . .
39.9(33) . . .
41.0(33) . . .
33.6(30) . . .
36.8(34) . . .
49(4) . . .
32.9(30) . . .
35.6(32) . . .
37.1(32) . . .
37.4(34) . . .
34.7(31) . . .
37.9(32) . . .
36.4(33) . . .
34.3(33) . . .
39.9(34) . . .
37.6(32) . . .
41(4) . . .
34.2(31) . . .
36.6(33) . . .
40.1(35) . . .
46(4) . . .
45(4) . . .
31.2(29) . . .
33.3(31) . . .
39.9(34) . . .
35.1(31) . . .
43(4) . . .
36.9(32) . . .
38.0(32) . . .
39.5(32) . . .
43.2(35) . . .
38.6(33) . . .
33.7(33) . . .
36.3(34) . . .
36.3(32) . . .
34.0(30) . . .
45(4) . . .
41.0(35) . . .
42.6(34) . . .
33.0(30) . . .
34.5(31) . . .
38.7(35) . . .
40(4) . . .
42(4) . . .
37.2(32) . . .
32.7(30) . . .
41(4) . . .
29.4(30) . . .
49(4) . . .
42.1(34) . . .
44(4) . . .
34.5(31) . . .
33.0(31) . . .
48(4) . . .
44.3(34) . . .
39.2(33) . . .
39.8(33) . . .
35.2(32) . . .
48(4) . . .
38.7(32) . . .
48(4) . . .
34.0(31) . . .
32.1(30) . . .
31.6(30) . . .
32.4(30) . . .
31.9(31) . . .
44(4) . . .
46(4) . . .
41.1(34) . . .
40.8(33) . . .
33.8(31) . . .
34.8(32) . . .
44(4) . . .
30.5(29) . . .
33.0(29) . . .
34.7(31) . . .
33.8(32) . . .
32.5(30) . . .
38.7(34) . . .
45(4) . . .
36.6(31) . . .
39.9(34) . . .
36.7(34) . . .
30.3(29) . . .
34.9(31) . . .
39.5(33) . . .
44(4) . . .
31.4(30) . . .
39.3(33) . . .
40.9(33) . . .
38.7(33) . . .
42(4) . . .
38.1(34) . . .
37.9(32) . . .
37.2(31) . . .
33.5(31) . . .
37.4(34) . . .
43(4) . . .
44.1(35) . . .
39.2(33) . . .
33.3(30) . . .
31.4(30) . . .
45(4) . . .
43(4) . . .
39.2(33) . . .
37.9(33) . . .
48(4) . . .
35.2(32) . . .
34.5(31) . . .
42.6(34) . . .
37.5(33) . . .
34.6(35) . . .
33.5(31) . . .
48(4) . . .
36.0(33) . . .
37.6(34) . . .
46(4) . . .
44.3(34) . . .
40.9(33) . . .
37.3(34) . . .
40(4) . . .
36(4) . . .
53(4) . . .
38.0(32) . . .
37.5(33) . . .
37.5(32) . . .
42(4) . . .
32.0(31) . . .
40.8(33) . . .
34.3(31) . . .
37.4(33) . . .
41.9(34) . . .
45(4) . . .
34.4(31) . . .
41.8(35) . . .
43.3(34) . . .
35.7(31) . . .
41.1(33) . . .
39.7(33) . . .
43(4) . . .
35.0(34) . . .
43.2(35) . . .
37.3(32) . . .
32.8(30) . . .
28.2(30) . . .
30.7(29) . . .
40.1(34) . . .
39.2(34) . . .
37.7(32) . . .
29.0(28) . . .
36.4(34) . . .
36.0(31) . . .
34.7(31) . . .
39.7(34) . . .
33.5(30) . . .
47(4) . . .
38.2(33) . . .
33.6(31) . . .
47(4) . . .
38.8(33) . . .
39(4) . . .
38.8(33) . . .
36.8(32) . . .
32.5(29) . . .
35.9(32) . . .
31.5(31) . . .
28.5(29) . . .
41.8(34) . . .
34.7(31) . . .
42.0(35) . . .
34.3(31) . . .
40.5(34) . . .
36.1(31) . . .
36.4(33) . . .
42(4) . . .
34.3(31) . . .
41.8(34) . . .
41.1(34) . . .
46(4) . . .
32.7(30) . . .
35.1(32) . . .
33.5(30) . . .
34.7(31) . . .
38.3(33) . . .
38.1(34) . . .
38.0(34) . . .
45(4) . . .
43.5(35) . . .
38.0(32) . . .
30.1(31) . . .
29.0(28) . . .
46(4) . . .
39.7(33) . . .
37.6(33) . . .
40(4) . . .
36.5(34) . . .
40.0(33) . . .
44(4) . . .
51(4) . . .
47(4) . . .
45(4) . . .
42.4(33) . . .
40.2(34) . . .
22.8(26) . . .
44(4) . . .
40(4) . . .
39.5(33) . . .
31.3(29) . . .
42(4) . . .
37(4) . . .
36.4(32) . . .
39.8(33) . . .
41.6(35) . . .
46(4) . . .
33.1(31) . . .
35.9(33) . . .
37.2(32) . . .
36.3(32) . . .
38.9(34) . . .
42(4) . . .
38.1(33) . . .
44.7(35) . . .
33.2(31) . . .
41(4) . . .
39.7(34) . . .
38.0(32) . . .
45(4) . . .
38.7(34) . . .
33.3(33) . . .
37.6(34) . . .
42(4) . . .
39.9(34) . . .
42.5(34) . . .
38.9(35) . . .
39.9(34) . . .
33.9(30) . . .
37.0(32) . . .
39.0(33) . . .
44(4) . . .
37.5(32) . . .
38.8(33) . . .
34.8(31) . . .
34.5(33) . . .
31.5(32) . . .
40(4) . . .
36.0(31) . . .
34.9(31) . . .
40.1(33) . . .
41(4) . . .
35.4(33) . . .
31.5(29) . . .
39.0(34) . . .
37.3(32) . . .
36.0(33) . . .
36.8(35) . . .
50(4) . . .
44(4) . . .
39.4(34) . . .
34.7(31) . . .
29.1(30) . . .
36.2(32) . . .
39.0(33) . . .
38.4(34) . . .
30.9(29) . . .
44(4) . . .
33.9(31) . . .
34.9(31) . . .
34.1(31) . . .
31.8(30) . . .
34.8(31) . . .
36.0(31) . . .
30.0(31) . . .
35.0(33) . . .
34.2(32) . . .
37.1(34) . . .
39.8(33) . . .
42.4(34) . . .
37.8(33) . . .
36.2(32) . . .
35.8(32) . . .
36.8(32) . . .
35.8(33) . . .
41(4) . . .
37.4(33) . . .
30.1(29) . . .
37.4(32) . . .
35.6(32) . . .
39(4) . . .
45(4) . . .
38.5(32) . . .
41.5(34) . . .
33.6(30) . . .
35.1(33) . . .
29.3(28) . . .
39.9(33) . . .
44.5(35) . . .
31.1(28) . . .
46(4) . . .
47(4) . . .
38.8(32) . . .
33.2(30) . . .
37.5(33) . . .
40.7(35) . . .
34.0(32) . . .
41.2(34) . . .
37.7(32) . . .
44(4) . . .
41(4) . . .
35.0(32) . . .
38.0(33) . . .
37.3(32) . . .
40.0(34) . . .
34.3(31) . . .
39.6(33) . . .
41.2(33) . . .
40.0(33) . . .
36.9(34) . . .
36.5(32) . . .
38.3(32) . . .
37.7(32) . . .
32.5(31) . . .
35.2(32) . . .
32.3(31) . . .
40.2(34) . . .
33.5(31) . . .
32.8(30) . . .
33.9(33) . . .
32.7(34) . . .
38.9(32) . . .
48(4) . . .
42.8(35) . . .
45(4) . . .
46(4) . . .
49(4) . . .
38.5(33) . . .
42(4) . . .
42(4) . . .
43(4) . . .
35.5(31) . . .
34.8(31) . . .
36.0(32) . . .
28.7(31) . . .
38.6(35) . . .
43(4) . . .
45(4) . . .
39.9(34) . . .
42(4) . . .
43(4) . . .
35.2(32) . . .
49(4) . . .
47(4) . . .
37.1(33) . . .
39.9(33) . . .
49(4) . . .
35.0(32) . . .
37.0(33) . . .
36.9(33) . . .
41.4(34) . . .
32.8(29) . . .
39.0(33) . . .
41.4(34) . . .
38.1(33) . . .
36.5(32) . . .
38.0(32) . . .
36.8(33) . . .
42(4) . . .
38.7(34) . . .
42(4) . . .
39.1(33) . . .
35.3(31) . . .
32.5(31) . . .
37.0(33) . . .
37.6(33) . . .
31.0(29) . . .
44(4) . . .
36.3(32) . . .
36.6(33) . . .
39.1(32) . . .
38.4(32) . . .
38.5(33) . . .
43(4) . . .
39.6(34) . . .
37.8(32) . . .
42.8(34) . . .
33.8(30) . . .
41(4) . . .
31.8(30) . . .
41.9(34) . . .
37.5(32) . . .
39.0(34) . . .
33.5(31) . . .
35.3(32) . . .
36.1(32) . . .
37.9(32) . . .
47(4) . . .
48(4) . . .
35.0(30) . . .
38.2(32) . . .
44.2(35) . . .
41.5(33) . . .
49(4) . . .
44(4) . . .
38.3(32) . . .
37.2(32) . . .
33.5(31) . . .
42(4) . . .
39.2(34) . . .
45.3(35) . . .
39.2(34) . . .
38.6(34) . . .
37.6(35) . . .
31.8(31) . . .
37.5(32) . . .
34.7(30) . . .
45(4) . . .
37.1(31) . . .
44(4) . . .
41.1(34) . . .
35.2(32) . . .
51(4) . . .
46(4) . . .
34.5(32) . . .
40.3(34) . . .
32.1(30) . . .
27.9(29) . . .
37.6(34) . . .
45(4) . . .
36.6(32) . . .
33.3(30) . . .
38.5(34) . . .
33.5(30) . . .
47(4) . . .
42.0(33) . . .
42.3(35) . . .
44(4) . . .
35.6(31) . . .
39.7(33) . . .
36.7(32) . . .
36.8(32) . . .
40(4) . . .
29.7(29) . . .
30.2(28) . . .
38.7(33) . . .
38.9(35) . . .
30.7(33) . . .
37.6(34) . . .
38.8(33) . . .
32.6(30) . . .
42(4) . . .
35.3(34) . . .
34.3(32) . . .
34.3(31) . . .
48(4) . . .
37.2(32) . . .
37.1(34) . . .
42(4) . . .
41.5(34) . . .
31.4(30) . . .
33.7(33) . . .
30.3(30) . . .
38(4) . . .
29.5(29) . . .
33.3(31) . . .
37.6(35) . . .
38.7(34) . . .
44(4) . . .
40.6(34) . . .
41(4) . . .
42(4) . . .
37.2(32) . . .
32.5(30) . . .
43.9(34) . . .
33.6(31) . . .
37(4) . . .
36.7(32) . . .
45(4) . . .
37.7(32) . . .
37.1(33) . . .
41.0(34) . . .
35.8(32) . . .
39.8(34) . . .
35.5(31) . . .
38.4(34) . . .
44(4) . . .
32.4(29) . . .
36.6(31) . . .
42.3(34) . . .
36.5(33) . . .
41(4) . . .
43(4) . . .
44.7(35) . . .
40.7(33) . . .
34.2(30) . . .
34.5(33) . . .
42.2(35) . . .
36.1(31) . . .
41.2(34) . . .
38.3(32) . . .
37.9(32) . . .
40(4) . . .
43.9(34) . . .
33.3(30) . . .
37(4) . . .
32.0(31) . . .
40.0(34) . . .
40.5(33) . . .
39.8(33) . . .
41.6(34) . . .
44(4) . . .
36.3(32) . . .
37.3(32) . . .
43(4) . . .
38.3(33) . . .
40.0(35) . . .
35.4(32) . . .
45(4) . . .
40(4) . . .
33.3(31) . . .
38.9(34) . . .
42.9(34) . . .
40.5(34) . . .
34.1(32) . . .
39.6(34) . . .
38.2(35) . . .
37.5(34) . . .
42.5(34) . . .
41(4) . . .
38.9(34) . . .
48(4) . . .
44(4) . . .
38.9(32) . . .
43.1(35) . . .
36.7(32) . . .
39.5(33) . . .
42.3(34) . . .
35.1(31) . . .
46(4) . . .
38.8(34) . . .
29.9(31) . . .
36.1(33) . . .
31.7(29) . . .
31.3(30) . . .
38.8(34) . . .
37.9(34) . . .
39.6(34) . . .
42.6(35) . . .
40.1(33) . . .
42(4) . . .
37.6(34) . . .
40.6(34) . . .
45.0(35) . . .
40(4) . . .
31.2(31) . . .
38(4) . . .
36.9(31) . . .
38.6(32) . . .
45(4) . . .
42(4) . . .
41.9(34) . . .
35.6(31) . . .
29.8(29) . . .
44(4) . . .
38.2(33) . . .
35.7(31) . . .
37.2(32) . . .
40.1(33) . . .
40.2(34) . . .
46(4) . . .
40.3(34) . . .
31.4(30) . . .
34.0(31) . . .
35.2(33) . . .
29.7(30) . . .
38.5(34) . . .
39.7(33) . . .
45(4) . . .
37.0(33) . . .
40(4) . . .
38.5(33) . . .
45(4) . . .
40(4) . . .
43(4) . . .
42(4) . . .
37.8(34) . . .
37.6(31) . . .
44(4) . . .
39.9(34) . . .
38.5(33) . . .
32.8(29) . . .
36.8(33) . . .
36.2(31) . . .
36.1(33) . . .
45(4) . . .
41.1(34) . . .
36.5(31) . . .
44(4) . . .
35.2(34) . . .
29.9(30) . . .
39.5(34) . . .
45.3(35) . . .
36.5(31) . . .
44(4) . . .
37.3(33) . . .
32.4(29) . . .
36.1(31) . . .
36.9(32) . . .
36.8(33) . . .
39.6(34) . . .
39.3(33) . . .
37.4(32) . . .
33.0(30) . . .
39.0(32) . . .
40.7(34) . . .
40.8(33) . . .
42(4) . . .
46(4) . . .
44(4) . . .
36.5(32) . . .
33.2(30) . . .
40.4(34) . . .
34.4(33) . . .
31.6(30) . . .
40(4) . . .
36.7(32) . . .
45(4) . . .
38.4(35) . . .
37.3(33) . . .
33.2(30) . . .
34.3(31) . . .
36.6(33) . . .
30.8(31) . . .
33.8(34) . . .
39.6(33) . . .
36.8(31) . . .
39.3(34) . . .
35.0(33) . . .
44(4) . . .
38.7(33) . . .
38.1(33) . . .
33.2(30) . . .
39.9(32) . . .
39.3(33) . . .
35.1(31) . . .
43.7(35) . . .
39.2(33) . . .
35.5(32) . . .
53(4) . . .
36.7(33) . . .
35.3(30) . . .
32.1(32) . . .
35.2(33) . . .
41.8(33) . . .
52(4) . . .
35.8(31) . . .
38.9(33) . . .
35.5(31) . . .
36.8(33) . . .
41.0(34) . . .
42.9(35) . . .
38.7(32) . . .
44(4) . . .
44(4) . . .
33.6(30) . . .
26.8(27) . . .
34.2(34) . . .
33.2(32) . . .
44(4) . . .
35.7(31) . . .
40(4) . . .
34.5(33) . . .
29.4(30) . . .
32.2(30) . . .
33.6(30) . . .
43(4) . . .
33.9(34) . . .
44(4) . . .
38.9(34) . . .
34.8(31) . . .
37.4(32) . . .
32.2(30) . . .
38.0(32) . . .
38.4(32) . . .
42.8(34) . . .
34.3(31) . . .
33.9(32) . . .
31.9(30) . . .
45(4) . . .
40.4(33) . . .
39.2(32) . . .
46(4) . . .
44(4) . . .
40.4(34) . . .
28.9(28) . . .
33.6(31) . . .
34.1(34) . . .
38.4(33) . . .
34.6(31) . . .
33.9(31) . . .
36.9(33) . . .
41(4) . . .
46(4) . . .
47(4) . . .
35.2(31) . . .
39.6(35) . . .
34.3(32) . . .
31.3(30) . . .
38.7(33) . . .
37.4(33) . . .
40.9(35) . . .
34.2(31) . . .
39.5(34) . . .
35.0(31) . . .
38.8(33) . . .
38.6(34) . . .
33.9(33) . . .
27.0(28) . . .
27.6(27) . . .
41.9(34) . . .
38.0(33) . . .
40(4) . . .
44.6(35) . . .
35.8(32) . . .
44(4) . . .
39.5(33) . . .
44(4) . . .
44(4) . . .
34.3(31) . . .
34.0(31) . . .
33.5(31) . . .
44(4) . . .
33.2(32) . . .
36.6(31) . . .
41.6(34) . . .
37.0(32) . . .
38.8(31) . . .
44(4) . . .
36.8(32) . . .
39.8(35) . . .
36.7(33) . . .
41.1(35) . . .
32.5(31) . . .
36.6(31) . . .
35.8(32) . . .
29.6(31) . . .
35.4(32) . . .
38.3(33) . . .
36.6(31) . . .
31.8(30) . . .
32.3(33) . . .
33.8(31) . . .
42.5(34) . . .
31.6(31) . . .
42(4) . . .
34.7(31) . . .
34.1(32) . . .
28.5(29) . . .
33.5(30) . . .
42(4) . . .
42(4) . . .
34.2(31) . . .
37.3(31) . . .
28.0(28) . . .
41(4) . . .
36.2(32) . . .
38.9(34) . . .
43.0(34) . . .
41.6(34) . . .
38.7(34) . . .
33.9(31) . . .
38.0(34) . . .
40.2(33) . . .
38.4(34) . . .
42(4) . . .
37.3(34) . . .
45(4) . . .
40.4(33) . . .
30.1(29) . . .
37.8(32) . . .
40.1(34) . . .
43(4) . . .
33.6(30) . . .
40.5(35) . . .
41(4) . . .
37.3(35) . . .
41.7(34) . . .
35.5(31) . . .
35.4(33) . . .
33.9(34) . . .
27.6(29) . . .
41.8(34) . . .
33.3(30) . . .
42(4) . . .
48(4) . . .
45(4) . . .
36.1(32) . . .
28.4(27) . . .
37.0(33) . . .
33.2(34) . . .
38.5(35) . . .
31.8(30) . . .
30.6(29) . . .
37.7(32) . . .
39.1(34) . . .
39.4(33) . . .
36.4(32) . . .
31.4(29) . . .
39.1(35) . . .
40(4) . . .
35.9(32) . . .
40.0(33) . . .
38.8(33) . . .
34.5(31) . . .
44(4) . . .
35.4(31) . . .
39.2(33) . . .
43.9(35) . . .
40(4) . . .
27.3(29) . . .
43(4) . . .
35.9(31) . . .
35.3(32) . . .
34.6(32) . . .
46(4) . . .
38.5(33) . . .
35.2(31) . . .
37.5(32) . . .
38.8(34) . . .
41(4) . . .
43.8(35) . . .
38.9(33) . . .
34.2(31) . . .
35.7(32) . . .
44(4) . . .
41.5(34) . . .
38.7(33) . . .
33.9(30) . . .
38.4(34) . . .
36.4(32) . . .
40.1(35) . . .
40.7(33) . . .
30.8(28) . . .
39(4) . . .
43(4) . . .
37.1(33) . . .
38.4(33) . . .
33.7(31) . . .
36.4(35) . . .
37.5(32) . . .
43.3(34) . . .
37.6(33) . . .
42(4) . . .
41.4(35) . . .
40(4) . . .
32.5(30) . . .
38.0(34) . . .
33.2(32) . . .
32.9(32) . . .
43.8(35) . . .
37.1(32) . . .
33.5(31) . . .
31.8(30) . . .
36.1(34) . . .
46(4) . . .
37.6(32) . . .
34.8(31) . . .
39.7(34) . . .
38.4(34) . . .
39.0(34) . . .
43.7(35) . . .
37.9(33) . . .
37.3(34) . . .
36.6(32) . . .
40.3(33) . . .
41.4(33) . . .
37.5(34) . . .
42.7(35) . . .
40.3(34) . . .
40.8(35) . . .
51(4) . . .
40(4) . . .
40.0(35) . . .
45(4) . . .
37.2(31) . . .
43.6(34) . . .
41.3(34) . . .
40(4) . . .
36.3(35) . . .
39.8(33) . . .
28.7(29) . . .
32.2(30) . . .
32.5(33) . . .
35.9(34) . . .
35.1(31) . . .
43.2(34) . . .
36.5(32) . . .
35.2(33) . . .
44(4) . . .
44.8(35) . . .
46(4) . . .
35.8(33) . . .
41(4) . . .
32.0(30) . . .
36.2(31) . . .
43(4) . . .
34.0(32) . . .
38(4) . . .
34.5(31) . . .
35.7(31) . . .
37.0(34) . . .
46(4) . . .
45(4) . . .
36.2(34) . . .
35.6(31) . . .
43.6(35) . . .
37.5(33) . . .
29.5(29) . . .
39.4(35) . . .
38.8(32) . . .
33.7(30) . . .
33.5(31) . . .
41.6(35) . . .
47(4) . . .
34.1(31) . . .
32.0(29) . . .
33.3(30) . . .
35.2(33) . . .
38.7(34) . . .
45.2(35) . . .
32.5(30) . . .
38.6(34) . . .
39.3(34) . . .
31.8(29) . . .
42.3(34) . . .
33.3(31) . . .
32.3(31) . . .
42.2(35) . . .
36.6(32) . . .
47(4) . . .
41.3(34) . . .
44(4) . . .
46(4) . . .
31.9(29) . . .
43(4) . . .
44(4) . . .
46(4) . . .
46(4) . . .
45.5(35) . . .
36.5(31) . . .
33.6(30) . . .
31.7(31) . . .
28.9(29) . . .
31.4(29) . . .
38.0(32) . . .
40(4) . . .
40(4) . . .
30.0(29) . . .
34.0(30) . . .
32.5(30) . . .
50(4) . . .
38.5(34) . . .
37.3(34) . . .
35.6(31) . . .
36.4(31) . . .
39.2(34) . . .
40(4) . . .
38.4(34) . . .
38.6(32) . . .
46(4) . . .
41(4) . . .
33.2(32) . . .
43(4) . . .
42.0(34) . . .
34.7(33) . . .
33.3(31) . . .
36.3(34) . . .
27.8(29) . . .
34.1(30) . . .
29.9(29) . . .
31.7(31) . . .
43(4) . . .
44(4) . . .
32.7(30) . . .
40.0(34) . . .
37.4(31) . . .
36.7(32) . . .
38.2(33) . . .
37.8(32) . . .
45(4) . . .
44(4) . . .
36.3(32) . . .
39.2(33) . . .
36.4(32) . . .
37.7(32) . . .
28.8(30) . . .
36.5(33) . . .
30.5(28) . . .
40.9(34) . . .
34.9(31) . . .
39(4) . . .
40(4) . . .
43.6(34) . . .
43.8(35) . . .
37.6(32) . . .
30.4(31) . . .
38(4) . . .
35.5(31) . . .
42.2(34) . . .
34.0(32) . . .
42(4) . . .
38.5(33) . . .
40.0(34) . . .
29.4(30) . . .
42(4) . . .
42(4) . . .
36.9(32) . . .
37.6(32) . . .
35.7(32) . . .
47(4) . . .
38.6(34) . . .
38.3(33) . . .
29.3(28) . . .
38.8(34) . . .
36.2(34) . . .
44(4) . . .
40.9(35) . . .
37.7(32) . . .
44(4) . . .
29.0(30) . . .
33.4(33) . . .
33.3(31) . . .
35.3(31) . . .
41(4) . . .
34.9(31) . . .
31.1(32) . . .
35.3(32) . . .
39.1(33) . . .
39.6(35) . . .
35.1(32) . . .
37.5(34) . . .
35.0(31) . . .
43.7(35) . . .
28.9(28) . . .
39(4) . . .
38.4(34) . . .
30.5(30) . . .
29.6(28) . . .
35.3(33) . . .
36.0(34) . . .
44(4) . . .
43.8(35) . . .
39.3(32) . . .
40(4) . . .
40(4) . . .
40(4) . . .
44.8(35) . . .
39.8(33) . . .
34.8(31) . . .
39.1(35) . . .
39.4(33) . . .
34.3(31) . . .
31.2(29) . . .
33.8(31) . . .
40(4) . . .
39.5(34) . . .
42.7(34) . . .
39.6(33) . . .
37.2(34) . . .
36.8(35) . . .
38.9(33) . . .
46(4) . . .
36.9(32) . . .
40.5(34) . . .
41(4) . . .
34.1(32) . . .
31.0(29) . . .
35.9(32) . . .
42(4) . . .
37.1(34) . . .
39.1(33) . . .
32.2(29) . . .
37.6(34) . . .
42(4) . . .
33.0(30) . . .
42.1(35) . . .
39.7(34) . . .
38.1(35) . . .
28.0(30) . . .
33.0(32) . . .
38.6(32) . . .
33.1(30) . . .
35.3(33) . . .
44(4) . . .
33.2(32) . . .
39.5(33) . . .
41.9(35) . . .
30.0(28) . . .
43(4) . . .
38.2(33) . . .
38.7(33) . . .
30.2(28) . . .
43(4) . . .
47(4) . . .
40.4(34) . . .
35.0(31) . . .
45(4) . . .
40(4) . . .
35.0(32) . . .
38.1(32) . . .
35.1(31) . . .
38.8(33) . . .
39.1(35) . . .
41(4) . . .
35.4(32) . . .
33.8(30) . . .
43.0(34) . . .
37.0(32) . . .
35.2(32) . . .
40.0(34) . . .
41.3(34) . . .
32.5(30) . . .
36.9(34) . . .
31.4(31) . . .
34.4(31) . . .
45(4) . . .
38.8(34) . . .
32.3(30) . . .
40.0(34) . . .
36.5(31) . . .
47(4) . . .
41.1(34) . . .
37.5(35) . . .
40.2(35) . . .
39.1(34) . . .
26.5(28) . . .
28.5(29) . . .
40.2(35) . . .
44(4) . . .
32.0(29) . . .
31.7(30) . . .
33.0(30) . . .
39(4) . . .
31.1(29) . . .
33.4(30) . . .
44.1(35) . . .
44(4) . . .
31.9(32) . . .
34.9(32) . . .
36.8(31) . . .
46(4) . . .
45(4) . . .
49(4) . . .
42(4) . . .
43.3(34) . . .
46(4) . . .
36.8(33) . . .
34.1(33) . . .
40.4(35) . . .
30.5(29) . . .
40.8(33) . . .
40.4(34) . . .
36.0(34) . . .
37.9(33) . . .
37.7(32) . . .
29.9(29) . . .
36.6(33) . . .
42(4) . . .
34.1(32) . . .
30.3(30) . . .
43(4) . . .
39.1(33) . . .
42.9(35) . . .
40.9(35) . . .
29.6(28) . . .
36.7(34) . . .
32.5(31) . . .
36.1(33) . . .
31.3(31) . . .
37.5(32) . . .
32.4(32) . . .
32.7(31) . . .
34.5(33) . . .
39.4(34) . . .
38.1(32) . . .
33.5(31) . . .
29.7(29) . . .
36.8(34) . . .
39.0(33) . . .
33.0(30) . . .
36.2(32) . . .
36.3(32) . . .
40.2(34) . . .
35.6(31) . . .
34.0(31) . . .
44(4) . . .
35.7(32) . . .
35.1(33) . . .
31.3(30) . . .
33.1(31) . . .
35.2(33) . . .
39.5(34) . . .
46(4) . . .
39.3(33) . . .
41.2(33) . . .
38.6(33) . . .
40(4) . . .
40.8(35) . . .
31.3(30) . . .
33.8(30) . . .
48(4) . . .
41(4) . . .
32.1(30) . . .
34.8(31) . . .
28.9(28) . . .
39(4) . . .
35.5(34) . . .
31.3(31) . . .
52(4) . . .
41(4) . . .
33.2(31) . . .
44(4) . . .
37.6(33) . . .
40.5(33) . . .
37.1(34) . . .
32.8(31) . . .
39(4) . . .
42(4) . . .
40.6(33) . . .
35.8(32) . . .
34.5(32) . . .
45(4) . . .
36.2(32) . . .
34.0(31) . . .
43(4) . . .
47(4) . . .
39.8(34) . . .
41.4(33) . . .
29.5(29) . . .
41(4) . . .
35.4(32) . . .
40.1(35) . . .
37.4(32) . . .
35.7(31) . . .
40.8(34) . . .
35.8(32) . . .
39.5(34) . . .
42(4) . . .
38.2(32) . . .
36.9(33) . . .
30.6(31) . . .
36.7(32) . . .
35.5(32) . . .
32.6(30) . . .
36.7(32) . . .
37.3(35) . . .
26.0(29) . . .
32.0(29) . . .
34.7(31) . . .
35.7(33) . . .
32.6(33) . . .
29.2(28) . . .
35.7(31) . . .
42.1(35) . . .
40.2(35) . . .
42(4) . . .
35.8(34) . . .
37.0(32) . . .
33.1(30) . . .
32.1(30) . . .
36.3(34) . . .
36.7(33) . . .
41.8(33) . . .
32.6(30) . . .
30.0(30) . . .
37(4) . . .
24.2(25) . . .
36.2(32) . . .
46(4) . . .
35.2(31) . . .
32.8(30) . . .
35.2(31) . . .
38.7(33) . . .
40.3(35) . . .
44(4) . . .
40.2(33) . . .
47(4) . . .
36.7(32) . . .
42(4) . . .
35.0(34) . . .
35.5(34) . . .
33.2(30) . . .
35.1(32) . . .
44(4) . . .
36.1(32) . . .
35.7(33) . . .
42.0(35) . . .
38.2(32) . . .
41(4) . . .
44(4) . . .
43.5(35) . . .
37.0(32) . . .
32.2(30) . . .
40(4) . . .
33.9(32) . . .
40.4(35) . . .
41.0(33) . . .
46(4) . . .
35.5(31) . . .
40.3(34) . . .
46(4) . . .
33.7(30) . . .
33.6(31) . . .
36.1(33) . . .
39.2(35) . . .
41.6(35) . . .
30.9(29) . . .
38.7(33) . . .
35.0(33) . . .
34.5(32) . . .
27.7(29) . . .
46(4) . . .
29.1(28) . . .
35.9(34) . . .
36.6(33) . . .
35.6(33) . . .
44(4) . . .
44(4) . . .
31.4(30) . . .
39.1(35) . . .
37.8(33) . . .
39.0(33) . . .
36.6(32) . . .
31.6(29) . . .
37.7(34) . . .
39.1(33) . . .
35.6(32) . . .
32.7(34) . . .
36(4) . . .
36.0(33) . . .
52(4) . . .
33.9(30) . . .
37.0(34) . . .
51(4) . . .
39.4(33) . . .
33.6(30) . . .
39.1(33) . . .
33.5(31) . . .
40(4) . . .
36.7(32) . . .
35.3(31) . . .
38.3(34) . . .
44(4) . . .
38.7(34) . . .
48(4) . . .
45.7(35) . . .
25.2(26) . . .
31.3(30) . . .
35.7(33) . . .
33.7(30) . . .
38.8(32) . . .
36.5(31) . . .
34.8(34) . . .
39(4) . . .
39(4) . . .
40.2(34) . . .
36.3(32) . . .
45(4) . . .
36.8(34) . . .
36.8(35) . . .
38.1(32) . . .
36.4(32) . . .
35.4(31) . . .
34.9(32) . . .
48(4) . . .
38.3(32) . . .
33.8(30) . . .
45(4) . . .
32.2(32) . . .
38(4) . . .
38.3(33) . . .
45(4) . . .
45(4) . . .
44(4) . . .
42.0(34) . . .
39.4(33) . . .
40.7(34) . . .
49(4) . . .
41.0(34) . . .
33.4(30) . . .
32.5(30) . . .
35.9(33) . . .
29.7(30) . . .
44(4) . . .
47(4) . . .
41.9(34) . . .
37.7(33) . . .
49(4) . . .
32.4(30) . . .
36.5(32) . . .
40.0(33) . . .
40.8(35) . . .
40.4(35) . . .
41.6(34) . . .
33.3(31) . . .
38.6(32) . . .
39.7(34) . . .
35.7(33) . . .
36.8(33) . . .
40.6(33) . . .
33.1(30) . . .
39.3(33) . . .
39(4) . . .
33.0(33) . . .
46(4) . . .
41(4) . . .
38.8(35) . . .
33.7(32) . . .
42(4) . . .
39.7(33) . . .
41.3(34) . . .
36.5(32) . . .
40(4) . . .
33.9(31) . . .
33.8(30) . . .
35.8(31) . . .
41.3(34) . . .
37.8(32) . . .
37.4(33) . . .
34.3(30) . . .
27.9(28) . . .
42(4) . . .
39.6(34) . . .
34.3(33) . . .
37.5(32) . . .
33.5(31) . . .
30.7(31) . . .
45(4) . . .
34.6(31) . . .
34.9(31) . . .
36.6(34) . . .
41.0(34) . . .
37.9(33) . . .
37.8(32) . . .
39.6(33) . . .
39.1(34) . . .
41.5(35) . . .
36.3(32) . . .
33.4(30) . . .
35.0(31) . . .
40(4) . . .
41(4) . . .
34.8(32) . . .
32.0(29) . . .
40.3(33) . . .
46(4) . . .
34.7(33) . . .
35.4(31) . . .
33.4(30) . . .
30.3(29) . . .
33.2(31) . . .
44(4) . . .
35.3(32) . . .
38.2(32) . . .
36.1(31) . . .
38.5(35) . . .
28.4(29) . . .
46(4) . . .
39.0(33) . . .
43.0(35) . . .
33.3(33) . . .
32.2(32) . . .
38.6(33) . . .
33.5(30) . . .
38.2(32) . . .
38.3(33) . . .
37.7(31) . . .
34.9(32) . . .
47(4) . . .
42.9(34) . . .
37.2(34) . . .
29.5(29) . . .
36.0(33) . . .
35.5(31) . . .
35.8(32) . . .
36.3(33) . . .
38.3(32) . . .
39.5(35) . . .
41.5(33) . . .
35.1(32) . . .
36.3(33) . . .
39.8(34) . . .
28.1(27) . . .
40.7(33) . . .
30.4(30) . . .
41(4) . . .
36.2(32) . . .
39.3(33) . . .
48(4) . . .
46(4) . . .
36.6(34) . . .
39.5(35) . . .
32.0(30) . . .
34.7(31) . . .
43.3(35) . . .
35.8(32) . . .
26.8(27) . . .
31.1(29) . . .
44(4) . . .
37.7(34) . . .
39(4) . . .
42.8(34) . . .
39.5(33) . . .
42.1(34) . . .
48(4) . . .
35.3(31) . . .
36.3(31) . . .
37.5(33) . . .
33.9(30) . . .
32.3(30) . . .
44(4) . . .
41(4) . . .
41.0(33) . . .
38.8(33) . . .
36.2(32) . . .
38.0(34) . . .
36.2(32) . . .
37.1(32) . . .
37.2(31) . . .
42.4(34) . . .
39.2(34) . . .
29.3(29) . . .
33.6(30) . . .
32.6(30) . . .
40.4(34) . . .
33.0(32) . . .
35.6(31) . . .
36.0(31) . . .
30.5(29) . . .
36.5(34) . . .
33.3(32) . . .
34.9(31) . . .
35.4(31) . . .
40.5(34) . . .
30.7(30) . . .
31.8(30) . . .
35.8(34) . . .
36.9(31) . . .
39.6(33) . . .
46(4) . . .
36.7(33) . . .
31.0(28) . . .
37.7(32) . . .
30.7(31) . . .
32.1(32) . . .
34.5(31) . . .
40.4(33) . . .
36.1(32) . . .
35.5(32) . . .
36.5(33) . . .
40.2(33) . . .
35.7(32) . . .
39.6(32) . . .
35.2(33) . . .
34.7(33) . . .
38.7(33) . . .
46(4) . . .
50(4) . . .
45(4) . . .
41(4) . . .
33.0(31) . . .
38.5(32) . . .
41.0(34) . . .
34.1(30) . . .
34.1(32) . . .
38.0(34) . . .
39.6(33) . . .
36.5(32) . . .
34.6(32) . . .
34.5(32) . . .
45(4) . . .
48(4) . . .
38.4(33) . . .
33.7(31) . . .
35.3(32) . . .
34.3(31) . . .
34.3(31) . . .
40.3(34) . . .
34.1(33) . . .
42(4) . . .
41.5(33) . . .
33.8(31) . . .
40(4) . . .
31.6(31) . . .
34.5(31) . . .
31.5(30) . . .
29.0(28) . . .
31.0(30) . . .
43(4) . . .
43(4) . . .
35.0(32) . . .
43.9(34) . . .
46(4) . . .
36.5(34) . . .
37.7(33) . . .
41.2(33) . . .
36.2(32) . . .
35.3(31) . . .
35.3(32) . . .
38.4(33) . . .
31.0(29) . . .
37.7(32) . . .
38.0(33) . . .
37.4(35) . . .
39(4) . . .
38.4(33) . . .
30.3(30) . . .
34.8(33) . . .
43(4) . . .
45(4) . . .
33.8(30) . . .
38.2(34) . . .
39.7(33) . . .
34.9(33) . . .
42(4) . . .
40.6(33) . . .
43(4) . . .
30.5(29) . . .
33.6(30) . . .
26.0(28) . . .
33.3(30) . . .
33.8(31) . . .
35.5(34) . . .
32.5(31) . . .
47(4) . . .
35.5(31) . . .
31.6(30) . . .
33(4) . . .
36.2(32) . . .
43.4(35) . . .
31.4(30) . . .
42(4) . . .
31.7(32) . . .
35.7(32) . . .
42.6(34) . . .
33.7(30) . . .
36.6(32) . . .
35.8(34) . . .
41(4) . . .
36.6(32) . . .
43.1(34) . . .
42.3(35) . . .
31.5(32) . . .
32.4(31) . . .
47(4) . . .
31.7(30) . . .
42(4) . . .
45(4) . . .
37(4) . . .
40.0(33) . . .
35.2(32) . . .
38.3(33) . . .
34.8(32) . . .
38.0(34) . . .
28.9(28) . . .
34.4(31) . . .
40.7(34) . . .
45(4) . . .
42.5(35) . . .
33.7(30) . . .
32.6(30) . . .
26.4(27) . . .
28.6(31) . . .
39.5(35) . . .
40.9(33) . . .
36.5(32) . . .
31.1(29) . . .
37.0(34) . . .
26.1(27) . . .
36.8(32) . . .
38(4) . . .
38.1(34) . . .
35.7(32) . . .
30.5(31) . . .
36.9(32) . . .
42.7(34) . . .
45(4) . . .
36(4) . . .
27.9(28) . . .
37.5(32) . . .
33.2(34) . . .
35.6(34) . . .
31.6(29) . . .
35.4(31) . . .
54(4) . . .
36.9(33) . . .
33.3(32) . . .
33.9(31) . . .
38.5(33) . . .
34.1(31) . . .
33.3(30) . . .
46(4) . . .
29.5(28) . . .
35.0(31) . . .
38.9(33) . . .
29.5(28) . . .
37.0(34) . . .
35.3(32) . . .
27.4(27) . . .
36.6(32) . . .
36.7(32) . . .
39.8(35) . . .
36.8(32) . . .
36.1(31) . . .
38.0(32) . . .
42(4) . . .
46(4) . . .
38.1(34) . . .
35.5(32) . . .
31.8(29) . . .
33.9(32) . . .
35.5(34) . . .
32.5(30) . . .
38.9(32) . . .
40.7(34) . . .
35.6(32) . . .
38.1(33) . . .
38.6(32) . . .
42.6(34) . . .
41.3(35) . . .
39.2(34) . . .
36.7(33) . . .
27.9(28) . . .
31.9(30) . . .
37.7(33) . . .
34.5(32) . . .
42.0(35) . . .
45(4) . . .
37.0(32) . . .
42(4) . . .
37.0(34) . . .
46(4) . . .
41.8(34) . . .
36.3(32) . . .
41.3(33) . . .
42(4) . . .
33.4(31) . . .
34.7(31) . . .
36.3(32) . . .
35.1(33) . . .
35.0(30) . . .
37.5(33) . . .
37.7(32) . . .
40.4(33) . . .
39.9(34) . . .
33.8(33) . . .
40(4) . . .
38.8(33) . . .
47(4) . . .
35.4(31) . . .
44(4) . . .
38.0(34) . . .
40.8(34) . . .
41.2(34) . . .
34.5(32) . . .
34.7(34) . . .
30.1(29) . . .
39.9(33) . . .
34.5(33) . . .
39.4(34) . . .
35.7(32) . . .
40.6(34) . . .
33.5(30) . . .
33.1(30) . . .
34.0(31) . . .
32.1(31) . . .
46(4) . . .
39.0(33) . . .
44.0(35) . . .
41.1(34) . . .
33.4(31) . . .
32.3(31) . . .
36.7(32) . . .
32.5(30) . . .
37.6(34) . . .
40.8(34) . . .
36.3(32) . . .
36.2(31) . . .
39.3(34) . . .
45(4) . . .
44(4) . . .
27.5(27) . . .
32.2(30) . . .
44(4) . . .
28.4(30) . . .
36(4) . . .
38.7(34) . . .
35.1(32) . . .
40.9(35) . . .
27.7(30) . . .
32.9(30) . . .
31.5(30) . . .
27.4(27) . . .
39.4(33) . . .
41(4) . . .
38.1(35) . . .
30.1(28) . . .
30.4(29) . . .
30.8(30) . . .
35.5(33) . . .
34.9(32) . . .
32.0(30) . . .
39.6(33) . . .
37.7(34) . . .
32.9(30) . . .
35.9(32) . . .
31.7(29) . . .
37.2(33) . . .
25.4(26) . . .
36.7(34) . . .
33.8(32) . . .
46(4) . . .
37.4(33) . . .
37.9(33) . . .
34.5(33) . . .
36.5(32) . . .
37.1(32) . . .
38.9(34) . . .
36.5(31) . . .
33.2(30) . . .
33.1(32) . . .
33.1(30) . . .
28.3(29) . . .
32.6(31) . . .
31.3(30) . . .
35.7(32) . . .
39.6(33) . . .
36.3(33) . . .
35.0(33) . . .
35.8(34) . . .
36.0(32) . . .
30.9(30) . . .
35.8(34) . . .
44(4) . . .
30.1(29) . . .
38.1(33) . . .
38.1(32) . . .
38.8(32) . . .
37.0(33) . . .
33.8(30) . . .
36.0(32) . . .
39.5(33) . . .
38.5(33) . . .
33.6(33) . . .
31.4(30) . . .
37.9(32) . . .
30.7(29) . . .
35.5(31) . . .
39(4) . . .
38.6(34) . . .
35.3(31) . . .
38.9(33) . . .
39.0(33) . . .
46(4) . . .
39.8(34) . . .
40.2(33) . . .
49(4) . . .
37.9(32) . . .
36.9(33) . . .
41.3(35) . . .
39.1(32) . . .
33.9(30) . . .
38.9(35) . . .
37.5(35) . . .
35.7(32) . . .
35.8(31) . . .
35.1(33) . . .
31.2(32) . . .
39(4) . . .
28.0(31) . . .
28.6(28) . . .
34.8(31) . . .
37.0(33) . . .
36.0(33) . . .
37.8(32) . . .
36.7(32) . . .
42.6(34) . . .
33.3(31) . . .
39.1(34) . . .
38.2(34) . . .
37.5(32) . . .
38.2(34) . . .
25.7(27) . . .
40(4) . . .
24.2(26) . . .
37.6(32) . . .
36.9(35) . . .
32.8(32) . . .
40(4) . . .
38.0(33) . . .
34.1(32) . . .
41.1(34) . . .
39.9(35) . . .
36.5(34) . . .
37.3(34) . . .
28.1(27) . . .
33.6(31) . . .
36.1(35) . . .
38.8(34) . . .
37.6(32) . . .
27.0(27) . . .
34.3(31) . . .
45(4) . . .
42.6(34) . . .
36.3(31) . . .
31.3(30) . . .
34.2(31) . . .
27.4(29) . . .
30.6(30) . . .
40.0(33) . . .
40.1(33) . . .
39.8(34) . . .
32.0(31) . . .
37.6(33) . . .
35.0(32) . . .
36.3(33) . . .
38.9(35) . . .
34.9(34) . . .
27.9(31) . . .
34.8(31) . . .
35.3(31) . . .
34.7(32) . . .
34.3(32) . . .
30.4(31) . . .
30.2(29) . . .
40(4) . . .
36.5(33) . . .
37.6(33) . . .
35.1(32) . . .
26.0(27) . . .
31.6(30) . . .
31.0(31) . . .
29.8(29) . . .
29.8(28) . . .
47(4) . . .
37.4(33) . . .
40(4) . . .
35.3(31) . . .
40.1(33) . . .
35.7(31) . . .
41.7(35) . . .
42.3(35) . . .
39(4) . . .
27.6(27) . . .
31.4(30) . . .
35.0(32) . . .
36.9(35) . . .
35.5(33) . . .
32.8(30) . . .
36.2(31) . . .
26.8(27) . . .
38(4) . . .
39.1(35) . . .
32.5(29) . . .
36.8(33) . . .
37.0(32) . . .
44(4) . . .
30.8(30) . . .
30.7(29) . . .
35.2(32) . . .
32.8(31) . . .
34.6(32) . . .
36.1(33) . . .
35.5(31) . . .
29.0(28) . . .
41.4(35) . . .
43(4) . . .
34.9(31) . . .
48(4) . . .
40.9(34) . . .
32.4(32) . . .
44(4) . . .
42(4) . . .
35.0(31) . . .
48(4) . . .
32.3(31) . . .
37.1(33) . . .
28.6(28) . . .
34.1(31) . . .
37(4) . . .
30.1(32) . . .
33.7(31) . . .
34.3(30) . . .
48(4) . . .
33.1(32) . . .
37(4) . . .
35.3(32) . . .
39.1(33) . . .
31.6(29) . . .
38.7(34) . . .
33.5(34) . . .
27.5(28) . . .
33.5(31) . . .
30.7(29) . . .
38.7(35) . . .
38(4) . . .
34.4(33) . . .
33.2(30) . . .
40.3(33) . . .
37.3(33) . . .
30.6(31) . . .
38.2(33) . . .
40.5(33) . . .
36.9(32) . . .
34.4(31) . . .
35.1(31) . . .
35.8(32) . . .
30.4(29) . . .
36.6(32) . . .
32.7(31) . . .
34.3(33) . . .
34.2(33) . . .
27.6(28) . . .
42.3(35) . . .
35.2(31) . . .
35.8(31) . . .
30.5(29) . . .
31.3(29) . . .
31.9(32) . . .
42(4) . . .
33.0(31) . . .
37.7(33) . . .
38.0(32) . . .
33.6(33) . . .
29.2(29) . . .
33.5(31) . . .
37.8(33) . . .
35.4(31) . . .
34.0(31) . . .
33.3(32) . . .
31.3(30) . . .
32.0(30) . . .
32.2(30) . . .
29.7(29) . . .
33.8(31) . . .
48(4) . . .
33.1(30) . . .
37.8(32) . . .
38.1(34) . . .
31.9(32) . . .
39.3(34) . . .
30.0(29) . . .
37.3(32) . . .
44(4) . . .
38.2(35) . . .
34.7(32) . . .
31.0(30) . . .
38.8(33) . . .
38.8(34) . . .
29.6(29) . . .
38(4) . . .
28.5(28) . . .
40.5(33) . . .
33.5(31) . . .
41(4) . . .
37.2(33) . . .
29.9(29) . . .
33.9(30) . . .
31.4(29) . . .
43(4) . . .
44.2(34) . . .
45(4) . . .
33.7(32) . . .
38(4) . . .
32.0(31) . . .
28.8(28) . . .
39.5(33) . . .
40.0(34) . . .
32.2(31) . . .
43(4) . . .
41.1(34) . . .
40.6(33) . . .
40.5(34) . . .
37.2(35) . . .
30.8(30) . . .
32.7(29) . . .
30.6(29) . . .
37.0(32) . . .
41(4) . . .
43(4) . . .
33.5(31) . . .
26.6(27) . . .
32.9(32) . . .
37.7(35) . . .
30.2(29) . . .
35.1(31) . . .
31.0(29) . . .
37.8(33) . . .
36.2(33) . . .
39.5(34) . . .
35.3(31) . . .
47(4) . . .
37.5(33) . . .
38.6(34) . . .
35.6(32) . . .
36.1(33) . . .
34.5(31) . . .
29.0(30) . . .
31.7(32) . . .
32.3(30) . . .
32.9(32) . . .
39.0(33) . . .
29.9(32) . . .
28.1(29) . . .
39.7(33) . . .
37.3(32) . . .
31.1(30) . . .
32.7(33) . . .
28.9(28) . . .
37.1(34) . . .
41.1(34) . . .
34.1(30) . . .
35.5(32) . . .
36.7(34) . . .
33.5(31) . . .
41.9(34) . . .
31.2(30) . . .
28.3(28) . . .
33.7(31) . . .
28.8(28) . . .
34.7(31) . . .
36.3(31) . . .
43(4) . . .
42(4) . . .
35.5(31) . . .
32.2(29) . . .
44(4) . . .
34.9(32) . . .
41(4) . . .
35.5(31) . . .
36.1(32) . . .
41(4) . . .
36.5(35) . . .
31.8(30) . . .
33.8(31) . . .
26.3(27) . . .
37.2(32) . . .
34.6(31) . . .
34.6(30) . . .
37.7(32) . . .
28.9(28) . . .
38.8(33) . . .
41.5(34) . . .
36.4(32) . . .
33.0(31) . . .
40.4(33) . . .
37.7(34) . . .
36.4(35) . . .
32.4(31) . . .
36.0(32) . . .
32.3(30) . . .
40.0(34) . . .
41(4) . . .
41(4) . . .
36.9(32) . . .
28.3(27) . . .
29.6(29) . . .
32.0(30) . . .
42(4) . . .
33.7(30) . . .
37.2(32) . . .
33.0(30) . . .
31.7(30) . . .
32.2(31) . . .
36.3(32) . . .
39.4(33) . . .
31.3(32) . . .
29.7(30) . . .
24.1(26) . . .
38.2(33) . . .
33.8(31) . . .
35.8(33) . . .
27.3(27) . . .
34.9(31) . . .
38.0(32) . . .
42.3(35) . . .
39(4) . . .
43(4) . . .
36.2(32) . . .
33.2(30) . . .
31.0(29) . . .
33.5(32) . . .
37.2(32) . . .
29.1(28) . . .
32.4(30) . . .
39.0(33) . . .
35.2(33) . . .
38(4) . . .
28.6(29) . . .
36.9(32) . . .
34.5(33) . . .
35.3(33) . . .
35.2(32) . . .
45.3(35) . . .
40.0(33) . . .
45(4) . . .
35.8(32) . . .
39.1(34) . . .
38.8(33) . . .
37.7(33) . . .
35.5(32) . . .
35.7(34) . . .
24.5(25) . . .
33.9(30) . . .
29.8(28) . . .
38.4(35) . . .
34.5(31) . . .
35.8(33) . . .
35.9(31) . . .
32.8(30) . . .
32.4(32) . . .
41(4) . . .
36.5(32) . . .
38.7(32) . . .
44(4) . . .
27.6(28) . . .
33.9(32) . . .
33.7(31) . . .
31.2(29) . . .
27.8(28) . . .
31.7(30) . . .
35.2(33) . . .
42(4) . . .
31.0(29) . . .
32.5(30) . . .
29.0(28) . . .
31.7(32) . . .
36.1(33) . . .
41.2(34) . . .
38.8(32) . . .
37.7(34) . . .
36.8(34) . . .
32.4(31) . . .
37.6(32) . . .
39.0(35) . . .
35.7(33) . . .
44(4) . . .
40.2(33) . . .
34.2(30) . . .
41.6(35) . . .
38.5(35) . . .
33.7(31) . . .
34.7(31) . . .
31.7(29) . . .
41(4) . . .
36(4) . . .
33.3(31) . . .
43.7(35) . . .
30.3(29) . . .
46(4) . . .
39.6(35) . . .
44(4) . . .
36.7(32) . . .
39.9(33) . . .
41.8(34) . . .
33.8(32) . . .
31.1(30) . . .
35.4(31) . . .
46(4) . . .
38.5(35) . . .
38.0(34) . . .
38.6(34) . . .
31.1(29) . . .
35.0(32) . . .
43(4) . . .
36.1(33) . . .
32.3(32) . . .
41.3(35) . . .
37.1(32) . . .
29.9(29) . . .
32.6(31) . . .
38.3(33) . . .
43.5(34) . . .
27.0(28) . . .
30.0(31) . . .
36.5(34) . . .
41.3(35) . . .
34.8(31) . . .
34.2(32) . . .
35.9(32) . . .
32.9(31) . . .
27.3(29) . . .
40.6(33) . . .
36.0(32) . . .
37.0(33) . . .
34.6(31) . . .
43(4) . . .
31.5(29) . . .
36.3(32) . . .
36(4) . . .
32.0(31) . . .
33.7(31) . . .
35.2(32) . . .
39(4) . . .
33.9(32) . . .
34.8(30) . . .
38.5(32) . . .
36.9(31) . . .
38.7(34) . . .
43(4) . . .
39.1(35) . . .
33.5(30) . . .
30.7(29) . . .
33.0(32) . . .
35.3(34) . . .
35.3(34) . . .
40.1(33) . . .
37.2(32) . . .
35.3(31) . . .
37.5(35) . . .
29.5(30) . . .
30.5(29) . . .
38.0(33) . . .
38.1(33) . . .
41.3(35) . . .
38.2(33) . . .
40.1(33) . . .
34.1(31) . . .
36.3(33) . . .
28.2(27) . . .
36.0(32) . . .
42.7(34) . . .
34.5(31) . . .
33.5(32) . . .
35.3(33) . . .
33.2(32) . . .
42.6(34) . . .
30.5(31) . . .
36.0(35) . . .
40.8(34) . . .
38.1(34) . . .
34.6(30) . . .
30.6(29) . . .
31.1(30) . . .
36.9(32) . . .
35.3(31) . . .
30.8(29) . . .
37.2(32) . . .
26.2(26) . . .
31.8(31) . . .
36.6(32) . . .
30.3(29) . . .
51(4) . . .
35.5(34) . . .
35.0(31) . . .
39.2(34) . . .
34.2(32) . . .
37.5(32) . . .
36.0(33) . . .
44(4) . . .
42.6(35) . . .
46.0(35) . . .
32.0(29) . . .
31.5(31) . . .
38.1(35) . . .
40.7(34) . . .
40.0(34) . . .
26.2(27) . . .
32.5(34) . . .
32.6(31) . . .
29.6(29) . . .
37.0(32) . . .
36.0(34) . . .
30.3(30) . . .
29.5(29) . . .
44.0(34) . . .
37.7(32) . . .
41(4) . . .
29.6(30) . . .
37.3(33) . . .
34.6(32) . . .
38.5(33) . . .
35.8(32) . . .
34.0(31) . . .
33.4(30) . . .
38.4(32) . . .
33.8(30) . . .
39.2(33) . . .
32.9(31) . . .
41(4) . . .
40.3(33) . . .
49(4) . . .
27.2(29) . . .
32.1(31) . . .
48(4) . . .
34.0(31) . . .
38.2(33) . . .
39(4) . . .
37(4) . . .
36.2(32) . . .
41.7(34) . . .
35.7(33) . . .
28.6(28) . . .
36.4(32) . . .
38.3(32) . . .
37.3(32) . . .
37.8(34) . . .
42(4) . . .
39.4(34) . . .
38.9(32) . . .
34.0(30) . . .
34.1(30) . . .
38(4) . . .
30.2(30) . . .
30.0(28) . . .
25.6(26) . . .
42(4) . . .
33.5(33) . . .
42(4) . . .
19.2(23) . . .
33.7(30) . . .
37.5(34) . . .
37(4) . . .
40.3(34) . . .
37.0(32) . . .
31.7(32) . . .
29.8(28) . . .
41(4) . . .
39.2(33) . . .
39.4(33) . . .
40.1(33) . . .
40.9(34) . . .
29.4(28) . . .
33.6(31) . . .
36.0(31) . . .
36.6(33) . . .
31.1(31) . . .
31.7(30) . . .
26.4(27) . . .
46(4) . . .
45(4) . . .
31.3(29) . . .
32.5(30) . . .
30.5(30) . . .
36.5(31) . . .
36.9(32) . . .
36.6(34) . . .
41(4) . . .
38.1(33) . . .
44.1(35) . . .
27.6(28) . . .
36.9(34) . . .
35.2(31) . . .
36.7(32) . . .
28.5(28) . . .
37.1(34) . . .
41(4) . . .
31.6(30) . . .
32.3(29) . . .
38.1(33) . . .
33.2(30) . . .
38(4) . . .
35.5(32) . . .
41.0(33) . . .
30.9(31) . . .
26.3(28) . . .
37(4) . . .
36.7(33) . . .
31.3(29) . . .
37.8(32) . . .
34.5(31) . . .
35.5(35) . . .
36.3(33) . . .
28.6(27) . . .
35.0(33) . . .
34.2(31) . . .
36.0(34) . . .
35.3(31) . . .
40.8(33) . . .
37.5(33) . . .
29.1(29) . . .
31.1(30) . . .
41(4) . . .
39.1(33) . . .
37(4) . . .
34.9(31) . . .
39.8(32) . . .
28.9(28) . . .
35.0(31) . . .
34.9(33) . . .
38.9(35) . . .
41(4) . . .
35.8(31) . . .
38.5(33) . . .
36.6(35) . . .
39.4(33) . . .
47(4) . . .
38.4(33) . . .
31.8(29) . . .
36.2(32) . . .
37.5(34) . . .
36.9(34) . . .
33.5(30) . . .
34.0(31) . . .
30.8(30) . . .
31.7(31) . . .
34.5(31) . . .
28.7(28) . . .
31.5(30) . . .
33.0(30) . . .
41(4) . . .
32.3(31) . . .
31.8(29) . . .
32.2(30) . . .
27.7(30) . . .
34.8(33) . . .
31.4(29) . . .
39.6(32) . . .
46(4) . . .
38.6(33) . . .
34.0(35) . . .
33.4(33) . . .
34.8(31) . . .
30.3(29) . . .
36.2(34) . . .
41(4) . . .
35.7(33) . . .
32.7(30) . . .
35.4(33) . . .
39.0(35) . . .
38.0(34) . . .
35.2(31) . . .
32.6(30) . . .
33.4(32) . . .
32.9(31) . . .
31.5(31) . . .
34.1(35) . . .
34.7(31) . . .
46(4) . . .
34.3(31) . . .
26.4(27) . . .
36.0(33) . . .
35.4(31) . . .
30.8(29) . . .
29.0(28) . . .
47(4) . . .
42.0(34) . . .
37.1(32) . . .
38(4) . . .
36.9(34) . . .
38.5(33) . . .
32.5(31) . . .
31.0(29) . . .
29.9(32) . . .
49(4) . . .
37.1(31) . . .
34.9(31) . . .
34.1(31) . . .
37.7(35) . . .
48(4) . . .
33.0(30) . . .
38.9(33) . . .
36.4(32) . . .
34.2(30) . . .
34.3(32) . . .
31.7(32) . . .
31.5(30) . . .
36.2(32) . . .
38.8(34) . . .
36(4) . . .
29.8(30) . . .
33.3(30) . . .
39.2(34) . . .
47(4) . . .
32.0(30) . . .
38.4(33) . . .
28.5(29) . . .
39.8(33) . . .
32.9(29) . . .
38.2(34) . . .
44(4) . . .
35.9(32) . . .
33.7(31) . . .
38.4(34) . . .
42(4) . . .
36.7(33) . . .
43.7(34) . . .
37.7(32) . . .
35.4(33) . . .
29.2(30) . . .
31.3(29) . . .
34.3(31) . . .
40.2(34) . . .
32.3(30) . . .
32.3(30) . . .
34.3(31) . . .
32.9(30) . . .
39(4) . . .
40.3(34) . . .
36.7(30) . . .
45(4) . . .
38.7(33) . . .
27.7(29) . . .
34.0(32) . . .
30.7(28) . . .
36.5(31) . . .
40(4) . . .
36.8(33) . . .
38.4(34) . . .
34.1(32) . . .
36.9(32) . . .
37.6(32) . . .
32.8(32) . . .
34.7(34) . . .
33.7(31) . . .
35.3(32) . . .
34.6(31) . . .
42.7(34) . . .
44(4) . . .
35.6(31) . . .
41.2(34) . . .
32.3(30) . . .
34.0(34) . . .
32.2(31) . . .
31.6(29) . . .
39.8(33) . . .
36.6(31) . . .
35.5(32) . . .
37.1(34) . . .
34.3(31) . . .
31.4(30) . . .
46(4) . . .
28.0(28) . . .
33.2(31) . . .
43(4) . . .
39.7(33) . . .
37.0(33) . . .
31.0(30) . . .
38(4) . . .
45(4) . . .
36.5(31) . . .
30.9(29) . . .
35.6(34) . . .
46(4) . . .
39.1(33) . . .
40.7(33) . . .
34.3(32) . . .
38.6(34) . . .
39(4) . . .
40.0(33) . . .
36.4(32) . . .
34.4(33) . . .
36(4) . . .
29.6(30) . . .
37.2(32) . . .
32.8(30) . . .
36.4(35) . . .
31.5(32) . . .
41(4) . . .
30.0(29) . . .
31.1(29) . . .
27.9(28) . . .
35(4) . . .
31.5(30) . . .
36.1(33) . . .
43.5(35) . . .
39.7(33) . . .
47(4) . . .
35.2(32) . . .
37.8(33) . . .
35.4(31) . . .
35.0(31) . . .
33.4(31) . . .
45(4) . . .
33.0(30) . . .
31.2(30) . . .
34.8(33) . . .
37.1(33) . . .
31.6(31) . . .
44(4) . . .
40.9(35) . . .
38.8(34) . . .
36.0(32) . . .
36.2(32) . . .
34.8(31) . . .
41.4(34) . . .
35.1(31) . . .
36.2(32) . . .
28.9(28) . . .
37.3(32) . . .
40.7(33) . . .
37.5(33) . . .
27.5(27) . . .
39.2(34) . . .
42.0(34) . . .
32.6(31) . . .
39(4) . . .
39.9(34) . . .
40.9(34) . . .
36.5(32) . . .
47(4) . . .
41.1(35) . . .
37.2(34) . . .
36.7(32) . . .
32.1(29) . . .
43.2(35) . . .
42.6(34) . . .
36.7(32) . . .
33.9(31) . . .
43(4) . . .
33.2(33) . . .
36.4(32) . . .
35.9(32) . . .
34.2(32) . . .
43.2(34) . . .
39.8(33) . . .
34.5(34) . . .
29.6(29) . . .
34.5(30) . . .
37.6(33) . . .
37.4(33) . . .
35.8(34) . . .
35.5(32) . . .
36.2(32) . . .
39.7(34) . . .
36.0(33) . . .
29.2(29) . . .
41.4(34) . . .
40.9(33) . . .
38.1(34) . . .
42(4) . . .
32.2(30) . . .
27.5(27) . . .
33.3(30) . . .
29.2(28) . . .
38.9(34) . . .
36.6(32) . . .
38.0(32) . . .
34.4(30) . . .
34.0(32) . . .
33.2(31) . . .
36.0(33) . . .
35.0(30) . . .
42.4(35) . . .
22.9(25) . . .
30.8(31) . . .
35.1(33) . . .
34.3(31) . . .
29.5(28) . . .
38(4) . . .
31.3(29) . . .
37.2(34) . . .
38.9(33) . . .
33.4(30) . . .
39.1(33) . . .
39.8(34) . . .
34.5(32) . . .
33.5(30) . . .
32.9(30) . . .
31.7(32) . . .
32.0(34) . . .
32.5(32) . . .
35.9(31) . . .
27.3(28) . . .
33.5(32) . . .
33.1(31) . . .
37.5(33) . . .
30.5(29) . . .
31.8(31) . . .
34.2(32) . . .
24.4(27) . . .
40(4) . . .
33.8(30) . . .
38.0(32) . . .
43.0(34) . . .
46(4) . . .
29.8(30) . . .
38.8(32) . . .
41.9(34) . . .
41(4) . . .
35.5(32) . . .
45(4) . . .
38.7(33) . . .
39.1(32) . . .
34.7(30) . . .
36.0(32) . . .
34.5(31) . . .
32.6(30) . . .
33.3(31) . . .
47(4) . . .
36.7(33) . . .
29.2(28) . . .
33.6(32) . . .
40.3(35) . . .
36.5(34) . . .
30.4(30) . . .
31.4(30) . . .
34.0(31) . . .
33.8(33) . . .
37.3(35) . . .
37.9(34) . . .
30.3(29) . . .
37.0(32) . . .
34.1(31) . . .
44(4) . . .
40.4(33) . . .
31.9(29) . . .
34.5(31) . . .
35.2(31) . . .
34.6(31) . . .
48(4) . . .
31.3(29) . . .
26.3(27) . . .
49(4) . . .
38.2(35) . . .
42(4) . . .
30.5(29) . . .
29.9(29) . . .
38.2(35) . . .
43(4) . . .
35.5(32) . . .
38.0(33) . . .
38.2(33) . . .
34.6(32) . . .
43(4) . . .
38.2(34) . . .
41.0(34) . . .
47(4) . . .
32.4(30) . . .
38.8(33) . . .
34.5(32) . . .
33.9(31) . . .
44(4) . . .
31.5(29) . . .
39.0(34) . . .
33.9(32) . . .
30.6(29) . . .
39.0(33) . . .
42.3(35) . . .
42(4) . . .
42.0(35) . . .
38.8(32) . . .
43(4) . . .
39.1(35) . . .
50(4) . . .
43.6(34) . . .
40.4(34) . . .
26.8(28) . . .
38(4) . . .
43.7(35) . . .
35.7(31) . . .
38.1(32) . . .
27.8(28) . . .
36.4(34) . . .
34.1(31) . . .
36.1(32) . . .
37.1(32) . . .
29.4(29) . . .
29.3(29) . . .
37.8(34) . . .
33.7(30) . . .
36.6(31) . . .
40.9(35) . . .
33.8(32) . . .
37.1(32) . . .
36.7(32) . . .
37.1(31) . . .
34.1(31) . . .
31.9(30) . . .
40.1(34) . . .
39.3(32) . . .
30.5(29) . . .
30.9(30) . . .
31.0(32) . . .
38(4) . . .
31.9(29) . . .
40.0(34) . . .
40(4) . . .
33.3(31) . . .
29.5(28) . . .
31.8(30) . . .
36.2(32) . . .
37.5(34) . . .
32.8(33) . . .
31.3(30) . . .
35.6(31) . . .
31.2(30) . . .
31.8(29) . . .
43.1(35) . . .
37.4(33) . . .
40.4(33) . . .
45(4) . . .
30.1(29) . . .
32.2(30) . . .
35.9(32) . . .
34.7(31) . . .
35.2(33) . . .
39(4) . . .
32.3(30) . . .
39.6(34) . . .
42.2(33) . . .
43(4) . . .
41(4) . . .
34.0(32) . . .
37.3(32) . . .
26.6(27) . . .
27.4(29) . . .
34.4(34) . . .
37.5(34) . . .
38.3(33) . . .
37.5(33) . . .
33.6(30) . . .
33.6(31) . . .
36.5(32) . . .
36.4(31) . . .
36.3(31) . . .
41.2(35) . . .
36.5(34) . . .
43(4) . . .
38.2(33) . . .
24.6(26) . . .
32.4(31) . . .
47(4) . . .
40.0(33) . . .
33.9(31) . . .
40.9(34) . . .
26.9(26) . . .
30.1(29) . . .
41.9(35) . . .
35.2(31) . . .
29.4(28) . . .
28.1(29) . . .
28.4(31) . . .
36.8(34) . . .
26.5(27) . . .
32.0(31) . . .
53(4) . . .
35.3(33) . . .
35.4(32) . . .
37.9(32) . . .
38.2(33) . . .
41.9(34) . . .
37.5(35) . . .
36.1(33) . . .
34.3(30) . . .
34.9(31) . . .
36.3(32) . . .
36.1(32) . . .
36.0(33) . . .
29.6(28) . . .
39.5(33) . . .
37.5(32) . . .
36.6(32) . . .
35.1(32) . . .
32.0(29) . . .
43(4) . . .
33.3(31) . . .
36.5(33) . . .
25.0(26) . . .
33.9(30) . . .
33.6(30) . . .
42(4) . . .
41.2(34) . . .
33.5(30) . . .
40.3(33) . . .
38.3(34) . . .
29.1(30) . . .
32.2(30) . . .
32.7(29) . . .
33.5(30) . . .
37.6(33) . . .
32.3(31) . . .
43(4) . . .
33.9(31) . . .
39.7(32) . . .
34.9(32) . . .
35.0(32) . . .
34.5(31) . . .
39.6(33) . . .
45(4) . . .
41.4(35) . . .
41(4) . . .
45(4) . . .
38.0(32) . . .
38.9(33) . . .
38.3(35) . . .
32.9(32) . . .
34.5(31) . . .
31.6(29) . . .
35.2(33) . . .
28.1(31) . . .
37.0(34) . . .
41.4(35) . . .
37.9(32) . . .
37.0(33) . . .
38(4) . . .
45(4) . . .
40.4(34) . . .
35.5(31) . . .
39.6(35) . . .
39.1(34) . . .
35.8(31) . . .
41.0(35) . . .
27.4(28) . . .
30.5(29) . . .
32.5(31) . . .
37.9(33) . . .
31.4(29) . . .
42.9(34) . . .
35.3(32) . . .
36.5(35) . . .
41(4) . . .
35.4(31) . . .
34.8(31) . . .
31.1(30) . . .
30.2(32) . . .
34.0(32) . . .
37.8(32) . . .
33.9(30) . . .
35.2(32) . . .
32.6(33) . . .
29.9(29) . . .
43.3(35) . . .
32.3(30) . . .
36.8(32) . . .
41.3(35) . . .
36.1(31) . . .
36.3(31) . . .
33.4(32) . . .
35.9(33) . . .
31.9(31) . . .
40(4) . . .
36.0(32) . . .
36.9(32) . . .
37.8(33) . . .
48(4) . . .
38.3(33) . . .
39.3(33) . . .
41.5(34) . . .
40.2(32) . . .
37.1(32) . . .
36.5(35) . . .
37.5(32) . . .
29.2(29) . . .
41(4) . . .
33.1(30) . . .
37.3(33) . . .
36.7(32) . . .
23.0(26) . . .
31.7(30) . . .
42.5(35) . . .
37.1(33) . . .
40.8(33) . . .
33.0(32) . . .
33.8(33) . . .
27.4(28) . . .
44(4) . . .
32.7(30) . . .
35.1(32) . . .
36.2(35) . . .
39.2(34) . . .
36.8(32) . . .
36.6(32) . . .
35.3(33) . . .
38.9(33) . . .
39.9(33) . . .
42.0(33) . . .
33.1(30) . . .
30.2(29) . . .
42(4) . . .
35(4) . . .
29.8(27) . . .
39(4) . . .
36.3(32) . . .
27.9(29) . . .
43(4) . . .
35.8(31) . . .
30.3(29) . . .
35.0(31) . . .
35.7(33) . . .
32.9(32) . . .
32.5(30) . . .
38.2(33) . . .
34.1(31) . . .
39(4) . . .
34.0(33) . . .
38.1(33) . . .
28.9(29) . . .
36.4(33) . . .
34.6(31) . . .
37.6(33) . . .
36.3(31) . . .
34.1(31) . . .
28.4(29) . . .
31.5(31) . . .
32.5(32) . . .
38.4(33) . . .
38.9(32) . . .
43(4) . . .
34.3(31) . . .
35.4(32) . . .
42.1(34) . . .
37.0(32) . . .
31.2(30) . . .
34.4(31) . . .
31.6(30) . . .
38.0(32) . . .
33.8(31) . . .
39.3(34) . . .
27.9(28) . . .
38.7(33) . . .
27.1(28) . . .
36.8(32) . . .
41(4) . . .
31.3(29) . . .
42.9(34) . . .
38.1(32) . . .
33.7(30) . . .
34.6(33) . . .
26.7(27) . . .
32.0(29) . . .
41.5(34) . . .
33.0(31) . . .
35.0(33) . . .
35.6(33) . . .
31.6(30) . . .
35.9(32) . . .
38.2(34) . . .
34.2(33) . . .
39.6(34) . . .
32.1(30) . . .
45(4) . . .
31.6(29) . . .
41(4) . . .
40.1(34) . . .
39.1(33) . . .
38.0(33) . . .
32.8(31) . . .
29.4(30) . . .
34.1(33) . . .
40.6(33) . . .
46(4) . . .
37.5(33) . . .
44(4) . . .
38.0(34) . . .
41.0(34) . . .
38.0(32) . . .
35.7(35) . . .
28.2(30) . . .
35.0(32) . . .
33.7(30) . . .
35.8(32) . . .
34.1(33) . . .
43(4) . . .
43.4(35) . . .
38.8(32) . . .
30.4(31) . . .
33.9(33) . . .
32.1(31) . . .
34.0(31) . . .
48(4) . . .
36.0(31) . . .
35.4(33) . . .
26.0(28) . . .
36.0(32) . . .
43.8(35) . . .
33.5(31) . . .
30.0(31) . . .
34.6(30) . . .
43.7(35) . . .
42.4(34) . . .
32.1(30) . . .
30.2(30) . . .
29.6(31) . . .
27.6(28) . . .
32.6(30) . . .
34.1(33) . . .
33.7(31) . . .
33.7(34) . . .
36.5(31) . . .
38.3(33) . . .
33.9(33) . . .
30.2(29) . . .
35.4(31) . . .
25.0(26) . . .
34.7(32) . . .
29.3(30) . . .
29.2(30) . . .
32.0(30) . . .
31.4(30) . . .
42.7(34) . . .
38.3(31) . . .
38.8(34) . . .
38.4(34) . . .
40.7(34) . . .
37.5(32) . . .
39(4) . . .
39.0(33) . . .
36.6(33) . . .
31.7(29) . . .
28.6(29) . . .
34.2(30) . . .
34.8(30) . . .
29.0(28) . . .
37.7(32) . . .
32.8(31) . . .
32.5(32) . . .
33.9(31) . . .
36.9(32) . . .
45.0(35) . . .
35.7(33) . . .
26.3(29) . . .
27.5(32) . . .
38.5(33) . . .
37.1(32) . . .
33.7(32) . . .
35.3(35) . . .
31.3(30) . . .
29.8(29) . . .
38.0(32) . . .
31.6(31) . . .
45(4) . . .
40.3(33) . . .
33.0(30) . . .
35.6(32) . . .
31.8(29) . . .
37.7(33) . . .
40.5(33) . . .
34.6(31) . . .
31.7(29) . . .
32.1(31) . . .
34.5(32) . . .
29.5(30) . . .
38.0(32) . . .
45(4) . . .
41(4) . . .
29.9(31) . . .
29.7(30) . . .
37.9(33) . . .
39.7(33) . . .
35.6(34) . . .
37.0(33) . . .
34.3(30) . . .
43.5(34) . . .
34.5(31) . . .
41(4) . . .
32.5(30) . . .
31.2(29) . . .
32.0(30) . . .
32.8(31) . . .
35.7(34) . . .
37.8(34) . . .
38.2(32) . . .
32.0(30) . . .
30.6(30) . . .
41(4) . . .
37.9(34) . . .
35.8(31) . . .
37.1(32) . . .
31.4(30) . . .
33.5(32) . . .
34.6(32) . . .
30.3(29) . . .
36.5(33) . . .
42.0(35) . . .
38.6(34) . . .
35.2(31) . . .
34.3(31) . . .
46(4) . . .
31.9(31) . . .
26.5(29) . . .
30.8(29) . . .
38.7(33) . . .
42.4(33) . . .
30.4(29) . . .
28.3(30) . . .
33.5(31) . . .
43.2(35) . . .
43(4) . . .
34.8(31) . . .
30.6(30) . . .
33.2(32) . . .
42.6(35) . . .
35.7(32) . . .
27.3(27) . . .
28.3(29) . . .
32.3(30) . . .
37.6(32) . . .
44(4) . . .
49(4) . . .
36.1(34) . . .
41(4) . . .
36.4(32) . . .
35.5(32) . . .
38.7(34) . . .
38.4(34) . . .
37.5(33) . . .
37.8(32) . . .
36.0(32) . . .
33.0(32) . . .
40.0(35) . . .
36.6(32) . . .
32.9(31) . . .
31.7(32) . . .
33.2(35) . . .
29.2(29) . . .
36.1(33) . . .
41.2(33) . . .
36.0(32) . . .
36(4) . . .
32.1(32) . . .
36.7(31) . . .
26.3(27) . . .
39.5(34) . . .
33.9(32) . . .
34.8(33) . . .
44(4) . . .
35.7(30) . . .
35.2(33) . . .
35.0(33) . . .
37.3(34) . . .
38.4(33) . . .
39.3(32) . . .
42(4) . . .
36.7(34) . . .
38(4) . . .
33.3(32) . . .
31.1(29) . . .
35.0(31) . . .
34.6(32) . . .
39.0(34) . . .
36.8(32) . . .
33.4(31) . . .
45(4) . . .
37.7(33) . . .
37.7(33) . . .
34.6(31) . . .
36.7(31) . . .
37.4(35) . . .
39.1(34) . . .
36.7(31) . . .
40.8(33) . . .
34.9(31) . . .
34.2(31) . . .
40(4) . . .
30.0(30) . . .
33.2(31) . . .
31.3(30) . . .
33.1(31) . . .
33.0(31) . . .
33.1(30) . . .
33.4(30) . . .
29.7(29) . . .
28.3(28) . . .
37.0(34) . . .
34.3(31) . . .
37.2(31) . . .
41.0(35) . . .
32.0(31) . . .
26.4(26) . . .
34.5(31) . . .
39.5(33) . . .
36.3(32) . . .
34.4(33) . . .
26.2(26) . . .
33.5(30) . . .
31.7(29) . . .
29.3(30) . . .
35.0(33) . . .
33.5(31) . . .
35.9(32) . . .
32.9(30) . . .
34.7(32) . . .
33.7(33) . . .
29.8(30) . . .
40.5(34) . . .
39.3(33) . . .
38.0(34) . . .
34.9(32) . . .
33.4(31) . . .
34.4(30) . . .
36.3(33) . . .
33.6(31) . . .
35.7(32) . . .
27.5(28) . . .
32.3(29) . . .
32.3(30) . . .
31.0(30) . . .
28.8(28) . . .
34.1(31) . . .
31.4(29) . . .
34.4(32) . . .
32.2(31) . . .
36.0(33) . . .
36.5(32) . . .
36.5(31) . . .
32.9(31) . . .
39(4) . . .
31.3(29) . . .
35.5(32) . . .
41.9(34) . . .
41(4) . . .
41(4) . . .
37.3(34) . . .
25.2(27) . . .
29.8(29) . . .
35.8(33) . . .
37(4) . . .
39.6(35) . . .
34.5(31) . . .
34.9(31) . . .
33.0(31) . . .
40(4) . . .
36.2(34) . . .
37.5(33) . . .
30.8(29) . . .
31.2(30) . . .
40(4) . . .
38.3(33) . . .
32.8(30) . . .
33.9(32) . . .
28.8(29) . . .
29.5(31) . . .
39.4(34) . . .
37.3(32) . . .
38.0(33) . . .
32.3(30) . . .
35.6(33) . . .
38.0(33) . . .
29.4(28) . . .
32.5(29) . . .
33.2(31) . . .
31.3(33) . . .
33.2(32) . . .
37.3(32) . . .
43(4) . . .
28.6(29) . . .
30.2(30) . . .
27.1(29) . . .
35.8(32) . . .
32.3(30) . . .
33.1(30) . . .
35.5(33) . . .
34.8(31) . . .
41.4(34) . . .
30.5(29) . . .
40(4) . . .
45(4) . . .
32.4(31) . . .
25.2(26) . . .
33.9(30) . . .
40.0(35) . . .
29.3(28) . . .
41.7(33) . . .
35.3(31) . . .
29.0(28) . . .
31.1(32) . . .
41.2(34) . . .
48(4) . . .
38.1(32) . . .
37.9(33) . . .
33.4(33) . . .
33.3(31) . . .
30.0(29) . . .
34.4(30) . . .
41(4) . . .
37.8(35) . . .
31.3(31) . . .
27.7(28) . . .
24.2(26) . . .
27.1(27) . . .
31.0(32) . . .
35.6(32) . . .
44.5(35) . . .
36.5(32) . . .
33.6(30) . . .
40(4) . . .
40(4) . . .
35.4(31) . . .
29.3(28) . . .
26.1(31) . . .
31.8(32) . . .
39.0(33) . . .
34.5(31) . . .
35.4(31) . . .
32.6(30) . . .
37.5(33) . . .
37.2(31) . . .
38.0(33) . . .
34.0(32) . . .
36.8(34) . . .
31.5(30) . . .
31.1(29) . . .
36.6(32) . . .
31.3(33) . . .
26.9(28) . . .
36.5(32) . . .
36.9(34) . . .
28.0(27) . . .
36.4(33) . . .
39(4) . . .
31.6(29) . . .
38.9(33) . . .
40.6(34) . . .
44(4) . . .
31.0(31) . . .
30.8(29) . . .
35.8(32) . . .
36.4(31) . . .
34.0(30) . . .
28.6(30) . . .
25.8(26) . . .
39.3(33) . . .
35.3(31) . . .
48(4) . . .
44(4) . . .
43.1(35) . . .
33.8(31) . . .
30.6(29) . . .
35.5(32) . . .
33.4(31) . . .
42(4) . . .
32.6(30) . . .
30.1(29) . . .
39.4(35) . . .
29.4(28) . . .
28.8(28) . . .
36.1(31) . . .
36.4(33) . . .
37.8(33) . . .
38(4) . . .
35.1(31) . . .
38.0(33) . . .
41.0(35) . . .
36.3(32) . . .
41.8(35) . . .
36.4(31) . . .
28.6(28) . . .
29.4(29) . . .
32.8(34) . . .
30.3(31) . . .
34.6(32) . . .
39.5(33) . . .
34.5(32) . . .
40.6(34) . . .
38.3(33) . . .
35.5(32) . . .
36.5(32) . . .
33.9(31) . . .
35.3(31) . . .
35.8(31) . . .
28.1(29) . . .
28.1(28) . . .
28.1(27) . . .
41(4) . . .
32.0(31) . . .
36.1(32) . . .
34.2(30) . . .
28.9(28) . . .
30.6(32) . . .
29.6(31) . . .
31.2(33) . . .
33.8(31) . . .
38.3(34) . . .
37.7(33) . . .
34.4(31) . . .
42.6(34) . . .
38.0(33) . . .
41.1(35) . . .
44(4) . . .
37.5(34) . . .
41.3(34) . . .
32.9(30) . . .
37.8(32) . . .
41(4) . . .
31.6(29) . . .
41.1(34) . . .
36.8(31) . . .
33.4(30) . . .
31.8(31) . . .
31.4(32) . . .
29.0(29) . . .
34.0(31) . . .
43(4) . . .
37.6(34) . . .
36.8(33) . . .
31.0(30) . . .
33.9(30) . . .
40.5(35) . . .
37.5(33) . . .
37.1(32) . . .
39.6(32) . . .
38.6(34) . . .
39.5(34) . . .
32.2(29) . . .
35.9(32) . . .
40.3(33) . . .
35.6(32) . . .
38.7(32) . . .
31.5(30) . . .
37.2(33) . . .
31.2(29) . . .
33.8(31) . . .
33.2(31) . . .
32.8(31) . . .
39(4) . . .
39.7(33) . . .
35.5(33) . . .
29.8(30) . . .
39.7(35) . . .
32.8(30) . . .
35.7(31) . . .
35.5(31) . . .
42.0(35) . . .
34.2(30) . . .
34.2(32) . . .
35.0(30) . . .
31.1(31) . . .
23.1(28) . . .
40.1(35) . . .
35.0(31) . . .
31.5(29) . . .
42(4) . . .
35.8(33) . . .
35.3(34) . . .
32.3(30) . . .
33.0(31) . . .
32.8(31) . . .
38.0(34) . . .
33.0(32) . . .
39.6(32) . . .
47(4) . . .
39.2(33) . . .
34.2(30) . . .
38.0(34) . . .
36.8(32) . . .
31.1(30) . . .
32.9(30) . . .
38.0(35) . . .
37.8(33) . . .
31.1(30) . . .
33.8(31) . . .
40.0(33) . . .
27.6(26) . . .
28.1(28) . . .
39.0(33) . . .
34.5(30) . . .
38.5(34) . . .
31.0(30) . . .
36.0(32) . . .
33.1(31) . . .
29.2(29) . . .
32.9(33) . . .
31.9(30) . . .
32.7(32) . . .
42.3(34) . . .
29.7(29) . . .
23.5(26) . . .
33.1(33) . . .
33.0(31) . . .
28.6(28) . . .
30.1(29) . . .
42(4) . . .
38.4(34) . . .
34.0(30) . . .
40.7(34) . . .
38.8(33) . . .
33.9(33) . . .
28.7(29) . . .
29.4(29) . . .
33.1(31) . . .
35.6(34) . . .
26.4(27) . . .
38.9(35) . . .
31.8(29) . . .
31.1(29) . . .
40(4) . . .
27.7(28) . . .
30.9(30) . . .
37.9(32) . . .
32.3(30) . . .
28.9(29) . . .
34.1(31) . . .
38.1(33) . . .
47(4) . . .
43(4) . . .
40(4) . . .
32.0(31) . . .
39(4) . . .
40.7(33) . . .
44(4) . . .
39.5(34) . . .
34.8(32) . . .
36.2(33) . . .
40.5(33) . . .
36.9(33) . . .
41(4) . . .
34.8(32) . . .
27.0(27) . . .
33.1(30) . . .
34.1(32) . . .
38.2(34) . . .
36.3(32) . . .
36.4(31) . . .
26.0(27) . . .
33.3(32) . . .
35.1(32) . . .
32.8(30) . . .
32.6(30) . . .
30.1(29) . . .
38.7(34) . . .
34.5(31) . . .
31.8(31) . . .
29.6(29) . . .
29.8(29) . . .
39.4(34) . . .
37.9(35) . . .
32.8(31) . . .
37.8(33) . . .
33.3(30) . . .
35.8(32) . . .
36.0(33) . . .
34.9(32) . . .
29.0(29) . . .
33.3(30) . . .
37.0(32) . . .
41(4) . . .
35.7(33) . . .
34.8(31) . . .
28.0(28) . . .
35.8(32) . . .
32.8(31) . . .
36.3(31) . . .
33.6(31) . . .
40.0(33) . . .
35.4(34) . . .
28.3(28) . . .
28.1(28) . . .
30.4(30) . . .
29.5(29) . . .
37.4(34) . . .
34.3(33) . . .
29.4(29) . . .
34.4(31) . . .
33.4(33) . . .
36.9(35) . . .
33.8(33) . . .
36.8(33) . . .
32.9(30) . . .
37.1(33) . . .
37.1(33) . . .
32.8(32) . . .
37.6(33) . . .
31.3(29) . . .
43.5(35) . . .
37(4) . . .
36.6(32) . . .
30.6(29) . . .
32.6(31) . . .
31.6(30) . . .
36.2(34) . . .
42(4) . . .
34.7(31) . . .
30.2(29) . . .
25.0(27) . . .
36.4(35) . . .
35.7(32) . . .
36.9(32) . . .
45.7(35) . . .
35.4(31) . . .
29.6(28) . . .
38.6(33) . . .
32.9(30) . . .
31.9(30) . . .
38.0(34) . . .
32.9(31) . . .
40.9(34) . . .
37.9(33) . . .
38.7(32) . . .
42(4) . . .
34.0(31) . . .
23.3(25) . . .
35.7(32) . . .
31.4(30) . . .
35.2(33) . . .
33.0(31) . . .
25.4(28) . . .
30.8(30) . . .
36.9(31) . . .
39(4) . . .
34.6(33) . . .
35.7(32) . . .
34.0(31) . . .
30.2(30) . . .
41(4) . . .
33.8(31) . . .
32.6(30) . . .
31.1(29) . . .
28.3(28) . . .
36.9(34) . . .
34.1(32) . . .
40.8(34) . . .
35.6(31) . . .
38.8(34) . . .
30.9(29) . . .
30.2(30) . . .
38.8(33) . . .
27.0(27) . . .
28.6(29) . . .
33.5(31) . . .
35.0(34) . . .
33.8(31) . . .
32.2(30) . . .
34.9(31) . . .
40(4) . . .
35.8(33) . . .
39.6(32) . . .
36.6(32) . . .
40.6(35) . . .
28.6(29) . . .
31.0(30) . . .
34.3(32) . . .
32.0(30) . . .
37.9(34) . . .
30.7(30) . . .
37.2(33) . . .
35.2(31) . . .
33.2(30) . . .
30.6(29) . . .
37.1(34) . . .
31.6(31) . . .
29.0(27) . . .
30.5(29) . . .
35.8(33) . . .
37(4) . . .
32.6(30) . . .
34.5(30) . . .
38.6(33) . . .
36.3(33) . . .
30.9(31) . . .
37.7(32) . . .
40.4(33) . . .
36.5(33) . . .
32.8(31) . . .
35.4(33) . . .
39.6(35) . . .
36.0(32) . . .
34.7(34) . . .
31.0(31) . . .
38.7(35) . . .
45(4) . . .
38.2(32) . . .
32.6(32) . . .
34.5(32) . . .
39.5(34) . . .
34.8(31) . . .
40.5(33) . . .
32.9(31) . . .
30.5(31) . . .
36.4(33) . . .
23.8(25) . . .
30.9(29) . . .
36.8(32) . . .
37(4) . . .
33.0(31) . . .
35.0(31) . . .
34.0(31) . . .
39.0(33) . . .
35.6(33) . . .
33.4(31) . . .
33.6(30) . . .
35.4(31) . . .
35.3(32) . . .
28.8(27) . . .
40.0(34) . . .
27.8(28) . . .
38.1(32) . . .
33.5(30) . . .
33.6(33) . . .
29.3(29) . . .
42.5(34) . . .
39.9(34) . . .
37.9(34) . . .
31.4(30) . . .
38.4(33) . . .
33.9(31) . . .
39.0(33) . . .
33.7(31) . . .
41(4) . . .
32.8(29) . . .
38.4(32) . . .
36.3(32) . . .
33.4(31) . . .
30.5(29) . . .
36.2(31) . . .
30.0(29) . . .
34.6(32) . . .
34.6(32) . . .
30.4(31) . . .
36.8(32) . . .
35.5(31) . . .
38.3(32) . . .
36.1(32) . . .
40.2(34) . . .
34.9(30) . . .
40.5(34) . . .
36.0(31) . . .
31.0(30) . . .
29.7(32) . . .
37.7(32) . . .
38.0(32) . . .
35.3(32) . . .
39.6(34) . . .
33.2(30) . . .
34.1(31) . . .
37.0(32) . . .
34.6(32) . . .
33.2(34) . . .
31.4(31) . . .
35.9(32) . . .
38.0(32) . . .
38.5(34) . . .
33.5(33) . . .
34.9(32) . . .
33.3(30) . . .
38.0(32) . . .
43(4) . . .
41(4) . . .
36.0(34) . . .
34.2(31) . . .
31.7(30) . . .
28.0(29) . . .
38.4(35) . . .
33.2(31) . . .
35.8(31) . . .
36.5(32) . . .
34.8(33) . . .
35.3(32) . . .
28.4(28) . . .
40.2(34) . . .
26.9(27) . . .
40(4) . . .
40.7(35) . . .
46(4) . . .
35.0(31) . . .
33.3(31) . . .
38.8(35) . . .
29.4(28) . . .
42(4) . . .
37.9(32) . . .
35.4(32) . . .
33.3(32) . . .
33.0(30) . . .
33.3(31) . . .
31.6(30) . . .
33.4(32) . . .
36.7(33) . . .
36.5(34) . . .
47(4) . . .
26.6(28) . . .
35.8(32) . . .
37.3(35) . . .
34.7(34) . . .
34.8(33) . . .
36.3(31) . . .
32.2(30) . . .
38(4) . . .
46(4) . . .
45(4) . . .
39.7(33) . . .
34.4(31) . . .
28.5(29) . . .
32.0(30) . . .
35.2(30) . . .
34.7(31) . . .
33.2(31) . . .
33.8(34) . . .
33.2(31) . . .
35.7(32) . . .
29.4(29) . . .
33.2(31) . . .
44(4) . . .
46(4) . . .
34.9(31) . . .
38.1(35) . . .
35.1(34) . . .
36.5(35) . . .
34.9(31) . . .
28.1(28) . . .
38.2(33) . . .
36.5(34) . . .
28.1(29) . . .
32.1(30) . . .
33.4(30) . . .
32.6(31) . . .
34(4) . . .
36.9(34) . . .
33.8(31) . . .
36.6(32) . . .
24.8(28) . . .
36.6(34) . . .
32.8(31) . . .
40.7(34) . . .
32.2(30) . . .
33.5(31) . . .
30.0(31) . . .
36.3(33) . . .
37.8(33) . . .
36.1(32) . . .
27.3(29) . . .
29.8(34) . . .
37.9(35) . . .
40.3(33) . . .
33.7(31) . . .
32.2(31) . . .
43(4) . . .
45(4) . . .
38.1(32) . . .
36.4(32) . . .
36.8(33) . . .
33.6(32) . . .
26.6(26) . . .
37.0(32) . . .
35.7(32) . . .
25.3(28) . . .
43(4) . . .
30.6(29) . . .
33.9(32) . . .
32.2(29) . . .
31.6(30) . . .
38.0(33) . . .
36.3(32) . . .
38.9(32) . . .
29.8(29) . . .
31.2(32) . . .
33.7(33) . . .
33.7(30) . . .
36.8(32) . . .
29.9(29) . . .
34.0(32) . . .
39(4) . . .
30.6(29) . . .
32.3(29) . . .
33.3(31) . . .
46(4) . . .
34.6(32) . . .
27.5(29) . . .
29.3(28) . . .
26.8(27) . . .
36.7(33) . . .
38.0(34) . . .
33.0(31) . . .
36.6(32) . . .
37.5(33) . . .
27.4(28) . . .
30.3(30) . . .
28.6(28) . . .
35.3(31) . . .
38.5(34) . . .
38(4) . . .
33.1(31) . . .
33.3(30) . . .
31.6(29) . . .
34.3(33) . . .
30.6(31) . . .
30.7(32) . . .
40.4(33) . . .
33.5(30) . . .
28.7(29) . . .
29.7(29) . . .
34.2(31) . . .
34.9(32) . . .
41.8(34) . . .
28.4(29) . . .
38(4) . . .
36.9(32) . . .
37.7(33) . . .
29.8(29) . . .
29.6(29) . . .
32.3(31) . . .
28.7(28) . . .
35.0(31) . . .
33.0(30) . . .
31.7(31) . . .
27.9(28) . . .
39.9(34) . . .
31.5(30) . . .
37.6(32) . . .
31.4(31) . . .
43(4) . . .
41.3(34) . . .
30.0(29) . . .
28.0(28) . . .
33.9(31) . . .
31.0(29) . . .
38.2(33) . . .
42.6(34) . . .
37.5(32) . . .
32.5(30) . . .
35.2(34) . . .
33.0(30) . . .
32.1(29) . . .
34.5(35) . . .
29.0(32) . . .
27.2(28) . . .
35.6(32) . . .
25.9(26) . . .
35.2(32) . . .
41(4) . . .
36.1(34) . . .
31.1(31) . . .
34.7(31) . . .
39.4(33) . . .
32.2(33) . . .
40(4) . . .
36.8(32) . . .
45.2(35) . . .
35.5(32) . . .
37.8(34) . . .
34.4(32) . . .
26.2(26) . . .
32.5(30) . . .
33.3(30) . . .
40(4) . . .
37.7(33) . . .
38.1(32) . . .
36.8(31) . . .
37.0(32) . . .
30.4(31) . . .
35.4(33) . . .
39.5(33) . . .
32.1(31) . . .
37.9(33) . . .
30.4(30) . . .
27.6(28) . . .
31.9(30) . . .
35.0(30) . . .
36.9(35) . . .
23.5(28) . . .
32.6(32) . . .
36.5(32) . . .
37.9(32) . . .
28.5(30) . . .
32.0(31) . . .
37.5(33) . . .
33.4(30) . . .
31.4(30) . . .
37.5(33) . . .
38.1(34) . . .
31.0(30) . . .
24.8(26) . . .
29.3(31) . . .
33.2(32) . . .
32.6(30) . . .
33.1(32) . . .
29.9(29) . . .
41.5(34) . . .
36.9(31) . . .
45(4) . . .
31.8(29) . . .
34.6(31) . . .
33.6(32) . . .
44(4) . . .
37.0(32) . . .
44(4) . . .
34.7(31) . . .
36.3(30) . . .
51(4) . . .
35.1(31) . . .
37.2(31) . . .
31.6(29) . . .
32.5(31) . . .
40(4) . . .
38.0(34) . . .
31.2(30) . . .
35.9(31) . . .
42(4) . . .
35.6(33) . . .
28.7(28) . . .
30.2(29) . . .
25.7(26) . . .
30.8(29) . . .
39.8(34) . . .
39.9(33) . . .
31.4(29) . . .
30.1(29) . . .
33.0(32) . . .
30.0(30) . . .
34.0(31) . . .
34.7(31) . . .
38.5(32) . . .
31.0(28) . . .
34.0(31) . . .
34.7(31) . . .
33.3(31) . . .
31.9(31) . . .
35.1(33) . . .
30.1(30) . . .
39.6(34) . . .
34.3(31) . . .
35.3(31) . . .
35.4(31) . . .
27.9(27) . . .
40.1(35) . . .
32.3(30) . . .
35.0(33) . . .
35.3(30) . . .
42.2(34) . . .
34.0(31) . . .
29.3(28) . . .
33.9(33) . . .
29.2(30) . . .
36.3(33) . . .
30.2(30) . . .
30.4(29) . . .
31.0(30) . . .
29.1(30) . . .
31.1(32) . . .
33.3(30) . . .
35.5(32) . . .
36.1(33) . . .
42(4) . . .
33.8(30) . . .
31.1(30) . . .
27.1(28) . . .
31.3(30) . . .
33.1(31) . . .
41(4) . . .
32.2(30) . . .
35.5(32) . . .
32.1(30) . . .
31.7(30) . . .
34.1(31) . . .
31.0(29) . . .
29.7(28) . . .
29.7(28) . . .
33.3(32) . . .
42(4) . . .
27.7(28) . . .
32.1(29) . . .
30.3(29) . . .
34.3(31) . . .
32.9(29) . . .
46(4) . . .
33.8(31) . . .
44(4) . . .
45(4) . . .
50(4) . . .
38.4(32) . . .
42.3(35) . . .
37.5(33) . . .
26.1(27) . . .
37.2(33) . . .
39.6(33) . . .
26.9(28) . . .
36.2(34) . . .
41.9(35) . . .
37.1(32) . . .
36.8(31) . . .
42.7(35) . . .
43(4) . . .
42.1(34) . . .
25.4(26) . . .
31.5(29) . . .
36.8(33) . . .
34.2(33) . . .
26.9(27) . . .
35.4(31) . . .
41.2(33) . . .
34.0(31) . . .
36.4(32) . . .
34.0(33) . . .
31.0(29) . . .
37.1(32) . . .
34.8(32) . . .
25.7(27) . . .
34.4(32) . . .
37.5(32) . . .
45(4) . . .
32.4(32) . . .
32.3(31) . . .
32.9(30) . . .
43.4(35) . . .
31.9(30) . . .
40.1(34) . . .
39.7(35) . . .
27.8(27) . . .
30.3(29) . . .
28.2(28) . . .
27.0(27) . . .
38(4) . . .
19.7(24) . . .
37.1(32) . . .
36.2(33) . . .
36.4(34) . . .
40(4) . . .
28.6(29) . . .
33.7(30) . . .
35.0(32) . . .
38.3(32) . . .
40.9(34) . . .
45(4) . . .
35.9(31) . . .
29.4(31) . . .
32.7(32) . . .
36.5(31) . . .
34.8(30) . . .
34.6(31) . . .
34.7(33) . . .
28.3(28) . . .
34.9(32) . . .
31.4(29) . . .
29.3(28) . . .
39.0(34) . . .
37.0(35) . . .
30.8(29) . . .
32.7(30) . . .
35.8(32) . . .
40.1(35) . . .
30.2(29) . . .
29.3(29) . . .
36.5(31) . . .
34.1(30) . . .
36.5(33) . . .
43(4) . . .
39.2(33) . . .
30.5(29) . . .
34.0(30) . . .
29.9(28) . . .
32.2(32) . . .
31.7(31) . . .
33.6(30) . . .
37.8(33) . . .
43(4) . . .
32.5(32) . . .
34.6(32) . . .
39.3(33) . . .
30.9(30) . . .
27.6(28) . . .
35.5(34) . . .
40(4) . . .
31.3(29) . . .
34.7(32) . . .
30.0(29) . . .
41.9(35) . . .
34.9(30) . . .
42.4(34) . . .
35.1(31) . . .
44(4) . . .
34.3(32) . . .
40(4) . . .
30.1(29) . . .
37.0(33) . . .
34.6(31) . . .
35.3(32) . . .
30.4(29) . . .
39.4(33) . . .
21.8(24) . . .
39(4) . . .
31.1(30) . . .
34.6(30) . . .
30.6(29) . . .
33.8(33) . . .
34.5(34) . . .
28.1(28) . . .
32.0(30) . . .
37.4(32) . . .
38.0(33) . . .
40.3(34) . . .
33.7(31) . . .
35.2(31) . . .
38.3(32) . . .
32.9(33) . . .
32.9(32) . . .
32.6(31) . . .
30.6(29) . . .
31.8(30) . . .
34.4(34) . . .
31.1(31) . . .
28.4(28) . . .
37.9(32) . . .
26.0(27) . . .
28.7(29) . . .
35.4(33) . . .
32.6(31) . . .
38.2(33) . . .
31.3(30) . . .
32.1(30) . . .
36.1(33) . . .
41(4) . . .
30.1(29) . . .
43(4) . . .
28.7(28) . . .
36.6(35) . . .
32.9(31) . . .
27.4(27) . . .
44(4) . . .
36.0(34) . . .
24.3(26) . . .
40.3(34) . . .
38.7(32) . . .
35.8(32) . . .
36.7(32) . . .
35.9(32) . . .
33.8(31) . . .
31.3(29) . . .
34.5(31) . . .
34.0(31) . . .
37.1(32) . . .
27.7(28) . . .
33.6(30) . . .
34.0(33) . . .
29.3(32) . . .
36.2(33) . . .
40.0(33) . . .
38.6(33) . . .
30.7(30) . . .
39(4) . . .
34.2(31) . . .
38.3(32) . . .
34.9(31) . . .
27.2(28) . . .
33.2(32) . . .
42(4) . . .
37.8(32) . . .
33.8(32) . . .
29.8(30) . . .
33.2(34) . . .
33.9(35) . . .
28.3(28) . . .
32.8(30) . . .
38.6(33) . . .
45(4) . . .
29.6(29) . . .
33.0(30) . . .
32.9(30) . . .
34.9(30) . . .
50(4) . . .
29.4(28) . . .
28.2(27) . . .
35.8(32) . . .
37.5(34) . . .
33.6(32) . . .
24.7(26) . . .
41.4(34) . . .
39.0(33) . . .
33.9(32) . . .
43(4) . . .
31.5(30) . . .
36.5(32) . . .
35.0(31) . . .
35.6(33) . . .
34.9(32) . . .
31.9(31) . . .
33.3(31) . . .
42.1(34) . . .
31.4(30) . . .
38.1(35) . . .
36.5(34) . . .
31.6(30) . . .
37.0(33) . . .
35.1(33) . . .
39.2(34) . . .
30.9(29) . . .
40.1(33) . . .
37.5(33) . . .
44(4) . . .
33.5(31) . . .
36.1(32) . . .
33.9(30) . . .
31.5(30) . . .
36(4) . . .
33.0(31) . . .
34.6(30) . . .
32.7(30) . . .
40.2(34) . . .
27.8(30) . . .
34.1(31) . . .
33.0(31) . . .
31.8(29) . . .
31.5(31) . . .
36.2(35) . . .
31.6(30) . . .
35.9(31) . . .
36.6(32) . . .
34.6(31) . . .
38.6(35) . . .
35.8(33) . . .
39.6(32) . . .
34.3(30) . . .
28.2(28) . . .
34.3(33) . . .
28.6(28) . . .
34.8(31) . . .
31.8(32) . . .
34.1(33) . . .
31.2(31) . . .
28.5(28) . . .
37.9(31) . . .
33.9(30) . . .
41(4) . . .
33.0(33) . . .
31.4(30) . . .
30.8(29) . . .
42.7(34) . . .
37.0(33) . . .
34.8(32) . . .
27.9(28) . . .
37.5(32) . . .
37.9(34) . . .
27.8(29) . . .
32.9(30) . . .
31.5(29) . . .
39.7(33) . . .
37.1(34) . . .
31.1(34) . . .
24.8(27) . . .
35.1(32) . . .
30.6(29) . . .
34.3(30) . . .
33.6(32) . . .
47(4) . . .
33.5(31) . . .
34.3(30) . . .
33.0(31) . . .
43(4) . . .
42(4) . . .
32.4(30) . . .
29.3(28) . . .
33.0(31) . . .
33.0(33) . . .
28.2(28) . . .
31.4(29) . . .
36.2(31) . . .
32.3(32) . . .
37(4) . . .
31.5(31) . . .
35.6(31) . . .
34.1(32) . . .
30.9(29) . . .
34.0(31) . . .
41(4) . . .
40.6(33) . . .
28.3(29) . . .
35.0(32) . . .
36.1(33) . . .
42(4) . . .
40.6(33) . . .
39.4(35) . . .
32.3(30) . . .
39.3(35) . . .
35.3(32) . . .
42.7(34) . . .
40.1(34) . . .
28.9(29) . . .
30.8(28) . . .
35.9(31) . . .
36.8(32) . . .
31.9(31) . . .
32.9(32) . . .
38.1(33) . . .
29.5(28) . . .
32.4(30) . . .
33.2(31) . . .
33.9(32) . . .
32.0(30) . . .
30.8(30) . . .
33.2(31) . . .
38.5(32) . . .
33.8(33) . . .
41(4) . . .
34.9(30) . . .
37.7(32) . . .
34.0(31) . . .
35.9(32) . . .
36.3(32) . . .
36.2(32) . . .
33.1(30) . . .
33.2(32) . . .
32.0(30) . . .
34.2(33) . . .
31.9(30) . . .
32.3(31) . . .
41(4) . . .
42(4) . . .
37.2(32) . . .
29.5(29) . . .
41.9(33) . . .
36.1(33) . . .
36.5(34) . . .
33.2(33) . . .
35.0(31) . . .
32.2(29) . . .
40.2(34) . . .
47(4) . . .
30.3(28) . . .
35.9(31) . . .
32.6(30) . . .
32.0(29) . . .
32.1(30) . . .
42(4) . . .
38.4(32) . . .
34.5(32) . . .
24.5(27) . . .
26.6(28) . . .
23.8(25) . . .
31.3(29) . . .
37.1(33) . . .
41(4) . . .
31.0(29) . . .
30.8(29) . . .
38.2(32) . . .
40.4(35) . . .
34.1(32) . . .
30.6(30) . . .
29.4(29) . . .
32.7(30) . . .
26.0(27) . . .
35.0(34) . . .
32.3(29) . . .
43.1(34) . . .
28.5(28) . . .
41(4) . . .
40(4) . . .
30.6(29) . . .
39.8(34) . . .
34.8(31) . . .
37.6(34) . . .
31.7(33) . . .
33.1(34) . . .
40.3(34) . . .
37.4(32) . . .
27.9(28) . . .
28.4(29) . . .
34.7(33) . . .
32.5(30) . . .
32.3(30) . . .
36.3(33) . . .
35.0(33) . . .
36.7(33) . . .
42.1(34) . . .
39.7(33) . . .
38.8(35) . . .
34.1(32) . . .
36.4(33) . . .
34.5(31) . . .
32.6(30) . . .
37.0(33) . . .
29.8(28) . . .
33.1(31) . . .
33.8(31) . . .
34.4(31) . . .
34.0(33) . . .
33.8(34) . . .
35.5(33) . . .
38.8(33) . . .
36.3(32) . . .
32.9(30) . . .
35.3(31) . . .
35.9(31) . . .
34.3(31) . . .
35.5(33) . . .
29.7(31) . . .
39.1(35) . . .
35.1(31) . . .
33.8(31) . . .
31.0(30) . . .
31.9(30) . . .
34.8(32) . . .
41.5(33) . . .
42.2(35) . . .
36.5(33) . . .
33.9(31) . . .
40(4) . . .
37.4(33) . . .
32.8(30) . . .
39.7(34) . . .
40(4) . . .
41(4) . . .
26.6(27) . . .
27.6(27) . . .
31.5(32) . . .
27.3(28) . . .
31.0(30) . . .
37.6(32) . . .
40.7(34) . . .
35.6(33) . . .
28.3(28) . . .
39.3(33) . . .
32.6(30) . . .
34.3(31) . . .
35.4(33) . . .
39(4) . . .
37.0(32) . . .
37.6(31) . . .
38.5(32) . . .
35.3(32) . . .
28.5(29) . . .
27.5(27) . . .
31.8(30) . . .
33.9(30) . . .
33.2(31) . . .
27.2(28) . . .
33.7(31) . . .
35.3(31) . . .
30.1(30) . . .
37.8(34) . . .
27.2(29) . . .
37.7(33) . . .
37.6(32) . . .
34.5(31) . . .
29.1(29) . . .
30.9(30) . . .
35.2(31) . . .
38.3(32) . . .
39.1(34) . . .
33.2(32) . . .
32.7(30) . . .
35.6(32) . . .
36.3(31) . . .
34.0(31) . . .
35.1(34) . . .
34.9(34) . . .
36.9(32) . . .
28.6(28) . . .
30.4(29) . . .
32.6(31) . . .
34.4(31) . . .
40.0(33) . . .
41.6(33) . . .
37.0(35) . . .
25.4(27) . . .
29.5(30) . . .
32.4(30) . . .
33.8(30) . . .
32.8(30) . . .
30.2(31) . . .
27.4(28) . . .
35.7(31) . . .
35.7(31) . . .
27.8(29) . . .
33.2(30) . . .
39.0(35) . . .
35.0(31) . . .
38.7(33) . . .
37.9(33) . . .
30.9(31) . . .
27.6(29) . . .
33.1(30) . . .
36.0(31) . . .
28.9(28) . . .
32.1(31) . . .
39.8(34) . . .
30.1(28) . . .
21.8(24) . . .
33.2(33) . . .
36.4(34) . . .
35.1(31) . . .
33.6(30) . . .
36.2(33) . . .
38.7(34) . . .
32.4(32) . . .
36.2(34) . . .
34.0(31) . . .
30.7(31) . . .
33.1(32) . . .
32.2(31) . . .
34.8(30) . . .
31.8(30) . . .
37.0(32) . . .
44(4) . . .
27.4(26) . . .
36.3(31) . . .
31.0(30) . . .
37.5(32) . . .
36.3(32) . . .
34.8(31) . . .
33.9(30) . . .
36.4(31) . . .
37.4(33) . . .
41(4) . . .
31.7(29) . . .
43.6(35) . . .
25.3(26) . . .
38.6(33) . . .
33.6(31) . . .
38.0(33) . . .
34.8(32) . . .
39.9(34) . . .
37.8(33) . . .
34.6(31) . . .
40.6(34) . . .
31.4(30) . . .
36.2(32) . . .
32.1(30) . . .
33.6(33) . . .
29.3(31) . . .
42.0(34) . . .
38.6(33) . . .
33.7(33) . . .
33.2(33) . . .
31.0(30) . . .
32.1(29) . . .
25.0(28) . . .
35.0(34) . . .
31.5(32) . . .
32.3(31) . . .
38.8(33) . . .
32.0(31) . . .
38.4(35) . . .
39(4) . . .
28.2(29) . . .
37.6(32) . . .
39.2(35) . . .
41(4) . . .
40.1(34) . . .
30.4(29) . . .
34.3(31) . . .
31.0(29) . . .
36.1(34) . . .
29.2(29) . . .
31.7(30) . . .
32.6(30) . . .
32.3(31) . . .
45(4) . . .
34.7(32) . . .
31.0(28) . . .
27.3(27) . . .
33.8(31) . . .
34.7(34) . . .
34.2(33) . . .
32.6(29) . . .
32.9(30) . . .
38.9(35) . . .
37.9(35) . . .
39.7(33) . . .
34.6(30) . . .
33.8(32) . . .
40.0(33) . . .
36.0(33) . . .
27.0(28) . . .
27.7(27) . . .
34.9(31) . . .
45(4) . . .
37.2(33) . . .
30.0(29) . . .
34.0(30) . . .
35.0(32) . . .
30.6(29) . . .
38.2(34) . . .
25.7(27) . . .
37.4(32) . . .
33.2(30) . . .
31.4(30) . . .
42.1(35) . . .
27.3(28) . . .
31.2(30) . . .
33.8(31) . . .
30.5(29) . . .
29.7(30) . . .
31.0(29) . . .
38.6(32) . . .
34.4(31) . . .
35.9(31) . . .
34.8(32) . . .
42(4) . . .
30.9(29) . . .
30.0(29) . . .
33.5(30) . . .
33.3(29) . . .
36.2(32) . . .
33.5(30) . . .
25.7(28) . . .
32.3(32) . . .
30.3(29) . . .
34.1(30) . . .
37.0(32) . . .
30.8(28) . . .
39.9(33) . . .
32.4(29) . . .
35.1(31) . . .
39.5(32) . . .
39.0(34) . . .
37.9(33) . . .
36.0(33) . . .
34.1(31) . . .
30.4(29) . . .
35.9(32) . . .
28.4(29) . . .
35.6(34) . . .
34.7(32) . . .
35.4(32) . . .
30.1(29) . . .
39.3(35) . . .
46(4) . . .
37.4(32) . . .
34.1(32) . . .
26.3(27) . . .
30.8(34) . . .
26.0(27) . . .
43.5(34) . . .
39.7(35) . . .
34.5(32) . . .
29.7(27) . . .
35.7(31) . . .
40.7(33) . . .
38(4) . . .
31.2(30) . . .
30.6(31) . . .
29.2(30) . . .
32.6(30) . . .
29.2(28) . . .
30.8(29) . . .
42.2(34) . . .
35.1(30) . . .
28.4(28) . . .
30.2(31) . . .
33.2(32) . . .
30.9(29) . . .
25.0(26) . . .
24.4(26) . . .
35.6(33) . . .
31.3(29) . . .
42(4) . . .
33.8(30) . . .
34.6(31) . . .
32.4(30) . . .
42(4) . . .
37.1(32) . . .
41.1(33) . . .
35.1(33) . . .
27.1(27) . . .
39.0(33) . . .
41(4) . . .
36.8(32) . . .
37.6(34) . . .
26.9(28) . . .
42(4) . . .
44(4) . . .
35.3(31) . . .
33.6(30) . . .
37.0(34) . . .
26.5(28) . . .
29.4(28) . . .
38.7(33) . . .
38.8(32) . . .
34.6(30) . . .
38.0(34) . . .
40.3(34) . . .
32.3(30) . . .
31.4(29) . . .
33.0(31) . . .
34.4(31) . . .
37.5(33) . . .
33.3(30) . . .
35.5(31) . . .
35.2(33) . . .
30.4(29) . . .
44.4(35) . . .
36.6(32) . . .
30.0(30) . . .
37.2(33) . . .
35.6(33) . . .
29.7(30) . . .
30.4(29) . . .
37.2(34) . . .
29.5(29) . . .
25.7(26) . . .
41.8(34) . . .
43.7(34) . . .
35.3(32) . . .
30.2(33) . . .
32.9(32) . . .
42.0(33) . . .
30.4(29) . . .
35.5(32) . . .
48(4) . . .
32.0(30) . . .
43.0(34) . . .
33.0(30) . . .
28.4(32) . . .
30.1(31) . . .
33.6(31) . . .
41.9(34) . . .
32.7(30) . . .
33.2(33) . . .
27.8(30) . . .
32.2(31) . . .
33.1(31) . . .
32.7(30) . . .
36.7(33) . . .
36.4(34) . . .
39.2(34) . . .
33.5(30) . . .
34.1(32) . . .
31.9(32) . . .
36.6(34) . . .
30.0(29) . . .
29.0(28) . . .
28.5(29) . . .
30.0(30) . . .
36.6(34) . . .
36.5(35) . . .
31.3(29) . . .
32.9(31) . . .
26.4(26) . . .
34.0(31) . . .
33.6(31) . . .
30.3(29) . . .
34.9(33) . . .
36.1(33) . . .
36.1(32) . . .
37.9(32) . . .
42.9(34) . . .
38.5(33) . . .
33.5(32) . . .
31.2(29) . . .
30.4(28) . . .
30.7(30) . . .
40.3(34) . . .
41(4) . . .
35.7(33) . . .
30.7(29) . . .
37.9(32) . . .
30.3(31) . . .
28.5(30) . . .
33.1(31) . . .
34.4(31) . . .
33.5(31) . . .
35.6(32) . . .
43(4) . . .
33.5(31) . . .
35.5(32) . . .
34.8(30) . . .
37.6(33) . . .
33.8(35) . . .
33.7(34) . . .
39.8(33) . . .
26.7(28) . . .
30.9(31) . . .
36.9(33) . . .
26.5(27) . . .
29.8(28) . . .
36.2(32) . . .
34.2(31) . . .
40(4) . . .
41(4) . . .
29.3(28) . . .
31.1(31) . . .
32.1(32) . . .
36.1(32) . . .
35.6(32) . . .
31.9(29) . . .
32.7(31) . . .
44(4) . . .
35.1(31) . . .
37.7(32) . . .
33.1(30) . . .
32.2(30) . . .
35.1(32) . . .
35.0(32) . . .
38.8(32) . . .
49(4) . . .
42.0(34) . . .
31.8(30) . . .
33.7(33) . . .
36.1(31) . . .
41.5(35) . . .
36.7(33) . . .
34.5(32) . . .
41.1(34) . . .
26.1(26) . . .
33.2(31) . . .
32.1(30) . . .
32.5(31) . . .
39(4) . . .
39.3(33) . . .
30.6(29) . . .
27.8(28) . . .
38(4) . . .
28.2(28) . . .
30.1(28) . . .
40.8(33) . . .
44.7(35) . . .
37.7(35) . . .
38(4) . . .
23.7(26) . . .
37.9(32) . . .
35.0(32) . . .
32.1(34) . . .
31.5(31) . . .
30.0(29) . . .
36.1(31) . . .
38(4) . . .
33.2(32) . . .
32.3(31) . . .
41.2(33) . . .
39.0(32) . . .
36.7(32) . . .
33.8(32) . . .
30.7(29) . . .
31.8(29) . . .
34.2(32) . . .
35.2(33) . . .
33.7(32) . . .
31.5(30) . . .
34.0(30) . . .
33.9(31) . . .
40(4) . . .
39(4) . . .
33.7(31) . . .
31.1(29) . . .
29.8(29) . . .
28.1(29) . . .
37.0(33) . . .
34.8(31) . . .
35.7(31) . . .
33.8(31) . . .
32.6(31) . . .
39.2(34) . . .
34.1(31) . . .
37.0(33) . . .
40.4(34) . . .
40(4) . . .
28.1(27) . . .
31.0(29) . . .
39.9(33) . . .
33.2(30) . . .
33.9(34) . . .
42(4) . . .
30.5(29) . . .
39.7(33) . . .
32.2(30) . . .
30.0(32) . . .
35.0(32) . . .
31.9(29) . . .
36.4(31) . . .
41.7(33) . . .
39.7(35) . . .
25.9(27) . . .
32.0(29) . . .
41(4) . . .
34.5(32) . . .
33.0(33) . . .
35.3(33) . . .
27.9(27) . . .
34.3(31) . . .
41.7(35) . . .
37.7(34) . . .
30.3(29) . . .
26.7(27) . . .
36.3(33) . . .
35.2(33) . . .
34.2(31) . . .
29.2(28) . . .
32.8(30) . . .
41.4(34) . . .
40.5(35) . . .
35.6(34) . . .
29.8(30) . . .
35.4(31) . . .
44(4) . . .
32.0(30) . . .
27.9(27) . . .
34.8(31) . . .
31.4(30) . . .
38.1(33) . . .
29.0(28) . . .
31.2(31) . . .
29.0(29) . . .
38.1(32) . . .
38.2(34) . . .
37(4) . . .
28.9(30) . . .
32.9(30) . . .
31.9(30) . . .
32.1(29) . . .
30.6(28) . . .
41.1(33) . . .
32.4(30) . . .
29.3(29) . . .
24.7(26) . . .
33.0(31) . . .
40.3(35) . . .
39.6(33) . . .
31.9(30) . . .
29.0(28) . . .
29.5(30) . . .
36.1(32) . . .
36.8(32) . . .
41.7(35) . . .
32.0(32) . . .
36(4) . . .
26.1(28) . . .
36.0(31) . . .
29.7(29) . . .
37.4(35) . . .
32.9(31) . . .
39.8(34) . . .
33.7(31) . . .
28.3(28) . . .
33.6(32) . . .
31.5(30) . . .
30.8(30) . . .
35.3(31) . . .
40.5(35) . . .
27.4(29) . . .
34.2(32) . . .
33.8(30) . . .
31.7(29) . . .
32.7(32) . . .
25.4(27) . . .
42.0(35) . . .
37.3(32) . . .
36.2(32) . . .
37.7(33) . . .
43(4) . . .
37(4) . . .
34.7(31) . . .
24.9(26) . . .
35.7(33) . . .
36.5(34) . . .
23.4(25) . . .
30.5(29) . . .
37.8(32) . . .
39(4) . . .
33.7(33) . . .
32.6(30) . . .
32.9(31) . . .
37.5(32) . . .
35.5(32) . . .
35.4(33) . . .
31.7(32) . . .
37.0(32) . . .
24.8(26) . . .
33.9(33) . . .
41(4) . . .
40.5(33) . . .
37.1(32) . . .
28.2(28) . . .
32.0(31) . . .
38.1(34) . . .
41.5(34) . . .
42.6(34) . . .
31.9(31) . . .
27.0(27) . . .
36.3(32) . . .
30.9(31) . . .
24.2(26) . . .
35.4(31) . . .
29.2(28) . . .
31.6(29) . . .
37.7(32) . . .
32.9(30) . . .
35.4(32) . . .
25.8(28) . . .
32.3(32) . . .
35.5(31) . . .
32.3(29) . . .
31.3(29) . . .
32.0(31) . . .
29.9(30) . . .
39.9(34) . . .
42.3(34) . . .
40(4) . . .
32.1(34) . . .
30.0(28) . . .
34.7(32) . . .
38.9(32) . . .
33.5(31) . . .
32.2(31) . . .
38.6(33) . . .
36.5(32) . . .
35.1(31) . . .
25.4(26) . . .
29.9(29) . . .
25.9(26) . . .
38.3(33) . . .
35.0(32) . . .
33.1(32) . . .
31.0(31) . . .
31.5(29) . . .
39.6(33) . . .
27.8(28) . . .
26.3(27) . . .
34.0(34) . . .
35.2(32) . . .
27.7(28) . . .
35.9(31) . . .
41.9(35) . . .
40.1(34) . . .
39.7(35) . . .
36.7(32) . . .
28.3(27) . . .
31.5(30) . . .
38(4) . . .
31.9(30) . . .
36.6(31) . . .
29.6(29) . . .
39(4) . . .
38(4) . . .
40.6(34) . . .
33.3(31) . . .
32.1(32) . . .
34.9(33) . . .
26.9(28) . . .
35.0(33) . . .
32.7(30) . . .
31.5(31) . . .
34.5(32) . . .
42.9(35) . . .
27.1(27) . . .
28.7(28) . . .
31.0(31) . . .
28.0(29) . . .
28.6(28) . . .
38.1(32) . . .
34.3(30) . . .
30.8(29) . . .
41(4) . . .
32.0(30) . . .
36.7(32) . . .
38.3(32) . . .
37.2(33) . . .
32.3(31) . . .
44(4) . . .
39.9(33) . . .
39.3(33) . . .
31.8(30) . . .
34.5(34) . . .
32.4(32) . . .
29.5(30) . . .
33.6(31) . . .
31.0(32) . . .
26.9(27) . . .
37.2(33) . . .
45.1(35) . . .
37.2(33) . . .
33.9(32) . . .
28.7(32) . . .
26.4(29) . . .
33.9(30) . . .
35.8(32) . . .
34.7(33) . . .
34.7(35) . . .
32.0(32) . . .
33.5(30) . . .
33.4(31) . . .
36.3(32) . . .
36.3(32) . . .
43.8(35) . . .
32.2(29) . . .
36.2(33) . . .
35.3(33) . . .
32.3(30) . . .
27.2(27) . . .
41.4(34) . . .
33.7(32) . . .
37.1(34) . . .
30.7(29) . . .
48(4) . . .
36.0(31) . . .
26.8(27) . . .
35.6(33) . . .
30.2(30) . . .
37.3(32) . . .
31.1(29) . . .
25.4(27) . . .
33.1(33) . . .
28.2(29) . . .
32.3(31) . . .
31.2(29) . . .
32.1(31) . . .
34.3(32) . . .
29.2(29) . . .
34.6(31) . . .
31.0(30) . . .
40.9(34) . . .
30.7(30) . . .
36.8(33) . . .
35.8(32) . . .
42.3(34) . . .
33.2(30) . . .
32.9(32) . . .
41(4) . . .
29.1(28) . . .
36.5(33) . . .
34.9(31) . . .
33.1(32) . . .
38(4) . . .
25.2(26) . . .
30.5(29) . . .
28.9(28) . . .
35.5(34) . . .
32.0(30) . . .
42.4(34) . . .
42.0(34) . . .
41.1(34) . . .
29.9(30) . . .
34.1(32) . . .
40.2(33) . . .
36.6(31) . . .
36.1(32) . . .
38.6(34) . . .
41.1(34) . . .
29.4(29) . . .
33.0(32) . . .
29.8(29) . . .
35.8(33) . . .
33.9(30) . . .
36.5(31) . . .
35.0(31) . . .
36.9(34) . . .
36.0(32) . . .
35.5(31) . . .
36.4(32) . . .
34.4(31) . . .
34.6(32) . . .
41.8(35) . . .
46(4) . . .
35.5(31) . . .
35.4(33) . . .
37.0(34) . . .
42(4) . . .
30.9(28) . . .
31.1(29) . . .
28.9(30) . . .
37(4) . . .
39.1(34) . . .
42.5(34) . . .
36.1(32) . . .
38.5(33) . . .
38.7(34) . . .
30.3(29) . . .
22.4(25) . . .
33.8(30) . . .
45(4) . . .
45(4) . . .
32.7(31) . . .
33.8(30) . . .
40.3(33) . . .
34.3(31) . . .
33.5(32) . . .
32.7(32) . . .
35.1(31) . . .
38.7(33) . . .
39.4(34) . . .
38.2(35) . . .
40.3(35) . . .
34.8(31) . . .
43(4) . . .
36.3(34) . . .
39.3(34) . . .
32.1(31) . . .
35.4(31) . . .
36.3(32) . . .
35.5(32) . . .
32.3(30) . . .
33.1(30) . . .
39.0(33) . . .
33.6(30) . . .
33.7(31) . . .
33.9(33) . . .
40.0(33) . . .
33.3(30) . . .
33.9(31) . . .
32.3(29) . . .
41.1(34) . . .
31.6(29) . . .
40.0(33) . . .
32.2(30) . . .
40.0(33) . . .
40.5(34) . . .
38.2(32) . . .
28.0(28) . . .
30.4(30) . . .
33.0(33) . . .
31.5(29) . . .
39.8(33) . . .
41.2(33) . . .
36.8(33) . . .
33.7(34) . . .
40.7(35) . . .
38.7(32) . . .
36.9(31) . . .
30.3(30) . . .
29.5(32) . . .
37.0(32) . . .
34.0(30) . . .
32.9(33) . . .
35.8(34) . . .
36.7(35) . . .
36.3(32) . . .
36.5(32) . . .
36.5(31) . . .
31.3(32) . . .
28.6(31) . . .
29.9(30) . . .
36.0(32) . . .
31.6(29) . . .
30.8(30) . . .
33.9(32) . . .
38.5(32) . . .
40.5(33) . . .
32.4(30) . . .
37.5(34) . . .
30.4(30) . . .
35.5(33) . . .
44(4) . . .
41.9(35) . . .
42(4) . . .
41.4(34) . . .
31.6(31) . . .
33.7(30) . . .
32.0(30) . . .
43(4) . . .
32.6(31) . . .
33.6(30) . . .
35.9(32) . . .
39(4) . . .
41(4) . . .
38.4(32) . . .
37.8(32) . . .
36.0(32) . . .
32.1(29) . . .
35.7(33) . . .
28.2(29) . . .
35.0(31) . . .
32.9(30) . . .
38.5(34) . . .
31.8(30) . . .
35.5(33) . . .
30.9(29) . . .
34.4(30) . . .
35.7(32) . . .
30.9(31) . . .
35.8(31) . . .
24.5(26) . . .
30.5(30) . . .
35.5(33) . . .
39.0(35) . . .
40(4) . . .
29.2(28) . . .
38.6(33) . . .
30.9(28) . . .
44(4) . . .
39.3(34) . . .
36.7(31) . . .
33.7(30) . . .
34.1(31) . . .
37.8(32) . . .
35.6(31) . . .
36.0(32) . . .
40.7(34) . . .
41.0(34) . . .
40.7(34) . . .
34.6(31) . . .
38.2(32) . . .
29.0(30) . . .
40(4) . . .
36.7(34) . . .
31.7(30) . . .
32.9(30) . . .
27.8(29) . . .
29.3(30) . . .
34.2(33) . . .
25.0(26) . . .
35.0(31) . . .
28.5(29) . . .
36.9(32) . . .
37.6(32) . . .
37.6(32) . . .
34.8(31) . . .
25.5(27) . . .
34.7(34) . . .
36.2(32) . . .
32.5(30) . . .
38.4(32) . . .
30.4(28) . . .
34.1(31) . . .
33.3(30) . . .
27.0(27) . . .
35.8(31) . . .
32.1(29) . . .
34.3(31) . . .
32.4(29) . . .
33.9(31) . . .
31.9(29) . . .
29.0(28) . . .
32.7(31) . . .
40.2(34) . . .
40.0(33) . . .
33.5(30) . . .
27.0(27) . . .
32.8(32) . . .
35.0(32) . . .
30.2(29) . . .
42(4) . . .
26.8(27) . . .
29.4(29) . . .
27.3(29) . . .
35.5(32) . . .
38.1(33) . . .
31.8(30) . . .
31.9(31) . . .
39.5(35) . . .
35.5(31) . . .
33.9(33) . . .
29.7(30) . . .
24.9(27) . . .
25.2(27) . . .
26.5(28) . . .
25.1(27) . . .
35.5(31) . . .
39.7(35) . . .
30.0(29) . . .
37.5(33) . . .
43.2(35) . . .
39.3(33) . . .
41.1(34) . . .
38.4(33) . . .
28.1(28) . . .
29.9(28) . . .
32.9(31) . . .
33.9(33) . . .
43.3(34) . . .
37.3(32) . . .
34.2(30) . . .
35.5(32) . . .
28.5(28) . . .
28.1(28) . . .
35.4(31) . . .
39.1(34) . . .
34.0(33) . . .
35.4(32) . . .
35.0(31) . . .
31.9(29) . . .
34.6(32) . . .
33.3(31) . . .
41.7(34) . . .
30.4(28) . . .
34.7(30) . . .
32.0(31) . . .
35.2(32) . . .
31.7(31) . . .
37.2(33) . . .
41.5(33) . . .
33.1(32) . . .
35.3(35) . . .
36(4) . . .
44.1(35) . . .
40(4) . . .
29.3(31) . . .
31.0(30) . . .
36.1(31) . . .
35.3(32) . . .
28.3(29) . . .
22.7(25) . . .
34.1(34) . . .
35.8(31) . . .
36.8(32) . . .
33.8(32) . . .
35.1(32) . . .
41(4) . . .
36.2(32) . . .
26.5(28) . . .
32.1(31) . . .
39(4) . . .
31.6(30) . . .
37.6(33) . . .
35.6(31) . . .
31.1(31) . . .
32.9(31) . . .
35.5(31) . . .
28.4(29) . . .
41.4(34) . . .
34.6(32) . . .
43(4) . . .
41.0(33) . . .
36.3(31) . . .
42.8(35) . . .
33.2(30) . . .
37(4) . . .
31.0(29) . . .
32.2(30) . . .
42.5(34) . . .
39.2(34) . . .
40.5(35) . . .
33.5(30) . . .
28.7(28) . . .
28.4(28) . . .
29.7(28) . . .
37.5(34) . . .
38.0(33) . . .
33.0(30) . . .
28.1(29) . . .
36.5(34) . . .
32.7(32) . . .
33.8(33) . . .
30.5(29) . . .
44(4) . . .
40.7(35) . . .
25.6(26) . . .
30.6(30) . . .
31.9(29) . . .
31.6(29) . . .
43(4) . . .
36.2(32) . . .
41.3(33) . . .
34.2(30) . . .
33.4(31) . . .
32.5(31) . . .
40(4) . . .
29.0(29) . . .
34.5(31) . . .
28.1(29) . . .
26.5(28) . . .
30.7(32) . . .
32.1(30) . . .
35.9(31) . . .
31.1(29) . . .
39.5(34) . . .
30.8(30) . . .
32.3(31) . . .
31.5(30) . . .
30.5(30) . . .
37.1(33) . . .
34.7(30) . . .
31.9(29) . . .
29.4(28) . . .
30.2(31) . . .
26.9(29) . . .
27.5(32) . . .
31.8(31) . . .
34.8(31) . . .
32.3(29) . . .
29.3(29) . . .
31.0(30) . . .
35.9(32) . . .
35.7(31) . . .
36.1(32) . . .
31.9(31) . . .
30.0(29) . . .
32.7(30) . . .
29.5(28) . . .
28.8(28) . . .
30.2(29) . . .
30.1(30) . . .
31.6(30) . . .
33.8(31) . . .
36.8(33) . . .
30.2(29) . . .
30.8(32) . . .
34.4(30) . . .
31.8(30) . . .
29.9(30) . . .
37.1(33) . . .
37.8(32) . . .
30.6(29) . . .
31.9(33) . . .
32.6(33) . . .
31.6(31) . . .
32.8(30) . . .
37.9(33) . . .
36.1(32) . . .
38.1(33) . . .
36.3(33) . . .
39.9(33) . . .
38.4(32) . . .
38.1(34) . . .
37.5(34) . . .
33.1(31) . . .
28.3(27) . . .
26.1(27) . . .
38.0(34) . . .
43(4) . . .
31.5(30) . . .
27.3(29) . . .
21.2(24) . . .
36.1(34) . . .
36.5(33) . . .
32.3(30) . . .
39.1(33) . . .
33.1(29) . . .
33.2(30) . . .
42(4) . . .
30.3(29) . . .
37.0(32) . . .
33.7(30) . . .
39.9(34) . . .
34.5(31) . . .
42(4) . . .
31.0(29) . . .
38.3(33) . . .
37.1(34) . . .
27.2(29) . . .
25.7(27) . . .
25.0(25) . . .
34.7(32) . . .
45(4) . . .
31.6(31) . . .
32.1(32) . . .
29.6(28) . . .
35.8(32) . . .
38.0(34) . . .
39(4) . . .
30.5(30) . . .
35.3(31) . . .
31.3(31) . . .
33.7(34) . . .
34.5(34) . . .
37.7(33) . . .
33.6(30) . . .
34.2(32) . . .
34.2(32) . . .
32.6(31) . . .
28.7(28) . . .
34.0(31) . . .
42(4) . . .
30.7(29) . . .
30.5(29) . . .
30.2(30) . . .
29.6(28) . . .
30.1(29) . . .
36.2(34) . . .
29.7(28) . . .
35.9(31) . . .
30.3(30) . . .
37.4(33) . . .
34.3(31) . . .
34.0(30) . . .
30.2(28) . . .
25.4(27) . . .
29.2(28) . . .
38(4) . . .
39.4(34) . . .
36.7(32) . . .
35.9(31) . . .
35.4(30) . . .
41.0(34) . . .
36.4(32) . . .
34.2(30) . . .
30.4(30) . . .
40.9(34) . . .
35.0(30) . . .
41.3(35) . . .
32.2(30) . . .
27.5(27) . . .
38.5(33) . . .
27.4(27) . . .
26.3(26) . . .
23.3(25) . . .
38.3(34) . . .
28.6(29) . . .
32.3(31) . . .
26.2(27) . . .
33.7(30) . . .
34.9(31) . . .
39.7(35) . . .
38.3(34) . . .
25.9(27) . . .
40.1(33) . . .
45.3(35) . . .
29.6(28) . . .
31.5(32) . . .
35.0(31) . . .
35.1(31) . . .
28.3(28) . . .
33.7(31) . . .
32.3(30) . . .
29.4(29) . . .
30.0(28) . . .
38.0(34) . . .
30.6(30) . . .
39.4(34) . . .
34.4(31) . . .
32.5(30) . . .
34.3(31) . . .
38(4) . . .
35.1(35) . . .
28.0(28) . . .
27.3(27) . . .
31.7(32) . . .
39.7(34) . . .
40.3(32) . . .
36.4(32) . . .
43(4) . . .
27.5(28) . . .
32.5(32) . . .
29.7(29) . . .
29.8(29) . . .
32.2(29) . . .
33.2(33) . . .
35.8(33) . . .
31.1(30) . . .
28.5(28) . . .
25.1(27) . . .
37.0(34) . . .
29.6(30) . . .
32.4(31) . . .
30.3(29) . . .
36.2(33) . . .
26.1(27) . . .
35.1(35) . . .
33.8(30) . . .
37.7(32) . . .
39.9(33) . . .
44(4) . . .
33.0(34) . . .
35.6(32) . . .
30.3(29) . . .
27.3(28) . . .
31.5(32) . . .
29.1(30) . . .
35.1(33) . . .
35.0(30) . . .
46(4) . . .
38.2(34) . . .
30.8(30) . . .
34.7(31) . . .
36.8(32) . . .
24.7(27) . . .
26.9(29) . . .
41.0(34) . . .
33.1(30) . . .
30.9(29) . . .
24.4(27) . . .
36.2(34) . . .
36.3(34) . . .
37.4(32) . . .
31.3(29) . . .
37.2(34) . . .
27.2(29) . . .
27.5(27) . . .
28.9(28) . . .
29.9(28) . . .
36.0(34) . . .
29.2(31) . . .
34.0(32) . . .
37.9(33) . . .
29.2(28) . . .
29.7(29) . . .
32.7(32) . . .
29.6(29) . . .
34.3(30) . . .
35.0(31) . . .
30.1(29) . . .
31.5(30) . . .
34.1(31) . . .
37.9(32) . . .
40.5(33) . . .
35.9(31) . . .
33.4(32) . . .
34.3(33) . . .
28.9(28) . . .
33.7(30) . . .
30.4(29) . . .
33.2(33) . . .
39.8(34) . . .
37.4(32) . . .
34.6(32) . . .
36.7(34) . . .
37.6(33) . . .
36.2(33) . . .
38.1(32) . . .
34.4(31) . . .
37.1(33) . . .
36.3(32) . . .
32.0(30) . . .
34.6(30) . . .
17.6(23) . . .
30.1(32) . . .
31.7(29) . . .
37.1(31) . . .
37.6(32) . . .
30.7(30) . . .
44(4) . . .
37.1(35) . . .
39.0(33) . . .
31.1(29) . . .
35.0(34) . . .
35.7(33) . . .
39.0(34) . . .
31.0(29) . . .
31.9(29) . . .
35.0(31) . . .
38.8(33) . . .
37.9(34) . . .
27.8(27) . . .
40.9(34) . . .
29.6(30) . . .
31.7(32) . . .
42(4) . . .
35.1(32) . . .
34.8(31) . . .
39.6(34) . . .
36.2(33) . . .
42(4) . . .
35.5(31) . . .
36.6(32) . . .
41.9(35) . . .
32.6(31) . . .
41(4) . . .
37.4(32) . . .
35.1(32) . . .
30.7(31) . . .
33.5(32) . . .
27.8(27) . . .
29.5(28) . . .
27.7(29) . . .
26.4(28) . . .
35.4(33) . . .
29.1(28) . . .
30.9(29) . . .
40.7(34) . . .
30.0(29) . . .
41.2(34) . . .
33.9(30) . . .
32.5(32) . . .
26.3(27) . . .
31.8(30) . . .
26.8(27) . . .
27.3(27) . . .
35.6(32) . . .
30.0(29) . . .
29.7(30) . . .
37.0(34) . . .
32.1(30) . . .
42.7(34) . . .
36.5(33) . . .
46(4) . . .
27.5(26) . . .
25.9(27) . . .
34.7(30) . . .
42.6(35) . . .
38.4(34) . . .
39.0(34) . . .
38.0(32) . . .
39.8(34) . . .
35.2(31) . . .
32.8(30) . . .
36.8(35) . . .
33.1(31) . . .
34.5(32) . . .
26.3(27) . . .
29.6(29) . . .
25.5(26) . . .
41.2(34) . . .
33.3(30) . . .
31.2(32) . . .
32.2(33) . . .
27.5(30) . . .
41.0(33) . . .
35.7(32) . . .
27.7(27) . . .
39.2(34) . . .
32.5(30) . . .
35.2(31) . . .
33.0(31) . . .
36.5(33) . . .
31.7(30) . . .
33.2(31) . . .
34.6(31) . . .
35.4(31) . . .
35.5(31) . . .
35.5(34) . . .
27.8(29) . . .
33.9(30) . . .
35.2(32) . . .
28.7(29) . . .
34.5(33) . . .
32.4(30) . . .
33.9(31) . . .
39.6(34) . . .
42.9(35) . . .
39.3(32) . . .
31.9(30) . . .
42.2(34) . . .
39.1(32) . . .
35.4(33) . . .
43(4) . . .
36.0(31) . . .
36.3(32) . . .
35.9(32) . . .
32.7(31) . . .
38(4) . . .
29.3(28) . . .
34.9(31) . . .
41.0(34) . . .
40(4) . . .
31.1(30) . . .
45.3(35) . . .
36.4(31) . . .
28.7(27) . . .
41(4) . . .
34.6(35) . . .
24.6(26) . . .
28.0(27) . . .
27.7(28) . . .
31.0(30) . . .
33.3(33) . . .
27.3(27) . . .
32.0(29) . . .
32.2(31) . . .
28.0(28) . . .
37.7(35) . . .
33.7(30) . . .
23.1(25) . . .
34.2(33) . . .
45(4) . . .
41.6(34) . . .
35.5(31) . . .
31.4(29) . . .
29.9(29) . . .
28.5(29) . . .
29.5(29) . . .
33.2(30) . . .
35.7(33) . . .
29.2(29) . . .
27.8(28) . . .
35.0(31) . . .
43.5(34) . . .
30.1(30) . . .
25.8(27) . . .
35.0(33) . . .
33.8(30) . . .
40.8(34) . . .
35.6(32) . . .
42(4) . . .
31.0(30) . . .
30.0(28) . . .
40.9(33) . . .
39.5(33) . . .
37.8(34) . . .
32.4(31) . . .
34.1(32) . . .
37.1(31) . . .
34.9(31) . . .
30.4(29) . . .
37.7(32) . . .
35.4(31) . . .
44(4) . . .
42(4) . . .
39(4) . . .
38.7(33) . . .
41.0(33) . . .
29.3(28) . . .
28.4(28) . . .
32.1(31) . . .
29.8(29) . . .
32.0(30) . . .
29.7(29) . . .
44(4) . . .
34.3(32) . . .
29.1(29) . . .
38.1(32) . . .
32.7(30) . . .
39.1(34) . . .
39.7(34) . . .
34.3(30) . . .
34.2(31) . . .
40.4(34) . . .
41.4(33) . . .
39.0(33) . . .
35.2(31) . . .
30.6(29) . . .
40.6(34) . . .
36.6(32) . . .
36.0(31) . . .
32.6(30) . . .
37.1(32) . . .
33.5(30) . . .
42(4) . . .
36.2(32) . . .
39.2(33) . . .
37.5(32) . . .
28.8(28) . . .
30.5(29) . . .
38(4) . . .
23.7(26) . . .
24.9(26) . . .
30.8(31) . . .
30.5(30) . . .
31.4(29) . . .
38.8(33) . . .
31.7(29) . . .
30.8(30) . . .
37.4(34) . . .
47(4) . . .
30.7(29) . . .
26.7(26) . . .
25.5(26) . . .
27.9(30) . . .
26.1(28) . . .
30.3(28) . . .
31.3(31) . . .
32.7(33) . . .
33.1(32) . . .
41(4) . . .
45.9(35) . . .
31.2(30) . . .
25.9(26) . . .
26.9(26) . . .
31.3(30) . . .
35.5(31) . . .
38.4(33) . . .
33.2(30) . . .
30.5(28) . . .
40.0(33) . . .
38.3(32) . . .
37.1(31) . . .
44.8(35) . . .
40.3(33) . . .
34.2(30) . . .
33.1(30) . . .
41.7(34) . . .
34.1(31) . . .
40.8(34) . . .
38.0(32) . . .
34.8(31) . . .
28.1(28) . . .
40(4) . . .
31.6(30) . . .
33.0(30) . . .
33.0(30) . . .
27.3(27) . . .
36.0(34) . . .
33.3(31) . . .
38.6(33) . . .
30.7(29) . . .
39.7(34) . . .
38.0(35) . . .
30.4(30) . . .
29.1(29) . . .
28.1(28) . . .
25.5(27) . . .
28.0(28) . . .
31.5(29) . . .
28.5(28) . . .
37.2(32) . . .
29.1(30) . . .
37.2(34) . . .
32.9(30) . . .
27.8(28) . . .
28.2(27) . . .
29.1(29) . . .
29.3(31) . . .
42(4) . . .
31.8(29) . . .
35.4(32) . . .
33.1(31) . . .
34.6(32) . . .
27.2(28) . . .
31.9(29) . . .
42.4(34) . . .
35.3(30) . . .
36.0(33) . . .
49(4) . . .
43.6(35) . . .
37.1(33) . . .
29.7(29) . . .
40(4) . . .
32.3(31) . . .
42.6(35) . . .
36.3(34) . . .
43.1(35) . . .
43(4) . . .
38.6(32) . . .
30.3(29) . . .
39.9(33) . . .
36.8(34) . . .
37.3(34) . . .
37.7(33) . . .
33.8(31) . . .
35.6(32) . . .
40.0(34) . . .
36.1(31) . . .
34.7(31) . . .
32.7(30) . . .
30.4(28) . . .
46(4) . . .
40.9(34) . . .
39.2(34) . . .
31.2(29) . . .
33.6(31) . . .
30.3(30) . . .
35.1(31) . . .
39.3(32) . . .
39.9(34) . . .
31.5(32) . . .
39(4) . . .
31.8(29) . . .
37.6(33) . . .
34.4(31) . . .
37.1(33) . . .
38.1(34) . . .
27.3(27) . . .
30.5(29) . . .
36.0(31) . . .
36.5(33) . . .
30.7(30) . . .
35.1(31) . . .
29.4(29) . . .
31.4(30) . . .
32.0(30) . . .
31.8(32) . . .
33.5(32) . . .
32.5(30) . . .
27.6(27) . . .
31.4(31) . . .
35.4(33) . . .
27.8(29) . . .
33.5(31) . . .
37.6(33) . . .
33.8(32) . . .
29.8(29) . . .
33.4(31) . . .
35.7(32) . . .
31.7(30) . . .
32.6(31) . . .
31.6(28) . . .
31.1(29) . . .
36.8(32) . . .
38.3(34) . . .
40.8(35) . . .
39.3(35) . . .
37.1(32) . . .
39.7(33) . . .
30.8(30) . . .
32.4(32) . . .
50(4) . . .
36.9(32) . . .
36.0(32) . . .
38.7(33) . . .
33.4(32) . . .
32.2(29) . . .
40.0(33) . . .
32.8(30) . . .
33.2(31) . . .
31.0(31) . . .
30.4(29) . . .
34.7(31) . . .
35.1(31) . . .
36.8(32) . . .
36.8(34) . . .
42(4) . . .
34.4(31) . . .
27.5(27) . . .
30.9(28) . . .
33.0(31) . . .
39(4) . . .
35.1(31) . . .
39.3(34) . . .
27.0(27) . . .
33.5(33) . . .
32.8(31) . . .
23.8(26) . . .
34.3(32) . . .
37.2(32) . . .
33.1(31) . . .
29.0(28) . . .
38.3(32) . . .
33.8(31) . . .
34.9(31) . . .
31.2(30) . . .
27.8(29) . . .
38.1(31) . . .
37.5(33) . . .
27.0(27) . . .
34.0(30) . . .
28.3(29) . . .
32.0(29) . . .
28.6(28) . . .
27.6(29) . . .
38.3(35) . . .
36.7(32) . . .
42(4) . . .
27.1(29) . . .
33.5(33) . . .
34.8(31) . . .
34.2(31) . . .
36.8(32) . . .
30.6(31) . . .
36.0(33) . . .
37.3(34) . . .
33.6(31) . . .
32.7(30) . . .
34.8(31) . . .
29.9(29) . . .
27.9(27) . . .
31.2(29) . . .
33.5(30) . . .
35.5(33) . . .
34.6(34) . . .
35.0(34) . . .
31.5(30) . . .
37.2(32) . . .
29.8(28) . . .
33.4(31) . . .
33.9(33) . . .
28.2(28) . . .
31.5(30) . . .
29.8(30) . . .
28.2(30) . . .
34.7(34) . . .
36.6(32) . . .
29.6(28) . . .
33.4(30) . . .
29.9(29) . . .
24.4(26) . . .
28.9(28) . . .
35.3(32) . . .
29.4(29) . . .
31.3(31) . . .
33.7(31) . . .
31.3(30) . . .
34.8(32) . . .
43(4) . . .
30.6(29) . . .
32.0(30) . . .
31.0(29) . . .
34.1(31) . . .
31.9(30) . . .
36.6(33) . . .
33.5(32) . . .
28.3(28) . . .
37.3(33) . . .
37.6(33) . . .
50(4) . . .
38.0(33) . . .
39.9(33) . . .
30.5(29) . . .
29.5(31) . . .
32.2(31) . . .
25.7(28) . . .
35.7(32) . . .
26.5(27) . . .
34.5(33) . . .
37.5(32) . . .
31.9(29) . . .
25.7(26) . . .
30.0(31) . . .
39(4) . . .
32.6(30) . . .
38.5(34) . . .
36.5(32) . . .
32.1(30) . . .
29.6(28) . . .
38.7(33) . . .
31.5(29) . . .
27.8(28) . . .
30.3(30) . . .
34.1(33) . . .
43(4) . . .
30.2(28) . . .
32.1(29) . . .
37.4(32) . . .
30.8(31) . . .
31.7(31) . . .
35.6(31) . . .
34.2(30) . . .
31.9(31) . . .
35(4) . . .
26.4(27) . . .
26.2(26) . . .
35.3(32) . . .
27.1(27) . . .
37.0(32) . . .
38.8(33) . . .
36.4(31) . . .
29.9(30) . . .
29.3(29) . . .
41.6(35) . . .
35.0(31) . . .
33.9(31) . . .
28.4(29) . . .
29.9(29) . . .
31.0(29) . . .
30.8(29) . . .
33.9(30) . . .
36.1(33) . . .
26.8(29) . . .
30.0(29) . . .
31.3(29) . . .
30.6(28) . . .
31.3(30) . . .
29.3(31) . . .
35.2(31) . . .
35.5(32) . . .
39.7(33) . . .
33.5(31) . . .
30.8(31) . . .
40.2(34) . . .
36.2(31) . . .
40.5(33) . . .
37.8(32) . . .
36.6(34) . . .
28.9(28) . . .
26.3(26) . . .
32.9(30) . . .
38.1(34) . . .
35(4) . . .
26.9(27) . . .
25.0(26) . . .
32.4(30) . . .
29.0(29) . . .
37.7(32) . . .
36.2(31) . . .
30.7(29) . . .
35.1(32) . . .
38.0(33) . . .
33.8(32) . . .
28.4(28) . . .
31.9(29) . . .
34.4(31) . . .
36.9(34) . . .
31.7(29) . . .
36.8(32) . . .
43.0(34) . . .
27.2(27) . . .
32.4(32) . . .
31.8(30) . . .
35.9(31) . . .
31.8(30) . . .
42(4) . . .
39.0(34) . . .
38.1(34) . . .
33.5(31) . . .
33.0(30) . . .
28.9(29) . . .
34.3(33) . . .
35.4(33) . . .
35.3(31) . . .
30.2(29) . . .
31.8(29) . . .
29.2(28) . . .
32.3(32) . . .
28.5(28) . . .
39.4(35) . . .
30.4(30) . . .
39(4) . . .
30.6(30) . . .
31.3(29) . . .
35.9(32) . . .
31.1(29) . . .
40(4) . . .
34.4(32) . . .
27.0(27) . . .
31.9(29) . . .
42(4) . . .
31.2(29) . . .
33.5(31) . . .
37.3(32) . . .
33.1(30) . . .
29.6(31) . . .
29.2(30) . . .
35.7(33) . . .
35.9(30) . . .
45(4) . . .
30.4(29) . . .
27.6(28) . . .
32.8(30) . . .
35.3(31) . . .
37.5(32) . . .
37.0(34) . . .
31.7(30) . . .
33.6(30) . . .
35.0(31) . . .
35.1(30) . . .
39.0(34) . . .
26.9(28) . . .
35.2(31) . . .
38.3(32) . . .
27.4(28) . . .
32.5(34) . . .
32.7(33) . . .
27.7(27) . . .
39.7(33) . . .
33.0(31) . . .
31.0(29) . . .
39.4(32) . . .
30.8(29) . . .
29.1(28) . . .
33.9(33) . . .
28.8(29) . . .
33.8(31) . . .
27.1(28) . . .
32.5(30) . . .
28.0(29) . . .
30.8(32) . . .
28.1(29) . . .
28.0(28) . . .
35.4(31) . . .
34.8(30) . . .
39.8(34) . . .
30.0(29) . . .
33.5(29) . . .
36.0(32) . . .
30.8(31) . . .
32.3(30) . . .
40.3(34) . . .
31.3(30) . . .
38.5(32) . . .
40.0(33) . . .
32.8(30) . . .
33.6(31) . . .
36.3(32) . . .
33.2(31) . . .
29.3(29) . . .
25.6(30) . . .
35.0(32) . . .
32.0(29) . . .
25.1(27) . . .
24.8(28) . . .
26.3(29) . . .
32.4(31) . . .
38.4(32) . . .
38.6(33) . . .
37.3(32) . . .
47(4) . . .
38(4) . . .
29.8(29) . . .
26.7(27) . . .
44(4) . . .
33.3(30) . . .
29.3(29) . . .
38.4(32) . . .
30.9(29) . . .
24.5(26) . . .
32.0(31) . . .
32.8(31) . . .
26.6(26) . . .
31.8(29) . . .
39(4) . . .
37.0(35) . . .
35.9(31) . . .
36.3(31) . . .
35.3(31) . . .
28.4(28) . . .
27.4(29) . . .
30.7(29) . . .
35.8(32) . . .
36.4(33) . . .
35.0(34) . . .
35.7(32) . . .
40.2(33) . . .
25.7(27) . . .
27.2(28) . . .
39(4) . . .
31.4(29) . . .
36.9(32) . . .
23.3(26) . . .
26.2(26) . . .
38(4) . . .
27.4(30) . . .
33.1(31) . . .
35.5(31) . . .
33.6(30) . . .
32.7(31) . . .
32.8(30) . . .
34.3(31) . . .
35.4(33) . . .
33.8(32) . . .
42(4) . . .
27.2(28) . . .
32.4(30) . . .
37.4(34) . . .
36.5(33) . . .
37.6(33) . . .
32.2(29) . . .
39.8(33) . . .
43(4) . . .
36.5(32) . . .
34.1(32) . . .
31.9(31) . . .
38.7(32) . . .
38.5(33) . . .
35.7(32) . . .
41(4) . . .
40.1(33) . . .
34.8(31) . . .
33.8(32) . . .
34.0(33) . . .
33.5(32) . . .
28.0(28) . . .
30.2(29) . . .
32.5(32) . . .
31.6(33) . . .
31.5(31) . . .
35.3(31) . . .
31.4(29) . . .
31.0(30) . . .
34.1(33) . . .
37.8(32) . . .
40.6(34) . . .
36.8(31) . . .
30.1(29) . . .
33.5(31) . . .
33.4(30) . . .
29.5(28) . . .
27.2(28) . . .
24.8(28) . . .
30.8(33) . . .
27.8(28) . . .
37.8(32) . . .
33.6(34) . . .
33.3(32) . . .
37.6(34) . . .
37.7(32) . . .
34.2(31) . . .
32.7(30) . . .
30.8(30) . . .
29.0(30) . . .
26.5(27) . . .
35.2(31) . . .
32.8(30) . . .
27.3(28) . . .
36.3(33) . . .
45.5(35) . . .
39.0(33) . . .
27.6(27) . . .
30.1(30) . . .
35.6(33) . . .
40.0(34) . . .
35.7(31) . . .
35.0(33) . . .
30.2(30) . . .
34.3(32) . . .
38.7(33) . . .
42.5(34) . . .
36.7(32) . . .
36.2(35) . . .
30.4(29) . . .
41.7(34) . . .
43(4) . . .
35.3(32) . . .
36.8(34) . . .
39.3(34) . . .
30.7(29) . . .
27.1(26) . . .
35.6(34) . . .
31.1(32) . . .
34.1(31) . . .
46(4) . . .
35.9(32) . . .
32.0(33) . . .
23.5(27) . . .
24.1(27) . . .
36.0(32) . . .
31.0(29) . . .
31.0(29) . . .
38.2(34) . . .
31.5(30) . . .
34.7(31) . . .
39.4(33) . . .
29.2(28) . . .
33.2(32) . . .
35.2(33) . . .
34.5(31) . . .
29.1(29) . . .
33.0(33) . . .
40.2(34) . . .
34.5(30) . . .
35.3(31) . . .
33.0(30) . . .
24.1(26) . . .
37.5(34) . . .
29.0(29) . . .
34.0(31) . . .
35.3(32) . . .
27.9(27) . . .
33.0(30) . . .
38.2(35) . . .
30.8(30) . . .
41.8(34) . . .
37.2(34) . . .
33.9(32) . . .
31.2(29) . . .
36.7(32) . . .
29.0(29) . . .
39(4) . . .
25.4(26) . . .
30.8(29) . . .
33.3(30) . . .
43(4) . . .
28.7(32) . . .
26.1(29) . . .
35.2(32) . . .
32.4(30) . . .
38.5(33) . . .
40(4) . . .
29.9(30) . . .
34.4(31) . . .
33.6(30) . . .
32.7(31) . . .
31.3(31) . . .
33.9(31) . . .
32.7(30) . . .
33.6(30) . . .
36.4(34) . . .
32.3(30) . . .
33.6(31) . . .
29.3(28) . . .
27.0(28) . . .
23.1(25) . . .
33.8(31) . . .
31.2(29) . . .
30.3(29) . . .
34.0(31) . . .
30.4(31) . . .
29.9(31) . . .
24.2(26) . . .
31.3(29) . . .
33.5(30) . . .
36.0(32) . . .
32.8(31) . . .
32.0(29) . . .
30.3(29) . . .
32.5(30) . . .
31.1(31) . . .
32.3(30) . . .
35.9(31) . . .
39.9(33) . . .
34.0(31) . . .
40.5(35) . . .
37.9(32) . . .
35.8(31) . . .
32.2(30) . . .
41.7(35) . . .
28.3(27) . . .
30.5(31) . . .
38.5(32) . . .
32.3(31) . . .
29.9(29) . . .
37.0(35) . . .
33.4(34) . . .
40.1(33) . . .
34.8(31) . . .
35.7(32) . . .
47(4) . . .
33.6(32) . . .
38.5(32) . . .
34.0(30) . . .
33.9(30) . . .
31.3(29) . . .
38.5(33) . . .
33.7(30) . . .
27.9(28) . . .
28.2(28) . . .
34.0(32) . . .
26.5(26) . . .
37.2(32) . . .
35.3(31) . . .
32.8(30) . . .
35.3(32) . . .
31.8(30) . . .
40.9(33) . . .
38.5(32) . . .
29.6(28) . . .
26.4(28) . . .
30.3(30) . . .
43.2(34) . . .
33.6(31) . . .
34.1(32) . . .
31.5(30) . . .
31.9(31) . . .
38.0(32) . . .
39.8(34) . . .
34.5(32) . . .
32.6(31) . . .
37.1(33) . . .
30.9(29) . . .
46(4) . . .
35.4(31) . . .
30.8(28) . . .
26.3(26) . . .
29.1(28) . . .
28.0(30) . . .
36.4(33) . . .
38.5(35) . . .
22.5(25) . . .
27.7(27) . . .
29.9(29) . . .
31.8(32) . . .
26.7(27) . . .
35.6(32) . . .
30.6(28) . . .
34.3(31) . . .
31.6(29) . . .
40.7(34) . . .
32.9(30) . . .
33.7(30) . . .
43(4) . . .
25.7(27) . . .
32.4(30) . . .
31.7(29) . . .
32.3(30) . . .
36.4(35) . . .
28.6(29) . . .
38.8(33) . . .
27.9(27) . . .
28.1(28) . . .
36(4) . . .
27.7(29) . . .
31.2(32) . . .
34.5(31) . . .
34.7(31) . . .
36.6(34) . . .
30.1(31) . . .
39(4) . . .
37.0(31) . . .
28.3(28) . . .
35.2(33) . . .
30.2(30) . . .
34.1(33) . . .
33.3(30) . . .
46(4) . . .
42.1(34) . . .
43(4) . . .
31.6(31) . . .
35.5(31) . . .
33.1(30) . . .
33.4(31) . . .
25.6(26) . . .
36.4(33) . . .
36.2(31) . . .
33.1(30) . . .
30.1(29) . . .
37.6(33) . . .
35.9(32) . . .
35.0(31) . . .
30.3(29) . . .
44(4) . . .
30.2(29) . . .
29.8(29) . . .
37.5(32) . . .
29.1(28) . . .
38.2(35) . . .
36.1(34) . . .
35.6(31) . . .
35.8(31) . . .
34.0(31) . . .
34.9(34) . . .
25.7(27) . . .
30.9(29) . . .
35.2(31) . . .
28.2(30) . . .
28.5(31) . . .
36.9(33) . . .
31.3(29) . . .
32.3(29) . . .
40.4(34) . . .
28.1(27) . . .
34.2(31) . . .
35.5(32) . . .
30.4(30) . . .
32.6(31) . . .
26.2(28) . . .
37.0(33) . . .
32.2(30) . . .
34.7(32) . . .
34.1(32) . . .
25.9(27) . . .
31.9(30) . . .
28.4(28) . . .
37.5(32) . . .
loop_
_refln_index_h
_refln_index_k
_refln_index_l
_refln_observed_status
_refln_F_squared_meas
_refln_F_squared_calc
_refln_phase_calc
_refln_d_spacing
_gsas_i100_meas
0 2 0 o 1426.921 1389.970 180.00 8.39509 6.30
0 0 2 o 540.468 8.178 180.00 6.37687 1.38
1 0 1 o 13392.845 13940.422 0.00 5.88285 58.10
0 2 2 o 30921.801 30880.178 0.00 5.07801 100.00
0 3 1 o 1166.640 1290.701 180.00 5.12498 3.84
1 2 1 o 1814.984 1753.112 0.00 4.81772 10.57
1 1 2 o 4212.198 4138.121 0.00 4.43303 20.78
0 1 3 o 608.842 46.240 0.00 4.12120 1.30
0 4 0 o 3349.345 831.627 0.00 4.19754 3.70
1 0 3 o 799.796 196.969 180.00 3.57878 1.29
1 3 2 o 3666.927 3719.978 0.00 3.55191 11.63
0 0 4 o 368.345 171.091 180.00 3.18844 0.24
0 4 2 o 9.165 5.918 0.00 3.50614 0.01
0 3 3 o 11584.974 11314.535 0.00 3.38534 16.69
1 4 1 o 900.617 937.742 180.00 3.41691 2.64
1 2 3 o 1009.008 1180.443 0.00 3.29213 2.75
0 5 1 o 59.852 87.201 180.00 3.24736 0.08
2 0 0 o 2264.698 2303.772 180.00 3.31517 1.57
0 2 4 o 2721.297 2237.742 0.00 2.98070 3.04
2 1 1 o 994.412 1017.003 180.00 3.15151 2.49
2 2 0 o 198.686 188.988 0.00 3.08345 0.24
1 1 4 o 86.221 43.452 0.00 2.83228 0.17
2 0 2 o 438.278 364.779 0.00 2.94142 0.48
0 6 0 o 1117.568 1488.662 0.00 2.79836 0.55
2 3 1 o 816.646 919.261 0.00 2.78356 1.59
2 2 2 o 2298.846 2414.265 180.00 2.77596 4.46
0 1 5 o 2041.886 2061.546 180.00 2.52181 1.64
1 4 3 o 5009.753 5234.354 0.00 2.72333 9.37
1 5 2 o 3021.190 2899.970 180.00 2.71144 5.60
1 3 4 o 80.679 98.545 0.00 2.55623 0.13
2 1 3 o 1402.065 1368.738 0.00 2.58313 2.36
2 4 0 o 1698.848 1791.961 180.00 2.60162 1.45
0 5 3 o 521.201 603.472 180.00 2.63513 0.46
0 4 4 o 10665.257 11965.337 0.00 2.53901 8.68
0 6 2 o 98.046 134.138 0.00 2.56249 0.08
1 6 1 o 767.621 727.054 0.00 2.52703 1.24
1 0 5 o 608.143 356.407 180.00 2.38066 0.44
0 3 5 o 279.075 234.946 0.00 2.32106 0.19
0 7 1 o 349.858 309.581 0.00 2.35727 0.25
1 2 5 o 681.899 481.441 0.00 2.29035 0.90
2 0 4 o 3167.500 2495.337 180.00 2.29806 2.12
2 3 3 o 110.381 109.352 180.00 2.36860 0.16
2 4 2 o 94.360 82.232 180.00 2.40886 0.14
2 5 1 o 0.002 0.001 0.00 2.31983 0.00
0 0 6 o 3994.050 4045.863 0.00 2.12562 1.14
2 2 4 o 18.706 10.454 0.00 2.21652 0.02
0 2 6 o 89.991 112.183 180.00 2.06060 0.05
1 5 4 o 5494.463 5505.266 0.00 2.18325 6.63
0 8 0 o 43.669 32.825 180.00 2.09877 0.01
1 6 3 o 5073.084 4728.894 180.00 2.20445 6.24
2 6 0 o 1626.511 1518.760 180.00 2.13839 0.94
1 1 6 o 820.893 793.101 180.00 2.00960 0.84
3 0 1 o 3030.157 2754.983 180.00 2.17765 1.82
1 4 5 o 3.418 3.511 180.00 2.07079 0.00
1 7 2 o 2481.008 2535.463 0.00 2.12644 2.84
2 1 5 o 319.101 303.029 180.00 2.00711 0.33
0 6 4 o 9397.660 7607.987 180.00 2.10321 5.27
0 7 3 o 6753.633 5823.834 0.00 2.08903 3.73
0 5 5 o 20528.924 21146.750 0.00 2.03121 10.74
3 2 1 o 45.605 46.457 0.00 2.10789 0.05
3 1 2 o 2821.245 2920.163 180.00 2.07228 3.07
2 5 3 o 364.042 361.706 0.00 2.06284 0.39
2 4 4 o 1396.920 1426.369 180.00 2.01574 1.44
2 6 2 o 484.930 487.456 180.00 2.02743 0.51
1 8 1 o 814.590 811.188 180.00 1.97674 0.81
0 8 2 o 3085.215 2623.469 180.00 1.99357 1.56
1 3 6 o 724.214 585.694 0.00 1.90348 0.67
0 4 6 o 1866.064 1436.354 180.00 1.89634 0.85
3 0 3 o 2584.738 2511.326 0.00 1.96095 1.26
2 3 5 o 1205.038 957.258 0.00 1.90136 1.11
0 1 7 o 435.540 539.033 0.00 1.81133 0.18
2 7 1 o 300.578 342.161 180.00 1.92112 0.28
3 3 2 o 1249.521 793.503 0.00 1.95649 1.21
3 2 3 o 5273.656 4440.308 180.00 1.90955 4.89
3 4 1 o 954.618 529.286 180.00 1.93301 0.91
2 0 6 o 24.195 41.687 180.00 1.78939 0.01
0 9 1 o 3412.589 3149.844 0.00 1.84593 1.48
1 0 7 o 969.078 1106.761 0.00 1.75684 0.38
0 3 7 o 1133.687 1391.306 0.00 1.73247 0.43
1 2 7 o 596.077 635.216 180.00 1.71959 0.45
3 1 4 o 3153.104 3114.795 0.00 1.80587 2.62
2 2 6 o 1568.599 1602.011 180.00 1.75008 1.22
1 6 5 o 270.558 367.936 0.00 1.81326 0.23
1 7 4 o 471.260 421.866 180.00 1.84138 0.41
1 8 3 o 93.764 100.800 0.00 1.81042 0.08
2 8 0 o 72.483 66.785 0.00 1.77328 0.03
1 5 6 o 1208.457 1517.056 0.00 1.73357 0.93
3 4 3 o 334.823 314.154 180.00 1.77664 0.27
2 6 4 o 1416.141 1340.030 0.00 1.77596 1.14
2 5 5 o 2038.536 2559.474 180.00 1.73196 1.56
2 7 3 o 1595.497 1509.074 180.00 1.76740 1.27
1 9 2 o 8.916 10.993 0.00 1.72860 0.01
3 5 2 o 466.471 435.403 0.00 1.77332 0.37
0 0 8 o 76.836 171.465 0.00 1.59422 0.01
0 7 5 o 1449.932 1337.324 180.00 1.74738 0.56
3 3 4 o 177.966 215.516 180.00 1.72769 0.14
0 10 0 o 9856.015 11816.122 180.00 1.67902 1.77
0 6 6 o 4320.206 6335.843 0.00 1.69267 1.58
0 8 4 o 921.768 787.853 0.00 1.75307 0.36
2 8 2 o 2.229 2.861 0.00 1.70846 0.00
0 9 3 o 99.004 126.137 180.00 1.70833 0.04
3 6 1 o 1775.898 1580.866 180.00 1.71859 1.34
1 4 7 o 222.777 303.862 180.00 1.62062 0.15
3 0 5 o 2234.968 2862.407 180.00 1.67033 0.80
2 4 6 o 1647.250 1732.755 0.00 1.64606 1.14
2 1 7 o 161.982 295.182 0.00 1.58954 0.10
0 2 8 o 506.392 493.953 180.00 1.56623 0.16
0 5 7 o 14.956 30.208 0.00 1.60143 0.00
3 2 5 o 13.827 15.048 0.00 1.63822 0.01
1 1 8 o 798.642 743.275 0.00 1.54348 0.49
0 10 2 o 367.683 354.868 0.00 1.62368 0.12
1 10 1 o 256.991 632.597 180.00 1.61455 0.17
2 9 1 o 11.420 34.245 180.00 1.61277 0.01
4 0 0 o 2012.976 2356.373 0.00 1.65758 0.35
2 3 7 o 2304.575 2049.691 180.00 1.53545 1.39
4 1 1 o 1143.156 899.112 0.00 1.63594 0.78
1 3 8 o 223.044 177.037 0.00 1.49381 0.13
4 2 0 o 437.766 198.903 180.00 1.62619 0.15
0 4 8 o 0.116 0.096 180.00 1.49035 0.00
3 5 4 o 179.971 437.699 180.00 1.59766 0.12
3 6 3 o 378.855 643.741 0.00 1.60591 0.25
4 0 2 o 90.406 107.103 180.00 1.60427 0.03
3 1 6 o 6.838 4.984 180.00 1.52570 0.00
3 7 2 o 1760.356 1974.744 180.00 1.57499 1.12
3 4 5 o 66.687 55.908 180.00 1.55197 0.04
1 7 6 o 308.506 287.380 0.00 1.54693 0.19
1 8 5 o 410.394 456.772 180.00 1.57433 0.26
0 11 1 o 5953.404 5290.878 180.00 1.51556 1.75
4 2 2 o 1390.187 1624.742 0.00 1.57576 0.88
1 9 4 o 212.207 205.273 0.00 1.56472 0.13
4 3 1 o 732.229 691.157 180.00 1.57714 0.47
0 1 9 o 1714.813 2369.933 0.00 1.41206 0.44
1 6 7 o 1076.008 903.755 0.00 1.48792 0.61
2 7 5 o 2176.520 2002.481 0.00 1.54580 1.33
1 10 3 o 20.682 18.231 180.00 1.52004 0.01
2 0 8 o 1211.150 1203.124 180.00 1.43673 0.32
2 6 6 o 2648.535 2958.082 180.00 1.50754 1.54
4 1 3 o 522.804 434.709 180.00 1.53785 0.32
2 8 4 o 2157.815 2233.707 180.00 1.54973 1.33
2 10 0 o 354.274 241.471 0.00 1.49787 0.10
2 9 3 o 231.244 211.337 0.00 1.51856 0.14
4 4 0 o 1268.297 1447.206 0.00 1.54173 0.39
3 3 6 o 7.766 5.499 180.00 1.47768 0.00
3 8 1 o 117.758 115.645 0.00 1.51117 0.07
2 2 8 o 360.963 534.814 0.00 1.41614 0.19
0 8 6 o 1358.635 1191.608 180.00 1.49346 0.39
1 0 9 o 209.203 397.528 180.00 1.38579 0.05
2 5 7 o 2152.736 1949.139 0.00 1.44200 1.15
0 7 7 o 4185.006 4461.071 0.00 1.45086 1.13
1 11 2 o 261.577 249.372 180.00 1.44859 0.14
1 5 8 o 98.843 120.382 180.00 1.40735 0.05
2 10 2 o 203.329 206.848 180.00 1.45818 0.11
0 10 4 o 173.622 155.421 180.00 1.48562 0.05
0 3 9 o 36.802 57.734 0.00 1.37373 0.01
4 4 2 o 1848.661 1191.256 180.00 1.49855 1.07
0 9 5 o 552.307 697.867 0.00 1.50581 0.16
4 3 3 o 2473.082 2008.194 0.00 1.48871 1.41
4 0 4 o 796.321 948.780 0.00 1.47071 0.22
1 2 9 o 42.302 49.576 180.00 1.36728 0.02
3 0 7 o 1340.516 1556.623 180.00 1.40584 0.34
4 5 1 o 2366.492 2254.906 0.00 1.47637 1.33
0 11 3 o 316.634 301.874 0.00 1.43659 0.08
4 2 4 o 659.550 622.063 180.00 1.44865 0.36
3 2 7 o 8.139 13.495 0.00 1.38654 0.00
0 12 0 o 1623.250 2502.068 0.00 1.39918 0.20
0 6 8 o 2.931 5.599 0.00 1.38520 0.00
3 6 5 o 17.939 18.172 180.00 1.43426 0.01
2 4 8 o 2119.967 1968.378 180.00 1.35931 1.01
3 7 4 o 62.982 59.993 0.00 1.44805 0.03
3 8 3 o 557.644 637.093 180.00 1.43285 0.29
4 6 0 o 3736.594 3596.788 180.00 1.42616 0.98
3 5 6 o 167.392 333.676 180.00 1.39383 0.08
1 4 9 o 46.981 51.851 0.00 1.31593 0.02
2 11 1 o 63.392 420.769 0.00 1.37836 0.03
4 1 5 o 625.711 1109.246 0.00 1.38515 0.31
1 12 1 o 23.094 21.040 180.00 1.36121 0.01
0 0 10 o 4631.035 5125.071 180.00 1.27537 0.49
0 12 2 o 3516.792 4381.283 180.00 1.36667 0.85
3 9 2 o 5.726 9.747 180.00 1.39125 0.00
2 1 9 o 1228.880 1273.447 180.00 1.29912 0.54
4 5 3 o 403.982 357.724 180.00 1.40308 0.21
0 5 9 o 19.188 19.962 0.00 1.30559 0.00
4 4 4 o 585.178 741.290 0.00 1.38798 0.29
4 6 2 o 583.413 1027.789 0.00 1.39178 0.29
3 4 7 o 42.205 55.228 0.00 1.33306 0.02
1 8 7 o 31.299 83.891 0.00 1.34716 0.01
1 9 6 o 265.343 236.749 180.00 1.37180 0.13
2 8 6 o 3028.549 2595.320 0.00 1.36167 1.45
0 2 10 o 248.674 386.219 0.00 1.26091 0.05
4 3 5 o 48.289 93.072 180.00 1.34892 0.02
2 7 7 o 2548.240 3017.366 180.00 1.32915 1.16
2 3 9 o 442.367 572.300 0.00 1.26909 0.19
1 10 5 o 169.672 133.857 0.00 1.37210 0.08
2 9 5 o 3348.887 3195.940 180.00 1.37101 1.63
1 7 8 o 849.857 831.968 0.00 1.30186 0.37
3 1 8 o 1332.628 1448.655 180.00 1.28913 0.57
4 7 1 o 2661.348 2249.208 180.00 1.35592 1.26
2 10 4 o 1112.507 942.014 0.00 1.35572 0.53
1 11 4 o 6.845 29.458 180.00 1.34800 0.00
1 1 10 o 0.000 89.107 0.00 1.24895 0.00
3 10 1 o 154.930 180.113 0.00 1.32968 0.07
4 0 6 o 1122.706 1149.176 180.00 1.30713 0.25
2 11 3 o 965.743 885.192 180.00 1.31815 0.43
2 12 0 o 453.356 499.737 180.00 1.28907 0.10
2 6 8 o 1852.699 1797.258 0.00 1.27812 0.79
0 13 1 o 2465.473 2540.291 0.00 1.28498 0.53
1 12 3 o 128.800 126.431 180.00 1.30313 0.06
4 2 6 o 332.588 355.523 0.00 1.29157 0.14
3 3 8 o 13.625 21.120 180.00 1.25977 0.01
1 3 10 o 0.571 1.029 180.00 1.22219 0.00
0 4 10 o 0.138 0.230 0.00 1.22029 0.00
0 9 7 o 4.761 4.729 180.00 1.30347 0.00
1 6 9 o 0.000 127.251 180.00 1.24185 0.00
0 8 8 o 620.588 836.267 0.00 1.26950 0.13
4 8 0 o 1755.678 1549.442 0.00 1.30081 0.39
0 10 6 o 56.457 46.700 180.00 1.31756 0.01
3 7 6 o 65.311 69.632 0.00 1.29114 0.03
0 11 5 o 388.830 369.278 0.00 1.30978 0.09
5 0 1 o 2621.290 2358.960 0.00 1.31896 0.59
3 8 5 o 32.480 33.641 180.00 1.30694 0.01
4 6 4 o 170.029 147.809 180.00 1.30186 0.07
3 9 4 o 114.146 97.965 180.00 1.30143 0.05
0 12 4 o 285.430 271.152 180.00 1.28124 0.06
2 12 2 o 931.449 1206.016 0.00 1.26351 0.39
4 7 3 o 452.704 578.551 0.00 1.29848 0.20
4 5 5 o 390.309 382.635 0.00 1.28423 0.17
5 2 1 o 568.587 552.982 0.00 1.30297 0.25
3 6 7 o 293.509 684.775 180.00 1.25623 0.12
2 5 9 o 1086.378 1539.067 180.00 1.21478 0.42
5 1 2 o 480.229 516.853 0.00 1.29443 0.21
1 13 2 o 0.000 43.156 180.00 1.24339 0.00
3 10 3 o 187.726 195.569 180.00 1.27538 0.08
0 7 9 o 399.093 643.343 0.00 1.22006 0.08
4 8 2 o 1497.482 1638.499 180.00 1.27456 0.63
4 4 6 o 0.000 23.047 180.00 1.24802 0.00
0 13 3 o 222.770 790.187 180.00 1.23578 0.04
4 1 7 o 246.760 411.256 180.00 1.22284 0.10
5 0 3 o 15.067 14.782 0.00 1.26591 0.00
5 3 2 o 483.539 553.508 0.00 1.26471 0.20
3 11 2 o 301.552 584.903 0.00 1.23229 0.12
5 4 1 o 8.930 12.870 180.00 1.25830 0.00
4 9 1 o 830.473 1281.345 0.00 1.23332 0.33
5 2 3 o 142.384 473.580 0.00 1.25176 0.06
5 1 4 o 6.729 10.947 0.00 1.22115 0.00
2 9 7 o 42.007 49.640 0.00 1.21307 0.02
1 10 7 o 89.614 108.234 180.00 1.21382 0.03
2 10 6 o 164.987 161.418 180.00 1.22441 0.06
2 11 5 o 43.194 67.460 180.00 1.21815 0.02
5 4 3 o 997.891 1234.801 0.00 1.21199 0.38
1 11 6 o 64.546 66.682 0.00 1.21871 0.02
5 5 2 o 330.282 347.127 180.00 1.21094 0.13
