#------------------------------------------------------------------------------
#$Date: 2016-03-21 01:21:50 +0200 (Mon, 21 Mar 2016) $
#$Revision: 178377 $
#$URL: svn://www.crystallography.net/cod/cif/4/00/20/4002089.cif $
#------------------------------------------------------------------------------
#
# This file is available in the Crystallography Open Database (COD),
# http://www.crystallography.net/
#
# All data on this site have been placed in the public domain by the
# contributors.
#
data_4002089
loop_
_publ_author_name
'Nanthamathee, Chompoonoot'
'Ling, Sanliang'
'Slater, Ben'
'Attfield, Martin P.'
_publ_section_title
;
 Contradistinct Thermoresponsive Behavior of Isostructural MIL-53 Type
 Metal--Organic Frameworks by Modifying the Framework Inorganic Anion
;
_journal_name_full               'Chemistry of Materials'
_journal_page_first              141223143002002
_journal_paper_doi               10.1021/cm503311x
_journal_year                    2014
_chemical_formula_sum            'C8 Al F O4'
_chemical_formula_weight         206.06
_chemical_name_systematic        ' ?'
_space_group_IT_number           74
_symmetry_cell_setting           orthorhombic
_symmetry_space_group_name_Hall  '-I 2b 2'
_symmetry_space_group_name_H-M   'I m m a'
_audit_creation_date             2014-08-28T13:16
_audit_creation_method           'from EXP file using GSAS2CIF'
_audit_update_record
' 2014-08-28T13:16  Initial CIF as created by GSAS2CIF'
_cell_angle_alpha                90.0
_cell_angle_beta                 90.0
_cell_angle_gamma                90.0
_cell_formula_units_Z            4
_cell_length_a                   6.56750(17)
_cell_length_b                   16.4026(5)
_cell_length_c                   13.1643(7)
_cell_volume                     1418.11(9)
_computing_structure_refinement  GSAS
_diffrn_radiation_polarisn_ratio 0.95
_diffrn_radiation_probe          x-ray
_diffrn_radiation_wavelength     0.825993
_exptl_absorpt_correction_T_max  1.00000
_exptl_absorpt_correction_T_min  1.00000
_exptl_absorpt_process_details
;   GSAS Absorption/surface roughness correction: function number 0
 No correction is applied.
;
_pd_block_id                     2014-08-28T13:16|350K|350K|
_pd_calc_method                  'Rietveld Refinement'
_pd_instr_location               ' ?'
_pd_meas_2theta_range_inc        0.003
_pd_meas_2theta_range_max        149.9955
_pd_meas_2theta_range_min        0.0015
_pd_meas_number_of_points        49999
_pd_phase_name                   300K
_pd_proc_2theta_range_inc        0.003
_pd_proc_2theta_range_max        150.00537
_pd_proc_2theta_range_min        0.011369
_pd_proc_info_datetime           2014-08-28T13:16:24
_pd_proc_info_excluded_regions   ' ?'
_pd_proc_ls_background_function
;   GSAS Background function number 1 with  2 terms.
 Shifted Chebyshev function of 1st kind
      1:    0.00000     2:    0.00000    
;
_pd_proc_ls_peak_cutoff          0.00010
_pd_proc_ls_profile_function
;
 CW Profile function number 4 with  18 terms
 Pseudovoigt profile coefficients as parameterized in
 P. Thompson, D.E. Cox & J.B. Hastings (1987). J. Appl. Cryst.,20,79-83.
 Asymmetry correction of L.W. Finger, D.E. Cox & A. P. Jephcoat (1994).
 J. Appl. Cryst.,27,892-900.
 Microstrain broadening by P.W. Stephens,  (1999). J. Appl. Cryst.,32,281-289.
 Peak tails are ignored  where the intensity is below 0.0001 times the peak
   Aniso. broadening axis   1.0   0.0   1.0
;
_pd_proc_ls_prof_R_factor        0.0333
_pd_proc_ls_prof_wR_expected     0.0247
_pd_proc_ls_prof_wR_factor       0.0428
_pd_proc_number_of_points        49999
_pd_spec_mounting                ' ?'
_refine_ls_goodness_of_fit_all   1.74
_refine_ls_matrix_type           full
_refine_ls_number_parameters     30
_refine_ls_number_restraints     0
_refine_ls_R_Fsqd_factor         0.18476
_refine_ls_shift/su_max          0.04
_refine_ls_shift/su_mean         0.01
_reflns_d_resolution_high        1.209
_reflns_d_resolution_low         8.201
_reflns_limit_h_max              5
_reflns_limit_h_min              0
_reflns_limit_k_max              13
_reflns_limit_k_min              0
_reflns_limit_l_max              11
_reflns_limit_l_min              0
_reflns_number_total             252
_cod_data_source_file            alf350K.cif
_cod_data_source_block           350K_publ
_cod_depositor_comments
;
The following automatic conversions were performed:

'_geom_bond_publ_flag' value 'N' changed to 'n' according to
/home/saulius/struct/COD-crude-data--automatic-downloads/rss-feeds/ACS/lib/dictionaries/cif_core.dic
dictionary named 'cif_core.dic' version 2.4.2 from 2011-04-26 (18
times).

'_geom_angle_publ_flag' value 'N' changed to 'n' according
to
/home/saulius/struct/COD-crude-data--automatic-downloads/rss-feeds/ACS/lib/dictionaries/cif_core.dic
dictionary named 'cif_core.dic' version 2.4.2 from 2011-04-26 (24
times).

Automatic conversion script
Id: cif_fix_values 2935 2014-11-11 08:27:57Z andrius 
;
_cod_database_code               4002089
#BEGIN Tags that were not found in dictionaries:
_gsas_exptl_extinct_corr_t_min   1.00000
_gsas_exptl_extinct_corr_t_max   1.00000
#END Tags that were not found in dictionaries
loop_
_symmetry_equiv_pos_site_id
_symmetry_equiv_pos_as_xyz
1 +x,+y,+z
2 -x,+y,+z
3 +x,-y+1/2,+z
4 -x,-y+1/2,+z
-1 -x,-y,-z
-2 +x,-y,-z
-3 -x,+y+1/2,-z
-4 +x,+y+1/2,-z
101 +x+1/2,+y+1/2,+z+1/2
102 -x+1/2,+y+1/2,+z+1/2
103 +x+1/2,-y,+z+1/2
104 -x+1/2,-y,+z+1/2
-101 -x+1/2,-y+1/2,-z+1/2
-102 +x+1/2,-y+1/2,-z+1/2
-103 -x+1/2,+y,-z+1/2
-104 +x+1/2,+y,-z+1/2
loop_
_atom_site_type_symbol
_atom_site_label
_atom_site_fract_x
_atom_site_fract_y
_atom_site_fract_z
_atom_site_occupancy
_atom_site_thermal_displace_type
_atom_site_U_iso_or_equiv
_atom_site_symmetry_multiplicity
Al Al1 0.25 0.25 0.75 1.0 Uiso 0.0147(16) 4
F F1 0.0 0.25 0.6931(6) 1.0 Uiso 0.0166(14) 4
O O1 0.1672(6) 0.16903(25) 0.84036(35) 1.0 Uiso 0.0166(14) 16
C C1 -0.1939(7) 0.0264(5) 0.9537(7) 1.0 Uiso 0.0278(24) 16
C C2 0.0 0.0641(6) 0.9490(9) 1.0 Uiso 0.0278(24) 8
C C3 0.0 0.1363(7) 0.8683(10) 1.0 Uiso 0.0278(24) 8
loop_
_atom_type_symbol
_atom_type_number_in_cell
_atom_type_scat_dispersion_real
_atom_type_scat_dispersion_imag
_atom_type_scat_Cromer_Mann_a1
_atom_type_scat_Cromer_Mann_a2
_atom_type_scat_Cromer_Mann_a3
_atom_type_scat_Cromer_Mann_a4
_atom_type_scat_Cromer_Mann_b1
_atom_type_scat_Cromer_Mann_b2
_atom_type_scat_Cromer_Mann_b3
_atom_type_scat_Cromer_Mann_b4
_atom_type_scat_Cromer_Mann_c
_atom_type_scat_source
Al 4.0 0.000 0.000 6.42020 3.03870 1.90020 0.74260 1.59360 31.5472 1.96460
85.0886 1.11510 International_Tables_Vol_C
F 4.0 0.000 0.000 3.53920 10.2825 2.64120 4.29440 1.51700 0.26150 1.02430
26.1476 0.27760 International_Tables_Vol_C
O 16.0 0.000 0.000 3.04850 13.2771 2.28680 5.70110 1.54630 0.32390 0.86700
32.9089 0.25080 International_Tables_Vol_C
C 32.0 0.000 0.000 2.31000 20.8439 1.02000 10.2075 1.58860 0.56870 0.86500
51.6512 0.21560 International_Tables_Vol_C
loop_
_geom_angle_atom_site_label_1
_geom_angle_atom_site_label_2
_geom_angle_atom_site_label_3
_geom_angle
_geom_angle_site_symmetry_1
_geom_angle_site_symmetry_3
_geom_angle_publ_flag
F1 Al1 F1 180.0 1_555 -101_546 n
F1 Al1 O1 89.97(19) 1_555 1_555 n
F1 Al1 O1 89.97(19) 1_555 3_555 n
F1 Al1 O1 90.03(19) 1_555 -101_566 n
F1 Al1 O1 90.03(19) 1_555 -103_566 n
F1 Al1 O1 90.03(19) -101_566 1_555 n
F1 Al1 O1 90.03(19) -101_566 3_555 n
F1 Al1 O1 89.97(19) -101_566 -101_566 n
F1 Al1 O1 89.97(19) -101_566 -103_566 n
O1 Al1 O1 90.89(31) 1_555 3_555 n
O1 Al1 O1 180.0 1_555 -101_566 n
O1 Al1 O1 89.11(31) 1_555 -103_566 n
O1 Al1 O1 89.11(31) 3_555 -101_566 n
O1 Al1 O1 180.0 3_555 -103_566 n
O1 Al1 O1 90.89(31) -101_566 -103_566 n
Al1 F1 Al1 131.0(5) 1_555 2_555 n
Al1 O1 C3 137.2(6) 1_555 1_555 n
C1 C1 C2 106.7(7) -2_557 1_555 n
C1 C2 C1 128.0(11) 1_555 2_555 n
C1 C2 C3 110.7(7) 1_555 1_555 n
C1 C2 C3 110.7(7) 2_555 1_555 n
O1 C3 O1 118.8(10) 1_555 2_555 n
O1 C3 C2 120.3(5) 1_555 1_555 n
O1 C3 C2 120.3(5) 2_555 1_555 n
loop_
_geom_bond_atom_site_label_1
_geom_bond_atom_site_label_2
_geom_bond_distance
_geom_bond_site_symmetry_2
_geom_bond_publ_flag
Al1 F1 1.8046(33) 1_555 n
Al1 F1 1.8046(33) -101_445 n
Al1 O1 1.8640(33) 1_555 n
Al1 O1 1.8640(33) 3_555 n
Al1 O1 1.8640(33) -101_445 n
Al1 O1 1.8640(33) -103_445 n
F1 Al1 1.8046(33) 1_555 n
F1 Al1 1.8046(33) 2_555 n
O1 Al1 1.8640(33) 1_555 n
O1 C3 1.276(5) 1_555 n
C1 C1 1.495(12) -2_557 n
C1 C2 1.417(6) 1_555 n
C2 C1 1.417(6) 1_555 n
C2 C1 1.417(6) 2_555 n
C2 C3 1.592(10) 1_555 n
C3 O1 1.276(5) 1_555 n
C3 O1 1.276(5) 2_555 n
C3 C2 1.592(10) 1_555 n
loop_
_pd_meas_intensity_total
_pd_proc_ls_weight
_pd_proc_intensity_bkg_calc
_pd_calc_intensity_total
15.9(21) 0.0 0.00 .
23.7(26) 0.0 0.00 .
21.9(24) 0.0 0.00 .
26.3(29) 0.0 0.00 .
56(4) 0.0 0.0 .
228(8) 0.0 0.0 .
166(7) 0.0 0.0 .
1066(17) 0.0 0.0 .
1919(23) 0.0 0.0 .
3734(33) 0.0 0.0 .
4308(34) 0.0 0.0 .
4211(34) 0.0 0.0 .
3984(34) 0.0 0.0 .
1481(22) 0.0 0.0 .
122(6) 0.0 0.0 .
72(4) 0.0 0.0 .
55(4) 0.0 0.0 .
33.2(30) 0.0 0.00 .
43(4) 0.0 0.0 .
71(5) 0.0 0.0 .
269(9) 0.0 0.0 .
394(10) 0.0 0.0 .
824(15) 0.0 0.0 .
1022(17) 0.0 0.0 .
1160(18) 0.0 0.0 .
1322(19) 0.0 0.0 .
1397(20) 0.0 0.0 .
1587(21) 0.0 0.0 .
1880(24) 0.0 0.0 .
1925(24) 0.0 0.0 .
2125(24) 0.0 0.0 .
2183(25) 0.0 0.0 .
1973(24) 0.0 0.0 .
1651(22) 0.0 0.0 .
1176(18) 0.0 0.0 .
705(14) 0.0 0.0 .
363(10) 0.0 0.0 .
243(9) 0.0 0.0 .
154(7) 0.0 0.0 .
79(5) 0.0 0.0 .
47(4) 0.0 0.0 .
32.4(33) 0.0 0.00 .
38(4) 0.0 0.0 .
28.2(29) 0.0 0.00 .
31.4(32) 0.0 0.00 .
29.6(28) 0.0 0.00 .
33.1(33) 0.0 0.00 .
28.0(28) 0.0 0.00 .
30.7(30) 0.0 0.00 .
28.0(27) 0.0 0.00 .
30.9(29) 0.0 0.00 .
33.1(31) 0.0 0.00 .
23.8(26) 0.0 0.00 .
27.9(29) 0.0 0.00 .
30.4(31) 0.0 0.00 .
34.0(31) 0.0 0.00 .
28.3(28) 0.0 0.00 .
35.7(34) 0.0 0.00 .
35.3(33) 0.0 0.00 .
22.4(24) 0.0 0.00 .
28.6(28) 0.0 0.00 .
40(4) 0.0 0.0 .
36.0(35) 0.0 0.00 .
33.5(32) 0.0 0.00 .
41.1(33) 0.0 0.00 .
34.7(31) 0.0 0.00 .
38.2(34) 0.0 0.00 .
29.4(29) 0.0 0.00 .
35.8(33) 0.0 0.00 .
34.3(30) 0.0 0.00 .
29.7(28) 0.0 0.00 .
30.2(29) 0.0 0.00 .
32.5(32) 0.0 0.00 .
41(4) 0.0 0.0 .
30.1(29) 0.0 0.00 .
38.9(33) 0.0 0.00 .
34.9(31) 0.0 0.00 .
35.0(31) 0.0 0.00 .
39.5(34) 0.0 0.00 .
39.7(32) 0.0 0.00 .
37.4(33) 0.0 0.00 .
37.3(33) 0.0 0.00 .
43(4) 0.0 0.0 .
39.9(34) 0.0 0.00 .
37.8(31) 0.0 0.00 .
37.1(32) 0.0 0.00 .
29.8(32) 0.0 0.00 .
40(4) 0.0 0.0 .
30.4(30) 0.0 0.00 .
31.3(29) 0.0 0.00 .
31.9(29) 0.0 0.00 .
45(4) 0.0 0.0 .
47(4) 0.0 0.0 .
45(4) 0.0 0.0 .
48(4) 0.0 0.0 .
67(4) 0.0 0.0 .
61(4) 0.0 0.0 .
81(5) 0.0 0.0 .
93(5) 0.0 0.0 .
96(5) 0.0 0.0 .
105(6) 0.0 0.0 .
109(6) 0.0 0.0 .
128(6) 0.0 0.0 .
130(6) 0.0 0.0 .
135(6) 0.0 0.0 .
149(7) 0.0 0.0 .
160(7) 0.0 0.0 .
163(7) 0.0 0.0 .
177(7) 0.0 0.0 .
203(7) 0.0 0.0 .
187(7) 0.0 0.0 .
198(8) 0.0 0.0 .
201(8) 0.0 0.0 .
197(7) 0.0 0.0 .
214(8) 0.0 0.0 .
240(8) 0.0 0.0 .
264(9) 0.0 0.0 .
240(8) 0.0 0.0 .
255(8) 0.0 0.0 .
281(9) 0.0 0.0 .
279(9) 0.0 0.0 .
268(9) 0.0 0.0 .
307(10) 0.0 0.0 .
290(9) 0.0 0.0 .
315(9) 0.0 0.0 .
323(9) 0.0 0.0 .
325(10) 0.0 0.0 .
328(10) 0.0 0.0 .
330(9) 0.0 0.0 .
358(10) 0.0 0.0 .
361(10) 0.0 0.0 .
379(11) 0.0 0.0 .
386(11) 0.0 0.0 .
403(10) 0.0 0.0 .
391(10) 0.0 0.0 .
413(11) 0.0 0.0 .
434(11) 0.0 0.0 .
424(11) 0.0 0.0 .
449(11) 0.0 0.0 .
463(11) 0.0 0.0 .
490(12) 0.0 0.0 .
469(12) 0.0 0.0 .
457(11) 0.0 0.0 .
461(11) 0.0 0.0 .
471(12) 0.0 0.0 .
491(12) 0.0 0.0 .
491(12) 0.0 0.0 .
504(12) 0.0 0.0 .
504(12) 0.0 0.0 .
503(12) 0.0 0.0 .
550(13) 0.0 0.0 .
525(12) 0.0 0.0 .
518(12) 0.0 0.0 .
485(11) 0.0 0.0 .
545(13) 0.0 0.0 .
498(12) 0.0 0.0 .
545(13) 0.0 0.0 .
497(12) 0.0 0.0 .
533(12) 0.0 0.0 .
552(13) 0.0 0.0 .
559(13) 0.0 0.0 .
553(13) 0.0 0.0 .
584(13) 0.0 0.0 .
581(13) 0.0 0.0 .
579(13) 0.0 0.0 .
586(14) 0.0 0.0 .
565(13) 0.0 0.0 .
593(13) 0.0 0.0 .
560(12) 0.0 0.0 .
580(13) 0.0 0.0 .
576(13) 0.0 0.0 .
586(13) 0.0 0.0 .
589(13) 0.0 0.0 .
607(13) 0.0 0.0 .
620(13) 0.0 0.0 .
616(14) 0.0 0.0 .
645(14) 0.0 0.0 .
628(13) 0.0 0.0 .
659(13) 0.0 0.0 .
658(14) 0.0 0.0 .
626(14) 0.0 0.0 .
612(13) 0.0 0.0 .
609(13) 0.0 0.0 .
614(13) 0.0 0.0 .
619(13) 0.0 0.0 .
614(13) 0.0 0.0 .
643(14) 0.0 0.0 .
634(13) 0.0 0.0 .
663(14) 0.0 0.0 .
676(14) 0.0 0.0 .
639(14) 0.0 0.0 .
643(13) 0.0 0.0 .
655(13) 0.0 0.0 .
666(14) 0.0 0.0 .
647(14) 0.0 0.0 .
651(14) 0.0 0.0 .
661(14) 0.0 0.0 .
689(14) 0.0 0.0 .
665(14) 0.0 0.0 .
665(14) 0.0 0.0 .
687(14) 0.0 0.0 .
698(14) 0.0 0.0 .
666(13) 0.0 0.0 .
739(15) 0.0 0.0 .
695(14) 0.0 0.0 .
716(14) 0.0 0.0 .
670(13) 0.0 0.0 .
671(13) 0.0 0.0 .
679(14) 0.0 0.0 .
711(15) 0.0 0.0 .
700(14) 0.0 0.0 .
742(14) 0.0 0.0 .
730(14) 0.0 0.0 .
719(14) 0.0 0.0 .
730(15) 0.0 0.0 .
734(15) 0.0 0.0 .
722(14) 0.0 0.0 .
757(14) 0.0 0.0 .
755(15) 0.0 0.0 .
765(15) 0.0 0.0 .
740(15) 0.0 0.0 .
728(14) 0.0 0.0 .
729(14) 0.0 0.0 .
757(15) 0.0 0.0 .
740(15) 0.0 0.0 .
743(15) 0.0 0.0 .
755(14) 0.0 0.0 .
756(14) 0.0 0.0 .
760(15) 0.0 0.0 .
803(16) 0.0 0.0 .
766(15) 0.0 0.0 .
784(15) 0.0 0.0 .
796(15) 0.0 0.0 .
782(15) 0.0 0.0 .
789(15) 0.0 0.0 .
774(15) 0.0 0.0 .
781(15) 0.0 0.0 .
833(15) 0.0 0.0 .
808(15) 0.0 0.0 .
775(15) 0.0 0.0 .
811(15) 0.0 0.0 .
815(15) 0.0 0.0 .
801(15) 0.0 0.0 .
806(15) 0.0 0.0 .
808(15) 0.0 0.0 .
846(15) 0.0 0.0 .
854(15) 0.0 0.0 .
818(15) 0.0 0.0 .
831(16) 0.0 0.0 .
809(15) 0.0 0.0 .
856(15) 0.0 0.0 .
828(15) 0.0 0.0 .
863(16) 0.0 0.0 .
830(16) 0.0 0.0 .
851(16) 0.0 0.0 .
847(15) 0.0 0.0 .
815(15) 0.0 0.0 .
864(16) 0.0 0.0 .
854(16) 0.0 0.0 .
865(16) 0.0 0.0 .
882(15) 0.0 0.0 .
836(15) 0.0 0.0 .
864(16) 0.0 0.0 .
877(16) 0.0 0.0 .
854(16) 0.0 0.0 .
875(15) 0.0 0.0 .
905(16) 0.0 0.0 .
837(16) 0.0 0.0 .
877(17) 0.0 0.0 .
813(15) 0.0 0.0 .
881(15) 0.0 0.0 .
906(16) 0.0 0.0 .
893(16) 0.0 0.0 .
877(16) 0.0 0.0 .
884(16) 0.0 0.0 .
897(16) 0.0 0.0 .
876(15) 0.0 0.0 .
911(16) 0.0 0.0 .
915(17) 0.0 0.0 .
915(16) 0.0 0.0 .
923(16) 0.0 0.0 .
872(16) 0.0 0.0 .
903(16) 0.0 0.0 .
869(16) 0.0 0.0 .
879(16) 0.0 0.0 .
906(16) 0.0 0.0 .
909(16) 0.0 0.0 .
902(16) 0.0 0.0 .
908(16) 0.0 0.0 .
973(17) 0.0 0.0 .
925(16) 0.0 0.0 .
931(16) 0.0 0.0 .
932(17) 0.0 0.0 .
907(16) 0.0 0.0 .
892(16) 0.0 0.0 .
891(15) 0.0 0.0 .
932(16) 0.0 0.0 .
913(16) 0.0 0.0 .
930(17) 0.0 0.0 .
925(16) 0.0 0.0 .
926(16) 0.0 0.0 .
937(17) 0.0 0.0 .
915(17) 0.0 0.0 .
931(16) 0.0 0.0 .
926(16) 0.0 0.0 .
961(16) 0.0 0.0 .
938(16) 0.0 0.0 .
969(17) 0.0 0.0 .
929(16) 0.0 0.0 .
927(16) 0.0 0.0 .
953(16) 0.0 0.0 .
920(16) 0.0 0.0 .
962(17) 0.0 0.0 .
952(17) 0.0 0.0 .
972(16) 0.0 0.0 .
981(16) 0.0 0.0 .
949(17) 0.0 0.0 .
937(17) 0.0 0.0 .
964(16) 0.0 0.0 .
972(16) 0.0 0.0 .
968(16) 0.0 0.0 .
982(17) 0.0 0.0 .
968(17) 0.0 0.0 .
989(17) 0.0 0.0 .
1021(17) 0.0 0.0 .
959(16) 0.0 0.0 .
1036(17) 0.0 0.0 .
1028(18) 0.0 0.0 .
998(17) 0.0 0.0 .
1008(16) 0.0 0.0 .
992(16) 0.0 0.0 .
969(17) 0.0 0.0 .
982(17) 0.0 0.0 .
1030(17) 0.0 0.0 .
1033(17) 0.0 0.0 .
1023(17) 0.0 0.0 .
989(17) 0.0 0.0 .
1005(17) 0.0 0.0 .
1046(17) 0.0 0.0 .
1017(17) 0.0 0.0 .
1032(17) 0.0 0.0 .
1021(17) 0.0 0.0 .
1083(18) 0.0 0.0 .
1035(17) 0.0 0.0 .
1052(17) 0.0 0.0 .
1046(17) 0.0 0.0 .
1037(17) 0.0 0.0 .
1051(17) 0.0 0.0 .
1046(17) 0.0 0.0 .
1090(17) 0.0 0.0 .
1110(18) 0.0 0.0 .
1098(18) 0.0 0.0 .
1058(17) 0.0 0.0 .
1112(18) 0.0 0.0 .
1066(17) 0.0 0.0 .
1056(17) 0.0 0.0 .
1126(18) 0.0 0.0 .
1102(18) 0.0 0.0 .
1067(17) 0.0 0.0 .
1101(17) 0.0 0.0 .
1105(18) 0.0 0.0 .
1102(18) 0.0 0.0 .
1149(18) 0.0 0.0 .
1151(18) 0.0 0.0 .
1131(18) 0.0 0.0 .
1116(18) 0.0 0.0 .
1161(19) 0.0 0.0 .
1158(18) 0.0 0.0 .
1088(17) 0.0 0.0 .
1124(17) 0.0 0.0 .
1119(18) 0.0 0.0 .
1126(19) 0.0 0.0 .
1154(18) 0.0 0.0 .
1147(18) 0.0 0.0 .
1190(18) 0.0 0.0 .
1184(18) 0.0 0.0 .
1121(18) 0.0 0.0 .
1180(18) 0.0 0.0 .
1197(18) 0.0 0.0 .
1165(18) 0.0 0.0 .
1165(18) 0.0 0.0 .
1187(19) 0.0 0.0 .
1116(18) 0.0 0.0 .
1207(18) 0.0 0.0 .
1204(18) 0.0 0.0 .
1195(19) 0.0 0.0 .
1186(19) 0.0 0.0 .
1186(18) 0.0 0.0 .
1178(18) 0.0 0.0 .
1136(18) 0.0 0.0 .
1193(19) 0.0 0.0 .
1253(19) 0.0 0.0 .
1170(18) 0.0 0.0 .
1222(18) 0.0 0.0 .
1215(19) 0.0 0.0 .
1243(19) 0.0 0.0 .
1237(19) 0.0 0.0 .
1153(18) 0.0 0.0 .
1215(18) 0.0 0.0 .
1270(19) 0.0 0.0 .
1267(20) 0.0 0.0 .
1182(18) 0.0 0.0 .
1258(19) 0.0 0.0 .
1201(18) 0.0 0.0 .
1205(19) 0.0 0.0 .
1174(19) 0.0 0.0 .
1261(19) 0.0 0.0 .
1251(18) 0.0 0.0 .
1237(18) 0.0 0.0 .
1280(19) 0.0 0.0 .
1249(20) 0.0 0.0 .
1200(19) 0.0 0.0 .
1273(19) 0.0 0.0 .
1242(18) 0.0 0.0 .
1313(19) 0.0 0.0 .
1251(19) 0.0 0.0 .
1204(19) 0.0 0.0 .
1245(18) 0.0 0.0 .
1262(18) 0.0 0.0 .
1213(19) 0.0 0.0 .
1255(20) 0.0 0.0 .
1223(19) 0.0 0.0 .
1250(18) 0.0 0.0 .
1288(19) 0.0 0.0 .
1290(19) 0.0 0.0 .
1307(20) 0.0 0.0 .
1278(19) 0.0 0.0 .
1262(18) 0.0 0.0 .
1265(19) 0.0 0.0 .
1293(19) 0.0 0.0 .
1298(20) 0.0 0.0 .
1289(19) 0.0 0.0 .
1298(19) 0.0 0.0 .
1315(19) 0.0 0.0 .
1304(19) 0.0 0.0 .
1340(20) 0.0 0.0 .
1208(18) 0.0 0.0 .
1309(19) 0.0 0.0 .
1297(19) 0.0 0.0 .
1313(20) 0.0 0.0 .
1273(19) 0.0 0.0 .
1298(19) 0.0 0.0 .
1289(19) 0.0 0.0 .
1244(19) 0.0 0.0 .
1302(20) 0.0 0.0 .
1310(20) 0.0 0.0 .
1291(19) 0.0 0.0 .
1304(19) 0.0 0.0 .
1326(20) 0.0 0.0 .
1315(20) 0.0 0.0 .
1308(19) 0.0 0.0 .
1332(19) 0.0 0.0 .
1335(19) 0.0 0.0 .
1313(19) 0.0 0.0 .
1277(20) 0.0 0.0 .
1307(20) 0.0 0.0 .
1320(19) 0.0 0.0 .
1282(19) 0.0 0.0 .
1326(20) 0.0 0.0 .
1297(20) 0.0 0.0 .
1284(19) 0.0 0.0 .
1275(19) 0.0 0.0 .
1328(19) 0.0 0.0 .
1302(19) 0.0 0.0 .
1269(20) 0.0 0.0 .
1332(20) 0.0 0.0 .
1326(19) 0.0 0.0 .
1319(19) 0.0 0.0 .
1243(19) 0.0 0.0 .
1315(20) 0.0 0.0 .
1310(19) 0.0 0.0 .
1314(19) 0.0 0.0 .
1311(19) 0.0 0.0 .
1329(20) 0.0 0.0 .
1320(20) 0.0 0.0 .
1328(19) 0.0 0.0 .
1279(19) 0.0 0.0 .
1327(19) 0.0 0.0 .
1306(19) 0.0 0.0 .
1277(20) 0.0 0.0 .
1298(19) 0.0 0.0 .
1313(19) 0.0 0.0 .
1276(19) 0.0 0.0 .
1267(19) 0.0 0.0 .
1342(20) 0.0 0.0 .
1271(19) 0.0 0.0 .
1297(19) 0.0 0.0 .
1255(19) 0.0 0.0 .
1306(20) 0.0 0.0 .
1267(19) 0.0 0.0 .
1331(20) 0.0 0.0 .
1297(19) 0.0 0.0 .
1295(19) 0.0 0.0 .
1285(20) 0.0 0.0 .
1314(20) 0.0 0.0 .
1317(19) 0.0 0.0 .
1277(19) 0.0 0.0 .
1327(20) 0.0 0.0 .
1297(20) 0.0 0.0 .
1319(20) 0.0 0.0 .
1304(19) 0.0 0.0 .
1291(19) 0.0 0.0 .
1240(19) 0.0 0.0 .
1315(20) 0.0 0.0 .
1303(19) 0.0 0.0 .
1321(19) 0.0 0.0 .
1268(18) 0.0 0.0 .
1267(19) 0.0 0.0 .
1280(20) 0.0 0.0 .
1257(19) 0.0 0.0 .
1274(19) 0.0 0.0 .
1347(19) 0.0 0.0 .
1278(19) 0.0 0.0 .
1294(20) 0.0 0.0 .
1319(20) 0.0 0.0 .
1294(19) 0.0 0.0 .
1256(18) 0.0 0.0 .
1290(19) 0.0 0.0 .
1281(20) 0.0 0.0 .
1309(19) 0.0 0.0 .
1289(19) 0.0 0.0 .
1310(19) 0.0 0.0 .
1361(20) 0.0 0.0 .
1264(20) 0.0 0.0 .
1260(19) 0.0 0.0 .
1246(18) 0.0 0.0 .
1273(19) 0.0 0.0 .
1306(20) 0.0 0.0 .
1273(20) 0.0 0.0 .
1262(19) 0.0 0.0 .
1286(19) 0.0 0.0 .
1297(19) 0.0 0.0 .
1290(19) 0.0 0.0 .
1282(20) 0.0 0.0 .
1277(19) 0.0 0.0 .
1282(19) 0.0 0.0 .
1257(19) 0.0 0.0 .
1215(19) 0.0 0.0 .
1276(19) 0.0 0.0 .
1311(19) 0.0 0.0 .
1241(18) 0.0 0.0 .
1293(19) 0.0 0.0 .
1213(19) 0.0 0.0 .
1266(19) 0.0 0.0 .
1235(19) 0.0 0.0 .
1286(19) 0.0 0.0 .
1269(19) 0.0 0.0 .
1233(19) 0.0 0.0 .
1211(19) 0.0 0.0 .
1266(19) 0.0 0.0 .
1260(18) 0.0 0.0 .
1276(20) 0.0 0.0 .
1238(19) 0.0 0.0 .
1267(19) 0.0 0.0 .
1264(19) 0.0 0.0 .
1276(18) 0.0 0.0 .
1240(19) 0.0 0.0 .
1240(19) 0.0 0.0 .
1274(19) 0.0 0.0 .
1241(18) 0.0 0.0 .
1251(18) 0.0 0.0 .
1217(19) 0.0 0.0 .
1261(20) 0.0 0.0 .
1277(19) 0.0 0.0 .
1232(18) 0.0 0.0 .
1292(19) 0.0 0.0 .
1270(19) 0.0 0.0 .
1229(20) 0.0 0.0 .
1234(19) 0.0 0.0 .
1242(18) 0.0 0.0 .
1256(18) 0.0 0.0 .
1207(19) 0.0 0.0 .
1234(20) 0.0 0.0 .
1242(19) 0.0 0.0 .
1233(18) 0.0 0.0 .
1255(19) 0.0 0.0 .
1224(19) 0.0 0.0 .
1235(19) 0.0 0.0 .
1262(19) 0.0 0.0 .
1282(19) 0.0 0.0 .
1251(18) 0.0 0.0 .
1256(19) 0.0 0.0 .
1248(19) 0.0 0.0 .
1249(19) 0.0 0.0 .
1229(18) 0.0 0.0 .
1270(19) 0.0 0.0 .
1220(19) 0.0 0.0 .
1225(19) 0.0 0.0 .
1220(19) 0.0 0.0 .
1223(18) 0.0 0.0 .
1206(19) 0.0 0.0 .
1220(19) 0.0 0.0 .
1284(19) 0.0 0.0 .
1219(19) 0.0 0.0 .
1225(18) 0.0 0.0 .
1249(19) 0.0 0.0 .
1231(19) 0.0 0.0 .
1215(19) 0.0 0.0 .
1228(19) 0.0 0.0 .
1227(18) 0.0 0.0 .
1244(19) 0.0 0.0 .
1212(19) 0.0 0.0 .
1205(19) 0.0 0.0 .
1205(18) 0.0 0.0 .
1222(18) 0.0 0.0 .
1219(19) 0.0 0.0 .
1164(19) 0.0 0.0 .
1190(18) 0.0 0.0 .
1245(18) 0.0 0.0 .
1188(18) 0.0 0.0 .
1211(19) 0.0 0.0 .
1158(19) 0.0 0.0 .
1183(18) 0.0 0.0 .
1227(18) 0.0 0.0 .
1199(18) 0.0 0.0 .
1202(19) 0.0 0.0 .
1207(19) 0.0 0.0 .
1239(19) 0.0 0.0 .
1192(18) 0.0 0.0 .
1182(18) 0.0 0.0 .
1208(19) 0.0 0.0 .
1180(19) 0.0 0.0 .
1193(19) 0.0 0.0 .
1139(18) 0.0 0.0 .
1192(18) 0.0 0.0 .
1229(19) 0.0 0.0 .
1185(19) 0.0 0.0 .
1157(18) 0.0 0.0 .
1225(18) 0.0 0.0 .
1218(18) 0.0 0.0 .
1192(19) 0.0 0.0 .
1173(19) 0.0 0.0 .
1204(19) 0.0 0.0 .
1188(18) 0.0 0.0 .
1210(18) 0.0 0.0 .
1152(18) 0.0 0.0 .
1146(18) 0.0 0.0 .
1152(18) 0.0 0.0 .
1188(18) 0.0 0.0 .
1177(18) 0.0 0.0 .
1168(19) 0.0 0.0 .
1171(19) 0.0 0.0 .
1155(18) 0.0 0.0 .
1198(18) 0.0 0.0 .
1204(19) 0.0 0.0 .
1144(18) 0.0 0.0 .
1163(18) 0.0 0.0 .
1146(18) 0.0 0.0 .
1161(18) 0.0 0.0 .
1203(19) 0.0 0.0 .
1160(19) 0.0 0.0 .
1173(18) 0.0 0.0 .
1126(18) 0.0 0.0 .
1176(18) 0.0 0.0 .
1137(18) 0.0 0.0 .
1150(19) 0.0 0.0 .
1142(18) 0.0 0.0 .
1147(18) 0.0 0.0 .
1177(18) 0.0 0.0 .
1190(19) 0.0 0.0 .
1207(19) 0.0 0.0 .
1176(18) 0.0 0.0 .
1150(18) 0.0 0.0 .
1173(18) 0.0 0.0 .
1154(18) 0.0 0.0 .
1192(19) 0.0 0.0 .
1156(18) 0.0 0.0 .
1144(18) 0.0 0.0 .
1203(18) 0.0 0.0 .
1124(18) 0.0 0.0 .
1106(19) 0.0 0.0 .
1112(18) 0.0 0.0 .
1088(17) 0.0 0.0 .
1147(18) 0.0 0.0 .
1165(18) 0.0 0.0 .
1143(19) 0.0 0.0 .
1159(18) 0.0 0.0 .
1154(18) 0.0 0.0 .
1118(17) 0.0 0.0 .
1145(18) 0.0 0.0 .
1121(18) 0.0 0.0 .
1145(18) 0.0 0.0 .
1150(18) 0.0 0.0 .
1101(17) 0.0 0.0 .
1149(18) 0.0 0.0 .
1149(19) 0.0 0.0 .
1131(18) 0.0 0.0 .
1105(17) 0.0 0.0 .
1110(18) 0.0 0.0 .
1082(18) 0.0 0.0 .
1062(18) 0.0 0.0 .
1118(18) 0.0 0.0 .
1104(17) 0.0 0.0 .
1107(18) 0.0 0.0 .
1127(18) 0.0 0.0 .
1133(18) 0.0 0.0 .
1116(18) 0.0 0.0 .
1118(17) 0.0 0.0 .
1127(18) 0.0 0.0 .
1109(18) 0.0 0.0 .
1086(18) 0.0 0.0 .
1099(17) 0.0 0.0 .
1101(17) 0.0 0.0 .
1113(18) 0.0 0.0 .
1080(18) 0.0 0.0 .
1103(18) 0.0 0.0 .
1106(17) 0.0 0.0 .
1069(17) 0.0 0.0 .
1104(18) 0.0 0.0 .
1072(18) 0.0 0.0 .
1131(18) 0.0 0.0 .
1081(17) 0.0 0.0 .
1085(17) 0.0 0.0 .
1075(18) 0.0 0.0 .
1051(18) 0.0 0.0 .
1071(17) 0.0 0.0 .
1102(17) 0.0 0.0 .
998(16) 0.0 0.0 .
1098(18) 0.0 0.0 .
1129(19) 0.0 0.0 .
1036(17) 0.0 0.0 .
1089(17) 0.0 0.0 .
1078(17) 0.0 0.0 .
1034(17) 0.0 0.0 .
1076(18) 0.0 0.0 .
1060(17) 0.0 0.0 .
1040(17) 0.0 0.0 .
1052(17) 0.0 0.0 .
1078(18) 0.0 0.0 .
1116(18) 0.0 0.0 .
1112(18) 0.0 0.0 .
1060(17) 0.0 0.0 .
1040(17) 0.0 0.0 .
1057(18) 0.0 0.0 .
1019(17) 0.0 0.0 .
1115(18) 0.0 0.0 .
1103(17) 0.0 0.0 .
1058(17) 0.0 0.0 .
1032(17) 0.0 0.0 .
1035(18) 0.0 0.0 .
1043(17) 0.0 0.0 .
1037(17) 0.0 0.0 .
1049(17) 0.0 0.0 .
1064(18) 0.0 0.0 .
1070(18) 0.0 0.0 .
1019(17) 0.0 0.0 .
1049(17) 0.0 0.0 .
1046(17) 0.0 0.0 .
1025(17) 0.0 0.0 .
1029(17) 0.0 0.0 .
1052(17) 0.0 0.0 .
1093(17) 0.0 0.0 .
1040(17) 0.0 0.0 .
1048(18) 0.0 0.0 .
1039(17) 0.0 0.0 .
1047(17) 0.0 0.0 .
1079(17) 0.0 0.0 .
1038(17) 0.0 0.0 .
1073(18) 0.0 0.0 .
1025(17) 0.0 0.0 .
1034(17) 0.0 0.0 .
1029(17) 0.0 0.0 .
1005(17) 0.0 0.0 .
1008(18) 0.0 0.0 .
973(17) 0.0 0.0 .
1056(17) 0.0 0.0 .
1066(17) 0.0 0.0 .
996(17) 0.0 0.0 .
1010(18) 0.0 0.0 .
1005(17) 0.0 0.0 .
1000(16) 0.0 0.0 .
998(16) 0.0 0.0 .
1014(17) 0.0 0.0 .
1058(18) 0.0 0.0 .
1052(17) 0.0 0.0 .
1070(17) 0.0 0.0 .
1009(17) 0.0 0.0 .
1012(17) 0.0 0.0 .
1039(18) 0.0 0.0 .
1025(17) 0.0 0.0 .
989(16) 0.0 0.0 .
978(16) 0.0 0.0 .
1017(17) 0.0 0.0 .
1017(17) 0.0 0.0 .
1047(18) 0.0 0.0 .
1010(16) 0.0 0.0 .
1028(17) 0.0 0.0 .
1022(17) 0.0 0.0 .
1011(17) 0.0 0.0 .
1022(17) 0.0 0.0 .
1005(16) 0.0 0.0 .
1020(17) 0.0 0.0 .
995(17) 0.0 0.0 .
1027(17) 0.0 0.0 .
1000(17) 0.0 0.0 .
961(16) 0.0 0.0 .
1018(17) 0.0 0.0 .
1016(17) 0.0 0.0 .
1014(17) 0.0 0.0 .
988(17) 0.0 0.0 .
997(16) 0.0 0.0 .
969(17) 0.0 0.0 .
1002(17) 0.0 0.0 .
999(17) 0.0 0.0 .
999(17) 0.0 0.0 .
1006(17) 0.0 0.0 .
1003(17) 0.0 0.0 .
975(17) 0.0 0.0 .
953(16) 0.0 0.0 .
1016(17) 0.0 0.0 .
974(16) 0.0 0.0 .
940(16) 0.0 0.0 .
995(17) 0.0 0.0 .
968(17) 0.0 0.0 .
971(16) 0.0 0.0 .
999(16) 0.0 0.0 .
1021(17) 0.0 0.0 .
1012(18) 0.0 0.0 .
1019(17) 0.0 0.0 .
974(16) 0.0 0.0 .
973(16) 0.0 0.0 .
947(16) 0.0 0.0 .
963(17) 0.0 0.0 .
981(17) 0.0 0.0 .
980(16) 0.0 0.0 .
949(16) 0.0 0.0 .
961(17) 0.0 0.0 .
989(17) 0.0 0.0 .
1010(17) 0.0 0.0 .
983(16) 0.0 0.0 .
955(16) 0.0 0.0 .
994(17) 0.0 0.0 .
984(17) 0.0 0.0 .
942(17) 0.0 0.0 .
964(16) 0.0 0.0 .
955(16) 0.0 0.0 .
967(17) 0.0 0.0 .
965(17) 0.0 0.0 .
962(17) 0.0 0.0 .
968(16) 0.0 0.0 .
951(16) 0.0 0.0 .
970(17) 0.0 0.0 .
985(17) 0.0 0.0 .
998(17) 0.0 0.0 .
996(16) 0.0 0.0 .
961(17) 0.0 0.0 .
1006(17) 0.0 0.0 .
992(17) 0.0 0.0 .
986(17) 0.0 0.0 .
967(16) 0.0 0.0 .
982(17) 0.0 0.0 .
966(17) 0.0 0.0 .
938(16) 0.0 0.0 .
915(16) 0.0 0.0 .
946(16) 0.0 0.0 .
955(16) 0.0 0.0 .
958(17) 0.0 0.0 .
962(17) 0.0 0.0 .
934(16) 0.0 0.0 .
971(16) 0.0 0.0 .
958(17) 0.0 0.0 .
949(17) 0.0 0.0 .
973(17) 0.0 0.0 .
950(16) 0.0 0.0 .
961(16) 0.0 0.0 .
952(17) 0.0 0.0 .
917(17) 0.0 0.0 .
930(16) 0.0 0.0 .
931(16) 0.0 0.0 .
910(16) 0.0 0.0 .
927(16) 0.0 0.0 .
962(17) 0.0 0.0 .
934(16) 0.0 0.0 .
962(16) 0.0 0.0 .
943(16) 0.0 0.0 .
920(16) 0.0 0.0 .
971(17) 0.0 0.0 .
923(16) 0.0 0.0 .
916(16) 0.0 0.0 .
928(16) 0.0 0.0 .
928(16) 0.0 0.0 .
904(16) 0.0 0.0 .
920(16) 0.0 0.0 .
947(16) 0.0 0.0 .
923(16) 0.0 0.0 .
920(16) 0.0 0.0 .
940(17) 0.0 0.0 .
916(16) 0.0 0.0 .
912(16) 0.0 0.0 .
935(16) 0.0 0.0 .
946(17) 0.0 0.0 .
891(16) 0.0 0.0 .
940(16) 0.0 0.0 .
948(16) 0.0 0.0 .
954(16) 0.0 0.0 .
892(16) 0.0 0.0 .
938(17) 0.0 0.0 .
960(16) 0.0 0.0 .
921(16) 0.0 0.0 .
951(17) 0.0 0.0 .
908(16) 0.0 0.0 .
918(16) 0.0 0.0 .
912(16) 0.0 0.0 .
915(16) 0.0 0.0 .
940(17) 0.0 0.0 .
940(17) 0.0 0.0 .
898(16) 0.0 0.0 .
946(16) 0.0 0.0 .
914(16) 0.0 0.0 .
901(16) 0.0 0.0 .
887(16) 0.0 0.0 .
892(16) 0.0 0.0 .
910(16) 0.0 0.0 .
922(16) 0.0 0.0 .
870(16) 0.0 0.0 .
891(16) 0.0 0.0 .
856(16) 0.0 0.0 .
879(15) 0.0 0.0 .
914(16) 0.0 0.0 .
906(16) 0.0 0.0 .
888(16) 0.0 0.0 .
926(16) 0.0 0.0 .
876(15) 0.0 0.0 .
897(16) 0.0 0.0 .
907(16) 0.0 0.0 .
889(17) 0.0 0.0 .
898(16) 0.0 0.0 .
851(15) 0.0 0.0 .
861(15) 0.0 0.0 .
905(16) 0.0 0.0 .
932(17) 0.0 0.0 .
887(16) 0.0 0.0 .
880(15) 0.0 0.0 .
933(16) 0.0 0.0 .
875(16) 0.0 0.0 .
886(16) 0.0 0.0 .
849(16) 0.0 0.0 .
880(15) 0.0 0.0 .
908(16) 0.0 0.0 .
920(16) 0.0 0.0 .
887(16) 0.0 0.0 .
901(16) 0.0 0.0 .
914(16) 0.0 0.0 .
922(16) 0.0 0.0 .
881(16) 0.0 0.0 .
892(16) 0.0 0.0 .
901(16) 0.0 0.0 .
908(16) 0.0 0.0 .
899(16) 0.0 0.0 .
919(16) 0.0 0.0 .
846(16) 0.0 0.0 .
895(16) 0.0 0.0 .
859(15) 0.0 0.0 .
849(16) 0.0 0.0 .
877(16) 0.0 0.0 .
887(16) 0.0 0.0 .
879(16) 0.0 0.0 .
864(15) 0.0 0.0 .
918(16) 0.0 0.0 .
868(16) 0.0 0.0 .
852(16) 0.0 0.0 .
880(16) 0.0 0.0 .
846(15) 0.0 0.0 .
835(16) 0.0 0.0 .
868(16) 0.0 0.0 .
876(16) 0.0 0.0 .
858(15) 0.0 0.0 .
819(15) 0.0 0.0 .
852(16) 0.0 0.0 .
859(16) 0.0 0.0 .
819(15) 0.0 0.0 .
860(15) 0.0 0.0 .
871(15) 0.0 0.0 .
869(16) 0.0 0.0 .
866(16) 0.0 0.0 .
818(15) 0.0 0.0 .
879(15) 0.0 0.0 .
857(15) 0.0 0.0 .
856(16) 0.0 0.0 .
878(16) 0.0 0.0 .
901(16) 0.0 0.0 .
839(15) 0.0 0.0 .
821(15) 0.0 0.0 .
832(15) 0.0 0.0 .
837(16) 0.0 0.0 .
865(16) 0.0 0.0 .
848(15) 0.0 0.0 .
837(15) 0.0 0.0 .
814(15) 0.0 0.0 .
871(16) 0.0 0.0 .
839(16) 0.0 0.0 .
812(15) 0.0 0.0 .
862(15) 0.0 0.0 .
833(15) 0.0 0.0 .
847(16) 0.0 0.0 .
839(15) 0.0 0.0 .
840(15) 0.0 0.0 .
854(16) 0.0 0.0 .
850(16) 0.0 0.0 .
831(16) 0.0 0.0 .
793(15) 0.0 0.0 .
848(15) 0.0 0.0 .
817(15) 0.0 0.0 .
841(16) 0.0 0.0 .
851(16) 0.0 0.0 .
818(15) 0.0 0.0 .
814(15) 0.0 0.0 .
820(15) 0.0 0.0 .
800(15) 0.0 0.0 .
827(15) 0.0 0.0 .
821(15) 0.0 0.0 .
862(15) 0.0 0.0 .
827(15) 0.0 0.0 .
824(16) 0.0 0.0 .
821(15) 0.0 0.0 .
818(15) 0.0 0.0 .
839(15) 0.0 0.0 .
831(16) 0.0 0.0 .
827(16) 0.0 0.0 .
776(15) 0.0 0.0 .
818(15) 0.0 0.0 .
824(15) 0.0 0.0 .
840(15) 0.0 0.0 .
812(16) 0.0 0.0 .
799(15) 0.0 0.0 .
808(15) 0.0 0.0 .
812(15) 0.0 0.0 .
818(15) 0.0 0.0 .
810(16) 0.0 0.0 .
817(15) 0.0 0.0 .
807(15) 0.0 0.0 .
811(15) 0.0 0.0 .
800(15) 0.0 0.0 .
805(15) 0.0 0.0 .
813(15) 0.0 0.0 .
788(15) 0.0 0.0 .
841(15) 0.0 0.0 .
826(16) 0.0 0.0 .
760(15) 0.0 0.0 .
812(15) 0.0 0.0 .
794(15) 0.0 0.0 .
843(15) 0.0 0.0 .
848(16) 0.0 0.0 .
803(15) 0.0 0.0 .
803(15) 0.0 0.0 .
814(15) 0.0 0.0 .
816(15) 0.0 0.0 .
795(15) 0.0 0.0 .
775(15) 0.0 0.0 .
814(15) 0.0 0.0 .
806(15) 0.0 0.0 .
808(15) 0.0 0.0 .
790(15) 0.0 0.0 .
787(15) 0.0 0.0 .
789(15) 0.0 0.0 .
807(15) 0.0 0.0 .
799(15) 0.0 0.0 .
774(15) 0.0 0.0 .
799(16) 0.0 0.0 .
798(15) 0.0 0.0 .
817(15) 0.0 0.0 .
766(15) 0.0 0.0 .
742(15) 0.0 0.0 .
746(15) 0.0 0.0 .
776(15) 0.0 0.0 .
778(14) 0.0 0.0 .
790(15) 0.0 0.0 .
778(16) 0.0 0.0 .
759(15) 0.0 0.0 .
786(15) 0.0 0.0 .
788(15) 0.0 0.0 .
805(15) 0.0 0.0 .
804(16) 0.0 0.0 .
775(15) 0.0 0.0 .
751(14) 0.0 0.0 .
786(15) 0.0 0.0 .
762(15) 0.0 0.0 .
794(16) 0.0 0.0 .
778(15) 0.0 0.0 .
753(14) 0.0 0.0 .
756(14) 0.0 0.0 .
768(15) 0.0 0.0 .
787(15) 0.0 0.0 .
786(15) 0.0 0.0 .
779(15) 0.0 0.0 .
779(15) 0.0 0.0 .
798(15) 0.0 0.0 .
782(15) 0.0 0.0 .
764(15) 0.0 0.0 .
793(15) 0.0 0.0 .
787(15) 0.0 0.0 .
767(15) 0.0 0.0 .
768(15) 0.0 0.0 .
755(15) 0.0 0.0 .
754(14) 0.0 0.0 .
729(14) 0.0 0.0 .
782(15) 0.0 0.0 .
793(15) 0.0 0.0 .
759(15) 0.0 0.0 .
768(14) 0.0 0.0 .
775(15) 0.0 0.0 .
746(15) 0.0 0.0 .
764(15) 0.0 0.0 .
776(15) 0.0 0.0 .
738(14) 0.0 0.0 .
750(15) 0.0 0.0 .
731(15) 0.0 0.0 .
766(15) 0.0 0.0 .
760(14) 0.0 0.0 .
747(14) 0.0 0.0 .
754(15) 0.0 0.0 .
741(15) 0.0 0.0 .
714(14) 0.0 0.0 .
738(14) 0.0 0.0 .
750(14) 0.0 0.0 .
747(15) 0.0 0.0 .
732(15) 0.0 0.0 .
767(15) 0.0 0.0 .
768(14) 0.0 0.0 .
745(14) 0.0 0.0 .
723(14) 0.0 0.0 .
699(14) 0.0 0.0 .
751(15) 0.0 0.0 .
738(14) 0.0 0.0 .
740(14) 0.0 0.0 .
757(15) 0.0 0.0 .
727(15) 0.0 0.0 .
746(15) 0.0 0.0 .
717(14) 0.0 0.0 .
754(14) 0.0 0.0 .
766(15) 0.0 0.0 .
761(15) 0.0 0.0 .
754(15) 0.0 0.0 .
707(14) 0.0 0.0 .
726(14) 0.0 0.0 .
752(15) 0.0 0.0 .
763(15) 0.0 0.0 .
759(15) 0.0 0.0 .
719(14) 0.0 0.0 .
746(14) 0.0 0.0 .
742(15) 0.0 0.0 .
736(15) 0.0 0.0 .
734(15) 0.0 0.0 .
766(14) 0.0 0.0 .
775(15) 0.0 0.0 .
739(15) 0.0 0.0 .
749(15) 0.0 0.0 .
734(14) 0.0 0.0 .
698(14) 0.0 0.0 .
704(14) 0.0 0.0 .
727(15) 0.0 0.0 .
728(14) 0.0 0.0 .
772(15) 0.0 0.0 .
706(14) 0.0 0.0 .
717(14) 0.0 0.0 .
751(15) 0.0 0.0 .
747(15) 0.0 0.0 .
732(14) 0.0 0.0 .
706(14) 0.0 0.0 .
743(15) 0.0 0.0 .
733(15) 0.0 0.0 .
689(14) 0.0 0.0 .
719(14) 0.0 0.0 .
739(14) 0.0 0.0 .
725(14) 0.0 0.0 .
708(15) 0.0 0.0 .
712(14) 0.0 0.0 .
714(14) 0.0 0.0 .
752(14) 0.0 0.0 .
719(14) 0.0 0.0 .
729(15) 0.0 0.0 .
756(15) 0.0 0.0 .
734(14) 0.0 0.0 .
752(14) 0.0 0.0 .
717(14) 0.0 0.0 .
730(15) 0.0 0.0 .
713(14) 0.0 0.0 .
724(14) 0.0 0.0 .
749(14) 0.0 0.0 .
699(14) 0.0 0.0 .
695(14) 0.0 0.0 .
708(14) 0.0 0.0 .
714(14) 0.0 0.0 .
741(14) 0.0 0.0 .
697(14) 0.0 0.0 .
678(14) 0.0 0.0 .
710(14) 0.0 0.0 .
720(14) 0.0 0.0 .
687(14) 0.0 0.0 .
699(14) 0.0 0.0 .
719(15) 0.0 0.0 .
695(14) 0.0 0.0 .
737(14) 0.0 0.0 .
723(14) 0.0 0.0 .
727(15) 0.0 0.0 .
716(15) 0.0 0.0 .
708(14) 0.0 0.0 .
699(14) 0.0 0.0 .
707(14) 0.0 0.0 .
677(14) 0.0 0.0 .
730(15) 0.0 0.0 .
719(14) 0.0 0.0 .
702(14) 0.0 0.0 .
694(14) 0.0 0.0 .
720(15) 0.0 0.0 .
707(14) 0.0 0.0 .
744(14) 0.0 0.0 .
705(14) 0.0 0.0 .
701(14) 0.0 0.0 .
679(14) 0.0 0.0 .
681(14) 0.0 0.0 .
727(14) 0.0 0.0 .
695(14) 0.0 0.0 .
739(15) 0.0 0.0 .
689(14) 0.0 0.0 .
689(14) 0.0 0.0 .
687(14) 0.0 0.0 .
718(14) 0.0 0.0 .
662(14) 0.0 0.0 .
717(15) 0.0 0.0 .
699(14) 0.0 0.0 .
684(14) 0.0 0.0 .
707(14) 0.0 0.0 .
709(14) 0.0 0.0 .
681(14) 0.0 0.0 .
702(14) 0.0 0.0 .
686(14) 0.0 0.0 .
700(14) 0.0 0.0 .
682(14) 0.0 0.0 .
697(15) 0.0 0.0 .
685(14) 0.0 0.0 .
695(14) 0.0 0.0 .
708(14) 0.0 0.0 .
737(15) 0.0 0.0 .
719(15) 0.0 0.0 .
719(14) 0.0 0.0 .
710(14) 0.0 0.0 .
704(14) 0.0 0.0 .
685(14) 0.0 0.0 .
699(15) 0.0 0.0 .
725(15) 0.0 0.0 .
747(14) 0.0 0.0 .
719(14) 0.0 0.0 .
655(14) 0.0 0.0 .
713(14) 0.0 0.0 .
687(14) 0.0 0.0 .
689(14) 0.0 0.0 .
712(14) 0.0 0.0 .
701(14) 0.0 0.0 .
690(14) 0.0 0.0 .
676(14) 0.0 0.0 .
659(13) 0.0 0.0 .
676(14) 0.0 0.0 .
661(14) 0.0 0.0 .
708(14) 0.0 0.0 .
692(14) 0.0 0.0 .
699(14) 0.0 0.0 .
676(14) 0.0 0.0 .
714(14) 0.0 0.0 .
709(14) 0.0 0.0 .
683(14) 0.0 0.0 .
679(14) 0.0 0.0 .
678(14) 0.0 0.0 .
710(15) 0.0 0.0 .
704(14) 0.0 0.0 .
680(14) 0.0 0.0 .
654(13) 0.0 0.0 .
644(14) 0.0 0.0 .
653(14) 0.0 0.0 .
663(14) 0.0 0.0 .
683(14) 0.0 0.0 .
699(14) 0.0 0.0 .
653(14) 0.0 0.0 .
667(14) 0.0 0.0 .
667(14) 0.0 0.0 .
647(13) 0.0 0.0 .
708(14) 0.0 0.0 .
679(14) 0.0 0.0 .
639(14) 0.0 0.0 .
679(14) 0.0 0.0 .
662(13) 0.0 0.0 .
678(14) 0.0 0.0 .
665(14) 0.0 0.0 .
696(15) 0.0 0.0 .
694(14) 0.0 0.0 .
653(13) 0.0 0.0 .
687(14) 0.0 0.0 .
705(14) 0.0 0.0 .
683(14) 0.0 0.0 .
671(14) 0.0 0.0 .
707(14) 0.0 0.0 .
689(14) 0.0 0.0 .
680(14) 0.0 0.0 .
673(14) 0.0 0.0 .
639(14) 0.0 0.0 .
660(13) 0.0 0.0 .
649(14) 0.0 0.0 .
666(14) 0.0 0.0 .
678(14) 0.0 0.0 .
676(14) 0.0 0.0 .
664(13) 0.0 0.0 .
655(14) 0.0 0.0 .
665(14) 0.0 0.0 .
663(14) 0.0 0.0 .
692(14) 0.0 0.0 .
682(14) 0.0 0.0 .
677(14) 0.0 0.0 .
661(14) 0.0 0.0 .
633(13) 0.0 0.0 .
677(14) 0.0 0.0 .
678(13) 0.0 0.0 .
693(14) 0.0 0.0 .
650(14) 0.0 0.0 .
679(14) 0.0 0.0 .
655(13) 0.0 0.0 .
664(13) 0.0 0.0 .
707(14) 0.0 0.0 .
637(14) 0.0 0.0 .
670(14) 0.0 0.0 .
664(13) 0.0 0.0 .
671(14) 0.0 0.0 .
656(14) 0.0 0.0 .
642(14) 0.0 0.0 .
652(14) 0.0 0.0 .
695(14) 0.0 0.0 .
687(14) 0.0 0.0 .
658(14) 0.0 0.0 .
711(15) 0.0 0.0 .
689(14) 0.0 0.0 .
697(14) 0.0 0.0 .
673(14) 0.0 0.0 .
627(13) 0.0 0.0 .
646(14) 0.0 0.0 .
653(14) 0.0 0.0 .
680(14) 0.0 0.0 .
662(13) 0.0 0.0 .
660(14) 0.0 0.0 .
670(14) 0.0 0.0 .
660(14) 0.0 0.0 .
632(13) 0.0 0.0 .
660(14) 0.0 0.0 .
647(14) 0.0 0.0 .
663(14) 0.0 0.0 .
650(14) 0.0 0.0 .
690(14) 0.0 0.0 .
687(14) 0.0 0.0 .
630(14) 0.0 0.0 .
651(14) 0.0 0.0 .
622(13) 0.0 0.0 .
665(13) 0.0 0.0 .
685(14) 0.0 0.0 .
623(13) 0.0 0.0 .
655(14) 0.0 0.0 .
644(13) 0.0 0.0 .
652(13) 0.0 0.0 .
696(14) 0.0 0.0 .
668(14) 0.0 0.0 .
628(13) 0.0 0.0 .
623(13) 0.0 0.0 .
664(13) 0.0 0.0 .
670(14) 0.0 0.0 .
698(14) 0.0 0.0 .
658(14) 0.0 0.0 .
671(14) 0.0 0.0 .
644(13) 0.0 0.0 .
674(14) 0.0 0.0 .
686(14) 0.0 0.0 .
664(14) 0.0 0.0 .
688(14) 0.0 0.0 .
619(13) 0.0 0.0 .
630(14) 0.0 0.0 .
633(14) 0.0 0.0 .
646(14) 0.0 0.0 .
624(13) 0.0 0.0 .
659(13) 0.0 0.0 .
698(14) 0.0 0.0 .
608(14) 0.0 0.0 .
630(14) 0.0 0.0 .
615(13) 0.0 0.0 .
637(13) 0.0 0.0 .
657(14) 0.0 0.0 .
635(14) 0.0 0.0 .
661(14) 0.0 0.0 .
649(13) 0.0 0.0 .
657(14) 0.0 0.0 .
660(14) 0.0 0.0 .
641(14) 0.0 0.0 .
656(14) 0.0 0.0 .
647(13) 0.0 0.0 .
685(14) 0.0 0.0 .
668(14) 0.0 0.0 .
672(14) 0.0 0.0 .
629(13) 0.0 0.0 .
666(13) 0.0 0.0 .
668(14) 0.0 0.0 .
652(14) 0.0 0.0 .
650(14) 0.0 0.0 .
640(13) 0.0 0.0 .
674(14) 0.0 0.0 .
644(13) 0.0 0.0 .
654(14) 0.0 0.0 .
680(14) 0.0 0.0 .
649(13) 0.0 0.0 .
659(13) 0.0 0.0 .
644(14) 0.0 0.0 .
648(14) 0.0 0.0 .
669(14) 0.0 0.0 .
658(14) 0.0 0.0 .
672(13) 0.0 0.0 .
698(14) 0.0 0.0 .
675(14) 0.0 0.0 .
647(13) 0.0 0.0 .
653(13) 0.0 0.0 .
653(13) 0.0 0.0 .
661(14) 0.0 0.0 .
621(14) 0.0 0.0 .
670(14) 0.0 0.0 .
703(14) 0.0 0.0 .
642(13) 0.0 0.0 .
665(14) 0.0 0.0 .
647(14) 0.0 0.0 .
678(14) 0.0 0.0 .
683(14) 0.0 0.0 .
641(13) 0.0 0.0 .
653(14) 0.0 0.0 .
669(14) 0.0 0.0 .
657(14) 0.0 0.0 .
697(14) 0.0 0.0 .
632(13) 0.0 0.0 .
644(14) 0.0 0.0 .
637(14) 0.0 0.0 .
667(14) 0.0 0.0 .
650(13) 0.0 0.0 .
677(14) 0.0 0.0 .
622(13) 0.0 0.0 .
656(14) 0.0 0.0 .
647(14) 0.0 0.0 .
708(14) 0.0 0.0 .
685(14) 0.0 0.0 .
657(14) 0.0 0.0 .
675(14) 0.0 0.0 .
677(14) 0.0 0.0 .
678(13) 0.0 0.0 .
680(14) 0.0 0.0 .
670(14) 0.0 0.0 .
695(14) 0.0 0.0 .
711(14) 0.0 0.0 .
659(13) 0.0 0.0 .
699(14) 0.0 0.0 .
654(14) 0.0 0.0 .
665(14) 0.0 0.0 .
666(14) 0.0 0.0 .
669(13) 0.0 0.0 .
681(14) 0.0 0.0 .
692(14) 0.0 0.0 .
717(14) 0.0 0.0 .
697(14) 0.0 0.0 .
717(14) 0.0 0.0 .
662(14) 0.0 0.0 .
701(14) 0.0 0.0 .
721(14) 0.0 0.0 .
671(14) 0.0 0.0 .
710(14) 0.0 0.0 .
728(15) 0.0 0.0 .
688(14) 0.0 0.0 .
717(14) 0.0 0.0 .
698(14) 0.0 0.0 .
720(14) 0.0 0.0 .
760(15) 0.0 0.0 .
741(15) 0.0 0.0 .
733(15) 0.0 0.0 .
748(14) 0.0 0.0 .
709(14) 0.0 0.0 .
757(15) 0.0 0.0 .
777(16) 0.0 0.0 .
773(15) 0.0 0.0 .
747(14) 0.0 0.0 .
765(14) 0.0 0.0 .
742(14) 0.0 0.0 .
798(16) 0.0 0.0 .
798(15) 0.0 0.0 .
799(15) 0.0 0.0 .
798(15) 0.0 0.0 .
835(16) 0.0 0.0 .
844(16) 0.0 0.0 .
881(16) 0.0 0.0 .
923(16) 0.0 0.0 .
924(16) 0.0 0.0 .
945(17) 0.0 0.0 .
942(17) 0.0 0.0 .
947(17) 0.0 0.0 .
1004(16) 0.0 0.0 .
1000(17) 0.0 0.0 .
1048(18) 0.0 0.0 .
1069(18) 0.0 0.0 .
1181(18) 0.0 0.0 .
1253(18) 0.0 0.0 .
1255(19) 0.0 0.0 .
1294(19) 0.0 0.0 .
1380(20) 0.0 0.0 .
1429(20) 0.0 0.0 .
1444(20) 0.0 0.0 .
1531(21) 0.0 0.0 .
1587(22) 0.0 0.0 .
1674(22) 0.0 0.0 .
1737(22) 0.0 0.0 .
1901(23) 0.0 0.0 .
1969(24) 0.0 0.0 .
2142(25) 0.0 0.0 .
2368(26) 0.0 0.0 .
2629(27) 0.0 0.0 .
2891(28) 0.0 0.0 .
3271(31) 0.0 0.0 .
3702(34) 0.0 0.0 .
4244(35) 0.0 0.0 .
4990(37) 0.0 0. .
5893(40) 0.0 0. .
6600(44) 0.0 0. .
7582(48) 0.0 0. .
8624(50) 0.0 0. .
9829(52) 0.0 0. .
11135(55) 0.0 0. .
12535(60) 0.0 0. .
13711(66) 0.0 0. .
14985(66) 0.0 0. .
16610(68) 0.0 0. .
18185(71) 0.0 0. .
20310(78) 0.0 0. .
22582(85) 0.0 0. .
25214(87) 0.0 0. .
28394(90) 0.0 0. .
31711(95) 0.0 0. .
34830(100) 0.0 0. .
37070(110) 0.0 0. .
37670(110) 0.0 0. .
35300(100) 0.0 0. .
30818(95) 0.0 0. .
26215(89) 0.0 0. .
21716(82) 0.0 0. .
18022(73) 0.0 0. .
14807(64) 0.0 0. .
12244(59) 0.0 0. .
10284(55) 0.0 0. .
8697(51) 0.0 0. .
7371(46) 0.0 0. .
6304(41) 0.0 0. .
5470(40) 0.0 0. .
4831(38) 0.0 0. .
4253(35) 0.0 0. .
3621(32) 0.0 0.0 .
3258(30) 0.0 0.0 .
2988(29) 0.0 0.0 .
2580(27) 0.0 0.0 .
2384(26) 0.0 0.0 .
2233(25) 0.0 0.0 .
2054(24) 0.0 0.0 .
1936(24) 0.0 0.0 .
1744(23) 0.0 0.0 .
1690(22) 0.0 0.0 .
1531(21) 0.0 0.0 .
1490(20) 0.0 0.0 .
1404(20) 0.0 0.0 .
1354(20) 0.0 0.0 .
1291(19) 0.0 0.0 .
1210(18) 0.0 0.0 .
1186(18) 0.0 0.0 .
1137(18) 0.0 0.0 .
1118(19) 0.0 0.0 .
1114(18) 0.0 0.0 .
1064(17) 0.0 0.0 .
1026(17) 0.0 0.0 .
968(17) 0.0 0.0 .
998(18) 0.0 0.0 .
942(17) 0.0 0.0 .
876(15) 0.0 0.0 .
887(16) 0.0 0.0 .
854(16) 0.0 0.0 .
818(16) 0.0 0.0 .
856(16) 0.0 0.0 .
851(15) 0.0 0.0 .
813(15) 0.0 0.0 .
801(15) 0.0 0.0 .
803(16) 0.0 0.0 .
799(15) 0.0 0.0 .
790(15) 0.0 0.0 .
788(15) 0.0 0.0 .
738(15) 0.0 0.0 .
785(16) 0.0 0.0 .
740(15) 0.0 0.0 .
743(14) 0.0 0.0 .
748(14) 0.0 0.0 .
698(14) 0.0 0.0 .
742(15) 0.0 0.0 .
726(15) 0.0 0.0 .
756(14) 0.0 0.0 .
727(14) 0.0 0.0 .
726(14) 0.0 0.0 .
696(14) 0.0 0.0 .
728(14) 0.0 0.0 .
677(13) 0.0 0.0 .
679(14) 0.0 0.0 .
720(15) 0.0 0.0 .
701(14) 0.0 0.0 .
736(14) 0.0 0.0 .
659(13) 0.0 0.0 .
659(14) 0.0 0.0 .
667(14) 0.0 0.0 .
664(14) 0.0 0.0 .
662(13) 0.0 0.0 .
679(13) 0.0 0.0 .
695(14) 0.0 0.0 .
665(14) 0.0 0.0 .
683(14) 0.0 0.0 .
676(14) 0.0 0.0 .
628(13) 0.0 0.0 .
665(14) 0.0 0.0 .
649(14) 0.0 0.0 .
634(13) 0.0 0.0 .
640(13) 0.0 0.0 .
645(13) 0.0 0.0 .
636(14) 0.0 0.0 .
637(14) 0.0 0.0 .
643(14) 0.0 0.0 .
647(13) 0.0 0.0 .
648(13) 0.0 0.0 .
616(13) 0.0 0.0 .
676(15) 0.0 0.0 .
621(13) 0.0 0.0 .
620(13) 0.0 0.0 .
593(13) 0.0 0.0 .
575(13) 0.0 0.0 .
637(14) 0.0 0.0 .
625(13) 0.0 0.0 .
611(13) 0.0 0.0 .
613(13) 0.0 0.0 .
602(13) 0.0 0.0 .
599(13) 0.0 0.0 .
642(14) 0.0 0.0 .
637(13) 0.0 0.0 .
636(13) 0.0 0.0 .
660(14) 0.0 0.0 .
596(13) 0.0 0.0 .
606(13) 0.0 0.0 .
589(13) 0.0 0.0 .
588(13) 0.0 0.0 .
637(14) 0.0 0.0 .
634(14) 0.0 0.0 .
633(13) 0.0 0.0 .
637(13) 0.0 0.0 .
609(13) 0.0 0.0 .
625(13) 0.0 0.0 .
639(14) 0.0 0.0 .
608(13) 0.0 0.0 .
614(13) 0.0 0.0 .
614(13) 0.0 0.0 .
618(14) 0.0 0.0 .
622(13) 0.0 0.0 .
619(13) 0.0 0.0 .
574(12) 0.0 0.0 .
633(14) 0.0 0.0 .
632(14) 0.0 0.0 .
602(13) 0.0 0.0 .
602(13) 0.0 0.0 .
617(13) 0.0 0.0 .
559(13) 0.0 0.0 .
604(14) 0.0 0.0 .
583(13) 0.0 0.0 .
597(13) 0.00608 590.9 39.6
570(12) 0.00652 590.9 39.1
636(14) 0.00548 590.6 38.5
587(13) 0.00559 590.2 37.9
616(13) 0.00561 589.9 37.4
586(13) 0.00630 589.5 36.9
562(12) 0.00661 589.1 36.3
584(13) 0.00592 588.8 35.8
600(14) 0.00548 588.4 35.3
629(13) 0.00549 588.1 34.9
632(13) 0.00589 587.7 34.4
590(13) 0.00630 587.3 33.9
577(13) 0.00621 587.0 33.5
606(14) 0.00534 586.6 33.0
589(13) 0.00593 586.2 32.6
598(13) 0.00626 585.9 32.1
578(13) 0.00626 585.5 31.7
572(13) 0.00603 585.2 31.3
603(14) 0.00547 584.8 30.9
591(13) 0.00575 584.4 30.5
587(13) 0.00634 584.1 30.1
592(13) 0.00620 583.7 29.7
595(13) 0.00579 583.3 29.4
627(14) 0.00518 583.0 29.0
576(13) 0.00613 582.6 28.6
584(13) 0.00638 582.3 28.3
562(13) 0.00625 581.9 27.9
602(13) 0.00562 581.5 27.6
589(13) 0.00571 581.2 27.3
554(13) 0.00637 580.8 26.9
569(12) 0.00652 580.4 26.6
603(13) 0.00581 580.1 26.3
567(13) 0.00616 579.7 26.0
538(12) 0.00644 579.4 25.7
569(13) 0.00625 579.0 25.4
587(13) 0.00633 578.6 25.1
563(12) 0.00643 578.3 24.8
568(13) 0.00600 577.9 24.5
560(13) 0.00600 577.6 24.3
529(12) 0.00682 577.2 24.0
568(12) 0.00657 576.8 23.7
558(13) 0.00608 576.5 23.5
544(13) 0.00624 576.1 23.2
578(13) 0.00596 575.7 22.9
592(13) 0.00605 575.4 22.7
541(12) 0.00678 575.0 22.4
542(13) 0.00634 574.7 22.2
557(13) 0.00603 574.3 22.0
560(13) 0.00624 573.9 21.7
584(13) 0.00619 573.6 21.5
585(13) 0.00631 573.2 21.3
572(13) 0.00620 572.8 21.1
560(13) 0.00583 572.5 20.8
534(12) 0.00650 572.1 20.6
581(13) 0.00636 571.8 20.4
563(12) 0.00654 571.4 20.2
592(13) 0.00583 571.0 20.0
566(13) 0.00558 570.7 19.8
535(12) 0.00652 570.3 19.6
563(12) 0.00647 569.9 19.4
571(12) 0.00652 569.6 19.2
576(13) 0.00593 569.2 19.0
594(14) 0.00531 568.9 18.8
603(13) 0.00574 568.5 18.7
562(12) 0.00649 568.1 18.5
559(12) 0.00658 567.8 18.3
570(13) 0.00599 567.4 18.1
563(13) 0.00567 567.0 18.0
542(13) 0.00628 566.7 17.8
586(13) 0.00624 566.3 17.6
569(12) 0.00647 566.0 17.5
545(12) 0.00641 565.6 17.3
576(13) 0.00588 565.2 17.2
552(13) 0.00619 564.9 17.0
554(12) 0.00671 564.5 16.8
530(12) 0.00654 564.1 16.7
532(13) 0.00621 563.8 16.5
549(13) 0.00599 563.4 16.4
553(13) 0.00614 563.1 16.3
578(12) 0.00646 562.7 16.1
578(13) 0.00617 562.3 16.0
588(13) 0.00571 562.0 15.8
569(13) 0.00599 561.6 15.7
557(13) 0.00634 561.2 15.6
563(12) 0.00661 560.9 15.4
578(13) 0.00618 560.5 15.3
575(13) 0.00599 560.2 15.2
558(13) 0.00612 559.8 15.1
571(13) 0.00625 559.4 14.9
537(12) 0.00683 559.1 14.8
543(13) 0.00636 558.7 14.7
550(13) 0.00607 558.3 14.6
536(13) 0.00638 558.0 14.5
562(12) 0.00644 557.6 14.3
535(12) 0.00697 557.3 14.2
528(12) 0.00652 556.9 14.1
523(12) 0.00643 556.5 14.0
592(13) 0.00564 556.2 13.9
562(12) 0.00658 555.8 13.8
530(12) 0.00699 555.4 13.7
544(13) 0.00637 555.1 13.6
566(13) 0.00580 554.7 13.5
561(13) 0.00614 554.4 13.4
584(13) 0.00627 554.0 13.3
561(12) 0.00663 553.6 13.2
527(12) 0.00651 553.3 13.1
531(13) 0.00623 552.9 13.0
540(12) 0.00679 552.5 12.9
572(12) 0.00648 552.2 12.8
568(12) 0.00646 551.8 12.7
524(12) 0.00656 551.5 12.6
550(13) 0.00580 551.1 12.6
550(13) 0.00640 550.7 12.5
542(12) 0.00689 550.4 12.4
566(12) 0.00652 550.0 12.3
567(13) 0.00622 549.6 12.2
572(13) 0.00577 549.3 12.1
563(13) 0.00616 548.9 12.1
518(12) 0.00711 548.6 12.0
548(12) 0.00670 548.2 11.9
560(13) 0.00616 547.8 11.8
559(13) 0.00574 547.5 11.8
516(12) 0.00649 547.1 11.7
559(12) 0.00664 546.7 11.6
538(12) 0.00674 546.4 11.6
546(13) 0.00624 546.0 11.5
548(13) 0.00607 545.7 11.4
549(13) 0.00632 545.3 11.4
533(12) 0.00696 544.9 11.3
544(12) 0.00669 544.6 11.2
549(13) 0.00612 544.2 11.2
555(13) 0.00611 543.8 11.1
570(13) 0.00604 543.5 11.0
575(12) 0.00651 543.1 11.0
539(12) 0.00659 542.8 10.9
550(13) 0.00615 542.4 10.9
527(12) 0.00664 542.0 10.8
523(12) 0.00684 541.7 10.8
546(12) 0.00677 541.3 10.7
588(13) 0.00593 540.9 10.7
550(13) 0.00618 540.6 10.6
544(13) 0.00623 540.2 10.6
543(12) 0.00668 539.9 10.5
543(12) 0.00687 539.5 10.5
539(12) 0.00659 539.1 10.4
528(12) 0.00655 538.8 10.4
532(12) 0.00678 538.4 10.4
513(12) 0.00713 538.0 10.3
563(12) 0.00661 537.7 10.3
570(13) 0.00592 537.3 10.2
547(13) 0.00608 537.0 10.2
568(13) 0.00612 536.6 10.2
553(12) 0.00665 536.2 10.1
557(12) 0.00667 535.9 10.1
550(13) 0.00632 535.7 10.1
545(13) 0.00593 535.5 10.0
520(12) 0.00704 535.4 10.0
557(12) 0.00673 535.2 10.0
524(12) 0.00705 535.1 10.0
522(12) 0.00673 534.9 9.9
506(13) 0.00637 534.7 9.9
528(12) 0.00664 534.6 9.9
531(12) 0.00695 534.4 9.9
564(12) 0.00659 534.3 9.9
547(12) 0.00653 534.1 9.9
540(13) 0.00604 534.0 9.9
537(12) 0.00644 533.8 9.8
529(12) 0.00700 533.7 9.8
557(12) 0.00662 533.5 9.8
545(12) 0.00648 533.4 9.8
535(13) 0.00614 533.2 9.8
551(12) 0.00640 533.0 9.8
532(12) 0.00700 532.9 9.8
514(12) 0.00721 532.7 9.8
535(12) 0.00659 532.6 9.9
541(13) 0.00634 532.4 9.9
538(12) 0.00644 532.3 9.9
565(12) 0.00659 532.1 9.9
554(12) 0.00649 532.0 9.9
547(12) 0.00643 531.8 9.9
527(12) 0.00640 531.6 10.0
531(12) 0.00654 531.5 10.0
514(12) 0.00724 531.3 10.0
529(12) 0.00672 531.2 10.1
556(13) 0.00617 531.0 10.1
550(13) 0.00629 530.9 10.2
541(12) 0.00667 530.7 10.2
547(12) 0.00677 530.6 10.3
535(12) 0.00646 530.4 10.3
553(13) 0.00598 530.2 10.4
530(12) 0.00656 530.1 10.5
530(12) 0.00688 529.9 10.5
544(12) 0.00682 529.8 10.6
511(12) 0.00681 529.6 10.7
515(13) 0.00637 529.5 10.8
543(13) 0.00627 529.3 10.9
530(12) 0.00681 529.2 11.0
562(12) 0.00662 529.0 11.1
546(13) 0.00631 528.9 11.2
536(13) 0.00592 528.7 11.4
516(12) 0.00667 528.5 11.5
521(12) 0.00712 528.4 11.7
547(12) 0.00682 528.2 11.8
544(12) 0.00647 528.1 12.0
560(13) 0.00575 527.9 12.2
552(12) 0.00642 527.8 12.4
556(12) 0.00672 527.6 12.6
563(12) 0.00658 527.5 12.9
530(13) 0.00639 527.3 13.1
540(13) 0.00591 527.1 13.4
533(12) 0.00654 527.0 13.7
567(12) 0.00650 526.8 14.0
581(13) 0.00629 526.7 14.3
554(13) 0.00610 526.5 14.7
538(13) 0.00599 526.4 15.1
525(12) 0.00658 526.2 15.5
531(12) 0.00696 526.1 16.0
525(12) 0.00704 525.9 16.5
543(12) 0.00645 525.7 17.0
561(13) 0.00598 525.6 17.6
571(13) 0.00599 525.4 18.2
541(12) 0.00687 525.3 18.9
559(12) 0.00651 525.1 19.7
566(13) 0.00605 525.0 20.6
549(13) 0.00597 524.8 21.5
529(12) 0.00641 524.7 22.6
558(12) 0.00667 524.5 23.7
572(13) 0.00635 524.4 25.1
585(13) 0.00587 524.2 26.6
568(13) 0.00598 524.0 28.4
592(13) 0.00582 523.9 30.4
602(13) 0.00616 523.7 32.8
549(13) 0.00631 523.6 35.6
601(13) 0.00572 523.4 38.9
556(12) 0.00642 523.3 42.8
609(13) 0.00587 523.1 47.4
596(13) 0.00621 523.0 52.7
595(13) 0.00587 522.8 59.0
597(13) 0.00571 522.6 66.3
609(14) 0.00548 522.5 74.8
607(13) 0.00591 522.3 84.5
651(13) 0.00569 522.2 95.5
634(13) 0.00558 522.0 107.8
659(14) 0.00509 521.9 121.5
684(14) 0.00493 521.7 136.5
702(14) 0.00505 521.6 152.6
671(13) 0.00553 521.4 169.7
680(14) 0.00518 521.2 187.4
718(15) 0.00460 521.1 205.2
697(14) 0.00496 520.9 222.3
718(14) 0.00504 520.8 237.8
709(14) 0.00522 520.6 250.8
764(15) 0.00445 520.5 260.2
732(15) 0.00449 520.3 265.2
741(15) 0.00475 520.2 265.2
713(14) 0.00517 520.0 260.2
722(14) 0.00514 519.9 250.8
708(14) 0.00498 519.7 237.8
683(14) 0.00479 519.5 222.2
679(14) 0.00514 519.4 205.0
626(13) 0.00596 519.2 187.2
683(14) 0.00538 519.1 169.5
579(13) 0.00628 518.9 152.4
573(13) 0.00590 518.8 136.1
597(13) 0.00597 518.6 121.1
622(13) 0.00592 518.5 107.3
574(13) 0.00640 518.3 94.9
599(13) 0.00574 518.1 83.9
548(13) 0.00598 518.0 74.1
566(13) 0.00600 517.8 65.6
537(12) 0.00699 517.7 58.3
553(12) 0.00660 517.5 51.9
528(12) 0.00664 517.4 46.5
547(13) 0.00606 517.2 41.9
526(12) 0.00674 517.1 38.0
533(12) 0.00693 516.9 34.6
523(12) 0.00683 516.7 31.8
535(12) 0.00654 516.6 29.3
531(13) 0.00636 516.4 27.2
529(12) 0.00664 516.3 25.4
491(11) 0.00759 516.1 23.8
512(12) 0.00695 516.0 22.4
529(12) 0.00644 515.8 21.2
532(12) 0.00644 515.7 20.1
543(12) 0.00646 515.5 19.1
545(12) 0.00686 515.4 18.2
546(12) 0.00643 515.2 17.3
539(13) 0.00625 515.0 16.6
517(12) 0.00666 514.9 15.9
531(12) 0.00674 514.7 15.3
505(12) 0.00735 514.6 14.7
546(13) 0.00627 514.4 14.1
521(12) 0.00658 514.3 13.6
507(12) 0.00690 514.1 13.1
548(12) 0.00646 514.0 12.7
527(12) 0.00706 513.8 12.3
521(12) 0.00664 513.6 11.9
493(12) 0.00671 513.5 11.5
495(12) 0.00706 513.3 11.2
491(12) 0.00743 513.2 10.8
533(12) 0.00696 513.0 10.5
535(12) 0.00657 512.9 10.3
507(12) 0.00669 512.7 10.0
538(13) 0.00636 512.6 9.7
528(12) 0.00703 512.4 9.5
549(12) 0.00683 512.2 9.3
548(13) 0.00635 512.1 9.0
511(12) 0.00645 511.9 8.8
517(12) 0.00685 511.8 8.6
528(12) 0.00706 511.6 8.4
532(12) 0.00684 511.5 8.3
525(12) 0.00664 511.3 8.1
502(12) 0.00669 511.2 7.9
529(12) 0.00660 511.0 7.8
490(12) 0.00755 510.9 7.6
505(12) 0.00726 510.7 7.5
506(12) 0.00671 510.5 7.3
520(13) 0.00614 510.4 7.2
546(13) 0.00621 510.2 7.1
525(12) 0.00704 510.1 7.0
492(11) 0.00760 509.9 6.8
527(12) 0.00656 509.8 6.7
508(12) 0.00670 509.6 6.6
550(13) 0.00636 509.5 6.5
489(11) 0.00759 509.3 6.4
522(12) 0.00702 509.1 6.3
507(12) 0.00681 509.0 6.2
494(12) 0.00690 508.8 6.1
525(13) 0.00639 508.7 6.0
510(12) 0.00729 508.5 6.0
523(12) 0.00685 508.4 5.9
513(12) 0.00678 508.2 5.8
493(12) 0.00709 508.1 5.7
526(12) 0.00672 507.9 5.7
525(12) 0.00705 507.7 5.6
510(12) 0.00692 507.6 5.5
530(12) 0.00652 507.4 5.4
502(12) 0.00681 507.3 5.4
516(12) 0.00677 507.1 5.3
514(12) 0.00720 507.0 5.3
477(12) 0.00705 506.8 5.2
535(13) 0.00621 506.7 5.1
503(12) 0.00692 506.5 5.1
503(12) 0.00702 506.4 5.0
497(11) 0.00759 506.2 5.0
569(13) 0.00600 506.0 4.9
528(13) 0.00613 505.9 4.9
495(12) 0.00712 505.7 4.8
493(12) 0.00742 505.6 4.8
514(12) 0.00718 505.4 4.7
466(12) 0.00754 505.3 4.7
497(12) 0.00677 505.1 4.6
523(12) 0.00664 505.0 4.6
503(12) 0.00742 504.8 4.5
492(11) 0.00764 504.6 4.5
510(12) 0.00668 504.5 4.5
507(13) 0.00623 504.3 4.4
513(12) 0.00683 504.2 4.4
515(12) 0.00720 504.0 4.3
512(12) 0.00720 503.9 4.3
515(12) 0.00669 503.7 4.3
519(13) 0.00599 503.6 4.2
490(12) 0.00710 503.4 4.2
512(12) 0.00728 503.2 4.2
531(12) 0.00688 503.1 4.1
508(12) 0.00682 502.9 4.1
505(12) 0.00654 502.8 4.1
521(12) 0.00652 502.6 4.0
514(12) 0.00718 502.5 4.0
502(12) 0.00746 502.3 4.0
505(12) 0.00689 502.2 3.9
508(12) 0.00653 502.0 3.9
471(12) 0.00746 501.9 3.9
498(12) 0.00745 501.7 3.9
510(12) 0.00712 501.5 3.8
513(12) 0.00655 501.4 3.8
466(12) 0.00718 501.2 3.8
513(12) 0.00684 501.1 3.7
508(12) 0.00719 500.9 3.7
502(12) 0.00722 500.8 3.7
522(12) 0.00656 500.6 3.7
525(13) 0.00632 500.5 3.6
529(12) 0.00650 500.3 3.6
499(12) 0.00743 500.1 3.6
499(12) 0.00697 500.0 3.6
526(12) 0.00640 499.8 3.5
493(12) 0.00715 499.7 3.5
520(12) 0.00692 499.5 3.5
510(12) 0.00740 499.4 3.5
515(12) 0.00661 499.2 3.5
479(12) 0.00728 499.1 3.4
509(12) 0.00683 498.9 3.4
520(12) 0.00699 498.8 3.4
527(12) 0.00705 498.6 3.4
523(12) 0.00687 498.4 3.4
545(13) 0.00604 498.3 3.3
511(12) 0.00689 498.1 3.3
516(12) 0.00701 498.0 3.3
513(12) 0.00728 498.0 3.3
522(12) 0.00674 498.0 3.3
521(13) 0.00637 498.0 3.2
516(12) 0.00684 498.0 3.2
532(12) 0.00693 498.0 3.2
481(11) 0.00768 498.0 3.2
481(12) 0.00728 498.0 3.2
529(13) 0.00604 498.0 3.1
501(12) 0.00718 498.0 3.1
485(11) 0.00759 498.0 3.1
503(12) 0.00731 498.0 3.1
486(12) 0.00713 498.0 3.1
501(12) 0.00643 498.0 3.1
513(12) 0.00691 498.0 3.0
531(12) 0.00690 498.0 3.0
543(12) 0.00686 498.0 3.0
499(12) 0.00687 498.0 3.0
506(13) 0.00627 498.0 3.0
499(12) 0.00704 498.0 3.0
471(11) 0.00793 498.0 3.0
508(12) 0.00725 498.0 2.9
502(12) 0.00679 498.0 2.9
500(12) 0.00641 498.0 2.9
489(12) 0.00729 498.0 2.9
503(12) 0.00744 498.0 2.9
538(12) 0.00670 498.0 2.9
509(12) 0.00668 498.0 2.9
506(12) 0.00649 498.0 2.8
498(12) 0.00696 498.0 2.8
481(11) 0.00771 498.0 2.8
513(12) 0.00716 498.0 2.8
506(12) 0.00694 498.0 2.8
537(13) 0.00621 498.0 2.8
518(12) 0.00667 498.0 2.8
464(11) 0.00795 498.0 2.7
502(12) 0.00714 498.0 2.7
503(12) 0.00692 498.0 2.7
503(12) 0.00688 498.0 2.7
473(11) 0.00766 498.0 2.7
495(12) 0.00749 498.0 2.7
496(12) 0.00697 498.0 2.7
488(12) 0.00685 498.0 2.7
529(12) 0.00641 498.0 2.6
489(12) 0.00724 498.0 2.6
512(12) 0.00732 498.0 2.6
511(12) 0.00672 498.0 2.6
496(12) 0.00690 498.0 2.6
513(12) 0.00678 498.0 2.6
508(12) 0.00706 498.0 2.6
504(12) 0.00737 498.0 2.6
492(12) 0.00699 498.0 2.6
495(12) 0.00663 498.0 2.5
528(12) 0.00652 498.0 2.5
544(12) 0.00676 498.0 2.5
501(12) 0.00745 498.0 2.5
511(12) 0.00687 498.0 2.5
501(12) 0.00645 498.0 2.5
511(12) 0.00648 498.0 2.5
519(12) 0.00706 498.0 2.5
516(12) 0.00725 498.0 2.5
526(12) 0.00662 498.0 2.5
521(13) 0.00627 498.0 2.4
527(12) 0.00663 498.0 2.4
514(12) 0.00726 498.0 2.4
493(12) 0.00737 498.0 2.4
495(12) 0.00684 498.0 2.4
499(13) 0.00627 498.0 2.7
476(12) 0.00744 498.0 2.7
477(11) 0.00770 498.0 2.7
504(12) 0.00727 498.0 2.7
528(12) 0.00642 498.0 2.7
514(13) 0.00639 498.0 2.6
521(12) 0.00667 498.0 2.6
536(12) 0.00692 498.0 2.6
513(12) 0.00716 498.0 2.6
522(12) 0.00669 498.0 2.6
546(13) 0.00606 498.0 2.6
535(12) 0.00643 498.0 2.6
517(12) 0.00723 498.0 2.6
518(12) 0.00694 498.0 2.6
521(12) 0.00655 498.0 2.6
514(12) 0.00652 498.0 2.6
504(12) 0.00700 498.0 2.6
559(12) 0.00666 498.0 2.6
544(12) 0.00660 498.0 2.5
505(12) 0.00673 498.0 2.5
504(12) 0.00676 498.0 2.5
541(13) 0.00633 498.0 2.5
546(12) 0.00681 498.0 2.5
517(12) 0.00670 498.0 2.5
519(12) 0.00649 498.0 2.5
523(12) 0.00654 498.0 2.5
560(13) 0.00634 498.0 2.5
495(12) 0.00752 498.0 2.5
543(13) 0.00636 498.0 2.5
560(13) 0.00605 498.0 2.5
523(12) 0.00671 498.0 2.5
535(12) 0.00678 498.0 2.5
520(12) 0.00717 498.0 2.5
487(12) 0.00701 498.0 2.5
470(12) 0.00720 498.0 2.5
501(12) 0.00691 498.0 2.4
524(12) 0.00695 498.0 2.4
510(12) 0.00726 498.0 2.4
527(12) 0.00665 498.0 2.4
526(12) 0.00650 498.0 2.4
530(12) 0.00654 498.0 2.4
505(12) 0.00732 498.0 2.4
463(11) 0.00807 498.0 2.4
513(12) 0.00680 498.0 2.4
491(12) 0.00678 498.0 2.4
530(12) 0.00659 498.0 2.4
473(11) 0.00782 498.0 2.4
503(12) 0.00735 498.0 2.4
511(12) 0.00690 498.0 2.4
493(13) 0.00639 498.0 2.4
511(12) 0.00681 498.0 2.4
505(12) 0.00737 498.0 2.4
490(11) 0.00759 498.0 2.4
517(12) 0.00665 498.0 2.4
480(12) 0.00682 498.0 2.4
511(12) 0.00664 498.0 2.3
493(12) 0.00734 498.0 2.3
477(11) 0.00775 498.0 2.3
502(12) 0.00691 498.0 2.3
483(12) 0.00689 498.0 2.3
503(12) 0.00696 498.0 2.3
482(11) 0.00765 498.0 2.3
492(12) 0.00737 498.0 2.3
499(12) 0.00696 498.0 2.3
485(12) 0.00713 498.0 2.3
510(12) 0.00666 498.0 2.3
491(12) 0.00753 498.0 2.3
523(12) 0.00677 498.0 2.3
503(12) 0.00693 498.0 2.3
522(12) 0.00655 498.0 2.3
521(12) 0.00674 498.0 2.3
477(11) 0.00776 498.0 2.3
464(12) 0.00748 498.0 2.3
491(12) 0.00684 498.0 2.3
511(12) 0.00669 498.0 2.3
515(12) 0.00693 498.0 2.3
489(11) 0.00761 498.0 2.3
512(12) 0.00652 498.0 2.3
498(12) 0.00669 498.0 2.3
497(12) 0.00702 498.0 2.3
519(12) 0.00691 498.0 2.3
530(12) 0.00703 498.0 2.3
495(12) 0.00700 498.0 2.3
493(12) 0.00653 498.0 2.3
527(13) 0.00639 498.0 2.3
505(12) 0.00717 498.0 2.3
483(11) 0.00771 498.0 2.3
508(12) 0.00697 498.0 2.3
496(12) 0.00670 498.0 2.2
504(12) 0.00706 498.0 2.2
486(11) 0.00763 498.0 2.2
485(11) 0.00767 498.0 2.2
506(12) 0.00665 498.0 2.2
507(12) 0.00643 498.0 2.2
488(12) 0.00724 498.0 2.2
524(12) 0.00704 498.0 2.2
498(12) 0.00745 498.0 2.2
512(12) 0.00661 498.0 2.2
500(12) 0.00653 498.0 2.2
506(12) 0.00688 498.0 2.2
468(11) 0.00786 498.0 2.2
518(12) 0.00726 498.0 2.2
503(12) 0.00713 498.0 2.2
516(12) 0.00643 498.0 2.2
522(12) 0.00659 498.0 2.2
538(12) 0.00683 498.0 2.2
531(12) 0.00683 498.0 2.2
498(12) 0.00700 498.0 2.2
498(12) 0.00656 498.0 2.2
495(12) 0.00697 498.0 2.2
513(12) 0.00726 498.0 2.2
502(12) 0.00709 498.0 2.2
531(12) 0.00664 498.0 2.2
516(12) 0.00664 498.0 2.2
519(12) 0.00670 498.0 2.2
493(12) 0.00755 498.0 2.2
524(12) 0.00669 498.0 2.2
495(12) 0.00704 498.0 2.2
509(12) 0.00676 498.0 2.2
484(12) 0.00729 498.0 2.2
519(12) 0.00720 498.0 2.2
518(12) 0.00692 498.0 2.2
473(12) 0.00730 498.0 2.2
497(12) 0.00682 498.0 2.2
543(12) 0.00657 498.0 2.2
504(12) 0.00740 498.0 2.2
497(12) 0.00715 498.0 2.2
521(12) 0.00646 498.0 2.2
487(12) 0.00708 498.0 2.2
513(12) 0.00704 498.0 2.2
519(12) 0.00712 498.0 2.2
532(13) 0.00637 498.0 2.2
498(12) 0.00676 498.0 2.3
496(12) 0.00689 498.0 2.3
513(12) 0.00698 498.0 2.3
523(12) 0.00709 498.0 2.3
508(12) 0.00683 498.0 2.3
526(13) 0.00626 498.0 2.3
507(12) 0.00700 498.0 2.3
511(12) 0.00707 498.0 2.3
502(12) 0.00735 498.0 2.3
544(13) 0.00639 498.0 2.3
480(12) 0.00698 498.0 2.3
486(12) 0.00708 498.0 2.3
495(12) 0.00747 498.0 2.3
480(11) 0.00761 498.0 2.3
506(12) 0.00679 498.0 2.3
478(12) 0.00687 498.0 2.3
516(12) 0.00686 498.0 2.3
501(12) 0.00742 498.0 2.3
513(12) 0.00723 498.0 2.3
524(12) 0.00676 498.0 2.3
493(12) 0.00668 498.0 2.3
474(12) 0.00740 498.0 2.3
509(12) 0.00728 498.0 2.3
512(12) 0.00715 498.0 2.4
502(12) 0.00671 498.0 2.4
491(12) 0.00657 498.0 2.4
483(12) 0.00699 498.0 2.4
503(12) 0.00742 498.0 2.4
534(12) 0.00669 498.0 2.4
488(12) 0.00726 498.0 2.4
508(12) 0.00652 498.0 2.4
530(12) 0.00648 498.0 2.4
509(12) 0.00723 498.0 2.4
493(12) 0.00741 498.0 2.4
464(12) 0.00733 498.0 2.4
514(13) 0.00631 498.1 2.5
487(12) 0.00718 498.2 2.5
510(12) 0.00732 498.2 2.5
510(12) 0.00691 498.3 2.5
493(12) 0.00700 498.4 2.5
478(12) 0.00728 498.5 2.5
491(12) 0.00710 498.6 2.5
490(11) 0.00759 498.7 2.5
511(12) 0.00685 498.8 2.5
491(12) 0.00692 498.9 2.6
475(12) 0.00735 498.9 2.6
542(12) 0.00654 499.0 2.6
487(11) 0.00769 499.1 2.6
506(12) 0.00667 499.2 2.6
479(12) 0.00704 499.3 2.6
533(12) 0.00646 499.4 3.1
495(12) 0.00737 499.5 3.1
506(12) 0.00738 499.6 3.1
479(12) 0.00713 499.6 3.1
469(12) 0.00700 499.7 3.2
503(12) 0.00692 499.8 3.2
522(12) 0.00694 499.9 3.2
498(12) 0.00750 500.0 3.2
496(12) 0.00695 500.1 3.2
509(13) 0.00635 500.2 3.3
490(12) 0.00688 500.3 3.3
509(12) 0.00733 500.3 3.3
477(11) 0.00767 500.4 3.4
496(12) 0.00687 500.5 3.4
505(13) 0.00632 500.6 3.4
516(12) 0.00683 500.7 3.5
523(12) 0.00708 500.8 3.5
487(12) 0.00753 500.9 3.5
512(12) 0.00691 501.0 3.6
509(13) 0.00629 501.0 3.6
511(12) 0.00666 501.1 3.6
516(12) 0.00720 501.2 3.7
483(11) 0.00762 501.3 3.7
509(12) 0.00660 501.4 3.8
496(12) 0.00661 501.5 3.8
520(12) 0.00674 501.6 3.9
510(12) 0.00732 501.7 3.9
500(12) 0.00731 501.7 4.0
495(12) 0.00719 501.8 4.0
523(13) 0.00625 501.9 4.1
515(12) 0.00657 502.0 4.2
513(12) 0.00721 502.1 4.2
518(12) 0.00703 502.2 4.3
513(12) 0.00668 502.3 4.4
502(12) 0.00669 502.4 4.5
518(12) 0.00684 502.4 4.6
529(12) 0.00707 502.5 4.7
483(12) 0.00734 502.6 4.8
498(12) 0.00687 502.7 4.9
496(12) 0.00696 502.8 5.0
507(12) 0.00695 502.9 5.1
492(11) 0.00757 503.0 5.2
490(12) 0.00711 503.1 5.4
499(12) 0.00693 503.1 5.6
497(12) 0.00695 503.2 5.7
519(12) 0.00689 503.3 5.9
560(12) 0.00667 503.4 6.1
524(12) 0.00681 503.5 6.3
536(13) 0.00627 503.6 6.6
505(12) 0.00685 503.7 6.9
477(11) 0.00769 503.8 7.1
498(12) 0.00749 503.8 7.5
509(12) 0.00681 503.9 7.8
514(12) 0.00643 504.0 8.2
526(12) 0.00659 504.1 8.6
496(12) 0.00725 504.2 9.1
498(12) 0.00744 504.3 9.5
508(12) 0.00697 504.4 10.1
507(12) 0.00660 504.5 10.6
519(12) 0.00677 504.5 11.2
528(12) 0.00706 504.6 11.9
499(12) 0.00746 504.7 12.6
528(12) 0.00642 504.8 13.3
509(13) 0.00632 504.9 14.1
494(12) 0.00709 505.0 14.9
509(12) 0.00728 505.1 15.8
510(12) 0.00731 505.2 16.8
524(12) 0.00669 505.2 17.7
504(12) 0.00642 505.3 18.7
529(12) 0.00646 505.4 19.8
535(12) 0.00677 505.5 20.9
524(12) 0.00703 505.6 21.9
496(12) 0.00684 505.7 23.0
525(13) 0.00613 505.8 24.1
519(12) 0.00667 505.8 25.1
493(11) 0.00761 505.9 26.1
522(12) 0.00702 506.0 27.0
508(12) 0.00691 506.1 27.8
511(12) 0.00658 506.2 28.4
521(12) 0.00658 506.3 29.0
514(12) 0.00719 506.4 29.3
484(12) 0.00741 506.5 29.5
484(12) 0.00705 506.5 29.5
502(12) 0.00657 506.6 29.3
545(13) 0.00614 506.7 28.9
509(12) 0.00729 506.8 28.4
507(12) 0.00706 506.9 27.7
522(12) 0.00655 507.0 26.9
525(12) 0.00653 507.1 26.0
487(12) 0.00747 507.2 25.1
536(12) 0.00692 507.2 24.0
481(12) 0.00747 507.3 23.0
528(12) 0.00653 507.4 21.9
523(12) 0.00660 507.5 20.9
515(12) 0.00694 507.6 19.8
484(11) 0.00765 507.7 18.8
523(12) 0.00654 507.8 17.8
495(12) 0.00681 507.9 16.8
475(12) 0.00737 507.9 15.9
495(12) 0.00730 508.0 15.0
513(12) 0.00717 508.1 14.2
503(12) 0.00706 508.2 13.5
509(13) 0.00640 508.3 12.7
507(12) 0.00665 508.4 12.1
490(12) 0.00738 508.5 11.4
529(12) 0.00696 508.6 10.8
518(12) 0.00648 508.6 10.3
501(12) 0.00648 508.7 9.8
537(12) 0.00641 508.8 9.3
523(12) 0.00696 508.9 8.9
479(11) 0.00768 509.0 8.5
513(12) 0.00677 509.1 8.2
516(13) 0.00625 509.2 7.8
472(12) 0.00735 509.3 7.5
517(12) 0.00711 509.3 7.3
521(12) 0.00711 509.4 7.0
500(12) 0.00709 509.5 6.8
503(13) 0.00639 509.6 6.6
505(12) 0.00693 509.7 6.4
491(11) 0.00761 509.8 6.2
515(12) 0.00719 509.9 6.1
494(12) 0.00719 510.0 5.9
488(12) 0.00661 510.0 5.8
494(12) 0.00707 510.1 5.7
521(12) 0.00711 510.2 5.6
534(12) 0.00681 510.3 5.5
492(12) 0.00703 510.4 5.4
529(13) 0.00599 510.5 5.3
483(12) 0.00712 510.6 5.2
530(12) 0.00705 510.7 5.1
520(12) 0.00696 510.7 5.1
484(12) 0.00715 510.8 5.0
505(12) 0.00647 510.9 4.9
517(12) 0.00671 511.0 4.9
515(12) 0.00719 511.1 4.8
531(12) 0.00677 511.2 4.8
525(12) 0.00666 511.3 4.8
499(12) 0.00700 511.4 4.7
515(12) 0.00685 511.4 4.7
501(12) 0.00741 511.5 4.6
504(12) 0.00711 511.6 4.6
515(12) 0.00656 511.7 4.6
505(12) 0.00681 511.8 4.6
527(12) 0.00666 511.9 4.5
529(12) 0.00703 512.0 4.5
519(12) 0.00656 512.1 4.5
472(12) 0.00746 512.1 4.5
537(13) 0.00638 512.2 4.4
505(12) 0.00708 512.3 4.4
493(12) 0.00751 512.4 4.4
499(12) 0.00695 512.5 4.4
494(12) 0.00702 512.6 4.4
523(12) 0.00660 512.7 4.4
494(12) 0.00750 512.8 4.4
515(12) 0.00714 512.8 4.4
526(12) 0.00659 512.9 4.4
502(12) 0.00684 513.0 4.4
520(12) 0.00691 513.1 4.3
521(12) 0.00695 513.2 4.3
503(12) 0.00751 513.3 4.3
518(12) 0.00667 513.4 4.3
514(12) 0.00652 513.5 4.3
527(12) 0.00659 513.5 4.3
533(12) 0.00691 513.6 4.3
533(12) 0.00692 513.7 4.3
544(13) 0.00635 513.8 4.3
518(13) 0.00624 513.9 4.4
517(12) 0.00673 514.0 4.4
534(12) 0.00697 514.1 4.4
557(12) 0.00662 514.2 4.4
531(12) 0.00649 514.2 4.4
523(12) 0.00642 514.3 4.4
510(12) 0.00702 514.4 4.4
549(12) 0.00675 514.5 4.4
501(12) 0.00746 514.6 4.4
520(12) 0.00670 514.7 4.4
521(13) 0.00621 514.8 4.4
509(12) 0.00691 514.9 4.5
530(12) 0.00707 514.9 4.5
522(12) 0.00683 515.0 4.5
524(12) 0.00653 515.1 4.5
510(12) 0.00643 515.2 4.5
507(12) 0.00669 515.3 4.5
471(11) 0.00793 515.4 4.6
541(12) 0.00663 515.5 4.6
526(12) 0.00654 515.5 4.6
510(12) 0.00642 515.6 4.6
521(12) 0.00657 515.7 4.6
516(12) 0.00720 515.8 4.7
498(12) 0.00716 515.9 4.7
516(12) 0.00665 516.0 4.7
529(12) 0.00646 516.1 4.7
502(12) 0.00715 516.2 4.7
530(12) 0.00698 516.2 4.8
522(12) 0.00680 516.3 4.8
536(13) 0.00629 516.4 4.8
517(12) 0.00657 516.5 4.8
524(12) 0.00667 516.6 4.9
543(12) 0.00686 516.7 4.9
512(12) 0.00683 516.8 4.9
508(12) 0.00656 516.9 5.0
533(12) 0.00643 516.9 5.0
519(12) 0.00696 517.0 5.0
559(12) 0.00670 517.1 5.1
517(12) 0.00673 517.2 5.1
516(12) 0.00655 517.3 5.1
489(12) 0.00732 517.4 5.2
525(12) 0.00694 517.5 5.2
552(12) 0.00679 517.6 5.2
503(12) 0.00693 517.6 5.3
538(13) 0.00600 517.7 5.3
540(12) 0.00646 517.8 5.4
497(12) 0.00744 517.9 5.4
524(12) 0.00707 518.0 5.4
529(12) 0.00667 518.1 5.5
515(13) 0.00627 518.2 5.6
506(12) 0.00709 518.3 5.6
505(12) 0.00740 518.3 5.7
480(11) 0.00776 518.4 5.7
502(12) 0.00687 518.5 5.8
510(13) 0.00630 518.6 5.8
573(13) 0.00572 518.7 5.9
524(12) 0.00716 518.8 5.9
528(12) 0.00696 518.9 6.0
519(12) 0.00675 519.0 6.0
528(13) 0.00618 519.0 6.1
532(13) 0.00629 519.1 6.1
511(12) 0.00718 519.2 6.2
554(12) 0.00667 519.3 6.3
508(12) 0.00704 519.4 6.3
516(13) 0.00639 519.5 6.4
528(12) 0.00651 519.6 6.4
529(12) 0.00705 519.7 6.5
512(12) 0.00715 519.7 6.6
523(12) 0.00669 519.8 6.6
546(13) 0.00632 519.9 6.7
552(13) 0.00619 520.0 6.8
529(12) 0.00700 520.1 6.9
537(12) 0.00657 520.2 6.9
494(12) 0.00702 520.3 7.0
496(12) 0.00682 520.4 7.1
508(12) 0.00708 520.4 7.2
505(12) 0.00736 520.5 7.2
514(12) 0.00688 520.6 7.3
533(12) 0.00642 520.7 7.4
558(13) 0.00609 520.9 7.5
523(12) 0.00692 521.2 7.6
490(11) 0.00764 521.4 7.7
505(12) 0.00683 521.6 7.8
518(13) 0.00631 521.8 7.9
506(12) 0.00663 522.0 8.0
508(12) 0.00707 522.2 8.1
489(11) 0.00761 522.5 8.2
525(12) 0.00647 522.7 8.3
546(13) 0.00598 522.9 8.4
544(13) 0.00630 523.1 8.5
528(12) 0.00693 523.3 8.6
534(12) 0.00693 523.5 8.8
543(13) 0.00623 523.8 8.9
528(13) 0.00625 524.0 9.0
508(12) 0.00658 524.2 9.1
527(12) 0.00689 524.4 9.3
505(12) 0.00733 524.6 9.4
530(12) 0.00655 524.8 9.5
528(13) 0.00608 525.1 9.7
509(12) 0.00698 525.3 9.8
546(12) 0.00681 525.5 10.0
504(12) 0.00727 525.7 10.2
545(13) 0.00631 525.9 10.3
523(13) 0.00617 526.1 10.5
525(13) 0.00637 526.4 10.7
530(12) 0.00702 526.6 10.8
526(12) 0.00701 526.8 11.0
523(12) 0.00673 527.0 11.2
521(13) 0.00632 527.2 11.4
552(13) 0.00615 527.4 11.6
538(12) 0.00689 527.7 11.8
542(12) 0.00673 527.9 12.0
520(12) 0.00654 528.1 12.3
524(13) 0.00616 528.3 12.5
518(12) 0.00665 528.5 12.7
509(12) 0.00729 528.7 13.0
506(12) 0.00725 529.0 13.2
537(12) 0.00650 529.2 13.5
549(13) 0.00610 529.4 13.8
505(12) 0.00688 529.6 14.0
529(12) 0.00706 529.8 14.3
538(12) 0.00660 530.0 14.6
514(12) 0.00682 530.3 14.9
543(13) 0.00615 530.5 15.3
529(12) 0.00656 530.7 15.6
513(12) 0.00729 530.9 15.9
549(12) 0.00644 531.1 16.3
534(12) 0.00661 531.3 16.7
529(12) 0.00664 531.6 17.1
527(12) 0.00677 531.8 17.5
525(12) 0.00707 532.0 17.9
536(12) 0.00661 532.2 18.3
554(13) 0.00602 532.4 18.8
540(12) 0.00645 532.6 19.3
567(13) 0.00636 532.9 19.8
530(12) 0.00694 533.1 20.3
516(13) 0.00637 533.3 20.8
538(13) 0.00628 533.5 21.4
565(13) 0.00606 533.7 22.0
544(12) 0.00676 534.0 22.6
536(12) 0.00694 534.2 23.3
532(12) 0.00649 534.4 23.9
550(13) 0.00590 534.6 24.7
553(12) 0.00643 534.8 25.4
565(12) 0.00646 535.0 26.2
593(13) 0.00629 535.3 27.0
561(13) 0.00616 535.5 27.9
579(14) 0.00545 535.7 28.8
546(12) 0.00646 535.9 29.7
538(12) 0.00687 536.1 30.7
570(12) 0.00653 536.3 31.8
539(12) 0.00641 536.6 32.9
532(13) 0.00618 536.8 34.1
563(13) 0.00618 537.0 35.4
537(12) 0.00682 537.2 36.7
552(12) 0.00667 537.4 38.1
535(12) 0.00660 537.6 39.6
559(13) 0.00589 537.9 41.2
566(13) 0.00622 538.1 42.9
542(12) 0.00690 538.3 44.8
579(13) 0.00637 538.5 46.7
564(13) 0.00627 538.7 48.8
574(13) 0.00578 538.9 51.0
600(13) 0.00567 539.2 53.4
581(12) 0.00645 539.4 55.9
599(13) 0.00589 539.6 58.7
587(13) 0.00599 539.8 61.6
584(13) 0.00588 540.0 64.8
556(13) 0.00629 540.2 68.2
583(13) 0.00636 540.5 72.0
604(13) 0.00595 540.7 76.0
580(13) 0.00598 540.9 80.5
617(14) 0.00539 541.1 85.3
632(14) 0.00545 541.3 90.6
643(13) 0.00579 541.5 96.3
605(13) 0.00605 541.8 102.7
612(13) 0.00564 542.0 109.7
644(14) 0.00522 542.2 117.5
637(13) 0.00559 542.4 126.1
607(13) 0.00612 542.6 135.7
638(13) 0.00550 542.8 146.5
650(14) 0.00529 543.1 158.6
707(14) 0.00479 543.3 172.4
662(14) 0.00548 543.5 188.2
748(14) 0.00496 543.7 206.7
777(15) 0.00452 543.9 228.4
805(16) 0.00416 544.1 254.6
836(16) 0.00415 544.4 286.8
877(16) 0.00412 544.6 327.0
948(16) 0.00393 544.8 378.2
993(17) 0.003482 545.0 443.9
1107(18) 0.002959 545.2 528.8
1189(18) 0.002939 545.4 637.9
1410(20) 0.002587 545.7 777.0
1554(20) 0.002401 545.9 951.4
1712(22) 0.002049 546.1 1165.9
2008(25) 0.001617 546.3 1423.4
2239(26) 0.001538 546.5 1723.8
2578(27) 0.001414 546.7 2062.7
2812(27) 0.001328 547.0 2429.9
3174(30) 0.001083 547.2 2805.9
3654(34) 0.000883 547.4 3160.7
3989(34) 0.000859 547.6 3452.7
4335(34) 0.000847 547.8 3635.5
4386(35) 0.000837 548.0 3673.5
4304(35) 0.000805 548. 3559.
3879(35) 0.000836 548.5 3314.6
3502(32) 0.000986 548.7 2984.8
3072(29) 0.001204 548.9 2614.8
2679(27) 0.001359 549.1 2240.2
2280(26) 0.001517 549.3 1885.7
2066(25) 0.001576 549.6 1565.5
1878(23) 0.001852 549.8 1286.8
1618(21) 0.002282 550.0 1051.5
1432(20) 0.002517 550.2 857.9
1357(20) 0.002557 550.4 702.2
1270(20) 0.002622 550.6 579.1
1146(18) 0.003034 550.9 483.0
1048(17) 0.00357 551.1 408.6
1014(17) 0.00356 551.3 350.8
900(16) 0.00384 551.5 305.6
839(16) 0.00407 551.7 269.8
811(15) 0.00439 551.9 240.9
804(15) 0.00461 552.2 217.1
805(15) 0.00440 552.4 197.2
760(15) 0.00453 552.6 180.2
734(15) 0.00457 552.8 165.5
741(15) 0.00469 553.0 152.6
730(14) 0.00506 553.2 141.2
697(14) 0.00509 553.5 131.0
686(14) 0.00504 553.7 122.0
678(14) 0.00506 553.9 113.8
658(14) 0.00535 554.1 106.5
652(13) 0.00570 554.3 99.8
658(14) 0.00523 554.5 93.8
614(14) 0.00544 554.8 88.3
614(13) 0.00562 555.0 83.2
607(13) 0.00598 555.2 78.6
587(13) 0.00628 555.4 74.4
608(13) 0.00583 555.6 70.6
610(13) 0.00562 555.8 67.0
624(13) 0.00564 556.1 63.7
585(13) 0.00616 556.3 60.6
598(13) 0.00619 556.5 57.8
611(13) 0.00576 556.7 55.2
607(14) 0.00544 556.9 52.7
576(13) 0.00611 557.1 50.5
583(13) 0.00628 557.4 48.3
584(13) 0.00637 557.6 46.3
578(13) 0.00593 557.8 44.5
577(14) 0.00549 558.0 42.7
521(12) 0.00684 558.2 41.1
564(12) 0.00660 558.4 39.6
595(13) 0.00618 558.7 38.1
558(13) 0.00625 558.9 36.8
555(13) 0.00577 559.1 35.5
537(12) 0.00662 559.3 34.3
570(12) 0.00656 559.5 33.1
550(12) 0.00671 559.7 32.1
564(13) 0.00607 560.0 31.0
556(13) 0.00585 560.2 30.1
562(13) 0.00620 560.4 29.2
569(12) 0.00650 560.6 28.3
573(12) 0.00648 560.8 27.5
579(13) 0.00601 561.0 26.7
573(13) 0.00586 561.3 25.9
573(13) 0.00603 561.5 25.2
591(13) 0.00629 561.7 24.5
586(13) 0.00621 561.9 23.9
568(13) 0.00612 562.1 23.3
552(13) 0.00608 562.3 22.7
566(13) 0.00614 562.6 22.1
592(13) 0.00625 562.8 21.6
616(13) 0.00582 563.0 21.1
580(13) 0.00591 563.2 20.6
570(13) 0.00599 563.4 20.1
562(13) 0.00625 563.7 19.7
558(12) 0.00669 563.9 19.2
550(12) 0.00655 564.1 18.8
552(13) 0.00610 564.3 18.4
561(13) 0.00591 564.5 18.0
540(12) 0.00658 564.7 17.7
576(12) 0.00642 565.0 17.3
572(13) 0.00613 565.2 17.0
561(13) 0.00595 565.4 16.7
584(13) 0.00593 565.6 16.4
553(12) 0.00651 565.8 16.1
550(12) 0.00676 566.0 15.8
586(13) 0.00590 566.3 15.5
592(13) 0.00555 566.5 15.2
547(13) 0.00626 566.7 15.0
596(13) 0.00616 566.9 14.7
604(13) 0.00620 567.1 14.5
555(13) 0.00622 567.3 14.3
587(14) 0.00549 567.6 14.0
577(13) 0.00597 567.8 13.8
552(12) 0.00659 568.0 13.6
564(12) 0.00661 568.2 13.4
565(13) 0.00605 568.4 13.2
563(13) 0.00592 568.6 13.0
592(13) 0.00595 568.9 12.9
587(13) 0.00629 569.1 12.7
552(12) 0.00667 569.3 12.5
557(13) 0.00626 569.5 12.4
557(13) 0.00562 569.7 12.2
536(12) 0.00659 569.9 12.1
574(12) 0.00648 570.2 11.9
609(13) 0.00603 570.4 11.8
548(12) 0.00645 570.6 11.6
592(14) 0.00540 570.8 11.5
593(13) 0.00601 571.0 11.4
579(13) 0.00640 571.2 11.3
575(12) 0.00644 571.5 11.2
561(13) 0.00609 571.7 11.0
585(13) 0.00559 571.9 10.9
561(13) 0.00621 572.1 10.8
576(12) 0.00643 572.3 10.7
564(12) 0.00655 572.5 10.6
541(12) 0.00647 572.8 10.5
569(13) 0.00591 573.0 10.4
582(13) 0.00586 573.2 10.3
582(13) 0.00635 573.4 10.3
602(13) 0.00602 573.6 10.2
576(13) 0.00598 573.8 10.1
560(13) 0.00597 574.1 10.0
566(13) 0.00617 574.3 10.0
595(13) 0.00625 574.5 9.9
566(13) 0.00633 574.7 9.8
596(13) 0.00563 574.9 9.7
551(13) 0.00624 575.1 9.7
562(13) 0.00629 575.4 9.6
597(13) 0.00626 575.6 9.6
559(13) 0.00622 575.8 9.5
609(14) 0.00547 576.0 9.5
537(12) 0.00669 576.2 9.4
572(13) 0.00628 576.4 9.3
537(12) 0.00694 576.7 9.3
601(13) 0.00576 576.9 9.3
597(13) 0.00572 577.1 9.2
607(13) 0.00565 577.3 9.2
593(13) 0.00609 577.5 9.1
573(12) 0.00655 577.7 9.1
578(13) 0.00598 578.0 9.1
549(13) 0.00598 578.2 9.0
558(13) 0.00625 578.4 9.0
576(13) 0.00637 578.6 9.0
562(12) 0.00661 578.8 8.9
564(13) 0.00612 579.0 8.9
559(13) 0.00582 579.3 8.9
612(13) 0.00550 579.5 8.8
574(12) 0.00649 579.7 8.8
617(13) 0.00605 579.9 8.8
567(13) 0.00621 580.1 8.8
575(13) 0.00557 580.3 8.8
572(13) 0.00612 580.6 8.7
606(13) 0.00615 580.8 8.7
603(13) 0.00614 581.0 8.7
594(13) 0.00588 581.2 8.7
575(13) 0.00549 581.4 8.7
563(13) 0.00614 581.6 8.7
554(12) 0.00672 581.9 8.7
588(13) 0.00632 582.1 8.7
588(13) 0.00574 582.3 8.7
596(13) 0.00550 582.5 8.7
606(13) 0.00577 582.7 8.7
584(13) 0.00640 582.9 8.7
549(12) 0.00660 583.2 8.7
582(13) 0.00592 583.4 8.7
571(13) 0.00593 583.6 8.7
607(13) 0.00564 583.8 8.7
607(13) 0.00613 584.0 8.7
576(13) 0.00616 584.2 8.7
598(13) 0.00567 584.5 8.7
561(13) 0.00612 584.7 8.8
561(13) 0.00616 584.9 8.8
605(13) 0.00618 585.1 8.8
564(13) 0.00639 585.3 8.8
593(13) 0.00576 585.5 8.8
601(13) 0.00560 585.8 8.8
606(13) 0.00580 586.0 8.8
562(12) 0.00659 586.2 8.9
563(13) 0.00625 586.4 8.9
584(13) 0.00579 586.6 8.9
576(13) 0.00580 586.8 8.9
585(13) 0.00620 587.1 8.9
591(13) 0.00631 587.3 9.0
610(13) 0.00559 587.5 9.0
573(13) 0.00585 587.7 9.0
588(13) 0.00594 587.9 9.0
603(13) 0.00592 588.1 9.1
590(13) 0.00631 588.4 9.1
595(13) 0.00591 588.6 9.1
623(14) 0.00534 588.8 9.2
586(13) 0.00595 589.0 9.2
573(13) 0.00635 589.2 9.2
607(13) 0.00608 589.4 9.3
587(13) 0.00591 589.7 9.3
612(14) 0.00525 589.9 9.3
617(13) 0.00562 590.1 9.4
601(13) 0.00621 590.3 9.4
607(13) 0.00612 590.5 9.5
571(13) 0.00624 590.9 9.5
600(14) 0.00536 591.3 9.6
612(13) 0.00564 591.8 9.6
588(13) 0.00631 592.2 9.7
598(13) 0.00621 592.7 9.7
622(13) 0.00553 593.1 9.8
597(14) 0.00528 593.6 9.8
603(13) 0.00570 594.0 9.9
606(13) 0.00614 594.5 9.9
617(13) 0.00597 595.0 10.0
581(13) 0.00591 595.4 10.0
608(14) 0.00529 595.9 10.1
597(13) 0.00568 596.3 10.2
596(13) 0.00622 596.8 10.2
601(13) 0.00615 597.2 10.3
567(13) 0.00610 597.7 10.4
575(13) 0.00586 598.1 10.4
635(14) 0.00542 598.6 10.5
618(13) 0.00602 599.0 10.6
557(12) 0.00655 599.5 10.7
599(13) 0.00572 599.9 10.7
606(13) 0.00554 600.4 10.8
617(13) 0.00567 600.9 10.9
621(13) 0.00603 601.3 11.0
615(13) 0.00578 601.8 11.1
589(13) 0.00566 602.2 11.1
590(13) 0.00567 602.7 11.2
605(13) 0.00588 603.1 11.3
627(13) 0.00593 603.6 11.4
590(13) 0.00591 604.0 11.5
579(13) 0.00604 604.5 11.6
582(13) 0.00607 604.9 11.7
607(13) 0.00594 605.4 11.8
577(12) 0.00644 605.8 11.9
615(13) 0.00574 606.3 12.0
604(13) 0.00572 606.8 12.1
620(13) 0.00558 607.2 12.2
603(13) 0.00595 607.7 12.4
623(13) 0.00591 608.1 12.5
627(13) 0.00558 608.6 12.6
609(14) 0.00542 609.0 12.7
617(14) 0.00546 609.5 12.8
583(13) 0.00625 609.9 13.0
614(13) 0.00603 610.4 13.1
597(13) 0.00582 610.8 13.2
613(14) 0.00537 611.3 13.4
620(13) 0.00572 611.7 13.5
638(13) 0.00582 612.2 13.6
611(13) 0.00596 612.7 13.8
599(13) 0.00585 613.1 13.9
611(14) 0.00531 613.6 14.1
616(13) 0.00562 614.0 14.3
629(13) 0.00589 614.5 14.4
581(12) 0.00641 614.9 14.6
612(13) 0.00569 615.4 14.7
631(14) 0.00515 615.8 14.9
602(13) 0.00579 616.3 15.1
631(13) 0.00578 616.7 15.3
631(13) 0.00588 617.2 15.5
626(13) 0.00557 617.7 15.7
622(14) 0.00527 618.1 15.8
610(13) 0.00567 618.6 16.0
618(13) 0.00604 619.0 16.2
613(13) 0.00597 619.5 16.5
604(13) 0.00571 619.9 16.7
638(14) 0.00504 620.4 16.9
627(14) 0.00545 620.8 17.1
599(13) 0.00624 621.3 17.3
609(13) 0.00586 621.7 17.6
611(13) 0.00569 622.2 17.8
586(13) 0.00582 622.6 18.1
608(13) 0.00565 623.1 18.3
602(13) 0.00621 623.6 18.6
668(14) 0.00530 624.0 18.9
648(14) 0.00536 624.5 19.1
621(14) 0.00546 624.9 19.4
646(14) 0.00529 625.4 19.7
656(13) 0.00565 625.8 20.0
621(13) 0.00581 626.3 20.3
635(14) 0.00524 626.7 20.6
599(13) 0.00581 627.2 20.9
633(13) 0.00560 627.6 21.3
641(13) 0.00583 628.1 21.6
628(13) 0.00553 628.5 22.0
634(14) 0.00529 629.0 22.3
642(14) 0.00532 629.5 22.7
634(13) 0.00559 629.9 23.1
626(13) 0.00590 630.4 23.5
650(14) 0.00542 630.8 23.9
651(14) 0.00517 631.3 24.3
660(14) 0.00527 631.7 24.7
624(13) 0.00588 632.2 25.2
630(13) 0.00591 632.6 25.6
609(13) 0.00572 633.1 26.1
640(14) 0.00504 633.5 26.6
619(13) 0.00566 634.0 27.1
633(13) 0.00588 634.4 27.6
655(13) 0.00569 634.9 28.1
630(14) 0.00541 635.4 28.7
641(14) 0.00514 635.8 29.2
647(14) 0.00527 636.3 29.8
638(13) 0.00575 636.7 30.4
619(13) 0.00595 637.2 31.0
643(14) 0.00540 637.6 31.7
636(14) 0.00514 638.1 32.3
632(13) 0.00562 638.5 33.0
664(13) 0.00556 639.0 33.7
637(13) 0.00578 639.4 34.5
600(13) 0.00593 639.9 35.2
658(14) 0.00493 640.3 36.0
670(14) 0.00524 640.8 36.8
647(13) 0.00575 641.3 37.7
659(13) 0.00561 641.7 38.6
624(13) 0.00562 642.2 39.5
584(13) 0.00574 642.6 40.4
650(14) 0.00522 643.1 41.4
686(14) 0.00539 643.5 42.4
663(13) 0.00553 644.0 43.5
669(14) 0.00512 644.4 44.6
657(14) 0.00513 644.9 45.7
698(14) 0.00494 645.3 46.9
660(13) 0.00560 645.8 48.2
682(14) 0.00531 646.2 49.4
674(14) 0.00513 646.7 50.8
676(14) 0.00494 647.2 52.2
681(14) 0.00519 647.6 53.7
702(14) 0.00529 648.1 55.2
730(14) 0.00484 648.5 56.8
678(14) 0.00506 649.0 58.5
682(14) 0.00491 649.4 60.2
696(14) 0.00510 649.9 62.1
674(13) 0.00556 650.3 64.0
679(14) 0.00507 650.8 66.0
684(14) 0.00498 651.2 68.2
731(15) 0.00465 651.7 70.4
710(14) 0.00505 652.2 72.7
702(14) 0.00524 652.6 75.2
684(14) 0.00501 653.1 77.8
713(15) 0.00470 653.5 80.5
687(14) 0.00524 654.0 83.4
711(14) 0.00511 654.4 86.4
725(14) 0.00517 654.9 89.6
714(14) 0.00483 655.3 93.0
752(15) 0.00440 655.8 96.6
767(15) 0.00464 656.2 100.4
760(14) 0.00479 656.7 104.5
742(14) 0.00500 657.1 108.8
749(15) 0.00466 657.6 113.3
728(15) 0.00453 658.1 118.2
707(14) 0.00502 658.5 123.4
746(14) 0.00495 659.0 128.9
743(14) 0.00497 659.4 134.8
776(15) 0.00447 659.9 141.2
730(15) 0.00450 660.3 148.0
729(14) 0.00485 660.8 155.2
781(15) 0.00474 661.2 163.1
788(15) 0.00464 661.7 171.5
743(15) 0.00466 662.1 180.7
800(16) 0.00409 662.6 190.6
841(15) 0.00419 663.0 201.3
813(15) 0.00459 663.5 212.9
873(15) 0.00421 664.0 225.6
868(16) 0.00406 664.4 239.4
847(16) 0.00389 664.9 254.6
821(16) 0.00413 665.3 271.3
887(15) 0.00419 665.8 289.7
935(16) 0.00388 666.2 310.3
960(17) 0.00356 666.7 333.3
939(17) 0.00353 667.1 359.3
981(17) 0.003494 667.6 388.9
1046(17) 0.00353 668.0 422.9
1095(17) 0.003277 668.5 462.5
1098(18) 0.003238 668.9 508.8
1145(18) 0.002939 669.4 563.7
1232(19) 0.002842 669.9 629.0
1319(19) 0.002803 670.3 707.1
1437(20) 0.002500 670.8 800.9
1532(21) 0.002227 671.2 913.2
1672(22) 0.002026 671.7 1047.6
1887(23) 0.001854 672.1 1207.2
1925(23) 0.001907 672.6 1395.4
2184(25) 0.001620 673.0 1615.2
2473(27) 0.001366 673.5 1868.8
2792(29) 0.001220 673.9 2157.4
3167(30) 0.001112 674.4 2480.8
3656(32) 0.001003 674.8 2836.5
4101(35) 0.000838 675.3 3219.1
4479(37) 0.000741 676. 3619.
5015(38) 0.000678 676. 4020.
5464(39) 0.000647 677. 4401.
5823(40) 0.000633 677. 4734.
6060(42) 0.000561 678. 4987.
6012(43) 0.000541 678. 5131.
5970(42) 0.000575 678. 5146.
5732(40) 0.000627 679. 5032.
5249(38) 0.000703 679. 4802.
4786(37) 0.000714 680. 4485.
4475(37) 0.000728 680. 4113.
4176(35) 0.000827 680.7 3714.0
3761(32) 0.000976 681.2 3313.0
3407(30) 0.001083 681.7 2925.8
3152(31) 0.001075 682.1 2563.7
2935(30) 0.001092 682.6 2233.0
2791(29) 0.001212 683.0 1936.6
2473(26) 0.001497 683.5 1675.5
2328(25) 0.001572 683.9 1448.5
2093(25) 0.001655 684.4 1253.7
1970(24) 0.001670 684.8 1088.3
1857(23) 0.001871 685.3 949.0
1713(21) 0.002172 685.7 832.5
1642(21) 0.002232 686.2 735.4
1494(21) 0.002313 686.7 654.6
1455(21) 0.002224 687.1 587.3
1444(20) 0.002396 687.6 531.0
1404(19) 0.002635 688.0 483.8
1297(19) 0.002789 688.5 443.7
1229(19) 0.002799 688.9 409.6
1215(19) 0.002724 689.4 380.2
1140(18) 0.003047 689.8 354.8
1103(17) 0.003372 690.3 332.7
1170(18) 0.003018 690.7 313.3
1109(18) 0.003156 691.2 296.3
1028(17) 0.003284 691.6 281.5
991(17) 0.00351 692.1 268.6
1005(16) 0.00370 692.6 257.5
993(17) 0.00356 693.0 248.1
1000(17) 0.003366 693.5 240.4
980(17) 0.003453 693.9 234.4
960(16) 0.00370 694.4 230.0
979(16) 0.00379 694.8 227.2
938(16) 0.00374 695.3 226.2
918(16) 0.00376 695.7 226.8
910(16) 0.00380 696.2 229.1
902(16) 0.00402 696.6 233.1
906(16) 0.00407 697.1 238.7
942(16) 0.00373 697.5 245.9
916(16) 0.00375 698.0 254.4
918(16) 0.00372 698.5 264.0
961(16) 0.00372 698.9 274.3
944(16) 0.00394 699.4 284.8
978(17) 0.00359 699.8 294.6
973(17) 0.003371 700.3 303.0
911(16) 0.00389 700.7 308.8
977(16) 0.00373 701.2 311.3
958(16) 0.00388 701.6 309.7
978(17) 0.00353 702.1 303.9
985(17) 0.003317 702.5 294.0
970(17) 0.00363 703.0 280.9
910(16) 0.00400 703.4 265.4
913(16) 0.00409 703.9 248.4
888(16) 0.00395 704.4 230.8
855(16) 0.00381 704.8 213.3
878(16) 0.00395 705.3 196.3
814(15) 0.00461 705.7 180.2
830(15) 0.00441 706.2 165.3
827(16) 0.00414 706.6 151.5
804(16) 0.00404 707.1 139.0
830(15) 0.00417 707.5 127.8
804(15) 0.00461 708.0 117.7
741(14) 0.00496 708.4 108.8
774(15) 0.00453 708.9 100.9
769(15) 0.00426 709.3 94.0
798(15) 0.00422 709.8 87.9
738(14) 0.00500 710.3 82.6
798(15) 0.00463 710.7 77.8
735(15) 0.00472 711.2 73.7
736(15) 0.00441 711.6 70.0
762(15) 0.00453 712.1 66.7
736(14) 0.00506 712.5 63.8
768(15) 0.00471 713.0 61.1
742(15) 0.00465 713.4 58.7
743(15) 0.00449 713.9 56.5
735(14) 0.00480 714.3 54.4
756(14) 0.00490 714.8 52.5
707(14) 0.00502 715.3 50.8
777(15) 0.00434 715.7 49.1
760(15) 0.00451 716.2 47.6
738(14) 0.00479 716.6 46.1
764(14) 0.00484 717.1 44.8
721(14) 0.00508 717.5 43.5
737(15) 0.00475 718.0 42.3
741(15) 0.00463 718.4 41.1
757(15) 0.00459 718.9 40.0
746(14) 0.00497 719.3 38.9
714(14) 0.00482 719.8 38.0
709(14) 0.00479 720.2 37.0
721(14) 0.00487 720.7 36.1
719(14) 0.00498 721.2 35.2
767(14) 0.00482 721.6 34.4
734(15) 0.00465 722.1 33.6
687(14) 0.00491 722.5 32.8
743(15) 0.00456 723.0 32.1
744(14) 0.00477 723.4 31.4
731(14) 0.00507 723.9 30.7
782(15) 0.00430 724.3 30.1
724(15) 0.00454 724.8 29.5
734(15) 0.00458 725.2 28.9
731(14) 0.00506 725.7 28.3
789(15) 0.00468 726.1 27.7
749(15) 0.00464 726.6 27.2
728(15) 0.00443 727.1 26.7
751(15) 0.00468 727.5 26.2
735(14) 0.00499 728.0 25.7
733(14) 0.00510 728.4 25.2
705(14) 0.00506 728.9 24.8
745(15) 0.00436 729.3 24.4
750(15) 0.00473 729.8 23.9
717(14) 0.00516 730.2 23.5
742(14) 0.00498 730.7 23.1
742(15) 0.00473 731.1 22.8
729(15) 0.00443 731.6 22.4
754(15) 0.00459 732.0 22.0
727(14) 0.00512 732.5 21.7
738(14) 0.00496 733.0 21.4
766(15) 0.00449 733.4 21.0
763(15) 0.00431 733.9 20.7
715(14) 0.00488 734.3 20.4
726(14) 0.00516 734.8 20.1
741(14) 0.00496 735.2 19.9
760(15) 0.00465 735.7 19.6
769(15) 0.00436 736.1 19.3
724(14) 0.00485 736.6 19.1
728(14) 0.00507 737.0 18.8
736(14) 0.00495 737.5 18.6
743(15) 0.00465 737.9 18.4
730(15) 0.00451 738.4 18.1
723(14) 0.00485 738.9 17.9
730(14) 0.00509 739.3 17.7
769(15) 0.00457 739.8 17.5
719(14) 0.00477 740.2 17.3
725(15) 0.00464 740.7 17.1
717(14) 0.00491 741.1 16.9
751(14) 0.00497 741.6 16.7
762(15) 0.00451 742.0 16.6
728(15) 0.00465 742.5 16.4
754(15) 0.00459 742.9 16.3
751(14) 0.00484 743.4 16.1
734(14) 0.00506 743.8 16.0
745(15) 0.00465 744.3 15.8
685(14) 0.00498 744.8 15.7
707(14) 0.00493 745.4 15.5
734(14) 0.00493 746.0 15.4
745(14) 0.00500 746.6 15.3
783(15) 0.00429 747.2 15.2
740(15) 0.00445 747.8 15.1
743(15) 0.00469 748.4 15.0
775(15) 0.00465 749.0 14.9
777(15) 0.00475 749.6 14.8
791(15) 0.00451 750.1 14.7
808(16) 0.00416 750.7 14.6
771(15) 0.00451 751.3 14.6
783(15) 0.00468 751.9 14.5
754(14) 0.00490 752.5 14.4
813(15) 0.00421 753.1 14.4
736(15) 0.00440 753.7 14.3
741(15) 0.00469 754.3 14.3
754(14) 0.00486 754.9 14.2
751(14) 0.00494 755.5 14.2
781(15) 0.00435 756.1 14.2
761(15) 0.00422 756.6 14.2
756(15) 0.00455 757.2 14.2
759(14) 0.00492 757.8 14.2
748(14) 0.00485 758.4 14.2
767(15) 0.00449 759.0 14.2
746(15) 0.00443 759.6 14.2
812(15) 0.00426 760.2 14.2
739(14) 0.00505 760.8 14.3
772(15) 0.00467 761.4 14.3
752(15) 0.00458 762.0 14.4
742(15) 0.00446 762.6 14.5
757(15) 0.00450 763.2 14.5
793(15) 0.00467 763.7 14.6
767(14) 0.00479 764.3 14.7
802(15) 0.00429 764.9 14.8
802(15) 0.00420 765.5 15.0
822(15) 0.00418 766.1 15.1
796(15) 0.00467 766.7 15.3
779(15) 0.00459 767.3 15.5
771(15) 0.00439 767.9 15.7
783(15) 0.00433 768.5 15.9
739(14) 0.00480 769.1 16.1
757(14) 0.00491 769.7 16.4
742(14) 0.00479 770.2 16.7
786(15) 0.00435 770.8 17.0
782(15) 0.00447 771.4 17.4
815(15) 0.00436 772.0 17.8
829(15) 0.00450 772.6 18.2
826(15) 0.00421 773.2 18.7
789(15) 0.00434 773.8 19.2
820(15) 0.00422 774.4 19.8
801(15) 0.00445 775.0 20.4
781(14) 0.00477 775.6 21.1
792(15) 0.00436 776.2 21.9
795(16) 0.00412 776.8 22.7
785(15) 0.00440 777.3 23.7
823(15) 0.00442 777.9 24.7
803(15) 0.00466 778.5 25.9
814(15) 0.00430 779.1 27.2
810(16) 0.00395 779.7 28.7
828(15) 0.00422 780.3 30.4
797(15) 0.00462 780.9 32.2
818(15) 0.00451 781.5 34.4
826(15) 0.00424 782.1 36.8
840(16) 0.00390 782.7 39.6
831(15) 0.00430 783.3 42.9
884(15) 0.00418 783.8 46.8
882(16) 0.00416 784.4 51.4
876(16) 0.00407 785.0 57.2
889(17) 0.00362 785.6 64.5
862(16) 0.00410 786.2 73.9
844(15) 0.00437 786.8 86.4
918(16) 0.00400 787.4 103.1
937(16) 0.00371 788.0 125.3
983(17) 0.003279 788.6 154.7
1006(17) 0.003376 789.2 192.8
1069(17) 0.003448 789.8 241.1
1124(18) 0.003252 790.3 300.2
1183(18) 0.002949 790.9 370.1
1265(20) 0.002590 791.5 449.0
1338(20) 0.002529 792.1 533.0
1384(19) 0.002684 792.7 615.0
1429(20) 0.002562 793.3 684.3
1492(21) 0.002315 793.9 727.8
1527(21) 0.002220 794.5 735.0
1548(21) 0.002227 795.1 704.1
1517(20) 0.002452 795.7 642.8
1394(20) 0.002588 796.3 564.0
1252(19) 0.002758 796.9 479.7
1157(18) 0.002937 797.4 398.2
1066(17) 0.003319 798.0 324.6
1012(16) 0.00368 798.6 261.3
950(16) 0.00369 799.2 209.0
898(16) 0.00380 799.8 167.2
919(16) 0.00370 800.4 134.7
901(16) 0.00401 801.0 109.9
878(15) 0.00424 801.6 91.3
872(16) 0.00397 802.2 77.3
877(16) 0.00386 802.8 66.8
860(16) 0.00398 803.4 58.7
863(16) 0.00412 803.9 52.3
839(15) 0.00444 804.5 47.2
851(16) 0.00408 805.1 43.0
845(16) 0.00401 805.7 39.5
835(15) 0.00420 806.3 36.4
854(15) 0.00424 806.9 33.8
841(15) 0.00443 807.5 31.5
874(16) 0.00396 808.1 29.4
872(16) 0.00375 808.7 27.6
835(16) 0.00408 809.3 26.0
800(15) 0.00462 809.9 24.6
882(15) 0.00419 810.4 23.3
830(15) 0.00424 811.0 22.1
838(16) 0.00389 811.6 21.1
833(15) 0.00427 812.2 20.1
824(15) 0.00450 812.8 19.2
833(15) 0.00446 813.4 18.4
848(16) 0.00411 814.0 17.7
802(15) 0.00418 814.6 17.0
844(15) 0.00417 815.2 16.4
862(15) 0.00428 815.8 15.8
822(15) 0.00445 816.4 15.3
839(15) 0.00428 817.0 14.8
861(16) 0.00388 817.5 14.4
851(16) 0.00414 818.1 14.0
832(15) 0.00444 818.7 13.6
869(15) 0.00422 819.3 13.2
818(15) 0.00419 819.9 12.9
798(15) 0.00417 820.5 12.5
827(15) 0.00419 821.1 12.3
819(15) 0.00454 821.7 12.0
825(15) 0.00441 822.3 11.7
783(15) 0.00445 822.9 11.5
830(16) 0.00400 823.5 11.2
805(15) 0.00437 824.0 11.0
826(15) 0.00449 824.6 10.8
831(15) 0.00434 825.2 10.6
836(16) 0.00409 825.8 10.5
806(15) 0.00418 826.4 10.3
811(15) 0.00435 827.0 10.1
817(15) 0.00454 827.6 10.0
863(16) 0.00410 828.2 9.8
808(15) 0.00423 828.8 9.7
802(15) 0.00427 829.4 9.6
862(16) 0.00415 830.0 9.5
875(15) 0.00424 830.5 9.4
829(15) 0.00419 831.1 9.3
849(16) 0.00394 831.7 9.2
835(16) 0.00409 832.3 9.1
861(16) 0.00411 832.9 9.0
850(15) 0.00435 833.5 8.9
884(16) 0.00383 834.1 8.8
859(16) 0.00387 834.7 8.7
821(15) 0.00428 835.3 8.7
832(15) 0.00432 835.9 8.6
806(15) 0.00461 836.5 8.5
868(16) 0.00395 837.1 8.5
830(16) 0.00405 837.6 8.4
832(15) 0.00421 838.2 8.4
817(15) 0.00449 838.8 8.3
839(15) 0.00447 839.4 8.3
811(15) 0.00428 840.0 8.2
801(16) 0.00407 840.6 8.2
838(16) 0.00409 841.2 8.2
855(15) 0.00427 841.8 8.1
860(15) 0.00433 842.4 8.1
832(15) 0.00427 843.0 8.1
860(16) 0.00367 843.6 8.1
849(16) 0.00411 844.1 8.1
859(15) 0.00435 844.7 8.0
836(15) 0.00440 845.3 8.0
853(16) 0.00400 845.9 8.0
854(16) 0.00381 846.5 8.0
868(16) 0.00398 847.1 8.0
821(15) 0.00453 847.7 8.0
836(15) 0.00442 848.3 8.0
836(15) 0.00418 848.9 8.0
834(16) 0.00394 849.5 8.0
850(16) 0.00411 850.1 8.0
824(15) 0.00452 850.7 8.0
887(16) 0.00409 851.2 8.0
839(16) 0.00413 851.8 8.0
862(16) 0.00394 852.4 8.1
870(16) 0.00400 853.0 8.1
837(15) 0.00443 853.6 8.1
859(15) 0.00417 854.2 8.1
827(15) 0.00418 854.8 8.1
845(16) 0.00401 855.4 8.2
850(16) 0.00406 856.0 8.2
866(15) 0.00430 856.5 8.2
887(16) 0.00392 857.0 8.3
877(16) 0.00384 857.5 8.3
839(16) 0.00414 857.9 8.3
852(16) 0.00410 858.4 8.4
851(15) 0.00437 858.9 8.4
868(16) 0.00396 859.4 8.5
844(16) 0.00409 859.9 8.5
878(16) 0.00390 860.4 8.6
870(16) 0.00412 860.9 8.6
861(15) 0.00431 861.4 8.7
880(16) 0.00400 861.9 8.8
891(16) 0.00381 862.4 8.8
874(16) 0.00403 862.9 8.9
895(16) 0.00414 863.3 9.0
871(15) 0.00426 863.8 9.0
862(16) 0.00401 864.3 9.1
851(16) 0.00394 864.8 9.2
886(16) 0.00378 865.3 9.3
893(16) 0.00406 865.8 9.4
865(15) 0.00432 866.3 9.5
879(16) 0.00391 866.8 9.6
878(16) 0.00374 867.3 9.7
852(16) 0.00410 867.8 9.8
834(15) 0.00439 868.2 9.9
908(16) 0.00409 868.7 10.0
872(16) 0.00407 869.2 10.1
908(17) 0.00353 869.7 10.3
896(16) 0.00384 870.2 10.4
929(16) 0.00394 870.7 10.5
932(16) 0.00396 871.2 10.7
878(16) 0.00392 871.7 10.8
879(17) 0.00366 872.2 11.0
894(16) 0.00391 872.7 11.1
923(16) 0.00403 873.2 11.3
924(16) 0.00401 873.6 11.5
870(16) 0.00405 874.1 11.6
899(16) 0.00370 874.6 11.8
881(16) 0.00401 875.1 12.0
893(15) 0.00419 875.6 12.2
894(16) 0.00408 876.1 12.4
909(16) 0.00382 876.6 12.7
849(16) 0.00396 877.1 12.9
886(16) 0.00388 877.6 13.1
916(16) 0.00406 878.1 13.4
876(16) 0.00407 878.5 13.6
873(16) 0.00388 879.0 13.9
919(17) 0.00360 879.5 14.2
906(16) 0.00386 880.0 14.5
919(16) 0.00405 880.5 14.8
885(16) 0.00408 881.0 15.1
906(16) 0.00370 881.5 15.4
945(17) 0.00354 882.0 15.8
938(16) 0.00376 882.5 16.2
894(16) 0.00415 883.0 16.5
892(16) 0.00397 883.4 16.9
921(17) 0.00367 883.9 17.4
907(16) 0.00375 884.4 17.8
911(16) 0.00394 884.9 18.3
911(16) 0.00407 885.4 18.8
888(16) 0.00393 885.9 19.3
919(17) 0.00358 886.4 19.8
910(16) 0.00386 886.9 20.4
915(16) 0.00393 887.4 21.0
900(16) 0.00413 887.9 21.6
875(16) 0.00389 888.4 22.2
928(17) 0.00354 888.8 22.9
897(16) 0.00385 889.3 23.7
933(16) 0.00389 889.8 24.4
902(16) 0.00412 890.3 25.3
873(16) 0.00402 890.8 26.1
913(17) 0.00364 891.3 27.0
908(16) 0.00378 891.8 28.0
922(16) 0.00394 892.3 29.0
940(16) 0.00396 892.8 30.1
877(16) 0.00395 893.3 31.3
907(17) 0.003501 893.7 32.5
928(16) 0.00373 894.2 33.9
933(16) 0.00396 894.7 35.3
967(16) 0.00384 895.2 36.8
945(16) 0.00376 895.7 38.4
932(17) 0.003433 896.2 40.1
942(17) 0.00365 896.7 42.0
971(16) 0.00382 897.2 44.0
888(15) 0.00419 897.7 46.1
955(17) 0.00363 898.2 48.5
943(17) 0.003492 898.6 51.1
980(17) 0.00355 899.1 53.8
1016(17) 0.00366 899.6 56.9
964(16) 0.00384 900.1 60.3
974(17) 0.003506 900.6 64.0
982(17) 0.003331 901.1 68.1
953(17) 0.00363 901.6 72.8
976(16) 0.00381 902.1 77.9
996(17) 0.00363 902.6 83.8
1034(17) 0.003294 903.1 90.4
995(17) 0.003456 903.6 97.9
1022(17) 0.003410 904.0 106.4
1045(17) 0.00357 904.5 116.0
1066(17) 0.003323 905.0 127.1
1081(18) 0.003138 905.5 139.6
1059(18) 0.003217 906.0 153.8
1074(18) 0.003263 906.5 169.8
1126(17) 0.003303 907.0 188.0
1094(18) 0.003229 907.5 208.3
1133(18) 0.003006 908.0 231.1
1188(19) 0.002920 908.5 256.3
1232(19) 0.002904 908.9 284.2
1199(18) 0.003102 909.4 314.7
1276(19) 0.002724 909.9 347.8
1314(20) 0.002570 910.4 383.4
1348(20) 0.002517 910.9 421.0
1364(20) 0.002593 911.4 460.4
1487(20) 0.002497 911.9 500.7
1491(21) 0.002321 912.4 541.0
1552(22) 0.002145 912.9 579.9
1556(21) 0.002231 913.4 615.8
1651(21) 0.002188 913.8 646.8
1629(21) 0.002276 914.3 671.0
1674(22) 0.002046 914.8 686.7
1648(22) 0.001989 915.3 692.6
1618(22) 0.002161 915.8 688.3
1620(21) 0.002258 916.3 674.1
1560(21) 0.002364 916.8 651.2
1532(21) 0.002243 917.3 621.1
1472(21) 0.002232 917.8 585.9
1450(20) 0.002382 918.3 547.3
1361(19) 0.002708 918.8 507.2
1363(19) 0.002731 919.2 466.7
1377(20) 0.002543 919.7 427.1
1352(20) 0.002386 920.2 389.1
1314(19) 0.002663 920.7 353.2
1264(18) 0.002946 921.2 319.7
1249(18) 0.002961 921.7 288.7
1256(19) 0.002765 922.2 260.4
1227(19) 0.002680 922.7 234.7
1183(19) 0.002897 923.2 211.6
1139(17) 0.003266 923.7 190.8
1160(18) 0.003153 924.1 172.3
1098(18) 0.003130 924.6 155.9
1072(18) 0.003077 925.1 141.4
1064(17) 0.003269 925.6 128.6
1099(17) 0.003367 926.1 117.4
1125(18) 0.003232 926.6 107.5
1089(18) 0.003185 927.1 98.8
1073(18) 0.003117 927.6 91.1
1035(17) 0.003316 928.1 84.4
1043(17) 0.00356 928.6 78.4
1070(17) 0.003341 929.0 73.1
1090(18) 0.003165 929.5 68.4
1041(17) 0.003306 930.0 64.2
1045(17) 0.003323 930.5 60.4
1024(17) 0.00364 931.0 56.9
1022(17) 0.003397 931.5 53.8
1020(17) 0.003339 932.0 51.0
995(17) 0.003409 932.5 48.4
1007(17) 0.003496 933.0 46.0
964(16) 0.00386 933.5 43.8
988(17) 0.00361 934.0 41.7
999(17) 0.003404 934.4 39.8
986(17) 0.003441 934.9 38.0
963(16) 0.00376 935.4 36.4
1006(16) 0.00369 935.9 34.9
987(17) 0.003477 936.4 33.4
1041(18) 0.003211 936.9 32.1
1037(17) 0.003349 937.4 30.8
999(16) 0.00367 937.9 29.6
1028(17) 0.00361 938.4 28.5
979(17) 0.00355 938.9 27.4
968(17) 0.003450 939.3 26.4
970(17) 0.00363 939.8 25.5
976(16) 0.00375 940.3 24.6
1012(17) 0.00366 940.8 23.8
976(17) 0.00355 941.3 23.0
975(17) 0.003281 941.8 22.2
995(17) 0.003459 942.3 21.5
965(16) 0.00379 942.8 20.8
981(16) 0.00375 943.3 20.2
1015(17) 0.003456 943.8 19.6
970(17) 0.003267 944.2 19.0
997(17) 0.003465 944.7 18.4
1006(16) 0.00370 945.2 17.9
965(16) 0.00381 945.7 17.4
976(17) 0.00355 946.2 16.9
992(17) 0.003293 946.7 16.4
952(17) 0.00363 947.2 16.0
972(16) 0.00382 947.7 15.5
990(16) 0.00371 948.2 15.1
947(16) 0.00374 948.7 14.8
977(17) 0.003396 949.2 14.4
1006(17) 0.003404 949.6 14.0
974(16) 0.00380 950.1 13.7
984(16) 0.00371 950.6 13.3
976(17) 0.00357 951.1 13.0
952(17) 0.00359 951.6 12.7
996(17) 0.003508 952.1 12.4
984(16) 0.00378 952.6 12.2
984(17) 0.00364 953.1 11.9
957(17) 0.00362 953.6 11.6
950(17) 0.003492 954.1 11.4
934(16) 0.00378 954.5 11.1
957(16) 0.00389 955.0 10.9
927(16) 0.00388 955.5 10.7
1000(17) 0.003367 956.0 10.5
975(17) 0.00355 956.5 10.2
1032(17) 0.003376 957.0 10.0
974(16) 0.00383 957.5 9.8
1016(17) 0.003384 958.0 9.7
995(17) 0.003439 958.5 9.5
975(17) 0.003478 959.0 9.4
962(16) 0.00372 959.4 9.2
1018(17) 0.00365 959.9 9.0
983(17) 0.00357 960.4 8.9
996(17) 0.003306 960.9 8.7
993(17) 0.003481 961.4 8.6
983(17) 0.00366 961.9 8.4
1015(17) 0.00366 962.4 8.3
976(17) 0.00360 962.9 8.1
986(17) 0.003428 963.4 8.0
1046(18) 0.003251 963.9 7.9
1013(17) 0.00360 964.4 7.7
997(16) 0.00377 964.8 7.6
1014(17) 0.003503 965.3 7.5
1002(18) 0.003247 965.8 7.4
988(17) 0.00355 966.3 7.3
962(16) 0.00385 966.8 7.2
969(16) 0.00384 967.3 7.1
996(17) 0.00353 967.8 7.0
998(18) 0.003245 968.3 6.9
1006(17) 0.003478 968.8 6.8
992(16) 0.00374 969.3 6.7
1005(16) 0.00368 969.7 6.6
952(17) 0.00363 970.2 6.5
976(17) 0.003338 970.7 6.4
961(16) 0.00369 971.2 6.3
1009(16) 0.00368 971.7 6.3
958(16) 0.00388 972.2 6.2
997(17) 0.003485 972.7 6.1
999(18) 0.003255 973.2 6.0
1008(17) 0.003464 973.7 5.9
963(16) 0.00387 974.2 5.9
983(16) 0.00368 974.6 5.8
987(17) 0.003456 975.1 5.7
980(17) 0.003408 975.6 5.7
1002(17) 0.00351 976.1 5.6
981(16) 0.00379 976.6 5.5
957(16) 0.00381 977.1 5.5
993(17) 0.00351 977.6 5.4
1014(17) 0.003317 978.1 5.4
1034(17) 0.003306 978.6 5.3
1027(17) 0.00361 979.1 5.3
997(17) 0.00360 979.6 5.2
1007(17) 0.003404 980.0 5.2
951(17) 0.00360 980.5 5.1
945(16) 0.00369 981.0 5.1
982(16) 0.00376 981.5 5.0
992(17) 0.00356 982.0 5.0
979(17) 0.003470 982.5 4.9
1016(17) 0.003338 983.0 4.9
1023(17) 0.003437 983.5 4.8
952(16) 0.00392 984.0 4.8
994(17) 0.003480 984.5 4.8
1014(17) 0.003356 984.9 4.7
1096(18) 0.003138 985.4 4.7
1013(17) 0.00360 985.9 4.7
954(16) 0.00389 986.4 4.6
994(17) 0.003469 986.9 4.6
977(17) 0.003448 987.4 4.6
1041(17) 0.003291 987.9 4.5
1007(17) 0.00363 988.4 4.5
972(16) 0.00382 988.9 4.5
955(17) 0.00364 989.4 4.5
1021(18) 0.003158 989.8 4.4
1034(17) 0.003365 990.3 4.4
1045(17) 0.00352 990.8 4.4
1006(16) 0.00369 991.3 4.4
995(17) 0.00352 991.8 4.3
1025(18) 0.003184 992.3 4.3
1061(18) 0.003243 992.8 4.3
998(16) 0.00369 993.3 4.3
994(16) 0.00373 993.8 4.3
1047(17) 0.003336 994.3 4.3
1008(18) 0.003207 994.8 4.3
993(17) 0.00352 995.2 4.3
1049(17) 0.00355 995.7 4.3
1008(17) 0.00367 996.2 4.3
983(17) 0.00354 996.7 4.3
993(18) 0.003262 997.2 4.3
1016(17) 0.003435 997.7 4.3
1029(17) 0.00361 998.2 4.3
1003(17) 0.00366 998.7 4.3
1007(17) 0.003453 999.2 4.3
986(17) 0.003352 999.7 4.3
972(17) 0.00357 1000.1 4.3
1017(17) 0.00365 1000.6 4.3
1072(17) 0.003356 1001.1 4.4
1009(17) 0.003449 1001.6 4.4
1004(17) 0.003368 1002.1 4.4
1048(17) 0.003294 1002.6 4.4
1023(17) 0.00362 1003.1 4.5
992(17) 0.00364 1003.6 4.5
1018(17) 0.003424 1004.1 4.5
998(17) 0.003403 1004.6 4.5
1044(18) 0.003239 1005.1 4.6
1011(16) 0.00368 1005.5 4.6
1063(17) 0.003321 1006.0 4.6
1014(17) 0.003355 1006.5 4.6
1013(17) 0.003360 1006.9 4.7
1009(17) 0.003501 1007.0 4.7
995(16) 0.00374 1007.0 4.7
1026(17) 0.003348 1007.1 4.7
1030(18) 0.003240 1007.2 4.7
1034(17) 0.003305 1007.2 4.8
1014(17) 0.003466 1007.3 4.8
1015(17) 0.00365 1007.3 4.8
1019(17) 0.003348 1007.4 4.8
1046(18) 0.003141 1007.4 4.8
1031(17) 0.003359 1007.5 4.7
972(16) 0.00376 1007.5 4.7
969(16) 0.00382 1007.6 4.7
1025(17) 0.003347 1007.6 4.7
1025(18) 0.003217 1007.7 4.6
998(17) 0.003465 1007.8 4.6
1011(17) 0.00365 1007.8 4.6
1058(17) 0.00351 1007.9 4.5
999(17) 0.003480 1007.9 4.5
1016(18) 0.003162 1008.0 4.4
1035(17) 0.003382 1008.0 4.4
1043(17) 0.00353 1008.1 4.3
1032(17) 0.00358 1008.1 4.3
1063(17) 0.003277 1008.2 4.3
1017(18) 0.003097 1008.2 4.2
1008(17) 0.003485 1008.3 4.2
990(16) 0.00375 1008.3 4.1
1001(17) 0.00367 1008.4 4.1
979(17) 0.00357 1008.5 4.0
1036(18) 0.003063 1008.5 4.0
1054(18) 0.003239 1008.6 4.0
1049(17) 0.00353 1008.6 3.9
1007(17) 0.00359 1008.7 3.9
988(17) 0.003497 1008.7 3.9
1023(18) 0.003246 1008.8 3.9
1032(17) 0.003375 1008.8 3.8
1055(17) 0.00353 1008.9 3.8
997(17) 0.00363 1008.9 3.8
1033(17) 0.003297 1009.0 3.8
1011(17) 0.003268 1009.0 3.8
1010(17) 0.003307 1009.1 3.7
1027(17) 0.00364 1009.2 3.7
1028(17) 0.00353 1009.2 3.7
1021(17) 0.003400 1009.3 3.7
1000(17) 0.003436 1009.3 3.7
1049(17) 0.003307 1009.4 3.7
1001(16) 0.00373 1009.4 3.7
984(17) 0.00353 1009.5 3.7
1044(18) 0.003206 1009.5 3.7
1051(18) 0.003249 1009.6 3.7
980(17) 0.00364 1009.6 3.7
1006(16) 0.00371 1009.7 3.7
1028(17) 0.003335 1009.8 3.7
1028(17) 0.003292 1009.8 3.8
1106(18) 0.003131 1009.9 3.8
1024(17) 0.00359 1009.9 3.8
1026(17) 0.00364 1010.0 3.8
1034(17) 0.003349 1010.0 3.8
995(17) 0.003431 1010.1 3.9
1033(17) 0.003377 1010.1 3.9
982(16) 0.00372 1010.2 3.9
1019(17) 0.00364 1010.2 3.9
1023(17) 0.003401 1010.3 4.0
1010(17) 0.003277 1010.3 4.0
1041(17) 0.003301 1010.4 4.0
1017(17) 0.00354 1010.5 4.1
1027(17) 0.00363 1010.5 4.1
1033(17) 0.003342 1010.6 4.2
994(18) 0.003237 1010.6 4.2
1021(17) 0.003364 1010.7 4.3
1053(17) 0.003487 1010.7 4.3
1043(17) 0.00355 1010.8 4.4
1036(17) 0.003344 1010.8 4.4
1047(18) 0.003062 1010.9 4.5
1034(17) 0.003387 1010.9 4.6
1041(17) 0.00357 1011.0 4.6
1002(16) 0.00371 1011.1 4.7
1015(17) 0.003423 1011.1 4.8
1020(18) 0.003144 1011.2 4.9
1030(17) 0.003414 1011.2 5.0
1041(17) 0.00355 1011.3 5.1
1059(17) 0.003479 1011.3 5.2
1038(17) 0.003415 1011.4 5.3
1039(18) 0.003192 1011.4 5.4
1042(17) 0.003313 1011.5 5.5
1059(17) 0.00351 1011.5 5.7
1046(17) 0.003467 1011.6 5.8
1057(18) 0.003239 1011.6 5.9
1063(18) 0.003140 1011.7 6.1
1046(17) 0.003268 1011.8 6.3
1064(17) 0.003485 1011.8 6.5
1058(17) 0.003390 1011.9 6.7
1031(17) 0.003320 1011.9 6.9
1036(18) 0.003213 1012.0 7.1
1055(17) 0.003323 1012.0 7.4
1043(17) 0.00359 1012.1 7.6
1049(17) 0.003423 1012.1 7.9
1055(18) 0.003210 1012.2 8.2
1082(18) 0.003168 1012.2 8.6
1027(17) 0.003429 1012.3 9.0
1010(16) 0.00369 1012.3 9.4
1031(17) 0.003440 1012.4 9.9
1066(18) 0.003196 1012.5 10.4
992(17) 0.00356 1012.5 10.9
1049(17) 0.003392 1012.6 11.5
1028(17) 0.00361 1012.6 12.0
1039(17) 0.003325 1012.7 12.7
1041(18) 0.003223 1012.7 13.4
1058(18) 0.003250 1012.8 14.3
1047(17) 0.003431 1012.8 15.2
1089(17) 0.003424 1012.9 16.1
1029(17) 0.003369 1012.9 17.2
1063(18) 0.003183 1013.0 18.3
1048(17) 0.003367 1013.1 19.5
1031(17) 0.00357 1013.1 20.8
1043(17) 0.00356 1013.2 22.2
1079(18) 0.003202 1013.2 23.6
1081(18) 0.003081 1013.3 25.2
1045(17) 0.003281 1013.3 26.8
1014(17) 0.00364 1013.4 28.5
1085(17) 0.003408 1013.4 30.3
1062(18) 0.003248 1013.5 32.2
1082(18) 0.002959 1013.5 34.1
1045(17) 0.003343 1013.6 36.1
1076(17) 0.003433 1013.6 38.1
1053(17) 0.003468 1013.7 40.1
1086(18) 0.003177 1013.8 42.0
1087(18) 0.002973 1013.8 44.0
1055(17) 0.003328 1013.9 45.8
1065(17) 0.003502 1013.9 47.5
1060(17) 0.003410 1014.0 49.0
1055(17) 0.003335 1014.0 50.3
1066(18) 0.003070 1014.1 51.3
1056(18) 0.003263 1014.1 52.1
1051(17) 0.00357 1014.2 52.5
1042(17) 0.003463 1014.2 52.6
1044(17) 0.003323 1014.3 52.3
1093(18) 0.003011 1014.4 51.7
1080(18) 0.003265 1014.4 50.8
1078(17) 0.003480 1014.5 49.6
1083(17) 0.003359 1014.5 48.2
1070(18) 0.003255 1014.6 46.6
1051(18) 0.003185 1014.6 44.8
1051(17) 0.003305 1014.7 43.0
1105(17) 0.003387 1014.7 41.0
1075(17) 0.003349 1014.8 39.0
1081(18) 0.003165 1014.8 37.0
1061(18) 0.003101 1014.9 35.0
1014(17) 0.003507 1014.9 33.0
1094(17) 0.003396 1015.0 31.1
1045(17) 0.003425 1015.1 29.3
1018(17) 0.003372 1015.1 27.5
1070(18) 0.003182 1015.2 25.8
1098(17) 0.003281 1015.2 24.2
1053(17) 0.00353 1015.3 22.7
1020(17) 0.003458 1015.3 21.3
1062(18) 0.003178 1015.4 19.9
1015(17) 0.003422 1015.4 18.7
1043(17) 0.003413 1015.5 17.5
1050(17) 0.00356 1015.5 16.4
1087(18) 0.003166 1015.6 15.4
1016(17) 0.003298 1015.6 14.4
1055(18) 0.003241 1015.7 13.6
1044(17) 0.003506 1015.8 12.8
1065(17) 0.003505 1015.8 12.0
1096(18) 0.003132 1015.9 11.3
1057(18) 0.003041 1015.9 10.7
1039(17) 0.003311 1016.0 10.1
1040(17) 0.003503 1016.0 9.6
1047(17) 0.00353 1016.1 9.1
1024(17) 0.003375 1016.1 8.7
1058(18) 0.003000 1016.2 8.3
1023(17) 0.003344 1016.2 7.9
1033(17) 0.00352 1016.3 7.5
1002(16) 0.00372 1016.4 7.2
1071(18) 0.003162 1016.4 6.9
1026(18) 0.003108 1016.5 6.6
1008(17) 0.003444 1016.5 6.4
1085(17) 0.003396 1016.6 6.2
1068(17) 0.003446 1016.6 5.9
1040(17) 0.003333 1016.7 5.7
1022(18) 0.003122 1016.7 5.5
1032(17) 0.003273 1016.8 5.4
1040(17) 0.00357 1016.8 5.2
1041(17) 0.00353 1016.9 5.0
1062(17) 0.003315 1016.9 4.9
1026(18) 0.003258 1017.0 4.7
1031(17) 0.003348 1017.1 4.6
1053(17) 0.00356 1017.1 4.5
1054(17) 0.003424 1017.2 4.4
1019(17) 0.003445 1017.2 4.3
1052(18) 0.003255 1017.3 4.2
1086(18) 0.003212 1017.3 4.1
1068(17) 0.003501 1017.4 4.0
1034(17) 0.00355 1017.4 3.9
1040(17) 0.003358 1017.5 3.8
1046(17) 0.003274 1017.5 3.7
1067(18) 0.003249 1017.6 3.6
1065(17) 0.00351 1017.7 3.5
982(17) 0.00362 1017.7 3.5
1037(17) 0.003329 1017.8 3.4
1058(18) 0.003162 1017.8 3.3
1020(17) 0.003495 1017.9 3.3
995(16) 0.00374 1017.9 3.2
1026(17) 0.003426 1018.0 3.1
1066(18) 0.003197 1018.0 3.1
1046(17) 0.003342 1018.1 3.0
1024(17) 0.003481 1018.1 3.0
1033(17) 0.00360 1018.2 2.9
1042(17) 0.003302 1018.2 2.9
1038(18) 0.003211 1018.3 2.8
1048(17) 0.003344 1018.4 2.8
1039(17) 0.003483 1018.4 2.7
1041(17) 0.00360 1018.5 2.7
1002(17) 0.003470 1018.5 2.6
992(17) 0.003332 1018.6 2.6
1017(17) 0.003437 1018.6 2.6
1013(17) 0.00363 1018.7 2.5
1031(17) 0.00359 1018.7 2.5
1069(18) 0.003264 1018.8 2.4
1018(18) 0.003212 1018.8 2.4
1048(17) 0.003365 1018.9 2.4
1081(17) 0.003418 1018.9 2.3
987(16) 0.00378 1019.0 2.3
1041(17) 0.003356 1019.1 2.3
1016(18) 0.003230 1019.1 2.3
1040(17) 0.003366 1019.2 2.2
1084(17) 0.003434 1019.2 2.2
1036(17) 0.00356 1019.3 2.2
1085(18) 0.003189 1019.3 2.1
1019(18) 0.003232 1019.4 2.1
1033(17) 0.003376 1019.4 2.1
1031(17) 0.00360 1019.5 2.1
1015(17) 0.00365 1019.5 2.0
1056(17) 0.003354 1019.6 2.0
1071(18) 0.003149 1019.7 2.0
1084(18) 0.003168 1019.7 2.0
1099(17) 0.003417 1019.8 2.0
1054(17) 0.003423 1019.8 1.9
1056(17) 0.003279 1019.9 1.9
1045(18) 0.003134 1019.9 1.9
995(17) 0.003436 1020.0 1.9
1045(17) 0.00353 1020.0 1.9
1013(17) 0.00360 1020.1 1.8
1009(17) 0.003418 1020.1 1.8
996(17) 0.003451 1020.2 1.8
1058(17) 0.003286 1020.2 1.8
1018(17) 0.00365 1020.3 1.8
1048(17) 0.003414 1020.4 1.8
1049(18) 0.003230 1020.4 1.7
1069(18) 0.003198 1020.5 1.7
1026(17) 0.003413 1020.5 1.7
1036(17) 0.00358 1020.6 1.7
1048(18) 0.003260 1020.6 1.7
1040(18) 0.003195 1020.7 1.7
1046(18) 0.003242 1020.7 1.7
1017(17) 0.00352 1020.8 1.6
1038(17) 0.00359 1020.8 1.6
1041(18) 0.003223 1020.9 1.6
1045(18) 0.003214 1021.0 1.6
1046(17) 0.003312 1021.0 1.6
1058(17) 0.003445 1021.1 1.6
1026(17) 0.00364 1021.1 1.6
1085(18) 0.003182 1021.2 1.6
1048(18) 0.003173 1021.2 1.5
1001(17) 0.00354 1021.3 1.5
1065(17) 0.003449 1021.3 1.5
1046(17) 0.00352 1021.4 1.5
1036(17) 0.003371 1021.4 1.5
1027(18) 0.003159 1021.5 1.5
1017(17) 0.003414 1021.5 1.5
1045(17) 0.00351 1021.6 1.5
1057(17) 0.003505 1021.7 1.5
1034(17) 0.003278 1021.7 1.5
1015(18) 0.003157 1021.8 1.4
1030(17) 0.003387 1021.8 1.4
1039(17) 0.00357 1021.9 1.4
1034(17) 0.00361 1021.9 1.4
1023(17) 0.003465 1022.0 1.4
1056(18) 0.003035 1022.0 1.4
1038(17) 0.003352 1021.8 1.4
999(16) 0.00371 1021.3 1.4
1049(17) 0.00351 1020.9 1.4
1066(18) 0.003211 1020.4 1.4
1038(18) 0.003174 1019.9 1.4
1013(17) 0.003439 1019.4 1.4
1022(17) 0.00365 1018.9 1.4
1062(17) 0.003447 1018.5 1.4
1029(17) 0.003415 1018.0 1.4
1001(17) 0.003388 1017.5 1.4
1027(17) 0.003366 1017.0 1.4
1029(17) 0.00359 1016.5 1.4
1017(17) 0.00355 1016.1 1.4
1058(18) 0.003248 1015.6 1.4
973(17) 0.00359 1015.1 1.4
1039(17) 0.003389 1014.6 1.4
1021(17) 0.00364 1014.1 1.4
1052(17) 0.003406 1013.7 1.4
1049(18) 0.003235 1013.2 1.4
1049(18) 0.003189 1012.7 1.3
1016(17) 0.00354 1012.2 1.3
1034(17) 0.00362 1011.7 1.3
1044(17) 0.003368 1011.3 1.3
1000(17) 0.003486 1010.8 1.3
1050(17) 0.003268 1010.3 1.3
1040(17) 0.003438 1009.8 1.3
1021(17) 0.00363 1009.3 1.3
1003(17) 0.003384 1008.9 1.3
1017(17) 0.003349 1008.4 1.3
1028(17) 0.003354 1007.9 1.3
1038(17) 0.003430 1007.4 1.3
991(16) 0.00377 1006.9 1.3
1030(17) 0.003410 1006.5 1.3
1042(18) 0.003184 1006.0 1.3
1012(17) 0.003412 1005.5 1.3
1035(17) 0.00355 1005.0 1.3
1046(17) 0.00357 1004.5 1.3
971(17) 0.00356 1004.1 1.3
1005(18) 0.003203 1003.6 1.3
1027(17) 0.003351 1003.1 1.3
1024(17) 0.00355 1002.6 1.3
1015(17) 0.00367 1002.1 1.3
1005(17) 0.003473 1001.7 1.2
1017(18) 0.003194 1001.2 1.2
977(17) 0.00366 1000.7 1.2
984(16) 0.00377 1000.2 1.2
1004(17) 0.00367 999.7 1.2
988(17) 0.00357 999.3 1.2
975(17) 0.003304 998.8 1.2
991(17) 0.00352 998.3 1.2
982(16) 0.00376 997.8 1.2
990(16) 0.00373 997.3 1.2
976(17) 0.00366 996.9 1.2
984(17) 0.003421 996.4 1.2
994(17) 0.003504 995.9 1.2
1052(17) 0.00354 995.4 1.2
976(16) 0.00373 994.9 1.2
1014(17) 0.003431 994.5 1.2
1019(18) 0.003229 994.0 1.2
976(17) 0.00356 993.5 1.2
1013(17) 0.00367 993.0 1.2
990(17) 0.00367 992.5 1.2
972(17) 0.00358 992.1 1.2
1033(17) 0.003284 991.6 1.2
1016(17) 0.003423 991.1 1.2
968(16) 0.00381 990.6 1.2
1041(17) 0.003377 990.1 1.2
1023(17) 0.003336 989.7 1.2
999(17) 0.003411 989.2 1.2
1004(17) 0.003497 988.7 1.2
996(16) 0.00375 988.2 1.2
938(16) 0.00379 987.7 1.2
968(17) 0.00357 987.3 1.2
999(17) 0.003476 986.8 1.2
983(17) 0.00360 986.3 1.2
1008(16) 0.00368 985.8 1.2
990(17) 0.00353 985.3 1.2
997(17) 0.003366 984.9 1.2
990(17) 0.00357 984.4 1.2
965(16) 0.00380 983.9 1.2
982(16) 0.00378 983.4 1.2
979(17) 0.00353 982.9 1.2
981(17) 0.003393 982.5 1.2
989(17) 0.003466 982.0 1.2
956(16) 0.00378 981.5 1.2
988(16) 0.00375 981.0 1.2
965(17) 0.00354 980.5 1.2
946(17) 0.00353 980.1 1.2
1030(17) 0.003340 979.6 1.2
963(16) 0.00379 979.1 1.1
934(16) 0.00398 978.6 1.1
1018(17) 0.003412 978.1 1.1
958(17) 0.003452 977.7 1.1
989(17) 0.00360 977.2 1.1
995(16) 0.00371 976.7 1.1
990(16) 0.00374 976.2 1.1
1024(17) 0.003318 975.7 1.1
1007(18) 0.003114 975.3 1.1
950(16) 0.00371 974.8 1.1
938(16) 0.00398 974.3 1.1
970(16) 0.00381 973.8 1.1
970(17) 0.00356 973.3 1.1
972(17) 0.003355 972.9 1.1
968(17) 0.00356 972.4 1.1
995(16) 0.00375 971.9 1.1
1003(17) 0.00364 971.4 1.1
1004(17) 0.003424 970.9 1.1
933(17) 0.00360 970.5 1.1
962(17) 0.00364 970.0 1.1
981(16) 0.00380 969.5 1.1
951(16) 0.00386 969.0 1.1
959(17) 0.00360 968.5 1.1
955(17) 0.003471 968.1 1.1
944(16) 0.00373 967.6 1.1
981(16) 0.00379 967.1 1.1
984(17) 0.00364 966.6 1.1
946(16) 0.00368 966.1 1.1
997(17) 0.003339 965.7 1.1
964(17) 0.00361 965.2 1.1
963(16) 0.00389 964.7 1.1
958(17) 0.00367 964.2 1.1
922(16) 0.00373 963.7 1.1
985(17) 0.003480 963.3 1.1
964(16) 0.00372 962.8 1.1
964(16) 0.00385 962.3 1.1
979(17) 0.00351 961.8 1.1
966(17) 0.003470 961.3 1.1
989(17) 0.003460 960.9 1.1
991(17) 0.00362 960.4 1.1
984(16) 0.00376 959.9 1.1
972(17) 0.00353 959.4 1.1
956(17) 0.003501 958.9 1.1
972(17) 0.00356 958.5 1.1
994(17) 0.00365 958.0 1.1
967(16) 0.00385 957.5 1.1
1024(17) 0.003335 957.0 1.1
993(18) 0.003222 956.5 1.1
904(16) 0.00385 956.1 1.1
958(16) 0.00385 955.6 1.1
974(16) 0.00380 955.1 1.1
983(17) 0.00354 954.6 1.1
952(17) 0.003457 954.1 1.1
926(16) 0.00375 953.7 1.2
933(16) 0.00398 953.2 1.2
968(16) 0.00380 952.7 1.2
1004(17) 0.003369 952.2 1.2
984(18) 0.003217 951.7 1.2
934(16) 0.00376 951.3 1.2
937(16) 0.00393 950.8 1.2
941(16) 0.00393 950.3 1.2
991(17) 0.003469 949.8 1.2
964(17) 0.003435 949.3 1.2
1000(17) 0.00351 948.9 1.2
937(16) 0.00397 948.4 1.2
941(16) 0.00390 947.9 1.2
927(16) 0.00376 947.4 1.2
948(17) 0.00352 946.9 1.2
979(17) 0.00353 946.5 1.2
956(16) 0.00390 946.0 1.2
947(16) 0.00380 945.5 1.2
932(16) 0.00373 945.0 1.2
958(17) 0.003443 944.5 1.2
915(16) 0.00382 944.1 1.2
940(16) 0.00398 943.6 1.2
925(16) 0.00389 943.1 1.2
947(16) 0.00370 942.6 1.2
963(17) 0.003478 942.1 1.2
942(16) 0.00373 941.7 1.2
958(16) 0.00388 941.2 1.2
923(16) 0.00383 940.7 1.2
895(16) 0.00387 940.2 1.2
947(17) 0.00366 939.7 1.2
966(17) 0.00361 939.3 1.2
941(16) 0.00394 938.8 1.2
948(17) 0.00360 938.3 1.2
983(17) 0.003374 937.8 1.2
948(17) 0.00363 937.3 1.2
964(16) 0.00374 936.9 1.2
940(16) 0.00398 936.4 1.2
984(17) 0.003400 935.9 1.2
932(17) 0.00352 935.4 1.2
934(17) 0.00365 934.9 1.2
943(16) 0.00377 934.5 1.2
939(16) 0.00395 934.0 1.2
872(16) 0.00405 933.5 1.2
955(17) 0.003363 933.0 1.2
942(17) 0.00360 932.5 1.2
902(16) 0.00409 932.1 1.2
958(16) 0.00388 931.6 1.3
933(16) 0.00376 931.1 1.3
967(17) 0.003359 930.6 1.3
942(16) 0.00373 930.1 1.3
921(16) 0.00401 929.7 1.3
924(16) 0.00400 929.2 1.3
937(17) 0.00367 928.7 1.3
895(16) 0.00369 928.2 1.3
923(16) 0.00385 927.7 1.3
957(16) 0.00387 927.3 1.3
962(16) 0.00384 926.8 1.3
942(17) 0.00367 926.3 1.3
971(18) 0.003247 925.8 1.3
906(16) 0.00385 925.3 1.3
911(16) 0.00405 924.9 1.3
892(15) 0.00419 924.4 1.3
928(16) 0.00374 923.9 1.3
928(17) 0.00351 923.4 1.3
927(16) 0.00371 922.9 1.3
955(16) 0.00391 922.5 1.3
961(16) 0.00384 922.0 1.3
962(17) 0.00360 921.5 1.3
933(17) 0.00359 921.0 1.3
902(16) 0.00381 920.5 1.4
953(16) 0.00389 920.1 1.4
947(16) 0.00383 919.6 1.4
923(16) 0.00379 919.1 1.4
879(16) 0.00386 918.6 1.4
904(16) 0.00381 918.1 1.4
963(16) 0.00385 917.7 1.4
969(16) 0.00369 917.2 1.4
960(17) 0.00357 916.7 1.4
895(16) 0.00381 916.2 1.4
898(16) 0.00397 915.7 1.4
954(16) 0.00390 915.3 1.4
945(16) 0.00372 914.8 1.4
872(16) 0.00393 914.3 1.4
905(16) 0.00382 913.8 1.4
916(16) 0.00390 913.3 1.5
931(16) 0.00401 912.9 1.5
945(17) 0.00365 912.4 1.5
908(16) 0.00371 911.9 1.5
907(16) 0.00391 911.4 1.5
907(16) 0.00401 910.9 1.5
889(15) 0.00420 910.5 1.5
930(16) 0.00371 910.0 1.5
909(16) 0.00368 909.5 1.5
955(17) 0.00357 909.0 1.5
927(16) 0.00396 908.5 1.5
923(16) 0.00404 908.1 1.5
915(16) 0.00382 907.6 1.6
907(17) 0.00361 907.1 1.6
920(16) 0.00373 906.6 1.6
905(16) 0.00406 906.1 1.6
917(16) 0.00402 905.7 1.6
915(16) 0.00372 905.2 1.6
901(17) 0.00362 904.7 1.6
922(16) 0.00373 904.2 1.6
909(16) 0.00402 903.7 1.6
976(16) 0.00382 903.3 1.7
909(16) 0.00380 902.8 1.7
912(17) 0.00352 902.3 1.7
874(16) 0.00395 901.8 1.7
904(16) 0.00412 901.3 1.7
947(16) 0.00385 900.9 1.7
886(16) 0.00385 900.4 1.7
863(16) 0.00382 899.9 1.7
865(16) 0.00398 899.4 1.8
862(15) 0.00428 898.9 1.8
907(16) 0.00407 898.5 1.8
904(16) 0.00391 898.0 1.8
899(16) 0.00371 897.5 1.8
902(16) 0.00385 897.0 1.8
930(16) 0.00399 896.5 1.9
882(16) 0.00416 896.1 1.9
905(16) 0.00387 895.6 1.9
926(17) 0.00362 895.1 1.9
882(16) 0.00391 894.6 1.9
884(15) 0.00419 894.1 2.0
899(16) 0.00408 893.7 2.0
922(16) 0.00378 893.2 2.0
912(16) 0.00376 892.7 2.0
878(16) 0.00401 892.2 2.1
882(15) 0.00422 891.7 2.1
902(16) 0.00395 891.3 2.1
905(16) 0.00371 890.8 2.1
889(16) 0.00380 890.3 2.2
863(16) 0.00412 889.8 2.2
877(15) 0.00428 889.3 2.2
903(16) 0.00386 888.9 2.3
879(16) 0.00386 888.4 2.3
895(16) 0.00388 887.9 2.3
900(16) 0.00396 887.4 2.4
906(16) 0.00402 886.9 2.4
892(16) 0.00385 886.5 2.4
898(16) 0.00374 886.0 2.5
899(16) 0.00383 885.5 2.5
911(16) 0.00406 885.0 2.6
884(15) 0.00418 884.5 2.6
863(16) 0.00409 884.1 2.7
847(16) 0.00392 883.6 2.7
917(16) 0.00377 883.1 2.8
852(15) 0.00430 882.6 2.9
819(15) 0.00456 882.1 2.9
863(16) 0.00408 881.7 3.0
875(16) 0.00370 881.2 3.1
874(16) 0.00392 880.7 3.2
851(15) 0.00437 880.2 3.2
894(15) 0.00418 879.8 3.3
909(16) 0.00391 879.3 3.4
877(16) 0.00368 878.8 3.5
865(16) 0.00407 878.3 3.6
847(15) 0.00441 877.8 3.8
856(15) 0.00432 877.3 3.9
873(16) 0.00406 876.8 4.0
873(16) 0.00379 876.3 4.2
869(16) 0.00402 875.9 4.3
888(16) 0.00412 875.4 4.5
898(16) 0.00413 874.9 4.6
868(16) 0.00407 874.4 4.8
867(16) 0.00384 873.9 5.0
840(16) 0.00413 873.4 5.2
878(15) 0.00422 872.9 5.4
861(15) 0.00420 872.4 5.6
882(16) 0.00384 872.0 5.9
907(17) 0.00367 871.5 6.1
903(16) 0.00372 871.0 6.4
865(15) 0.00429 870.5 6.6
871(16) 0.00412 870.0 6.9
856(16) 0.00401 869.5 7.2
870(16) 0.00385 869.0 7.5
838(16) 0.00413 868.5 7.8
843(15) 0.00441 868.0 8.1
911(16) 0.00384 867.6 8.4
879(16) 0.00387 867.1 8.7
888(16) 0.00389 866.6 9.0
884(16) 0.00404 866.1 9.3
922(16) 0.00402 865.6 9.6
899(16) 0.00386 865.1 9.8
877(16) 0.00382 864.6 10.1
882(16) 0.00399 864.1 10.3
899(16) 0.00398 863.7 10.6
852(15) 0.00436 863.2 10.7
910(16) 0.00374 862.7 10.9
865(16) 0.00385 862.2 11.0
875(16) 0.00402 861.7 11.1
876(16) 0.00416 861.2 11.1
878(15) 0.00424 860.7 11.2
858(16) 0.00405 860.2 11.1
887(17) 0.00366 859.8 11.0
836(15) 0.00420 859.3 10.9
864(15) 0.00424 858.8 10.8
864(15) 0.00427 858.3 10.6
867(16) 0.00405 857.8 10.4
884(17) 0.00363 857.3 10.2
860(16) 0.00406 856.8 10.0
881(15) 0.00419 856.3 9.7
866(15) 0.00429 855.9 9.5
837(16) 0.00407 855.4 9.2
829(16) 0.00390 854.9 8.9
864(16) 0.00400 854.4 8.7
855(15) 0.00438 853.9 8.4
857(15) 0.00426 853.4 8.2
846(16) 0.00414 852.9 7.9
861(16) 0.00377 852.4 7.7
842(16) 0.00409 852.0 7.4
836(15) 0.00444 851.5 7.2
825(15) 0.00441 851.0 7.0
845(16) 0.00407 850.5 6.8
923(17) 0.00352 850.0 6.6
829(15) 0.00427 849.5 6.4
883(15) 0.00419 849.0 6.3
855(15) 0.00417 848.5 6.1
839(16) 0.00407 848.1 6.0
843(16) 0.00394 847.6 5.8
840(16) 0.00404 847.1 5.7
819(15) 0.00452 846.6 5.6
829(15) 0.00427 846.1 5.5
882(16) 0.00393 845.6 5.4
886(16) 0.00375 845.1 5.3
893(16) 0.00388 844.6 5.2
855(15) 0.00427 844.1 5.2
852(16) 0.00414 843.7 5.1
865(16) 0.00387 843.2 5.0
786(15) 0.00428 842.7 5.0
825(15) 0.00430 842.2 5.0
831(15) 0.00438 841.7 4.9
879(16) 0.00399 841.2 4.9
838(16) 0.00403 840.7 4.9
838(16) 0.00408 840.2 4.9
878(16) 0.00405 839.8 4.9
846(15) 0.00432 839.3 4.9
859(16) 0.00405 838.8 4.9
810(16) 0.00416 838.3 4.9
846(16) 0.00402 837.8 4.9
839(15) 0.00424 837.3 4.9
803(15) 0.00459 836.8 5.0
810(15) 0.00426 836.3 5.0
819(16) 0.00391 835.9 5.0
788(15) 0.00447 835.4 5.1
806(15) 0.00446 834.9 5.1
833(15) 0.00449 834.4 5.2
837(16) 0.00414 833.9 5.2
849(16) 0.00388 833.4 5.3
856(16) 0.00411 832.9 5.3
859(15) 0.00424 832.4 5.4
832(15) 0.00449 832.0 5.5
853(16) 0.00401 831.5 5.6
815(16) 0.00399 831.0 5.6
800(15) 0.00431 830.5 5.7
797(15) 0.00457 830.0 5.8
824(15) 0.00449 829.5 5.9
814(15) 0.00437 829.0 6.0
819(16) 0.00411 828.5 6.1
819(15) 0.00443 828.1 6.2
849(15) 0.00433 827.6 6.4
859(15) 0.00426 827.1 6.5
841(16) 0.00409 826.6 6.6
799(16) 0.00401 826.1 6.8
788(15) 0.00436 825.6 6.9
838(15) 0.00442 825.1 7.1
806(15) 0.00452 824.6 7.3
863(16) 0.00406 824.2 7.4
877(16) 0.00379 823.7 7.6
867(16) 0.00392 823.2 7.8
814(15) 0.00458 822.7 8.0
799(15) 0.00455 822.2 8.3
824(15) 0.00428 821.7 8.5
823(16) 0.00414 821.2 8.8
822(15) 0.00431 820.7 9.0
843(15) 0.00442 820.3 9.3
832(15) 0.00434 819.8 9.6
840(15) 0.00416 819.3 10.0
845(16) 0.00405 818.8 10.3
791(15) 0.00442 818.3 10.7
896(15) 0.00419 817.8 11.1
854(16) 0.00411 817.3 11.5
820(16) 0.00416 816.8 11.9
834(16) 0.00413 816.3 12.4
814(15) 0.00448 815.9 13.0
844(15) 0.00442 815.4 13.5
802(15) 0.00440 814.9 14.2
783(15) 0.00435 814.4 14.8
809(15) 0.00423 813.9 15.5
828(15) 0.00437 813.4 16.3
817(15) 0.00457 812.9 17.2
823(15) 0.00425 812.4 18.1
850(16) 0.00402 812.0 19.1
891(16) 0.00394 811.5 20.3
818(15) 0.00450 811.0 21.5
801(15) 0.00465 810.5 22.9
819(15) 0.00421 810.0 24.4
856(16) 0.00383 809.5 26.1
817(15) 0.00428 809.0 28.0
835(15) 0.00445 808.5 30.1
819(15) 0.00454 808.1 32.5
867(16) 0.00395 807.6 35.2
807(16) 0.00406 807.1 38.3
812(15) 0.00424 806.6 41.8
834(15) 0.00444 806.1 45.9
887(16) 0.00414 805.6 50.7
854(16) 0.00412 805.1 56.4
898(17) 0.00366 804.6 63.3
891(16) 0.00396 804.2 72.0
884(15) 0.00424 803.7 82.9
872(15) 0.00422 803.2 97.3
922(16) 0.00380 802.7 116.4
956(17) 0.003417 802.2 141.9
993(17) 0.003477 801.7 176.0
984(16) 0.00381 801.2 220.9
1086(17) 0.003344 800.7 278.7
1116(18) 0.003129 800.3 350.9
1168(19) 0.002860 799.8 437.7
1290(19) 0.002678 799.3 537.4
1364(19) 0.002730 798.8 644.8
1521(21) 0.002378 798.3 749.6
1553(21) 0.002252 797.8 835.2
1639(22) 0.002037 797.3 882.1
1695(22) 0.002039 796.8 876.7
1670(21) 0.002227 796.4 820.7
1581(21) 0.002242 795.9 729.8
1397(20) 0.002488 795.4 623.5
1289(19) 0.002646 794.9 517.1
1200(18) 0.002942 794.4 419.7
1139(17) 0.003281 793.9 335.7
1026(17) 0.003461 793.4 266.5
987(17) 0.00352 792.9 211.5
958(17) 0.00356 792.5 169.0
921(16) 0.00381 792.0 136.9
954(16) 0.00389 791.5 112.8
910(16) 0.00382 791.0 94.9
903(16) 0.00373 790.5 81.4
890(16) 0.00391 790.0 71.0
879(16) 0.00411 789.5 62.8
845(15) 0.00441 789.0 56.2
827(16) 0.00409 788.5 50.8
815(16) 0.00410 788.1 46.2
844(16) 0.00414 787.6 42.3
856(15) 0.00425 787.1 39.0
839(15) 0.00446 786.6 36.0
834(15) 0.00421 786.1 33.5
812(16) 0.00409 785.6 31.2
793(15) 0.00436 785.1 29.2
788(15) 0.00462 784.6 27.4
828(15) 0.00450 784.2 25.8
844(16) 0.00408 783.7 24.4
783(15) 0.00423 783.2 23.1
757(15) 0.00471 782.7 22.0
815(15) 0.00451 782.2 21.0
779(14) 0.00477 781.7 20.0
748(15) 0.00459 781.2 19.2
787(16) 0.00399 780.7 18.4
763(15) 0.00467 780.3 17.7
796(15) 0.00466 779.8 17.1
793(15) 0.00456 779.3 16.5
767(15) 0.00450 778.8 16.0
773(15) 0.00424 778.3 15.5
830(15) 0.00418 777.8 15.1
773(14) 0.00479 777.3 14.7
802(15) 0.00460 776.8 14.3
764(15) 0.00454 776.4 14.0
769(15) 0.00425 775.9 13.7
790(15) 0.00428 775.4 13.5
779(14) 0.00476 774.9 13.2
780(15) 0.00469 774.4 13.0
770(15) 0.00450 773.9 12.8
764(15) 0.00435 773.4 12.6
772(15) 0.00445 772.9 12.4
765(14) 0.00489 772.5 12.3
728(14) 0.00495 772.0 12.2
741(15) 0.00468 771.5 12.1
759(15) 0.00449 771.0 12.0
786(15) 0.00441 770.5 11.9
743(14) 0.00499 770.0 11.8
747(14) 0.00478 769.5 11.8
752(15) 0.00458 769.0 11.7
745(15) 0.00455 768.6 11.7
791(15) 0.00439 768.1 11.7
761(14) 0.00486 767.6 11.7
795(15) 0.00442 767.1 11.7
777(15) 0.00433 766.6 11.7
826(16) 0.00402 766.1 11.8
767(15) 0.00475 765.6 11.8
745(14) 0.00496 765.1 11.9
762(15) 0.00460 764.6 12.0
779(15) 0.00433 764.2 12.1
767(15) 0.00455 763.7 12.2
784(15) 0.00461 763.2 12.3
765(14) 0.00486 762.7 12.4
779(15) 0.00441 762.2 12.6
780(15) 0.00417 761.8 12.8
779(15) 0.00443 761.3 13.0
768(14) 0.00486 760.8 13.2
751(14) 0.00493 760.3 13.4
770(15) 0.00446 759.8 13.7
763(15) 0.00429 759.4 13.9
789(15) 0.00446 758.9 14.1
733(14) 0.00510 758.4 14.3
727(14) 0.00507 757.9 14.4
765(15) 0.00458 757.5 14.6
757(15) 0.00426 757.0 14.8
788(15) 0.00454 756.5 14.9
744(14) 0.00497 756.0 15.1
735(14) 0.00502 755.6 15.3
755(15) 0.00460 755.1 15.5
712(15) 0.00463 754.6 15.8
715(14) 0.00494 754.1 16.0
749(14) 0.00497 753.6 16.3
768(14) 0.00484 753.2 16.7
755(15) 0.00463 752.7 17.0
746(15) 0.00446 752.2 17.4
749(15) 0.00462 751.7 17.8
766(14) 0.00488 751.3 18.2
731(14) 0.00503 750.8 18.6
735(14) 0.00478 750.3 19.1
768(15) 0.00440 749.8 19.6
747(15) 0.00455 749.3 20.1
734(14) 0.00507 748.9 20.7
709(14) 0.00504 748.4 21.3
728(14) 0.00481 747.9 21.9
719(15) 0.00465 747.4 22.6
738(14) 0.00477 747.0 23.3
761(14) 0.00491 746.5 24.0
754(14) 0.00477 746.0 24.8
746(15) 0.00459 745.5 25.6
725(15) 0.00464 745.1 26.5
723(14) 0.00492 744.6 27.5
737(14) 0.00508 744.1 28.5
757(15) 0.00470 743.6 29.5
762(15) 0.00446 743.1 30.6
769(15) 0.00436 742.7 31.8
708(14) 0.00501 742.2 33.1
724(14) 0.00514 741.7 34.5
774(15) 0.00454 741.2 35.9
787(15) 0.00427 740.8 37.5
754(15) 0.00461 740.3 39.2
730(14) 0.00496 739.8 41.0
745(14) 0.00502 739.3 42.9
764(15) 0.00458 738.8 45.1
771(15) 0.00432 738.4 47.3
760(15) 0.00455 737.9 49.8
758(14) 0.00486 737.4 52.5
765(14) 0.00485 736.9 55.5
750(15) 0.00468 736.5 58.8
808(16) 0.00409 736.0 62.4
793(15) 0.00437 735.5 66.4
780(15) 0.00470 735.0 70.9
831(15) 0.00445 734.6 76.0
792(15) 0.00449 734.1 81.6
808(16) 0.00401 733.6 88.1
810(15) 0.00431 733.1 95.3
792(15) 0.00466 732.6 103.5
779(14) 0.00478 732.2 112.9
817(15) 0.00427 731.7 123.5
835(16) 0.00390 731.2 135.6
830(15) 0.00426 730.7 149.2
881(15) 0.00419 730.3 164.6
887(16) 0.00412 729.8 182.0
920(16) 0.00380 729.3 201.4
917(17) 0.00359 728.8 223.1
927(16) 0.00372 728.3 247.2
931(16) 0.00398 727.9 273.7
984(16) 0.00369 727.4 302.6
1090(18) 0.003180 726.9 334.0
1117(18) 0.002979 726.4 367.6
1147(18) 0.003008 726.0 403.3
1174(18) 0.003172 725.5 440.5
1205(18) 0.002985 725.0 478.5
1284(19) 0.002658 724.5 516.5
1306(20) 0.002583 724.0 553.1
1329(20) 0.002566 723.6 587.0
1423(20) 0.002611 723.1 616.2
1453(20) 0.002487 722.6 639.1
1396(20) 0.002462 722.1 654.1
1361(20) 0.002503 721.7 660.0
1374(20) 0.002588 721.2 656.3
1342(19) 0.002763 720.7 643.3
1313(19) 0.002639 720.2 622.2
1204(19) 0.002832 719.8 594.2
1188(19) 0.002884 719.3 561.3
1144(18) 0.003146 718.8 525.2
1189(18) 0.003131 718.3 487.5
1086(18) 0.003169 717.8 449.5
1073(18) 0.003118 717.4 412.1
1074(18) 0.003244 716.9 376.1
1049(17) 0.003449 716.4 342.1
1007(16) 0.00368 715.9 310.3
1001(17) 0.003470 715.5 280.8
972(17) 0.003495 715.0 253.9
1006(17) 0.003351 714.5 229.3
960(16) 0.00376 714.0 207.2
926(16) 0.00401 713.5 187.3
889(16) 0.00397 713.1 169.6
902(17) 0.00355 712.6 153.8
880(16) 0.00398 712.1 139.9
856(15) 0.00441 711.6 127.6
861(15) 0.00431 711.2 116.8
847(16) 0.00411 710.7 107.2
820(16) 0.00398 710.2 98.9
814(15) 0.00432 709.7 91.5
815(15) 0.00454 709.2 85.0
824(15) 0.00456 708.8 79.3
802(15) 0.00430 708.3 74.3
829(16) 0.00379 707.8 69.8
794(15) 0.00441 707.3 65.8
796(15) 0.00469 706.9 62.2
818(15) 0.00452 706.4 59.0
770(15) 0.00458 705.9 56.1
771(16) 0.00416 705.4 53.4
747(15) 0.00460 705.0 51.1
749(14) 0.00497 704.5 48.9
775(15) 0.00470 704.0 46.9
747(15) 0.00466 703.5 45.1
797(15) 0.00417 703.0 43.5
783(15) 0.00448 702.6 42.0
791(15) 0.00469 702.1 40.6
754(14) 0.00476 701.6 39.4
746(15) 0.00467 701.1 38.2
717(15) 0.00465 700.7 37.2
707(14) 0.00484 700.2 36.3
752(14) 0.00493 699.7 35.4
734(14) 0.00494 699.2 34.7
713(14) 0.00495 698.7 34.1
738(15) 0.00461 698.3 33.5
747(15) 0.00461 697.8 33.1
687(14) 0.00548 697.3 32.7
736(14) 0.00482 696.8 32.4
698(14) 0.00494 696.4 32.3
719(15) 0.00470 695.9 32.2
698(14) 0.00504 695.4 32.2
722(14) 0.00517 694.9 32.4
725(15) 0.00473 694.5 32.7
709(14) 0.00479 694.0 33.1
716(14) 0.00483 693.5 33.7
719(14) 0.00497 693.0 34.4
744(14) 0.00502 692.5 35.3
753(15) 0.00446 692.1 36.3
746(15) 0.00443 691.6 37.5
746(15) 0.00456 691.1 38.9
740(14) 0.00490 690.6 40.6
716(14) 0.00525 690.2 42.4
744(15) 0.00459 689.7 44.4
744(15) 0.00438 689.2 46.7
727(14) 0.00483 688.7 49.1
744(14) 0.00496 688.2 51.8
771(14) 0.00483 687.8 54.7
728(14) 0.00486 687.3 57.7
771(15) 0.00423 686.8 60.8
732(14) 0.00481 686.3 64.1
750(14) 0.00492 685.9 67.3
783(15) 0.00473 685.4 70.5
761(15) 0.00452 684.9 73.5
760(15) 0.00419 684.4 76.2
799(15) 0.00425 683.9 78.6
795(15) 0.00467 683.5 80.4
789(15) 0.00470 683.0 81.5
776(15) 0.00437 682.5 82.0
784(16) 0.00403 682.0 81.8
778(15) 0.00449 681.6 80.8
768(14) 0.00480 681.1 79.2
729(14) 0.00503 680.6 77.1
781(15) 0.00450 680.1 74.6
799(16) 0.00407 679.7 71.8
750(15) 0.00452 679.2 68.9
739(14) 0.00504 678.7 65.9
743(14) 0.00491 678.2 62.9
755(15) 0.00452 677.7 60.1
723(15) 0.00446 677.3 57.4
697(14) 0.00490 676.8 54.9
684(14) 0.00543 676.3 52.7
680(14) 0.00541 675.8 50.7
684(14) 0.00505 675.4 49.0
676(14) 0.00513 674.9 47.6
741(15) 0.00465 674.4 46.5
689(14) 0.00541 673.9 45.7
672(14) 0.00531 673.4 45.1
659(14) 0.00511 673.0 44.9
676(14) 0.00506 672.5 44.9
677(14) 0.00517 672.0 45.2
702(14) 0.00534 671.5 45.7
731(14) 0.00477 671.1 46.5
694(14) 0.00487 670.6 47.6
684(14) 0.00498 670.1 48.8
692(14) 0.00522 669.6 50.3
705(14) 0.00531 669.2 52.0
699(14) 0.00484 668.7 53.8
716(15) 0.00464 668.2 55.8
711(14) 0.00488 667.7 57.9
756(14) 0.00482 667.2 60.1
727(14) 0.00509 666.8 62.4
739(15) 0.00456 666.3 64.6
704(14) 0.00479 665.8 66.7
753(15) 0.00448 665.3 68.7
735(14) 0.00500 664.9 70.5
765(14) 0.00487 664.4 71.9
743(15) 0.00468 663.9 73.1
683(14) 0.00499 663.4 73.8
720(14) 0.00490 662.9 74.1
740(14) 0.00499 662.5 73.9
700(14) 0.00528 662.0 73.2
731(15) 0.00468 661.5 72.1
716(15) 0.00440 661.0 70.6
719(15) 0.00469 660.6 68.6
702(14) 0.00521 660.1 66.4
693(14) 0.00530 659.6 63.9
714(14) 0.00481 659.1 61.3
691(14) 0.00481 658.6 58.5
672(14) 0.00530 658.2 55.7
675(13) 0.00550 657.7 52.8
692(14) 0.00534 657.2 50.0
687(14) 0.00508 656.7 47.3
670(14) 0.00497 656.3 44.6
692(14) 0.00496 655.8 42.1
674(13) 0.00549 655.3 39.7
688(14) 0.00532 654.8 37.3
678(14) 0.00523 654.4 35.2
678(14) 0.00500 653.9 33.1
679(14) 0.00506 653.4 31.2
648(13) 0.00574 652.9 29.4
655(13) 0.00552 652.4 27.8
672(14) 0.00510 652.0 26.2
663(14) 0.00515 651.5 24.8
682(14) 0.00509 651.0 23.5
645(13) 0.00577 650.5 22.3
682(14) 0.00508 650.1 21.2
640(14) 0.00542 649.6 20.2
642(14) 0.00541 649.1 19.3
623(13) 0.00571 648.6 18.5
619(13) 0.00594 648.1 17.7
653(14) 0.00528 647.7 17.0
693(14) 0.00483 647.2 16.4
692(14) 0.00481 646.7 15.9
637(13) 0.00563 646.2 15.4
623(13) 0.00601 645.8 14.9
632(14) 0.00541 645.3 14.5
618(14) 0.00537 644.8 14.1
632(13) 0.00552 644.3 13.8
638(13) 0.00571 643.9 13.5
645(13) 0.00575 643.4 13.3
631(14) 0.00537 642.9 13.0
659(14) 0.00502 642.4 12.8
663(14) 0.00522 641.9 12.7
627(13) 0.00584 641.5 12.5
618(13) 0.00603 641.0 12.4
643(14) 0.00530 640.5 12.3
620(14) 0.00535 640.0 12.3
651(14) 0.00530 639.6 12.2
620(13) 0.00597 639.1 12.2
636(13) 0.00584 638.6 12.3
636(14) 0.00540 638.1 12.3
656(14) 0.00501 637.6 12.4
673(14) 0.00513 637.2 12.5
627(13) 0.00592 636.7 12.7
650(13) 0.00572 636.2 13.0
650(14) 0.00542 635.7 13.3
656(14) 0.00497 635.3 13.7
643(14) 0.00539 634.8 14.2
624(13) 0.00595 634.3 14.8
610(13) 0.00612 633.8 15.7
645(14) 0.00532 633.3 16.8
641(14) 0.00509 632.9 18.5
652(14) 0.00526 632.4 21.2
656(13) 0.00561 631.9 25.3
643(13) 0.00564 631.4 32.1
657(14) 0.00521 631.0 42.4
708(15) 0.00462 630.5 57.6
750(15) 0.00444 630.0 77.9
709(14) 0.00523 629.5 102.6
767(15) 0.00474 629.1 128.7
775(15) 0.00447 628.6 150.1
786(15) 0.00423 628.1 158.5
801(15) 0.00428 627.6 149.7
757(14) 0.00497 627.1 128.1
714(14) 0.00496 626.7 101.7
713(14) 0.00486 626.2 76.7
666(14) 0.00514 625.7 56.2
652(14) 0.00534 625.2 40.8
670(13) 0.00558 624.8 30.2
669(14) 0.00520 624.3 23.3
645(14) 0.00522 623.8 18.8
646(14) 0.00542 623.3 16.0
679(14) 0.00517 622.8 14.0
619(13) 0.00603 622.4 12.6
616(13) 0.00573 621.9 11.5
624(14) 0.00546 621.4 10.7
626(14) 0.00547 620.9 9.9
629(13) 0.00577 620.5 9.3
636(13) 0.00584 620.0 8.8
637(14) 0.00544 619.5 8.3
605(13) 0.00568 619.0 7.9
631(14) 0.00542 618.6 7.5
605(13) 0.00609 618.1 7.2
599(13) 0.00619 617.6 6.9
599(13) 0.00581 617.1 6.6
654(14) 0.00505 616.6 6.4
627(13) 0.00577 616.2 6.1
627(13) 0.00585 615.7 5.9
642(13) 0.00583 615.2 5.8
575(13) 0.00622 614.7 5.6
584(13) 0.00560 614.3 5.4
596(13) 0.00578 613.8 5.3
606(13) 0.00615 613.3 5.1
609(13) 0.00605 612.8 5.0
611(13) 0.00565 612.3 4.8
630(14) 0.00512 611.9 4.7
601(13) 0.00583 611.4 4.6
635(13) 0.00584 610.9 4.5
588(13) 0.00633 610.4 4.4
619(13) 0.00558 610.0 4.3
594(13) 0.00556 609.5 4.2
607(13) 0.00582 609.0 4.1
628(13) 0.00591 608.5 4.0
631(13) 0.00574 608.1 4.0
583(13) 0.00595 607.6 3.9
589(13) 0.00554 607.1 3.8
539(12) 0.00656 606.6 3.7
623(13) 0.00594 606.1 3.7
611(13) 0.00580 605.7 3.6
572(13) 0.00604 605.2 3.5
595(13) 0.00570 604.7 3.5
593(13) 0.00604 604.2 3.4
606(13) 0.00612 603.8 3.4
593(13) 0.00606 603.3 3.3
629(14) 0.00543 602.8 3.3
606(14) 0.00544 602.3 3.2
617(13) 0.00560 601.8 3.2
600(13) 0.00615 601.4 3.1
605(13) 0.00594 600.9 3.1
582(13) 0.00600 600.4 3.0
591(13) 0.00581 599.9 3.0
611(13) 0.00565 599.5 2.9
578(12) 0.00647 599.0 2.9
612(13) 0.00563 598.5 2.9
564(13) 0.00619 598.0 2.8
602(13) 0.00566 597.5 2.8
600(13) 0.00597 597.1 2.8
624(13) 0.00595 596.6 2.7
601(13) 0.00559 596.1 2.7
584(13) 0.00572 595.6 2.7
556(13) 0.00617 595.2 2.6
610(13) 0.00590 594.7 2.6
625(13) 0.00592 594.2 2.6
639(14) 0.00538 593.7 2.6
612(14) 0.00540 593.3 2.5
576(13) 0.00597 592.8 2.5
582(13) 0.00625 592.3 2.5
595(13) 0.00630 591.8 2.5
575(13) 0.00609 591.3 2.4
602(14) 0.00518 590.9 2.4
593(13) 0.00570 590.4 2.4
578(13) 0.00637 589.9 2.4
600(13) 0.00620 589.4 2.4
571(13) 0.00595 589.0 2.3
588(13) 0.00552 588.5 2.3
583(13) 0.00603 588.0 2.3
574(12) 0.00646 587.5 2.3
554(12) 0.00673 587.0 2.3
559(13) 0.00635 586.6 2.2
558(13) 0.00592 586.1 2.2
587(13) 0.00580 585.6 2.2
590(13) 0.00629 585.1 2.2
587(13) 0.00626 584.7 2.2
612(13) 0.00554 584.2 2.2
597(13) 0.00554 583.7 2.2
608(13) 0.00554 583.2 2.1
559(12) 0.00669 582.7 2.1
588(13) 0.00623 582.3 2.1
604(13) 0.00571 581.8 2.1
595(13) 0.00557 581.3 2.1
582(13) 0.00583 580.8 2.1
601(13) 0.00615 580.4 2.1
552(12) 0.00660 579.9 2.0
572(13) 0.00604 579.4 2.0
571(13) 0.00605 578.9 2.0
583(13) 0.00617 578.5 2.0
557(12) 0.00664 578.0 2.0
589(13) 0.00602 577.5 2.0
576(13) 0.00592 577.0 2.0
581(13) 0.00593 576.5 2.0
592(13) 0.00607 576.1 1.9
578(13) 0.00635 575.6 1.9
580(13) 0.00616 575.3 1.9
549(13) 0.00616 575.0 1.9
606(13) 0.00554 574.7 1.9
581(13) 0.00611 574.5 1.9
568(12) 0.00655 574.2 1.9
573(13) 0.00603 573.9 1.9
585(13) 0.00574 573.7 1.9
603(13) 0.00587 573.4 1.9
569(13) 0.00633 573.1 1.9
591(13) 0.00631 572.9 1.8
607(13) 0.00564 572.6 1.8
567(13) 0.00586 572.3 1.8
590(13) 0.00575 572.0 1.8
600(13) 0.00621 571.8 1.8
582(13) 0.00625 571.5 1.8
570(13) 0.00601 571.2 1.8
561(13) 0.00578 571.0 1.8
549(12) 0.00642 570.7 1.8
579(13) 0.00637 570.4 1.8
571(12) 0.00644 570.1 1.8
572(13) 0.00599 569.9 1.8
547(13) 0.00607 569.6 1.8
575(13) 0.00607 569.3 1.8
582(12) 0.00645 569.1 1.8
609(13) 0.00600 568.8 1.8
581(13) 0.00611 568.5 1.8
578(13) 0.00583 568.3 1.8
585(13) 0.00598 568.0 1.8
547(12) 0.00684 567.7 1.8
567(12) 0.00644 567.4 1.8
574(13) 0.00605 567.2 1.8
584(13) 0.00552 566.9 1.8
592(13) 0.00574 566.6 1.8
570(12) 0.00662 566.4 1.8
562(12) 0.00641 566.1 1.8
553(13) 0.00640 565.8 1.8
578(13) 0.00567 565.6 1.8
562(13) 0.00607 565.3 1.8
562(12) 0.00660 565.0 1.8
548(12) 0.00656 564.7 1.8
558(13) 0.00613 564.5 1.8
593(13) 0.00569 564.2 1.8
560(13) 0.00621 563.9 1.8
588(13) 0.00633 563.7 1.8
554(12) 0.00659 563.4 1.8
590(13) 0.00573 563.1 1.8
580(13) 0.00574 562.9 1.8
557(13) 0.00636 562.6 1.8
593(13) 0.00624 562.3 1.8
553(13) 0.00635 562.0 1.8
548(13) 0.00630 561.8 1.8
552(12) 0.00646 561.5 1.8
580(13) 0.00614 561.2 1.8
544(12) 0.00682 561.0 1.8
553(12) 0.00641 560.7 1.8
568(13) 0.00598 560.4 1.8
557(13) 0.00618 560.1 1.8
558(12) 0.00655 559.9 1.8
575(12) 0.00644 559.6 1.8
535(12) 0.00663 559.3 1.8
576(13) 0.00589 559.1 1.8
563(13) 0.00618 558.8 1.8
555(12) 0.00656 558.5 1.8
583(12) 0.00641 558.3 1.9
541(12) 0.00647 558.0 1.9
560(13) 0.00555 557.7 1.9
541(13) 0.00637 557.4 1.9
593(13) 0.00617 557.2 1.9
564(12) 0.00662 556.9 1.9
564(13) 0.00615 556.6 1.9
607(14) 0.00524 556.4 1.9
565(13) 0.00616 556.1 2.0
564(12) 0.00648 555.8 2.0
543(12) 0.00685 555.6 2.0
559(13) 0.00607 555.3 2.0
526(13) 0.00604 555.0 2.0
538(12) 0.00649 554.7 2.1
562(12) 0.00657 554.5 2.1
540(12) 0.00680 554.2 2.1
537(13) 0.00640 553.9 2.2
555(13) 0.00592 553.7 2.2
521(12) 0.00666 553.4 2.2
529(12) 0.00709 553.1 2.3
570(13) 0.00622 552.9 2.3
560(13) 0.00622 552.6 2.3
542(13) 0.00617 552.3 2.4
575(13) 0.00585 552.0 2.4
554(12) 0.00669 551.8 2.5
572(13) 0.00622 551.5 2.5
568(13) 0.00627 551.2 2.6
563(13) 0.00600 551.0 2.7
559(13) 0.00620 550.7 2.7
608(13) 0.00612 550.4 2.8
554(12) 0.00647 550.1 2.9
537(12) 0.00660 549.9 3.0
563(13) 0.00601 549.6 3.1
562(13) 0.00629 549.3 3.2
551(12) 0.00675 549.1 3.3
548(13) 0.00637 548.8 3.5
544(13) 0.00615 548.5 3.6
513(12) 0.00644 548.3 3.7
545(12) 0.00655 548.0 3.9
557(12) 0.00661 547.7 4.1
567(13) 0.00610 547.4 4.3
516(12) 0.00659 547.2 4.5
592(13) 0.00580 546.9 4.8
602(13) 0.00598 546.6 5.1
584(13) 0.00640 546.4 5.4
566(13) 0.00608 546.1 5.8
522(12) 0.00652 545.8 6.2
572(13) 0.00586 545.6 6.7
520(12) 0.00712 545.3 7.2
564(12) 0.00661 545.0 7.8
599(13) 0.00556 544.7 8.5
555(13) 0.00600 544.5 9.4
588(13) 0.00598 544.2 10.4
568(12) 0.00651 543.9 11.6
533(12) 0.00690 543.7 13.1
570(13) 0.00603 543.4 15.0
585(14) 0.00536 543.1 17.6
588(13) 0.00568 542.8 21.0
539(12) 0.00690 542.6 25.8
567(12) 0.00644 542.3 32.3
571(13) 0.00617 542.0 41.1
577(13) 0.00556 541.8 52.8
585(13) 0.00604 541.5 67.8
637(13) 0.00584 541.2 86.1
631(13) 0.00584 541.0 107.2
676(14) 0.00515 540.7 129.6
700(15) 0.00470 540.4 150.2
700(14) 0.00500 540.1 164.4
727(14) 0.00510 539.9 167.6
737(14) 0.00499 539.6 158.8
699(14) 0.00501 539.3 141.0
671(14) 0.00490 539.1 119.1
668(14) 0.00528 538.8 97.0
648(13) 0.00574 538.5 77.1
568(13) 0.00639 538.3 60.3
593(13) 0.00568 538.0 46.9
542(13) 0.00617 537.7 36.6
557(13) 0.00607 537.4 29.0
549(12) 0.00676 537.2 23.4
591(13) 0.00611 536.9 19.3
557(13) 0.00610 536.6 16.3
540(13) 0.00622 536.4 14.1
553(13) 0.00624 536.1 12.4
543(12) 0.00689 535.8 11.1
536(12) 0.00671 535.6 10.0
539(12) 0.00651 535.3 9.1
560(13) 0.00604 535.0 8.3
568(13) 0.00628 534.7 7.6
546(12) 0.00682 534.5 7.0
516(12) 0.00701 534.2 6.6
517(12) 0.00679 533.9 6.1
532(12) 0.00644 533.7 5.7
536(12) 0.00669 533.4 5.4
545(12) 0.00678 533.1 5.1
545(13) 0.00617 532.8 4.8
545(13) 0.00617 532.6 4.6
530(12) 0.00647 532.3 4.4
557(12) 0.00652 532.0 4.2
556(12) 0.00668 531.8 4.0
553(13) 0.00635 531.5 3.9
535(13) 0.00616 531.2 3.7
541(13) 0.00636 531.0 3.6
547(12) 0.00667 530.7 3.5
525(12) 0.00709 530.4 3.4
559(13) 0.00606 530.1 3.3
533(13) 0.00601 529.9 3.2
549(13) 0.00626 529.6 3.1
500(12) 0.00737 529.3 3.1
523(12) 0.00711 529.1 3.0
515(12) 0.00677 528.8 3.0
522(13) 0.00630 528.5 2.9
540(12) 0.00644 528.3 2.9
537(12) 0.00698 528.0 2.8
533(12) 0.00691 527.7 2.8
534(12) 0.00657 527.4 2.8
546(13) 0.00596 527.2 2.7
529(12) 0.00646 526.9 2.7
507(12) 0.00730 526.6 2.7
514(12) 0.00719 526.4 2.7
534(12) 0.00644 526.1 2.6
519(13) 0.00635 525.8 2.6
535(12) 0.00644 525.6 2.6
537(12) 0.00695 525.3 2.6
526(12) 0.00701 525.0 2.6
510(12) 0.00683 524.7 2.6
520(12) 0.00659 524.5 2.6
515(12) 0.00668 524.2 2.6
491(11) 0.00760 523.9 2.6
505(12) 0.00724 523.7 2.7
543(13) 0.00619 523.4 2.7
501(12) 0.00704 523.1 2.7
538(12) 0.00643 522.8 2.7
522(12) 0.00711 522.6 2.7
495(12) 0.00729 522.3 2.8
527(12) 0.00656 522.0 2.8
521(12) 0.00655 521.8 2.8
508(12) 0.00691 521.5 2.9
522(12) 0.00715 521.2 2.9
509(12) 0.00696 521.0 3.0
528(13) 0.00637 520.7 3.0
533(13) 0.00635 520.4 3.1
544(12) 0.00667 520.1 3.1
524(12) 0.00712 519.9 3.2
545(13) 0.00626 519.6 3.3
529(12) 0.00642 519.3 3.3
527(12) 0.00662 519.1 3.4
494(12) 0.00732 518.8 3.5
519(12) 0.00714 518.5 3.6
519(12) 0.00665 518.3 3.7
537(13) 0.00609 518.0 3.8
540(12) 0.00644 517.7 3.9
504(12) 0.00720 517.4 4.0
527(12) 0.00704 517.2 4.1
548(13) 0.00631 516.9 4.3
521(13) 0.00628 516.6 4.4
533(13) 0.00640 516.4 4.5
493(11) 0.00761 516.1 4.7
499(12) 0.00753 515.8 4.8
480(12) 0.00733 515.5 5.0
507(13) 0.00635 515.3 5.2
507(12) 0.00690 515.0 5.3
526(12) 0.00706 514.7 5.5
498(12) 0.00743 514.5 5.7
503(12) 0.00708 514.2 5.9
535(13) 0.00621 513.9 6.1
548(13) 0.00620 513.7 6.4
535(12) 0.00691 513.4 6.6
546(12) 0.00675 513.1 6.8
556(13) 0.00614 512.8 7.1
524(13) 0.00625 512.6 7.3
515(12) 0.00692 512.3 7.6
578(12) 0.00643 512.0 7.8
527(12) 0.00698 511.8 8.1
531(12) 0.00669 511.5 8.3
538(13) 0.00618 511.2 8.6
533(12) 0.00657 511.0 8.9
495(12) 0.00755 510.7 9.1
504(12) 0.00732 510.4 9.4
509(12) 0.00684 510.1 9.6
520(12) 0.00643 509.9 9.9
529(12) 0.00649 509.6 10.1
513(12) 0.00722 509.3 10.4
515(12) 0.00692 509.1 10.6
518(12) 0.00666 508.8 10.8
512(12) 0.00680 508.5 11.0
501(12) 0.00721 508.3 11.2
504(12) 0.00738 508.0 11.4
533(12) 0.00668 507.7 11.6
528(12) 0.00657 507.4 11.7
528(12) 0.00654 507.2 11.9
511(12) 0.00720 506.9 12.1
502(12) 0.00743 506.6 12.3
522(12) 0.00645 506.4 12.6
495(12) 0.00697 506.1 12.8
508(12) 0.00707 505.8 13.1
532(12) 0.00680 505.5 13.5
497(12) 0.00740 505.3 13.8
491(12) 0.00702 505.0 14.2
512(12) 0.00647 504.7 14.4
536(12) 0.00640 504.5 14.6
535(12) 0.00676 504.2 14.4
524(12) 0.00718 503.9 14.1
532(13) 0.00625 503.7 13.5
483(12) 0.00684 503.4 12.8
498(12) 0.00703 503.1 12.1
502(12) 0.00714 502.8 11.3
487(11) 0.00766 502.6 10.6
523(12) 0.00678 502.3 10.0
502(13) 0.00634 502.0 9.4
491(12) 0.00700 501.8 8.8
535(12) 0.00698 501.5 8.3
548(12) 0.00670 501.2 7.9
511(12) 0.00685 501.0 7.5
520(13) 0.00622 500.7 7.2
507(12) 0.00697 500.4 6.9
510(12) 0.00734 500.1 6.6
484(11) 0.00763 499.9 6.3
502(12) 0.00704 499.6 6.0
524(13) 0.00614 499.3 5.8
498(12) 0.00699 499.1 5.6
523(12) 0.00710 498.8 5.4
486(12) 0.00753 498.5 5.2
489(12) 0.00704 498.3 5.0
494(12) 0.00692 498.0 4.8
531(12) 0.00651 497.7 4.6
518(12) 0.00721 497.4 4.4
520(12) 0.00684 497.2 4.3
515(12) 0.00666 496.9 4.1
503(12) 0.00673 496.6 4.0
499(12) 0.00686 496.4 3.8
502(12) 0.00740 496.1 3.7
500(12) 0.00725 495.8 3.6
462(11) 0.00762 495.5 3.5
527(12) 0.00641 495.3 3.3
499(12) 0.00712 495.0 3.2
499(12) 0.00745 494.7 3.1
463(11) 0.00766 494.5 3.0
473(12) 0.00730 494.2 2.9
506(12) 0.00675 493.9 2.9
509(12) 0.00688 493.7 2.8
510(12) 0.00729 493.4 2.7
471(11) 0.00758 493.1 2.6
509(12) 0.00647 492.8 2.6
489(12) 0.00699 492.6 2.5
540(12) 0.00673 492.3 2.4
469(11) 0.00790 492.0 2.4
507(12) 0.00698 491.8 2.3
503(12) 0.00665 491.5 2.3
497(12) 0.00691 491.2 2.2
471(11) 0.00759 491.0 2.2
507(12) 0.00736 490.7 2.1
483(12) 0.00722 490.4 2.1
460(12) 0.00724 490.1 2.0
495(12) 0.00702 489.9 2.0
479(11) 0.00768 489.6 2.0
458(11) 0.00805 489.3 1.9
492(12) 0.00697 489.1 1.9
508(13) 0.00631 488.8 1.9
489(12) 0.00712 488.5 1.8
482(11) 0.00767 488.2 1.8
531(12) 0.00707 488.0 1.8
509(12) 0.00670 487.7 1.8
468(12) 0.00692 487.4 1.7
494(12) 0.00727 487.2 1.7
501(12) 0.00725 486.9 1.7
451(11) 0.00816 486.6 1.7
470(12) 0.00751 486.4 1.6
522(13) 0.00620 486.1 1.6
479(12) 0.00733 485.8 1.6
483(11) 0.00765 485.5 1.6
485(12) 0.00750 485.3 1.6
506(12) 0.00666 485.0 1.6
479(12) 0.00715 484.7 1.5
474(12) 0.00734 484.5 1.5
454(11) 0.00827 484.2 1.5
482(12) 0.00747 483.9 1.5
447(11) 0.00791 483.7 1.5
477(12) 0.00729 483.4 1.5
496(12) 0.00699 483.1 1.5
482(11) 0.00770 482.8 1.4
454(11) 0.00802 482.6 1.4
488(12) 0.00712 482.3 1.4
476(12) 0.00726 482.0 1.4
502(12) 0.00693 481.8 1.4
516(12) 0.00717 481.5 1.4
462(11) 0.00770 481.2 1.4
497(12) 0.00688 481.0 1.4
478(12) 0.00718 480.7 1.4
504(12) 0.00709 480.4 1.3
524(12) 0.00714 480.1 1.3
515(12) 0.00672 479.9 1.3
495(12) 0.00684 479.6 1.3
449(12) 0.00750 479.3 1.3
445(11) 0.00817 479.1 1.3
499(12) 0.00744 478.8 1.3
502(12) 0.00698 478.5 1.3
459(12) 0.00736 478.2 1.3
477(12) 0.00729 478.0 1.3
496(12) 0.00728 477.7 1.3
475(11) 0.00790 477.4 1.3
464(11) 0.00774 477.2 1.3
478(12) 0.00695 476.9 1.3
454(11) 0.00781 476.6 1.3
490(12) 0.00751 476.4 1.3
462(11) 0.00801 476.1 1.3
452(11) 0.00773 475.8 1.3
509(13) 0.00619 475.5 1.2
459(11) 0.00772 475.3 1.2
470(11) 0.00796 475.1 1.2
479(11) 0.00759 474.9 1.2
453(11) 0.00768 474.7 1.2
462(12) 0.00680 474.5 1.2
455(11) 0.00762 474.3 1.2
491(11) 0.00757 474.1 1.2
470(11) 0.00796 473.9 1.2
485(12) 0.00724 473.7 1.2
468(12) 0.00692 473.5 1.2
480(12) 0.00709 473.3 1.2
490(12) 0.00747 473.1 1.2
477(11) 0.00778 472.9 1.2
477(12) 0.00725 472.7 1.2
491(12) 0.00661 472.5 1.2
481(12) 0.00711 472.3 1.2
455(11) 0.00819 472.1 1.2
480(11) 0.00759 471.9 1.2
502(12) 0.00686 471.7 1.2
465(12) 0.00710 471.4 1.2
469(12) 0.00714 471.2 1.2
467(11) 0.00796 471.0 1.3
475(12) 0.00736 470.8 1.3
474(12) 0.00713 470.6 1.3
503(12) 0.00646 470.4 1.3
451(12) 0.00748 470.2 1.3
455(11) 0.00810 470.0 1.3
485(12) 0.00743 469.8 1.3
455(11) 0.00769 469.6 1.3
477(12) 0.00714 469.4 1.3
514(12) 0.00676 469.2 1.3
434(11) 0.00862 469.0 1.3
477(12) 0.00735 468.8 1.3
470(12) 0.00730 468.6 1.3
467(12) 0.00735 468.4 1.3
468(12) 0.00754 468.2 1.4
454(11) 0.00829 468.0 1.4
475(12) 0.00739 467.8 1.4
456(12) 0.00753 467.6 1.4
492(12) 0.00691 467.4 1.4
491(12) 0.00732 467.2 1.4
457(11) 0.00811 467.0 1.4
473(12) 0.00743 466.8 1.5
463(12) 0.00715 466.6 1.5
454(11) 0.00765 466.4 1.5
441(11) 0.00842 466.2 1.5
478(11) 0.00776 466.0 1.5
491(12) 0.00696 465.8 1.6
446(12) 0.00746 465.6 1.6
465(11) 0.00760 465.4 1.6
463(11) 0.00791 465.2 1.7
469(11) 0.00795 465.0 1.7
453(11) 0.00774 464.8 1.7
450(12) 0.00741 464.6 1.8
485(12) 0.00723 464.4 1.8
466(11) 0.00809 464.2 1.9
446(11) 0.00824 464.0 1.9
467(12) 0.00734 463.8 2.0
449(12) 0.00730 463.6 2.0
444(11) 0.00790 463.4 2.1
479(11) 0.00773 463.2 2.2
449(11) 0.00837 463.0 2.3
471(11) 0.00759 462.8 2.4
464(12) 0.00711 462.6 2.5
465(12) 0.00752 462.4 2.6
437(11) 0.00852 462.2 2.7
439(11) 0.00840 462.0 2.9
460(12) 0.00742 461.8 3.0
430(11) 0.00794 461.5 3.2
457(11) 0.00765 461.3 3.5
461(11) 0.00806 461.1 3.8
454(11) 0.00783 460.9 4.1
460(11) 0.00758 460.7 4.5
488(12) 0.00689 460.5 4.9
491(12) 0.00706 460.3 5.4
460(11) 0.00806 460.1 6.0
463(11) 0.00767 459.9 6.7
466(12) 0.00709 459.7 7.4
470(12) 0.00720 459.5 8.3
450(11) 0.00786 459.3 9.3
472(11) 0.00792 459.1 10.4
483(12) 0.00747 458.9 11.5
500(12) 0.00697 458.7 12.8
522(12) 0.00653 458.5 14.1
480(11) 0.00762 458.3 15.3
473(11) 0.00784 458.1 16.6
484(12) 0.00685 457.9 17.6
479(12) 0.00682 457.7 18.4
471(12) 0.00748 457.5 18.9
477(12) 0.00756 457.3 19.0
452(11) 0.00825 457.1 18.7
472(12) 0.00740 456.9 18.0
465(12) 0.00742 456.7 17.1
476(12) 0.00731 456.5 15.9
470(11) 0.00770 456.3 14.7
473(11) 0.00786 456.1 13.4
468(12) 0.00752 455.9 12.1
485(12) 0.00653 455.7 10.9
482(12) 0.00715 455.5 9.8
451(11) 0.00818 455.3 8.8
459(11) 0.00811 455.1 7.9
447(11) 0.00761 454.9 7.1
448(12) 0.00709 454.7 6.4
446(11) 0.00777 454.5 5.7
489(12) 0.00753 454.3 5.2
488(12) 0.00750 454.1 4.7
442(11) 0.00807 453.9 4.3
485(12) 0.00645 453.7 4.0
483(12) 0.00713 453.5 3.7
460(11) 0.00808 453.3 3.5
454(11) 0.00809 453.1 3.3
436(11) 0.00808 452.9 3.1
441(12) 0.00741 452.7 2.9
467(12) 0.00734 452.5 2.8
439(11) 0.00849 452.3 2.7
466(11) 0.00775 452.1 2.6
477(12) 0.00703 451.9 2.5
441(12) 0.00736 451.7 2.4
447(11) 0.00776 451.4 2.3
453(11) 0.00821 451.2 2.3
426(11) 0.00840 451.0 2.2
432(11) 0.00786 450.8 2.2
461(12) 0.00729 450.6 2.1
466(12) 0.00730 450.4 2.1
470(11) 0.00792 450.2 2.1
411(11) 0.00869 450.0 2.0
436(11) 0.00780 449.8 2.0
449(12) 0.00742 449.6 2.0
446(11) 0.00794 449.4 2.0
443(11) 0.00847 449.2 2.0
453(11) 0.00790 449.0 2.0
483(12) 0.00707 448.8 1.9
465(12) 0.00734 448.6 1.9
440(11) 0.00791 448.4 1.9
422(11) 0.00885 448.2 1.9
433(11) 0.00817 448.0 1.9
459(12) 0.00745 447.8 1.9
480(12) 0.00697 447.6 1.9
456(11) 0.00780 447.4 2.0
432(11) 0.00851 447.2 2.0
458(12) 0.00746 447.0 2.0
455(12) 0.00713 446.8 2.0
463(12) 0.00736 446.6 2.0
428(11) 0.00856 446.4 2.0
443(11) 0.00843 446.2 2.0
439(11) 0.00812 446.0 2.1
436(11) 0.00771 445.8 2.1
437(11) 0.00788 445.6 2.1
451(11) 0.00808 445.4 2.1
479(11) 0.00780 445.2 2.1
470(12) 0.00737 445.0 2.2
441(11) 0.00764 444.8 2.2
462(11) 0.00765 444.6 2.2
444(11) 0.00840 444.4 2.2
439(11) 0.00818 444.2 2.3
468(12) 0.00721 444.0 2.3
438(12) 0.00737 443.8 2.3
428(11) 0.00815 443.6 2.3
446(11) 0.00841 443.4 2.4
463(11) 0.00788 443.2 2.4
455(11) 0.00776 443.0 2.4
428(11) 0.00782 442.8 2.4
465(11) 0.00759 442.6 2.4
437(11) 0.00860 442.4 2.4
477(11) 0.00770 442.2 2.5
437(11) 0.00803 442.0 2.5
447(12) 0.00744 441.8 2.5
465(12) 0.00743 441.6 2.5
481(11) 0.00774 441.3 2.5
448(11) 0.00808 441.1 2.5
463(12) 0.00743 440.9 2.5
437(11) 0.00778 440.7 2.5
455(12) 0.00745 440.5 2.4
426(11) 0.00870 440.3 2.4
425(11) 0.00856 440.1 2.4
479(12) 0.00704 439.9 2.4
451(11) 0.00762 439.7 2.4
470(12) 0.00739 439.5 2.3
436(11) 0.00855 439.3 2.3
455(11) 0.00778 439.1 2.3
444(11) 0.00782 438.9 2.3
442(11) 0.00795 438.7 2.2
444(11) 0.00798 438.5 2.2
437(11) 0.00853 438.3 2.2
442(11) 0.00824 438.1 2.1
452(11) 0.00760 437.9 2.1
456(12) 0.00740 437.7 2.1
439(11) 0.00837 437.5 2.0
452(11) 0.00825 437.3 2.0
438(11) 0.00803 437.1 2.0
444(11) 0.00763 436.9 2.0
431(11) 0.00803 436.7 1.9
430(11) 0.00847 436.5 1.9
438(11) 0.00856 436.3 1.9
438(11) 0.00787 436.1 1.8
433(11) 0.00780 435.9 1.8
418(11) 0.00842 435.7 1.8
435(11) 0.00856 435.5 1.8
435(11) 0.00851 435.3 1.7
422(11) 0.00813 435.1 1.7
434(11) 0.00762 434.9 1.7
447(11) 0.00789 434.7 1.7
443(11) 0.00821 434.5 1.7
442(11) 0.00847 434.3 1.6
430(11) 0.00816 434.1 1.6
426(11) 0.00765 433.9 1.6
441(11) 0.00772 433.7 1.6
428(11) 0.00870 433.5 1.6
462(11) 0.00790 433.3 1.6
452(11) 0.00771 433.1 1.6
440(12) 0.00748 432.9 1.5
448(11) 0.00785 432.7 1.5
448(11) 0.00822 432.5 1.5
421(11) 0.00890 432.3 1.5
430(11) 0.00832 432.1 1.5
453(12) 0.00742 431.9 1.5
448(11) 0.00797 431.7 1.5
424(11) 0.00874 431.5 1.5
451(11) 0.00809 431.2 1.5
428(11) 0.00826 431.0 1.5
424(11) 0.00798 430.8 1.5
420(11) 0.00836 430.6 1.5
424(11) 0.00880 430.4 1.5
431(11) 0.00813 430.2 1.5
448(11) 0.00781 430.0 1.5
420(11) 0.00809 429.8 1.4
418(11) 0.00825 429.6 1.4
431(11) 0.00855 429.4 1.4
428(11) 0.00854 429.2 1.4
446(11) 0.00782 429.0 1.4
441(11) 0.00765 428.8 1.4
437(11) 0.00806 428.6 1.4
433(11) 0.00863 428.4 1.4
443(11) 0.00786 428.2 1.4
441(11) 0.00787 428.0 1.4
409(11) 0.00864 427.9 1.4
431(11) 0.00835 427.8 1.4
398(10) 0.00934 427.7 1.4
429(11) 0.00805 427.6 1.4
413(11) 0.00829 427.5 1.4
433(11) 0.00789 427.4 1.5
438(11) 0.00840 427.2 1.5
441(11) 0.00843 427.1 1.5
437(11) 0.00786 427.0 1.5
414(11) 0.00823 426.9 1.5
440(11) 0.00787 426.8 1.5
422(11) 0.00856 426.7 1.5
448(11) 0.00828 426.6 1.5
436(11) 0.00766 426.4 1.5
438(12) 0.00734 426.3 1.5
406(11) 0.00861 426.2 1.5
424(11) 0.00849 426.1 1.5
416(11) 0.00893 426.0 1.5
411(11) 0.00876 425.9 1.5
415(11) 0.00774 425.8 1.5
417(11) 0.00824 425.7 1.5
423(11) 0.00867 425.5 1.5
424(11) 0.00877 425.4 1.5
420(11) 0.00839 425.3 1.5
426(11) 0.00776 425.2 1.5
410(11) 0.00852 425.1 1.5
420(11) 0.00868 425.0 1.6
442(11) 0.00828 424.9 1.6
456(11) 0.00765 424.8 1.6
415(11) 0.00815 424.6 1.6
414(11) 0.00821 424.5 1.6
383(10) 0.00974 424.4 1.6
398(10) 0.00912 424.3 1.6
396(11) 0.00886 424.2 1.6
422(11) 0.00804 424.1 1.6
431(11) 0.00799 424.0 1.6
421(11) 0.00869 423.8 1.6
435(11) 0.00831 423.7 1.6
448(11) 0.00779 423.6 1.6
435(11) 0.00792 423.5 1.7
412(11) 0.00859 423.4 1.7
439(11) 0.00851 423.3 1.7
399(11) 0.00896 423.2 1.7
425(11) 0.00804 423.1 1.7
435(11) 0.00775 422.9 1.7
446(11) 0.00781 422.8 1.7
464(11) 0.00800 422.7 1.7
399(11) 0.00882 422.6 1.7
410(11) 0.00840 422.5 1.7
419(11) 0.00827 422.4 1.8
427(11) 0.00856 422.3 1.8
424(11) 0.00871 422.2 1.8
454(11) 0.00778 422.0 1.8
439(11) 0.00777 421.9 1.8
424(11) 0.00821 421.8 1.8
446(11) 0.00786 421.7 1.8
436(11) 0.00847 421.6 1.8
436(11) 0.00786 421.5 1.9
409(11) 0.00826 421.4 1.9
406(11) 0.00854 421.2 1.9
409(11) 0.00884 421.1 1.9
412(11) 0.00904 421.0 1.9
432(11) 0.00811 420.9 1.9
418(11) 0.00805 420.8 1.9
420(11) 0.00843 420.7 2.0
430(11) 0.00861 420.6 2.0
401(10) 0.00935 420.5 2.0
440(12) 0.00738 420.3 2.0
418(11) 0.00780 420.2 2.0
439(12) 0.00749 420.1 2.0
432(11) 0.00842 420.0 2.1
467(11) 0.00788 419.9 2.1
413(11) 0.00867 419.8 2.1
424(11) 0.00788 419.7 2.1
425(11) 0.00822 419.5 2.1
421(11) 0.00878 419.4 2.2
436(11) 0.00853 419.3 2.2
428(11) 0.00827 419.2 2.2
440(12) 0.00743 419.1 2.2
433(11) 0.00820 419.0 2.2
415(11) 0.00900 418.9 2.3
423(11) 0.00874 418.8 2.3
405(11) 0.00852 418.6 2.3
444(12) 0.00733 418.5 2.3
427(11) 0.00795 418.4 2.4
397(10) 0.00938 418.3 2.4
403(11) 0.00899 418.2 2.4
431(11) 0.00800 418.1 2.4
429(11) 0.00761 418.0 2.5
422(11) 0.00830 417.9 2.5
414(11) 0.00893 417.7 2.5
421(11) 0.00837 417.6 2.5
444(11) 0.00783 417.5 2.6
432(11) 0.00785 417.4 2.6
441(11) 0.00804 417.3 2.6
445(11) 0.00828 417.2 2.7
408(11) 0.00883 417.1 2.7
408(11) 0.00828 416.9 2.7
435(11) 0.00762 416.8 2.8
430(11) 0.00811 416.7 2.8
411(11) 0.00904 416.6 2.8
431(11) 0.00792 416.5 2.9
390(11) 0.00880 416.4 2.9
433(11) 0.00777 416.3 2.9
418(11) 0.00852 416.2 3.0
427(11) 0.00867 416.0 3.0
419(11) 0.00838 415.9 3.1
415(11) 0.00782 415.8 3.1
437(11) 0.00770 415.7 3.1
414(11) 0.00872 415.6 3.2
410(10) 0.00916 415.5 3.2
418(11) 0.00854 415.4 3.3
382(11) 0.00901 415.3 3.3
399(11) 0.00846 415.1 3.4
412(11) 0.00902 415.0 3.4
428(11) 0.00856 414.9 3.5
444(11) 0.00786 414.8 3.5
399(11) 0.00827 414.7 3.6
413(11) 0.00845 414.6 3.7
448(11) 0.00807 414.5 3.7
449(11) 0.00830 414.3 3.8
403(11) 0.00858 414.2 3.9
414(11) 0.00767 414.1 3.9
430(11) 0.00816 414.0 4.0
423(11) 0.00876 413.9 4.1
413(11) 0.00891 413.8 4.1
405(11) 0.00861 413.7 4.2
423(12) 0.00753 413.6 4.3
400(11) 0.00861 413.4 4.4
373(10) 0.01006 413.3 4.5
401(11) 0.00900 413.2 4.6
400(11) 0.00875 413.1 4.7
390(11) 0.00838 413.0 4.8
397(11) 0.00876 412.9 4.9
409(11) 0.00885 412.8 5.0
420(11) 0.00857 412.7 5.1
418(11) 0.00801 412.5 5.2
419(11) 0.00795 412.4 5.3
423(11) 0.00801 412.3 5.5
430(11) 0.00858 412.2 5.6
421(11) 0.00858 412.1 5.7
420(11) 0.00801 412.0 5.9
409(11) 0.00828 411.9 6.1
409(11) 0.00865 411.7 6.2
433(11) 0.00852 411.6 6.4
446(11) 0.00782 411.5 6.6
418(11) 0.00850 411.4 6.8
428(11) 0.00822 411.3 7.0
445(11) 0.00786 411.2 7.2
422(11) 0.00881 411.1 7.4
420(11) 0.00826 411.0 7.7
426(11) 0.00785 410.8 7.9
395(11) 0.00866 410.7 8.2
403(11) 0.00888 410.6 8.5
425(11) 0.00867 410.5 8.8
419(11) 0.00825 410.4 9.2
427(11) 0.00781 410.3 9.5
421(11) 0.00801 410.2 9.9
408(11) 0.00887 410.1 10.4
420(11) 0.00886 409.9 10.8
405(11) 0.00852 409.8 11.3
413(11) 0.00809 409.7 11.8
435(11) 0.00783 409.6 12.4
439(11) 0.00804 409.5 13.1
399(10) 0.00935 409.4 13.8
446(11) 0.00790 409.3 14.5
436(12) 0.00745 409.1 15.4
449(12) 0.00754 409.0 16.3
421(11) 0.00871 408.9 17.4
427(11) 0.00866 408.8 18.6
435(11) 0.00803 408.7 19.9
420(12) 0.00754 408.6 21.4
411(11) 0.00847 408.5 23.2
407(11) 0.00896 408.4 25.3
379(10) 0.00983 408.2 27.7
469(12) 0.00730 408.1 30.7
428(11) 0.00766 408.0 34.2
445(11) 0.00777 407.9 38.5
449(11) 0.00839 407.8 43.7
491(12) 0.00730 407.7 50.0
468(12) 0.00714 407.6 57.6
465(12) 0.00695 407.4 66.7
477(12) 0.00738 407.3 77.5
520(12) 0.00719 407.2 90.1
523(12) 0.00702 407.1 104.5
562(13) 0.00619 407.0 120.6
574(13) 0.00590 406.9 138.2
572(13) 0.00620 406.8 156.6
588(13) 0.00631 406.7 174.8
628(13) 0.00578 406.5 191.1
686(14) 0.00503 406.4 203.8
664(14) 0.00516 406.3 210.8
668(14) 0.00522 406.2 211.0
644(13) 0.00574 406.1 204.4
618(13) 0.00585 406.0 192.2
587(13) 0.00569 405.9 176.5
579(13) 0.00593 405.8 159.0
571(13) 0.00615 405.6 141.4
567(12) 0.00652 405.5 124.7
518(12) 0.00690 405.4 109.5
517(13) 0.00633 405.3 96.2
505(12) 0.00676 405.2 84.8
499(12) 0.00709 405.1 75.3
501(12) 0.00744 405.0 67.7
489(12) 0.00680 404.8 61.8
486(12) 0.00693 404.7 57.4
485(12) 0.00714 404.6 54.4
472(11) 0.00777 404.5 52.7
479(11) 0.00768 404.4 52.2
467(12) 0.00753 404.3 52.8
451(12) 0.00754 404.2 54.4
482(12) 0.00723 404.1 56.8
468(11) 0.00788 403.9 60.1
481(11) 0.00779 403.8 64.2
486(12) 0.00718 403.7 68.7
485(12) 0.00675 403.6 73.7
489(12) 0.00710 403.5 78.5
522(12) 0.00705 403.4 82.9
505(12) 0.00735 403.3 86.2
474(12) 0.00742 403.2 87.9
519(13) 0.00610 403.0 87.7
511(12) 0.00688 402.9 85.6
481(11) 0.00773 402.8 81.8
479(11) 0.00778 402.7 76.9
464(12) 0.00752 402.6 71.4
472(12) 0.00665 402.5 65.9
464(12) 0.00739 402.4 60.5
418(11) 0.00886 402.2 55.5
447(11) 0.00820 402.1 51.1
456(11) 0.00771 402.0 47.3
430(11) 0.00770 401.9 44.0
452(12) 0.00742 401.8 41.3
416(11) 0.00889 401.7 39.2
413(11) 0.00901 401.6 37.5
412(11) 0.00840 401.5 36.2
453(12) 0.00742 401.3 35.3
440(11) 0.00791 401.2 34.7
425(11) 0.00874 401.1 34.4
422(11) 0.00886 401.0 34.4
448(11) 0.00777 400.9 34.5
409(11) 0.00817 400.8 34.9
432(11) 0.00777 400.7 35.4
436(11) 0.00848 400.6 36.0
369(10) 0.00979 400.4 36.8
438(11) 0.00779 400.3 37.7
438(11) 0.00760 400.2 38.8
440(11) 0.00796 400.1 40.0
457(11) 0.00820 400.0 41.3
439(11) 0.00798 399.9 42.7
433(11) 0.00787 399.8 44.4
444(12) 0.00747 399.6 46.1
430(11) 0.00820 399.5 48.1
416(11) 0.00903 399.4 50.2
439(11) 0.00794 399.3 52.6
461(12) 0.00726 399.2 55.2
455(11) 0.00764 399.1 58.2
430(11) 0.00849 399.0 61.5
490(11) 0.00760 398.9 65.3
465(12) 0.00743 398.7 69.6
462(12) 0.00723 398.6 74.7
471(12) 0.00739 398.5 80.9
479(11) 0.00766 398.4 88.3
498(12) 0.00744 398.3 97.4
476(12) 0.00749 398.2 108.7
516(12) 0.00647 398.1 122.8
515(12) 0.00675 397.9 140.4
546(12) 0.00660 397.8 162.3
559(12) 0.00661 397.7 189.1
585(13) 0.00590 397.6 221.6
643(14) 0.00504 397.5 260.3
671(14) 0.00522 397.4 305.3
668(13) 0.00555 397.3 356.4
786(15) 0.00471 397.2 412.3
826(15) 0.00426 397.0 470.5
889(17) 0.00359 396.9 526.7
951(17) 0.00359 396.8 574.5
973(16) 0.00383 396.7 606.5
989(16) 0.00372 396.6 616.5
953(17) 0.00360 396.5 602.2
876(16) 0.00378 396.4 566.6
886(16) 0.00397 396.3 516.2
804(15) 0.00463 396.1 458.5
765(14) 0.00480 396.0 399.6
701(14) 0.00503 395.9 343.4
667(14) 0.00496 395.8 292.2
637(14) 0.00537 395.7 247.3
609(13) 0.00618 395.6 208.8
570(12) 0.00640 395.5 176.4
567(13) 0.00617 395.3 149.6
563(13) 0.00575 395.2 127.8
516(12) 0.00669 395.1 110.2
534(12) 0.00697 395.0 96.0
486(12) 0.00734 394.9 84.5
486(12) 0.00699 394.8 75.3
463(12) 0.00752 394.7 67.7
481(12) 0.00711 394.6 61.5
448(11) 0.00836 394.4 56.2
472(12) 0.00744 394.3 51.8
439(11) 0.00803 394.2 47.9
443(11) 0.00784 394.1 44.6
443(11) 0.00792 394.0 41.7
454(11) 0.00821 393.9 39.1
425(11) 0.00817 393.8 36.8
444(11) 0.00758 393.7 34.7
419(11) 0.00831 393.5 32.8
443(11) 0.00801 393.4 31.2
448(11) 0.00824 393.3 29.7
397(11) 0.00878 393.2 28.3
436(11) 0.00762 393.1 27.1
392(11) 0.00893 393.0 26.0
426(11) 0.00841 392.9 25.0
406(10) 0.00923 392.7 24.1
417(11) 0.00825 392.6 23.2
412(11) 0.00800 392.5 22.5
422(11) 0.00832 392.4 21.8
408(11) 0.00906 392.3 21.2
434(11) 0.00857 392.2 20.6
447(11) 0.00763 392.1 20.1
386(11) 0.00877 392.0 19.7
391(11) 0.00890 391.8 19.3
411(11) 0.00898 391.7 18.9
438(11) 0.00843 391.6 18.6
395(11) 0.00877 391.5 18.3
414(12) 0.00747 391.4 18.1
419(11) 0.00812 391.3 17.9
394(10) 0.00960 391.2 17.7
407(10) 0.00917 391.1 17.6
385(10) 0.00914 390.9 17.5
397(11) 0.00812 390.8 17.5
394(11) 0.00872 390.7 17.4
420(11) 0.00882 390.6 17.5
407(10) 0.00919 390.5 17.5
392(11) 0.00902 390.4 17.6
397(11) 0.00830 390.3 17.7
409(11) 0.00842 390.1 17.9
407(10) 0.00907 390.0 18.0
412(11) 0.00863 389.9 18.3
423(11) 0.00812 389.8 18.6
423(11) 0.00773 389.7 18.9
419(11) 0.00808 389.6 19.2
410(10) 0.00908 389.5 19.7
404(11) 0.00897 389.4 20.1
427(11) 0.00796 389.2 20.7
402(11) 0.00842 389.1 21.3
391(11) 0.00899 389.0 22.0
406(10) 0.00922 388.9 22.8
425(11) 0.00828 388.8 23.7
413(11) 0.00857 388.7 24.8
434(11) 0.00781 388.6 25.9
434(11) 0.00823 388.5 27.2
442(11) 0.00837 388.3 28.7
433(11) 0.00800 388.2 30.4
421(11) 0.00809 388.1 32.4
444(11) 0.00777 388.0 34.6
435(11) 0.00836 387.9 37.1
429(11) 0.00857 387.8 39.9
443(11) 0.00802 387.7 43.0
464(12) 0.00729 387.5 46.6
444(11) 0.00785 387.4 50.6
475(11) 0.00766 387.3 55.0
459(11) 0.00808 387.2 60.0
475(12) 0.00745 387.1 65.4
488(12) 0.00683 387.0 71.4
499(12) 0.00697 386.9 77.9
503(12) 0.00726 386.8 85.0
491(11) 0.00761 386.6 92.6
511(12) 0.00667 386.5 100.6
518(13) 0.00629 386.4 109.0
498(12) 0.00735 386.3 117.8
508(12) 0.00732 386.2 126.6
532(12) 0.00702 386.1 135.3
535(12) 0.00665 386.0 143.7
542(13) 0.00616 385.8 151.3
544(12) 0.00644 385.7 157.9
558(12) 0.00660 385.6 163.0
574(12) 0.00643 385.5 166.4
651(14) 0.00532 385.4 167.7
613(13) 0.00549 385.3 167.0
600(13) 0.00589 385.2 164.2
576(12) 0.00646 385.1 159.5
572(13) 0.00638 384.9 153.3
539(12) 0.00648 384.8 145.9
574(13) 0.00550 384.7 137.7
516(12) 0.00679 384.6 128.9
507(12) 0.00737 384.5 120.0
494(12) 0.00714 384.4 111.2
485(12) 0.00706 384.3 102.6
462(12) 0.00750 384.2 94.3
450(12) 0.00751 384.0 86.5
458(11) 0.00808 383.9 79.1
424(11) 0.00855 383.8 72.4
458(12) 0.00718 383.7 66.1
442(12) 0.00756 383.6 60.4
419(11) 0.00832 383.5 55.2
425(11) 0.00866 383.4 50.5
453(11) 0.00791 383.2 46.3
417(11) 0.00815 383.1 42.5
425(11) 0.00801 383.0 39.1
427(11) 0.00843 382.9 36.1
408(10) 0.00912 382.8 33.4
405(11) 0.00866 382.7 31.0
395(11) 0.00885 382.6 28.9
415(11) 0.00819 382.5 27.0
393(10) 0.00908 382.3 25.3
387(10) 0.00956 382.2 23.8
423(11) 0.00813 382.1 22.4
401(11) 0.00856 382.0 21.2
409(11) 0.00852 381.9 20.2
395(10) 0.00918 381.8 19.2
387(10) 0.00958 381.7 18.3
407(11) 0.00888 381.6 17.5
434(11) 0.00767 381.4 16.8
402(11) 0.00858 381.3 16.1
375(10) 0.00989 381.2 15.5
409(10) 0.00908 381.1 14.9
374(10) 0.00922 381.0 14.4
386(11) 0.00829 380.9 13.9
405(11) 0.00830 380.8 13.5
396(10) 0.00921 380.6 13.0
416(11) 0.00900 380.5 12.7
377(10) 0.00938 380.4 12.3
373(11) 0.00873 380.3 11.9
380(10) 0.00912 380.2 11.6
378(10) 0.00964 380.1 11.3
371(10) 0.00990 380.0 11.0
386(10) 0.00913 379.9 10.8
376(11) 0.00883 379.7 10.5
382(10) 0.00938 379.6 10.3
413(11) 0.00901 379.5 10.1
373(10) 0.00995 379.4 9.9
388(11) 0.00894 379.3 9.7
387(11) 0.00841 379.2 9.5
385(10) 0.00917 379.1 9.3
355(10) 0.01038 379.0 9.2
422(11) 0.00875 378.8 9.0
411(11) 0.00826 378.7 8.9
385(11) 0.00889 378.6 8.8
389(11) 0.00885 378.5 8.6
373(10) 0.00986 378.4 8.5
359(10) 0.01016 378.3 8.4
372(10) 0.00938 378.2 8.3
386(11) 0.00862 378.0 8.2
398(11) 0.00875 377.9 8.1
371(10) 0.00999 377.8 8.0
379(10) 0.00964 377.7 8.0
407(11) 0.00854 377.6 7.9
377(10) 0.00915 377.5 7.8
399(11) 0.00877 377.4 7.8
395(10) 0.00936 377.3 7.7
378(10) 0.00930 377.1 7.7
358(10) 0.00941 377.0 7.6
371(11) 0.00893 376.9 7.6
360(10) 0.00972 376.8 7.5
392(10) 0.00946 376.7 7.5
417(11) 0.00860 376.6 7.5
396(11) 0.00860 376.5 7.5
399(11) 0.00848 376.4 7.5
373(10) 0.00980 376.3 7.4
370(10) 0.01006 376.1 7.4
378(11) 0.00886 376.0 7.4
378(11) 0.00858 375.9 7.4
390(11) 0.00844 375.8 7.5
397(10) 0.00909 375.7 7.5
366(10) 0.01011 375.6 7.5
340(10) 0.01030 375.5 7.5
393(11) 0.00816 375.4 7.5
358(10) 0.00986 375.3 7.6
393(10) 0.00935 375.2 7.6
395(10) 0.00942 375.0 7.7
408(11) 0.00860 374.9 7.7
382(11) 0.00850 374.8 7.8
381(10) 0.00927 374.7 7.9
384(10) 0.00962 374.6 8.0
381(10) 0.00985 374.5 8.1
376(10) 0.00920 374.4 8.2
377(11) 0.00870 374.3 8.3
356(10) 0.00997 374.2 8.4
399(10) 0.00936 374.0 8.6
392(10) 0.00938 373.9 8.8
398(11) 0.00874 373.8 9.0
380(11) 0.00855 373.7 9.2
362(10) 0.00957 373.6 9.5
377(10) 0.00980 373.5 9.8
379(10) 0.00944 373.4 10.2
381(11) 0.00907 373.3 10.7
383(11) 0.00873 373.2 11.4
383(11) 0.00906 373.1 12.3
381(10) 0.00983 372.9 13.5
392(10) 0.00936 372.8 15.1
389(11) 0.00864 372.7 17.4
390(11) 0.00850 372.6 20.4
400(11) 0.00851 372.5 24.1
395(10) 0.00938 372.4 28.6
406(11) 0.00885 372.3 33.6
397(11) 0.00879 372.2 38.6
427(11) 0.00787 372.1 42.8
425(11) 0.00825 372.0 45.0
415(11) 0.00892 371.8 44.4
415(11) 0.00857 371.7 41.4
426(11) 0.00783 371.6 36.9
396(11) 0.00843 371.5 32.1
401(11) 0.00884 371.4 27.5
404(10) 0.00917 371.3 23.7
399(11) 0.00877 371.2 20.6
393(11) 0.00864 371.1 18.3
387(11) 0.00903 371.0 16.6
385(10) 0.00942 370.9 15.5
392(10) 0.00948 370.7 14.8
381(11) 0.00896 370.6 14.3
391(11) 0.00886 370.5 14.0
383(11) 0.00900 370.4 13.9
366(10) 0.01011 370.3 13.8
386(10) 0.00972 370.2 13.8
385(11) 0.00888 370.1 13.9
360(10) 0.00927 370.0 14.0
372(10) 0.00957 369.9 14.1
392(10) 0.00937 369.7 14.3
382(10) 0.00978 369.6 14.5
374(10) 0.00927 369.5 14.7
362(11) 0.00906 369.4 15.0
379(10) 0.00935 369.3 15.2
400(10) 0.00924 369.2 15.5
415(11) 0.00890 369.1 15.8
344(10) 0.01028 369.0 16.2
388(11) 0.00804 368.9 16.5
385(10) 0.00921 368.8 16.9
377(10) 0.00985 368.6 17.3
367(10) 0.01012 368.5 17.7
359(10) 0.00978 368.4 18.1
391(11) 0.00816 368.3 18.5
369(10) 0.00942 368.2 19.0
371(10) 0.01007 368.1 19.5
413(11) 0.00900 368.0 20.1
380(10) 0.00967 367.9 20.6
390(11) 0.00828 367.8 21.2
372(10) 0.00907 367.7 21.8
365(10) 0.01004 367.5 22.5
376(10) 0.00972 367.4 23.2
393(11) 0.00876 367.3 23.9
393(11) 0.00845 367.2 24.7
391(11) 0.00884 367.1 25.5
385(10) 0.00980 367.0 26.4
405(10) 0.00909 366.9 27.3
395(11) 0.00897 366.8 28.3
416(11) 0.00820 366.7 29.4
398(11) 0.00873 366.5 30.5
412(10) 0.00908 366.4 31.7
381(10) 0.00952 366.3 33.0
382(11) 0.00905 366.2 34.4
394(11) 0.00862 366.1 35.8
392(11) 0.00890 366.0 37.4
407(11) 0.00905 365.9 39.0
395(11) 0.00876 365.8 40.7
392(11) 0.00863 365.7 42.6
427(11) 0.00810 365.6 44.5
417(11) 0.00862 365.4 46.5
433(11) 0.00865 365.3 48.6
415(11) 0.00852 365.2 50.8
434(12) 0.00756 365.1 53.1
441(11) 0.00772 365.0 55.4
398(10) 0.00914 364.9 57.7
432(11) 0.00867 364.8 60.1
434(11) 0.00803 364.7 62.4
433(11) 0.00761 364.6 64.6
450(12) 0.00755 364.5 66.8
462(11) 0.00801 364.3 68.7
470(11) 0.00793 364.2 70.5
485(12) 0.00702 364.1 71.9
463(12) 0.00720 364.0 73.0
429(11) 0.00835 363.9 73.7
461(11) 0.00782 363.8 74.0
426(11) 0.00885 363.7 73.9
420(11) 0.00845 363.6 73.4
447(12) 0.00706 363.5 72.5
426(11) 0.00828 363.3 71.3
453(11) 0.00811 363.2 69.8
481(11) 0.00763 363.1 68.1
440(11) 0.00799 363.0 66.2
417(11) 0.00803 362.9 64.3
399(11) 0.00880 362.8 62.2
415(11) 0.00898 362.7 60.2
424(11) 0.00855 362.6 58.2
389(10) 0.00911 362.5 56.3
431(12) 0.00729 362.4 54.4
404(11) 0.00868 362.2 52.6
442(11) 0.00838 362.1 50.9
415(11) 0.00873 362.0 49.4
428(11) 0.00802 361.9 47.9
413(11) 0.00803 361.8 46.6
400(11) 0.00858 361.7 45.5
384(10) 0.00956 361.6 44.4
408(11) 0.00889 361.5 43.5
399(11) 0.00876 361.4 42.8
401(11) 0.00829 361.3 42.1
400(11) 0.00839 361.1 41.6
392(10) 0.00952 361.0 41.2
398(10) 0.00912 360.9 41.0
401(11) 0.00840 360.8 40.8
400(11) 0.00844 360.7 40.9
391(10) 0.00915 360.6 41.0
404(10) 0.00925 360.5 41.3
401(11) 0.00895 360.4 41.7
400(11) 0.00858 360.3 42.3
425(11) 0.00783 360.1 43.0
392(10) 0.00922 360.0 43.9
440(11) 0.00833 359.9 44.9
402(11) 0.00870 359.8 46.1
393(11) 0.00880 359.7 47.6
432(11) 0.00822 359.6 49.2
434(11) 0.00822 359.5 51.1
415(11) 0.00903 359.4 53.2
424(11) 0.00846 359.3 55.6
441(11) 0.00780 359.2 58.3
406(11) 0.00884 359.0 61.4
431(11) 0.00850 358.9 64.7
388(10) 0.00959 358.8 68.5
438(11) 0.00781 358.7 72.7
424(11) 0.00777 358.6 77.3
433(11) 0.00814 358.5 82.4
415(11) 0.00870 358.4 88.0
415(11) 0.00899 358.3 94.2
448(12) 0.00754 358.2 100.9
430(11) 0.00774 358.1 108.2
464(12) 0.00755 357.9 116.1
504(12) 0.00733 357.8 124.7
508(12) 0.00737 357.7 133.8
514(12) 0.00681 357.6 143.6
494(12) 0.00668 357.5 154.0
523(12) 0.00675 357.4 165.0
546(12) 0.00681 357.3 176.5
507(12) 0.00717 357.2 188.5
538(12) 0.00656 357.1 200.7
603(14) 0.00549 356.9 213.2
565(13) 0.00612 356.8 225.5
606(13) 0.00606 356.7 237.7
601(13) 0.00605 356.6 249.3
635(14) 0.00545 356.5 260.0
644(14) 0.00529 356.4 269.6
635(13) 0.00554 356.3 277.8
639(13) 0.00581 356.2 284.2
600(13) 0.00612 356.1 288.8
582(13) 0.00600 356.0 291.3
606(14) 0.00546 355.8 291.7
571(13) 0.00604 355.7 290.2
601(13) 0.00617 355.6 286.6
601(13) 0.00600 355.5 281.3
570(13) 0.00596 355.4 274.4
577(13) 0.00586 355.3 266.0
550(13) 0.00629 355.2 256.4
497(12) 0.00745 355.1 245.8
529(12) 0.00663 355.0 234.3
534(13) 0.00627 354.9 222.3
535(13) 0.00633 354.7 209.9
519(12) 0.00692 354.6 197.3
518(12) 0.00711 354.5 184.7
519(12) 0.00668 354.4 172.4
482(12) 0.00694 354.3 160.5
470(12) 0.00720 354.2 149.0
482(11) 0.00757 354.1 138.1
456(11) 0.00809 354.0 127.9
447(11) 0.00758 353.9 118.2
446(12) 0.00744 353.7 109.3
409(11) 0.00857 353.6 101.0
458(11) 0.00799 353.5 93.4
463(11) 0.00800 353.4 86.4
454(11) 0.00782 353.3 79.9
392(11) 0.00901 353.2 74.1
427(11) 0.00835 353.1 68.8
480(11) 0.00772 353.0 63.9
419(11) 0.00885 352.9 59.6
387(10) 0.00908 352.8 55.6
424(11) 0.00765 352.6 52.0
419(11) 0.00821 352.5 48.8
414(11) 0.00881 352.4 45.8
420(11) 0.00883 352.3 43.2
395(11) 0.00881 352.2 40.8
390(11) 0.00801 352.1 38.6
369(10) 0.00953 352.0 36.6
391(10) 0.00939 351.9 34.8
379(10) 0.00981 351.8 33.1
371(10) 0.00937 351.7 31.6
381(11) 0.00849 351.5 30.2
399(11) 0.00884 351.4 29.0
400(10) 0.00938 351.3 27.8
362(10) 0.01004 351.2 26.7
382(10) 0.00918 351.1 25.7
389(11) 0.00827 351.0 24.7
387(11) 0.00868 350.9 23.8
407(10) 0.00911 350.8 23.0
370(10) 0.00968 350.7 22.2
372(10) 0.00943 350.5 21.5
379(11) 0.00875 350.4 20.8
376(11) 0.00894 350.3 20.2
356(10) 0.01048 350.2 19.6
364(10) 0.00961 350.1 19.0
362(10) 0.00963 350.0 18.5
365(10) 0.00939 349.9 18.0
351(10) 0.00963 349.8 17.5
355(10) 0.01053 349.7 17.1
338(10) 0.01067 349.6 16.6
370(10) 0.00950 349.4 16.2
365(10) 0.00921 349.3 15.9
357(10) 0.00989 349.2 15.5
360(10) 0.01040 349.1 15.2
362(10) 0.00949 349.0 14.9
359(10) 0.00940 348.9 14.6
347(10) 0.01015 348.8 14.4
354(10) 0.01015 348.7 14.1
342(10) 0.01076 348.6 13.9
338(10) 0.01054 348.5 13.7
357(10) 0.00919 348.3 13.6
363(10) 0.00942 348.2 13.4
339(10) 0.01091 348.1 13.3
366(10) 0.01012 348.0 13.2
361(10) 0.00972 347.9 13.1
337(10) 0.01002 347.8 13.0
348(10) 0.00996 347.7 13.0
351(10) 0.01059 347.6 13.0
363(10) 0.01025 347.5 13.0
367(10) 0.00977 347.3 13.0
383(11) 0.00821 347.2 13.1
325(10) 0.01100 347.1 13.1
336(10) 0.01099 347.0 13.2
339(10) 0.01075 346.9 13.4
331(10) 0.01065 346.8 13.5
374(11) 0.00852 346.7 13.7
377(11) 0.00894 346.6 13.9
373(10) 0.00982 346.5 14.1
357(10) 0.01029 346.4 14.3
380(11) 0.00904 346.2 14.6
353(10) 0.00943 346.1 14.9
350(10) 0.00988 346.0 15.2
330(9) 0.01118 345.9 15.5
345(10) 0.01069 345.8 15.8
357(10) 0.00988 345.7 16.1
343(10) 0.00977 345.6 16.4
327(10) 0.01067 345.5 16.8
341(10) 0.01089 345.4 17.1
324(9) 0.01127 345.3 17.3
322(10) 0.01054 345.1 17.6
335(10) 0.00992 345.0 17.7
373(10) 0.00935 344.9 17.9
386(10) 0.00970 344.8 18.0
342(10) 0.01057 344.7 18.0
320(10) 0.01082 344.6 17.9
340(10) 0.00993 344.5 17.8
355(10) 0.00955 344.4 17.6
371(10) 0.01000 344.3 17.3
328(10) 0.01089 344.2 17.0
330(10) 0.01046 344.0 16.7
327(10) 0.01083 343.9 16.3
346(10) 0.01028 343.8 15.8
329(9) 0.01136 343.7 15.3
328(10) 0.01062 343.6 14.9
345(10) 0.00953 343.5 14.4
344(10) 0.00959 343.4 13.9
361(10) 0.00960 343.3 13.4
346(10) 0.01075 343.2 12.9
350(10) 0.00988 343.0 12.4
346(10) 0.01020 342.9 12.0
352(10) 0.01023 342.8 11.5
367(10) 0.00987 342.7 11.1
333(9) 0.01127 342.6 10.7
320(10) 0.01048 342.5 10.3
325(10) 0.01003 342.4 9.9
327(10) 0.01043 342.3 9.6
330(10) 0.01075 342.2 9.3
337(9) 0.01112 342.1 9.0
332(10) 0.01030 341.9 8.7
345(10) 0.00927 341.8 8.4
350(10) 0.00987 341.7 8.2
354(10) 0.01031 341.6 7.9
337(10) 0.01102 341.5 7.7
332(10) 0.01038 341.4 7.5
327(10) 0.00974 341.3 7.3
330(10) 0.01038 341.2 7.2
315(9) 0.01177 341.1 7.0
341(10) 0.01078 341.0 6.9
350(10) 0.00992 340.8 6.7
323(10) 0.00958 340.7 6.6
331(10) 0.01026 340.6 6.5
351(10) 0.01057 340.5 6.4
342(10) 0.01072 340.4 6.3
358(10) 0.00971 340.3 6.2
341(10) 0.00989 340.2 6.2
352(10) 0.00992 340.1 6.1
355(10) 0.01050 340.0 6.0
345(10) 0.01036 339.8 6.0
373(11) 0.00880 339.7 5.9
341(10) 0.00938 339.6 5.9
342(10) 0.00972 339.5 5.8
320(9) 0.01165 339.4 5.8
340(10) 0.01048 339.3 5.8
354(10) 0.00967 339.2 5.8
321(10) 0.01041 339.1 5.7
328(10) 0.01072 339.0 5.7
348(10) 0.01060 338.9 5.7
320(9) 0.01147 338.7 5.7
317(9) 0.01131 338.6 5.7
332(10) 0.01014 338.5 5.7
345(10) 0.01018 338.4 5.7
339(10) 0.01084 338.3 5.7
334(10) 0.01035 338.2 5.8
319(10) 0.01053 338.1 5.8
347(10) 0.00961 338.0 5.8
337(10) 0.01054 337.9 5.9
339(10) 0.01084 337.8 5.9
329(10) 0.01025 337.7 5.9
326(10) 0.01002 337.6 6.0
335(10) 0.01049 337.5 6.1
332(10) 0.01105 337.4 6.1
320(9) 0.01146 337.3 6.2
340(10) 0.01024 337.2 6.3
332(10) 0.01025 337.1 6.4
344(10) 0.01013 337.0 6.5
334(9) 0.01119 336.9 6.6
343(10) 0.01062 336.8 6.7
364(11) 0.00893 336.7 6.9
338(10) 0.00960 336.6 7.0
325(10) 0.01103 336.6 7.2
355(10) 0.01015 336.5 7.3
375(10) 0.00986 336.4 7.5
366(10) 0.00952 336.3 7.7
330(10) 0.00977 336.2 7.9
350(10) 0.00992 336.1 8.2
352(10) 0.01029 336.0 8.4
313(9) 0.01175 335.9 8.7
357(10) 0.00941 335.8 9.0
364(11) 0.00867 335.7 9.3
359(10) 0.00980 335.6 9.6
376(10) 0.00974 335.5 9.9
340(10) 0.01089 335.4 10.3
353(10) 0.00948 335.3 10.7
373(11) 0.00865 335.2 11.1
302(9) 0.01167 335.1 11.6
338(10) 0.01104 335.1 12.0
343(10) 0.01057 335.0 12.5
331(10) 0.00990 334.9 13.0
315(10) 0.01044 334.8 13.6
353(10) 0.00988 334.7 14.1
329(9) 0.01122 334.6 14.7
336(10) 0.01093 334.5 15.3
353(10) 0.00983 334.4 16.0
352(10) 0.00965 334.3 16.6
315(9) 0.01117 334.2 17.3
341(10) 0.01084 334.1 18.0
354(10) 0.01026 334.0 18.7
359(10) 0.00927 333.9 19.4
333(10) 0.01036 333.8 20.1
330(10) 0.01100 333.7 20.8
338(9) 0.01111 333.6 21.5
359(10) 0.00971 333.6 22.2
354(10) 0.00971 333.5 22.8
336(10) 0.01051 333.4 23.5
369(10) 0.00944 333.3 24.0
331(9) 0.01127 333.2 24.6
351(10) 0.00992 333.1 25.1
354(10) 0.00947 333.0 25.5
369(10) 0.00946 332.9 25.8
362(10) 0.00984 332.8 26.1
346(10) 0.01075 332.7 26.3
361(10) 0.00963 332.6 26.3
333(10) 0.01028 332.5 26.3
336(10) 0.01040 332.4 26.2
364(10) 0.01015 332.3 26.0
338(9) 0.01109 332.2 25.7
329(10) 0.01068 332.1 25.4
335(10) 0.00964 332.1 24.9
340(10) 0.01052 332.0 24.4
344(10) 0.01078 331.9 23.9
339(10) 0.01079 331.8 23.3
320(10) 0.01048 331.7 22.6
350(10) 0.00938 331.6 21.9
371(10) 0.00925 331.5 21.2
345(10) 0.01076 331.4 20.5
351(10) 0.01036 331.3 19.8
318(10) 0.01070 331.2 19.1
325(10) 0.00976 331.1 18.4
341(10) 0.00997 331.0 17.7
359(10) 0.01023 330.9 17.1
366(10) 0.01000 330.8 16.4
362(10) 0.00980 330.7 15.7
333(10) 0.01007 330.6 15.1
315(9) 0.01138 330.6 14.5
338(10) 0.01095 330.5 13.9
337(10) 0.01095 330.4 13.4
319(10) 0.01060 330.3 12.9
319(10) 0.01006 330.2 12.4
322(10) 0.01069 330.1 11.9
347(10) 0.01064 330.0 11.4
341(10) 0.01064 329.9 11.0
321(10) 0.01093 329.8 10.6
344(10) 0.00964 329.7 10.2
328(10) 0.01075 329.6 9.9
321(9) 0.01153 329.5 9.5
335(10) 0.01084 329.4 9.2
337(10) 0.00984 329.3 8.9
326(10) 0.01028 329.2 8.6
329(10) 0.01031 329.1 8.4
322(9) 0.01154 329.1 8.2
306(9) 0.01173 329.0 7.9
325(10) 0.01066 328.9 7.7
316(9) 0.01128 328.8 7.6
363(10) 0.00953 328.7 7.4
332(9) 0.01128 328.6 7.2
326(10) 0.01024 328.5 7.1
315(10) 0.01093 328.4 7.0
326(10) 0.01029 328.3 6.9
336(10) 0.01078 328.2 6.8
361(10) 0.01036 328.1 6.7
328(10) 0.01074 328.0 6.6
308(10) 0.01102 327.9 6.5
309(9) 0.01123 327.8 6.5
318(9) 0.01157 327.7 6.4
320(9) 0.01161 327.6 6.4
299(9) 0.01158 327.6 6.3
346(10) 0.00959 327.5 6.3
350(10) 0.00999 327.4 6.3
335(9) 0.01108 327.3 6.3
335(10) 0.01101 327.2 6.2
322(10) 0.01072 327.1 6.2
313(10) 0.01021 327.0 6.2
328(10) 0.01064 326.9 6.2
362(10) 0.01025 326.8 6.3
342(10) 0.01083 326.7 6.3
328(10) 0.01089 326.6 6.3
322(10) 0.01023 326.5 6.3
345(10) 0.00957 326.4 6.3
336(9) 0.01114 326.3 6.4
327(9) 0.01149 326.2 6.4
347(10) 0.00980 326.1 6.4
321(10) 0.01019 326.1 6.5
336(10) 0.01044 326.0 6.5
341(10) 0.01097 325.9 6.5
344(10) 0.01036 325.8 6.6
353(10) 0.00998 325.7 6.6
334(10) 0.01014 325.6 6.7
369(11) 0.00900 325.5 6.7
348(10) 0.01086 325.4 6.7
328(10) 0.01095 325.3 6.8
321(10) 0.01025 325.2 6.8
310(10) 0.01049 325.1 6.9
331(10) 0.01008 325.0 6.9
318(9) 0.01172 324.9 6.9
336(10) 0.01082 324.8 6.9
321(10) 0.01103 324.7 7.0
353(10) 0.00953 324.6 7.0
346(10) 0.01007 324.6 7.0
318(9) 0.01173 324.5 7.0
327(10) 0.01056 324.4 7.0
308(9) 0.01124 324.3 7.0
327(10) 0.01044 324.2 7.0
351(10) 0.00994 324.1 7.0
340(10) 0.01095 324.0 7.0
317(10) 0.01102 323.9 7.0
332(10) 0.01027 323.8 6.9
348(10) 0.00971 323.7 6.9
332(10) 0.01083 323.6 6.9
301(9) 0.01247 323.5 6.8
326(10) 0.01096 323.4 6.8
359(10) 0.00923 323.3 6.7
336(10) 0.01037 323.2 6.7
335(10) 0.01085 323.1 6.6
322(9) 0.01151 323.1 6.5
320(10) 0.01091 323.0 6.4
356(11) 0.00895 322.9 6.4
312(9) 0.01162 322.8 6.3
340(10) 0.01051 322.7 6.2
310(9) 0.01206 322.6 6.1
315(10) 0.01105 322.5 6.0
303(10) 0.01100 322.4 5.9
328(10) 0.01069 322.3 5.8
322(9) 0.01149 322.2 5.7
333(10) 0.01102 322.1 5.7
311(9) 0.01117 322.0 5.6
304(10) 0.01084 321.9 5.5
328(10) 0.01081 321.8 5.4
330(10) 0.01097 321.7 5.3
322(9) 0.01157 321.6 5.2
321(10) 0.01045 321.6 5.1
304(10) 0.01077 321.5 5.0
339(10) 0.01011 321.4 4.9
317(9) 0.01174 321.3 4.8
326(9) 0.01113 321.2 4.7
301(9) 0.01139 321.1 4.6
317(10) 0.01009 321.0 4.5
321(10) 0.01072 320.9 4.4
323(9) 0.01150 320.8 4.4
304(9) 0.01208 320.7 4.3
309(9) 0.01117 320.6 4.2
308(10) 0.01095 320.5 4.1
338(10) 0.01041 320.4 4.0
349(10) 0.01067 320.3 4.0
322(9) 0.01142 320.2 3.9
330(10) 0.01033 320.1 3.8
301(9) 0.01130 320.0 3.7
320(10) 0.01048 320.0 3.7
305(9) 0.01218 319.9 3.6
333(10) 0.01035 319.8 3.5
310(9) 0.01139 319.7 3.5
325(10) 0.01034 319.6 3.4
294(9) 0.01233 319.5 3.4
335(9) 0.01115 319.4 3.3
319(9) 0.01137 319.3 3.3
322(10) 0.01083 319.2 3.2
324(10) 0.01067 319.1 3.1
302(9) 0.01174 319.0 3.1
335(9) 0.01109 318.9 3.0
346(10) 0.01010 318.8 3.0
335(10) 0.00979 318.7 3.0
347(10) 0.00972 318.6 2.9
337(10) 0.01062 318.5 2.9
333(9) 0.01113 318.5 2.8
314(9) 0.01143 318.4 2.8
323(10) 0.01004 318.3 2.8
298(9) 0.01181 318.2 2.7
324(9) 0.01139 318.1 2.7
326(9) 0.01144 318.0 2.7
357(10) 0.00984 317.9 2.6
336(10) 0.00974 317.8 2.6
323(10) 0.01053 317.7 2.6
322(9) 0.01143 317.6 2.5
309(9) 0.01195 317.5 2.5
311(9) 0.01146 317.4 2.5
310(10) 0.01079 317.3 2.5
316(9) 0.01119 317.2 2.4
307(9) 0.01202 317.1 2.4
314(9) 0.01180 317.0 2.4
327(10) 0.01067 317.0 2.4
315(10) 0.01035 316.9 2.4
298(9) 0.01209 316.8 2.3
321(9) 0.01153 316.7 2.3
327(9) 0.01135 316.6 2.3
307(9) 0.01175 316.5 2.3
335(10) 0.00970 316.4 2.3
337(10) 0.01003 316.3 2.3
290(9) 0.01289 316.2 2.2
303(9) 0.01244 316.1 2.2
335(10) 0.01055 316.0 2.2
305(10) 0.01082 315.9 2.2
305(9) 0.01124 315.8 2.2
327(9) 0.01132 315.7 2.2
316(9) 0.01177 315.6 2.2
306(9) 0.01157 315.5 2.2
344(10) 0.00939 315.5 2.2
312(10) 0.01069 315.4 2.2
298(9) 0.01235 315.3 2.2
330(10) 0.01076 315.2 2.2
327(10) 0.01078 315.1 2.2
322(10) 0.01092 315.1 2.2
312(9) 0.01113 315.1 2.2
283(9) 0.01311 315.0 2.2
302(9) 0.01156 315.0 2.2
337(10) 0.00988 314.9 2.2
322(10) 0.01055 314.9 2.2
320(10) 0.01094 314.8 2.2
311(9) 0.01182 314.8 2.2
292(9) 0.01218 314.8 2.2
307(10) 0.01056 314.7 2.2
308(9) 0.01130 314.7 2.2
310(9) 0.01150 314.6 2.2
321(9) 0.01143 314.6 2.2
290(9) 0.01196 314.6 2.3
315(10) 0.01069 314.5 2.3
289(9) 0.01216 314.5 2.3
312(9) 0.01151 314.4 2.3
316(9) 0.01171 314.4 2.3
333(10) 0.01014 314.3 2.3
325(10) 0.01001 314.3 2.4
349(10) 0.00961 314.3 2.4
329(9) 0.01120 314.2 2.4
291(9) 0.01281 314.2 2.5
314(10) 0.01080 314.1 2.5
300(10) 0.01073 314.1 2.5
319(10) 0.01038 314.1 2.6
328(9) 0.01115 314.0 2.6
310(9) 0.01209 314.0 2.7
312(9) 0.01110 313.9 2.8
345(10) 0.00925 313.9 2.8
317(10) 0.01089 313.8 2.9
303(9) 0.01203 313.8 3.0
310(9) 0.01187 313.8 3.1
330(10) 0.01024 313.7 3.2
327(10) 0.00940 313.7 3.3
326(10) 0.01084 313.6 3.5
308(9) 0.01206 313.6 3.6
304(9) 0.01217 313.5 3.8
307(9) 0.01135 313.5 4.1
329(10) 0.00976 313.5 4.4
320(10) 0.01090 313.4 4.7
320(9) 0.01148 313.4 5.1
328(10) 0.01098 313.3 5.5
320(9) 0.01114 313.3 6.1
301(9) 0.01184 313.3 6.7
323(10) 0.01097 313.2 7.5
326(9) 0.01137 313.2 8.4
301(9) 0.01206 313.1 9.3
312(10) 0.01089 313.1 10.4
317(10) 0.01018 313.0 11.7
317(10) 0.01097 313.0 13.0
291(9) 0.01271 313.0 14.3
302(9) 0.01173 312.9 15.7
316(10) 0.01083 312.9 17.0
320(10) 0.01046 312.8 18.1
332(10) 0.01065 312.8 18.8
299(9) 0.01243 312.8 19.2
335(10) 0.01060 312.7 19.1
337(10) 0.00999 312.7 18.6
337(10) 0.00992 312.6 17.7
286(9) 0.01261 312.6 16.6
324(9) 0.01153 312.5 15.3
308(9) 0.01134 312.5 14.0
313(10) 0.01077 312.5 12.6
313(9) 0.01133 312.4 11.4
312(9) 0.01181 312.4 10.3
314(9) 0.01198 312.3 9.2
315(9) 0.01113 312.3 8.3
319(10) 0.01006 312.3 7.5
302(9) 0.01190 312.2 6.9
292(9) 0.01278 312.2 6.3
303(9) 0.01234 312.1 5.8
324(10) 0.01023 312.1 5.4
335(10) 0.01020 312.0 5.1
312(9) 0.01153 312.0 4.8
318(9) 0.01174 312.0 4.6
305(9) 0.01219 311.9 4.4
318(9) 0.01113 311.9 4.3
315(10) 0.01007 311.8 4.2
282(9) 0.01213 311.8 4.1
299(9) 0.01238 311.7 4.0
290(9) 0.01284 311.7 3.9
315(10) 0.01080 311.7 3.9
329(10) 0.01011 311.6 3.9
328(10) 0.01068 311.6 3.9
291(9) 0.01285 311.5 3.8
299(9) 0.01216 311.5 3.9
310(9) 0.01135 311.5 3.9
314(10) 0.01063 311.4 3.9
324(10) 0.01096 311.4 3.9
317(9) 0.01162 311.3 4.0
315(9) 0.01192 311.3 4.1
314(10) 0.01097 311.2 4.1
306(10) 0.01064 311.2 4.2
319(10) 0.01087 311.2 4.3
324(9) 0.01151 311.1 4.4
328(10) 0.01099 311.1 4.6
300(9) 0.01202 311.0 4.7
315(10) 0.01065 311.0 4.9
300(9) 0.01157 311.0 5.1
314(9) 0.01198 310.9 5.3
330(10) 0.01047 310.9 5.5
294(10) 0.01098 310.8 5.8
304(10) 0.01089 310.8 6.0
303(9) 0.01176 310.7 6.3
298(9) 0.01260 310.7 6.5
309(9) 0.01152 310.7 6.7
313(9) 0.01114 310.6 7.0
308(9) 0.01154 310.6 7.1
334(10) 0.01069 310.5 7.2
304(9) 0.01216 310.5 7.3
306(9) 0.01146 310.4 7.3
311(10) 0.01099 310.4 7.2
295(9) 0.01182 310.4 7.1
301(9) 0.01194 310.3 6.9
308(9) 0.01199 310.3 6.7
325(10) 0.01035 310.2 6.4
298(9) 0.01156 310.2 6.2
290(9) 0.01253 310.2 5.9
328(9) 0.01110 310.1 5.7
308(9) 0.01207 310.1 5.5
288(9) 0.01170 310.0 5.3
310(10) 0.01044 310.0 5.1
305(9) 0.01164 309.9 4.9
311(9) 0.01180 309.9 4.7
303(9) 0.01227 309.9 4.6
301(9) 0.01160 309.8 4.5
298(10) 0.01064 309.8 4.4
295(9) 0.01190 309.7 4.3
300(9) 0.01233 309.7 4.3
332(9) 0.01116 309.7 4.2
302(9) 0.01147 309.6 4.2
275(9) 0.01164 309.6 4.2
315(10) 0.01087 309.5 4.1
309(9) 0.01193 309.5 4.1
298(9) 0.01232 309.4 4.1
292(9) 0.01172 309.3 4.1
307(10) 0.01057 309.3 4.2
319(9) 0.01112 309.2 4.2
320(9) 0.01151 309.2 4.2
328(9) 0.01130 309.1 4.3
303(9) 0.01155 309.0 4.3
295(9) 0.01134 309.0 4.4
319(10) 0.01044 308.9 4.4
330(9) 0.01136 308.9 4.5
310(9) 0.01165 308.8 4.5
324(10) 0.01079 308.7 4.6
312(10) 0.01079 308.7 4.7
288(9) 0.01168 308.6 4.7
296(9) 0.01249 308.6 4.8
289(9) 0.01265 308.5 4.9
319(10) 0.01064 308.4 5.0
301(9) 0.01132 308.4 5.1
333(10) 0.01025 308.3 5.2
304(9) 0.01236 308.3 5.3
310(9) 0.01123 308.2 5.4
310(10) 0.01081 308.1 5.5
306(9) 0.01143 308.1 5.6
301(9) 0.01210 308.0 5.8
316(9) 0.01180 308.0 5.9
321(10) 0.01084 307.9 6.0
308(9) 0.01118 307.8 6.2
298(9) 0.01144 307.8 6.3
272(9) 0.01347 307.7 6.4
285(9) 0.01293 307.7 6.6
328(10) 0.01048 307.6 6.7
320(10) 0.01065 307.5 6.9
311(9) 0.01114 307.5 7.0
298(9) 0.01230 307.4 7.2
309(9) 0.01197 307.4 7.3
283(9) 0.01238 307.3 7.5
325(10) 0.00983 307.2 7.6
319(10) 0.01100 307.2 7.8
319(9) 0.01146 307.1 8.0
302(9) 0.01232 307.1 8.1
276(9) 0.01321 307.0 8.3
320(10) 0.01026 306.9 8.4
324(10) 0.01083 306.9 8.6
302(9) 0.01231 306.8 8.7
323(9) 0.01143 306.8 8.9
339(10) 0.01012 306.7 9.0
291(9) 0.01141 306.6 9.1
318(10) 0.01078 306.6 9.3
314(9) 0.01209 306.5 9.4
305(9) 0.01187 306.5 9.5
310(9) 0.01110 306.4 9.6
330(10) 0.00970 306.3 9.7
328(10) 0.01042 306.3 9.8
313(9) 0.01192 306.2 9.9
311(9) 0.01183 306.2 10.0
287(9) 0.01249 306.1 10.0
313(10) 0.01060 306.0 10.1
304(9) 0.01178 306.0 10.2
298(9) 0.01252 305.9 10.2
292(9) 0.01224 305.8 10.3
290(9) 0.01221 305.8 10.3
317(10) 0.01049 305.7 10.3
296(9) 0.01216 305.7 10.4
318(9) 0.01158 305.6 10.4
299(9) 0.01199 305.5 10.5
327(10) 0.01031 305.5 10.5
308(9) 0.01135 305.4 10.5
319(10) 0.01101 305.4 10.6
335(10) 0.01108 305.3 10.6
316(10) 0.01096 305.2 10.7
300(9) 0.01127 305.2 10.7
309(10) 0.01059 305.1 10.8
290(9) 0.01217 305.1 10.8
327(9) 0.01143 305.0 10.9
310(9) 0.01124 304.9 11.0
302(9) 0.01146 304.9 11.1
306(9) 0.01112 304.8 11.2
320(9) 0.01126 304.8 11.4
319(9) 0.01175 304.7 11.5
307(9) 0.01134 304.6 11.6
326(10) 0.01035 304.6 11.8
324(10) 0.01108 304.5 12.0
326(9) 0.01123 304.5 12.2
305(9) 0.01205 304.4 12.4
312(10) 0.01100 304.3 12.6
317(10) 0.01039 304.3 12.8
312(9) 0.01129 304.2 13.1
304(9) 0.01200 304.2 13.3
341(10) 0.01091 304.1 13.6
340(10) 0.01032 304.0 13.9
305(10) 0.01099 304.0 14.2
308(9) 0.01158 303.9 14.5
324(9) 0.01131 303.9 14.8
312(9) 0.01185 303.8 15.1
330(10) 0.01067 303.7 15.4
337(10) 0.00974 303.7 15.6
293(9) 0.01243 303.6 15.9
314(9) 0.01192 303.6 16.2
351(10) 0.01049 303.5 16.4
321(10) 0.01100 303.4 16.7
342(10) 0.00993 303.4 16.9
343(10) 0.01046 303.3 17.0
342(10) 0.01086 303.3 17.2
326(9) 0.01135 303.2 17.3
304(9) 0.01235 303.1 17.3
340(10) 0.00949 303.1 17.3
332(10) 0.01053 303.0 17.3
334(9) 0.01113 303.0 17.2
333(10) 0.01092 302.9 17.1
309(9) 0.01139 302.8 16.9
339(10) 0.00986 302.8 16.7
338(10) 0.00999 302.7 16.5
338(10) 0.01103 302.7 16.2
322(9) 0.01119 302.6 15.9
360(10) 0.00929 302.5 15.6
329(10) 0.01015 302.5 15.2
328(10) 0.01052 302.4 14.9
307(9) 0.01203 302.3 14.5
314(9) 0.01137 302.3 14.1
343(10) 0.00962 302.2 13.7
310(9) 0.01132 302.2 13.3
325(10) 0.01095 302.1 12.9
324(9) 0.01143 302.0 12.5
294(9) 0.01233 302.0 12.1
320(10) 0.01061 301.9 11.8
320(10) 0.01050 301.9 11.4
296(9) 0.01201 301.8 11.0
310(9) 0.01202 301.7 10.7
307(9) 0.01142 301.7 10.4
317(10) 0.01082 301.6 10.0
300(9) 0.01147 301.6 9.7
300(9) 0.01181 301.5 9.5
285(9) 0.01284 301.4 9.2
289(9) 0.01220 301.4 8.9
323(10) 0.00980 301.3 8.7
320(10) 0.01039 301.3 8.4
322(10) 0.01096 301.2 8.2
345(10) 0.01083 301.1 8.0
335(10) 0.01021 301.1 7.8
320(10) 0.01048 301.0 7.6
308(9) 0.01125 301.0 7.5
322(9) 0.01139 300.9 7.3
304(9) 0.01202 300.8 7.2
279(9) 0.01235 300.8 7.0
294(9) 0.01138 300.7 6.9
308(9) 0.01129 300.7 6.8
297(9) 0.01245 300.6 6.7
302(9) 0.01236 300.5 6.6
317(9) 0.01133 300.5 6.5
307(10) 0.01044 300.4 6.4
307(9) 0.01130 300.4 6.3
303(9) 0.01232 300.3 6.2
301(9) 0.01231 300.2 6.1
282(9) 0.01293 300.2 6.1
286(9) 0.01173 300.1 6.0
299(9) 0.01153 300.1 5.9
289(9) 0.01300 300.0 5.8
304(9) 0.01225 299.9 5.8
299(9) 0.01184 299.9 5.7
303(10) 0.01057 299.8 5.6
320(10) 0.01078 299.8 5.5
304(9) 0.01235 299.7 5.4
285(9) 0.01271 299.6 5.4
281(9) 0.01269 299.6 5.3
306(10) 0.01103 299.5 5.2
290(9) 0.01192 299.5 5.1
287(9) 0.01302 299.4 5.0
298(9) 0.01176 299.3 4.9
301(10) 0.01106 299.3 4.8
291(9) 0.01164 299.2 4.7
312(10) 0.01107 299.2 4.6
298(9) 0.01241 299.1 4.5
302(9) 0.01111 299.0 4.5
298(9) 0.01137 299.0 4.4
307(9) 0.01132 298.9 4.3
306(9) 0.01130 298.8 4.2
308(9) 0.01195 298.8 4.1
293(9) 0.01204 298.7 4.0
291(9) 0.01192 298.7 3.9
294(9) 0.01185 298.6 3.9
293(9) 0.01206 298.5 3.8
288(9) 0.01298 298.5 3.7
302(9) 0.01130 298.4 3.6
288(9) 0.01144 298.4 3.5
292(9) 0.01179 298.3 3.5
299(9) 0.01238 298.2 3.4
301(9) 0.01231 298.2 3.3
293(9) 0.01206 298.1 3.3
284(9) 0.01191 298.1 3.2
290(9) 0.01219 298.0 3.1
291(9) 0.01303 297.9 3.1
314(9) 0.01172 297.9 3.0
308(9) 0.01155 297.8 3.0
301(10) 0.01090 297.8 2.9
270(9) 0.01310 297.7 2.9
265(8) 0.01397 297.6 2.8
273(9) 0.01352 297.6 2.8
314(9) 0.01124 297.5 2.7
288(9) 0.01171 297.5 2.7
298(9) 0.01142 297.4 2.6
279(9) 0.01326 297.3 2.6
287(9) 0.01301 297.3 2.6
291(9) 0.01199 297.2 2.5
283(9) 0.01139 297.2 2.5
281(9) 0.01246 297.1 2.4
291(9) 0.01282 297.0 2.4
302(9) 0.01198 297.0 2.4
302(9) 0.01185 296.9 2.4
278(9) 0.01231 296.9 2.3
278(9) 0.01253 296.8 2.3
312(9) 0.01183 296.7 2.3
300(9) 0.01243 296.7 2.3
298(9) 0.01175 296.6 2.2
271(9) 0.01296 296.6 2.2
284(9) 0.01254 296.5 2.2
278(9) 0.01319 296.4 2.2
275(9) 0.01303 296.4 2.1
301(9) 0.01164 296.3 2.1
310(10) 0.01090 296.3 2.1
297(9) 0.01208 296.2 2.1
308(9) 0.01212 296.1 2.1
278(9) 0.01287 296.1 2.1
279(9) 0.01217 296.0 2.0
275(9) 0.01286 296.0 2.0
262(8) 0.01399 295.9 2.0
307(9) 0.01194 295.8 2.0
323(10) 0.01092 295.8 2.0
285(9) 0.01236 295.7 2.0
325(10) 0.01026 295.7 2.0
311(9) 0.01156 295.6 2.0
293(9) 0.01276 295.5 2.0
255(9) 0.01377 295.5 1.9
274(9) 0.01210 295.4 1.9
287(9) 0.01205 295.3 1.9
292(9) 0.01258 295.3 1.9
287(9) 0.01272 295.2 1.9
291(9) 0.01167 295.2 1.9
265(9) 0.01285 295.1 1.9
302(9) 0.01138 295.0 1.9
303(9) 0.01204 295.0 1.9
290(9) 0.01283 294.9 1.9
302(10) 0.01096 294.9 1.9
304(10) 0.01056 294.8 1.9
314(9) 0.01130 294.7 1.9
300(9) 0.01224 294.7 1.9
307(9) 0.01207 294.6 1.9
293(9) 0.01226 294.6 1.9
286(9) 0.01177 294.5 1.8
286(9) 0.01242 294.4 1.8
280(9) 0.01335 294.4 1.8
289(9) 0.01268 294.3 1.8
272(9) 0.01284 294.3 1.8
286(10) 0.01104 294.2 1.8
275(9) 0.01268 294.1 1.8
311(9) 0.01196 294.1 1.8
281(9) 0.01328 294.0 1.8
296(9) 0.01219 294.0 1.8
294(9) 0.01161 293.9 1.8
282(9) 0.01253 293.8 1.8
309(9) 0.01204 293.8 1.8
318(9) 0.01149 293.7 1.8
294(9) 0.01206 293.7 1.8
297(9) 0.01146 293.6 1.8
288(9) 0.01210 293.5 1.8
300(9) 0.01235 293.5 1.8
279(9) 0.01310 293.4 1.8
290(9) 0.01181 293.4 1.8
310(10) 0.01075 293.3 1.8
299(9) 0.01180 293.2 1.8
288(9) 0.01298 293.2 1.8
268(9) 0.01341 293.1 1.8
289(9) 0.01176 293.1 1.8
277(9) 0.01242 293.0 1.8
279(9) 0.01276 292.9 1.8
298(9) 0.01240 292.9 1.8
303(9) 0.01158 292.8 1.8
293(9) 0.01150 292.8 1.8
277(9) 0.01286 292.7 1.9
303(9) 0.01212 292.6 1.9
292(9) 0.01274 292.6 1.9
281(9) 0.01216 292.5 1.9
305(10) 0.01046 292.5 1.9
306(9) 0.01119 292.4 1.9
295(9) 0.01255 292.3 1.9
275(9) 0.01342 292.3 1.9
274(9) 0.01242 292.2 1.9
307(10) 0.01031 292.1 1.9
264(9) 0.01307 292.1 1.9
298(9) 0.01168 292.0 1.9
290(9) 0.01269 292.0 1.9
287(9) 0.01175 291.9 1.9
314(10) 0.00988 291.8 1.9
286(9) 0.01186 291.8 1.9
273(9) 0.01345 291.7 1.9
297(9) 0.01250 291.7 1.9
284(9) 0.01212 291.6 1.9
286(9) 0.01130 291.5 2.0
304(9) 0.01133 291.5 2.0
296(9) 0.01243 291.4 2.0
291(9) 0.01282 291.4 2.0
282(9) 0.01205 291.3 2.0
283(9) 0.01131 291.2 2.0
315(10) 0.01092 291.2 2.0
286(9) 0.01305 291.1 2.0
308(9) 0.01153 291.1 2.0
256(9) 0.01367 291.0 2.0
279(9) 0.01138 290.9 2.0
283(9) 0.01246 290.9 2.1
296(9) 0.01251 290.8 2.1
310(9) 0.01162 290.8 2.1
286(9) 0.01186 290.7 2.1
274(9) 0.01212 290.6 2.1
293(9) 0.01184 290.6 2.1
300(9) 0.01230 290.5 2.1
277(9) 0.01238 290.5 2.1
282(9) 0.01233 290.4 2.1
307(10) 0.01075 290.3 2.2
303(9) 0.01131 290.3 2.2
295(9) 0.01250 290.2 2.2
269(9) 0.01325 290.2 2.2
291(9) 0.01163 290.1 2.2
296(9) 0.01139 290.0 2.2
292(9) 0.01211 290.0 2.3
289(9) 0.01279 289.9 2.3
266(9) 0.01310 289.9 2.3
310(10) 0.01082 289.8 2.3
292(9) 0.01177 289.7 2.3
291(9) 0.01197 289.7 2.4
272(9) 0.01365 289.6 2.4
308(10) 0.01100 289.6 2.4
297(9) 0.01133 289.5 2.4
279(9) 0.01225 289.4 2.5
284(9) 0.01286 289.4 2.5
284(9) 0.01301 289.3 2.5
271(9) 0.01274 289.3 2.5
293(9) 0.01146 289.2 2.6
288(9) 0.01223 289.1 2.6
299(9) 0.01246 289.1 2.6
293(9) 0.01265 289.0 2.7
300(9) 0.01172 289.0 2.7
316(10) 0.01071 288.9 2.8
289(9) 0.01253 288.8 2.8
289(9) 0.01284 288.8 2.9
298(9) 0.01222 288.7 2.9
288(9) 0.01239 288.7 3.0
282(9) 0.01139 288.7 3.0
286(9) 0.01178 288.8 3.1
290(9) 0.01245 288.8 3.1
286(9) 0.01304 288.8 3.2
292(9) 0.01182 288.8 3.3
291(9) 0.01117 288.8 3.3
271(9) 0.01255 288.8 3.4
303(9) 0.01221 288.8 3.5
302(9) 0.01226 288.8 3.5
298(9) 0.01140 288.8 3.6
270(9) 0.01252 288.8 3.7
284(9) 0.01157 288.9 3.8
278(9) 0.01345 288.9 3.9
278(9) 0.01313 288.9 4.0
293(9) 0.01193 288.9 4.1
281(9) 0.01187 288.9 4.2
287(9) 0.01170 288.9 4.3
269(9) 0.01380 288.9 4.4
287(9) 0.01247 288.9 4.5
291(9) 0.01249 288.9 4.6
283(9) 0.01234 288.9 4.7
271(9) 0.01317 289.0 4.8
294(9) 0.01265 289.0 4.9
280(9) 0.01289 289.0 5.0
306(10) 0.01096 289.0 5.2
301(9) 0.01126 289.0 5.3
293(9) 0.01213 289.0 5.3
305(9) 0.01226 289.0 5.4
290(9) 0.01197 289.0 5.5
303(9) 0.01132 289.0 5.6
279(9) 0.01248 289.0 5.6
286(9) 0.01200 289.1 5.7
278(9) 0.01346 289.1 5.7
280(9) 0.01278 289.1 5.8
336(10) 0.00975 289.1 5.8
306(9) 0.01116 289.1 5.8
291(9) 0.01241 289.1 5.8
273(9) 0.01362 289.1 5.8
297(9) 0.01165 289.1 5.7
293(10) 0.01085 289.1 5.7
285(9) 0.01134 289.1 5.7
271(9) 0.01340 289.2 5.6
254(8) 0.01464 289.2 5.6
303(9) 0.01136 289.2 5.5
305(10) 0.01060 289.2 5.5
292(9) 0.01189 289.2 5.4
306(9) 0.01192 289.2 5.3
299(9) 0.01236 289.2 5.3
281(9) 0.01264 289.2 5.2
299(10) 0.01080 289.2 5.2
298(9) 0.01200 289.3 5.1
289(9) 0.01293 289.3 5.1
296(9) 0.01274 289.3 5.0
296(9) 0.01192 289.3 5.0
297(10) 0.01084 289.3 5.0
279(9) 0.01223 289.3 4.9
269(8) 0.01396 289.3 4.9
323(9) 0.01146 289.3 4.9
293(9) 0.01195 289.3 4.9
279(9) 0.01203 289.3 4.9
279(9) 0.01217 289.4 4.9
306(9) 0.01184 289.4 4.9
282(9) 0.01325 289.4 4.9
293(9) 0.01212 289.4 4.9
272(9) 0.01239 289.4 4.9
279(9) 0.01251 289.4 4.9
285(9) 0.01322 289.4 4.9
301(9) 0.01190 289.4 4.9
304(9) 0.01129 289.4 4.9
279(9) 0.01169 289.4 5.0
295(9) 0.01156 289.5 5.0
287(9) 0.01280 289.5 5.0
297(9) 0.01195 289.5 5.1
281(9) 0.01213 289.5 5.1
279(9) 0.01211 289.5 5.1
287(9) 0.01156 289.5 5.2
296(9) 0.01260 289.5 5.2
316(10) 0.01078 289.5 5.3
312(10) 0.01072 289.5 5.4
295(9) 0.01171 289.5 5.4
303(9) 0.01189 289.6 5.5
300(9) 0.01230 289.6 5.5
287(9) 0.01186 289.6 5.6
286(9) 0.01152 289.6 5.7
282(9) 0.01213 289.6 5.8
271(9) 0.01324 289.6 5.8
289(9) 0.01267 289.6 5.9
281(9) 0.01194 289.6 6.0
281(9) 0.01229 289.6 6.1
285(9) 0.01222 289.6 6.2
281(9) 0.01267 289.7 6.3
297(9) 0.01240 289.7 6.4
292(9) 0.01221 289.7 6.5
273(9) 0.01223 289.7 6.6
294(9) 0.01185 289.7 6.7
307(9) 0.01152 289.7 6.8
300(9) 0.01241 289.7 7.0
289(9) 0.01213 289.7 7.1
331(10) 0.00950 289.7 7.2
302(9) 0.01150 289.7 7.3
269(9) 0.01355 289.8 7.5
292(9) 0.01264 289.8 7.6
296(9) 0.01187 289.8 7.8
303(10) 0.01057 289.8 7.9
302(10) 0.01088 289.8 8.1
280(9) 0.01313 289.8 8.3
277(9) 0.01338 289.8 8.4
278(9) 0.01256 289.8 8.6
287(9) 0.01131 289.8 8.8
311(9) 0.01126 289.8 9.0
287(9) 0.01281 289.9 9.2
298(9) 0.01256 289.9 9.4
312(10) 0.01049 289.9 9.6
279(9) 0.01150 289.9 9.8
303(10) 0.01095 289.9 10.1
288(9) 0.01286 289.9 10.3
298(9) 0.01264 289.9 10.6
301(9) 0.01155 289.9 10.8
285(9) 0.01183 289.9 11.1
294(9) 0.01165 290.0 11.4
319(9) 0.01157 290.0 11.7
303(9) 0.01179 290.0 12.0
286(9) 0.01208 290.0 12.3
294(9) 0.01151 290.0 12.6
303(9) 0.01134 290.0 12.9
303(9) 0.01240 290.0 13.3
284(9) 0.01293 290.0 13.7
294(9) 0.01190 290.0 14.0
311(10) 0.01096 290.0 14.4
303(9) 0.01150 290.1 14.9
289(9) 0.01294 290.1 15.3
294(9) 0.01180 290.1 15.8
312(10) 0.01077 290.1 16.3
316(10) 0.01107 290.1 16.8
297(9) 0.01206 290.1 17.3
314(9) 0.01181 290.1 17.9
288(9) 0.01143 290.1 18.5
277(9) 0.01199 290.1 19.1
291(9) 0.01186 290.1 19.7
275(9) 0.01321 290.2 20.4
304(9) 0.01221 290.2 21.2
295(9) 0.01135 290.2 21.9
315(10) 0.01040 290.2 22.7
306(9) 0.01179 290.2 23.6
329(9) 0.01118 290.2 24.5
301(9) 0.01233 290.2 25.5
327(10) 0.01038 290.2 26.6
307(10) 0.01088 290.2 27.7
342(10) 0.01006 290.2 28.9
320(9) 0.01158 290.3 30.1
349(10) 0.01063 290.3 31.5
337(10) 0.01035 290.3 33.0
337(10) 0.00928 290.3 34.6
320(10) 0.01094 290.3 36.3
353(10) 0.01058 290.3 38.2
329(9) 0.01127 290.3 40.2
345(10) 0.01022 290.3 42.5
369(11) 0.00861 290.3 45.0
354(10) 0.00939 290.3 47.7
355(10) 0.01028 290.4 50.8
366(10) 0.01002 290.4 54.3
345(10) 0.01019 290.4 58.2
370(11) 0.00854 290.4 62.7
371(10) 0.00920 290.4 67.8
388(10) 0.00953 290.4 73.7
388(10) 0.00963 290.4 80.4
361(10) 0.00981 290.4 88.3
392(11) 0.00819 290.4 97.3
400(11) 0.00861 290.4 107.8
402(10) 0.00918 290.5 119.8
403(11) 0.00905 290.5 133.6
440(11) 0.00792 290.5 149.3
442(11) 0.00781 290.5 167.1
484(12) 0.00711 290.5 187.2
508(12) 0.00733 290.5 209.5
520(12) 0.00698 290.5 234.1
577(13) 0.00602 290.5 260.9
611(13) 0.00563 290.5 289.4
652(14) 0.00530 290.6 319.3
640(13) 0.00584 290.6 349.9
656(14) 0.00533 290.6 379.8
714(14) 0.00481 290.6 407.8
721(15) 0.00475 290.6 432.4
740(14) 0.00480 290.6 452.3
743(14) 0.00502 290.6 466.6
751(15) 0.00446 290.6 474.8
724(15) 0.00467 290.6 477.3
687(14) 0.00505 290.6 474.8
723(14) 0.00494 290.7 468.2
698(14) 0.00532 290.7 458.2
746(15) 0.00463 290.7 445.3
711(14) 0.00492 290.7 429.7
736(14) 0.00477 290.7 411.5
693(14) 0.00525 290.7 390.8
692(14) 0.00538 290.7 368.0
656(14) 0.00540 290.7 343.5
647(14) 0.00515 290.7 318.1
598(13) 0.00598 290.7 292.4
555(12) 0.00669 290.8 267.2
538(12) 0.00685 290.8 242.9
514(12) 0.00667 290.8 220.0
491(12) 0.00669 290.8 198.8
456(11) 0.00773 290.8 179.3
460(11) 0.00798 290.8 161.6
450(11) 0.00819 290.8 145.6
422(11) 0.00824 290.8 131.2
403(11) 0.00807 290.8 118.5
398(11) 0.00863 290.8 107.2
395(10) 0.00948 290.9 97.2
368(10) 0.01017 290.9 88.3
371(10) 0.00953 290.9 80.6
360(10) 0.00918 290.9 73.7
341(10) 0.01046 290.9 67.8
370(10) 0.01002 290.9 62.5
362(10) 0.01018 290.9 57.8
361(10) 0.00948 290.9 53.8
353(10) 0.00927 290.9 50.1
350(10) 0.00983 290.9 46.9
359(10) 0.01033 291.0 44.0
361(10) 0.01012 291.0 41.5
342(10) 0.01035 291.0 39.2
317(10) 0.01096 291.0 37.1
313(10) 0.01106 291.0 35.2
325(9) 0.01143 291.0 33.4
335(10) 0.01062 291.0 31.8
325(10) 0.01059 291.0 30.4
322(10) 0.01036 291.0 29.0
330(10) 0.01050 291.0 27.8
327(9) 0.01132 291.1 26.6
304(9) 0.01160 291.1 25.5
301(9) 0.01113 291.1 24.5
295(9) 0.01131 291.1 23.6
294(9) 0.01208 291.1 22.7
299(9) 0.01252 291.1 21.9
305(9) 0.01151 291.1 21.2
297(9) 0.01168 291.1 20.4
322(10) 0.01047 291.1 19.8
299(9) 0.01195 291.2 19.1
312(9) 0.01197 291.2 18.6
334(10) 0.01031 291.2 18.0
321(10) 0.01031 291.2 17.5
294(9) 0.01223 291.2 17.0
315(9) 0.01146 291.2 16.5
324(9) 0.01152 291.2 16.1
284(9) 0.01223 291.2 15.7
307(10) 0.01075 291.2 15.3
292(9) 0.01161 291.2 15.0
276(9) 0.01353 291.3 14.6
295(9) 0.01230 291.3 14.3
302(9) 0.01177 291.3 14.0
295(9) 0.01159 291.3 13.8
302(9) 0.01196 291.3 13.5
297(9) 0.01250 291.3 13.3
293(9) 0.01246 291.3 13.1
313(10) 0.01091 291.3 12.9
297(10) 0.01062 291.3 12.7
304(9) 0.01148 291.3 12.6
284(9) 0.01327 291.4 12.4
312(9) 0.01165 291.4 12.3
293(9) 0.01175 291.4 12.2
291(9) 0.01173 291.4 12.2
335(10) 0.01026 291.4 12.1
304(9) 0.01218 291.4 12.1
308(9) 0.01187 291.4 12.2
309(9) 0.01122 291.4 12.2
311(10) 0.01080 291.4 12.3
327(10) 0.01042 291.4 12.4
303(9) 0.01217 291.5 12.6
324(10) 0.01107 291.5 12.8
279(9) 0.01266 291.5 13.1
283(9) 0.01175 291.5 13.4
280(9) 0.01205 291.5 13.9
287(9) 0.01299 291.5 14.4
304(9) 0.01164 291.5 15.1
323(10) 0.01055 291.5 16.0
300(9) 0.01148 291.5 17.2
355(10) 0.00978 291.5 18.8
332(10) 0.01106 291.6 21.0
316(9) 0.01145 291.6 23.9
320(10) 0.01075 291.6 27.9
336(10) 0.01037 291.6 33.2
339(10) 0.01071 291.6 40.2
371(10) 0.01003 291.6 49.0
345(10) 0.01010 291.6 59.6
370(10) 0.00914 291.6 72.0
363(10) 0.00985 291.6 85.5
423(11) 0.00839 291.6 98.9
427(11) 0.00873 291.7 110.1
382(11) 0.00889 291.7 116.7
396(11) 0.00870 291.7 116.7
401(11) 0.00869 291.7 110.1
381(10) 0.00950 291.7 98.8
382(10) 0.00974 291.7 85.4
379(11) 0.00896 291.7 71.7
359(10) 0.00953 291.7 59.2
342(10) 0.01028 291.7 48.3
341(10) 0.01084 291.7 39.4
318(9) 0.01155 291.8 32.2
333(10) 0.01028 291.8 26.7
318(10) 0.00998 291.8 22.5
297(9) 0.01162 291.8 19.4
339(10) 0.01069 291.8 17.1
332(9) 0.01114 291.8 15.4
311(9) 0.01136 291.8 14.0
316(10) 0.00993 291.8 12.9
323(10) 0.01059 291.8 12.1
336(10) 0.01081 291.9 11.4
307(9) 0.01170 291.9 10.7
317(9) 0.01121 291.9 10.2
300(10) 0.01098 291.9 9.8
297(9) 0.01208 291.9 9.4
318(9) 0.01161 291.9 9.0
313(9) 0.01145 291.9 8.7
313(9) 0.01127 291.9 8.4
288(9) 0.01211 291.9 8.2
295(9) 0.01143 291.9 8.0
297(9) 0.01249 292.0 7.8
298(9) 0.01222 292.0 7.6
312(10) 0.01093 292.0 7.4
336(10) 0.00951 292.0 7.3
282(9) 0.01247 292.0 7.1
292(9) 0.01274 292.0 7.0
313(9) 0.01161 292.0 6.9
311(9) 0.01143 292.0 6.8
308(10) 0.01098 292.0 6.7
306(9) 0.01128 292.0 6.6
303(9) 0.01243 292.1 6.5
295(9) 0.01206 292.1 6.5
307(9) 0.01116 292.1 6.4
285(9) 0.01213 292.1 6.3
323(10) 0.01026 292.1 6.3
304(9) 0.01232 292.1 6.2
302(9) 0.01129 292.1 6.2
311(10) 0.01072 292.1 6.1
311(9) 0.01137 292.1 6.1
307(9) 0.01201 292.1 6.1
304(9) 0.01211 292.2 6.0
300(9) 0.01117 292.2 6.0
273(9) 0.01236 292.2 6.0
303(9) 0.01159 292.2 6.0
285(9) 0.01277 292.2 6.0
280(9) 0.01321 292.2 5.9
308(9) 0.01126 292.2 5.9
296(9) 0.01134 292.2 5.9
270(9) 0.01289 292.2 5.9
275(9) 0.01341 292.2 5.9
288(9) 0.01276 292.3 5.9
294(9) 0.01191 292.3 5.9
287(10) 0.01082 292.3 5.9
280(9) 0.01243 292.3 5.9
288(9) 0.01279 292.3 5.9
295(9) 0.01247 292.3 5.9
320(10) 0.01098 292.3 6.0
303(10) 0.01058 292.3 6.0
284(9) 0.01233 292.3 6.0
302(9) 0.01234 292.3 6.0
279(9) 0.01310 292.4 6.0
300(9) 0.01153 292.4 6.1
311(10) 0.01038 292.4 6.1
306(9) 0.01136 292.4 6.1
299(9) 0.01230 292.4 6.1
286(9) 0.01292 292.4 6.2
292(9) 0.01230 292.4 6.2
309(10) 0.01020 292.4 6.3
289(9) 0.01157 292.4 6.3
283(9) 0.01313 292.5 6.3
299(9) 0.01231 292.5 6.4
293(9) 0.01180 292.5 6.4
262(9) 0.01373 292.5 6.5
300(9) 0.01164 292.5 6.5
281(9) 0.01329 292.5 6.6
285(9) 0.01265 292.5 6.6
305(10) 0.01103 292.5 6.7
318(10) 0.01018 292.5 6.7
319(10) 0.01062 292.5 6.8
315(9) 0.01177 292.5 6.9
296(9) 0.01224 292.5 6.9
291(9) 0.01169 292.5 7.0
285(9) 0.01194 292.5 7.1
298(9) 0.01170 292.5 7.2
311(9) 0.01191 292.5 7.2
287(9) 0.01230 292.5 7.3
277(9) 0.01247 292.5 7.4
289(9) 0.01176 292.5 7.5
294(9) 0.01248 292.5 7.6
299(9) 0.01239 292.5 7.7
286(9) 0.01204 292.6 7.7
313(10) 0.01095 292.6 7.8
316(9) 0.01110 292.6 7.9
297(9) 0.01199 292.6 8.0
286(9) 0.01306 292.6 8.1
304(9) 0.01130 292.6 8.2
310(10) 0.01068 292.6 8.3
281(9) 0.01248 292.6 8.4
262(8) 0.01415 292.6 8.6
306(9) 0.01224 292.6 8.7
300(9) 0.01166 292.6 8.8
302(9) 0.01114 292.6 8.9
308(9) 0.01112 292.6 9.0
288(9) 0.01261 292.6 9.1
307(9) 0.01227 292.6 9.3
300(9) 0.01173 292.6 9.4
317(10) 0.01027 292.6 9.5
307(9) 0.01132 292.6 9.6
303(9) 0.01218 292.6 9.8
287(9) 0.01272 292.6 9.9
316(10) 0.01076 292.6 10.0
288(9) 0.01164 292.6 10.2
267(9) 0.01353 292.6 10.3
292(9) 0.01270 292.6 10.5
306(9) 0.01182 292.6 10.6
284(9) 0.01270 292.6 10.7
306(10) 0.01044 292.6 10.9
316(10) 0.01084 292.6 11.0
309(9) 0.01193 292.6 11.2
321(9) 0.01122 292.6 11.3
320(10) 0.01073 292.7 11.4
318(10) 0.01065 292.7 11.6
305(9) 0.01135 292.7 11.7
310(9) 0.01195 292.7 11.9
292(9) 0.01254 292.7 12.0
308(10) 0.01101 292.7 12.2
299(9) 0.01132 292.7 12.3
283(9) 0.01219 292.7 12.5
317(9) 0.01171 292.7 12.6
295(9) 0.01242 292.7 12.7
317(10) 0.01071 292.7 12.9
315(10) 0.01053 292.7 13.0
290(9) 0.01189 292.7 13.2
300(9) 0.01262 292.7 13.3
330(10) 0.01031 292.7 13.5
298(9) 0.01145 292.7 13.6
300(9) 0.01112 292.7 13.8
308(9) 0.01155 292.7 13.9
307(9) 0.01226 292.7 14.1
300(9) 0.01135 292.7 14.3
302(9) 0.01114 292.7 14.4
304(9) 0.01110 292.7 14.6
305(9) 0.01197 292.7 14.8
301(9) 0.01240 292.7 15.0
315(10) 0.01094 292.7 15.1
305(10) 0.01091 292.7 15.3
300(9) 0.01171 292.7 15.6
312(9) 0.01174 292.7 15.8
311(9) 0.01197 292.7 16.0
314(9) 0.01132 292.7 16.3
315(10) 0.01059 292.7 16.5
304(9) 0.01150 292.8 16.8
314(9) 0.01160 292.8 17.1
305(9) 0.01223 292.8 17.4
321(9) 0.01108 292.8 17.8
328(10) 0.00990 292.8 18.1
316(10) 0.01099 292.8 18.5
309(9) 0.01196 292.8 19.0
316(9) 0.01161 292.8 19.4
323(9) 0.01129 292.8 19.9
334(10) 0.00972 292.8 20.5
319(10) 0.01074 292.8 21.0
337(9) 0.01110 292.8 21.7
316(9) 0.01163 292.8 22.4
340(10) 0.00964 292.8 23.1
339(10) 0.00943 292.8 23.9
321(10) 0.01060 292.8 24.8
295(9) 0.01252 292.8 25.8
319(9) 0.01128 292.8 26.8
319(10) 0.01072 292.8 28.0
343(10) 0.00945 292.8 29.2
340(10) 0.01006 292.8 30.6
341(10) 0.01098 292.8 32.2
337(10) 0.01076 292.8 33.9
335(10) 0.01014 292.8 35.7
341(10) 0.00988 292.8 37.9
347(10) 0.01020 292.8 40.2
362(10) 0.01033 292.8 43.0
340(10) 0.01030 292.8 46.2
334(10) 0.01023 292.8 50.0
338(10) 0.00971 292.8 54.6
367(10) 0.00950 292.8 60.6
369(10) 0.01002 292.9 68.6
385(10) 0.00912 292.9 79.3
392(11) 0.00862 292.9 94.0
422(11) 0.00805 292.9 113.9
437(11) 0.00786 292.9 140.2
453(11) 0.00826 292.9 173.6
473(11) 0.00756 292.9 214.4
545(13) 0.00619 292.9 261.2
602(13) 0.00571 292.9 311.0
675(14) 0.00528 292.9 357.7
710(14) 0.00521 292.9 392.5
739(15) 0.00467 292.9 406.0
733(15) 0.00448 292.9 394.1
713(14) 0.00479 292.9 361.2
688(14) 0.00531 292.9 316.8
609(13) 0.00608 292.9 269.7
582(13) 0.00598 292.9 225.5
516(12) 0.00660 292.9 187.4
510(12) 0.00675 292.9 156.5
462(11) 0.00800 292.9 132.7
481(11) 0.00774 292.9 115.1
429(11) 0.00814 292.9 102.5
435(12) 0.00725 292.9 93.6
382(11) 0.00904 292.9 87.5
424(11) 0.00859 292.9 83.1
396(10) 0.00943 292.9 80.0
394(11) 0.00876 292.9 77.6
401(11) 0.00819 292.9 75.8
384(10) 0.00916 292.9 74.4
377(10) 0.00971 292.9 73.3
393(10) 0.00959 292.9 72.5
387(10) 0.00919 293.0 71.8
398(11) 0.00830 293.0 71.3
382(10) 0.00912 293.0 71.0
367(10) 0.01005 293.0 70.8
366(10) 0.01009 293.0 70.7
386(10) 0.00919 293.0 70.7
375(11) 0.00904 293.0 70.8
375(10) 0.00931 293.0 71.0
375(10) 0.00993 293.0 71.2
385(10) 0.00941 293.0 71.4
391(11) 0.00893 293.0 71.6
387(11) 0.00896 293.0 71.8
367(10) 0.00963 293.0 72.0
369(10) 0.00997 293.0 72.1
361(10) 0.01005 293.0 72.1
386(11) 0.00882 293.0 72.0
409(11) 0.00808 293.0 71.8
367(10) 0.00976 293.0 71.5
354(10) 0.01050 293.0 71.0
395(11) 0.00897 293.0 70.4
356(10) 0.00989 293.0 69.7
367(10) 0.00955 293.0 68.8
368(10) 0.00954 293.0 67.8
386(10) 0.00969 293.0 66.7
378(10) 0.00934 293.0 65.6
361(10) 0.00959 293.0 64.4
349(10) 0.01010 293.0 63.1
364(10) 0.00953 293.0 61.8
347(10) 0.01078 293.0 60.5
357(10) 0.00945 293.0 59.2
357(10) 0.00950 293.0 57.9
344(10) 0.01028 293.1 56.6
345(10) 0.01055 293.1 55.2
359(10) 0.01029 293.1 53.7
354(10) 0.00956 293.1 52.1
351(10) 0.00930 293.1 50.4
334(10) 0.01038 293.1 48.7
314(9) 0.01141 293.1 46.9
333(9) 0.01120 293.1 45.2
364(10) 0.00941 293.1 43.6
353(10) 0.00940 293.1 42.1
331(10) 0.01067 293.1 40.6
316(9) 0.01161 293.1 39.3
321(9) 0.01152 293.1 38.0
319(10) 0.01083 293.1 36.9
313(10) 0.01016 293.1 35.8
318(10) 0.01077 293.1 34.9
349(10) 0.01076 293.1 34.0
326(9) 0.01128 293.1 33.2
308(9) 0.01116 293.1 32.5
332(11) 0.00890 293.1 31.8
326(10) 0.01015 293.1 31.2
313(9) 0.01197 293.1 30.7
328(9) 0.01120 293.1 30.2
344(10) 0.00991 293.1 29.8
319(10) 0.01036 293.1 29.4
334(10) 0.01047 293.1 29.1
351(10) 0.01065 293.1 28.8
321(10) 0.01100 293.1 28.6
307(10) 0.01081 293.1 28.4
318(10) 0.01019 293.1 28.3
323(10) 0.01008 293.2 28.3
315(9) 0.01173 293.2 28.2
331(10) 0.01090 293.2 28.3
315(9) 0.01115 293.2 28.3
336(10) 0.01014 293.2 28.4
317(10) 0.01093 293.2 28.6
317(9) 0.01180 293.2 28.8
315(9) 0.01162 293.2 29.1
327(10) 0.01042 293.2 29.3
326(10) 0.01031 293.2 29.7
322(9) 0.01109 293.2 30.1
327(9) 0.01122 293.2 30.5
334(10) 0.01041 293.2 31.0
308(10) 0.01087 293.2 31.6
317(10) 0.01089 293.2 32.2
323(9) 0.01127 293.2 32.9
317(9) 0.01165 293.2 33.6
342(10) 0.00995 293.2 34.4
336(10) 0.00998 293.2 35.3
338(10) 0.01019 293.2 36.3
345(10) 0.01057 293.2 37.4
353(10) 0.01046 293.2 38.6
345(10) 0.01029 293.2 39.9
342(10) 0.00985 293.2 41.3
358(10) 0.00930 293.2 42.9
358(10) 0.01004 293.2 44.5
345(10) 0.01092 293.2 46.4
367(10) 0.00970 293.2 48.4
359(10) 0.00912 293.2 50.5
355(10) 0.00984 293.2 52.9
349(10) 0.01057 293.2 55.4
373(10) 0.00991 293.3 58.1
366(10) 0.00953 293.3 61.0
376(11) 0.00851 293.3 64.2
367(10) 0.00939 293.3 67.5
378(10) 0.00976 293.3 71.1
391(10) 0.00940 293.3 74.9
384(10) 0.00959 293.3 78.9
406(11) 0.00792 293.3 83.1
384(11) 0.00897 293.3 87.5
375(10) 0.00985 293.3 92.1
378(10) 0.00973 293.3 96.8
373(10) 0.00960 293.3 101.7
420(11) 0.00772 293.3 106.6
411(11) 0.00847 293.3 111.5
410(11) 0.00901 293.3 116.3
401(11) 0.00906 293.3 121.0
437(11) 0.00796 293.3 125.4
435(11) 0.00773 293.3 129.5
445(11) 0.00787 293.3 133.2
446(11) 0.00818 293.3 136.4
441(11) 0.00842 293.3 139.0
460(12) 0.00733 293.3 141.1
444(11) 0.00775 293.3 142.6
477(12) 0.00719 293.3 143.5
436(11) 0.00850 293.3 144.1
449(11) 0.00792 293.3 144.3
434(11) 0.00811 293.3 144.4
448(12) 0.00750 293.3 144.5
462(12) 0.00745 293.3 144.9
447(11) 0.00826 293.3 145.7
480(12) 0.00743 293.3 147.1
486(12) 0.00682 293.4 149.4
454(12) 0.00741 293.4 152.6
463(12) 0.00754 293.4 157.1
453(11) 0.00822 293.4 162.8
472(12) 0.00723 293.4 170.0
460(11) 0.00758 293.4 178.6
474(12) 0.00705 293.4 188.6
470(11) 0.00757 293.4 199.9
461(11) 0.00804 293.4 212.1
524(12) 0.00675 293.4 224.8
524(12) 0.00663 293.4 237.0
525(12) 0.00652 293.4 247.8
513(12) 0.00711 293.4 256.2
548(12) 0.00673 293.4 261.1
545(13) 0.00630 293.4 262.1
531(13) 0.00630 293.4 259.5
518(12) 0.00672 293.4 253.8
523(12) 0.00714 293.4 246.4
513(12) 0.00726 293.4 238.1
521(12) 0.00686 293.4 230.0
518(13) 0.00635 293.4 222.8
521(12) 0.00666 293.4 216.7
499(12) 0.00744 293.4 212.1
450(11) 0.00832 293.4 209.0
509(12) 0.00691 293.4 207.5
517(13) 0.00604 293.4 207.5
502(12) 0.00702 293.4 208.9
538(12) 0.00689 293.4 211.6
516(12) 0.00706 293.4 215.4
558(13) 0.00630 293.4 220.1
544(13) 0.00612 293.4 225.5
546(12) 0.00643 293.5 231.5
545(12) 0.00685 293.5 237.9
576(13) 0.00634 293.5 244.5
579(13) 0.00615 293.5 251.0
566(13) 0.00601 293.5 257.3
581(13) 0.00603 293.5 263.2
567(12) 0.00653 293.5 268.5
584(13) 0.00621 293.5 273.0
618(14) 0.00548 293.5 276.5
621(14) 0.00523 293.5 278.9
571(13) 0.00606 293.5 280.1
552(12) 0.00674 293.5 280.0
549(12) 0.00657 293.5 278.6
544(13) 0.00636 293.5 275.9
555(13) 0.00583 293.5 271.9
556(13) 0.00621 293.5 266.8
534(12) 0.00703 293.5 260.5
546(13) 0.00629 293.5 253.3
498(12) 0.00674 293.5 245.2
495(12) 0.00689 293.5 236.5
497(12) 0.00708 293.5 227.2
510(12) 0.00732 293.5 217.6
468(12) 0.00719 293.5 207.8
466(12) 0.00720 293.5 198.0
452(11) 0.00772 293.5 188.2
464(11) 0.00767 293.5 178.6
454(11) 0.00824 293.5 169.3
451(11) 0.00773 293.5 160.2
443(11) 0.00775 293.5 151.5
413(11) 0.00849 293.5 143.2
421(11) 0.00871 293.6 135.2
452(11) 0.00815 293.6 127.7
412(11) 0.00826 293.6 120.5
408(11) 0.00819 293.6 113.7
415(11) 0.00836 293.6 107.4
405(10) 0.00915 293.6 101.4
383(10) 0.00973 293.6 95.8
384(10) 0.00911 293.6 90.5
397(11) 0.00800 293.6 85.6
400(11) 0.00875 293.6 81.0
378(10) 0.00975 293.6 76.7
387(10) 0.00955 293.6 72.7
403(11) 0.00864 293.6 69.0
399(11) 0.00786 293.6 65.6
363(10) 0.00955 293.6 62.4
393(10) 0.00964 293.6 59.5
395(10) 0.00920 293.6 56.8
360(10) 0.00989 293.6 54.2
376(11) 0.00824 293.6 51.9
343(10) 0.01006 293.6 49.7
372(10) 0.00990 293.6 47.7
345(10) 0.01048 293.6 45.9
344(10) 0.01022 293.6 44.1
349(10) 0.00920 293.6 42.5
343(10) 0.01028 293.6 41.0
349(10) 0.01055 293.6 39.7
379(10) 0.00956 293.6 38.4
347(10) 0.01011 293.6 37.2
346(10) 0.00943 293.6 36.0
353(10) 0.00972 293.6 35.0
349(10) 0.01066 293.6 34.0
325(10) 0.01106 293.7 33.1
337(10) 0.01056 293.7 32.2
340(10) 0.00985 293.7 31.4
301(9) 0.01167 293.7 30.6
349(10) 0.01064 293.7 29.8
328(10) 0.01079 293.7 29.1
337(10) 0.01037 293.7 28.5
348(10) 0.00979 293.7 27.8
301(9) 0.01149 293.7 27.2
317(9) 0.01171 293.7 26.6
306(9) 0.01198 293.7 26.0
346(10) 0.00994 293.7 25.5
335(10) 0.01059 293.7 24.9
321(9) 0.01129 293.7 24.4
312(9) 0.01198 293.7 23.9
326(10) 0.01047 293.7 23.4
323(10) 0.01028 293.7 23.0
330(10) 0.01033 293.7 22.5
336(10) 0.01073 293.7 22.1
337(10) 0.01099 293.7 21.7
350(10) 0.00998 293.7 21.3
309(10) 0.01102 293.7 20.9
328(10) 0.01058 293.7 20.5
348(10) 0.01063 293.7 20.1
335(9) 0.01121 293.7 19.8
313(9) 0.01124 293.7 19.5
306(10) 0.01104 293.7 19.2
317(10) 0.01093 293.7 18.9
287(9) 0.01278 293.7 18.6
329(9) 0.01147 293.7 18.3
324(10) 0.01078 293.7 18.0
284(9) 0.01174 293.8 17.8
316(10) 0.01076 293.8 17.6
309(9) 0.01197 293.8 17.4
317(9) 0.01180 293.8 17.2
336(10) 0.01024 293.8 17.0
285(9) 0.01150 293.8 16.9
281(9) 0.01233 293.8 16.8
303(9) 0.01229 293.8 16.7
310(9) 0.01207 293.8 16.6
316(10) 0.01081 293.8 16.6
301(9) 0.01113 293.8 16.6
311(9) 0.01123 293.8 16.6
316(9) 0.01181 293.8 16.7
281(9) 0.01288 293.8 16.8
319(10) 0.01035 293.8 16.9
318(10) 0.01027 293.8 17.1
327(10) 0.01052 293.8 17.3
326(9) 0.01147 293.8 17.6
294(9) 0.01228 293.8 17.9
330(10) 0.01048 293.8 18.3
319(10) 0.01043 293.8 18.7
312(9) 0.01121 293.8 19.2
335(9) 0.01110 293.8 19.8
336(10) 0.01075 293.8 20.4
309(9) 0.01141 293.8 21.1
322(10) 0.01049 293.8 21.9
316(10) 0.01079 293.8 22.7
330(9) 0.01138 293.8 23.6
321(9) 0.01150 293.8 24.5
346(10) 0.01001 293.8 25.5
340(10) 0.01007 293.8 26.5
332(10) 0.01095 293.9 27.5
323(9) 0.01156 293.9 28.5
329(10) 0.01062 293.9 29.5
315(10) 0.01067 293.9 30.4
342(10) 0.00994 293.9 31.2
336(10) 0.01095 293.9 31.9
345(10) 0.01081 293.9 32.4
352(10) 0.00961 293.9 32.7
346(10) 0.00951 293.9 32.8
327(10) 0.01029 293.9 32.7
319(9) 0.01145 293.9 32.4
334(9) 0.01116 293.9 31.8
311(9) 0.01111 293.9 31.1
351(11) 0.00903 293.9 30.2
337(10) 0.01034 293.9 29.2
338(10) 0.01088 293.9 28.1
329(9) 0.01132 293.9 26.9
342(10) 0.01020 293.9 25.7
304(10) 0.01088 293.9 24.5
315(10) 0.01067 293.9 23.3
330(9) 0.01109 293.9 22.1
327(9) 0.01133 293.9 21.0
346(10) 0.01009 293.9 20.0
313(10) 0.01067 293.9 18.9
339(10) 0.01006 293.9 18.0
299(9) 0.01250 293.9 17.1
293(9) 0.01258 293.9 16.3
306(9) 0.01165 293.9 15.5
294(9) 0.01131 293.9 14.8
299(9) 0.01167 293.9 14.1
298(9) 0.01257 294.0 13.5
311(9) 0.01176 294.0 13.0
320(10) 0.01095 294.0 12.5
289(9) 0.01157 294.0 12.0
302(9) 0.01150 294.0 11.6
315(9) 0.01179 294.0 11.3
310(9) 0.01177 294.0 10.9
318(10) 0.01077 294.0 10.6
300(9) 0.01140 294.0 10.4
328(10) 0.01056 294.0 10.1
323(9) 0.01144 294.0 9.9
330(10) 0.01073 294.0 9.7
291(9) 0.01195 294.0 9.5
291(9) 0.01177 294.0 9.4
319(10) 0.01079 294.0 9.2
313(9) 0.01188 294.0 9.1
288(9) 0.01271 294.0 9.0
300(9) 0.01140 294.0 8.9
319(10) 0.01049 294.0 8.9
289(9) 0.01205 294.0 8.8
306(9) 0.01225 294.0 8.8
326(10) 0.01087 294.0 8.7
326(10) 0.01035 294.0 8.7
313(10) 0.01095 294.0 8.7
299(9) 0.01181 294.0 8.7
300(9) 0.01235 294.0 8.7
305(9) 0.01141 294.0 8.8
300(9) 0.01120 294.0 8.8
319(10) 0.01053 294.0 8.9
312(9) 0.01156 294.0 9.0
312(9) 0.01192 294.0 9.1
314(10) 0.01081 294.1 9.3
300(9) 0.01139 294.1 9.4
314(9) 0.01142 294.1 9.6
294(9) 0.01256 294.1 9.8
310(9) 0.01194 294.1 10.1
314(10) 0.01108 294.1 10.3
305(10) 0.01103 294.1 10.6
308(9) 0.01179 294.1 10.9
304(9) 0.01216 294.1 11.3
307(9) 0.01225 294.1 11.7
311(9) 0.01142 294.1 12.1
294(9) 0.01128 294.1 12.6
323(10) 0.01077 294.1 13.1
320(9) 0.01160 294.1 13.6
310(9) 0.01192 294.1 14.2
319(10) 0.01094 294.1 14.8
310(10) 0.01083 294.1 15.4
312(10) 0.01069 294.1 16.1
303(9) 0.01230 294.1 16.8
293(9) 0.01266 294.1 17.5
304(9) 0.01182 294.1 18.2
322(10) 0.01044 294.1 18.9
343(10) 0.00993 294.1 19.6
293(9) 0.01270 294.1 20.2
271(9) 0.01354 294.1 20.9
319(10) 0.01060 294.1 21.4
308(10) 0.01078 294.1 21.9
298(9) 0.01159 294.1 22.3
290(9) 0.01293 294.1 22.6
314(9) 0.01147 294.1 22.8
322(10) 0.01057 294.1 22.8
317(10) 0.01103 294.2 22.7
328(10) 0.01095 294.2 22.5
308(9) 0.01205 294.2 22.2
296(9) 0.01221 294.2 21.7
320(10) 0.01063 294.2 21.2
286(9) 0.01212 294.2 20.5
291(9) 0.01241 294.2 19.9
305(9) 0.01211 294.2 19.1
319(10) 0.01088 294.2 18.4
302(10) 0.01079 294.2 17.6
297(9) 0.01170 294.2 16.8
306(9) 0.01173 294.2 16.1
311(9) 0.01199 294.2 15.4
301(9) 0.01174 294.2 14.6
302(10) 0.01104 294.2 13.9
303(10) 0.01092 294.2 13.3
280(9) 0.01300 294.2 12.7
310(9) 0.01195 294.2 12.1
291(9) 0.01172 294.2 11.5
313(10) 0.01053 294.2 11.0
332(10) 0.01015 294.2 10.5
303(9) 0.01195 294.2 10.0
328(9) 0.01126 294.2 9.6
296(9) 0.01193 294.2 9.2
290(9) 0.01153 294.2 8.9
291(9) 0.01171 294.2 8.5
317(9) 0.01154 294.2 8.2
319(9) 0.01183 294.2 7.9
310(9) 0.01124 294.2 7.7
300(10) 0.01079 294.2 7.4
314(10) 0.01106 294.2 7.2
304(9) 0.01202 294.3 7.0
288(9) 0.01295 294.3 6.8
301(9) 0.01200 294.3 6.7
296(9) 0.01114 294.3 6.5
299(9) 0.01171 294.3 6.4
292(9) 0.01278 294.3 6.2
286(9) 0.01287 294.3 6.1
318(10) 0.01044 294.3 6.0
295(10) 0.01097 294.3 5.9
298(9) 0.01160 294.3 5.8
299(9) 0.01257 294.3 5.7
318(9) 0.01131 294.3 5.7
290(9) 0.01215 294.3 5.6
308(10) 0.01062 294.3 5.5
310(9) 0.01127 294.3 5.5
319(9) 0.01171 294.3 5.4
269(9) 0.01348 294.3 5.3
304(10) 0.01087 294.3 5.3
304(10) 0.01093 294.3 5.3
291(9) 0.01201 294.3 5.2
292(9) 0.01270 294.3 5.2
289(9) 0.01297 294.3 5.1
304(9) 0.01152 294.3 5.1
302(9) 0.01132 294.3 5.1
294(9) 0.01228 294.3 5.0
312(9) 0.01206 294.3 5.0
289(9) 0.01176 294.3 5.0
284(9) 0.01208 294.3 5.0
289(9) 0.01146 294.3 5.0
313(10) 0.01105 294.3 4.9
296(9) 0.01259 294.4 4.9
307(10) 0.01092 294.4 4.9
297(9) 0.01150 294.4 4.9
298(9) 0.01156 294.4 4.9
294(9) 0.01202 294.4 4.9
291(9) 0.01283 294.4 4.9
301(9) 0.01177 294.4 4.9
313(10) 0.01046 294.4 4.9
299(9) 0.01194 294.4 4.9
290(9) 0.01260 294.4 4.9
278(9) 0.01335 294.4 4.9
321(10) 0.01084 294.4 4.9
309(10) 0.01063 294.4 4.9
320(10) 0.01093 294.4 4.9
277(9) 0.01341 294.3 4.9
294(9) 0.01245 294.3 4.9
292(9) 0.01227 294.3 4.9
305(10) 0.01089 294.3 4.9
301(9) 0.01128 294.3 4.9
293(9) 0.01256 294.2 5.0
305(9) 0.01215 294.2 5.0
286(9) 0.01188 294.2 5.0
281(9) 0.01169 294.2 5.0
279(9) 0.01284 294.1 5.0
311(9) 0.01192 294.1 5.1
298(9) 0.01212 294.1 5.1
273(9) 0.01215 294.1 5.1
301(10) 0.01080 294.0 5.1
294(9) 0.01185 294.0 5.2
285(9) 0.01330 294.0 5.2
316(9) 0.01129 294.0 5.2
306(9) 0.01115 293.9 5.3
303(10) 0.01090 293.9 5.3
301(9) 0.01136 293.9 5.3
289(9) 0.01281 293.9 5.4
315(9) 0.01143 293.8 5.4
286(9) 0.01214 293.8 5.5
301(9) 0.01137 293.8 5.5
307(9) 0.01119 293.8 5.6
307(9) 0.01209 293.7 5.6
298(9) 0.01202 293.7 5.7
295(9) 0.01154 293.7 5.7
297(9) 0.01157 293.7 5.8
283(9) 0.01261 293.7 5.9
278(9) 0.01335 293.6 5.9
281(9) 0.01260 293.6 6.0
281(9) 0.01209 293.6 6.1
273(9) 0.01275 293.6 6.1
315(9) 0.01144 293.5 6.2
340(10) 0.01103 293.5 6.3
315(10) 0.01093 293.5 6.4
318(10) 0.01090 293.5 6.5
323(10) 0.01092 293.4 6.6
298(9) 0.01181 293.4 6.7
291(9) 0.01275 293.4 6.8
283(9) 0.01200 293.4 6.9
286(9) 0.01132 293.3 7.0
289(9) 0.01190 293.3 7.1
282(9) 0.01265 293.3 7.3
280(9) 0.01317 293.3 7.4
320(10) 0.01016 293.2 7.5
285(9) 0.01167 293.2 7.7
287(9) 0.01166 293.2 7.8
280(9) 0.01283 293.2 8.0
308(9) 0.01197 293.1 8.2
312(10) 0.01105 293.1 8.4
309(10) 0.01070 293.1 8.6
300(9) 0.01178 293.1 8.8
277(9) 0.01365 293.1 9.0
314(9) 0.01172 293.0 9.2
295(9) 0.01168 293.0 9.5
299(10) 0.01092 293.0 9.7
318(10) 0.01063 293.0 10.0
303(9) 0.01239 292.9 10.3
297(9) 0.01271 292.9 10.6
300(9) 0.01208 292.9 10.9
317(10) 0.01046 292.9 11.3
306(9) 0.01114 292.8 11.7
313(9) 0.01185 292.8 12.1
355(10) 0.01019 292.8 12.5
327(10) 0.01056 292.8 13.0
325(10) 0.00995 292.7 13.5
305(9) 0.01123 292.7 14.1
298(9) 0.01260 292.7 14.7
303(9) 0.01199 292.7 15.3
284(9) 0.01223 292.6 16.0
304(10) 0.01101 292.6 16.8
309(10) 0.01075 292.6 17.6
295(9) 0.01254 292.6 18.6
305(9) 0.01189 292.5 19.6
330(10) 0.01073 292.5 20.7
319(10) 0.01005 292.5 21.9
300(9) 0.01114 292.5 23.2
319(9) 0.01162 292.5 24.6
320(9) 0.01119 292.4 26.2
327(10) 0.01041 292.4 27.9
331(10) 0.01014 292.4 29.7
319(9) 0.01145 292.4 31.7
331(9) 0.01126 292.3 33.8
335(10) 0.01026 292.3 36.1
359(10) 0.00919 292.3 38.5
337(10) 0.01038 292.3 41.0
317(10) 0.01090 292.2 43.6
330(9) 0.01144 292.2 46.4
335(10) 0.01055 292.2 49.2
330(10) 0.01028 292.2 52.0
351(10) 0.00980 292.1 54.9
334(10) 0.01074 292.1 57.6
356(10) 0.01042 292.1 60.2
346(10) 0.00987 292.1 62.5
358(10) 0.00918 292.0 64.6
370(10) 0.00910 292.0 66.2
355(10) 0.01006 292.0 67.3
373(10) 0.00998 292.0 67.9
352(10) 0.00987 292.0 68.0
334(10) 0.00995 291.9 67.5
343(10) 0.01019 291.9 66.5
344(10) 0.01081 291.9 65.0
386(10) 0.00963 291.9 63.3
347(10) 0.01014 291.8 61.2
370(11) 0.00866 291.8 58.9
339(10) 0.01035 291.8 56.6
355(10) 0.01032 291.8 54.1
338(10) 0.01104 291.7 51.7
331(10) 0.01065 291.7 49.3
345(10) 0.00927 291.7 47.0
350(10) 0.00979 291.7 44.8
362(10) 0.01014 291.6 42.7
354(10) 0.01042 291.6 40.7
355(10) 0.00976 291.6 38.8
322(10) 0.01010 291.6 37.1
330(10) 0.01011 291.5 35.5
317(9) 0.01158 291.5 34.1
329(9) 0.01121 291.5 32.7
313(10) 0.01088 291.5 31.5
292(9) 0.01136 291.4 30.4
317(10) 0.01067 291.4 29.4
343(10) 0.01077 291.4 28.6
333(10) 0.01097 291.4 27.8
312(9) 0.01132 291.4 27.1
320(10) 0.00997 291.3 26.5
315(10) 0.01069 291.3 25.9
333(9) 0.01118 291.3 25.5
317(10) 0.01103 291.3 25.1
318(10) 0.01051 291.2 24.7
305(10) 0.01108 291.2 24.4
332(10) 0.01040 291.2 24.2
300(9) 0.01245 291.2 24.0
331(10) 0.01058 291.1 23.9
335(10) 0.01011 291.1 23.8
316(9) 0.01113 291.1 23.7
296(9) 0.01251 291.1 23.7
316(9) 0.01182 291.0 23.7
325(10) 0.01065 291.0 23.7
330(10) 0.00993 291.0 23.8
309(9) 0.01135 291.0 23.9
353(10) 0.01012 290.9 24.0
323(9) 0.01146 290.9 24.2
314(9) 0.01112 290.9 24.4
320(10) 0.01058 290.9 24.6
334(10) 0.01032 290.8 24.9
319(9) 0.01138 290.8 25.2
311(9) 0.01199 290.8 25.5
342(10) 0.01005 290.8 25.9
313(10) 0.01058 290.8 26.3
322(10) 0.01068 290.7 26.8
334(10) 0.01100 290.7 27.3
341(10) 0.01079 290.7 27.9
332(10) 0.01026 290.7 28.7
317(10) 0.01047 290.6 29.5
323(9) 0.01121 290.6 30.5
337(10) 0.01095 290.6 31.7
359(10) 0.01017 290.6 33.0
314(9) 0.01138 290.5 34.6
326(10) 0.00981 290.5 36.5
337(10) 0.01016 290.5 38.6
346(10) 0.01069 290.5 41.1
335(9) 0.01108 290.4 43.8
362(10) 0.00945 290.4 46.9
365(11) 0.00871 290.4 50.2
356(10) 0.00969 290.4 53.7
358(10) 0.01033 290.3 57.3
382(10) 0.00938 290.3 60.7
374(10) 0.00921 290.3 63.8
411(11) 0.00792 290.3 66.2
400(11) 0.00880 290.3 67.6
386(10) 0.00969 290.2 67.9
403(11) 0.00906 290.2 67.1
374(10) 0.00908 290.2 65.3
348(10) 0.00958 290.2 62.8
362(10) 0.00915 290.1 59.9
381(10) 0.00972 290.1 56.9
355(10) 0.01009 290.1 53.9
364(10) 0.00916 290.1 51.0
335(10) 0.01023 290.0 48.5
343(10) 0.00992 290.0 46.2
363(10) 0.01019 290.0 44.3
329(10) 0.01051 290.0 42.6
324(10) 0.01027 289.9 41.2
353(10) 0.00958 289.9 40.1
350(10) 0.01011 289.9 39.2
345(10) 0.01090 289.9 38.5
333(10) 0.01051 289.8 38.0
359(10) 0.00951 289.8 37.5
337(10) 0.01051 289.8 37.2
331(10) 0.01060 289.8 37.0
339(10) 0.01091 289.7 36.8
329(10) 0.01043 289.7 36.7
324(10) 0.01003 289.7 36.6
316(10) 0.01105 289.7 36.5
327(10) 0.01106 289.7 36.4
342(9) 0.01112 289.6 36.3
325(10) 0.01073 289.6 36.2
350(11) 0.00902 289.6 36.0
328(10) 0.01025 289.6 35.9
318(9) 0.01169 289.5 35.7
339(10) 0.01102 289.5 35.6
306(10) 0.01081 289.5 35.4
336(10) 0.00971 289.5 35.1
340(10) 0.01045 289.4 34.9
317(9) 0.01180 289.4 34.6
324(9) 0.01138 289.4 34.4
300(9) 0.01178 289.4 34.1
322(10) 0.00938 289.3 33.7
324(10) 0.01071 289.3 33.4
320(9) 0.01175 289.3 33.0
313(9) 0.01192 289.3 32.7
338(10) 0.01009 289.2 32.3
324(10) 0.01022 289.2 31.9
324(10) 0.01066 289.2 31.5
335(9) 0.01109 289.2 31.2
321(9) 0.01111 289.1 30.8
325(10) 0.01037 289.1 30.4
317(10) 0.01052 289.1 30.0
318(10) 0.01099 289.1 29.6
320(9) 0.01158 289.1 29.3
334(10) 0.01095 289.0 28.9
324(10) 0.01040 289.0 28.6
318(10) 0.01017 289.0 28.2
297(9) 0.01188 289.0 27.9
296(9) 0.01264 288.9 27.6
282(9) 0.01260 288.9 27.3
303(9) 0.01137 288.9 27.1
310(10) 0.01070 288.9 26.8
326(10) 0.01052 288.8 26.6
317(9) 0.01167 288.8 26.4
309(9) 0.01144 288.8 26.2
334(10) 0.01005 288.8 26.0
322(10) 0.01092 288.7 25.9
296(9) 0.01207 288.7 25.7
298(9) 0.01243 288.7 25.6
336(10) 0.01050 288.7 25.5
312(10) 0.01075 288.6 25.4
315(10) 0.01062 288.6 25.3
313(9) 0.01127 288.6 25.2
302(9) 0.01220 288.6 25.2
339(10) 0.01004 288.5 25.1
311(10) 0.01083 288.5 25.1
314(9) 0.01122 288.5 25.0
332(9) 0.01127 288.5 25.0
331(9) 0.01116 288.5 24.9
342(10) 0.01030 288.4 24.8
344(10) 0.00946 288.4 24.8
326(10) 0.01043 288.4 24.7
293(9) 0.01275 288.4 24.6
327(9) 0.01127 288.3 24.5
321(10) 0.01090 288.3 24.3
310(10) 0.01062 288.3 24.2
329(10) 0.01035 288.3 24.0
312(9) 0.01173 288.2 23.8
311(9) 0.01203 288.2 23.6
323(10) 0.01102 288.2 23.4
337(10) 0.00946 288.2 23.1
328(10) 0.01039 288.1 22.9
307(9) 0.01209 288.1 22.6
324(9) 0.01129 288.1 22.3
330(10) 0.01003 288.1 22.1
290(10) 0.01098 288.0 21.8
300(9) 0.01147 288.0 21.5
336(10) 0.01099 288.0 21.2
316(9) 0.01183 288.0 20.9
303(9) 0.01158 288.0 20.6
300(10) 0.01106 287.9 20.4
314(10) 0.01083 287.9 20.1
311(9) 0.01200 287.9 19.9
315(9) 0.01158 287.9 19.6
310(10) 0.01097 287.8 19.4
318(10) 0.01043 287.8 19.2
311(9) 0.01112 287.8 19.1
309(9) 0.01198 287.8 18.9
295(9) 0.01201 287.7 18.8
291(9) 0.01222 287.7 18.8
290(9) 0.01190 287.7 18.7
324(10) 0.01082 287.7 18.7
292(9) 0.01257 287.6 18.8
318(9) 0.01138 287.6 18.8
295(9) 0.01150 287.6 19.0
295(9) 0.01196 287.6 19.2
303(9) 0.01185 287.5 19.4
307(9) 0.01195 287.5 19.8
289(9) 0.01198 287.5 20.2
294(9) 0.01155 287.5 20.7
309(9) 0.01118 287.4 21.3
308(9) 0.01194 287.4 22.0
309(9) 0.01204 287.4 22.9
320(10) 0.01050 287.4 23.9
334(10) 0.00961 287.4 25.0
309(9) 0.01129 287.3 26.3
331(10) 0.01091 287.3 27.7
333(10) 0.01098 287.3 29.3
339(10) 0.01032 287.3 31.1
343(10) 0.00935 287.2 33.0
336(10) 0.01036 287.2 35.1
334(10) 0.01098 287.2 37.4
323(9) 0.01139 287.2 39.7
342(10) 0.01023 287.1 42.2
340(10) 0.00933 287.1 44.7
358(10) 0.00950 287.1 47.2
365(10) 0.00996 287.1 49.6
354(10) 0.01047 287.0 51.7
378(10) 0.00923 287.0 53.7
360(11) 0.00894 287.0 55.3
383(11) 0.00889 287.0 56.7
376(10) 0.00980 286.9 57.9
366(10) 0.01020 286.9 58.9
346(10) 0.01002 286.9 59.8
348(10) 0.00950 286.9 60.8
382(10) 0.00923 286.8 62.1
390(10) 0.00962 286.8 63.6
390(10) 0.00938 286.8 65.5
374(10) 0.00952 286.8 67.9
382(11) 0.00877 286.8 70.7
374(10) 0.00933 286.7 74.1
399(10) 0.00930 286.7 78.0
379(10) 0.00937 286.7 82.3
391(11) 0.00889 286.7 87.2
370(11) 0.00902 286.6 92.5
427(11) 0.00783 286.6 98.0
445(11) 0.00838 286.6 103.8
460(11) 0.00772 286.6 109.5
452(11) 0.00765 286.5 115.1
465(12) 0.00712 286.5 120.1
461(12) 0.00744 286.5 124.4
492(11) 0.00758 286.5 127.6
436(11) 0.00811 286.4 129.5
455(12) 0.00724 286.4 130.0
463(12) 0.00713 286.4 128.9
485(12) 0.00739 286.4 126.3
467(11) 0.00794 286.3 122.5
432(11) 0.00817 286.3 117.5
412(11) 0.00821 286.3 111.7
366(10) 0.00964 286.3 105.3
389(10) 0.00941 286.3 98.6
386(10) 0.00954 286.2 91.8
397(11) 0.00882 286.2 85.0
408(11) 0.00819 286.2 78.5
383(11) 0.00882 286.2 72.2
367(10) 0.00974 286.1 66.3
348(10) 0.01075 286.1 60.8
374(11) 0.00878 286.1 55.7
337(10) 0.00965 286.1 51.0
359(10) 0.00968 286.0 46.7
363(10) 0.00989 286.0 42.8
320(9) 0.01154 286.0 39.3
336(10) 0.01000 286.0 36.1
349(11) 0.00904 285.9 33.3
342(10) 0.01007 285.9 30.8
325(9) 0.01137 285.9 28.5
310(9) 0.01195 285.9 26.5
315(10) 0.01078 285.8 24.8
306(10) 0.01052 285.8 23.2
304(9) 0.01153 285.8 21.8
285(9) 0.01327 285.8 20.6
310(9) 0.01175 285.7 19.5
310(9) 0.01151 285.7 18.6
317(10) 0.01040 285.7 17.7
339(10) 0.01005 285.7 16.9
319(9) 0.01174 285.7 16.2
300(9) 0.01251 285.6 15.6
323(10) 0.01053 285.6 15.1
293(10) 0.01107 285.6 14.6
277(9) 0.01274 285.6 14.1
264(8) 0.01405 285.5 13.7
276(9) 0.01334 285.5 13.4
298(9) 0.01152 285.5 13.1
291(9) 0.01190 285.5 12.8
293(9) 0.01218 285.4 12.5
287(9) 0.01300 285.4 12.3
286(9) 0.01250 285.4 12.1
293(9) 0.01149 285.4 11.9
292(9) 0.01160 285.3 11.7
296(9) 0.01138 285.3 11.6
310(9) 0.01194 285.3 11.5
280(9) 0.01295 285.3 11.4
290(9) 0.01181 285.2 11.3
276(9) 0.01269 285.2 11.3
279(9) 0.01268 285.2 11.3
277(9) 0.01336 285.2 11.2
308(9) 0.01138 285.1 11.2
286(9) 0.01177 285.1 11.3
299(9) 0.01145 285.1 11.3
321(10) 0.01100 285.1 11.3
286(9) 0.01297 285.1 11.4
292(9) 0.01183 285.0 11.5
310(10) 0.01034 285.0 11.6
294(9) 0.01136 285.0 11.7
290(9) 0.01227 285.0 11.8
280(9) 0.01323 284.9 11.9
309(9) 0.01122 284.9 12.0
294(9) 0.01155 284.9 12.1
260(9) 0.01363 284.9 12.3
299(9) 0.01193 284.8 12.4
281(9) 0.01314 284.8 12.5
281(9) 0.01183 284.8 12.7
260(9) 0.01298 284.8 12.8
288(10) 0.01083 284.7 12.9
299(9) 0.01217 284.7 13.1
288(9) 0.01291 284.7 13.2
316(10) 0.01104 284.7 13.3
295(9) 0.01133 284.6 13.4
305(9) 0.01158 284.6 13.4
284(9) 0.01327 284.6 13.5
294(9) 0.01262 284.6 13.5
306(9) 0.01127 284.5 13.5
302(10) 0.01082 284.5 13.5
291(9) 0.01203 284.5 13.4
308(9) 0.01200 284.5 13.3
326(9) 0.01119 284.5 13.2
305(9) 0.01131 284.4 13.1
308(10) 0.01059 284.4 13.0
284(9) 0.01258 284.4 12.8
284(9) 0.01299 284.4 12.6
277(9) 0.01323 284.3 12.4
295(9) 0.01170 284.3 12.2
309(10) 0.01027 284.3 12.0
284(9) 0.01284 284.3 11.7
283(9) 0.01323 284.2 11.5
318(9) 0.01130 284.2 11.2
299(9) 0.01183 284.2 11.0
292(9) 0.01151 284.2 10.7
298(9) 0.01185 284.1 10.5
267(9) 0.01373 284.1 10.2
307(9) 0.01199 284.1 10.0
299(9) 0.01199 284.1 9.7
293(9) 0.01130 284.0 9.5
301(9) 0.01142 284.0 9.3
302(9) 0.01229 284.0 9.1
313(10) 0.01079 284.0 8.8
301(9) 0.01113 284.0 8.6
259(9) 0.01362 283.9 8.4
285(9) 0.01241 283.9 8.2
287(9) 0.01281 283.9 8.0
269(9) 0.01306 283.9 7.9
282(9) 0.01213 283.8 7.7
283(9) 0.01230 283.8 7.5
275(9) 0.01342 283.8 7.4
305(9) 0.01207 283.8 7.2
286(9) 0.01207 283.7 7.1
264(9) 0.01245 283.7 7.0
285(9) 0.01214 283.7 6.9
303(9) 0.01195 283.7 6.7
279(9) 0.01344 283.6 6.6
293(9) 0.01164 283.6 6.5
296(10) 0.01095 283.6 6.4
292(9) 0.01171 283.6 6.4
259(8) 0.01415 283.5 6.3
273(9) 0.01339 283.5 6.2
305(9) 0.01152 283.5 6.1
292(9) 0.01156 283.5 6.1
295(9) 0.01196 283.4 6.0
276(9) 0.01353 283.4 6.0
289(9) 0.01288 283.4 5.9
266(9) 0.01363 283.4 5.9
282(9) 0.01162 283.4 5.8
294(9) 0.01160 283.3 5.8
280(9) 0.01327 283.3 5.7
283(9) 0.01287 283.3 5.7
282(9) 0.01220 283.3 5.7
301(10) 0.01085 283.2 5.7
284(9) 0.01226 283.2 5.6
292(9) 0.01281 283.2 5.6
295(9) 0.01252 283.2 5.6
275(9) 0.01261 283.1 5.6
286(9) 0.01151 283.1 5.6
279(9) 0.01211 283.1 5.6
278(9) 0.01352 283.1 5.6
278(9) 0.01303 283.0 5.5
288(9) 0.01225 283.0 5.5
308(10) 0.01034 283.0 5.5
272(9) 0.01278 283.0 5.5
308(9) 0.01198 282.9 5.5
285(9) 0.01252 282.9 5.5
277(9) 0.01285 282.9 5.5
295(9) 0.01182 282.9 5.5
300(9) 0.01172 282.8 5.5
282(9) 0.01314 282.8 5.5
285(9) 0.01252 282.8 5.5
290(9) 0.01164 282.8 5.5
281(9) 0.01239 282.8 5.5
277(9) 0.01323 282.7 5.5
279(9) 0.01325 282.7 5.5
296(9) 0.01178 282.7 5.5
298(9) 0.01122 282.7 5.5
266(9) 0.01298 282.6 5.5
281(9) 0.01287 282.6 5.5
286(9) 0.01299 282.6 5.5
290(9) 0.01193 282.6 5.5
259(9) 0.01272 282.5 5.5
290(9) 0.01136 282.5 5.5
278(9) 0.01312 282.5 5.5
293(9) 0.01257 282.5 5.5
253(8) 0.01397 282.4 5.4
292(10) 0.01091 282.4 5.4
292(9) 0.01227 282.4 5.4
279(9) 0.01329 282.4 5.4
290(9) 0.01281 282.3 5.4
281(9) 0.01190 282.3 5.4
280(9) 0.01181 282.3 5.4
286(9) 0.01248 282.3 5.3
278(9) 0.01331 282.2 5.3
273(9) 0.01380 282.2 5.3
274(9) 0.01198 282.2 5.3
268(9) 0.01187 282.2 5.2
274(9) 0.01237 282.2 5.2
255(8) 0.01445 282.1 5.2
305(9) 0.01221 282.1 5.2
298(9) 0.01215 282.1 5.1
307(10) 0.01027 282.1 5.1
279(9) 0.01253 282.0 5.1
284(9) 0.01298 282.0 5.0
272(9) 0.01382 282.0 5.0
291(9) 0.01207 282.0 5.0
283(9) 0.01182 281.9 5.0
245(8) 0.01422 281.9 4.9
255(8) 0.01439 281.9 4.9
286(9) 0.01283 281.9 4.9
271(9) 0.01298 281.8 4.8
300(9) 0.01119 281.8 4.8
282(9) 0.01225 281.8 4.7
287(9) 0.01298 281.8 4.7
282(9) 0.01302 281.7 4.7
272(9) 0.01292 281.7 4.6
298(10) 0.01087 281.7 4.6
287(9) 0.01263 281.7 4.6
299(9) 0.01246 281.7 4.5
279(9) 0.01269 281.6 4.5
296(9) 0.01162 281.6 4.5
268(9) 0.01324 281.6 4.4
283(9) 0.01242 281.6 4.4
268(8) 0.01402 281.5 4.4
268(9) 0.01295 281.5 4.3
261(9) 0.01305 281.5 4.3
278(9) 0.01216 281.5 4.3
268(9) 0.01337 281.4 4.2
270(8) 0.01392 281.4 4.2
308(9) 0.01116 281.4 4.2
284(9) 0.01249 281.4 4.1
282(9) 0.01242 281.3 4.1
293(9) 0.01240 281.3 4.1
274(9) 0.01336 281.3 4.1
282(9) 0.01186 281.3 4.0
277(9) 0.01231 281.2 4.0
287(9) 0.01205 281.2 4.0
289(9) 0.01254 281.2 3.9
299(9) 0.01229 281.2 3.9
274(9) 0.01293 281.2 3.9
273(9) 0.01248 281.1 3.9
285(9) 0.01225 281.1 3.8
275(9) 0.01326 281.1 3.8
263(8) 0.01397 281.1 3.8
280(9) 0.01262 281.1 3.8
268(9) 0.01240 281.1 3.8
281(9) 0.01239 281.1 3.7
252(8) 0.01465 281.1 3.7
257(8) 0.01442 281.1 3.7
291(9) 0.01131 281.1 3.7
295(10) 0.01089 281.1 3.7
265(9) 0.01255 281.1 3.6
278(9) 0.01322 281.0 3.6
265(8) 0.01392 281.0 3.6
276(9) 0.01245 281.0 3.6
301(10) 0.01074 281.0 3.6
271(9) 0.01304 281.0 3.6
286(9) 0.01292 281.0 3.5
279(9) 0.01294 281.0 3.5
290(9) 0.01221 281.0 3.5
274(9) 0.01214 281.0 3.5
258(9) 0.01305 281.0 3.5
275(9) 0.01337 281.0 3.5
277(9) 0.01310 281.0 3.5
274(9) 0.01259 280.9 3.5
279(9) 0.01203 280.9 3.5
279(9) 0.01278 280.9 3.5
282(9) 0.01308 280.9 3.5
275(9) 0.01326 280.9 3.5
300(9) 0.01111 280.9 3.5
281(9) 0.01204 280.9 3.4
274(9) 0.01299 280.9 3.4
258(8) 0.01443 280.9 3.4
291(9) 0.01216 280.9 3.4
264(9) 0.01339 280.9 3.4
295(9) 0.01138 280.8 3.4
277(9) 0.01271 280.8 3.4
285(9) 0.01313 280.8 3.5
278(9) 0.01165 280.8 3.5
269(9) 0.01283 280.8 3.5
281(9) 0.01227 280.8 3.5
275(9) 0.01325 280.8 3.5
279(9) 0.01315 280.8 3.5
277(9) 0.01202 280.8 3.5
270(9) 0.01268 280.8 3.5
270(9) 0.01281 280.8 3.5
297(9) 0.01170 280.8 3.5
284(9) 0.01321 280.7 3.5
294(9) 0.01156 280.7 3.5
282(9) 0.01186 280.7 3.5
278(9) 0.01244 280.7 3.6
286(9) 0.01299 280.7 3.6
289(9) 0.01277 280.7 3.6
268(9) 0.01307 280.7 3.6
270(9) 0.01209 280.7 3.6
258(9) 0.01374 280.7 3.6
280(9) 0.01322 280.7 3.7
269(8) 0.01389 280.7 3.7
269(9) 0.01309 280.7 3.7
255(9) 0.01251 280.6 3.7
267(9) 0.01308 280.6 3.8
302(9) 0.01243 280.6 3.8
299(9) 0.01222 280.6 3.8
282(9) 0.01251 280.6 3.8
294(10) 0.01084 280.6 3.9
282(9) 0.01260 280.6 3.9
261(8) 0.01416 280.6 3.9
274(9) 0.01336 280.6 4.0
268(9) 0.01305 280.6 4.0
258(9) 0.01309 280.6 4.1
294(9) 0.01129 280.6 4.1
283(9) 0.01328 280.5 4.1
283(9) 0.01285 280.5 4.2
286(9) 0.01241 280.5 4.2
255(9) 0.01361 280.5 4.3
264(9) 0.01324 280.5 4.4
262(8) 0.01413 280.5 4.4
285(9) 0.01269 280.5 4.5
290(9) 0.01184 280.5 4.6
268(9) 0.01280 280.5 4.6
263(9) 0.01341 280.5 4.7
262(8) 0.01402 280.5 4.8
284(9) 0.01275 280.4 4.9
280(9) 0.01257 280.4 5.0
299(9) 0.01151 280.4 5.1
270(9) 0.01335 280.4 5.2
272(9) 0.01355 280.4 5.3
288(9) 0.01182 280.4 5.5
311(10) 0.01035 280.4 5.6
261(9) 0.01374 280.4 5.8
304(9) 0.01196 280.4 5.9
260(8) 0.01417 280.4 6.1
262(9) 0.01284 280.4 6.4
265(9) 0.01280 280.4 6.6
294(9) 0.01151 280.3 7.0
304(9) 0.01198 280.3 7.3
284(9) 0.01309 280.3 7.7
278(9) 0.01226 280.3 8.2
289(9) 0.01176 280.3 8.8
307(9) 0.01147 280.3 9.5
305(9) 0.01194 280.3 10.2
304(9) 0.01220 280.3 11.1
298(9) 0.01171 280.3 12.1
280(9) 0.01180 280.3 13.3
278(9) 0.01235 280.3 14.6
293(9) 0.01243 280.3 16.1
283(9) 0.01310 280.2 17.6
278(9) 0.01287 280.2 19.3
292(9) 0.01142 280.2 21.1
295(9) 0.01147 280.2 22.9
278(9) 0.01350 280.2 24.6
305(9) 0.01185 280.2 26.2
315(10) 0.01074 280.2 27.5
319(10) 0.01015 280.2 28.4
301(9) 0.01139 280.2 28.8
306(9) 0.01215 280.2 28.7
296(9) 0.01265 280.2 28.0
316(10) 0.01098 280.2 27.0
298(9) 0.01149 280.1 25.6
290(9) 0.01198 280.1 24.1
302(9) 0.01227 280.1 22.5
293(9) 0.01257 280.1 20.9
273(9) 0.01279 280.1 19.3
267(9) 0.01226 280.1 17.9
276(9) 0.01262 280.1 16.6
284(9) 0.01319 280.1 15.4
288(9) 0.01262 280.1 14.4
300(9) 0.01142 280.1 13.5
283(9) 0.01190 280.1 12.7
280(9) 0.01233 280.0 12.1
278(9) 0.01338 280.0 11.6
276(9) 0.01251 280.0 11.2
302(10) 0.01099 280.0 10.9
296(9) 0.01155 280.0 10.7
273(9) 0.01329 280.0 10.6
275(9) 0.01337 280.0 10.5
261(8) 0.01396 280.0 10.5
276(9) 0.01258 280.0 10.5
289(9) 0.01210 280.0 10.5
292(9) 0.01213 280.0 10.6
285(9) 0.01308 280.0 10.8
293(9) 0.01234 279.9 11.0
299(9) 0.01134 279.9 11.2
309(10) 0.01098 279.9 11.4
286(9) 0.01287 279.9 11.7
296(9) 0.01251 279.9 12.1
293(9) 0.01196 279.9 12.5
285(9) 0.01178 279.9 12.9
288(9) 0.01250 279.9 13.4
274(9) 0.01301 279.9 13.9
271(8) 0.01387 279.9 14.5
291(9) 0.01142 279.9 15.1
270(9) 0.01228 279.9 15.8
272(9) 0.01257 279.8 16.5
275(9) 0.01337 279.8 17.3
297(9) 0.01260 279.8 18.2
285(9) 0.01286 279.8 19.1
298(10) 0.01066 279.8 20.1
277(9) 0.01289 279.8 21.0
304(9) 0.01200 279.8 22.1
302(9) 0.01213 279.8 23.1
290(9) 0.01245 279.8 24.1
282(9) 0.01188 279.8 25.1
312(10) 0.01094 279.8 26.1
325(9) 0.01136 279.8 27.0
308(9) 0.01197 279.7 27.7
309(9) 0.01110 279.7 28.4
295(9) 0.01130 279.7 28.8
305(9) 0.01164 279.7 29.2
340(10) 0.01081 279.7 29.3
308(9) 0.01199 279.7 29.3
299(9) 0.01197 279.7 29.1
281(9) 0.01228 279.7 28.9
291(9) 0.01206 279.7 28.6
285(9) 0.01284 279.7 28.2
306(9) 0.01183 279.7 27.8
299(9) 0.01130 279.6 27.4
301(10) 0.01099 279.6 27.1
299(9) 0.01171 279.6 26.8
318(9) 0.01184 279.6 26.6
290(9) 0.01239 279.6 26.5
296(9) 0.01140 279.6 26.4
318(10) 0.01007 279.6 26.5
286(9) 0.01217 279.6 26.6
302(9) 0.01235 279.6 26.8
319(9) 0.01110 279.6 27.2
292(9) 0.01168 279.6 27.6
310(10) 0.01093 279.6 28.2
312(9) 0.01173 279.5 28.8
319(9) 0.01163 279.5 29.6
309(10) 0.01081 279.5 30.5
305(9) 0.01112 279.5 31.5
317(10) 0.01072 279.5 32.5
320(9) 0.01135 279.5 33.7
295(9) 0.01255 279.5 35.0
313(9) 0.01137 279.5 36.4
302(10) 0.01103 279.5 38.0
310(10) 0.01086 279.5 39.6
312(9) 0.01151 279.5 41.3
324(9) 0.01151 279.5 43.1
328(10) 0.01069 279.4 45.0
321(10) 0.01034 279.4 47.0
329(10) 0.01067 279.4 49.0
342(10) 0.01059 279.4 51.2
353(10) 0.01061 279.4 53.4
343(10) 0.01044 279.4 55.6
345(10) 0.00972 279.4 57.9
337(10) 0.01059 279.4 60.2
334(10) 0.01105 279.4 62.5
339(10) 0.01086 279.4 64.7
324(10) 0.01106 279.4 66.9
347(10) 0.00949 279.4 69.0
355(10) 0.01013 279.3 70.9
398(10) 0.00933 279.3 72.7
365(10) 0.01006 279.3 74.3
346(10) 0.01012 279.3 75.7
369(11) 0.00899 279.3 76.8
362(10) 0.00982 279.3 77.7
383(10) 0.00966 279.3 78.3
373(10) 0.00984 279.3 78.5
366(10) 0.00937 279.3 78.5
378(11) 0.00871 279.3 78.2
351(10) 0.01016 279.3 77.6
355(10) 0.01045 279.2 76.7
377(10) 0.00971 279.2 75.6
361(10) 0.00949 279.2 74.3
339(10) 0.00984 279.2 72.9
338(10) 0.00969 279.2 71.3
350(10) 0.01067 279.2 69.7
360(10) 0.00985 279.2 68.0
350(10) 0.01019 279.2 66.2
343(10) 0.00993 279.2 64.4
340(10) 0.01039 279.2 62.6
357(10) 0.01042 279.2 60.8
352(10) 0.00988 279.2 59.1
316(10) 0.01084 279.1 57.3
332(10) 0.00997 279.1 55.7
339(10) 0.01054 279.1 54.1
339(10) 0.01088 279.1 52.5
342(10) 0.01028 279.1 51.0
326(10) 0.01036 279.1 49.6
327(10) 0.00992 279.1 48.2
323(9) 0.01118 279.1 46.9
325(9) 0.01156 279.1 45.6
341(10) 0.01014 279.1 44.4
330(10) 0.01017 279.1 43.3
318(9) 0.01132 279.1 42.2
315(9) 0.01144 279.0 41.1
320(9) 0.01142 279.0 40.1
313(9) 0.01129 279.0 39.1
303(10) 0.01106 279.0 38.2
318(10) 0.01057 279.0 37.3
308(9) 0.01185 279.0 36.4
307(9) 0.01221 279.0 35.6
337(10) 0.01033 279.0 34.8
339(10) 0.00925 279.0 34.0
306(9) 0.01158 279.0 33.3
329(9) 0.01124 279.0 32.6
317(9) 0.01163 279.0 31.8
317(9) 0.01118 278.9 31.1
311(10) 0.01049 278.9 30.5
314(9) 0.01152 278.9 29.8
314(9) 0.01189 278.9 29.2
322(9) 0.01113 278.9 28.5
292(9) 0.01217 278.9 27.9
286(9) 0.01130 278.9 27.3
294(9) 0.01172 278.9 26.7
315(9) 0.01188 278.9 26.1
311(9) 0.01155 278.9 25.6
322(10) 0.01076 278.9 25.0
301(10) 0.01090 278.8 24.5
305(9) 0.01140 278.8 23.9
285(9) 0.01289 278.8 23.4
272(9) 0.01363 278.8 22.9
269(9) 0.01292 278.8 22.4
291(9) 0.01133 278.8 21.9
296(9) 0.01177 278.8 21.5
289(9) 0.01279 278.8 21.0
301(9) 0.01170 278.8 20.6
303(9) 0.01118 278.8 20.1
299(9) 0.01151 278.8 19.7
308(9) 0.01132 278.8 19.3
295(9) 0.01245 278.7 18.9
291(9) 0.01212 278.7 18.5
300(9) 0.01148 278.7 18.1
294(9) 0.01145 278.7 17.8
295(10) 0.01095 278.7 17.4
297(9) 0.01260 278.7 17.1
293(9) 0.01233 278.7 16.8
302(9) 0.01134 278.7 16.4
288(9) 0.01189 278.7 16.1
278(9) 0.01277 278.7 15.9
283(9) 0.01331 278.7 15.6
298(9) 0.01109 278.7 15.3
270(9) 0.01288 278.6 15.1
287(9) 0.01194 278.6 14.8
285(9) 0.01255 278.6 14.6
288(9) 0.01285 278.6 14.4
285(9) 0.01182 278.6 14.2
305(10) 0.01046 278.6 14.0
288(9) 0.01243 278.6 13.8
290(9) 0.01281 278.6 13.6
299(9) 0.01252 278.6 13.5
276(9) 0.01274 278.6 13.3
281(9) 0.01186 278.6 13.2
290(9) 0.01245 278.6 13.1
300(9) 0.01233 278.5 13.0
296(9) 0.01258 278.5 12.9
301(9) 0.01205 278.5 12.8
301(10) 0.01088 278.5 12.7
284(9) 0.01283 278.5 12.7
288(9) 0.01289 278.5 12.6
290(9) 0.01272 278.5 12.6
256(8) 0.01393 278.5 12.6
278(10) 0.01098 278.5 12.5
292(9) 0.01140 278.5 12.5
286(9) 0.01295 278.5 12.6
268(8) 0.01387 278.4 12.6
311(10) 0.01095 278.4 12.6
306(10) 0.01089 278.4 12.7
276(9) 0.01277 278.4 12.7
277(9) 0.01327 278.4 12.8
281(9) 0.01327 278.4 12.9
301(9) 0.01127 278.4 13.0
311(10) 0.01045 278.4 13.1
283(9) 0.01228 278.4 13.2
291(9) 0.01268 278.4 13.3
298(9) 0.01217 278.4 13.4
282(9) 0.01233 278.4 13.5
259(9) 0.01292 278.3 13.6
300(10) 0.01081 278.3 13.8
286(9) 0.01296 278.3 13.9
264(8) 0.01385 278.3 14.0
292(9) 0.01147 278.3 14.2
270(9) 0.01258 278.3 14.3
288(9) 0.01210 278.3 14.4
288(9) 0.01300 278.3 14.6
312(9) 0.01148 278.3 14.7
302(10) 0.01103 278.3 14.8
277(9) 0.01238 278.3 14.9
272(9) 0.01328 278.3 14.9
298(9) 0.01233 278.2 15.0
292(9) 0.01159 278.2 15.1
296(9) 0.01156 278.2 15.1
280(9) 0.01231 278.2 15.2
295(9) 0.01190 278.2 15.2
276(9) 0.01340 278.2 15.3
319(10) 0.01070 278.2 15.3
301(10) 0.01081 278.2 15.3
297(9) 0.01156 278.2 15.3
266(9) 0.01376 278.2 15.3
269(8) 0.01386 278.2 15.4
281(9) 0.01281 278.2 15.4
290(9) 0.01139 278.1 15.4
287(9) 0.01269 278.1 15.4
283(9) 0.01282 278.1 15.5
316(9) 0.01180 278.1 15.5
300(9) 0.01160 278.1 15.5
278(9) 0.01161 278.1 15.6
289(9) 0.01138 278.1 15.6
292(9) 0.01261 278.1 15.7
307(9) 0.01215 278.1 15.7
310(9) 0.01149 278.1 15.8
282(9) 0.01119 278.1 15.8
289(9) 0.01199 278.0 15.9
286(9) 0.01296 278.0 15.9
284(9) 0.01282 278.0 16.0
303(9) 0.01125 278.0 16.1
299(10) 0.01106 278.0 16.1
310(10) 0.01068 278.0 16.2
311(9) 0.01182 278.0 16.2
286(9) 0.01295 278.0 16.3
298(9) 0.01130 278.0 16.3
278(9) 0.01203 278.0 16.4
290(9) 0.01180 278.0 16.4
285(9) 0.01299 278.0 16.5
293(9) 0.01220 277.9 16.5
301(9) 0.01124 277.9 16.6
304(10) 0.01101 277.9 16.6
297(9) 0.01165 277.9 16.7
272(9) 0.01355 277.9 16.7
292(9) 0.01245 277.9 16.7
269(9) 0.01301 277.9 16.8
307(10) 0.01102 277.9 16.8
288(9) 0.01229 277.9 16.9
291(9) 0.01275 277.9 16.9
319(9) 0.01110 277.9 16.9
301(9) 0.01147 277.9 17.0
279(9) 0.01224 277.8 17.0
300(9) 0.01153 277.8 17.1
294(9) 0.01254 277.8 17.1
297(9) 0.01175 277.8 17.2
280(9) 0.01199 277.8 17.2
287(9) 0.01168 277.8 17.3
280(9) 0.01303 277.8 17.4
300(9) 0.01223 277.8 17.5
311(9) 0.01113 277.8 17.6
307(10) 0.01100 277.8 17.7
301(9) 0.01194 277.8 17.8
296(9) 0.01247 277.8 18.0
283(9) 0.01315 277.7 18.2
291(9) 0.01185 277.7 18.4
287(9) 0.01128 277.7 18.7
279(9) 0.01273 277.7 19.0
294(9) 0.01254 277.7 19.4
299(9) 0.01238 277.7 19.8
305(9) 0.01142 277.7 20.4
286(9) 0.01136 277.7 21.0
277(9) 0.01300 277.7 21.7
279(9) 0.01307 277.7 22.6
290(9) 0.01294 277.7 23.6
278(9) 0.01231 277.6 24.8
289(10) 0.01073 277.6 26.1
284(9) 0.01242 277.6 27.6
316(9) 0.01167 277.6 29.3
338(10) 0.01080 277.6 31.2
321(10) 0.01069 277.6 33.2
284(9) 0.01163 277.6 35.3
305(10) 0.01092 277.6 37.5
330(9) 0.01123 277.6 39.7
353(10) 0.01028 277.6 41.8
319(10) 0.01061 277.6 43.7
329(10) 0.00997 277.6 45.3
363(10) 0.00950 277.5 46.4
354(10) 0.01049 277.5 46.9
370(10) 0.00954 277.5 46.8
355(10) 0.00972 277.5 46.2
345(10) 0.00985 277.5 45.1
337(10) 0.01024 277.5 43.6
328(9) 0.01123 277.5 41.9
305(9) 0.01175 277.5 40.1
297(9) 0.01204 277.5 38.3
324(10) 0.01052 277.5 36.6
335(10) 0.01061 277.5 35.1
305(9) 0.01212 277.5 33.7
329(10) 0.01052 277.4 32.4
318(10) 0.01074 277.4 31.4
306(9) 0.01149 277.4 30.4
317(9) 0.01111 277.4 29.6
293(9) 0.01262 277.4 28.9
311(9) 0.01127 277.4 28.3
302(9) 0.01145 277.4 27.7
310(9) 0.01120 277.4 27.0
292(9) 0.01248 277.4 26.4
300(9) 0.01228 277.4 25.8
299(9) 0.01128 277.4 25.2
296(10) 0.01101 277.4 24.6
300(9) 0.01149 277.3 24.0
289(9) 0.01253 277.3 23.4
298(9) 0.01256 277.3 22.9
307(9) 0.01123 277.3 22.5
273(9) 0.01240 277.3 22.0
295(9) 0.01152 277.3 21.7
304(9) 0.01192 277.3 21.3
287(9) 0.01259 277.3 21.0
287(9) 0.01210 277.3 20.8
274(9) 0.01169 277.3 20.6
285(9) 0.01201 277.3 20.4
271(9) 0.01369 277.3 20.2
286(9) 0.01311 277.2 20.1
289(9) 0.01167 277.2 20.0
308(10) 0.01011 277.2 20.0
296(9) 0.01165 277.2 19.9
279(9) 0.01337 277.2 19.9
285(9) 0.01253 277.2 19.9
289(9) 0.01179 277.2 19.9
287(9) 0.01118 277.2 19.9
279(9) 0.01239 277.2 20.0
299(9) 0.01210 277.2 20.0
309(9) 0.01150 277.2 20.1
261(9) 0.01374 277.1 20.2
279(9) 0.01164 277.1 20.3
286(9) 0.01160 277.1 20.4
291(9) 0.01286 277.1 20.5
273(9) 0.01325 277.1 20.6
308(10) 0.01086 277.1 20.8
263(9) 0.01296 277.1 20.9
278(9) 0.01191 277.1 21.1
298(9) 0.01236 277.1 21.3
322(9) 0.01111 277.1 21.4
277(9) 0.01269 277.1 21.6
286(9) 0.01190 277.1 21.8
302(9) 0.01147 277.0 22.0
298(9) 0.01263 277.0 22.2
272(9) 0.01287 277.0 22.5
307(9) 0.01119 277.0 22.7
284(9) 0.01233 277.0 23.0
298(9) 0.01167 277.0 23.2
280(9) 0.01327 277.0 23.5
294(9) 0.01180 277.0 23.7
291(9) 0.01152 277.0 24.0
300(9) 0.01149 277.0 24.3
286(9) 0.01265 277.0 24.6
274(9) 0.01341 277.0 24.9
301(9) 0.01183 276.9 25.2
311(10) 0.01096 276.9 25.6
321(10) 0.01102 276.9 25.9
298(9) 0.01233 276.9 26.3
297(9) 0.01239 276.9 26.6
293(9) 0.01188 276.9 27.0
297(9) 0.01124 276.9 27.4
312(9) 0.01127 276.9 27.7
313(9) 0.01172 276.9 28.1
302(9) 0.01233 276.9 28.4
277(9) 0.01255 276.9 28.8
285(9) 0.01113 276.9 29.1
301(9) 0.01153 276.8 29.3
320(9) 0.01120 276.8 29.6
315(9) 0.01180 276.8 29.8
299(9) 0.01150 276.8 30.0
305(10) 0.01047 276.8 30.2
298(9) 0.01188 276.8 30.4
303(9) 0.01201 276.8 30.7
287(9) 0.01294 276.8 31.0
297(9) 0.01184 276.8 31.5
318(10) 0.01001 276.8 32.1
310(9) 0.01126 276.8 32.8
305(9) 0.01205 276.7 33.8
306(9) 0.01186 276.7 34.9
313(9) 0.01128 276.7 36.4
317(10) 0.01076 276.7 38.1
322(10) 0.01050 276.7 40.2
311(9) 0.01209 276.7 42.5
306(9) 0.01186 276.7 45.2
330(10) 0.01072 276.7 48.2
350(10) 0.00933 276.7 51.5
322(10) 0.01080 276.7 55.0
360(10) 0.01030 276.7 58.5
343(10) 0.01046 276.7 62.0
358(10) 0.00975 276.6 65.2
359(10) 0.00949 276.6 67.8
341(10) 0.01014 276.6 69.7
331(9) 0.01133 276.6 70.6
350(10) 0.00995 276.6 70.7
313(10) 0.01101 276.6 69.8
341(10) 0.00971 276.6 68.3
333(10) 0.01053 276.6 66.3
343(10) 0.01085 276.6 64.1
343(10) 0.01026 276.6 61.6
327(10) 0.01022 276.6 59.1
307(10) 0.01075 276.6 56.6
312(9) 0.01140 276.5 54.1
332(9) 0.01120 276.5 51.7
327(10) 0.01076 276.5 49.5
344(10) 0.00965 276.5 47.3
308(9) 0.01150 276.5 45.4
303(9) 0.01208 276.5 43.5
320(9) 0.01152 276.5 41.8
317(10) 0.01084 276.5 40.3
297(9) 0.01133 276.5 39.0
268(9) 0.01371 276.5 37.8
294(9) 0.01226 276.5 36.7
310(9) 0.01215 276.5 35.8
304(9) 0.01179 276.4 35.0
287(9) 0.01161 276.4 34.4
300(9) 0.01167 276.4 34.0
295(9) 0.01231 276.4 33.7
284(9) 0.01317 276.4 33.5
314(9) 0.01120 276.4 33.5
316(10) 0.01062 276.4 33.6
324(10) 0.01094 276.4 33.9
285(9) 0.01296 276.4 34.3
305(9) 0.01201 276.4 34.9
301(9) 0.01162 276.4 35.6
310(10) 0.01044 276.3 36.5
299(9) 0.01110 276.3 37.5
299(9) 0.01233 276.3 38.7
318(9) 0.01141 276.3 40.0
307(9) 0.01178 276.3 41.3
316(10) 0.01041 276.3 42.9
314(10) 0.01067 276.3 44.5
339(10) 0.01081 276.3 46.1
302(9) 0.01181 276.3 47.9
323(10) 0.01066 276.3 49.7
312(10) 0.01074 276.3 51.5
320(10) 0.01098 276.3 53.2
328(9) 0.01141 276.2 54.9
320(10) 0.01103 276.2 56.5
339(10) 0.00976 276.2 58.0
323(10) 0.01037 276.2 59.3
322(10) 0.01068 276.2 60.3
320(9) 0.01158 276.2 61.1
344(10) 0.01054 276.2 61.6
348(10) 0.00980 276.2 61.8
328(10) 0.01040 276.2 61.6
315(9) 0.01136 276.2 61.0
312(9) 0.01194 276.2 60.1
303(9) 0.01170 276.2 58.9
293(9) 0.01190 276.1 57.4
313(9) 0.01122 276.1 55.6
331(10) 0.01090 276.1 53.6
314(9) 0.01172 276.1 51.5
297(9) 0.01205 276.1 49.2
317(10) 0.01048 276.1 46.9
314(9) 0.01120 276.1 44.6
328(10) 0.01107 276.1 42.4
307(9) 0.01210 276.1 40.1
298(9) 0.01182 276.1 37.9
280(9) 0.01220 276.1 35.8
295(9) 0.01196 276.1 33.8
306(9) 0.01147 276.0 31.9
317(9) 0.01171 276.0 30.1
290(9) 0.01229 276.0 28.4
302(10) 0.01060 276.0 26.8
276(9) 0.01222 276.0 25.3
287(9) 0.01269 276.0 24.0
300(9) 0.01250 276.0 22.7
272(9) 0.01285 276.0 21.5
298(10) 0.01059 276.0 20.4
277(9) 0.01260 276.0 19.4
324(9) 0.01152 276.0 18.5
282(9) 0.01309 275.9 17.7
268(9) 0.01293 275.9 17.0
288(10) 0.01094 275.9 16.3
270(9) 0.01324 275.9 15.7
256(8) 0.01454 275.9 15.1
275(9) 0.01357 275.9 14.7
270(9) 0.01302 275.9 14.2
290(10) 0.01099 275.9 13.8
292(9) 0.01175 275.9 13.5
265(8) 0.01419 275.9 13.2
305(9) 0.01188 275.9 13.0
302(9) 0.01174 275.9 12.8
288(9) 0.01133 275.8 12.6
266(9) 0.01316 275.8 12.5
269(9) 0.01365 275.8 12.4
272(9) 0.01311 275.8 12.3
269(9) 0.01306 275.8 12.3
286(9) 0.01166 275.8 12.3
264(9) 0.01346 275.8 12.3
271(9) 0.01364 275.8 12.4
252(8) 0.01417 275.8 12.5
278(9) 0.01227 275.8 12.6
284(9) 0.01170 275.8 12.7
294(9) 0.01190 275.8 12.8
260(8) 0.01401 275.7 13.0
292(9) 0.01197 275.7 13.1
287(9) 0.01220 275.7 13.3
268(9) 0.01295 275.7 13.4
267(9) 0.01292 275.7 13.6
264(8) 0.01400 275.7 13.7
277(9) 0.01199 275.7 13.8
290(9) 0.01133 275.7 13.9
280(9) 0.01248 275.7 13.9
268(9) 0.01339 275.7 13.9
274(9) 0.01345 275.7 13.9
267(9) 0.01336 275.7 13.8
284(9) 0.01200 275.6 13.7
268(9) 0.01346 275.6 13.5
278(9) 0.01303 275.6 13.3
257(8) 0.01423 275.6 13.1
256(8) 0.01394 275.6 12.8
271(9) 0.01228 275.6 12.5
281(9) 0.01232 275.6 12.2
283(9) 0.01268 275.6 11.9
263(8) 0.01400 275.6 11.6
274(9) 0.01251 275.6 11.3
283(9) 0.01146 275.6 11.0
272(9) 0.01319 275.5 10.7
302(9) 0.01224 275.5 10.4
284(9) 0.01303 275.5 10.1
266(9) 0.01325 275.5 9.9
279(9) 0.01187 275.5 9.6
296(9) 0.01157 275.5 9.4
276(9) 0.01350 275.5 9.2
265(9) 0.01375 275.5 9.0
258(9) 0.01380 275.5 8.8
270(9) 0.01182 275.5 8.6
272(9) 0.01231 275.5 8.5
279(9) 0.01327 275.5 8.4
262(8) 0.01396 275.4 8.2
260(9) 0.01373 275.4 8.1
300(9) 0.01115 275.4 8.0
272(9) 0.01302 275.4 8.0
280(9) 0.01353 275.4 7.9
297(9) 0.01216 275.4 7.8
277(9) 0.01289 275.4 7.8
266(9) 0.01246 275.4 7.8
284(9) 0.01205 275.4 7.7
274(9) 0.01356 275.4 7.7
265(8) 0.01387 275.4 7.7
270(9) 0.01255 275.3 7.8
276(9) 0.01192 275.3 7.8
267(9) 0.01328 275.3 7.8
283(9) 0.01308 275.3 7.9
281(9) 0.01282 275.3 7.9
286(9) 0.01172 275.3 8.0
277(9) 0.01191 275.3 8.1
282(9) 0.01212 275.3 8.2
259(8) 0.01413 275.3 8.3
270(9) 0.01294 275.3 8.4
253(9) 0.01338 275.3 8.5
267(9) 0.01294 275.2 8.6
251(8) 0.01417 275.2 8.8
243(8) 0.01506 275.2 8.9
272(9) 0.01290 275.2 9.1
278(9) 0.01220 275.2 9.3
246(8) 0.01457 275.2 9.5
265(8) 0.01385 275.2 9.7
264(8) 0.01411 275.2 10.0
290(9) 0.01244 275.2 10.2
290(9) 0.01162 275.2 10.5
294(9) 0.01160 275.2 10.8
261(8) 0.01444 275.1 11.1
286(9) 0.01279 275.1 11.5
285(9) 0.01172 275.1 11.9
250(9) 0.01313 275.1 12.3
278(9) 0.01162 275.1 12.7
275(9) 0.01324 275.1 13.2
277(9) 0.01351 275.1 13.6
272(9) 0.01275 275.1 14.2
254(9) 0.01347 275.1 14.7
273(9) 0.01328 275.1 15.3
298(9) 0.01244 275.1 15.9
307(9) 0.01205 275.0 16.6
268(9) 0.01297 275.0 17.3
274(9) 0.01149 275.0 18.0
280(9) 0.01244 275.0 18.8
296(9) 0.01263 275.0 19.6
296(9) 0.01225 275.0 20.5
290(9) 0.01167 275.0 21.3
274(9) 0.01170 275.0 22.3
276(9) 0.01184 275.0 23.2
306(9) 0.01207 275.0 24.2
296(9) 0.01219 275.0 25.3
276(9) 0.01233 274.9 26.4
301(10) 0.01079 274.9 27.5
315(10) 0.01093 274.9 28.6
306(9) 0.01212 274.9 29.7
324(10) 0.01090 274.9 30.9
305(10) 0.01082 274.9 32.1
299(9) 0.01160 274.9 33.3
299(9) 0.01161 274.9 34.5
292(9) 0.01266 274.9 35.6
309(9) 0.01158 274.9 36.8
337(10) 0.01000 274.8 37.8
335(10) 0.01009 274.8 38.9
305(9) 0.01162 274.8 39.9
290(9) 0.01275 274.8 40.8
321(10) 0.01092 274.8 41.6
306(9) 0.01149 274.8 42.3
312(10) 0.01103 274.8 42.8
283(9) 0.01236 274.8 43.3
310(9) 0.01198 274.8 43.6
313(9) 0.01119 274.8 43.7
315(10) 0.01060 274.8 43.7
324(10) 0.01048 274.7 43.6
318(9) 0.01147 274.7 43.3
322(9) 0.01135 274.7 42.9
305(9) 0.01155 274.7 42.3
305(10) 0.01098 274.7 41.7
308(9) 0.01118 274.7 40.9
315(9) 0.01149 274.7 40.0
293(9) 0.01262 274.7 39.0
314(10) 0.01066 274.7 38.0
282(9) 0.01179 274.7 37.0
285(9) 0.01175 274.7 35.8
268(8) 0.01389 274.6 34.7
284(9) 0.01294 274.6 33.6
286(9) 0.01241 274.6 32.4
274(9) 0.01202 274.6 31.3
289(9) 0.01192 274.6 30.1
286(9) 0.01311 274.6 29.0
301(9) 0.01251 274.6 27.9
304(9) 0.01129 274.6 26.9
309(10) 0.01012 274.6 25.8
285(9) 0.01242 274.6 24.8
282(9) 0.01296 274.6 23.9
286(9) 0.01290 274.5 22.9
270(9) 0.01259 274.5 22.1
283(9) 0.01120 274.5 21.2
273(9) 0.01245 274.5 20.4
270(8) 0.01385 274.5 19.7
296(9) 0.01245 274.5 18.9
305(10) 0.01102 274.5 18.3
293(9) 0.01112 274.5 17.6
271(9) 0.01272 274.5 17.0
277(9) 0.01328 274.5 16.4
286(9) 0.01272 274.5 15.9
291(9) 0.01182 274.4 15.4
282(9) 0.01128 274.4 15.0
270(9) 0.01270 274.4 14.6
270(9) 0.01352 274.4 14.2
278(9) 0.01305 274.4 13.8
269(9) 0.01302 274.4 13.5
296(9) 0.01140 274.4 13.2
308(9) 0.01115 274.4 13.0
280(9) 0.01332 274.4 12.7
294(9) 0.01156 274.4 12.5
288(9) 0.01183 274.4 12.4
279(9) 0.01230 274.3 12.2
267(9) 0.01320 274.3 12.1
283(9) 0.01310 274.3 12.0
270(9) 0.01301 274.3 11.9
269(9) 0.01281 274.3 11.9
273(9) 0.01252 274.3 11.9
288(9) 0.01248 274.3 11.9
271(9) 0.01362 274.3 12.0
275(9) 0.01250 274.3 12.0
290(9) 0.01129 274.3 12.2
308(10) 0.01098 274.3 12.3
280(9) 0.01308 274.2 12.5
281(9) 0.01314 274.2 12.7
289(9) 0.01244 274.2 12.9
295(9) 0.01136 274.2 13.2
286(9) 0.01211 274.2 13.5
266(8) 0.01386 274.2 13.9
283(9) 0.01307 274.2 14.3
296(9) 0.01136 274.2 14.7
280(9) 0.01163 274.2 15.2
284(9) 0.01231 274.2 15.7
271(9) 0.01375 274.2 16.3
285(9) 0.01286 274.1 16.9
273(9) 0.01251 274.1 17.6
313(10) 0.01013 274.1 18.4
327(10) 0.01077 274.1 19.2
301(9) 0.01227 274.1 20.0
284(9) 0.01311 274.1 20.9
289(9) 0.01220 274.1 21.9
278(9) 0.01171 274.1 22.9
278(9) 0.01249 274.1 24.0
285(9) 0.01311 274.1 25.1
301(9) 0.01232 274.1 26.3
298(9) 0.01148 274.0 27.5
314(10) 0.01065 274.0 28.7
333(10) 0.01007 274.0 30.0
291(9) 0.01263 274.0 31.3
298(9) 0.01219 274.0 32.6
302(9) 0.01150 274.0 33.8
307(10) 0.01076 274.0 35.1
295(9) 0.01172 274.0 36.2
288(9) 0.01294 274.0 37.3
297(9) 0.01184 274.0 38.3
334(10) 0.01016 274.0 39.2
307(9) 0.01152 273.9 39.9
312(9) 0.01132 273.9 40.4
322(9) 0.01149 273.9 40.8
318(9) 0.01124 273.9 41.0
293(9) 0.01193 273.9 40.9
300(9) 0.01140 273.9 40.7
299(9) 0.01153 273.9 40.2
287(9) 0.01293 273.9 39.6
295(9) 0.01203 273.9 38.9
296(9) 0.01184 273.9 38.0
325(10) 0.01049 273.9 37.0
297(9) 0.01227 273.8 35.9
339(10) 0.01094 273.8 34.7
299(9) 0.01120 273.8 33.5
287(9) 0.01155 273.8 32.3
287(9) 0.01230 273.8 31.0
310(9) 0.01191 273.8 29.8
284(9) 0.01315 273.8 28.6
283(9) 0.01234 273.8 27.4
294(9) 0.01117 273.8 26.3
285(9) 0.01236 273.8 25.2
278(9) 0.01323 273.8 24.2
274(9) 0.01380 273.7 23.2
300(9) 0.01152 273.7 22.3
295(10) 0.01097 273.7 21.5
279(9) 0.01283 273.7 20.7
290(9) 0.01295 273.7 19.9
291(9) 0.01272 273.7 19.3
280(9) 0.01276 273.7 18.7
284(9) 0.01194 273.7 18.1
285(9) 0.01204 273.7 17.6
306(9) 0.01189 273.7 17.1
271(9) 0.01351 273.7 16.7
276(9) 0.01208 273.6 16.4
273(9) 0.01148 273.6 16.1
292(9) 0.01200 273.6 15.8
295(9) 0.01238 273.6 15.6
275(9) 0.01334 273.6 15.5
275(9) 0.01294 273.6 15.3
275(9) 0.01205 273.6 15.2
277(9) 0.01273 273.6 15.2
282(9) 0.01326 273.6 15.2
308(9) 0.01149 273.6 15.2
294(9) 0.01159 273.6 15.2
290(10) 0.01101 273.5 15.3
287(9) 0.01208 273.5 15.4
290(9) 0.01276 273.5 15.5
308(9) 0.01160 273.5 15.6
317(10) 0.01089 273.5 15.8
289(9) 0.01200 273.5 15.9
297(9) 0.01200 273.5 16.1
309(9) 0.01200 273.5 16.3
289(9) 0.01238 273.5 16.5
290(9) 0.01183 273.5 16.7
297(9) 0.01128 273.5 16.9
303(9) 0.01149 273.4 17.1
303(9) 0.01227 273.4 17.3
298(9) 0.01166 273.4 17.5
274(9) 0.01261 273.4 17.7
302(9) 0.01148 273.4 17.9
298(9) 0.01206 273.4 18.1
295(9) 0.01251 273.4 18.3
290(9) 0.01172 273.4 18.4
302(10) 0.01084 273.4 18.6
311(10) 0.01093 273.4 18.7
301(9) 0.01163 273.4 18.8
295(9) 0.01246 273.3 18.8
297(9) 0.01189 273.3 18.9
301(10) 0.01076 273.3 18.9
287(9) 0.01203 273.3 18.9
311(9) 0.01155 273.3 18.8
286(9) 0.01313 273.3 18.7
278(9) 0.01242 273.3 18.6
300(10) 0.01084 273.3 18.5
291(9) 0.01194 273.3 18.4
275(9) 0.01366 273.3 18.2
297(9) 0.01248 273.3 18.0
316(10) 0.01084 273.2 17.8
291(9) 0.01119 273.2 17.6
276(9) 0.01287 273.2 17.3
297(9) 0.01230 273.2 17.1
283(9) 0.01309 273.2 16.8
302(9) 0.01141 273.2 16.5
287(9) 0.01140 273.2 16.2
293(9) 0.01160 273.2 15.9
310(9) 0.01200 273.2 15.7
274(9) 0.01365 273.2 15.4
278(9) 0.01258 273.2 15.1
287(9) 0.01112 273.1 14.8
279(9) 0.01269 273.1 14.5
281(9) 0.01302 273.1 14.3
270(9) 0.01373 273.1 14.0
299(9) 0.01145 273.1 13.8
272(9) 0.01239 273.1 13.5
288(10) 0.01092 273.1 13.3
304(9) 0.01245 273.1 13.1
300(9) 0.01201 273.1 12.9
295(9) 0.01158 273.1 12.7
297(9) 0.01140 273.1 12.5
287(9) 0.01192 273.0 12.3
290(9) 0.01285 273.0 12.2
261(9) 0.01365 273.0 12.0
264(9) 0.01274 273.0 11.9
283(9) 0.01187 273.0 11.8
275(9) 0.01300 273.0 11.7
276(9) 0.01351 273.0 11.6
273(9) 0.01282 273.0 11.6
303(10) 0.01100 273.0 11.5
279(9) 0.01244 273.0 11.5
279(9) 0.01301 273.0 11.4
282(9) 0.01310 272.9 11.4
281(9) 0.01266 272.9 11.5
278(9) 0.01244 272.9 11.5
269(9) 0.01291 272.9 11.5
277(9) 0.01283 272.9 11.6
270(9) 0.01370 272.9 11.6
269(9) 0.01311 272.9 11.7
294(9) 0.01138 272.9 11.8
276(9) 0.01284 272.9 12.0
271(9) 0.01356 272.9 12.1
283(9) 0.01303 272.9 12.2
284(9) 0.01216 272.8 12.4
286(9) 0.01140 272.8 12.6
284(9) 0.01233 272.8 12.8
254(8) 0.01457 272.8 13.0
259(8) 0.01452 272.8 13.2
275(9) 0.01269 272.8 13.5
281(9) 0.01154 272.8 13.7
269(9) 0.01328 272.8 14.0
289(9) 0.01275 272.8 14.3
263(8) 0.01425 272.8 14.6
287(9) 0.01226 272.8 14.9
285(9) 0.01122 272.7 15.2
291(9) 0.01171 272.7 15.6
295(9) 0.01269 272.7 15.9
271(9) 0.01373 272.7 16.3
290(9) 0.01193 272.7 16.7
291(9) 0.01113 272.7 17.1
267(9) 0.01306 272.7 17.5
286(9) 0.01292 272.7 17.9
287(9) 0.01275 272.7 18.3
308(10) 0.01100 272.7 18.7
305(10) 0.01106 272.7 19.2
273(9) 0.01317 272.6 19.6
299(9) 0.01252 272.6 20.0
291(9) 0.01231 272.6 20.5
288(9) 0.01156 272.6 20.9
282(9) 0.01172 272.6 21.4
308(10) 0.01080 272.6 21.8
308(9) 0.01211 272.6 22.2
277(9) 0.01286 272.6 22.6
302(9) 0.01111 272.6 23.0
277(9) 0.01289 272.6 23.4
301(9) 0.01176 272.6 23.8
277(9) 0.01341 272.5 24.1
284(9) 0.01221 272.5 24.4
283(9) 0.01178 272.5 24.7
286(9) 0.01224 272.5 25.0
320(10) 0.01107 272.5 25.2
312(9) 0.01186 272.5 25.4
315(10) 0.01088 272.5 25.6
281(9) 0.01208 272.5 25.7
267(9) 0.01339 272.5 25.7
301(9) 0.01184 272.5 25.8
274(9) 0.01348 272.5 25.8
316(10) 0.01081 272.4 25.7
315(10) 0.01071 272.4 25.6
284(9) 0.01236 272.4 25.5
299(9) 0.01211 272.4 25.3
281(9) 0.01314 272.4 25.1
299(9) 0.01119 272.4 24.9
302(10) 0.01092 272.4 24.6
303(9) 0.01149 272.4 24.3
304(9) 0.01207 272.4 24.0
307(9) 0.01202 272.4 23.6
281(9) 0.01224 272.4 23.2
272(9) 0.01223 272.3 22.8
286(9) 0.01252 272.3 22.4
280(9) 0.01348 272.3 22.0
261(8) 0.01426 272.3 21.6
302(9) 0.01195 272.3 21.2
294(10) 0.01094 272.3 20.7
284(9) 0.01236 272.3 20.3
278(9) 0.01330 272.3 19.8
271(9) 0.01375 272.3 19.4
295(9) 0.01175 272.3 19.0
289(9) 0.01134 272.2 18.5
286(9) 0.01211 272.2 18.1
289(9) 0.01276 272.2 17.7
275(9) 0.01360 272.2 17.3
279(9) 0.01204 272.2 16.9
271(9) 0.01180 272.2 16.5
274(9) 0.01273 272.2 16.1
287(9) 0.01293 272.2 15.7
274(9) 0.01305 272.2 15.4
270(9) 0.01297 272.2 15.0
280(9) 0.01192 272.2 14.7
272(9) 0.01331 272.1 14.4
281(9) 0.01312 272.1 14.0
255(8) 0.01430 272.1 13.7
280(9) 0.01198 272.1 13.5
275(9) 0.01231 272.1 13.2
277(9) 0.01290 272.1 12.9
297(9) 0.01250 272.1 12.7
265(9) 0.01380 272.1 12.4
280(9) 0.01233 272.1 12.2
283(9) 0.01194 272.1 12.0
283(9) 0.01263 272.1 11.8
300(9) 0.01238 272.0 11.6
269(9) 0.01377 272.0 11.4
272(9) 0.01255 272.0 11.3
271(9) 0.01253 272.0 11.1
271(9) 0.01333 272.0 11.0
283(9) 0.01316 272.0 10.8
271(9) 0.01243 272.0 10.7
265(9) 0.01267 272.0 10.6
282(9) 0.01217 272.0 10.5
274(9) 0.01354 272.0 10.4
274(9) 0.01351 272.0 10.3
268(9) 0.01236 271.9 10.3
264(9) 0.01222 271.9 10.2
266(9) 0.01299 271.9 10.2
273(9) 0.01363 271.9 10.1
292(9) 0.01277 271.9 10.1
286(9) 0.01185 271.9 10.1
275(9) 0.01151 271.9 10.0
284(9) 0.01230 271.9 10.0
269(9) 0.01371 271.9 10.0
280(9) 0.01339 271.9 10.0
265(9) 0.01294 271.9 10.1
279(9) 0.01175 271.8 10.1
298(9) 0.01144 271.8 10.1
273(9) 0.01374 271.8 10.2
265(8) 0.01386 271.8 10.2
271(9) 0.01298 271.8 10.3
279(9) 0.01186 271.8 10.3
304(9) 0.01127 271.8 10.4
272(9) 0.01327 271.8 10.5
299(9) 0.01183 271.8 10.6
272(9) 0.01277 271.8 10.7
266(9) 0.01249 271.8 10.8
276(9) 0.01199 271.7 10.9
275(9) 0.01321 271.7 11.0
285(9) 0.01264 271.7 11.1
261(9) 0.01354 271.7 11.3
259(9) 0.01294 271.7 11.4
266(9) 0.01227 271.7 11.5
248(8) 0.01466 271.7 11.7
272(9) 0.01346 271.7 11.9
264(9) 0.01306 271.7 12.0
268(9) 0.01243 271.7 12.2
261(9) 0.01338 271.7 12.4
260(8) 0.01431 271.7 12.5
265(9) 0.01318 271.7 12.7
256(9) 0.01318 271.7 12.9
272(9) 0.01227 271.7 13.1
281(9) 0.01243 271.7 13.3
251(8) 0.01479 271.7 13.5
264(9) 0.01331 271.7 13.7
277(9) 0.01223 271.7 13.9
272(9) 0.01259 271.7 14.1
266(9) 0.01360 271.7 14.2
291(9) 0.01279 271.7 14.4
279(9) 0.01267 271.7 14.6
281(9) 0.01212 271.7 14.8
267(9) 0.01329 271.7 14.9
274(9) 0.01327 271.7 15.1
274(9) 0.01319 271.7 15.2
270(9) 0.01228 271.7 15.3
281(9) 0.01146 271.7 15.4
304(10) 0.01103 271.7 15.5
271(9) 0.01357 271.7 15.6
280(9) 0.01309 271.7 15.7
289(9) 0.01170 271.7 15.8
278(9) 0.01232 271.7 15.8
290(9) 0.01218 271.7 15.9
300(9) 0.01184 271.7 15.9
272(9) 0.01366 271.7 16.0
286(9) 0.01208 271.7 16.0
262(9) 0.01242 271.7 16.1
265(9) 0.01331 271.7 16.1
287(9) 0.01287 271.7 16.1
298(9) 0.01272 271.7 16.2
281(9) 0.01291 271.7 16.2
267(9) 0.01238 271.7 16.3
282(9) 0.01166 271.7 16.3
274(9) 0.01362 271.7 16.4
284(9) 0.01296 271.7 16.5
300(9) 0.01146 271.7 16.6
302(9) 0.01119 271.7 16.7
301(9) 0.01162 271.7 16.8
266(8) 0.01397 271.7 17.0
257(8) 0.01416 271.7 17.2
282(9) 0.01222 271.7 17.4
292(9) 0.01165 271.7 17.6
289(9) 0.01244 271.7 18.0
311(9) 0.01194 271.7 18.4
298(9) 0.01202 271.7 18.9
281(9) 0.01283 271.7 19.6
303(9) 0.01131 271.7 20.5
297(9) 0.01122 271.7 21.6
304(9) 0.01219 271.7 23.1
291(9) 0.01260 271.7 24.9
320(10) 0.01050 271.7 27.1
283(9) 0.01194 271.7 29.7
288(9) 0.01211 271.7 32.7
338(10) 0.01104 271.7 36.1
295(9) 0.01248 271.7 39.6
342(10) 0.00988 271.7 43.1
302(9) 0.01175 271.7 46.4
299(9) 0.01190 271.7 48.9
335(9) 0.01121 271.7 50.5
308(9) 0.01136 271.7 50.7
313(10) 0.01071 271.7 49.5
324(10) 0.01035 271.7 47.3
312(9) 0.01146 271.7 44.2
301(9) 0.01237 271.7 40.8
325(10) 0.01024 271.7 37.3
294(9) 0.01118 271.7 34.0
296(9) 0.01141 271.7 31.0
292(9) 0.01269 271.7 28.3
278(9) 0.01334 271.7 26.0
298(9) 0.01185 271.7 24.2
314(10) 0.01063 271.7 22.7
297(9) 0.01172 271.7 21.4
306(9) 0.01198 271.7 20.5
285(9) 0.01337 271.7 19.7
312(9) 0.01136 271.7 19.1
297(10) 0.01098 271.7 18.6
300(9) 0.01146 271.7 18.2
276(9) 0.01340 271.7 17.8
309(9) 0.01209 271.7 17.5
294(9) 0.01215 271.7 17.2
306(10) 0.01065 271.7 16.9
304(9) 0.01141 271.7 16.7
295(9) 0.01267 271.7 16.4
296(9) 0.01245 271.7 16.1
289(9) 0.01194 271.7 15.9
278(9) 0.01192 271.7 15.6
290(9) 0.01190 271.7 15.4
289(9) 0.01282 271.7 15.1
291(9) 0.01289 271.7 14.9
286(9) 0.01204 271.7 14.7
282(9) 0.01152 271.7 14.4
291(9) 0.01180 271.7 14.2
301(9) 0.01226 271.7 14.0
271(9) 0.01346 271.7 13.8
280(9) 0.01258 271.7 13.5
306(10) 0.01073 271.7 13.3
277(9) 0.01238 271.7 13.1
301(9) 0.01249 271.7 12.9
279(9) 0.01323 271.7 12.7
270(9) 0.01301 271.7 12.5
271(9) 0.01284 271.7 12.3
284(9) 0.01261 271.7 12.1
273(9) 0.01357 271.7 11.9
268(9) 0.01333 271.7 11.7
281(9) 0.01202 271.7 11.5
269(9) 0.01291 271.7 11.3
264(9) 0.01353 271.7 11.2
290(9) 0.01277 271.7 11.0
280(9) 0.01291 271.7 10.8
297(9) 0.01117 271.7 10.7
283(9) 0.01207 271.7 10.5
273(9) 0.01286 271.7 10.4
280(9) 0.01339 271.7 10.2
287(9) 0.01217 271.7 10.1
265(9) 0.01266 271.7 9.9
243(8) 0.01457 271.7 9.8
292(9) 0.01199 271.7 9.7
281(9) 0.01328 271.7 9.6
269(9) 0.01311 271.7 9.4
286(9) 0.01138 271.7 9.3
271(9) 0.01303 271.7 9.2
273(9) 0.01345 271.7 9.1
253(8) 0.01471 271.7 9.0
303(9) 0.01122 271.7 8.9
268(9) 0.01253 271.7 8.8
269(9) 0.01296 271.7 8.8
275(9) 0.01364 271.7 8.7
307(9) 0.01181 271.7 8.6
271(9) 0.01329 271.7 8.5
297(10) 0.01071 271.7 8.5
291(9) 0.01157 271.7 8.4
273(8) 0.01399 271.7 8.4
284(9) 0.01311 271.7 8.3
278(9) 0.01296 271.7 8.3
282(9) 0.01153 271.7 8.2
290(9) 0.01196 271.7 8.2
292(9) 0.01281 271.7 8.2
277(9) 0.01352 271.7 8.1
268(9) 0.01361 271.7 8.1
286(9) 0.01161 271.7 8.1
307(9) 0.01124 271.7 8.1
278(9) 0.01347 271.7 8.1
282(9) 0.01245 271.7 8.1
285(9) 0.01220 271.7 8.1
289(9) 0.01144 271.7 8.1
291(9) 0.01185 271.7 8.1
281(9) 0.01320 271.7 8.1
292(9) 0.01262 271.7 8.1
270(9) 0.01321 271.7 8.1
263(9) 0.01290 271.7 8.2
253(9) 0.01373 271.7 8.2
272(9) 0.01369 271.7 8.3
273(9) 0.01327 271.7 8.3
296(9) 0.01153 271.7 8.4
284(9) 0.01201 271.7 8.4
265(9) 0.01323 271.7 8.5
275(9) 0.01359 271.7 8.6
261(9) 0.01361 271.7 8.7
272(9) 0.01226 271.7 8.8
270(9) 0.01288 271.7 8.9
262(9) 0.01381 271.7 9.0
294(9) 0.01261 271.7 9.2
285(9) 0.01246 271.7 9.4
270(9) 0.01260 271.7 9.6
287(9) 0.01191 271.7 9.8
282(9) 0.01285 271.7 10.1
267(8) 0.01387 271.7 10.5
264(9) 0.01271 271.7 10.9
269(9) 0.01226 271.7 11.4
270(9) 0.01302 271.7 12.1
289(9) 0.01297 271.7 13.0
294(9) 0.01255 271.7 14.1
295(9) 0.01157 271.7 15.5
290(9) 0.01148 271.7 17.2
302(9) 0.01164 271.7 19.3
295(9) 0.01248 271.7 21.8
299(9) 0.01235 271.7 24.7
308(9) 0.01155 271.7 28.1
306(10) 0.01075 271.7 31.9
307(9) 0.01144 271.7 36.0
333(9) 0.01110 271.7 40.2
321(9) 0.01149 271.7 44.4
330(10) 0.01041 271.7 48.2
318(10) 0.00981 271.7 51.3
314(10) 0.01093 271.7 53.2
322(9) 0.01151 271.7 53.7
313(9) 0.01176 271.7 52.7
307(9) 0.01130 271.7 50.3
326(10) 0.01052 271.7 46.8
337(10) 0.01024 271.7 42.8
283(9) 0.01307 271.7 38.5
297(9) 0.01237 271.7 34.3
306(9) 0.01130 271.7 30.3
292(9) 0.01160 271.7 26.6
287(9) 0.01206 271.7 23.4
281(9) 0.01324 271.7 20.6
262(9) 0.01362 271.7 18.2
283(9) 0.01233 271.7 16.3
289(9) 0.01146 271.7 14.7
279(9) 0.01224 271.7 13.4
261(8) 0.01403 271.7 12.4
260(8) 0.01423 271.7 11.6
271(9) 0.01247 271.7 10.9
269(9) 0.01289 271.7 10.4
278(9) 0.01239 271.7 10.0
259(8) 0.01438 271.7 9.7
266(9) 0.01309 271.7 9.4
263(9) 0.01315 271.7 9.1
276(9) 0.01223 271.7 8.9
281(9) 0.01250 271.7 8.8
272(9) 0.01349 271.7 8.6
294(9) 0.01208 271.7 8.5
266(9) 0.01293 271.7 8.3
252(9) 0.01334 271.7 8.2
279(9) 0.01293 271.7 8.1
278(9) 0.01335 271.7 8.0
280(9) 0.01260 271.7 8.0
262(9) 0.01313 271.7 7.9
260(9) 0.01355 271.7 7.8
276(9) 0.01322 271.7 7.7
289(9) 0.01270 271.7 7.7
273(9) 0.01228 271.7 7.6
281(9) 0.01123 271.7 7.6
280(9) 0.01262 271.7 7.5
280(9) 0.01298 271.7 7.5
276(9) 0.01358 271.7 7.5
268(9) 0.01229 271.7 7.4
269(9) 0.01188 271.7 7.4
277(9) 0.01298 271.7 7.4
296(9) 0.01250 271.7 7.4
270(9) 0.01328 271.7 7.3
272(9) 0.01257 271.7 7.3
284(9) 0.01113 271.7 7.3
283(9) 0.01235 271.7 7.3
277(9) 0.01350 271.7 7.3
276(9) 0.01347 271.7 7.3
263(9) 0.01341 271.7 7.3
293(10) 0.01100 271.7 7.3
290(9) 0.01214 271.7 7.3
300(9) 0.01229 271.7 7.4
265(8) 0.01385 271.7 7.4
277(9) 0.01268 271.7 7.5
287(9) 0.01195 271.7 7.6
279(9) 0.01223 271.7 7.8
298(9) 0.01250 271.7 8.0
277(9) 0.01342 271.7 8.2
260(8) 0.01406 271.7 8.5
301(9) 0.01142 271.7 8.8
274(9) 0.01261 271.7 9.1
295(9) 0.01259 271.7 9.5
297(9) 0.01199 271.7 9.9
299(9) 0.01140 271.7 10.3
291(9) 0.01134 271.7 10.7
289(9) 0.01226 271.7 11.1
293(9) 0.01287 271.7 11.3
263(9) 0.01344 271.7 11.5
286(9) 0.01181 271.7 11.5
284(9) 0.01194 271.7 11.4
284(9) 0.01269 271.7 11.1
275(9) 0.01344 271.7 10.7
269(9) 0.01293 271.7 10.3
262(9) 0.01290 271.7 9.8
276(9) 0.01249 271.7 9.3
291(9) 0.01225 271.7 8.9
298(9) 0.01241 271.7 8.5
278(9) 0.01202 271.7 8.1
299(9) 0.01112 271.7 7.7
289(9) 0.01216 271.7 7.4
271(9) 0.01343 271.7 7.2
270(9) 0.01381 271.7 7.0
282(9) 0.01205 271.7 6.8
290(9) 0.01163 271.7 6.7
276(9) 0.01248 271.7 6.5
279(9) 0.01342 271.7 6.4
280(9) 0.01321 271.7 6.4
284(9) 0.01212 271.7 6.3
267(9) 0.01236 271.7 6.2
286(9) 0.01189 271.7 6.2
265(9) 0.01365 271.7 6.1
275(9) 0.01339 271.7 6.1
270(9) 0.01249 271.7 6.1
284(10) 0.01107 271.7 6.0
268(9) 0.01319 271.7 6.0
268(9) 0.01369 271.7 6.0
262(8) 0.01406 271.7 6.0
276(9) 0.01215 271.7 6.0
278(9) 0.01162 271.7 6.0
270(9) 0.01278 271.7 6.0
268(9) 0.01352 271.7 6.0
275(9) 0.01329 271.7 6.0
279(9) 0.01232 271.7 6.0
279(9) 0.01175 271.7 6.0
272(9) 0.01249 271.7 6.0
263(8) 0.01426 271.7 6.0
274(9) 0.01325 271.7 6.0
288(9) 0.01128 271.7 6.0
262(9) 0.01264 271.7 6.1
274(9) 0.01251 271.7 6.1
281(9) 0.01322 271.7 6.1
290(9) 0.01265 271.7 6.1
271(9) 0.01296 271.7 6.2
252(9) 0.01300 271.7 6.2
265(9) 0.01347 271.8 6.2
275(9) 0.01353 271.8 6.3
260(9) 0.01311 271.8 6.3
277(9) 0.01196 271.8 6.4
274(9) 0.01253 271.8 6.4
255(8) 0.01426 271.9 6.5
262(8) 0.01406 271.9 6.5
279(9) 0.01248 271.9 6.6
291(9) 0.01148 271.9 6.7
278(9) 0.01269 271.9 6.7
265(9) 0.01361 272.0 6.8
293(9) 0.01278 272.0 6.9
285(9) 0.01201 272.0 6.9
300(9) 0.01108 272.0 7.0
278(9) 0.01282 272.1 7.1
290(9) 0.01264 272.1 7.2
282(9) 0.01325 272.1 7.3
286(9) 0.01199 272.1 7.4
277(9) 0.01204 272.1 7.5
260(8) 0.01397 272.2 7.6
277(9) 0.01308 272.2 7.7
295(9) 0.01265 272.2 7.9
281(9) 0.01184 272.2 8.0
284(9) 0.01175 272.2 8.1
288(9) 0.01240 272.3 8.3
316(9) 0.01172 272.3 8.4
275(9) 0.01351 272.3 8.6
282(9) 0.01195 272.3 8.8
303(10) 0.01068 272.4 8.9
286(9) 0.01253 272.4 9.1
293(9) 0.01252 272.4 9.3
284(9) 0.01301 272.4 9.5
276(9) 0.01262 272.4 9.8
287(9) 0.01121 272.5 10.0
279(9) 0.01232 272.5 10.3
289(9) 0.01254 272.5 10.6
264(8) 0.01409 272.5 10.9
297(10) 0.01106 272.5 11.2
265(9) 0.01237 272.6 11.6
260(9) 0.01311 272.6 12.0
253(8) 0.01465 272.6 12.4
275(9) 0.01320 272.6 12.9
290(9) 0.01195 272.6 13.4
304(9) 0.01126 272.7 13.9
304(9) 0.01111 272.7 14.5
280(9) 0.01328 272.7 15.2
284(9) 0.01254 272.7 15.9
272(9) 0.01204 272.8 16.7
293(9) 0.01192 272.8 17.5
302(9) 0.01239 272.8 18.4
287(9) 0.01272 272.8 19.3
283(9) 0.01247 272.8 20.3
302(9) 0.01121 272.9 21.3
298(9) 0.01194 272.9 22.4
310(9) 0.01212 272.9 23.4
302(9) 0.01165 272.9 24.5
303(9) 0.01146 272.9 25.5
293(9) 0.01224 273.0 26.4
325(10) 0.01082 273.0 27.2
305(9) 0.01228 273.0 27.9
304(9) 0.01160 273.0 28.5
319(10) 0.01062 273.1 28.8
341(10) 0.01042 273.1 29.0
304(9) 0.01208 273.1 29.0
274(9) 0.01336 273.1 28.8
329(10) 0.01079 273.1 28.4
307(10) 0.01082 273.2 27.9
287(9) 0.01191 273.2 27.3
299(9) 0.01188 273.2 26.6
303(9) 0.01232 273.2 25.9
283(9) 0.01252 273.2 25.1
276(9) 0.01213 273.3 24.3
321(10) 0.01091 273.3 23.5
307(9) 0.01198 273.3 22.7
291(9) 0.01267 273.3 21.9
279(9) 0.01189 273.3 21.1
270(9) 0.01177 273.4 20.4
290(9) 0.01158 273.4 19.8
301(9) 0.01225 273.4 19.2
294(9) 0.01260 273.4 18.6
294(9) 0.01182 273.5 18.0
283(9) 0.01137 273.5 17.6
294(9) 0.01172 273.5 17.1
289(9) 0.01282 273.5 16.7
301(9) 0.01247 273.5 16.3
286(9) 0.01226 273.6 15.9
280(9) 0.01217 273.6 15.6
296(9) 0.01217 273.6 15.3
281(9) 0.01303 273.6 15.0
278(9) 0.01349 273.6 14.8
295(9) 0.01165 273.7 14.5
275(9) 0.01230 273.7 14.3
289(9) 0.01246 273.7 14.1
289(9) 0.01294 273.7 13.9
306(9) 0.01216 273.8 13.7
286(9) 0.01229 273.8 13.5
306(10) 0.01081 273.8 13.4
281(9) 0.01263 273.8 13.2
298(9) 0.01260 273.8 13.0
292(9) 0.01207 273.9 12.9
272(9) 0.01300 273.9 12.7
282(9) 0.01243 273.9 12.6
304(9) 0.01200 273.9 12.5
298(9) 0.01241 273.9 12.3
291(9) 0.01177 274.0 12.2
286(9) 0.01223 274.0 12.1
290(9) 0.01217 274.0 12.0
268(9) 0.01324 274.0 11.8
267(9) 0.01383 274.0 11.7
283(9) 0.01234 274.1 11.6
278(9) 0.01203 274.1 11.5
277(9) 0.01238 274.1 11.4
281(9) 0.01288 274.1 11.3
274(9) 0.01363 274.2 11.2
283(9) 0.01214 274.2 11.1
284(9) 0.01192 274.2 11.0
286(9) 0.01260 274.2 10.9
305(9) 0.01162 274.2 10.8
281(9) 0.01330 274.3 10.7
269(9) 0.01280 274.3 10.7
289(10) 0.01094 274.3 10.6
257(9) 0.01334 274.3 10.5
280(9) 0.01343 274.3 10.4
261(8) 0.01435 274.4 10.3
269(9) 0.01318 274.4 10.3
285(9) 0.01126 274.4 10.2
295(9) 0.01196 274.4 10.1
272(9) 0.01371 274.5 10.1
264(8) 0.01421 274.5 10.0
291(9) 0.01165 274.5 9.9
305(10) 0.01046 274.5 9.9
306(10) 0.01102 274.5 9.8
287(9) 0.01279 274.6 9.8
280(9) 0.01316 274.6 9.7
290(9) 0.01215 274.6 9.6
268(9) 0.01200 274.6 9.6
272(9) 0.01284 274.6 9.5
288(9) 0.01291 274.7 9.5
277(9) 0.01312 274.7 9.4
293(9) 0.01196 274.7 9.4
278(9) 0.01233 274.7 9.3
286(9) 0.01208 274.8 9.3
303(9) 0.01217 274.8 9.2
293(9) 0.01244 274.8 9.2
279(9) 0.01169 274.8 9.1
268(9) 0.01209 274.8 9.1
281(9) 0.01243 274.9 9.0
278(9) 0.01323 274.9 9.0
270(9) 0.01321 274.9 9.0
304(9) 0.01133 274.9 8.9
281(9) 0.01183 274.9 8.9
280(9) 0.01196 275.0 8.8
277(9) 0.01358 275.0 8.8
271(9) 0.01240 275.0 8.8
291(9) 0.01187 275.0 8.7
290(9) 0.01170 275.0 8.7
277(9) 0.01303 275.1 8.6
297(9) 0.01252 275.1 8.6
284(9) 0.01207 275.1 8.6
280(9) 0.01223 275.1 8.6
268(9) 0.01320 275.2 8.5
279(9) 0.01309 275.2 8.5
304(9) 0.01230 275.2 8.5
293(9) 0.01160 275.2 8.5
283(9) 0.01180 275.2 8.5
283(9) 0.01223 275.3 8.5
300(9) 0.01203 275.3 8.5
283(9) 0.01314 275.3 8.5
279(9) 0.01261 275.3 8.5
279(9) 0.01245 275.3 8.5
281(9) 0.01220 275.4 8.5
292(9) 0.01225 275.4 8.5
291(9) 0.01289 275.4 8.5
288(9) 0.01163 275.4 8.6
290(10) 0.01102 275.5 8.6
288(9) 0.01181 275.5 8.7
274(9) 0.01371 275.5 8.7
272(9) 0.01361 275.5 8.8
283(9) 0.01247 275.5 8.9
277(9) 0.01174 275.6 8.9
273(9) 0.01331 275.6 9.0
292(9) 0.01252 275.6 9.1
286(9) 0.01286 275.6 9.3
271(9) 0.01310 275.6 9.4
292(9) 0.01120 275.7 9.6
296(9) 0.01202 275.7 9.8
296(9) 0.01260 275.7 10.0
268(9) 0.01376 275.7 10.3
267(9) 0.01313 275.7 10.6
276(9) 0.01224 275.8 11.0
307(9) 0.01151 275.8 11.5
282(9) 0.01322 275.8 12.0
313(9) 0.01140 275.8 12.7
280(9) 0.01258 275.9 13.4
296(9) 0.01122 275.9 14.3
292(9) 0.01158 275.9 15.4
279(9) 0.01342 275.9 16.6
315(10) 0.01058 275.9 17.9
287(9) 0.01208 276.0 19.4
290(9) 0.01133 276.0 21.1
305(10) 0.01094 276.0 22.8
286(9) 0.01281 276.0 24.6
290(9) 0.01256 276.0 26.5
292(9) 0.01193 276.1 28.3
299(9) 0.01149 276.1 29.9
286(9) 0.01264 276.1 31.2
322(9) 0.01160 276.1 32.1
317(9) 0.01110 276.2 32.6
300(9) 0.01120 276.2 32.5
290(9) 0.01210 276.2 31.9
297(9) 0.01177 276.2 30.9
286(9) 0.01322 276.2 29.7
292(9) 0.01189 276.3 28.2
304(9) 0.01124 276.3 26.7
288(9) 0.01216 276.3 25.2
286(9) 0.01290 276.3 23.8
282(9) 0.01327 276.3 22.6
291(9) 0.01204 276.4 21.4
296(9) 0.01159 276.4 20.4
281(9) 0.01255 276.4 19.6
302(9) 0.01182 276.4 18.9
285(9) 0.01305 276.4 18.4
289(9) 0.01189 276.5 18.1
311(10) 0.01038 276.5 17.8
286(9) 0.01246 276.5 17.7
310(9) 0.01180 276.5 17.7
294(9) 0.01274 276.6 17.8
291(9) 0.01219 276.6 18.0
315(10) 0.00966 276.6 18.3
295(9) 0.01143 276.6 18.7
297(9) 0.01251 276.6 19.2
293(9) 0.01271 276.7 19.8
283(9) 0.01168 276.7 20.5
301(10) 0.01075 276.7 21.3
298(9) 0.01181 276.7 22.3
298(9) 0.01258 276.7 23.5
300(9) 0.01220 276.8 24.9
315(9) 0.01123 276.8 26.5
306(10) 0.01104 276.8 28.3
292(9) 0.01156 276.8 30.5
292(9) 0.01277 276.9 33.0
337(10) 0.01037 276.9 35.9
337(10) 0.01034 276.9 39.1
342(10) 0.00989 276.9 42.6
318(9) 0.01109 276.9 46.5
334(9) 0.01111 277.0 50.7
334(10) 0.01051 277.0 55.1
347(10) 0.00999 277.0 59.7
337(10) 0.00990 277.0 64.3
336(10) 0.01045 277.0 68.6
360(10) 0.01026 277.1 72.5
344(10) 0.01051 277.1 75.7
341(10) 0.01011 277.1 78.0
331(10) 0.01055 277.1 79.2
318(9) 0.01131 277.2 79.2
342(10) 0.01096 277.2 78.2
347(10) 0.01019 277.2 76.3
345(10) 0.00989 277.2 73.9
327(10) 0.01066 277.2 71.1
344(10) 0.01041 277.3 68.3
339(10) 0.01092 277.3 65.6
338(10) 0.01021 277.3 63.2
301(9) 0.01159 277.3 61.1
311(9) 0.01134 277.3 59.3
339(10) 0.01045 277.4 57.9
324(9) 0.01150 277.4 56.7
318(10) 0.01064 277.4 55.7
334(10) 0.00991 277.4 54.7
338(10) 0.01012 277.4 53.6
329(10) 0.01089 277.5 52.4
327(9) 0.01131 277.5 50.9
297(9) 0.01189 277.5 49.1
306(9) 0.01117 277.5 47.2
312(9) 0.01142 277.6 45.0
323(9) 0.01139 277.6 42.8
301(9) 0.01240 277.6 40.7
302(9) 0.01189 277.6 38.6
311(10) 0.01075 277.6 36.6
326(10) 0.01060 277.7 34.8
300(9) 0.01241 277.7 33.2
291(9) 0.01279 277.7 31.8
309(9) 0.01125 277.7 30.6
313(10) 0.01021 277.7 29.6
319(10) 0.01071 277.8 28.8
302(9) 0.01238 277.8 28.2
306(9) 0.01147 277.8 27.8
308(9) 0.01133 277.8 27.5
306(10) 0.01039 277.9 27.4
300(9) 0.01202 277.9 27.5
343(10) 0.01077 277.9 27.6
344(10) 0.01048 277.9 27.9
317(9) 0.01122 277.9 28.3
299(9) 0.01144 278.0 28.8
281(9) 0.01255 278.0 29.4
315(9) 0.01170 278.0 30.1
320(9) 0.01156 278.0 30.8
318(10) 0.01101 278.0 31.6
292(9) 0.01169 278.1 32.5
302(10) 0.01095 278.1 33.3
301(9) 0.01227 278.1 34.3
321(10) 0.01106 278.1 35.2
297(9) 0.01147 278.1 36.1
287(9) 0.01195 278.2 37.1
296(9) 0.01210 278.2 38.0
294(9) 0.01283 278.2 38.8
311(9) 0.01117 278.2 39.6
317(10) 0.01078 278.3 40.4
300(9) 0.01152 278.3 41.1
300(9) 0.01223 278.3 41.7
302(9) 0.01228 278.3 42.2
302(10) 0.01072 278.3 42.6
322(10) 0.01005 278.4 42.9
308(9) 0.01114 278.4 43.1
312(9) 0.01117 278.4 43.2
303(9) 0.01236 278.4 43.1
303(9) 0.01149 278.4 42.9
288(9) 0.01197 278.5 42.6
312(9) 0.01141 278.5 42.2
316(9) 0.01181 278.5 41.6
327(9) 0.01134 278.5 40.9
311(10) 0.01106 278.6 40.2
305(10) 0.01107 278.6 39.3
316(10) 0.01097 278.6 38.4
311(9) 0.01209 278.6 37.4
312(9) 0.01194 278.6 36.4
297(9) 0.01214 278.7 35.3
311(10) 0.01029 278.7 34.3
297(9) 0.01196 278.7 33.2
308(9) 0.01187 278.7 32.1
326(9) 0.01134 278.7 31.1
315(9) 0.01120 278.8 30.1
292(9) 0.01119 278.8 29.1
302(9) 0.01171 278.8 28.1
315(9) 0.01200 278.8 27.2
293(9) 0.01262 278.8 26.4
288(9) 0.01199 278.9 25.6
294(10) 0.01072 278.9 24.8
302(9) 0.01152 278.9 24.1
302(9) 0.01250 278.9 23.5
318(9) 0.01136 279.0 22.9
303(9) 0.01149 279.0 22.3
287(9) 0.01185 279.0 21.8
304(9) 0.01145 279.0 21.3
294(9) 0.01252 279.0 20.9
302(9) 0.01217 279.1 20.5
274(9) 0.01298 279.1 20.2
283(9) 0.01174 279.1 19.9
270(9) 0.01284 279.1 19.6
294(9) 0.01249 279.1 19.3
289(9) 0.01258 279.2 19.0
291(9) 0.01194 279.2 18.8
301(10) 0.01104 279.2 18.6
301(9) 0.01156 279.2 18.4
321(9) 0.01155 279.3 18.3
306(9) 0.01130 279.3 18.1
314(10) 0.01073 279.3 18.0
294(9) 0.01193 279.3 18.0
304(9) 0.01146 279.3 17.9
310(9) 0.01202 279.4 18.0
325(10) 0.01097 279.4 18.1
304(9) 0.01136 279.4 18.2
296(9) 0.01220 279.4 18.5
315(9) 0.01139 279.4 18.8
301(9) 0.01234 279.5 19.2
297(9) 0.01121 279.5 19.8
292(9) 0.01138 279.5 20.5
304(9) 0.01130 279.5 21.3
283(9) 0.01302 279.6 22.2
293(9) 0.01286 279.6 23.3
288(9) 0.01193 279.6 24.5
330(10) 0.00962 279.6 25.9
304(9) 0.01163 279.6 27.5
323(9) 0.01146 279.7 29.1
321(9) 0.01139 279.7 31.0
320(10) 0.01106 279.7 32.9
316(10) 0.01047 279.7 34.9
314(10) 0.01092 279.7 36.9
350(10) 0.01043 279.8 39.0
326(9) 0.01157 279.8 40.9
343(10) 0.01008 279.8 42.7
354(11) 0.00883 279.8 44.1
367(10) 0.00912 279.8 45.3
368(10) 0.01011 279.9 45.9
350(10) 0.01052 279.9 46.1
321(10) 0.01095 279.9 45.8
320(10) 0.01028 279.9 45.0
322(10) 0.01096 280.0 43.8
322(9) 0.01148 280.0 42.2
330(9) 0.01109 280.0 40.4
327(10) 0.01058 280.0 38.4
314(10) 0.01037 280.0 36.4
309(9) 0.01118 280.1 34.4
333(9) 0.01108 280.1 32.4
308(9) 0.01208 280.1 30.5
299(9) 0.01148 280.1 28.8
304(10) 0.01072 280.1 27.1
315(10) 0.01060 280.2 25.7
324(9) 0.01145 280.2 24.4
307(9) 0.01172 280.2 23.3
315(10) 0.01054 280.2 22.4
306(10) 0.01089 280.3 21.6
305(9) 0.01148 280.3 21.0
330(9) 0.01128 280.3 20.5
317(9) 0.01146 280.3 20.3
303(10) 0.01093 280.3 20.2
289(9) 0.01154 280.4 20.2
311(9) 0.01141 280.4 20.4
310(9) 0.01206 280.4 20.7
321(10) 0.01077 280.4 21.1
309(9) 0.01120 280.4 21.7
297(9) 0.01150 280.5 22.4
309(9) 0.01172 280.5 23.3
304(9) 0.01224 280.5 24.2
310(10) 0.01072 280.5 25.3
322(10) 0.01059 280.5 26.5
324(10) 0.01090 280.6 27.9
319(9) 0.01141 280.6 29.3
309(9) 0.01189 280.6 30.9
325(10) 0.01060 280.6 32.5
327(10) 0.01039 280.7 34.2
320(9) 0.01110 280.7 36.0
314(9) 0.01182 280.7 37.9
339(10) 0.01088 280.7 39.7
333(10) 0.01032 280.7 41.6
291(9) 0.01153 280.8 43.4
319(10) 0.01041 280.8 45.1
328(9) 0.01114 280.8 46.6
317(9) 0.01174 280.8 48.0
319(10) 0.01017 280.8 49.1
338(10) 0.00926 280.9 50.0
321(9) 0.01111 280.9 50.5
298(9) 0.01248 280.9 50.7
323(9) 0.01145 280.9 50.5
306(9) 0.01159 281.0 49.9
313(10) 0.01010 281.0 49.0
304(9) 0.01174 281.0 47.8
325(9) 0.01142 281.0 46.4
315(9) 0.01154 281.0 44.8
306(9) 0.01174 281.1 43.0
327(10) 0.01017 281.1 41.1
321(10) 0.01103 281.1 39.1
331(9) 0.01132 281.1 37.2
298(9) 0.01202 281.1 35.2
320(10) 0.01077 281.2 33.3
288(9) 0.01223 281.2 31.5
307(10) 0.01108 281.2 29.7
292(9) 0.01264 281.2 28.1
304(9) 0.01189 281.2 26.5
297(9) 0.01209 281.3 25.0
310(10) 0.01089 281.3 23.7
298(9) 0.01157 281.3 22.4
303(9) 0.01231 281.3 21.3
327(10) 0.01088 281.4 20.3
326(10) 0.01058 281.4 19.4
291(9) 0.01226 281.4 18.6
306(9) 0.01160 281.4 17.9
305(9) 0.01216 281.4 17.3
327(10) 0.01099 281.5 16.8
295(9) 0.01172 281.5 16.4
293(9) 0.01173 281.5 16.1
312(9) 0.01152 281.5 15.9
299(9) 0.01248 281.5 15.8
288(9) 0.01165 281.6 15.8
288(9) 0.01127 281.6 15.8
292(9) 0.01193 281.6 16.0
289(9) 0.01237 281.6 16.2
297(9) 0.01247 281.7 16.4
292(9) 0.01211 281.7 16.7
292(9) 0.01138 281.7 17.1
293(9) 0.01138 281.7 17.5
269(9) 0.01320 281.7 17.9
312(9) 0.01188 281.8 18.3
293(9) 0.01216 281.8 18.7
323(10) 0.01034 281.8 19.1
307(9) 0.01141 281.8 19.4
288(9) 0.01287 281.8 19.6
301(9) 0.01224 281.9 19.7
312(10) 0.01100 281.9 19.7
313(10) 0.01003 281.9 19.5
297(9) 0.01141 281.9 19.3
303(9) 0.01224 282.0 18.9
317(9) 0.01181 282.0 18.4
319(10) 0.01036 282.0 17.9
314(10) 0.00989 282.0 17.3
286(9) 0.01178 282.0 16.7
280(9) 0.01322 282.1 16.0
284(9) 0.01295 282.1 15.4
299(9) 0.01163 282.1 14.8
294(9) 0.01121 282.1 14.2
277(9) 0.01269 282.1 13.7
306(9) 0.01216 282.2 13.1
307(9) 0.01162 282.2 12.7
305(9) 0.01122 282.2 12.3
296(10) 0.01108 282.2 11.9
270(9) 0.01244 282.2 11.5
305(9) 0.01209 282.3 11.3
323(10) 0.01091 282.3 11.0
317(10) 0.01078 282.3 10.9
295(9) 0.01136 282.3 10.7
300(9) 0.01162 282.4 10.7
307(9) 0.01215 282.4 10.7
310(9) 0.01119 282.4 10.7
286(9) 0.01228 282.4 10.8
301(9) 0.01123 282.4 10.9
294(9) 0.01177 282.5 11.2
297(9) 0.01235 282.5 11.4
291(9) 0.01211 282.5 11.8
280(9) 0.01227 282.5 12.2
293(9) 0.01139 282.5 12.7
279(9) 0.01242 282.6 13.3
314(9) 0.01190 282.6 13.9
314(9) 0.01120 282.6 14.6
293(9) 0.01192 282.6 15.4
285(9) 0.01203 282.7 16.3
298(9) 0.01185 282.7 17.2
300(9) 0.01220 282.7 18.2
286(9) 0.01193 282.7 19.2
299(10) 0.01095 282.7 20.3
299(9) 0.01147 282.8 21.4
320(9) 0.01149 282.8 22.5
276(9) 0.01354 282.8 23.5
280(9) 0.01242 282.8 24.5
308(10) 0.01039 282.8 25.3
287(9) 0.01210 282.9 25.9
318(9) 0.01144 282.9 26.3
308(9) 0.01221 282.9 26.5
311(9) 0.01119 282.9 26.5
311(10) 0.01057 282.9 26.3
308(9) 0.01166 283.0 25.8
316(9) 0.01171 283.0 25.2
302(9) 0.01228 283.0 24.5
295(9) 0.01223 283.0 23.7
320(10) 0.00971 283.1 22.9
304(9) 0.01133 283.1 22.1
309(9) 0.01194 283.1 21.3
315(9) 0.01162 283.1 20.6
300(9) 0.01139 283.1 19.9
292(9) 0.01169 283.2 19.3
294(9) 0.01206 283.2 18.8
296(9) 0.01255 283.2 18.4
281(9) 0.01312 283.2 18.0
286(9) 0.01226 283.2 17.8
284(9) 0.01197 283.3 17.7
305(9) 0.01139 283.3 17.6
285(9) 0.01305 283.3 17.6
297(9) 0.01197 283.3 17.7
272(9) 0.01226 283.4 17.9
301(9) 0.01115 283.4 18.2
313(10) 0.01078 283.4 18.5
293(9) 0.01256 283.4 18.9
292(9) 0.01197 283.4 19.3
314(9) 0.01124 283.5 19.8
324(10) 0.01057 283.5 20.4
284(9) 0.01258 283.5 21.0
300(9) 0.01254 283.5 21.6
313(9) 0.01118 283.5 22.3
313(9) 0.01131 283.6 23.0
307(9) 0.01117 283.6 23.7
315(9) 0.01145 283.6 24.5
319(9) 0.01177 283.6 25.3
272(9) 0.01325 283.6 26.1
298(9) 0.01117 283.7 26.8
278(9) 0.01221 283.7 27.6
300(9) 0.01217 283.7 28.4
305(9) 0.01216 283.7 29.1
315(10) 0.01074 283.8 29.8
325(10) 0.01025 283.8 30.4
325(10) 0.01069 283.8 31.0
312(9) 0.01166 283.8 31.5
325(9) 0.01141 283.8 31.9
320(9) 0.01114 283.9 32.2
300(9) 0.01172 283.9 32.4
313(9) 0.01128 283.9 32.6
296(9) 0.01236 283.9 32.6
311(9) 0.01199 283.9 32.5
330(10) 0.01008 284.0 32.3
318(10) 0.01013 284.0 32.0
305(9) 0.01164 284.0 31.6
308(9) 0.01198 284.0 31.1
317(9) 0.01151 284.1 30.5
322(10) 0.01038 284.1 29.9
290(9) 0.01154 284.1 29.2
305(9) 0.01145 284.1 28.4
300(9) 0.01223 284.1 27.7
309(9) 0.01181 284.2 26.8
326(10) 0.01073 284.2 26.0
308(10) 0.01041 284.2 25.1
327(10) 0.01055 284.2 24.3
289(9) 0.01302 284.2 23.4
293(9) 0.01280 284.3 22.6
306(9) 0.01119 284.3 21.7
310(10) 0.01025 284.3 20.9
307(10) 0.01063 284.3 20.1
295(9) 0.01258 284.4 19.3
291(9) 0.01275 284.4 18.6
292(9) 0.01181 284.4 17.9
293(9) 0.01108 284.4 17.2
278(9) 0.01263 284.4 16.5
299(9) 0.01244 284.5 15.9
317(9) 0.01119 284.5 15.3
302(9) 0.01151 284.5 14.7
305(10) 0.01103 284.5 14.1
308(9) 0.01123 284.5 13.6
292(9) 0.01276 284.6 13.1
283(9) 0.01232 284.6 12.7
266(9) 0.01356 284.6 12.2
314(10) 0.01097 284.6 11.8
324(10) 0.01077 284.6 11.5
306(9) 0.01225 284.7 11.1
281(9) 0.01274 284.7 10.8
303(9) 0.01132 284.7 10.5
318(10) 0.01090 284.7 10.2
326(10) 0.01094 284.8 9.9
306(9) 0.01218 284.8 9.7
303(9) 0.01151 284.8 9.5
296(10) 0.01050 284.8 9.3
291(9) 0.01133 284.8 9.1
294(9) 0.01216 284.9 8.9
279(9) 0.01353 284.9 8.8
278(9) 0.01270 284.9 8.6
280(9) 0.01229 284.9 8.5
288(9) 0.01222 284.9 8.4
290(9) 0.01246 285.0 8.3
314(9) 0.01199 285.0 8.2
288(9) 0.01250 285.0 8.1
265(9) 0.01257 285.0 8.0
330(10) 0.01014 285.1 7.9
306(9) 0.01211 285.1 7.9
295(9) 0.01259 285.1 7.8
311(9) 0.01112 285.1 7.7
276(9) 0.01243 285.1 7.7
311(9) 0.01145 285.2 7.6
325(9) 0.01142 285.2 7.6
298(9) 0.01249 285.2 7.6
274(9) 0.01282 285.2 7.5
305(10) 0.01057 285.2 7.5
292(9) 0.01230 285.3 7.4
297(9) 0.01250 285.3 7.4
306(9) 0.01202 285.3 7.4
311(9) 0.01159 285.3 7.3
305(10) 0.01078 285.3 7.3
272(9) 0.01285 285.4 7.3
295(9) 0.01253 285.4 7.2
258(8) 0.01450 285.4 7.2
305(10) 0.01076 285.4 7.1
289(9) 0.01147 285.5 7.1
289(9) 0.01253 285.5 7.0
311(9) 0.01202 285.5 7.0
301(9) 0.01191 285.5 6.9
285(9) 0.01176 285.5 6.9
295(9) 0.01132 285.6 6.9
320(10) 0.01102 285.6 6.8
292(9) 0.01258 285.6 6.8
296(9) 0.01203 285.6 6.7
306(10) 0.01101 285.6 6.7
322(10) 0.01022 285.7 6.6
289(9) 0.01255 285.7 6.6
283(9) 0.01310 285.7 6.5
294(9) 0.01211 285.7 6.5
306(9) 0.01115 285.8 6.5
308(10) 0.01094 285.8 6.4
284(9) 0.01275 285.8 6.4
288(9) 0.01296 285.8 6.4
284(9) 0.01205 285.8 6.3
288(9) 0.01172 285.9 6.3
313(9) 0.01116 285.9 6.3
316(10) 0.01092 285.9 6.3
290(9) 0.01300 285.9 6.3
292(9) 0.01193 285.9 6.3
319(10) 0.01018 286.0 6.3
274(9) 0.01278 286.0 6.3
283(9) 0.01292 286.0 6.3
324(9) 0.01153 286.0 6.4
298(9) 0.01177 286.0 6.4
289(9) 0.01182 286.1 6.4
290(9) 0.01203 286.1 6.5
275(9) 0.01322 286.1 6.5
293(9) 0.01296 286.1 6.6
305(9) 0.01162 286.2 6.7
294(9) 0.01123 286.2 6.8
302(9) 0.01165 286.2 6.9
318(9) 0.01147 286.2 7.1
279(9) 0.01361 286.2 7.2
329(10) 0.01034 286.3 7.4
274(9) 0.01176 286.3 7.6
317(10) 0.01068 286.3 7.9
302(9) 0.01235 286.3 8.2
298(9) 0.01272 286.3 8.5
292(9) 0.01226 286.4 8.9
288(9) 0.01170 286.4 9.4
294(9) 0.01178 286.4 9.9
301(9) 0.01240 286.4 10.5
310(9) 0.01153 286.5 11.2
287(9) 0.01219 286.5 11.9
293(9) 0.01125 286.5 12.8
338(10) 0.01025 286.5 13.8
288(9) 0.01289 286.5 14.9
290(9) 0.01199 286.6 16.0
293(9) 0.01159 286.6 17.4
292(10) 0.01093 286.6 18.8
275(9) 0.01261 286.6 20.3
292(9) 0.01274 286.6 21.9
298(9) 0.01246 286.7 23.6
304(9) 0.01112 286.7 25.3
281(9) 0.01200 286.7 27.1
313(9) 0.01123 286.7 28.8
315(9) 0.01172 286.8 30.5
289(9) 0.01253 286.8 32.0
306(9) 0.01131 286.8 33.3
313(10) 0.01092 286.8 34.4
329(10) 0.01039 286.8 35.1
328(9) 0.01137 286.9 35.5
327(10) 0.01092 286.9 35.4
300(9) 0.01145 286.9 35.1
299(9) 0.01175 286.9 34.3
319(9) 0.01146 286.9 33.2
323(9) 0.01151 287.0 31.9
336(10) 0.01034 287.0 30.4
329(10) 0.01040 287.0 28.7
331(10) 0.01045 287.0 27.0
303(9) 0.01218 287.0 25.3
306(9) 0.01221 287.1 23.5
319(10) 0.01053 287.1 21.9
308(10) 0.01078 287.1 20.3
303(9) 0.01167 287.1 18.8
306(9) 0.01185 287.2 17.5
303(9) 0.01242 287.2 16.2
316(10) 0.01079 287.2 15.0
311(10) 0.01031 287.2 14.0
304(9) 0.01110 287.2 13.1
285(9) 0.01292 287.3 12.3
303(9) 0.01240 287.3 11.5
288(9) 0.01215 287.3 10.9
308(10) 0.01055 287.3 10.4
314(9) 0.01112 287.3 9.9
276(9) 0.01366 287.4 9.5
297(9) 0.01244 287.4 9.1
317(10) 0.01073 287.4 8.8
319(10) 0.01006 287.4 8.6
306(9) 0.01143 287.5 8.4
296(9) 0.01237 287.5 8.2
280(9) 0.01328 287.5 8.0
301(9) 0.01150 287.5 7.9
294(9) 0.01133 287.5 7.8
289(9) 0.01198 287.6 7.7
306(9) 0.01208 287.6 7.7
286(9) 0.01286 287.6 7.6
298(9) 0.01160 287.6 7.6
277(9) 0.01188 287.6 7.6
299(9) 0.01154 287.7 7.6
309(9) 0.01188 287.7 7.6
326(9) 0.01115 287.7 7.6
300(9) 0.01125 287.7 7.6
300(10) 0.01104 287.7 7.6
325(10) 0.01040 287.8 7.6
353(10) 0.01061 287.8 7.7
302(9) 0.01179 287.8 7.7
295(9) 0.01120 287.8 7.8
269(9) 0.01292 287.9 7.8
312(9) 0.01138 287.9 7.9
293(9) 0.01268 287.9 8.0
309(9) 0.01148 287.9 8.1
324(10) 0.01034 287.9 8.1
306(10) 0.01108 288.0 8.2
289(9) 0.01236 288.0 8.3
287(9) 0.01297 288.0 8.5
307(9) 0.01123 288.0 8.6
285(9) 0.01185 288.0 8.7
289(9) 0.01195 288.1 8.8
283(9) 0.01309 288.1 9.0
294(9) 0.01271 288.1 9.1
292(9) 0.01206 288.1 9.3
308(10) 0.01090 288.2 9.5
309(9) 0.01119 288.2 9.6
322(9) 0.01155 288.2 9.8
308(9) 0.01191 288.2 10.0
286(9) 0.01226 288.2 10.2
306(10) 0.01042 288.3 10.5
289(9) 0.01218 288.3 10.7
294(9) 0.01251 288.3 11.0
299(9) 0.01250 288.3 11.3
305(9) 0.01153 288.3 11.6
317(10) 0.00994 288.4 11.9
303(9) 0.01124 288.4 12.3
335(9) 0.01110 288.4 12.7
314(9) 0.01170 288.4 13.1
303(9) 0.01149 288.4 13.6
292(10) 0.01050 288.5 14.2
306(9) 0.01116 288.5 14.8
297(9) 0.01258 288.5 15.5
339(10) 0.01072 288.5 16.3
310(9) 0.01170 288.6 17.2
312(10) 0.01058 288.6 18.1
321(10) 0.01041 288.6 19.2
332(9) 0.01119 288.6 20.4
337(10) 0.01088 288.6 21.8
347(10) 0.00993 288.7 23.2
345(10) 0.00970 288.7 24.8
326(10) 0.01008 288.7 26.5
303(9) 0.01242 288.7 28.4
345(10) 0.01042 288.7 30.3
321(9) 0.01114 288.8 32.4
353(10) 0.00938 288.8 34.5
343(10) 0.01034 288.8 36.6
349(10) 0.01071 288.8 38.8
364(10) 0.00979 288.9 40.8
339(10) 0.01080 288.9 42.7
391(11) 0.00864 288.9 44.3
367(10) 0.00922 288.9 45.5
390(10) 0.00960 288.9 46.4
350(10) 0.00976 289.0 46.9
338(10) 0.01004 289.0 46.9
361(10) 0.00928 289.0 46.4
353(10) 0.00997 289.0 45.7
353(10) 0.01048 289.0 44.6
347(10) 0.00991 289.1 43.4
336(10) 0.00997 289.1 42.1
371(10) 0.00943 289.1 40.8
366(10) 0.01004 289.1 39.5
345(10) 0.01076 289.2 38.4
340(10) 0.01020 289.2 37.4
343(10) 0.00988 289.2 36.5
351(10) 0.00989 289.2 35.9
348(10) 0.01015 289.2 35.4
356(10) 0.01045 289.3 35.3
347(10) 0.00983 289.3 35.3
310(10) 0.01063 289.3 35.6
334(10) 0.01061 289.3 36.2
355(10) 0.01044 289.3 37.0
382(10) 0.00986 289.4 38.0
330(10) 0.01050 289.4 39.4
355(11) 0.00898 289.4 40.9
362(10) 0.00973 289.4 42.7
366(10) 0.01018 289.4 44.7
331(10) 0.01097 289.5 46.8
373(10) 0.00917 289.5 49.2
363(11) 0.00896 289.5 51.6
350(10) 0.01023 289.5 54.1
333(9) 0.01120 289.6 56.5
341(10) 0.01101 289.6 58.9
374(10) 0.00930 289.6 61.0
374(11) 0.00865 289.6 62.8
399(11) 0.00853 289.6 64.2
389(10) 0.00955 289.7 65.1
345(10) 0.01060 289.7 65.4
355(10) 0.00974 289.7 65.0
370(10) 0.00945 289.7 64.1
373(10) 0.00933 289.7 62.6
342(10) 0.01076 289.8 60.6
348(10) 0.01038 289.8 58.2
376(11) 0.00897 289.8 55.6
355(10) 0.00931 289.8 52.8
357(10) 0.00958 289.9 50.0
354(10) 0.01053 289.9 47.1
356(10) 0.01006 289.9 44.4
314(10) 0.01101 289.9 41.7
346(10) 0.00933 289.9 39.1
345(10) 0.00977 290.0 36.7
313(9) 0.01202 290.0 34.5
328(10) 0.01053 290.0 32.4
322(10) 0.01035 290.0 30.5
312(9) 0.01122 290.0 28.8
325(9) 0.01117 290.1 27.2
325(9) 0.01142 290.1 25.8
334(10) 0.01043 290.1 24.6
305(10) 0.01081 290.1 23.4
295(9) 0.01181 290.1 22.4
309(9) 0.01182 290.2 21.5
323(9) 0.01161 290.2 20.7
321(10) 0.01051 290.2 20.0
316(10) 0.01043 290.2 19.4
307(9) 0.01109 290.3 18.8
307(9) 0.01156 290.3 18.4
300(9) 0.01265 290.3 17.9
304(9) 0.01162 290.3 17.5
305(10) 0.01086 290.3 17.2
293(9) 0.01218 290.4 16.9
296(9) 0.01234 290.4 16.6
311(9) 0.01181 290.4 16.3
306(9) 0.01117 290.4 16.1
336(10) 0.00937 290.4 15.9
343(10) 0.00994 290.5 15.8
339(10) 0.01099 290.5 15.6
296(9) 0.01251 290.5 15.5
312(9) 0.01138 290.5 15.4
325(10) 0.01012 290.6 15.3
314(10) 0.01099 290.6 15.2
318(9) 0.01164 290.6 15.1
317(9) 0.01183 290.6 15.1
297(9) 0.01169 290.6 15.1
296(9) 0.01123 290.7 15.1
318(10) 0.01071 290.7 15.1
312(9) 0.01190 290.7 15.2
347(10) 0.01052 290.7 15.2
307(9) 0.01138 290.7 15.3
328(10) 0.00990 290.8 15.4
322(10) 0.01073 290.8 15.5
316(9) 0.01162 290.8 15.7
312(9) 0.01166 290.8 15.8
325(10) 0.01037 290.8 16.0
322(10) 0.01052 290.9 16.2
322(10) 0.01067 290.9 16.5
310(9) 0.01198 290.9 16.7
280(9) 0.01316 290.9 17.0
327(10) 0.01001 291.0 17.4
289(9) 0.01199 291.0 17.7
340(10) 0.01008 291.0 18.1
297(9) 0.01254 291.0 18.5
322(10) 0.01105 291.0 18.9
345(10) 0.00977 291.1 19.4
306(9) 0.01175 291.1 19.8
343(10) 0.01020 291.1 20.4
317(9) 0.01176 291.1 20.9
305(9) 0.01159 291.1 21.5
330(10) 0.01022 291.2 22.1
316(10) 0.01091 291.2 22.7
281(9) 0.01293 291.2 23.3
307(9) 0.01215 291.2 24.0
316(10) 0.01099 291.3 24.7
306(9) 0.01129 291.3 25.4
300(9) 0.01157 291.3 26.1
309(9) 0.01136 291.3 26.8
325(9) 0.01129 291.3 27.6
337(10) 0.01000 291.4 28.3
296(9) 0.01170 291.4 29.0
339(10) 0.01003 291.4 29.7
315(9) 0.01150 291.4 30.4
310(9) 0.01196 291.4 31.1
334(10) 0.01005 291.5 31.7
339(10) 0.00918 291.5 32.3
310(9) 0.01142 291.5 32.9
328(9) 0.01132 291.5 33.4
368(10) 0.01007 291.6 33.9
310(9) 0.01140 291.6 34.4
326(10) 0.00939 291.6 34.8
334(10) 0.01030 291.6 35.2
324(9) 0.01153 291.6 35.6
332(10) 0.01094 291.7 36.0
323(10) 0.01066 291.7 36.3
312(10) 0.01037 291.7 36.7
318(10) 0.01088 291.7 36.9
320(9) 0.01163 291.7 37.2
318(9) 0.01151 291.8 37.4
313(9) 0.01121 291.8 37.6
342(10) 0.00970 291.8 37.8
355(10) 0.00984 291.8 37.9
330(9) 0.01121 291.8 38.0
343(10) 0.01065 291.9 38.1
309(9) 0.01150 291.9 38.1
338(10) 0.01018 291.9 38.1
336(10) 0.01044 291.9 38.1
341(10) 0.01085 292.0 38.0
311(9) 0.01134 292.0 37.9
304(9) 0.01165 292.0 37.8
305(9) 0.01118 292.0 37.6
317(10) 0.01087 292.0 37.5
327(9) 0.01145 292.1 37.3
331(10) 0.01043 292.1 37.1
323(10) 0.01048 292.1 36.9
308(9) 0.01157 292.1 36.7
338(10) 0.01038 292.1 36.5
332(9) 0.01132 292.2 36.3
314(10) 0.01077 292.2 36.1
327(10) 0.01013 292.2 36.0
319(10) 0.01045 292.2 35.8
340(10) 0.01060 292.3 35.7
321(9) 0.01160 292.3 35.6
314(9) 0.01108 292.3 35.5
324(10) 0.01055 292.3 35.4
333(10) 0.01037 292.3 35.4
314(9) 0.01179 292.4 35.4
323(9) 0.01146 292.4 35.5
347(10) 0.00972 292.4 35.6
342(10) 0.00963 292.4 35.7
333(10) 0.01063 292.4 35.9
335(10) 0.01085 292.5 36.1
342(10) 0.01088 292.5 36.3
357(10) 0.00947 292.5 36.7
339(10) 0.00945 292.5 37.0
357(10) 0.00953 292.5 37.5
334(9) 0.01117 292.6 38.0
359(10) 0.01021 292.6 38.6
321(10) 0.01103 292.6 39.2
345(11) 0.00904 292.6 39.9
329(10) 0.01041 292.7 40.8
352(10) 0.01053 292.7 41.6
352(10) 0.01061 292.7 42.6
361(10) 0.00971 292.7 43.7
357(10) 0.00927 292.7 44.8
360(10) 0.00986 292.8 46.1
359(10) 0.01046 292.8 47.4
320(9) 0.01137 292.8 48.8
334(10) 0.01039 292.8 50.3
363(11) 0.00892 292.8 51.9
371(11) 0.00895 292.9 53.5
365(10) 0.01017 292.9 55.1
357(10) 0.01024 292.9 56.8
333(10) 0.01016 292.9 58.4
333(10) 0.01004 293.0 59.9
369(10) 0.00925 293.0 61.4
351(10) 0.01061 293.0 62.7
343(10) 0.01051 293.0 63.8
380(11) 0.00875 293.0 64.7
349(10) 0.00976 293.1 65.2
357(10) 0.00963 293.1 65.4
348(10) 0.01071 293.1 65.2
348(10) 0.00986 293.1 64.7
351(10) 0.00995 293.1 63.7
383(11) 0.00886 293.2 62.5
342(10) 0.01056 293.2 60.9
340(10) 0.01074 293.2 59.1
348(10) 0.01015 293.2 57.1
342(10) 0.00992 293.2 55.0
363(10) 0.00928 293.3 52.8
329(9) 0.01114 293.3 50.6
305(9) 0.01214 293.3 48.3
316(9) 0.01114 293.3 46.1
315(10) 0.01098 293.4 44.0
331(10) 0.01034 293.4 41.9
303(9) 0.01214 293.4 39.9
327(9) 0.01130 293.4 38.0
332(10) 0.01042 293.4 36.2
348(10) 0.00971 293.5 34.5
332(10) 0.01074 293.5 32.9
341(10) 0.01084 293.5 31.4
322(9) 0.01150 293.5 30.0
307(9) 0.01136 293.5 28.8
310(10) 0.01049 293.6 27.6
304(9) 0.01125 293.6 26.5
304(9) 0.01169 293.6 25.5
313(9) 0.01183 293.6 24.5
326(10) 0.01067 293.7 23.7
315(10) 0.01032 293.7 22.9
317(10) 0.01104 293.7 22.2
304(9) 0.01221 293.7 21.5
306(9) 0.01212 293.7 20.9
314(10) 0.01097 293.8 20.4
318(10) 0.01026 293.8 19.9
323(10) 0.01105 293.8 19.4
282(9) 0.01325 293.8 19.0
300(9) 0.01248 293.8 18.6
296(9) 0.01121 293.9 18.3
287(9) 0.01156 293.9 17.9
309(10) 0.01090 293.9 17.6
329(9) 0.01119 293.9 17.3
331(9) 0.01115 294.0 17.1
354(10) 0.00988 294.0 16.8
324(10) 0.01031 294.0 16.6
322(10) 0.01049 294.0 16.4
333(9) 0.01110 294.0 16.2
303(9) 0.01225 294.1 16.0
312(9) 0.01118 294.1 15.8
305(9) 0.01119 294.1 15.7
327(10) 0.01050 294.1 15.5
299(9) 0.01235 294.1 15.4
315(9) 0.01118 294.2 15.3
299(9) 0.01135 294.2 15.2
285(9) 0.01213 294.2 15.1
294(9) 0.01205 294.2 15.0
334(9) 0.01109 294.2 14.9
299(9) 0.01171 294.3 14.8
316(10) 0.01048 294.3 14.8
304(9) 0.01131 294.3 14.7
323(10) 0.01084 294.3 14.7
309(9) 0.01207 294.4 14.6
331(10) 0.01004 294.4 14.6
315(9) 0.01116 294.4 14.6
290(9) 0.01223 294.4 14.6
319(10) 0.01092 294.4 14.6
320(9) 0.01156 294.5 14.6
314(10) 0.01073 294.5 14.6
294(9) 0.01164 294.5 14.6
315(10) 0.01087 294.5 14.7
321(9) 0.01135 294.5 14.7
301(9) 0.01247 294.6 14.8
305(9) 0.01159 294.6 14.8
323(10) 0.01021 294.6 14.9
320(10) 0.01087 294.6 15.0
337(10) 0.01082 294.7 15.1
322(9) 0.01138 294.7 15.2
307(10) 0.01105 294.7 15.4
319(10) 0.01013 294.7 15.5
315(10) 0.01101 294.7 15.7
321(9) 0.01133 294.8 15.8
335(9) 0.01121 294.8 16.0
331(10) 0.01052 294.8 16.2
323(10) 0.00979 294.8 16.5
310(9) 0.01147 294.8 16.7
330(9) 0.01130 294.9 17.0
312(9) 0.01188 294.9 17.2
326(10) 0.01075 294.9 17.5
313(10) 0.01034 294.9 17.8
309(9) 0.01125 294.9 18.1
313(9) 0.01181 295.0 18.4
320(9) 0.01156 295.0 18.8
321(10) 0.01096 295.0 19.1
292(9) 0.01208 295.0 19.4
326(10) 0.01046 295.1 19.8
329(9) 0.01117 295.1 20.1
354(10) 0.01023 295.1 20.4
320(9) 0.01111 295.1 20.6
328(10) 0.01032 295.1 20.9
338(10) 0.01005 295.2 21.1
323(9) 0.01149 295.2 21.2
330(10) 0.01058 295.2 21.3
327(10) 0.01016 295.2 21.4
308(10) 0.01084 295.2 21.4
332(10) 0.01030 295.3 21.3
358(10) 0.01025 295.3 21.1
339(10) 0.01052 295.3 20.9
351(10) 0.00966 295.3 20.6
320(9) 0.01110 295.4 20.3
318(9) 0.01138 295.4 19.9
301(9) 0.01222 295.4 19.5
306(9) 0.01146 295.4 19.0
307(9) 0.01117 295.4 18.6
314(9) 0.01115 295.5 18.1
309(9) 0.01181 295.5 17.6
300(9) 0.01239 295.5 17.1
299(9) 0.01138 295.5 16.6
333(10) 0.01014 295.5 16.1
304(9) 0.01153 295.6 15.6
284(9) 0.01299 295.6 15.1
303(9) 0.01232 295.6 14.7
303(9) 0.01118 295.6 14.2
303(10) 0.01094 295.6 13.8
301(9) 0.01154 295.7 13.4
318(9) 0.01133 295.7 13.0
303(9) 0.01226 295.7 12.7
316(10) 0.01089 295.7 12.3
320(10) 0.01043 295.8 12.0
333(10) 0.01079 295.8 11.7
360(10) 0.01035 295.8 11.4
333(10) 0.01103 295.8 11.1
290(9) 0.01238 295.8 10.8
288(9) 0.01132 295.9 10.6
311(9) 0.01124 295.9 10.3
323(9) 0.01128 295.9 10.1
314(9) 0.01178 295.9 9.9
314(10) 0.01082 295.9 9.7
296(10) 0.01091 296.0 9.5
291(9) 0.01153 296.0 9.3
330(9) 0.01112 296.0 9.2
291(9) 0.01276 296.0 9.0
274(9) 0.01283 296.1 8.9
332(10) 0.00994 296.1 8.8
325(10) 0.01059 296.1 8.6
309(9) 0.01199 296.1 8.5
304(9) 0.01208 296.1 8.4
323(10) 0.01037 296.2 8.3
289(9) 0.01132 296.2 8.2
307(9) 0.01137 296.2 8.1
289(9) 0.01284 296.2 8.0
285(9) 0.01254 296.2 8.0
324(10) 0.01050 296.3 7.9
296(9) 0.01136 296.3 7.8
306(10) 0.01101 296.3 7.8
283(9) 0.01309 296.3 7.7
306(9) 0.01128 296.3 7.6
327(10) 0.01017 296.4 7.6
313(10) 0.01056 296.4 7.6
320(10) 0.01101 296.4 7.5
328(9) 0.01128 296.4 7.5
314(10) 0.01091 296.5 7.4
281(9) 0.01215 296.5 7.4
286(9) 0.01198 296.5 7.4
320(10) 0.01090 296.5 7.3
311(9) 0.01201 296.5 7.3
302(9) 0.01114 296.6 7.3
306(9) 0.01133 296.6 7.2
313(9) 0.01170 296.6 7.2
285(9) 0.01290 296.6 7.2
327(9) 0.01140 296.6 7.1
317(10) 0.01080 296.7 7.1
313(10) 0.01081 296.7 7.1
316(10) 0.01108 296.7 7.1
331(10) 0.01101 296.7 7.1
312(9) 0.01202 296.8 7.1
300(9) 0.01152 296.8 7.1
323(10) 0.01012 296.8 7.0
302(9) 0.01188 296.8 7.0
287(9) 0.01282 296.8 7.1
290(9) 0.01270 296.9 7.1
317(10) 0.01099 296.9 7.1
315(10) 0.00991 296.9 7.1
313(9) 0.01114 296.9 7.1
306(9) 0.01214 296.9 7.1
299(9) 0.01238 297.0 7.1
310(9) 0.01131 297.0 7.2
286(9) 0.01179 297.0 7.2
283(9) 0.01260 297.0 7.2
291(9) 0.01280 297.1 7.3
298(9) 0.01207 297.1 7.3
289(9) 0.01179 297.1 7.3
285(9) 0.01173 297.1 7.4
315(10) 0.01095 297.1 7.4
316(9) 0.01180 297.2 7.5
283(9) 0.01307 297.2 7.5
326(10) 0.01076 297.2 7.5
310(9) 0.01108 297.2 7.6
335(10) 0.01022 297.2 7.6
318(9) 0.01161 297.3 7.7
309(9) 0.01169 297.3 7.7
285(9) 0.01251 297.3 7.8
297(9) 0.01119 297.3 7.8
294(9) 0.01159 297.3 7.9
319(9) 0.01171 297.4 7.9
309(9) 0.01142 297.4 7.9
314(10) 0.01059 297.4 8.0
311(10) 0.01080 297.4 8.0
290(9) 0.01276 297.5 8.0
301(9) 0.01230 297.5 8.0
294(9) 0.01209 297.5 8.0
304(9) 0.01170 297.5 8.1
311(9) 0.01116 297.5 8.1
305(9) 0.01163 297.6 8.1
320(9) 0.01152 297.6 8.1
309(9) 0.01138 297.6 8.1
307(10) 0.01091 297.6 8.1
311(10) 0.01102 297.6 8.0
328(10) 0.01102 297.7 8.0
316(9) 0.01176 297.7 8.0
306(10) 0.01107 297.7 8.0
310(10) 0.01063 297.7 8.0
325(10) 0.01090 297.8 7.9
316(9) 0.01153 297.8 7.9
289(9) 0.01285 297.8 7.9
298(9) 0.01188 297.8 7.8
312(10) 0.01074 297.8 7.8
318(10) 0.01085 297.9 7.8
296(9) 0.01243 297.9 7.7
287(9) 0.01288 297.9 7.7
297(9) 0.01146 297.9 7.6
294(9) 0.01131 297.9 7.6
313(9) 0.01116 298.0 7.6
288(9) 0.01297 298.0 7.5
312(9) 0.01200 298.0 7.5
288(9) 0.01236 298.0 7.4
312(10) 0.01047 298.0 7.4
322(10) 0.01079 298.1 7.3
283(9) 0.01307 298.1 7.3
323(9) 0.01146 298.1 7.2
286(9) 0.01250 298.1 7.2
280(9) 0.01164 298.2 7.1
329(10) 0.01050 298.2 7.1
289(9) 0.01283 298.2 7.0
304(9) 0.01207 298.2 7.0
324(10) 0.01037 298.2 7.0
309(10) 0.01089 298.2 6.9
328(10) 0.01016 298.2 6.9
314(9) 0.01181 298.2 6.8
278(9) 0.01294 298.2 6.8
293(9) 0.01190 298.2 6.8
311(10) 0.01061 298.2 6.7
297(9) 0.01185 298.2 6.7
276(9) 0.01357 298.2 6.6
271(9) 0.01284 298.2 6.6
325(10) 0.01017 298.2 6.6
307(9) 0.01109 298.2 6.5
308(9) 0.01116 298.2 6.5
310(9) 0.01202 298.2 6.5
327(10) 0.01084 298.2 6.4
293(9) 0.01164 298.2 6.4
302(9) 0.01122 298.2 6.4
295(9) 0.01194 298.2 6.4
297(9) 0.01258 298.2 6.3
321(10) 0.01100 298.2 6.3
311(10) 0.01094 298.2 6.3
274(9) 0.01286 298.2 6.2
292(9) 0.01245 298.2 6.2
328(9) 0.01128 298.2 6.2
312(9) 0.01114 298.2 6.2
316(10) 0.01053 298.2 6.2
303(9) 0.01134 298.2 6.1
296(9) 0.01230 298.2 6.1
301(9) 0.01248 298.2 6.1
290(9) 0.01194 298.2 6.1
296(9) 0.01150 298.2 6.1
308(9) 0.01137 298.2 6.1
305(9) 0.01224 298.2 6.1
297(9) 0.01253 298.2 6.1
287(9) 0.01210 298.2 6.0
311(10) 0.01018 298.2 6.0
315(9) 0.01113 298.2 6.0
284(9) 0.01276 298.2 6.0
286(9) 0.01302 298.2 6.0
310(10) 0.01105 298.2 6.0
302(10) 0.01069 298.2 6.0
292(9) 0.01227 298.2 6.1
293(9) 0.01296 298.2 6.1
286(9) 0.01298 298.2 6.1
294(9) 0.01221 298.2 6.1
294(9) 0.01134 298.2 6.1
297(9) 0.01161 298.2 6.1
295(9) 0.01260 298.2 6.2
286(9) 0.01276 298.2 6.2
301(9) 0.01148 298.2 6.2
285(9) 0.01154 298.2 6.3
314(10) 0.01082 298.2 6.3
283(9) 0.01323 298.2 6.4
314(9) 0.01146 298.2 6.4
311(10) 0.01091 298.2 6.5
302(10) 0.01093 298.2 6.5
319(10) 0.01077 298.2 6.6
291(9) 0.01279 298.2 6.7
309(9) 0.01161 298.2 6.8
298(9) 0.01147 298.2 6.8
320(10) 0.01053 298.2 6.9
292(9) 0.01204 298.2 7.1
313(9) 0.01187 298.2 7.2
309(9) 0.01164 298.2 7.3
308(9) 0.01132 298.2 7.4
282(9) 0.01233 298.2 7.6
340(10) 0.01031 298.2 7.7
321(9) 0.01171 298.2 7.9
294(9) 0.01212 298.2 8.1
319(10) 0.01035 298.2 8.3
306(9) 0.01137 298.2 8.5
317(9) 0.01135 298.2 8.7
305(9) 0.01219 298.2 8.9
302(9) 0.01168 298.2 9.2
316(10) 0.01055 298.2 9.4
314(10) 0.01101 298.2 9.7
293(9) 0.01211 298.2 10.0
295(9) 0.01252 298.2 10.3
311(9) 0.01109 298.2 10.6
304(9) 0.01109 298.2 11.0
289(9) 0.01240 298.2 11.3
306(9) 0.01206 298.2 11.7
297(9) 0.01251 298.2 12.1
298(9) 0.01202 298.2 12.5
307(10) 0.01046 298.2 12.9
303(9) 0.01146 298.2 13.3
315(9) 0.01170 298.2 13.7
311(9) 0.01207 298.2 14.1
329(10) 0.01061 298.2 14.5
299(10) 0.01076 298.2 14.9
300(9) 0.01134 298.2 15.3
309(9) 0.01207 298.2 15.7
317(9) 0.01150 298.2 16.0
322(10) 0.01068 298.2 16.4
319(10) 0.01035 298.2 16.7
309(9) 0.01164 298.2 17.0
324(9) 0.01147 298.2 17.2
322(9) 0.01139 298.2 17.4
294(9) 0.01244 298.2 17.5
303(9) 0.01117 298.2 17.6
315(9) 0.01109 298.2 17.7
298(9) 0.01242 298.2 17.7
310(9) 0.01193 298.2 17.6
307(9) 0.01136 298.2 17.5
315(10) 0.01005 298.2 17.4
295(9) 0.01179 298.2 17.2
278(9) 0.01339 298.2 17.0
320(9) 0.01116 298.2 16.8
313(9) 0.01120 298.2 16.5
309(10) 0.01079 298.2 16.3
314(9) 0.01118 298.2 16.0
310(9) 0.01205 298.2 15.7
316(9) 0.01121 298.2 15.4
307(9) 0.01152 298.2 15.2
316(10) 0.01080 298.2 14.9
310(9) 0.01108 298.2 14.6
311(9) 0.01195 298.2 14.4
310(9) 0.01155 298.2 14.1
308(10) 0.01028 298.2 13.9
308(10) 0.01100 298.2 13.7
330(10) 0.01087 298.2 13.4
309(9) 0.01203 298.2 13.3
294(9) 0.01197 298.2 13.1
305(10) 0.01100 298.2 12.9
305(9) 0.01118 298.2 12.8
300(9) 0.01198 298.2 12.7
319(9) 0.01166 298.2 12.6
324(10) 0.01047 298.2 12.5
318(10) 0.01025 298.2 12.4
313(10) 0.01056 298.2 12.3
321(9) 0.01144 298.2 12.3
313(9) 0.01198 298.2 12.3
304(9) 0.01156 298.2 12.3
327(10) 0.01024 298.2 12.3
329(10) 0.01097 298.2 12.3
314(9) 0.01186 298.2 12.4
315(9) 0.01179 298.2 12.5
322(10) 0.01051 298.2 12.6
315(10) 0.01044 298.2 12.7
319(10) 0.01096 298.2 12.8
296(9) 0.01243 298.2 13.0
319(9) 0.01171 298.2 13.2
295(9) 0.01212 298.2 13.4
340(10) 0.00948 298.2 13.6
320(9) 0.01123 298.2 13.9
301(9) 0.01229 298.2 14.2
300(9) 0.01234 298.2 14.5
330(10) 0.01017 298.2 14.9
322(10) 0.00960 298.2 15.3
302(9) 0.01172 298.2 15.7
339(10) 0.01104 298.2 16.1
347(10) 0.01061 298.2 16.6
341(10) 0.01054 298.2 17.2
326(10) 0.01038 298.2 17.7
312(10) 0.01091 298.2 18.3
330(9) 0.01110 298.2 18.9
319(9) 0.01117 298.2 19.6
324(10) 0.01080 298.2 20.3
336(10) 0.01060 298.2 21.0
344(10) 0.01016 298.2 21.7
340(10) 0.01092 298.2 22.4
324(10) 0.01101 298.2 23.2
323(10) 0.01040 298.2 23.9
310(10) 0.01095 298.2 24.6
316(10) 0.01094 298.2 25.4
324(9) 0.01152 298.2 26.0
338(10) 0.01019 298.2 26.7
320(10) 0.01062 298.2 27.2
317(10) 0.01092 298.2 27.7
324(9) 0.01124 298.2 28.1
322(9) 0.01156 298.2 28.4
323(10) 0.01073 298.2 28.6
339(10) 0.01023 298.2 28.6
339(10) 0.01019 298.2 28.6
318(9) 0.01145 298.2 28.4
322(9) 0.01151 298.2 28.1
325(10) 0.01028 298.2 27.6
317(10) 0.01062 298.2 27.1
337(10) 0.01028 298.2 26.5
321(9) 0.01147 298.2 25.8
300(9) 0.01247 298.2 25.1
323(10) 0.01066 298.2 24.3
319(10) 0.01027 298.2 23.4
326(10) 0.01022 298.2 22.6
318(9) 0.01143 298.2 21.7
317(9) 0.01175 298.2 20.9
313(9) 0.01124 298.2 20.1
311(10) 0.01058 298.2 19.2
328(10) 0.01055 298.2 18.4
350(10) 0.01058 298.2 17.7
319(9) 0.01152 298.2 16.9
324(10) 0.01062 298.2 16.2
319(10) 0.01020 298.2 15.5
319(10) 0.01100 298.2 14.9
300(9) 0.01241 298.2 14.3
304(9) 0.01199 298.2 13.7
324(10) 0.01092 298.2 13.2
316(10) 0.00999 298.2 12.7
300(9) 0.01194 298.2 12.2
337(10) 0.01105 298.2 11.7
320(9) 0.01150 298.2 11.3
307(9) 0.01119 298.2 11.0
301(10) 0.01087 298.2 10.6
330(10) 0.01050 298.2 10.3
277(9) 0.01333 298.2 10.0
284(9) 0.01252 298.2 9.8
310(10) 0.01088 298.2 9.5
304(10) 0.01108 298.2 9.3
302(9) 0.01163 298.2 9.1
309(9) 0.01202 298.2 8.9
312(9) 0.01155 298.2 8.8
312(10) 0.01064 298.2 8.6
303(10) 0.01090 298.2 8.5
309(9) 0.01124 298.2 8.4
295(9) 0.01267 298.2 8.2
311(9) 0.01131 298.2 8.1
302(9) 0.01179 298.2 8.1
337(10) 0.00987 298.2 8.0
294(9) 0.01208 298.2 7.9
331(9) 0.01126 298.2 7.8
312(9) 0.01133 298.2 7.7
313(10) 0.01055 298.2 7.7
304(10) 0.01097 298.2 7.6
296(9) 0.01200 298.2 7.5
304(9) 0.01237 298.2 7.5
302(9) 0.01193 298.2 7.4
321(10) 0.01021 298.2 7.3
304(9) 0.01139 298.2 7.3
297(9) 0.01257 298.2 7.2
304(9) 0.01214 298.2 7.1
298(9) 0.01180 298.2 7.0
308(10) 0.01072 298.2 7.0
315(10) 0.01044 298.2 6.9
306(9) 0.01198 298.2 6.8
310(9) 0.01200 298.2 6.7
288(9) 0.01208 298.2 6.7
326(10) 0.00984 298.2 6.6
303(9) 0.01166 298.2 6.5
305(9) 0.01230 298.2 6.4
278(9) 0.01333 298.2 6.4
318(10) 0.01061 298.2 6.3
303(10) 0.01056 298.2 6.2
297(9) 0.01198 298.2 6.2
299(9) 0.01244 298.2 6.1
290(9) 0.01275 298.2 6.1
298(9) 0.01130 298.2 6.0
287(9) 0.01142 298.2 5.9
300(9) 0.01187 298.2 5.9
340(10) 0.01094 298.2 5.9
339(10) 0.01084 298.2 5.8
303(9) 0.01128 298.2 5.8
279(9) 0.01168 298.2 5.7
294(9) 0.01216 298.2 5.7
335(10) 0.01101 298.2 5.7
275(9) 0.01306 298.2 5.7
301(9) 0.01139 298.2 5.6
339(10) 0.01003 298.2 5.6
306(9) 0.01139 298.2 5.6
318(9) 0.01173 298.2 5.6
330(10) 0.01063 298.2 5.6
304(9) 0.01190 298.2 5.6
266(9) 0.01324 298.2 5.7
277(9) 0.01271 298.2 5.7
334(9) 0.01110 298.2 5.7
288(9) 0.01224 298.2 5.7
273(9) 0.01303 298.2 5.8
324(10) 0.01034 298.2 5.8
300(9) 0.01148 298.2 5.9
300(9) 0.01239 298.2 5.9
307(9) 0.01182 298.2 6.0
303(9) 0.01122 298.2 6.1
305(9) 0.01121 298.2 6.2
296(9) 0.01223 298.2 6.3
294(9) 0.01263 298.2 6.4
311(9) 0.01116 298.2 6.6
314(10) 0.01079 298.2 6.7
295(9) 0.01193 298.2 6.9
296(9) 0.01212 298.2 7.1
305(9) 0.01217 298.2 7.3
305(9) 0.01149 298.2 7.5
305(9) 0.01122 298.2 7.8
313(10) 0.01101 298.2 8.1
312(9) 0.01171 298.2 8.5
324(9) 0.01153 298.2 8.8
310(10) 0.01108 298.2 9.2
310(10) 0.01052 298.2 9.7
313(9) 0.01139 298.2 10.1
302(9) 0.01239 298.2 10.6
309(9) 0.01206 298.2 11.2
313(10) 0.01105 298.2 11.7
309(10) 0.01083 298.2 12.3
313(9) 0.01164 298.2 13.0
320(9) 0.01178 298.2 13.6
349(10) 0.01051 298.2 14.2
326(10) 0.01081 298.2 14.9
337(10) 0.00937 298.2 15.5
291(9) 0.01194 298.2 16.0
282(9) 0.01290 298.2 16.6
308(9) 0.01196 298.2 17.0
319(10) 0.01057 298.2 17.4
343(10) 0.00942 298.2 17.6
320(10) 0.01068 298.2 17.8
313(9) 0.01186 298.2 17.8
343(10) 0.01074 298.2 17.8
326(10) 0.01092 298.2 17.7
309(9) 0.01137 298.2 17.6
333(10) 0.01061 298.2 17.4
323(9) 0.01145 298.2 17.2
303(9) 0.01191 298.2 17.0
294(9) 0.01188 298.2 16.8
305(9) 0.01130 298.2 16.6
317(10) 0.01102 298.2 16.4
359(10) 0.01046 298.2 16.3
327(10) 0.01108 298.2 16.2
326(10) 0.01075 298.2 16.1
310(9) 0.01131 298.2 16.1
317(10) 0.01071 298.2 16.1
318(9) 0.01173 298.2 16.1
353(10) 0.00937 298.2 16.2
313(10) 0.01084 298.2 16.3
322(10) 0.01090 298.2 16.4
348(10) 0.01033 298.2 16.6
312(9) 0.01178 298.2 16.8
327(10) 0.01027 298.2 17.0
320(10) 0.01052 298.2 17.2
304(9) 0.01170 298.2 17.5
333(10) 0.01064 298.2 17.7
336(9) 0.01112 298.2 18.0
330(10) 0.01056 298.2 18.2
312(10) 0.01072 298.2 18.5
289(9) 0.01238 298.2 18.7
318(9) 0.01122 298.2 18.9
335(9) 0.01110 298.2 19.1
306(9) 0.01131 298.2 19.3
314(10) 0.01037 298.2 19.5
315(10) 0.01096 298.2 19.6
287(9) 0.01310 298.2 19.7
316(9) 0.01171 298.2 19.8
301(9) 0.01201 298.2 19.9
316(10) 0.01000 298.2 19.9
309(9) 0.01121 298.2 19.9
289(9) 0.01289 298.2 19.9
325(9) 0.01111 298.2 19.8
304(9) 0.01114 298.2 19.8
316(10) 0.01026 298.2 19.7
320(10) 0.01090 298.2 19.6
310(9) 0.01193 298.2 19.5
318(9) 0.01148 298.2 19.4
328(10) 0.01054 298.2 19.3
332(10) 0.00982 298.2 19.2
365(10) 0.00956 298.2 19.2
315(9) 0.01183 298.2 19.1
328(9) 0.01123 298.2 19.0
328(10) 0.01036 298.2 19.0
319(10) 0.01051 298.2 19.0
321(10) 0.01057 298.2 19.0
319(9) 0.01165 298.2 19.1
299(9) 0.01234 298.2 19.1
323(10) 0.01072 298.2 19.2
321(10) 0.01056 298.2 19.4
314(9) 0.01148 298.2 19.5
308(9) 0.01201 298.2 19.7
311(9) 0.01157 298.2 20.0
318(10) 0.01052 298.2 20.2
325(10) 0.01023 298.2 20.5
318(9) 0.01110 298.2 20.9
299(9) 0.01253 298.2 21.2
305(9) 0.01120 298.2 21.6
334(10) 0.00984 298.2 22.1
327(10) 0.01050 298.2 22.5
325(9) 0.01120 298.2 23.0
348(10) 0.01066 298.2 23.4
340(10) 0.01041 298.2 23.9
317(10) 0.01054 298.2 24.3
324(10) 0.01103 298.2 24.7
365(10) 0.00972 298.2 25.1
297(9) 0.01250 298.2 25.4
288(9) 0.01231 298.2 25.6
304(9) 0.01140 298.2 25.7
340(10) 0.01012 298.2 25.7
337(10) 0.01089 298.2 25.6
335(9) 0.01112 298.2 25.4
344(10) 0.01000 298.2 25.0
354(10) 0.00949 298.2 24.6
326(10) 0.01099 298.2 24.1
330(9) 0.01124 298.2 23.5
299(9) 0.01253 298.2 22.9
313(9) 0.01128 298.2 22.2
317(10) 0.01077 298.2 21.5
339(10) 0.00995 298.2 20.8
311(9) 0.01194 298.2 20.0
337(9) 0.01115 298.2 19.3
322(9) 0.01109 298.2 18.6
338(10) 0.00925 298.2 18.0
315(9) 0.01121 298.2 17.4
323(9) 0.01159 298.2 16.8
311(9) 0.01183 298.2 16.2
298(9) 0.01193 298.2 15.7
302(10) 0.01064 298.2 15.2
302(9) 0.01174 298.2 14.8
326(9) 0.01136 298.2 14.4
309(9) 0.01181 298.2 14.0
309(9) 0.01127 298.2 13.7
313(10) 0.01066 298.2 13.4
327(10) 0.01045 298.2 13.2
306(9) 0.01216 298.2 13.0
300(9) 0.01219 298.2 12.9
297(9) 0.01188 298.2 12.8
317(10) 0.01042 298.2 12.7
306(9) 0.01119 298.2 12.7
323(9) 0.01157 298.2 12.7
324(10) 0.01096 298.2 12.7
319(10) 0.01089 298.2 12.8
337(10) 0.00974 298.2 13.0
332(10) 0.01006 298.2 13.2
315(9) 0.01173 298.2 13.4
323(10) 0.01066 298.2 13.6
316(10) 0.01100 298.2 14.0
339(10) 0.00945 298.2 14.3
295(9) 0.01235 298.2 14.7
301(9) 0.01229 298.2 15.1
307(9) 0.01132 298.2 15.6
316(10) 0.01083 298.2 16.1
308(9) 0.01113 298.2 16.6
316(9) 0.01160 298.2 17.2
303(9) 0.01216 298.2 17.8
315(10) 0.01076 298.2 18.4
334(10) 0.00972 298.2 19.1
317(9) 0.01136 298.2 19.7
355(10) 0.01043 298.2 20.4
317(9) 0.01176 298.2 21.0
316(9) 0.01118 298.2 21.6
316(10) 0.01035 298.2 22.2
300(9) 0.01165 298.2 22.7
323(9) 0.01139 298.2 23.1
330(9) 0.01122 298.2 23.4
324(10) 0.01069 298.2 23.7
328(10) 0.01012 298.2 23.8
330(10) 0.01060 298.2 23.8
333(10) 0.01101 298.2 23.7
323(9) 0.01137 298.2 23.4
318(9) 0.01117 298.2 23.1
311(10) 0.01080 298.2 22.7
351(10) 0.00960 298.2 22.1
322(9) 0.01127 298.2 21.5
325(9) 0.01123 298.2 20.9
328(10) 0.01077 298.2 20.2
333(10) 0.00973 298.2 19.5
339(10) 0.01024 298.2 18.8
320(9) 0.01143 298.2 18.1
304(9) 0.01225 298.2 17.5
307(9) 0.01153 298.2 16.8
319(10) 0.01033 298.2 16.1
315(10) 0.01095 298.2 15.5
306(9) 0.01220 298.2 14.9
334(10) 0.01101 298.2 14.4
331(10) 0.01077 298.2 13.9
327(10) 0.01033 298.2 13.4
313(9) 0.01146 298.2 13.0
299(9) 0.01255 298.2 12.6
308(9) 0.01171 298.2 12.3
334(10) 0.01057 298.2 11.9
340(10) 0.00979 298.2 11.7
310(9) 0.01125 298.2 11.5
290(9) 0.01268 298.2 11.3
312(9) 0.01152 298.2 11.2
286(9) 0.01228 298.2 11.1
308(10) 0.01084 298.2 11.1
311(9) 0.01134 298.2 11.1
313(9) 0.01196 298.2 11.2
317(9) 0.01120 298.2 11.4
316(10) 0.01088 298.2 11.6
299(9) 0.01142 298.2 11.9
293(9) 0.01215 298.2 12.2
314(9) 0.01188 298.2 12.6
316(10) 0.01059 298.2 13.0
323(10) 0.01062 298.2 13.5
305(9) 0.01160 298.2 14.0
300(9) 0.01208 298.2 14.5
299(9) 0.01240 298.2 15.1
309(10) 0.01103 298.2 15.6
318(10) 0.01038 298.2 16.1
314(10) 0.01077 298.2 16.6
281(9) 0.01318 298.2 16.9
302(9) 0.01222 298.2 17.1
314(10) 0.01108 298.2 17.2
319(10) 0.01034 298.2 17.2
324(10) 0.01053 298.2 17.0
325(9) 0.01155 298.2 16.7
308(9) 0.01210 298.2 16.4
299(9) 0.01138 298.2 16.0
309(10) 0.01018 298.2 15.5
342(10) 0.00994 298.2 15.1
319(9) 0.01166 298.2 14.6
293(9) 0.01276 298.2 14.2
300(9) 0.01193 298.2 13.8
312(10) 0.01062 298.2 13.5
326(10) 0.01077 298.2 13.2
297(9) 0.01254 298.2 12.9
319(9) 0.01166 298.2 12.7
283(9) 0.01243 298.2 12.6
304(10) 0.01061 298.2 12.5
309(9) 0.01125 298.2 12.4
297(9) 0.01246 298.2 12.4
313(9) 0.01196 298.2 12.4
306(9) 0.01206 298.2 12.4
323(10) 0.01032 298.2 12.5
310(10) 0.01103 298.2 12.6
296(9) 0.01262 298.2 12.7
301(9) 0.01218 298.2 12.9
299(9) 0.01152 298.2 13.1
319(10) 0.01020 298.2 13.3
302(9) 0.01159 298.2 13.5
322(9) 0.01159 298.2 13.8
315(9) 0.01112 298.2 14.0
336(10) 0.01004 298.2 14.4
320(10) 0.01102 298.2 14.7
329(10) 0.01104 298.2 15.1
314(9) 0.01184 298.2 15.5
290(9) 0.01193 298.2 15.9
299(9) 0.01123 298.2 16.4
322(10) 0.01031 298.2 17.0
345(10) 0.01029 298.2 17.6
319(9) 0.01164 298.2 18.3
335(10) 0.01066 298.2 19.1
341(10) 0.00962 298.2 20.0
313(9) 0.01109 298.2 20.9
309(9) 0.01157 298.2 22.0
308(9) 0.01192 298.2 23.2
341(10) 0.00991 298.2 24.6
321(10) 0.00999 298.2 26.1
357(10) 0.00939 298.2 27.7
372(10) 0.00992 298.2 29.5
329(9) 0.01120 298.2 31.5
318(9) 0.01119 298.2 33.7
359(10) 0.00911 298.2 36.1
310(9) 0.01152 298.2 38.8
331(9) 0.01120 298.2 41.6
334(9) 0.01118 298.2 44.7
355(10) 0.00990 298.2 47.9
346(10) 0.00985 298.2 51.4
383(11) 0.00902 298.2 55.1
358(10) 0.01042 298.2 59.0
360(10) 0.01035 298.2 63.0
370(10) 0.00946 298.2 67.2
384(11) 0.00822 298.2 71.4
406(11) 0.00852 298.2 75.7
385(10) 0.00949 298.2 79.9
424(11) 0.00872 298.2 84.0
426(11) 0.00829 298.2 87.8
407(11) 0.00810 298.2 91.3
402(11) 0.00823 298.2 94.3
433(11) 0.00852 298.2 96.8
429(11) 0.00826 298.2 98.7
431(11) 0.00822 298.2 99.8
449(11) 0.00758 298.2 100.1
407(11) 0.00852 298.2 99.7
440(11) 0.00831 298.2 98.4
435(11) 0.00838 298.2 96.5
411(11) 0.00801 298.2 93.9
371(10) 0.00913 298.2 90.8
390(11) 0.00860 298.2 87.3
378(10) 0.00972 298.2 83.4
383(10) 0.00908 298.2 79.4
384(11) 0.00893 298.2 75.1
364(10) 0.00958 298.2 70.9
358(10) 0.00935 298.2 66.6
339(10) 0.01087 298.2 62.5
357(10) 0.00968 298.2 58.4
375(11) 0.00899 298.2 54.5
361(10) 0.00943 298.2 50.8
355(10) 0.00987 298.2 47.2
344(10) 0.01090 298.2 43.9
332(10) 0.01047 298.2 40.8
342(10) 0.00963 298.2 37.9
324(10) 0.01079 298.2 35.2
319(9) 0.01167 298.2 32.7
326(9) 0.01128 298.2 30.5
328(10) 0.01100 298.2 28.4
323(10) 0.01089 298.2 26.5
336(10) 0.01031 298.2 24.8
351(10) 0.01051 298.2 23.2
337(10) 0.01073 298.2 21.8
315(10) 0.01085 298.2 20.5
319(10) 0.01053 298.2 19.4
326(10) 0.01079 298.2 18.4
340(10) 0.01061 298.2 17.4
314(9) 0.01196 298.2 16.6
290(9) 0.01229 298.2 15.9
317(10) 0.00988 298.2 15.2
313(10) 0.01064 298.2 14.6
323(9) 0.01118 298.2 14.1
319(9) 0.01149 298.2 13.6
333(10) 0.01047 298.2 13.1
327(10) 0.00953 298.2 12.7
297(9) 0.01143 298.2 12.4
309(9) 0.01194 298.2 12.1
325(9) 0.01140 298.2 11.8
318(10) 0.01104 298.2 11.5
293(9) 0.01161 298.2 11.3
310(9) 0.01130 298.2 11.0
308(9) 0.01194 298.2 10.8
299(9) 0.01196 298.2 10.7
308(9) 0.01109 298.2 10.5
314(10) 0.01063 298.2 10.4
319(10) 0.01071 298.2 10.2
296(9) 0.01262 298.2 10.1
296(9) 0.01240 298.2 10.0
310(9) 0.01134 298.2 9.9
331(10) 0.01015 298.2 9.8
321(10) 0.01094 298.2 9.7
300(9) 0.01225 298.2 9.7
334(10) 0.01090 298.2 9.6
303(9) 0.01117 298.2 9.5
299(9) 0.01123 298.2 9.5
331(10) 0.01065 298.2 9.4
313(9) 0.01189 298.2 9.3
333(10) 0.01062 298.2 9.3
321(10) 0.01098 298.2 9.2
302(9) 0.01172 298.2 9.1
300(9) 0.01204 298.2 9.1
305(9) 0.01230 298.2 9.0
291(9) 0.01212 298.2 8.9
296(10) 0.01091 298.2 8.8
289(9) 0.01217 298.2 8.8
300(9) 0.01237 298.2 8.7
311(9) 0.01194 298.2 8.6
302(9) 0.01125 298.2 8.6
307(10) 0.01069 298.2 8.5
277(9) 0.01296 298.2 8.4
316(9) 0.01129 298.2 8.3
304(9) 0.01230 298.2 8.3
314(10) 0.01053 298.2 8.2
311(10) 0.01045 298.2 8.2
309(10) 0.01052 298.2 8.1
324(9) 0.01137 298.2 8.1
340(10) 0.01090 298.2 8.0
305(9) 0.01150 298.2 8.0
315(10) 0.01032 298.2 8.0
308(9) 0.01161 298.2 8.0
316(9) 0.01154 298.2 7.9
303(9) 0.01224 298.2 7.9
327(10) 0.01051 298.2 7.9
307(10) 0.01071 298.2 7.9
295(9) 0.01196 298.2 7.9
305(9) 0.01220 298.2 8.0
305(9) 0.01217 298.2 8.0
288(9) 0.01169 298.2 8.0
287(9) 0.01174 298.2 8.0
320(10) 0.01106 298.2 8.1
324(9) 0.01161 298.2 8.1
307(9) 0.01185 298.2 8.2
279(9) 0.01325 298.2 8.2
303(10) 0.01089 298.2 8.3
320(10) 0.01014 298.2 8.3
304(9) 0.01240 298.2 8.4
297(9) 0.01208 298.2 8.5
303(9) 0.01135 298.2 8.6
306(10) 0.01092 298.2 8.6
294(9) 0.01187 298.2 8.7
297(9) 0.01249 298.2 8.8
311(9) 0.01164 298.2 8.9
309(9) 0.01114 298.2 9.0
310(10) 0.01081 298.2 9.1
346(10) 0.00974 298.2 9.2
309(9) 0.01199 298.2 9.2
315(10) 0.01089 298.2 9.3
308(9) 0.01137 298.2 9.4
319(10) 0.01106 298.2 9.5
333(10) 0.01070 298.2 9.6
290(9) 0.01284 298.2 9.6
335(10) 0.01033 298.2 9.7
326(10) 0.01019 298.2 9.8
321(10) 0.01067 298.2 9.8
319(10) 0.01058 298.2 9.9
303(9) 0.01224 298.2 9.9
337(10) 0.01032 298.2 10.0
305(9) 0.01123 298.2 10.0
317(10) 0.01070 298.2 10.0
319(9) 0.01144 298.2 10.1
298(9) 0.01245 298.2 10.1
308(10) 0.01093 298.2 10.1
319(10) 0.01013 298.2 10.1
296(9) 0.01176 298.2 10.2
302(9) 0.01195 298.2 10.2
309(9) 0.01211 298.2 10.2
338(10) 0.00987 298.2 10.2
314(10) 0.01022 298.2 10.3
306(9) 0.01168 298.2 10.3
319(9) 0.01145 298.2 10.3
282(9) 0.01320 298.2 10.3
311(9) 0.01116 298.2 10.4
312(10) 0.01063 298.2 10.4
310(9) 0.01140 298.2 10.4
309(9) 0.01209 298.2 10.5
335(9) 0.01112 298.2 10.5
314(9) 0.01113 298.2 10.5
314(10) 0.01040 298.2 10.6
294(9) 0.01196 298.2 10.6
301(9) 0.01240 298.2 10.7
287(9) 0.01314 298.2 10.7
304(9) 0.01139 298.2 10.8
287(9) 0.01172 298.2 10.9
311(10) 0.01099 298.2 10.9
292(9) 0.01289 298.2 11.0
318(9) 0.01161 298.2 11.1
311(9) 0.01121 298.2 11.2
313(10) 0.01022 298.2 11.3
331(10) 0.01023 298.2 11.4
318(9) 0.01170 298.2 11.5
298(9) 0.01233 298.2 11.6
289(9) 0.01207 298.2 11.7
311(10) 0.01058 298.2 11.9
292(9) 0.01228 298.2 12.0
319(9) 0.01156 298.2 12.2
318(9) 0.01118 298.2 12.3
286(9) 0.01246 298.2 12.5
307(10) 0.01106 298.2 12.7
328(10) 0.01062 298.2 12.9
305(9) 0.01215 298.2 13.1
329(10) 0.01062 298.2 13.3
313(10) 0.01100 298.2 13.6
311(10) 0.01097 298.2 13.8
310(9) 0.01122 298.2 14.1
320(9) 0.01160 298.2 14.4
326(10) 0.01076 298.2 14.7
316(10) 0.01060 298.2 15.1
312(10) 0.01092 298.2 15.4
316(9) 0.01150 298.2 15.8
323(9) 0.01144 298.2 16.2
335(10) 0.01036 298.2 16.6
319(10) 0.01068 298.2 17.0
351(10) 0.00983 298.2 17.5
337(10) 0.01096 298.2 17.9
308(9) 0.01219 298.2 18.5
333(10) 0.01012 298.2 19.0
312(9) 0.01109 298.2 19.5
329(10) 0.01092 298.2 20.1
344(10) 0.01038 298.2 20.8
305(9) 0.01210 298.2 21.4
325(10) 0.01103 298.2 22.1
346(10) 0.00929 298.2 22.8
333(10) 0.01024 298.2 23.5
320(9) 0.01163 298.2 24.3
317(9) 0.01183 298.2 25.1
331(10) 0.01054 298.2 25.9
316(10) 0.01028 298.2 26.8
348(10) 0.00980 298.2 27.7
318(9) 0.01167 298.2 28.6
345(10) 0.01055 298.2 29.6
371(10) 0.00920 298.2 30.6
344(10) 0.00957 298.2 31.6
362(10) 0.00961 298.2 32.6
351(10) 0.01073 298.2 33.7
382(10) 0.00953 298.2 34.8
328(10) 0.01086 298.2 35.9
338(10) 0.01018 298.2 37.1
337(10) 0.01035 298.2 38.2
337(10) 0.01101 298.2 39.4
342(10) 0.01069 298.2 40.5
363(10) 0.00967 298.2 41.7
364(10) 0.00929 298.2 42.9
333(10) 0.01061 298.2 44.0
365(10) 0.01017 298.2 45.2
366(10) 0.00991 298.2 46.3
360(10) 0.00928 298.2 47.4
383(11) 0.00875 298.2 48.5
365(10) 0.00970 298.2 49.5
366(10) 0.01016 298.2 50.5
360(10) 0.00995 298.2 51.4
371(10) 0.00943 298.2 52.3
390(11) 0.00858 298.2 53.1
347(10) 0.01030 298.2 53.9
365(10) 0.01014 298.2 54.6
367(10) 0.00916 298.2 55.2
359(11) 0.00903 298.2 55.8
313(10) 0.01105 298.2 56.2
338(10) 0.01062 298.2 56.6
351(10) 0.01056 298.2 56.9
367(10) 0.00927 298.2 57.1
367(10) 0.00941 298.2 57.1
371(10) 0.00945 298.2 57.1
345(10) 0.01072 298.2 57.0
356(10) 0.01048 298.2 56.7
350(10) 0.00969 298.2 56.3
345(10) 0.00965 298.2 55.9
362(10) 0.00974 298.2 55.3
378(10) 0.00977 298.2 54.6
353(10) 0.01064 298.2 53.8
355(10) 0.00973 298.2 52.9
341(10) 0.00982 298.2 51.9
327(9) 0.01113 298.2 50.8
349(10) 0.01056 298.2 49.7
310(9) 0.01170 298.2 48.5
364(10) 0.00933 298.2 47.2
356(11) 0.00898 298.2 45.9
348(10) 0.00996 298.2 44.6
326(9) 0.01115 298.2 43.3
324(9) 0.01168 298.2 42.0
345(10) 0.00994 298.2 40.7
331(10) 0.00987 298.2 39.4
337(10) 0.01043 298.2 38.1
304(9) 0.01215 298.2 36.8
326(9) 0.01138 298.2 35.6
348(10) 0.00995 298.2 34.3
346(10) 0.00920 298.2 33.2
340(10) 0.00959 298.2 32.0
343(10) 0.01083 298.2 30.9
344(10) 0.01082 298.2 29.9
351(10) 0.00982 298.2 28.9
317(10) 0.01040 298.2 27.9
296(9) 0.01156 298.2 27.0
333(9) 0.01118 298.2 26.1
340(10) 0.01042 298.2 25.2
330(10) 0.00997 298.2 24.4
296(9) 0.01166 298.2 23.6
327(10) 0.01080 298.2 22.9
341(10) 0.01091 298.2 22.2
326(10) 0.01090 298.2 21.5
308(9) 0.01135 298.2 20.9
305(9) 0.01142 298.2 20.3
297(9) 0.01197 298.2 19.7
318(9) 0.01167 298.2 19.2
321(10) 0.01069 298.2 18.7
319(10) 0.01020 298.2 18.2
328(10) 0.01028 298.2 17.8
299(9) 0.01192 298.2 17.4
308(9) 0.01203 298.2 16.9
311(9) 0.01114 298.2 16.6
297(9) 0.01118 298.2 16.2
318(10) 0.01104 298.2 15.9
334(10) 0.01088 298.2 15.6
289(9) 0.01292 298.2 15.2
311(9) 0.01115 298.2 15.0
303(9) 0.01113 298.2 14.7
297(9) 0.01208 298.2 14.4
330(10) 0.01103 298.2 14.2
306(9) 0.01230 298.2 13.9
296(9) 0.01183 298.2 13.7
288(9) 0.01196 298.2 13.5
302(9) 0.01143 298.2 13.3
302(9) 0.01238 298.2 13.1
328(9) 0.01131 298.2 12.9
295(9) 0.01193 298.2 12.7
296(10) 0.01028 298.2 12.6
288(9) 0.01218 298.2 12.4
311(9) 0.01186 298.2 12.2
321(9) 0.01159 298.2 12.1
310(9) 0.01109 298.2 11.9
305(10) 0.01065 298.2 11.8
322(10) 0.01068 298.2 11.7
315(9) 0.01186 298.2 11.5
303(9) 0.01213 298.2 11.4
303(9) 0.01139 298.2 11.3
299(10) 0.01059 298.2 11.1
312(10) 0.01093 298.2 11.0
289(9) 0.01289 298.2 10.9
270(9) 0.01370 298.2 10.8
273(9) 0.01231 298.2 10.7
299(10) 0.01098 298.2 10.6
279(9) 0.01268 298.2 10.5
277(9) 0.01354 298.2 10.4
306(9) 0.01214 298.2 10.3
284(9) 0.01230 298.2 10.2
296(10) 0.01106 298.2 10.1
303(9) 0.01126 298.2 10.0
306(9) 0.01200 298.2 9.9
312(9) 0.01152 298.2 9.8
306(9) 0.01195 298.2 9.7
319(10) 0.01077 298.2 9.6
296(9) 0.01219 298.2 9.6
304(9) 0.01215 298.2 9.5
284(9) 0.01221 298.2 9.4
309(10) 0.01062 298.2 9.3
287(9) 0.01202 298.2 9.3
303(9) 0.01191 298.2 9.2
308(9) 0.01224 298.2 9.1
322(10) 0.01011 298.2 9.1
298(9) 0.01130 298.2 9.0
303(9) 0.01153 298.2 8.9
299(9) 0.01225 298.2 8.9
296(9) 0.01252 298.2 8.8
282(9) 0.01235 298.2 8.8
303(9) 0.01114 298.2 8.7
309(9) 0.01112 298.2 8.7
312(9) 0.01176 298.2 8.6
307(9) 0.01217 298.2 8.6
327(10) 0.01073 298.2 8.5
310(10) 0.01074 298.2 8.5
317(10) 0.01082 298.2 8.4
292(9) 0.01263 298.2 8.4
271(9) 0.01367 298.2 8.4
279(9) 0.01228 298.2 8.3
301(10) 0.01068 298.2 8.3
306(9) 0.01139 298.2 8.3
323(9) 0.01147 298.2 8.3
290(9) 0.01275 298.2 8.2
312(9) 0.01132 298.2 8.2
317(10) 0.00993 298.2 8.2
292(9) 0.01188 298.2 8.2
335(10) 0.01101 298.2 8.2
285(9) 0.01304 298.2 8.1
275(9) 0.01296 298.2 8.1
304(10) 0.01061 298.2 8.1
304(9) 0.01124 298.2 8.1
304(9) 0.01199 298.2 8.1
285(9) 0.01301 298.2 8.1
319(10) 0.01084 298.2 8.1
300(9) 0.01120 298.2 8.1
308(9) 0.01124 298.2 8.1
304(9) 0.01229 298.2 8.1
286(9) 0.01270 298.2 8.2
303(9) 0.01145 298.2 8.2
291(9) 0.01196 298.2 8.2
291(9) 0.01236 298.2 8.2
302(9) 0.01233 298.2 8.2
311(9) 0.01155 298.2 8.2
286(9) 0.01241 298.2 8.3
291(9) 0.01200 298.2 8.3
299(9) 0.01193 298.2 8.3
329(9) 0.01120 298.2 8.4
292(9) 0.01230 298.2 8.4
285(9) 0.01231 298.2 8.4
298(9) 0.01155 298.2 8.5
318(9) 0.01128 298.2 8.5
301(9) 0.01241 298.2 8.6
276(9) 0.01286 298.2 8.6
289(9) 0.01149 298.2 8.7
282(9) 0.01226 298.2 8.7
320(10) 0.01095 298.2 8.8
283(9) 0.01315 298.2 8.8
301(9) 0.01196 298.2 8.9
326(10) 0.01041 298.2 8.9
322(10) 0.01094 298.2 9.0
303(9) 0.01231 298.2 9.1
277(9) 0.01355 298.2 9.1
283(9) 0.01249 298.2 9.2
282(9) 0.01162 298.2 9.3
287(9) 0.01140 298.2 9.3
292(9) 0.01241 298.1 9.4
304(9) 0.01216 298.1 9.5
311(9) 0.01121 298.1 9.5
299(9) 0.01129 298.1 9.6
305(9) 0.01150 298.0 9.7
299(9) 0.01204 298.0 9.8
293(9) 0.01287 298.0 9.9
306(9) 0.01164 298.0 9.9
300(10) 0.01084 298.0 10.0
288(9) 0.01231 297.9 10.1
299(9) 0.01253 297.9 10.2
299(9) 0.01213 297.9 10.3
319(10) 0.01065 297.9 10.3
314(10) 0.01014 297.8 10.4
289(9) 0.01200 297.8 10.5
315(9) 0.01187 297.8 10.6
289(9) 0.01259 297.8 10.6
301(9) 0.01150 297.8 10.7
296(9) 0.01120 297.7 10.8
309(9) 0.01118 297.7 10.9
317(9) 0.01184 297.7 10.9
300(9) 0.01189 297.7 11.0
317(10) 0.01069 297.6 11.1
310(10) 0.01102 297.6 11.2
320(10) 0.01063 297.6 11.2
281(9) 0.01298 297.6 11.3
307(9) 0.01209 297.5 11.4
305(9) 0.01166 297.5 11.4
316(10) 0.01106 297.5 11.5
312(9) 0.01136 297.5 11.6
273(9) 0.01362 297.5 11.6
308(9) 0.01146 297.4 11.7
290(9) 0.01182 297.4 11.8
321(10) 0.01045 297.4 11.8
327(10) 0.01078 297.4 11.9
325(9) 0.01138 297.3 12.0
286(9) 0.01229 297.3 12.0
302(9) 0.01142 297.3 12.1
321(10) 0.01048 297.3 12.1
306(9) 0.01166 297.3 12.2
316(9) 0.01169 297.2 12.3
278(9) 0.01280 297.2 12.3
295(10) 0.01101 297.2 12.4
289(9) 0.01222 297.2 12.5
299(9) 0.01200 297.1 12.5
307(9) 0.01219 297.1 12.6
300(9) 0.01124 297.1 12.7
303(10) 0.01054 297.1 12.7
300(9) 0.01161 297.0 12.8
300(9) 0.01193 297.0 12.9
311(9) 0.01210 297.0 12.9
302(9) 0.01137 297.0 13.0
324(10) 0.00974 297.0 13.1
298(9) 0.01170 296.9 13.1
310(9) 0.01175 296.9 13.2
310(9) 0.01201 296.9 13.2
307(10) 0.01104 296.9 13.3
302(10) 0.01064 296.8 13.3
307(10) 0.01087 296.8 13.4
313(9) 0.01181 296.8 13.4
260(8) 0.01440 296.8 13.4
304(9) 0.01133 296.8 13.5
291(9) 0.01135 296.7 13.5
316(9) 0.01117 296.7 13.5
306(9) 0.01236 296.7 13.5
293(9) 0.01263 296.7 13.5
298(9) 0.01201 296.6 13.5
315(10) 0.01062 296.6 13.5
312(9) 0.01121 296.6 13.5
297(9) 0.01249 296.6 13.5
323(9) 0.01128 296.5 13.5
295(9) 0.01166 296.5 13.4
293(9) 0.01149 296.5 13.4
300(10) 0.01084 296.5 13.4
285(9) 0.01303 296.5 13.3
309(9) 0.01161 296.4 13.3
299(9) 0.01153 296.4 13.2
308(9) 0.01111 296.4 13.1
305(9) 0.01184 296.4 13.1
292(9) 0.01278 296.3 13.0
286(9) 0.01250 296.3 12.9
296(9) 0.01197 296.3 12.9
295(9) 0.01177 296.3 12.8
305(9) 0.01157 296.3 12.7
341(10) 0.01084 296.2 12.6
312(9) 0.01113 296.2 12.6
300(9) 0.01155 296.2 12.5
299(9) 0.01156 296.2 12.4
302(9) 0.01166 296.1 12.3
281(9) 0.01314 296.1 12.3
287(9) 0.01233 296.1 12.2
291(9) 0.01210 296.1 12.1
307(9) 0.01123 296.0 12.1
305(9) 0.01193 296.0 12.0
331(9) 0.01127 296.0 11.9
325(10) 0.01051 296.0 11.9
305(10) 0.01053 296.0 11.8
315(9) 0.01117 295.9 11.7
298(9) 0.01228 295.9 11.7
306(9) 0.01234 295.9 11.6
299(9) 0.01152 295.9 11.6
284(9) 0.01170 295.8 11.5
299(9) 0.01176 295.8 11.5
314(9) 0.01191 295.8 11.4
286(9) 0.01312 295.8 11.4
310(10) 0.01090 295.8 11.4
282(9) 0.01168 295.7 11.4
314(9) 0.01110 295.7 11.3
314(9) 0.01155 295.7 11.3
303(9) 0.01220 295.7 11.3
314(10) 0.01074 295.6 11.3
329(10) 0.00950 295.6 11.3
306(9) 0.01144 295.6 11.4
274(9) 0.01370 295.6 11.4
293(9) 0.01239 295.5 11.5
315(10) 0.01095 295.5 11.6
297(10) 0.01103 295.5 11.7
294(9) 0.01171 295.5 11.9
287(9) 0.01301 295.5 12.1
290(9) 0.01233 295.4 12.4
283(9) 0.01248 295.4 12.7
302(10) 0.01058 295.4 13.2
298(9) 0.01155 295.4 13.7
318(9) 0.01154 295.3 14.3
303(9) 0.01198 295.3 15.1
332(10) 0.01044 295.3 15.9
318(10) 0.01066 295.3 16.9
297(9) 0.01140 295.2 18.1
313(9) 0.01191 295.2 19.4
329(10) 0.01072 295.2 20.8
319(10) 0.01103 295.2 22.3
316(10) 0.01093 295.2 23.9
319(9) 0.01120 295.1 25.5
319(9) 0.01169 295.1 27.1
332(10) 0.01066 295.1 28.6
339(10) 0.00986 295.1 29.9
311(10) 0.01096 295.0 31.0
318(9) 0.01137 295.0 31.8
336(10) 0.01106 295.0 32.2
333(10) 0.01016 295.0 32.1
316(10) 0.01029 295.0 31.7
332(10) 0.00986 294.9 30.8
291(9) 0.01228 294.9 29.6
293(9) 0.01270 294.9 28.2
312(10) 0.01107 294.9 26.6
312(10) 0.01049 294.8 25.0
309(9) 0.01135 294.8 23.3
304(9) 0.01207 294.8 21.7
323(9) 0.01133 294.8 20.2
288(9) 0.01216 294.7 18.8
309(10) 0.01095 294.7 17.5
307(9) 0.01148 294.7 16.4
297(9) 0.01252 294.7 15.4
304(9) 0.01230 294.7 14.5
291(9) 0.01252 294.6 13.8
301(10) 0.01099 294.6 13.2
286(9) 0.01218 294.6 12.7
280(9) 0.01301 294.6 12.3
274(9) 0.01363 294.5 11.9
287(9) 0.01241 294.5 11.7
301(10) 0.01092 294.5 11.5
317(10) 0.01100 294.5 11.3
290(9) 0.01264 294.5 11.2
299(9) 0.01248 294.4 11.2
293(9) 0.01195 294.4 11.1
315(10) 0.01052 294.4 11.1
315(9) 0.01117 294.4 11.1
312(9) 0.01213 294.3 11.2
320(10) 0.01091 294.3 11.2
287(9) 0.01209 294.3 11.3
315(10) 0.01086 294.3 11.3
327(10) 0.01052 294.2 11.4
286(9) 0.01306 294.2 11.5
321(9) 0.01111 294.2 11.6
337(10) 0.01017 294.2 11.8
305(10) 0.01089 294.2 11.9
299(9) 0.01128 294.1 12.1
287(9) 0.01304 294.1 12.2
293(9) 0.01226 294.1 12.4
288(9) 0.01187 294.1 12.6
303(10) 0.01101 294.0 12.8
306(9) 0.01184 294.0 13.0
306(9) 0.01215 294.0 13.2
315(10) 0.01090 294.0 13.4
289(9) 0.01149 294.0 13.7
299(9) 0.01172 293.9 14.0
314(9) 0.01154 293.9 14.2
312(9) 0.01181 293.9 14.5
324(10) 0.01040 293.9 14.8
298(9) 0.01122 293.8 15.1
313(10) 0.01098 293.8 15.4
308(9) 0.01167 293.8 15.7
305(9) 0.01217 293.8 16.0
311(9) 0.01128 293.7 16.4
302(10) 0.01086 293.7 16.7
313(10) 0.01086 293.7 17.0
323(10) 0.01084 293.7 17.3
303(9) 0.01234 293.7 17.6
292(9) 0.01194 293.6 17.9
299(9) 0.01163 293.6 18.2
315(10) 0.01094 293.6 18.5
325(9) 0.01117 293.6 18.9
327(9) 0.01131 293.5 19.2
308(9) 0.01143 293.5 19.5
307(10) 0.01085 293.5 19.8
328(10) 0.01039 293.5 20.1
323(9) 0.01126 293.5 20.4
326(9) 0.01135 293.4 20.7
306(9) 0.01114 293.4 21.1
307(10) 0.01048 293.4 21.4
323(10) 0.01077 293.4 21.7
326(9) 0.01131 293.3 22.1
305(9) 0.01216 293.3 22.4
316(10) 0.01106 293.3 22.8
297(9) 0.01147 293.3 23.2
321(10) 0.01108 293.2 23.6
336(9) 0.01121 293.2 23.9
314(9) 0.01153 293.2 24.3
324(10) 0.01067 293.2 24.7
317(10) 0.01077 293.2 25.1
302(9) 0.01191 293.1 25.5
289(9) 0.01310 293.1 25.8
293(9) 0.01182 293.1 26.2
319(10) 0.01069 293.1 26.6
318(10) 0.01058 293.0 26.9
337(10) 0.01030 293.0 27.3
312(9) 0.01192 293.0 27.6
329(10) 0.01088 293.0 27.9
319(10) 0.01082 293.0 28.2
324(10) 0.01039 292.9 28.5
305(9) 0.01167 292.9 28.8
323(9) 0.01154 292.9 29.1
323(9) 0.01116 292.9 29.3
331(10) 0.01046 292.8 29.5
315(9) 0.01137 292.8 29.7
344(10) 0.01015 292.8 29.9
315(9) 0.01188 292.8 30.0
320(10) 0.01065 292.7 30.2
338(10) 0.01005 292.7 30.3
325(10) 0.01063 292.7 30.4
317(9) 0.01135 292.7 30.5
318(9) 0.01171 292.7 30.5
323(10) 0.01025 292.6 30.6
313(10) 0.01077 292.6 30.6
312(10) 0.01094 292.6 30.7
327(10) 0.01086 292.6 30.7
324(9) 0.01142 292.5 30.7
345(10) 0.00999 292.5 30.7
313(10) 0.01068 292.5 30.7
305(9) 0.01144 292.5 30.6
343(10) 0.01038 292.5 30.6
309(9) 0.01204 292.4 30.6
324(10) 0.01074 292.4 30.5
302(9) 0.01139 292.4 30.5
315(10) 0.01108 292.4 30.4
348(10) 0.01077 292.3 30.4
317(9) 0.01187 292.3 30.3
326(10) 0.01100 292.3 30.2
313(10) 0.01038 292.3 30.1
335(10) 0.01034 292.2 30.0
351(10) 0.01064 292.2 29.8
326(9) 0.01148 292.2 29.7
333(10) 0.01034 292.2 29.5
298(9) 0.01126 292.2 29.2
315(9) 0.01122 292.1 29.0
340(10) 0.01098 292.1 28.6
316(9) 0.01169 292.1 28.3
310(9) 0.01113 292.1 27.9
326(10) 0.00980 292.0 27.5
312(9) 0.01135 292.0 27.1
303(9) 0.01224 292.0 26.6
296(9) 0.01220 292.0 26.2
325(10) 0.01056 292.0 25.7
312(10) 0.01074 291.9 25.2
313(10) 0.01090 291.9 24.8
340(10) 0.01099 291.9 24.3
295(9) 0.01250 291.9 23.9
309(9) 0.01110 291.8 23.5
319(10) 0.01045 291.8 23.1
288(9) 0.01214 291.8 22.8
314(9) 0.01174 291.8 22.5
298(9) 0.01216 291.7 22.3
289(9) 0.01187 291.7 22.1
307(10) 0.01086 291.7 22.0
297(9) 0.01190 291.7 21.9
317(9) 0.01173 291.7 22.0
302(9) 0.01147 291.6 22.1
322(10) 0.01073 291.6 22.2
324(10) 0.01052 291.6 22.5
343(10) 0.01017 291.6 22.8
304(9) 0.01220 291.5 23.1
299(9) 0.01190 291.5 23.5
290(9) 0.01214 291.5 24.0
310(9) 0.01135 291.5 24.4
325(10) 0.01103 291.5 24.9
314(9) 0.01173 291.4 25.3
312(9) 0.01134 291.4 25.6
313(10) 0.01092 291.4 25.8
302(10) 0.01085 291.4 25.9
301(9) 0.01212 291.3 25.8
302(9) 0.01230 291.3 25.5
318(10) 0.01103 291.3 25.1
294(9) 0.01123 291.3 24.5
288(9) 0.01146 291.2 23.8
291(9) 0.01234 291.2 23.1
332(9) 0.01120 291.2 22.2
312(10) 0.01100 291.2 21.4
300(10) 0.01103 291.2 20.6
305(9) 0.01177 291.1 19.8
287(9) 0.01305 291.1 19.0
312(9) 0.01172 291.1 18.3
300(9) 0.01181 291.1 17.6
295(9) 0.01124 291.0 17.0
299(10) 0.01107 291.0 16.5
303(9) 0.01219 291.0 16.0
314(9) 0.01196 291.0 15.6
307(9) 0.01184 291.0 15.2
314(10) 0.01074 290.9 14.9
309(9) 0.01113 290.9 14.6
301(9) 0.01213 290.9 14.4
299(9) 0.01251 290.9 14.3
318(9) 0.01111 290.8 14.1
321(10) 0.01023 290.8 14.0
296(9) 0.01193 290.8 13.9
268(9) 0.01371 290.8 13.9
298(9) 0.01187 290.7 13.9
303(9) 0.01160 290.7 13.9
301(9) 0.01140 290.7 13.9
290(9) 0.01221 290.7 14.0
293(9) 0.01257 290.7 14.1
306(9) 0.01162 290.6 14.2
291(9) 0.01175 290.6 14.4
295(9) 0.01122 290.6 14.5
296(9) 0.01141 290.6 14.7
305(9) 0.01221 290.5 15.0
320(10) 0.01073 290.5 15.2
318(10) 0.01068 290.5 15.5
298(9) 0.01193 290.5 15.8
311(9) 0.01145 290.5 16.1
310(9) 0.01201 290.4 16.4
312(10) 0.01105 290.4 16.8
325(10) 0.01050 290.4 17.2
293(9) 0.01171 290.4 17.6
286(9) 0.01235 290.3 18.0
332(9) 0.01116 290.3 18.4
342(10) 0.01028 290.3 18.8
336(10) 0.00993 290.3 19.3
309(9) 0.01141 290.2 19.7
317(9) 0.01171 290.2 20.1
337(9) 0.01120 290.2 20.5
342(10) 0.00985 290.2 20.9
295(9) 0.01142 290.2 21.3
293(9) 0.01189 290.1 21.7
306(9) 0.01192 290.1 22.0
328(9) 0.01118 290.1 22.4
302(9) 0.01136 290.1 22.8
289(9) 0.01116 290.0 23.1
320(10) 0.01044 290.0 23.5
301(9) 0.01243 290.0 23.9
294(9) 0.01239 290.0 24.2
337(10) 0.01057 289.9 24.6
333(10) 0.00993 289.9 24.9
337(10) 0.01025 289.9 25.2
323(9) 0.01160 289.9 25.4
294(9) 0.01247 289.9 25.5
312(9) 0.01108 289.8 25.6
307(10) 0.01102 289.8 25.5
310(9) 0.01155 289.8 25.4
316(9) 0.01191 289.8 25.2
335(10) 0.01059 289.7 25.0
317(10) 0.01091 289.7 24.7
318(10) 0.01036 289.7 24.4
337(10) 0.00978 289.7 24.0
301(9) 0.01249 289.7 23.7
311(9) 0.01160 289.6 23.4
312(10) 0.01093 289.6 23.1
333(10) 0.01006 289.6 22.8
320(10) 0.01043 289.6 22.6
303(9) 0.01229 289.5 22.3
281(9) 0.01263 289.5 22.1
320(10) 0.01030 289.5 21.9
316(10) 0.01057 289.5 21.7
309(9) 0.01156 289.4 21.5
328(9) 0.01128 289.4 21.2
312(9) 0.01131 289.4 21.0
334(10) 0.00980 289.4 20.8
313(10) 0.01067 289.4 20.5
286(9) 0.01226 289.3 20.2
293(9) 0.01260 289.3 19.9
324(10) 0.01082 289.3 19.6
311(10) 0.01060 289.3 19.3
303(10) 0.01064 289.2 18.9
294(9) 0.01233 289.2 18.5
323(9) 0.01163 289.2 18.1
300(9) 0.01134 289.2 17.7
291(9) 0.01167 289.2 17.3
301(9) 0.01132 289.1 16.8
333(10) 0.01095 289.1 16.4
286(9) 0.01306 289.1 15.9
291(9) 0.01128 289.1 15.5
294(10) 0.01083 289.0 15.0
302(9) 0.01110 289.0 14.6
295(9) 0.01279 289.0 14.1
327(9) 0.01137 289.0 13.7
316(10) 0.01106 288.9 13.2
295(9) 0.01115 288.9 12.8
332(10) 0.00984 288.9 12.4
298(9) 0.01257 288.9 12.0
306(9) 0.01217 288.9 11.6
311(10) 0.01083 288.8 11.2
302(9) 0.01117 288.8 10.8
297(9) 0.01240 288.8 10.5
292(9) 0.01261 288.8 10.1
282(9) 0.01312 288.7 9.8
301(9) 0.01165 288.7 9.5
290(9) 0.01111 288.7 9.2
312(10) 0.01030 288.7 8.9
288(9) 0.01307 288.7 8.6
312(9) 0.01147 288.6 8.3
298(9) 0.01190 288.6 8.1
273(9) 0.01239 288.6 7.8
311(10) 0.01100 288.6 7.6
295(9) 0.01252 288.5 7.4
284(9) 0.01276 288.5 7.2
327(10) 0.01073 288.5 7.0
326(10) 0.01060 288.5 6.8
297(9) 0.01237 288.4 6.6
292(9) 0.01276 288.4 6.4
303(9) 0.01138 288.4 6.2
276(9) 0.01290 288.4 6.1
286(9) 0.01184 288.4 5.9
285(9) 0.01218 288.3 5.8
309(9) 0.01192 288.3 5.7
311(9) 0.01143 288.3 5.5
274(9) 0.01249 288.3 5.4
280(9) 0.01202 288.2 5.3
274(9) 0.01336 288.2 5.2
301(9) 0.01241 288.2 5.1
293(9) 0.01232 288.2 5.0
263(9) 0.01354 288.2 4.9
298(9) 0.01137 288.1 4.8
293(9) 0.01245 288.1 4.7
312(9) 0.01203 288.1 4.6
286(9) 0.01194 288.1 4.6
295(9) 0.01127 288.0 4.5
314(10) 0.01052 288.0 4.4
304(9) 0.01209 288.0 4.4
301(9) 0.01220 288.0 4.3
302(9) 0.01136 287.9 4.2
281(9) 0.01147 287.9 4.2
301(9) 0.01130 287.9 4.1
319(9) 0.01142 287.9 4.1
304(9) 0.01233 287.9 4.0
284(9) 0.01182 287.8 4.0
291(10) 0.01101 287.8 4.0
284(9) 0.01261 287.8 3.9
304(9) 0.01228 287.8 3.9
297(9) 0.01238 287.7 3.8
303(9) 0.01135 287.7 3.8
279(9) 0.01188 287.7 3.8
325(10) 0.01074 287.7 3.8
318(9) 0.01172 287.7 3.7
305(9) 0.01197 287.6 3.7
325(10) 0.01042 287.6 3.7
296(10) 0.01074 287.6 3.6
293(9) 0.01189 287.6 3.6
311(9) 0.01210 287.5 3.6
301(9) 0.01220 287.5 3.6
288(9) 0.01216 287.5 3.6
274(9) 0.01208 287.5 3.6
298(9) 0.01115 287.4 3.5
287(9) 0.01314 287.4 3.5
291(9) 0.01235 287.4 3.5
290(9) 0.01163 287.4 3.5
299(10) 0.01089 287.4 3.5
302(9) 0.01112 287.3 3.5
304(9) 0.01223 287.3 3.5
297(9) 0.01181 287.3 3.5
295(9) 0.01192 287.3 3.5
286(9) 0.01205 287.2 3.5
298(9) 0.01119 287.2 3.4
266(8) 0.01404 287.2 3.4
296(9) 0.01194 287.2 3.4
293(9) 0.01178 287.2 3.4
286(9) 0.01198 287.1 3.4
270(9) 0.01345 287.1 3.4
286(9) 0.01305 287.1 3.4
273(9) 0.01314 287.1 3.4
276(9) 0.01174 287.0 3.5
277(9) 0.01216 287.0 3.5
294(9) 0.01186 287.0 3.5
292(9) 0.01286 287.0 3.5
268(9) 0.01302 286.9 3.5
281(9) 0.01202 286.9 3.5
303(9) 0.01163 286.9 3.5
293(9) 0.01228 286.9 3.5
272(9) 0.01376 286.9 3.5
309(9) 0.01119 286.8 3.5
283(9) 0.01183 286.8 3.6
297(9) 0.01172 286.8 3.6
297(9) 0.01260 286.9 3.6
304(9) 0.01219 286.9 3.6
318(10) 0.01047 286.9 3.6
287(9) 0.01169 286.9 3.7
296(9) 0.01169 286.9 3.7
277(9) 0.01348 286.9 3.7
293(9) 0.01274 286.9 3.7
295(9) 0.01187 286.9 3.8
316(10) 0.01036 286.9 3.8
280(9) 0.01236 286.9 3.8
298(9) 0.01231 286.9 3.8
296(9) 0.01262 286.9 3.9
307(9) 0.01123 287.0 3.9
287(9) 0.01147 287.0 4.0
328(10) 0.01076 287.0 4.0
322(9) 0.01158 287.0 4.0
271(9) 0.01373 287.0 4.1
281(9) 0.01207 287.0 4.1
287(9) 0.01124 287.0 4.2
281(9) 0.01235 287.0 4.2
269(8) 0.01396 287.0 4.3
293(9) 0.01254 287.0 4.3
303(9) 0.01173 287.0 4.4
289(9) 0.01186 287.0 4.4
299(9) 0.01184 287.1 4.5
291(9) 0.01265 287.1 4.6
301(9) 0.01187 287.1 4.6
311(9) 0.01133 287.1 4.7
315(10) 0.01069 287.1 4.8
300(9) 0.01156 287.1 4.8
275(9) 0.01351 287.1 4.9
289(9) 0.01233 287.1 5.0
297(9) 0.01156 287.1 5.1
283(9) 0.01192 287.1 5.1
308(10) 0.01090 287.1 5.2
296(9) 0.01277 287.1 5.3
280(9) 0.01274 287.2 5.4
288(9) 0.01207 287.2 5.5
305(9) 0.01129 287.2 5.6
306(9) 0.01146 287.2 5.7
283(9) 0.01326 287.2 5.8
278(9) 0.01267 287.2 5.9
304(10) 0.01076 287.2 6.0
288(9) 0.01214 287.2 6.1
306(9) 0.01175 287.2 6.2
311(9) 0.01192 287.2 6.3
311(9) 0.01133 287.2 6.4
286(9) 0.01192 287.2 6.5
294(9) 0.01137 287.3 6.6
281(9) 0.01288 287.3 6.7
288(9) 0.01303 287.3 6.8
288(9) 0.01184 287.3 6.9
288(9) 0.01150 287.3 7.0
297(9) 0.01194 287.3 7.1
296(9) 0.01249 287.3 7.2
282(9) 0.01321 287.3 7.3
295(9) 0.01194 287.3 7.4
277(9) 0.01239 287.3 7.5
316(10) 0.01105 287.3 7.6
298(9) 0.01218 287.3 7.7
316(9) 0.01186 287.4 7.8
290(9) 0.01225 287.4 7.9
302(10) 0.01081 287.4 8.0
295(9) 0.01170 287.4 8.0
285(9) 0.01309 287.4 8.1
326(10) 0.01099 287.4 8.2
316(9) 0.01116 287.4 8.3
316(10) 0.01040 287.4 8.3
296(9) 0.01202 287.4 8.4
312(9) 0.01180 287.4 8.5
319(9) 0.01143 287.4 8.5
297(9) 0.01159 287.4 8.6
308(10) 0.01041 287.4 8.6
305(9) 0.01126 287.5 8.7
301(9) 0.01237 287.5 8.7
293(9) 0.01237 287.5 8.8
304(9) 0.01136 287.5 8.8
295(9) 0.01130 287.5 8.9
312(10) 0.01081 287.5 8.9
287(9) 0.01289 287.5 9.0
291(9) 0.01245 287.5 9.0
310(10) 0.01098 287.5 9.1
296(9) 0.01132 287.5 9.2
275(9) 0.01295 287.5 9.2
292(9) 0.01273 287.5 9.3
307(9) 0.01147 287.6 9.4
290(9) 0.01174 287.6 9.5
275(9) 0.01245 287.6 9.5
324(10) 0.01060 287.6 9.6
305(9) 0.01205 287.6 9.7
304(9) 0.01168 287.6 9.9
306(9) 0.01130 287.6 10.0
306(9) 0.01124 287.6 10.1
318(9) 0.01140 287.6 10.2
324(9) 0.01141 287.6 10.4
325(10) 0.01077 287.6 10.6
298(9) 0.01147 287.6 10.7
302(9) 0.01191 287.7 10.9
323(9) 0.01128 287.7 11.1
321(9) 0.01163 287.7 11.3
303(9) 0.01118 287.7 11.5
312(10) 0.01026 287.7 11.8
296(9) 0.01183 287.7 12.0
297(9) 0.01212 287.7 12.3
296(9) 0.01278 287.7 12.6
295(9) 0.01163 287.7 12.8
307(10) 0.01041 287.7 13.2
307(9) 0.01133 287.7 13.5
301(9) 0.01223 287.7 13.8
299(9) 0.01241 287.8 14.2
317(9) 0.01140 287.8 14.5
322(10) 0.01007 287.8 14.9
309(9) 0.01125 287.8 15.3
325(9) 0.01134 287.8 15.7
301(9) 0.01211 287.8 16.1
278(9) 0.01233 287.8 16.6
310(10) 0.01051 287.8 17.0
305(9) 0.01164 287.8 17.5
295(9) 0.01273 287.8 17.9
303(9) 0.01186 287.8 18.4
305(9) 0.01134 287.8 18.9
304(9) 0.01151 287.9 19.4
310(9) 0.01135 287.9 19.8
321(9) 0.01158 287.9 20.3
303(9) 0.01205 287.9 20.8
306(10) 0.01105 287.9 21.2
298(9) 0.01162 287.9 21.7
320(10) 0.01071 287.9 22.1
299(9) 0.01242 287.9 22.5
295(9) 0.01206 287.9 22.9
309(9) 0.01123 287.9 23.2
316(10) 0.01080 287.9 23.5
314(10) 0.01086 287.9 23.7
318(9) 0.01179 288.0 23.9
325(9) 0.01113 288.0 24.1
325(10) 0.01034 288.0 24.2
320(10) 0.01079 288.0 24.2
327(10) 0.01092 288.0 24.3
318(9) 0.01160 288.0 24.2
295(9) 0.01212 288.0 24.1
315(9) 0.01110 288.0 24.0
336(10) 0.01030 288.0 23.8
304(9) 0.01200 288.0 23.5
318(9) 0.01186 288.0 23.3
312(10) 0.01107 288.0 23.0
312(10) 0.01076 288.1 22.7
320(10) 0.01084 288.1 22.3
329(10) 0.01107 288.1 22.0
320(9) 0.01157 288.1 21.6
317(10) 0.01077 288.1 21.2
313(10) 0.01055 288.1 20.8
322(10) 0.01067 288.1 20.5
316(9) 0.01171 288.1 20.1
319(9) 0.01161 288.1 19.7
313(10) 0.01080 288.1 19.4
316(10) 0.01027 288.1 19.0
322(9) 0.01123 288.1 18.7
288(9) 0.01268 288.2 18.4
319(9) 0.01170 288.2 18.1
305(9) 0.01165 288.2 17.9
311(10) 0.01031 288.2 17.7
319(10) 0.01107 288.2 17.5
326(9) 0.01124 288.2 17.4
311(9) 0.01195 288.2 17.3
274(9) 0.01275 288.2 17.2
319(10) 0.00987 288.2 17.2
288(9) 0.01128 288.2 17.3
288(9) 0.01276 288.2 17.4
335(10) 0.01099 288.2 17.5
294(9) 0.01205 288.3 17.6
301(10) 0.01070 288.3 17.8
307(9) 0.01124 288.3 18.0
296(9) 0.01254 288.3 18.3
323(9) 0.01117 288.3 18.5
308(9) 0.01123 288.3 18.7
296(9) 0.01165 288.3 18.9
290(9) 0.01213 288.3 19.1
312(9) 0.01193 288.3 19.2
317(9) 0.01170 288.3 19.2
327(10) 0.01038 288.3 19.2
295(9) 0.01174 288.3 19.0
339(10) 0.01004 288.4 18.8
320(9) 0.01154 288.4 18.4
314(9) 0.01150 288.4 18.0
328(10) 0.01075 288.4 17.4
304(9) 0.01176 288.4 16.9
311(9) 0.01133 288.4 16.3
329(9) 0.01125 288.4 15.6
318(9) 0.01129 288.4 15.0
322(10) 0.01035 288.4 14.3
311(9) 0.01143 288.4 13.7
300(9) 0.01161 288.4 13.1
296(9) 0.01264 288.4 12.6
309(10) 0.01102 288.5 12.0
296(9) 0.01114 288.5 11.5
311(10) 0.01081 288.5 11.0
290(9) 0.01241 288.5 10.6
282(9) 0.01322 288.5 10.2
292(9) 0.01196 288.5 9.8
302(10) 0.01080 288.5 9.5
280(9) 0.01185 288.5 9.2
310(9) 0.01133 288.5 8.9
304(9) 0.01223 288.5 8.6
285(9) 0.01181 288.5 8.4
303(10) 0.01054 288.5 8.1
292(9) 0.01186 288.6 7.9
290(9) 0.01263 288.6 7.8
302(9) 0.01244 288.6 7.6
319(10) 0.01104 288.6 7.4
300(10) 0.01105 288.6 7.3
304(9) 0.01136 288.6 7.1
300(9) 0.01231 288.6 7.0
298(9) 0.01260 288.6 6.9
291(9) 0.01201 288.6 6.8
291(9) 0.01113 288.6 6.6
292(9) 0.01208 288.6 6.5
297(9) 0.01254 288.6 6.4
321(9) 0.01146 288.6 6.3
322(10) 0.01087 288.7 6.2
307(9) 0.01123 288.7 6.1
297(9) 0.01216 288.7 6.0
300(9) 0.01233 288.7 6.0
290(9) 0.01270 288.7 5.9
271(9) 0.01325 288.7 5.8
313(10) 0.01061 288.7 5.7
307(9) 0.01141 288.7 5.7
296(9) 0.01258 288.7 5.6
301(9) 0.01190 288.7 5.5
306(9) 0.01157 288.7 5.5
299(9) 0.01131 288.7 5.4
291(9) 0.01169 288.8 5.3
299(9) 0.01239 288.8 5.3
311(9) 0.01138 288.8 5.2
281(9) 0.01288 288.8 5.2
308(10) 0.01062 288.8 5.1
285(9) 0.01236 288.8 5.1
295(9) 0.01260 288.8 5.1
280(9) 0.01291 288.8 5.0
302(9) 0.01116 288.8 5.0
316(10) 0.01096 288.8 5.0
314(9) 0.01125 288.8 4.9
299(9) 0.01241 288.8 4.9
299(9) 0.01214 288.9 4.9
315(10) 0.01054 288.9 4.9
264(9) 0.01316 288.9 4.8
299(9) 0.01221 288.9 4.8
326(9) 0.01132 288.9 4.8
312(9) 0.01140 288.9 4.8
274(9) 0.01236 288.9 4.8
289(9) 0.01178 288.9 4.8
279(9) 0.01314 288.9 4.8
289(9) 0.01262 288.9 4.8
292(9) 0.01206 288.9 4.8
306(10) 0.01075 288.9 4.8
273(9) 0.01288 289.0 4.8
279(9) 0.01329 289.0 4.9
279(9) 0.01325 289.0 4.9
265(9) 0.01375 289.0 4.9
296(9) 0.01109 289.0 5.0
300(9) 0.01147 289.0 5.0
282(9) 0.01326 289.0 5.1
304(9) 0.01185 289.0 5.1
291(9) 0.01216 289.0 5.2
267(9) 0.01239 289.0 5.3
268(9) 0.01298 289.0 5.4
301(9) 0.01232 289.0 5.5
286(9) 0.01233 289.1 5.6
296(9) 0.01155 289.1 5.7
301(10) 0.01076 289.1 5.8
293(9) 0.01196 289.1 6.0
327(9) 0.01137 289.1 6.1
319(9) 0.01147 289.1 6.3
278(9) 0.01285 289.1 6.5
313(10) 0.01025 289.1 6.7
308(9) 0.01145 289.1 6.9
311(9) 0.01208 289.1 7.1
301(9) 0.01225 289.1 7.3
278(9) 0.01274 289.1 7.5
279(9) 0.01177 289.2 7.8
280(9) 0.01233 289.2 8.0
296(9) 0.01248 289.2 8.3
304(9) 0.01185 289.2 8.5
285(9) 0.01209 289.2 8.7
316(10) 0.01050 289.2 8.9
277(9) 0.01246 289.2 9.1
297(9) 0.01258 289.2 9.2
337(10) 0.01057 289.2 9.3
303(9) 0.01122 289.2 9.4
303(9) 0.01133 289.2 9.4
288(9) 0.01252 289.2 9.4
298(9) 0.01232 289.3 9.4
324(10) 0.01090 289.3 9.4
313(10) 0.01080 289.3 9.3
293(9) 0.01204 289.3 9.2
292(9) 0.01233 289.3 9.1
299(9) 0.01222 289.3 8.9
280(9) 0.01182 289.3 8.8
275(9) 0.01281 289.3 8.7
309(9) 0.01139 289.3 8.6
313(9) 0.01133 289.3 8.5
282(9) 0.01326 289.3 8.4
301(9) 0.01158 289.3 8.3
300(9) 0.01134 289.4 8.2
334(10) 0.01038 289.4 8.1
308(9) 0.01208 289.4 8.1
306(9) 0.01226 289.4 8.0
314(9) 0.01116 289.4 8.0
345(10) 0.00949 289.4 8.0
343(10) 0.01002 289.4 7.9
302(9) 0.01231 289.4 7.9
300(9) 0.01228 289.4 7.9
318(10) 0.01108 289.4 8.0
319(10) 0.00993 289.4 8.0
283(9) 0.01179 289.4 8.0
296(9) 0.01229 289.5 8.1
345(10) 0.01055 289.5 8.1
309(9) 0.01120 289.5 8.1
308(10) 0.00978 289.5 8.2
294(9) 0.01153 289.5 8.3
328(9) 0.01126 289.5 8.3
291(9) 0.01289 289.5 8.4
307(9) 0.01110 289.5 8.4
303(10) 0.01102 289.5 8.5
286(9) 0.01248 289.5 8.6
323(9) 0.01143 289.5 8.6
312(9) 0.01177 289.5 8.7
307(9) 0.01111 289.6 8.8
319(10) 0.01067 289.6 8.8
325(10) 0.01051 289.6 8.9
294(9) 0.01249 289.6 9.0
316(9) 0.01134 289.6 9.0
324(10) 0.01099 289.6 9.1
322(10) 0.01023 289.6 9.1
303(9) 0.01146 289.6 9.2
305(9) 0.01220 289.6 9.2
302(9) 0.01205 289.6 9.3
307(9) 0.01147 289.6 9.3
299(9) 0.01111 289.6 9.4
295(9) 0.01217 289.7 9.4
324(9) 0.01146 289.7 9.5
321(10) 0.01067 289.7 9.5
292(9) 0.01186 289.7 9.5
307(9) 0.01141 289.7 9.6
321(9) 0.01120 289.7 9.6
303(9) 0.01221 289.7 9.6
332(10) 0.01057 289.7 9.6
317(10) 0.01059 289.7 9.6
304(10) 0.01096 289.7 9.7
299(9) 0.01215 289.7 9.7
321(9) 0.01160 289.7 9.7
339(10) 0.01019 289.8 9.7
308(10) 0.01090 289.8 9.7
303(9) 0.01140 289.8 9.7
286(9) 0.01244 289.8 9.7
285(9) 0.01306 289.8 9.7
332(10) 0.01043 289.8 9.6
323(10) 0.00992 289.8 9.6
293(9) 0.01225 289.8 9.6
298(9) 0.01247 289.8 9.6
293(9) 0.01260 289.8 9.6
307(9) 0.01146 289.8 9.6
326(10) 0.00966 289.8 9.5
320(10) 0.01056 289.8 9.5
308(9) 0.01231 289.9 9.5
293(9) 0.01243 289.9 9.4
296(9) 0.01172 289.9 9.4
307(10) 0.01034 289.9 9.4
316(10) 0.01090 289.9 9.3
301(9) 0.01232 289.9 9.3
278(9) 0.01320 289.9 9.3
273(9) 0.01271 289.9 9.2
288(9) 0.01115 289.9 9.2
275(9) 0.01232 289.9 9.1
310(9) 0.01203 289.9 9.1
304(9) 0.01172 289.9 9.1
315(10) 0.01085 290.0 9.0
317(10) 0.01044 290.0 9.0
312(9) 0.01128 290.0 8.9
284(9) 0.01284 290.0 8.9
300(9) 0.01220 290.0 8.8
297(9) 0.01165 290.0 8.8
271(9) 0.01242 290.0 8.8
307(9) 0.01130 290.0 8.7
315(9) 0.01190 290.0 8.7
303(9) 0.01183 290.0 8.6
284(9) 0.01219 290.0 8.6
308(9) 0.01131 290.0 8.5
300(9) 0.01214 290.1 8.5
293(9) 0.01265 290.1 8.4
286(9) 0.01239 290.1 8.4
292(9) 0.01167 290.1 8.3
310(10) 0.01075 290.1 8.3
299(9) 0.01207 290.1 8.2
317(9) 0.01168 290.1 8.2
299(9) 0.01176 290.1 8.1
294(9) 0.01150 290.1 8.1
311(10) 0.01089 290.1 8.0
295(9) 0.01218 290.1 7.9
290(9) 0.01270 290.1 7.9
303(9) 0.01123 290.2 7.8
305(10) 0.01102 290.2 7.8
301(9) 0.01187 290.2 7.7
320(9) 0.01117 290.2 7.6
313(9) 0.01195 290.2 7.6
288(9) 0.01210 290.2 7.5
290(9) 0.01163 290.2 7.5
302(9) 0.01153 290.2 7.4
279(9) 0.01350 290.2 7.3
266(8) 0.01390 290.2 7.3
257(9) 0.01301 290.2 7.2
275(9) 0.01146 290.2 7.1
307(9) 0.01124 290.3 7.0
314(9) 0.01187 290.3 7.0
302(9) 0.01200 290.3 6.9
273(9) 0.01262 290.3 6.8
289(9) 0.01138 290.3 6.8
302(9) 0.01190 290.3 6.7
302(9) 0.01225 290.3 6.6
299(9) 0.01218 290.3 6.6
291(9) 0.01178 290.3 6.5
287(9) 0.01120 290.3 6.4
315(10) 0.01083 290.3 6.4
287(9) 0.01289 290.3 6.3
305(9) 0.01206 290.4 6.2
312(10) 0.01107 290.4 6.2
289(9) 0.01152 290.4 6.1
331(10) 0.01030 290.4 6.1
300(9) 0.01233 290.4 6.0
272(9) 0.01328 290.4 5.9
267(9) 0.01310 290.4 5.9
279(9) 0.01185 290.4 5.8
286(9) 0.01208 290.4 5.8
275(9) 0.01349 290.4 5.7
283(9) 0.01271 290.4 5.7
315(10) 0.01025 290.4 5.6
306(10) 0.01105 290.5 5.6
322(10) 0.01077 290.5 5.6
298(9) 0.01242 290.5 5.5
293(9) 0.01189 290.5 5.5
278(9) 0.01240 290.5 5.4
292(9) 0.01155 290.5 5.4
290(9) 0.01234 290.5 5.4
302(9) 0.01218 290.5 5.3
275(9) 0.01235 290.5 5.3
307(10) 0.01082 290.5 5.3
304(9) 0.01131 290.5 5.3
327(10) 0.01094 290.5 5.2
282(9) 0.01321 290.6 5.2
289(9) 0.01215 290.6 5.2
291(9) 0.01138 290.6 5.2
309(10) 0.01056 290.6 5.1
304(9) 0.01196 290.6 5.1
275(9) 0.01342 290.6 5.1
267(9) 0.01283 290.6 5.1
298(10) 0.01052 290.6 5.1
299(9) 0.01145 290.6 5.1
288(9) 0.01259 290.6 5.1
277(9) 0.01347 290.6 5.1
283(9) 0.01225 290.6 5.1
293(9) 0.01131 290.7 5.1
283(9) 0.01287 290.7 5.1
291(9) 0.01292 290.7 5.1
292(9) 0.01273 290.7 5.1
263(9) 0.01319 290.7 5.1
296(10) 0.01086 290.7 5.1
281(9) 0.01302 290.7 5.1
320(9) 0.01160 290.7 5.1
312(9) 0.01170 290.7 5.2
304(9) 0.01160 290.7 5.2
294(9) 0.01150 290.7 5.2
283(9) 0.01235 290.7 5.2
275(9) 0.01363 290.8 5.2
297(9) 0.01194 290.8 5.3
279(9) 0.01197 290.8 5.3
302(10) 0.01090 290.8 5.3
302(9) 0.01125 290.8 5.3
293(9) 0.01264 290.8 5.4
258(8) 0.01401 290.8 5.4
289(9) 0.01225 290.8 5.4
310(9) 0.01110 290.8 5.5
286(9) 0.01194 290.8 5.5
290(9) 0.01280 290.8 5.5
305(9) 0.01177 290.8 5.6
283(9) 0.01275 290.9 5.6
302(9) 0.01129 290.9 5.7
293(9) 0.01209 290.9 5.7
318(9) 0.01151 290.9 5.8
304(9) 0.01145 290.9 5.8
280(9) 0.01228 290.9 5.9
266(9) 0.01300 290.9 5.9
317(9) 0.01131 290.9 6.0
303(9) 0.01206 290.9 6.0
308(9) 0.01151 290.9 6.1
296(9) 0.01188 290.9 6.1
296(9) 0.01200 290.9 6.2
270(9) 0.01321 291.0 6.2
279(9) 0.01324 291.0 6.3
291(9) 0.01152 291.0 6.4
302(10) 0.01076 291.0 6.4
281(9) 0.01243 291.0 6.5
300(9) 0.01201 291.0 6.6
295(9) 0.01256 291.0 6.6
285(9) 0.01174 291.0 6.7
289(9) 0.01129 291.0 6.8
291(9) 0.01213 291.0 6.9
293(9) 0.01268 291.0 6.9
288(9) 0.01282 291.0 7.0
295(9) 0.01221 291.1 7.1
283(9) 0.01190 291.1 7.2
299(9) 0.01163 291.1 7.2
305(9) 0.01215 291.1 7.3
287(9) 0.01303 291.1 7.4
288(9) 0.01230 291.1 7.5
286(9) 0.01168 291.1 7.6
300(9) 0.01193 291.1 7.7
328(9) 0.01119 291.1 7.8
301(9) 0.01233 291.1 7.9
311(9) 0.01147 291.1 7.9
300(10) 0.01067 291.1 8.0
285(9) 0.01212 291.1 8.1
301(9) 0.01238 291.2 8.3
304(9) 0.01218 291.2 8.4
306(9) 0.01142 291.2 8.5
297(10) 0.01098 291.2 8.6
302(10) 0.01077 291.2 8.7
278(9) 0.01311 291.2 8.8
283(9) 0.01275 291.2 9.0
272(9) 0.01298 291.2 9.1
287(9) 0.01152 291.2 9.3
283(9) 0.01200 291.2 9.4
300(9) 0.01230 291.2 9.6
280(9) 0.01256 291.2 9.8
294(9) 0.01153 291.3 10.0
277(9) 0.01255 291.3 10.2
297(9) 0.01173 291.3 10.4
303(9) 0.01217 291.3 10.6
297(9) 0.01199 291.3 10.8
295(9) 0.01153 291.3 11.1
313(10) 0.01065 291.3 11.3
315(10) 0.01085 291.3 11.6
307(9) 0.01219 291.3 11.8
309(10) 0.01095 291.3 12.1
280(9) 0.01249 291.3 12.4
283(9) 0.01155 291.3 12.7
277(9) 0.01273 291.4 13.0
311(9) 0.01174 291.4 13.2
296(9) 0.01138 291.4 13.5
294(9) 0.01131 291.4 13.8
290(9) 0.01212 291.4 14.0
297(9) 0.01216 291.4 14.2
284(9) 0.01297 291.4 14.4
286(9) 0.01240 291.4 14.5
274(9) 0.01266 291.4 14.6
306(10) 0.01103 291.4 14.6
302(9) 0.01177 291.4 14.7
332(9) 0.01118 291.4 14.6
300(9) 0.01167 291.5 14.6
309(10) 0.01089 291.5 14.5
330(10) 0.01054 291.5 14.4
285(9) 0.01305 291.5 14.2
290(9) 0.01283 291.5 14.1
295(9) 0.01188 291.5 13.9
312(10) 0.01035 291.5 13.8
301(9) 0.01166 291.5 13.6
290(9) 0.01281 291.5 13.5
293(9) 0.01247 291.5 13.4
281(9) 0.01246 291.5 13.3
294(10) 0.01095 291.5 13.2
289(9) 0.01205 291.6 13.1
303(9) 0.01222 291.6 13.0
286(9) 0.01272 291.6 13.0
320(10) 0.01049 291.6 12.9
307(10) 0.01055 291.6 12.9
290(9) 0.01191 291.6 12.9
311(9) 0.01214 291.6 13.0
294(9) 0.01241 291.6 13.0
299(9) 0.01191 291.6 13.1
307(10) 0.01086 291.6 13.2
303(9) 0.01149 291.6 13.3
301(9) 0.01236 291.6 13.4
302(9) 0.01190 291.7 13.5
310(10) 0.01089 291.7 13.7
315(10) 0.01037 291.7 13.8
306(9) 0.01150 291.7 14.0
298(9) 0.01255 291.7 14.2
296(9) 0.01187 291.7 14.4
316(10) 0.01048 291.7 14.6
309(9) 0.01111 291.7 14.9
296(9) 0.01223 291.7 15.1
319(9) 0.01168 291.7 15.4
315(9) 0.01127 291.7 15.6
320(10) 0.01063 291.7 15.9
295(9) 0.01187 291.8 16.2
333(10) 0.01038 291.8 16.4
323(9) 0.01138 291.8 16.7
314(10) 0.01092 291.8 17.0
298(9) 0.01146 291.8 17.3
310(9) 0.01121 291.8 17.6
296(9) 0.01213 291.8 17.8
318(9) 0.01170 291.8 18.1
305(9) 0.01110 291.8 18.3
306(10) 0.01093 291.8 18.6
299(9) 0.01182 291.8 18.8
305(9) 0.01205 291.8 19.0
315(9) 0.01181 291.9 19.2
317(10) 0.01104 291.9 19.3
316(10) 0.01013 291.9 19.4
301(9) 0.01179 291.9 19.5
320(9) 0.01140 291.9 19.5
289(9) 0.01294 291.9 19.5
298(9) 0.01188 291.9 19.5
306(10) 0.01073 291.9 19.4
302(9) 0.01152 291.9 19.3
291(9) 0.01286 291.9 19.1
316(9) 0.01166 291.9 18.9
305(9) 0.01120 291.9 18.7
280(9) 0.01157 292.0 18.5
307(9) 0.01129 292.0 18.2
333(10) 0.01104 292.0 18.0
322(9) 0.01173 292.0 17.7
308(9) 0.01158 292.0 17.5
291(9) 0.01152 292.0 17.2
282(9) 0.01222 292.0 17.0
290(9) 0.01279 292.0 16.7
310(9) 0.01137 292.0 16.5
298(9) 0.01180 292.0 16.2
293(9) 0.01172 292.0 16.0
305(9) 0.01139 292.0 15.8
306(9) 0.01206 292.1 15.6
312(9) 0.01135 292.1 15.4
307(9) 0.01179 292.1 15.2
320(10) 0.01063 292.1 15.0
288(9) 0.01162 292.1 14.8
287(9) 0.01275 292.1 14.6
296(9) 0.01249 292.1 14.4
318(9) 0.01115 292.1 14.2
307(9) 0.01142 292.1 14.0
318(10) 0.01081 292.1 13.8
303(9) 0.01246 292.1 13.7
297(9) 0.01219 292.1 13.5
284(9) 0.01194 292.2 13.3
271(9) 0.01286 292.2 13.1
268(9) 0.01308 292.2 12.9
308(9) 0.01212 292.2 12.7
303(9) 0.01117 292.2 12.5
285(9) 0.01168 292.2 12.4
296(9) 0.01203 292.2 12.2
294(9) 0.01252 292.2 12.0
301(9) 0.01220 292.2 11.8
292(9) 0.01158 292.2 11.6
298(9) 0.01124 292.2 11.4
298(9) 0.01172 292.2 11.3
297(9) 0.01254 292.3 11.1
311(9) 0.01202 292.3 11.0
312(10) 0.01103 292.3 10.8
303(9) 0.01108 292.3 10.6
312(9) 0.01119 292.3 10.5
285(9) 0.01266 292.3 10.4
306(9) 0.01230 292.3 10.2
296(9) 0.01178 292.3 10.1
282(9) 0.01178 292.3 10.0
298(9) 0.01163 292.3 9.9
313(9) 0.01183 292.3 9.8
285(9) 0.01317 292.3 9.7
290(9) 0.01192 292.3 9.6
297(10) 0.01094 292.4 9.5
289(9) 0.01246 292.4 9.4
294(9) 0.01263 292.4 9.3
292(9) 0.01254 292.4 9.3
308(9) 0.01144 292.4 9.2
292(9) 0.01157 292.4 9.2
320(10) 0.01084 292.4 9.1
308(9) 0.01204 292.4 9.1
286(9) 0.01301 292.4 9.0
304(9) 0.01108 292.4 9.0
282(9) 0.01206 292.4 9.0
301(9) 0.01155 292.4 8.9
321(9) 0.01153 292.5 8.9
284(9) 0.01283 292.5 8.9
292(9) 0.01145 292.5 8.9
292(10) 0.01096 292.5 8.9
274(9) 0.01222 292.5 8.8
304(9) 0.01234 292.5 8.8
263(9) 0.01375 292.5 8.8
286(9) 0.01215 292.5 8.8
282(9) 0.01253 292.5 8.8
280(9) 0.01260 292.5 8.9
287(9) 0.01295 292.5 8.9
276(9) 0.01315 292.5 8.9
301(9) 0.01114 292.5 8.9
284(9) 0.01179 292.5 8.9
297(9) 0.01210 292.5 8.9
282(9) 0.01334 292.5 8.9
284(9) 0.01239 292.5 8.9
282(9) 0.01233 292.5 8.9
281(9) . . .
290(9) . . .
310(9) . . .
303(9) . . .
280(9) . . .
303(9) . . .
313(9) . . .
296(9) . . .
310(9) . . .
306(10) . . .
323(10) . . .
305(9) . . .
296(9) . . .
283(9) . . .
319(10) . . .
304(9) . . .
303(9) . . .
307(9) . . .
283(9) . . .
300(10) . . .
246(8) . . .
293(9) . . .
305(9) . . .
273(9) . . .
289(9) . . .
286(9) . . .
299(9) . . .
308(9) . . .
288(9) . . .
294(9) . . .
318(10) . . .
303(9) . . .
292(9) . . .
311(10) . . .
283(9) . . .
287(9) . . .
296(9) . . .
306(9) . . .
307(10) . . .
275(9) . . .
305(9) . . .
324(9) . . .
301(9) . . .
279(9) . . .
314(10) . . .
321(10) . . .
321(9) . . .
284(9) . . .
312(9) . . .
293(9) . . .
305(9) . . .
304(9) . . .
320(10) . . .
281(9) . . .
304(9) . . .
333(10) . . .
303(9) . . .
301(9) . . .
319(10) . . .
312(9) . . .
311(9) . . .
310(9) . . .
286(9) . . .
277(9) . . .
303(9) . . .
280(9) . . .
325(9) . . .
286(9) . . .
280(9) . . .
296(9) . . .
292(9) . . .
311(9) . . .
278(9) . . .
270(9) . . .
261(9) . . .
279(9) . . .
279(9) . . .
287(9) . . .
312(10) . . .
290(9) . . .
296(9) . . .
272(9) . . .
287(9) . . .
282(9) . . .
313(9) . . .
302(9) . . .
272(9) . . .
276(9) . . .
320(10) . . .
303(9) . . .
297(9) . . .
314(9) . . .
296(9) . . .
282(9) . . .
264(9) . . .
302(9) . . .
290(9) . . .
297(9) . . .
293(9) . . .
285(9) . . .
289(9) . . .
273(9) . . .
289(9) . . .
314(10) . . .
306(9) . . .
288(9) . . .
301(9) . . .
287(9) . . .
307(9) . . .
301(9) . . .
292(9) . . .
300(9) . . .
292(10) . . .
287(9) . . .
288(9) . . .
293(9) . . .
310(10) . . .
276(9) . . .
289(9) . . .
274(9) . . .
284(9) . . .
296(9) . . .
294(10) . . .
286(9) . . .
304(9) . . .
284(9) . . .
298(9) . . .
300(10) . . .
268(9) . . .
279(9) . . .
297(9) . . .
306(9) . . .
257(9) . . .
284(9) . . .
299(9) . . .
294(9) . . .
294(9) . . .
276(9) . . .
271(9) . . .
271(9) . . .
279(9) . . .
295(9) . . .
298(9) . . .
286(9) . . .
275(9) . . .
278(9) . . .
305(10) . . .
285(9) . . .
292(9) . . .
279(9) . . .
301(9) . . .
303(9) . . .
312(9) . . .
266(9) . . .
272(9) . . .
270(9) . . .
275(9) . . .
293(9) . . .
294(9) . . .
298(9) . . .
294(9) . . .
264(9) . . .
275(9) . . .
288(9) . . .
279(9) . . .
276(9) . . .
290(9) . . .
298(9) . . .
290(9) . . .
288(9) . . .
273(9) . . .
259(9) . . .
272(9) . . .
265(8) . . .
293(9) . . .
295(9) . . .
286(9) . . .
270(9) . . .
284(9) . . .
270(9) . . .
280(9) . . .
276(9) . . .
268(9) . . .
303(9) . . .
274(9) . . .
283(9) . . .
293(10) . . .
297(9) . . .
273(9) . . .
290(9) . . .
273(9) . . .
258(9) . . .
273(9) . . .
291(9) . . .
273(9) . . .
279(9) . . .
284(9) . . .
308(9) . . .
264(8) . . .
281(9) . . .
286(9) . . .
271(9) . . .
265(8) . . .
298(9) . . .
261(9) . . .
267(9) . . .
260(9) . . .
278(9) . . .
277(9) . . .
301(9) . . .
283(9) . . .
275(9) . . .
272(9) . . .
269(9) . . .
276(9) . . .
282(9) . . .
309(9) . . .
287(9) . . .
242(8) . . .
260(9) . . .
257(9) . . .
257(8) . . .
273(9) . . .
262(8) . . .
274(9) . . .
285(9) . . .
266(9) . . .
298(9) . . .
289(9) . . .
275(9) . . .
274(9) . . .
273(9) . . .
272(9) . . .
271(9) . . .
277(9) . . .
262(9) . . .
263(9) . . .
261(8) . . .
285(9) . . .
298(9) . . .
281(9) . . .
274(9) . . .
286(9) . . .
279(9) . . .
275(9) . . .
277(9) . . .
267(9) . . .
274(9) . . .
283(9) . . .
273(9) . . .
262(9) . . .
278(9) . . .
246(8) . . .
285(9) . . .
272(9) . . .
289(9) . . .
285(9) . . .
274(9) . . .
288(9) . . .
274(9) . . .
264(9) . . .
264(8) . . .
290(9) . . .
287(9) . . .
260(9) . . .
271(9) . . .
276(9) . . .
271(9) . . .
300(9) . . .
277(9) . . .
274(9) . . .
274(9) . . .
268(8) . . .
276(9) . . .
277(9) . . .
273(9) . . .
290(9) . . .
300(9) . . .
302(9) . . .
270(9) . . .
272(9) . . .
280(9) . . .
278(9) . . .
285(9) . . .
268(9) . . .
277(9) . . .
280(9) . . .
277(9) . . .
269(9) . . .
293(9) . . .
282(9) . . .
298(9) . . .
281(9) . . .
284(9) . . .
276(9) . . .
294(9) . . .
276(9) . . .
262(9) . . .
303(10) . . .
300(9) . . .
305(9) . . .
307(9) . . .
304(9) . . .
281(9) . . .
301(9) . . .
272(9) . . .
285(9) . . .
304(9) . . .
318(10) . . .
313(10) . . .
297(9) . . .
305(9) . . .
294(9) . . .
301(10) . . .
281(9) . . .
286(9) . . .
288(9) . . .
286(9) . . .
306(10) . . .
301(9) . . .
267(9) . . .
284(9) . . .
283(9) . . .
303(10) . . .
323(9) . . .
304(9) . . .
307(9) . . .
300(9) . . .
285(9) . . .
291(9) . . .
273(9) . . .
313(9) . . .
276(9) . . .
257(9) . . .
284(9) . . .
288(9) . . .
291(9) . . .
284(9) . . .
308(10) . . .
287(9) . . .
285(9) . . .
272(9) . . .
277(9) . . .
261(9) . . .
256(9) . . .
273(9) . . .
287(9) . . .
253(9) . . .
273(9) . . .
271(9) . . .
274(9) . . .
278(9) . . .
282(9) . . .
288(9) . . .
245(8) . . .
255(8) . . .
274(9) . . .
265(9) . . .
277(9) . . .
294(9) . . .
286(9) . . .
289(9) . . .
279(9) . . .
302(9) . . .
259(8) . . .
289(9) . . .
302(9) . . .
277(9) . . .
285(9) . . .
275(9) . . .
262(8) . . .
304(9) . . .
297(10) . . .
299(9) . . .
289(9) . . .
284(9) . . .
276(9) . . .
295(10) . . .
259(9) . . .
295(9) . . .
293(9) . . .
301(9) . . .
273(9) . . .
285(9) . . .
272(9) . . .
277(9) . . .
296(9) . . .
308(10) . . .
284(9) . . .
301(9) . . .
303(9) . . .
285(9) . . .
263(9) . . .
288(9) . . .
278(9) . . .
288(9) . . .
300(9) . . .
277(9) . . .
269(9) . . .
305(9) . . .
313(9) . . .
286(9) . . .
272(9) . . .
275(9) . . .
303(9) . . .
269(9) . . .
312(10) . . .
304(10) . . .
273(9) . . .
270(9) . . .
280(9) . . .
265(9) . . .
251(9) . . .
279(9) . . .
273(9) . . .
267(9) . . .
266(9) . . .
298(9) . . .
304(9) . . .
262(8) . . .
287(9) . . .
292(9) . . .
295(9) . . .
276(9) . . .
263(9) . . .
277(9) . . .
300(10) . . .
310(9) . . .
271(9) . . .
267(9) . . .
288(9) . . .
278(9) . . .
298(9) . . .
292(9) . . .
288(9) . . .
255(8) . . .
276(9) . . .
268(9) . . .
272(9) . . .
295(9) . . .
283(9) . . .
261(9) . . .
258(8) . . .
274(9) . . .
279(9) . . .
272(9) . . .
273(9) . . .
287(9) . . .
260(8) . . .
266(9) . . .
283(9) . . .
264(9) . . .
284(9) . . .
291(9) . . .
222(8) . . .
280(9) . . .
283(9) . . .
266(9) . . .
270(9) . . .
278(9) . . .
279(9) . . .
274(9) . . .
277(9) . . .
270(8) . . .
275(9) . . .
243(9) . . .
273(9) . . .
253(8) . . .
246(8) . . .
275(9) . . .
247(9) . . .
248(8) . . .
263(9) . . .
266(8) . . .
261(9) . . .
292(10) . . .
260(9) . . .
246(8) . . .
264(8) . . .
251(9) . . .
260(9) . . .
264(9) . . .
255(8) . . .
249(8) . . .
253(9) . . .
302(10) . . .
267(9) . . .
265(8) . . .
277(9) . . .
279(9) . . .
274(9) . . .
259(9) . . .
267(8) . . .
261(9) . . .
251(8) . . .
266(9) . . .
241(8) . . .
273(9) . . .
247(8) . . .
260(9) . . .
270(9) . . .
281(9) . . .
263(8) . . .
254(9) . . .
252(9) . . .
261(9) . . .
259(8) . . .
249(8) . . .
261(9) . . .
256(9) . . .
264(9) . . .
245(8) . . .
275(9) . . .
258(9) . . .
276(9) . . .
258(9) . . .
250(8) . . .
275(9) . . .
257(8) . . .
258(9) . . .
276(9) . . .
246(8) . . .
259(8) . . .
263(9) . . .
274(9) . . .
250(9) . . .
246(8) . . .
244(8) . . .
282(9) . . .
248(9) . . .
230(8) . . .
260(8) . . .
280(9) . . .
271(9) . . .
273(9) . . .
256(9) . . .
260(8) . . .
275(9) . . .
252(8) . . .
265(9) . . .
270(9) . . .
242(8) . . .
242(8) . . .
238(8) . . .
261(9) . . .
242(8) . . .
258(8) . . .
270(9) . . .
262(9) . . .
248(8) . . .
283(9) . . .
266(9) . . .
247(8) . . .
263(9) . . .
245(8) . . .
263(9) . . .
272(9) . . .
225(8) . . .
261(9) . . .
259(9) . . .
267(8) . . .
257(8) . . .
285(9) . . .
258(9) . . .
268(9) . . .
277(9) . . .
268(9) . . .
269(9) . . .
276(9) . . .
268(9) . . .
243(8) . . .
275(9) . . .
252(8) . . .
251(9) . . .
251(8) . . .
242(8) . . .
245(8) . . .
249(8) . . .
242(9) . . .
253(9) . . .
255(8) . . .
237(8) . . .
268(9) . . .
255(9) . . .
264(9) . . .
261(8) . . .
261(8) . . .
246(8) . . .
244(8) . . .
267(9) . . .
261(8) . . .
251(8) . . .
275(9) . . .
259(9) . . .
252(9) . . .
263(8) . . .
254(8) . . .
239(8) . . .
256(9) . . .
240(8) . . .
231(8) . . .
256(9) . . .
235(8) . . .
252(9) . . .
273(9) . . .
253(8) . . .
254(9) . . .
260(9) . . .
261(9) . . .
243(8) . . .
256(8) . . .
250(9) . . .
246(9) . . .
265(9) . . .
249(8) . . .
241(8) . . .
254(8) . . .
256(9) . . .
259(9) . . .
256(8) . . .
255(8) . . .
236(8) . . .
244(9) . . .
256(9) . . .
261(9) . . .
256(8) . . .
266(9) . . .
301(10) . . .
259(9) . . .
252(8) . . .
242(8) . . .
267(9) . . .
247(9) . . .
245(8) . . .
245(8) . . .
275(9) . . .
246(8) . . .
252(9) . . .
262(9) . . .
276(9) . . .
258(8) . . .
270(9) . . .
263(9) . . .
274(9) . . .
237(8) . . .
258(8) . . .
273(9) . . .
247(8) . . .
269(9) . . .
242(8) . . .
265(9) . . .
252(9) . . .
246(8) . . .
251(8) . . .
249(8) . . .
230(8) . . .
252(9) . . .
247(8) . . .
269(9) . . .
256(8) . . .
262(9) . . .
259(9) . . .
248(8) . . .
245(8) . . .
236(8) . . .
248(9) . . .
247(8) . . .
269(9) . . .
247(8) . . .
263(8) . . .
217(8) . . .
257(9) . . .
280(9) . . .
255(8) . . .
256(8) . . .
271(9) . . .
232(8) . . .
246(8) . . .
251(8) . . .
264(8) . . .
245(8) . . .
238(8) . . .
259(9) . . .
253(8) . . .
218(8) . . .
252(9) . . .
257(9) . . .
237(8) . . .
247(8) . . .
241(8) . . .
239(9) . . .
259(9) . . .
267(9) . . .
234(8) . . .
264(9) . . .
263(9) . . .
243(8) . . .
219(8) . . .
249(8) . . .
246(8) . . .
264(9) . . .
267(9) . . .
242(8) . . .
254(8) . . .
253(8) . . .
237(8) . . .
244(9) . . .
245(8) . . .
244(8) . . .
252(9) . . .
246(9) . . .
250(9) . . .
254(8) . . .
246(8) . . .
246(8) . . .
253(9) . . .
258(9) . . .
244(8) . . .
254(8) . . .
250(9) . . .
250(9) . . .
245(8) . . .
259(8) . . .
242(8) . . .
249(8) . . .
264(9) . . .
239(8) . . .
240(8) . . .
254(8) . . .
263(9) . . .
269(9) . . .
259(9) . . .
234(8) . . .
255(8) . . .
242(8) . . .
240(8) . . .
238(8) . . .
247(8) . . .
247(8) . . .
251(8) . . .
234(8) . . .
239(8) . . .
256(8) . . .
269(9) . . .
254(9) . . .
250(9) . . .
252(9) . . .
247(8) . . .
238(8) . . .
249(9) . . .
266(9) . . .
228(8) . . .
245(8) . . .
242(8) . . .
227(8) . . .
250(8) . . .
234(8) . . .
232(8) . . .
252(8) . . .
223(8) . . .
233(8) . . .
252(8) . . .
237(8) . . .
273(9) . . .
250(9) . . .
268(9) . . .
237(8) . . .
255(8) . . .
260(9) . . .
269(9) . . .
287(9) . . .
260(8) . . .
274(9) . . .
265(9) . . .
266(9) . . .
273(9) . . .
261(8) . . .
282(9) . . .
271(9) . . .
257(9) . . .
262(9) . . .
255(8) . . .
274(9) . . .
270(9) . . .
252(9) . . .
248(8) . . .
258(8) . . .
256(8) . . .
239(8) . . .
239(9) . . .
254(9) . . .
248(8) . . .
254(8) . . .
261(9) . . .
249(9) . . .
227(8) . . .
241(8) . . .
255(8) . . .
242(8) . . .
249(9) . . .
255(9) . . .
229(8) . . .
257(9) . . .
231(8) . . .
218(8) . . .
248(8) . . .
230(8) . . .
234(8) . . .
251(9) . . .
233(8) . . .
218(8) . . .
226(8) . . .
215(8) . . .
226(8) . . .
253(9) . . .
224(8) . . .
222(8) . . .
226(8) . . .
215(8) . . .
221(8) . . .
244(8) . . .
253(8) . . .
233(8) . . .
239(9) . . .
220(8) . . .
225(8) . . .
226(8) . . .
223(8) . . .
211(8) . . .
207(8) . . .
232(8) . . .
229(8) . . .
230(8) . . .
237(9) . . .
215(8) . . .
228(8) . . .
239(8) . . .
247(8) . . .
252(9) . . .
227(8) . . .
231(8) . . .
226(8) . . .
247(9) . . .
228(8) . . .
229(8) . . .
235(8) . . .
239(8) . . .
247(9) . . .
238(8) . . .
248(8) . . .
223(8) . . .
214(8) . . .
222(8) . . .
241(9) . . .
227(8) . . .
221(8) . . .
241(8) . . .
214(8) . . .
229(8) . . .
211(8) . . .
248(8) . . .
231(8) . . .
229(8) . . .
232(8) . . .
223(8) . . .
223(8) . . .
229(8) . . .
240(8) . . .
222(8) . . .
239(8) . . .
230(8) . . .
224(8) . . .
228(8) . . .
239(8) . . .
234(8) . . .
227(8) . . .
221(8) . . .
221(8) . . .
218(8) . . .
234(8) . . .
227(8) . . .
221(8) . . .
237(8) . . .
212(8) . . .
216(8) . . .
225(8) . . .
209(8) . . .
228(8) . . .
235(8) . . .
220(8) . . .
229(8) . . .
231(8) . . .
216(8) . . .
211(8) . . .
227(8) . . .
206(8) . . .
214(8) . . .
232(8) . . .
231(8) . . .
214(8) . . .
198(7) . . .
191(8) . . .
221(8) . . .
203(8) . . .
228(8) . . .
225(8) . . .
223(8) . . .
212(8) . . .
215(8) . . .
192(7) . . .
231(8) . . .
222(8) . . .
216(8) . . .
207(8) . . .
232(8) . . .
237(8) . . .
222(8) . . .
234(8) . . .
220(8) . . .
247(8) . . .
233(8) . . .
223(8) . . .
223(8) . . .
229(8) . . .
205(7) . . .
220(8) . . .
229(8) . . .
238(9) . . .
222(8) . . .
227(8) . . .
221(8) . . .
207(8) . . .
234(8) . . .
228(8) . . .
228(8) . . .
235(8) . . .
233(8) . . .
220(8) . . .
221(8) . . .
226(8) . . .
214(8) . . .
229(8) . . .
227(8) . . .
222(8) . . .
241(8) . . .
235(8) . . .
237(8) . . .
207(8) . . .
220(8) . . .
219(8) . . .
242(8) . . .
225(8) . . .
231(8) . . .
238(8) . . .
231(8) . . .
230(8) . . .
248(8) . . .
218(8) . . .
241(8) . . .
225(8) . . .
221(8) . . .
215(8) . . .
224(8) . . .
226(8) . . .
217(8) . . .
218(8) . . .
223(8) . . .
242(8) . . .
247(8) . . .
220(8) . . .
218(8) . . .
221(8) . . .
208(7) . . .
244(8) . . .
215(8) . . .
234(9) . . .
223(8) . . .
232(8) . . .
228(8) . . .
196(7) . . .
232(9) . . .
223(8) . . .
240(8) . . .
222(8) . . .
205(8) . . .
229(9) . . .
210(8) . . .
220(8) . . .
218(8) . . .
208(8) . . .
226(8) . . .
212(8) . . .
218(8) . . .
216(8) . . .
219(8) . . .
245(8) . . .
222(8) . . .
216(8) . . .
214(8) . . .
235(8) . . .
219(8) . . .
213(8) . . .
206(7) . . .
201(8) . . .
233(8) . . .
248(9) . . .
215(8) . . .
222(8) . . .
212(8) . . .
209(8) . . .
216(8) . . .
197(8) . . .
223(8) . . .
206(8) . . .
228(8) . . .
210(8) . . .
203(8) . . .
196(7) . . .
244(8) . . .
232(8) . . .
214(8) . . .
216(8) . . .
221(8) . . .
196(8) . . .
200(8) . . .
208(8) . . .
222(8) . . .
221(8) . . .
213(8) . . .
222(8) . . .
217(8) . . .
201(7) . . .
213(8) . . .
226(8) . . .
212(8) . . .
205(8) . . .
216(8) . . .
225(8) . . .
217(8) . . .
230(9) . . .
229(8) . . .
189(7) . . .
211(8) . . .
241(8) . . .
208(8) . . .
212(8) . . .
231(8) . . .
226(8) . . .
213(8) . . .
206(8) . . .
220(8) . . .
223(8) . . .
241(8) . . .
219(8) . . .
214(8) . . .
218(8) . . .
230(8) . . .
243(8) . . .
232(8) . . .
212(8) . . .
224(8) . . .
214(8) . . .
204(8) . . .
212(8) . . .
199(7) . . .
217(8) . . .
220(8) . . .
232(8) . . .
220(8) . . .
217(8) . . .
222(8) . . .
206(8) . . .
220(8) . . .
233(8) . . .
222(8) . . .
212(8) . . .
215(8) . . .
220(8) . . .
222(8) . . .
208(8) . . .
189(7) . . .
217(8) . . .
225(8) . . .
236(9) . . .
207(8) . . .
204(7) . . .
209(8) . . .
213(8) . . .
220(8) . . .
225(8) . . .
200(7) . . .
222(8) . . .
220(8) . . .
207(8) . . .
220(8) . . .
214(8) . . .
237(8) . . .
216(8) . . .
217(8) . . .
208(8) . . .
202(7) . . .
216(8) . . .
207(8) . . .
207(8) . . .
208(8) . . .
221(8) . . .
214(8) . . .
210(8) . . .
207(8) . . .
231(8) . . .
242(8) . . .
209(8) . . .
206(8) . . .
220(8) . . .
225(8) . . .
185(7) . . .
219(8) . . .
215(8) . . .
211(8) . . .
192(7) . . .
200(7) . . .
207(8) . . .
216(8) . . .
202(8) . . .
205(7) . . .
221(8) . . .
214(8) . . .
221(8) . . .
200(8) . . .
215(8) . . .
195(7) . . .
191(7) . . .
207(8) . . .
213(8) . . .
208(7) . . .
205(8) . . .
216(8) . . .
203(8) . . .
231(8) . . .
210(8) . . .
207(8) . . .
211(8) . . .
202(8) . . .
209(8) . . .
207(7) . . .
198(7) . . .
212(8) . . .
190(7) . . .
219(8) . . .
199(7) . . .
214(8) . . .
199(7) . . .
209(8) . . .
208(8) . . .
198(7) . . .
202(8) . . .
200(8) . . .
212(8) . . .
201(8) . . .
217(8) . . .
199(8) . . .
196(8) . . .
199(8) . . .
207(7) . . .
199(7) . . .
199(8) . . .
211(8) . . .
219(8) . . .
210(7) . . .
216(8) . . .
214(8) . . .
209(8) . . .
192(7) . . .
195(7) . . .
219(8) . . .
227(8) . . .
219(8) . . .
221(8) . . .
211(8) . . .
206(8) . . .
223(8) . . .
210(8) . . .
202(8) . . .
196(7) . . .
210(8) . . .
214(8) . . .
224(8) . . .
207(8) . . .
197(7) . . .
223(8) . . .
211(8) . . .
209(8) . . .
209(8) . . .
200(7) . . .
166(7) . . .
201(8) . . .
205(8) . . .
219(8) . . .
205(7) . . .
218(8) . . .
220(8) . . .
212(8) . . .
209(8) . . .
199(7) . . .
226(8) . . .
205(8) . . .
205(8) . . .
185(7) . . .
198(7) . . .
198(8) . . .
229(8) . . .
216(8) . . .
199(7) . . .
205(7) . . .
204(8) . . .
202(8) . . .
198(8) . . .
208(8) . . .
199(7) . . .
198(8) . . .
204(8) . . .
188(7) . . .
203(7) . . .
199(7) . . .
200(8) . . .
195(8) . . .
197(8) . . .
197(7) . . .
193(7) . . .
209(8) . . .
209(8) . . .
214(8) . . .
202(7) . . .
194(7) . . .
188(7) . . .
197(8) . . .
207(8) . . .
202(7) . . .
209(8) . . .
197(7) . . .
187(7) . . .
198(8) . . .
217(8) . . .
198(7) . . .
201(8) . . .
197(8) . . .
207(8) . . .
202(7) . . .
203(8) . . .
189(7) . . .
182(7) . . .
203(8) . . .
197(7) . . .
202(8) . . .
200(7) . . .
203(8) . . .
200(8) . . .
185(7) . . .
201(8) . . .
189(8) . . .
202(8) . . .
211(8) . . .
197(7) . . .
182(7) . . .
199(8) . . .
196(7) . . .
220(8) . . .
204(7) . . .
209(8) . . .
217(8) . . .
200(7) . . .
195(7) . . .
207(8) . . .
202(8) . . .
189(8) . . .
204(8) . . .
196(7) . . .
210(8) . . .
227(8) . . .
193(8) . . .
187(7) . . .
206(8) . . .
204(7) . . .
207(8) . . .
174(8) . . .
179(7) . . .
188(7) . . .
189(7) . . .
197(8) . . .
192(8) . . .
197(7) . . .
202(7) . . .
198(7) . . .
188(7) . . .
220(8) . . .
233(8) . . .
206(7) . . .
193(7) . . .
202(8) . . .
194(7) . . .
198(7) . . .
213(8) . . .
190(7) . . .
196(7) . . .
219(8) . . .
214(8) . . .
220(8) . . .
211(8) . . .
198(8) . . .
206(8) . . .
213(8) . . .
204(7) . . .
203(8) . . .
198(8) . . .
224(8) . . .
221(8) . . .
194(7) . . .
204(8) . . .
199(8) . . .
199(7) . . .
223(8) . . .
195(7) . . .
188(7) . . .
212(8) . . .
188(7) . . .
205(8) . . .
184(7) . . .
195(7) . . .
213(8) . . .
190(7) . . .
182(7) . . .
217(8) . . .
226(8) . . .
198(8) . . .
227(8) . . .
188(7) . . .
190(7) . . .
212(8) . . .
210(8) . . .
205(8) . . .
205(7) . . .
181(7) . . .
202(8) . . .
207(8) . . .
221(8) . . .
207(7) . . .
203(8) . . .
200(8) . . .
208(8) . . .
197(8) . . .
211(8) . . .
185(7) . . .
220(8) . . .
228(8) . . .
207(8) . . .
196(7) . . .
210(8) . . .
201(8) . . .
215(8) . . .
211(8) . . .
206(7) . . .
183(7) . . .
207(8) . . .
205(8) . . .
202(8) . . .
197(7) . . .
184(7) . . .
186(7) . . .
211(8) . . .
185(7) . . .
191(7) . . .
202(8) . . .
205(8) . . .
201(8) . . .
193(7) . . .
194(7) . . .
195(7) . . .
205(8) . . .
210(8) . . .
234(8) . . .
204(7) . . .
214(8) . . .
193(7) . . .
213(8) . . .
206(7) . . .
211(8) . . .
202(8) . . .
235(9) . . .
186(7) . . .
185(7) . . .
196(7) . . .
201(8) . . .
197(8) . . .
198(8) . . .
179(7) . . .
173(7) . . .
184(7) . . .
192(8) . . .
204(8) . . .
185(7) . . .
191(7) . . .
187(7) . . .
214(8) . . .
186(7) . . .
191(7) . . .
199(7) . . .
193(8) . . .
181(7) . . .
205(8) . . .
222(8) . . .
195(7) . . .
194(8) . . .
204(8) . . .
199(7) . . .
207(7) . . .
199(8) . . .
203(8) . . .
202(8) . . .
187(7) . . .
202(7) . . .
212(8) . . .
202(8) . . .
207(8) . . .
199(7) . . .
197(7) . . .
195(7) . . .
207(8) . . .
200(8) . . .
205(7) . . .
211(8) . . .
204(8) . . .
205(8) . . .
201(8) . . .
193(7) . . .
183(7) . . .
189(7) . . .
202(8) . . .
215(8) . . .
205(7) . . .
205(7) . . .
211(8) . . .
220(8) . . .
198(8) . . .
206(7) . . .
198(7) . . .
188(7) . . .
202(8) . . .
228(8) . . .
218(8) . . .
193(7) . . .
217(8) . . .
204(8) . . .
204(8) . . .
210(8) . . .
192(7) . . .
209(8) . . .
198(8) . . .
195(7) . . .
186(7) . . .
198(8) . . .
213(8) . . .
203(8) . . .
198(7) . . .
186(7) . . .
213(8) . . .
195(8) . . .
200(8) . . .
186(7) . . .
186(7) . . .
204(8) . . .
182(7) . . .
185(7) . . .
208(8) . . .
189(7) . . .
159(7) . . .
177(8) . . .
199(8) . . .
192(7) . . .
181(7) . . .
170(7) . . .
190(8) . . .
198(7) . . .
187(7) . . .
187(7) . . .
162(7) . . .
201(8) . . .
187(7) . . .
196(7) . . .
179(7) . . .
188(7) . . .
173(7) . . .
187(7) . . .
191(7) . . .
189(7) . . .
181(7) . . .
179(7) . . .
171(7) . . .
204(7) . . .
184(7) . . .
195(7) . . .
196(8) . . .
173(7) . . .
173(7) . . .
182(7) . . .
188(7) . . .
182(7) . . .
191(7) . . .
197(7) . . .
180(7) . . .
200(8) . . .
183(7) . . .
182(7) . . .
196(7) . . .
196(7) . . .
169(7) . . .
181(7) . . .
190(7) . . .
186(7) . . .
189(7) . . .
199(8) . . .
188(7) . . .
183(7) . . .
181(7) . . .
190(7) . . .
192(8) . . .
180(7) . . .
205(7) . . .
193(7) . . .
193(7) . . .
201(8) . . .
214(8) . . .
175(7) . . .
180(7) . . .
194(8) . . .
185(7) . . .
177(7) . . .
174(7) . . .
195(7) . . .
176(7) . . .
189(8) . . .
188(7) . . .
188(7) . . .
191(7) . . .
216(8) . . .
192(7) . . .
185(7) . . .
185(7) . . .
187(7) . . .
193(8) . . .
181(7) . . .
184(7) . . .
181(7) . . .
183(7) . . .
189(7) . . .
200(8) . . .
176(7) . . .
171(7) . . .
192(7) . . .
186(7) . . .
163(7) . . .
193(8) . . .
187(7) . . .
175(7) . . .
191(8) . . .
188(7) . . .
174(7) . . .
207(7) . . .
196(8) . . .
198(8) . . .
195(8) . . .
182(7) . . .
164(7) . . .
176(7) . . .
174(7) . . .
196(8) . . .
193(7) . . .
163(7) . . .
202(8) . . .
179(7) . . .
183(7) . . .
180(7) . . .
205(7) . . .
171(7) . . .
190(8) . . .
199(8) . . .
191(7) . . .
175(7) . . .
163(7) . . .
178(7) . . .
162(7) . . .
178(7) . . .
168(7) . . .
190(7) . . .
178(7) . . .
174(7) . . .
180(7) . . .
181(7) . . .
199(8) . . .
194(8) . . .
175(7) . . .
200(7) . . .
183(7) . . .
179(7) . . .
187(7) . . .
188(7) . . .
162(7) . . .
189(7) . . .
189(7) . . .
185(7) . . .
179(7) . . .
178(7) . . .
182(7) . . .
194(8) . . .
191(7) . . .
179(7) . . .
191(7) . . .
186(7) . . .
178(7) . . .
197(8) . . .
203(7) . . .
189(7) . . .
183(7) . . .
196(8) . . .
202(8) . . .
178(7) . . .
174(7) . . .
193(7) . . .
179(7) . . .
180(7) . . .
180(7) . . .
196(7) . . .
208(8) . . .
180(7) . . .
186(7) . . .
184(7) . . .
182(7) . . .
201(7) . . .
204(8) . . .
204(8) . . .
199(7) . . .
165(7) . . .
190(7) . . .
196(8) . . .
173(7) . . .
206(8) . . .
196(7) . . .
201(8) . . .
203(8) . . .
208(8) . . .
194(7) . . .
187(7) . . .
194(8) . . .
192(8) . . .
192(7) . . .
195(7) . . .
196(7) . . .
196(8) . . .
164(7) . . .
178(7) . . .
188(7) . . .
187(7) . . .
185(7) . . .
199(8) . . .
209(8) . . .
191(7) . . .
204(8) . . .
213(8) . . .
193(7) . . .
189(7) . . .
181(7) . . .
190(7) . . .
184(7) . . .
188(7) . . .
190(7) . . .
195(7) . . .
199(8) . . .
182(7) . . .
181(7) . . .
167(7) . . .
181(7) . . .
194(7) . . .
179(7) . . .
185(7) . . .
205(7) . . .
194(7) . . .
191(8) . . .
185(8) . . .
191(7) . . .
178(7) . . .
192(7) . . .
184(7) . . .
180(8) . . .
182(7) . . .
189(7) . . .
184(7) . . .
192(8) . . .
189(8) . . .
187(7) . . .
173(7) . . .
189(7) . . .
188(7) . . .
189(7) . . .
185(7) . . .
179(7) . . .
182(7) . . .
195(8) . . .
194(8) . . .
193(7) . . .
195(7) . . .
186(7) . . .
185(7) . . .
203(8) . . .
206(8) . . .
207(7) . . .
197(7) . . .
199(8) . . .
184(7) . . .
192(7) . . .
201(7) . . .
193(8) . . .
151(7) . . .
179(7) . . .
188(7) . . .
193(7) . . .
186(7) . . .
185(7) . . .
176(7) . . .
172(7) . . .
171(7) . . .
175(7) . . .
158(7) . . .
179(7) . . .
185(7) . . .
183(7) . . .
189(8) . . .
179(8) . . .
176(7) . . .
181(7) . . .
164(7) . . .
171(7) . . .
184(8) . . .
181(7) . . .
184(7) . . .
190(7) . . .
187(7) . . .
171(7) . . .
189(7) . . .
194(7) . . .
170(7) . . .
173(7) . . .
173(7) . . .
195(8) . . .
186(7) . . .
162(7) . . .
176(7) . . .
201(8) . . .
177(7) . . .
190(7) . . .
199(7) . . .
180(7) . . .
182(8) . . .
183(7) . . .
195(7) . . .
187(7) . . .
182(7) . . .
182(7) . . .
175(7) . . .
166(7) . . .
180(7) . . .
172(7) . . .
185(7) . . .
189(7) . . .
177(7) . . .
181(7) . . .
182(7) . . .
182(7) . . .
184(7) . . .
187(7) . . .
180(7) . . .
199(8) . . .
186(7) . . .
192(7) . . .
180(7) . . .
179(7) . . .
174(7) . . .
189(8) . . .
195(7) . . .
174(7) . . .
178(7) . . .
170(7) . . .
193(8) . . .
174(7) . . .
182(7) . . .
193(7) . . .
193(8) . . .
183(7) . . .
177(7) . . .
197(7) . . .
191(8) . . .
197(8) . . .
193(7) . . .
201(7) . . .
180(7) . . .
193(7) . . .
176(7) . . .
199(8) . . .
198(7) . . .
197(8) . . .
191(7) . . .
173(7) . . .
175(7) . . .
187(7) . . .
172(7) . . .
179(7) . . .
170(7) . . .
171(7) . . .
169(7) . . .
196(8) . . .
178(7) . . .
174(7) . . .
194(7) . . .
163(7) . . .
167(7) . . .
172(7) . . .
189(8) . . .
175(7) . . .
188(7) . . .
196(8) . . .
169(7) . . .
182(7) . . .
169(7) . . .
180(7) . . .
162(7) . . .
161(7) . . .
156(7) . . .
193(7) . . .
167(7) . . .
171(7) . . .
166(7) . . .
170(7) . . .
179(7) . . .
171(7) . . .
196(8) . . .
168(7) . . .
178(7) . . .
159(7) . . .
163(7) . . .
184(7) . . .
170(7) . . .
155(7) . . .
184(7) . . .
185(7) . . .
191(7) . . .
188(8) . . .
173(7) . . .
170(7) . . .
186(7) . . .
204(8) . . .
180(7) . . .
171(7) . . .
173(7) . . .
168(7) . . .
179(7) . . .
189(7) . . .
199(7) . . .
178(7) . . .
176(7) . . .
182(7) . . .
189(7) . . .
178(7) . . .
181(7) . . .
176(7) . . .
184(7) . . .
160(7) . . .
176(7) . . .
173(7) . . .
171(7) . . .
163(7) . . .
174(7) . . .
165(7) . . .
177(7) . . .
168(7) . . .
173(7) . . .
181(7) . . .
173(7) . . .
187(7) . . .
195(8) . . .
188(8) . . .
193(8) . . .
189(7) . . .
166(7) . . .
175(7) . . .
182(7) . . .
188(7) . . .
178(7) . . .
184(7) . . .
192(7) . . .
175(7) . . .
177(7) . . .
172(7) . . .
166(7) . . .
175(7) . . .
191(7) . . .
199(7) . . .
191(7) . . .
172(7) . . .
172(7) . . .
173(7) . . .
187(7) . . .
188(7) . . .
163(7) . . .
156(7) . . .
176(7) . . .
170(7) . . .
173(7) . . .
167(7) . . .
175(7) . . .
190(8) . . .
167(7) . . .
175(7) . . .
174(7) . . .
175(7) . . .
184(7) . . .
167(7) . . .
190(7) . . .
180(7) . . .
177(7) . . .
184(7) . . .
176(7) . . .
175(7) . . .
191(7) . . .
176(7) . . .
170(7) . . .
184(7) . . .
173(7) . . .
166(7) . . .
184(7) . . .
196(8) . . .
172(7) . . .
193(7) . . .
176(7) . . .
182(8) . . .
178(7) . . .
192(7) . . .
182(7) . . .
173(7) . . .
195(8) . . .
188(7) . . .
187(7) . . .
190(7) . . .
195(7) . . .
210(8) . . .
176(7) . . .
182(7) . . .
200(8) . . .
183(7) . . .
176(7) . . .
164(7) . . .
178(7) . . .
184(7) . . .
198(8) . . .
175(7) . . .
168(7) . . .
188(7) . . .
178(7) . . .
178(7) . . .
190(7) . . .
174(7) . . .
163(7) . . .
177(7) . . .
169(7) . . .
168(7) . . .
168(7) . . .
169(7) . . .
185(7) . . .
188(8) . . .
178(7) . . .
178(7) . . .
195(7) . . .
192(7) . . .
174(7) . . .
173(7) . . .
179(7) . . .
179(7) . . .
169(7) . . .
175(8) . . .
176(7) . . .
177(7) . . .
196(7) . . .
196(7) . . .
178(7) . . .
177(7) . . .
164(7) . . .
174(7) . . .
172(7) . . .
182(7) . . .
188(7) . . .
183(7) . . .
175(7) . . .
187(7) . . .
187(7) . . .
183(7) . . .
211(8) . . .
169(7) . . .
170(7) . . .
189(7) . . .
188(7) . . .
178(7) . . .
170(7) . . .
161(7) . . .
161(7) . . .
179(7) . . .
200(7) . . .
175(7) . . .
162(7) . . .
170(7) . . .
166(7) . . .
183(7) . . .
196(7) . . .
170(7) . . .
177(7) . . .
188(7) . . .
188(7) . . .
155(6) . . .
182(7) . . .
178(7) . . .
153(6) . . .
158(7) . . .
192(8) . . .
171(7) . . .
180(7) . . .
175(7) . . .
181(7) . . .
153(7) . . .
173(7) . . .
165(7) . . .
169(7) . . .
172(7) . . .
188(7) . . .
163(7) . . .
174(7) . . .
173(7) . . .
177(7) . . .
167(7) . . .
165(7) . . .
193(8) . . .
166(7) . . .
165(7) . . .
165(7) . . .
163(7) . . .
182(8) . . .
165(7) . . .
175(7) . . .
168(7) . . .
164(7) . . .
196(8) . . .
165(7) . . .
186(7) . . .
180(7) . . .
165(7) . . .
151(6) . . .
166(7) . . .
175(7) . . .
169(7) . . .
175(7) . . .
181(7) . . .
161(7) . . .
159(7) . . .
152(7) . . .
173(7) . . .
193(8) . . .
178(7) . . .
177(7) . . .
174(7) . . .
168(7) . . .
182(7) . . .
186(7) . . .
166(7) . . .
193(8) . . .
187(7) . . .
195(7) . . .
183(7) . . .
182(7) . . .
173(7) . . .
194(8) . . .
162(7) . . .
166(7) . . .
159(7) . . .
164(7) . . .
178(7) . . .
181(7) . . .
169(7) . . .
170(7) . . .
170(7) . . .
174(7) . . .
166(7) . . .
166(7) . . .
178(7) . . .
178(7) . . .
169(7) . . .
176(7) . . .
177(7) . . .
157(7) . . .
157(7) . . .
163(7) . . .
160(7) . . .
162(7) . . .
181(7) . . .
173(7) . . .
171(7) . . .
172(7) . . .
184(7) . . .
181(7) . . .
166(7) . . .
175(7) . . .
172(7) . . .
178(7) . . .
172(7) . . .
167(7) . . .
157(7) . . .
172(7) . . .
184(7) . . .
167(7) . . .
173(7) . . .
167(7) . . .
179(7) . . .
164(7) . . .
186(7) . . .
189(7) . . .
163(7) . . .
153(6) . . .
165(7) . . .
177(7) . . .
179(7) . . .
156(6) . . .
155(7) . . .
185(7) . . .
197(8) . . .
172(7) . . .
162(7) . . .
170(7) . . .
157(7) . . .
182(7) . . .
177(7) . . .
176(7) . . .
171(7) . . .
179(7) . . .
168(7) . . .
183(7) . . .
161(7) . . .
176(7) . . .
185(7) . . .
169(7) . . .
152(7) . . .
185(7) . . .
179(7) . . .
184(7) . . .
173(7) . . .
199(8) . . .
173(7) . . .
161(7) . . .
181(8) . . .
184(8) . . .
162(7) . . .
162(7) . . .
186(7) . . .
192(8) . . .
195(8) . . .
187(7) . . .
183(7) . . .
164(7) . . .
175(7) . . .
173(7) . . .
180(7) . . .
190(7) . . .
172(7) . . .
164(7) . . .
168(7) . . .
178(7) . . .
169(7) . . .
166(7) . . .
178(7) . . .
165(7) . . .
166(7) . . .
189(7) . . .
188(8) . . .
183(8) . . .
214(8) . . .
194(7) . . .
168(7) . . .
179(7) . . .
174(7) . . .
170(7) . . .
180(7) . . .
178(7) . . .
183(7) . . .
169(7) . . .
170(7) . . .
177(7) . . .
175(7) . . .
181(7) . . .
175(7) . . .
163(7) . . .
185(7) . . .
190(7) . . .
169(7) . . .
187(8) . . .
170(7) . . .
159(7) . . .
144(6) . . .
180(7) . . .
188(7) . . .
186(7) . . .
165(7) . . .
159(7) . . .
173(7) . . .
153(7) . . .
161(7) . . .
166(7) . . .
163(7) . . .
168(7) . . .
174(7) . . .
185(7) . . .
201(7) . . .
173(7) . . .
164(7) . . .
169(7) . . .
190(7) . . .
170(7) . . .
171(7) . . .
181(7) . . .
172(7) . . .
191(7) . . .
170(7) . . .
171(7) . . .
176(7) . . .
182(7) . . .
174(7) . . .
175(7) . . .
180(7) . . .
167(7) . . .
177(7) . . .
171(7) . . .
179(7) . . .
190(7) . . .
190(8) . . .
176(7) . . .
156(7) . . .
167(7) . . .
162(7) . . .
174(7) . . .
166(7) . . .
170(7) . . .
167(7) . . .
164(7) . . .
175(7) . . .
167(7) . . .
173(7) . . .
169(7) . . .
157(7) . . .
164(7) . . .
150(6) . . .
182(7) . . .
187(7) . . .
168(7) . . .
186(7) . . .
174(7) . . .
181(7) . . .
176(7) . . .
166(7) . . .
186(7) . . .
171(7) . . .
184(7) . . .
182(7) . . .
181(7) . . .
175(7) . . .
167(7) . . .
178(7) . . .
173(7) . . .
173(7) . . .
167(7) . . .
168(7) . . .
176(7) . . .
188(7) . . .
177(7) . . .
186(7) . . .
177(7) . . .
174(7) . . .
168(7) . . .
183(8) . . .
171(7) . . .
174(7) . . .
168(7) . . .
179(7) . . .
182(7) . . .
178(7) . . .
177(7) . . .
174(7) . . .
172(7) . . .
188(8) . . .
190(7) . . .
188(7) . . .
171(7) . . .
167(7) . . .
164(7) . . .
166(7) . . .
190(7) . . .
169(7) . . .
189(8) . . .
175(7) . . .
159(7) . . .
178(7) . . .
173(7) . . .
171(7) . . .
170(7) . . .
185(7) . . .
167(7) . . .
175(7) . . .
179(7) . . .
164(7) . . .
177(7) . . .
169(7) . . .
163(7) . . .
186(7) . . .
184(7) . . .
178(7) . . .
168(7) . . .
171(7) . . .
163(7) . . .
172(7) . . .
177(7) . . .
183(7) . . .
172(7) . . .
173(7) . . .
177(7) . . .
173(7) . . .
194(7) . . .
189(7) . . .
180(7) . . .
172(7) . . .
164(7) . . .
179(7) . . .
186(7) . . .
179(7) . . .
171(7) . . .
184(7) . . .
175(7) . . .
168(7) . . .
179(8) . . .
183(7) . . .
159(7) . . .
176(7) . . .
167(7) . . .
196(8) . . .
162(7) . . .
188(7) . . .
164(7) . . .
192(8) . . .
180(7) . . .
169(7) . . .
168(7) . . .
182(7) . . .
173(7) . . .
189(8) . . .
184(7) . . .
178(7) . . .
165(7) . . .
162(7) . . .
182(7) . . .
152(6) . . .
159(7) . . .
152(7) . . .
180(7) . . .
176(7) . . .
159(7) . . .
172(7) . . .
162(7) . . .
175(7) . . .
168(7) . . .
193(7) . . .
168(7) . . .
173(7) . . .
171(8) . . .
189(7) . . .
200(7) . . .
180(7) . . .
173(7) . . .
166(7) . . .
184(7) . . .
175(7) . . .
161(7) . . .
166(7) . . .
154(7) . . .
169(7) . . .
163(7) . . .
185(7) . . .
154(7) . . .
180(8) . . .
170(7) . . .
177(7) . . .
172(7) . . .
192(7) . . .
183(7) . . .
183(7) . . .
182(7) . . .
175(7) . . .
163(7) . . .
171(7) . . .
186(7) . . .
185(7) . . .
178(7) . . .
174(7) . . .
203(8) . . .
181(7) . . .
175(7) . . .
179(7) . . .
164(7) . . .
179(7) . . .
187(7) . . .
185(7) . . .
175(7) . . .
179(7) . . .
183(7) . . .
179(7) . . .
184(7) . . .
188(7) . . .
192(8) . . .
176(7) . . .
174(7) . . .
191(7) . . .
195(8) . . .
189(8) . . .
188(8) . . .
168(7) . . .
171(7) . . .
163(7) . . .
185(8) . . .
166(7) . . .
173(7) . . .
187(7) . . .
177(7) . . .
181(8) . . .
171(7) . . .
172(7) . . .
182(7) . . .
163(7) . . .
162(7) . . .
180(7) . . .
162(7) . . .
187(7) . . .
185(7) . . .
174(7) . . .
177(7) . . .
178(7) . . .
183(7) . . .
183(7) . . .
193(8) . . .
179(7) . . .
193(7) . . .
173(7) . . .
177(7) . . .
167(7) . . .
185(7) . . .
168(7) . . .
183(7) . . .
172(7) . . .
185(7) . . .
186(7) . . .
188(7) . . .
173(7) . . .
180(8) . . .
169(7) . . .
186(7) . . .
177(7) . . .
172(7) . . .
170(7) . . .
152(6) . . .
174(7) . . .
176(7) . . .
161(7) . . .
159(7) . . .
182(7) . . .
184(7) . . .
181(7) . . .
176(7) . . .
190(8) . . .
171(7) . . .
174(7) . . .
185(7) . . .
178(7) . . .
163(7) . . .
178(7) . . .
178(7) . . .
170(7) . . .
175(7) . . .
173(7) . . .
192(8) . . .
164(7) . . .
178(7) . . .
198(7) . . .
179(7) . . .
165(7) . . .
183(7) . . .
180(7) . . .
198(8) . . .
179(7) . . .
174(7) . . .
174(7) . . .
184(7) . . .
165(7) . . .
182(7) . . .
185(7) . . .
167(7) . . .
157(7) . . .
160(7) . . .
178(7) . . .
179(7) . . .
194(7) . . .
180(7) . . .
174(7) . . .
169(7) . . .
169(7) . . .
187(7) . . .
166(7) . . .
163(7) . . .
163(7) . . .
177(7) . . .
184(7) . . .
192(7) . . .
168(7) . . .
177(7) . . .
163(7) . . .
196(7) . . .
173(7) . . .
170(7) . . .
159(7) . . .
180(7) . . .
174(7) . . .
165(7) . . .
172(7) . . .
175(7) . . .
167(7) . . .
153(6) . . .
176(7) . . .
166(7) . . .
170(7) . . .
171(7) . . .
180(7) . . .
187(7) . . .
178(7) . . .
167(7) . . .
168(7) . . .
171(7) . . .
164(7) . . .
161(7) . . .
176(7) . . .
183(7) . . .
184(7) . . .
175(7) . . .
174(7) . . .
181(7) . . .
172(7) . . .
182(7) . . .
164(7) . . .
168(7) . . .
176(7) . . .
173(7) . . .
182(7) . . .
174(7) . . .
185(7) . . .
164(7) . . .
167(7) . . .
177(7) . . .
172(7) . . .
158(7) . . .
200(8) . . .
176(7) . . .
176(7) . . .
156(7) . . .
161(7) . . .
177(7) . . .
163(7) . . .
164(7) . . .
186(8) . . .
165(7) . . .
161(7) . . .
165(7) . . .
161(7) . . .
158(7) . . .
159(7) . . .
155(7) . . .
173(7) . . .
169(7) . . .
164(7) . . .
167(7) . . .
164(7) . . .
188(7) . . .
192(8) . . .
173(7) . . .
183(7) . . .
150(6) . . .
173(7) . . .
175(7) . . .
174(7) . . .
203(8) . . .
167(7) . . .
176(7) . . .
190(7) . . .
194(7) . . .
195(7) . . .
183(7) . . .
180(7) . . .
175(7) . . .
171(7) . . .
163(7) . . .
199(7) . . .
175(7) . . .
170(7) . . .
168(7) . . .
181(7) . . .
157(7) . . .
171(7) . . .
161(7) . . .
173(7) . . .
172(7) . . .
166(7) . . .
165(7) . . .
175(7) . . .
171(7) . . .
183(7) . . .
174(7) . . .
179(7) . . .
155(7) . . .
190(7) . . .
178(7) . . .
173(7) . . .
182(7) . . .
182(8) . . .
173(7) . . .
152(6) . . .
199(7) . . .
162(7) . . .
177(7) . . .
174(7) . . .
166(7) . . .
177(7) . . .
177(7) . . .
181(7) . . .
188(7) . . .
184(7) . . .
173(7) . . .
190(8) . . .
180(7) . . .
161(7) . . .
159(7) . . .
181(7) . . .
174(7) . . .
198(8) . . .
181(7) . . .
174(7) . . .
158(7) . . .
171(7) . . .
168(7) . . .
155(7) . . .
183(7) . . .
184(7) . . .
166(7) . . .
170(7) . . .
168(7) . . .
179(7) . . .
178(7) . . .
175(7) . . .
180(7) . . .
187(7) . . .
188(7) . . .
187(7) . . .
166(7) . . .
156(7) . . .
171(7) . . .
185(7) . . .
153(7) . . .
184(8) . . .
177(7) . . .
186(7) . . .
171(7) . . .
142(6) . . .
166(7) . . .
177(7) . . .
152(6) . . .
161(7) . . .
151(7) . . .
169(7) . . .
176(7) . . .
163(7) . . .
172(7) . . .
165(7) . . .
194(8) . . .
175(7) . . .
161(7) . . .
153(6) . . .
168(7) . . .
179(8) . . .
138(6) . . .
177(7) . . .
147(6) . . .
172(7) . . .
188(8) . . .
162(7) . . .
168(7) . . .
166(7) . . .
162(7) . . .
167(7) . . .
170(7) . . .
161(7) . . .
168(7) . . .
178(7) . . .
166(7) . . .
182(7) . . .
169(7) . . .
190(8) . . .
161(7) . . .
186(7) . . .
170(7) . . .
177(7) . . .
181(7) . . .
168(7) . . .
178(7) . . .
185(7) . . .
195(7) . . .
179(7) . . .
186(7) . . .
177(7) . . .
151(6) . . .
171(7) . . .
185(7) . . .
173(7) . . .
169(7) . . .
169(7) . . .
177(7) . . .
190(7) . . .
168(7) . . .
179(7) . . .
193(7) . . .
170(7) . . .
165(7) . . .
195(8) . . .
170(7) . . .
185(7) . . .
182(7) . . .
182(7) . . .
172(7) . . .
182(7) . . .
163(7) . . .
176(7) . . .
184(7) . . .
164(7) . . .
167(7) . . .
182(7) . . .
171(7) . . .
203(8) . . .
178(7) . . .
173(7) . . .
165(7) . . .
183(7) . . .
172(7) . . .
183(7) . . .
196(7) . . .
184(7) . . .
166(7) . . .
200(8) . . .
170(7) . . .
188(7) . . .
163(7) . . .
163(7) . . .
182(7) . . .
175(7) . . .
194(7) . . .
171(7) . . .
169(7) . . .
169(7) . . .
184(7) . . .
177(7) . . .
174(7) . . .
177(7) . . .
178(7) . . .
181(7) . . .
165(7) . . .
180(7) . . .
176(7) . . .
181(8) . . .
168(7) . . .
184(7) . . .
157(6) . . .
178(7) . . .
173(7) . . .
167(7) . . .
172(7) . . .
173(7) . . .
170(7) . . .
173(7) . . .
159(7) . . .
149(6) . . .
182(7) . . .
184(7) . . .
166(7) . . .
156(7) . . .
168(7) . . .
170(7) . . .
159(7) . . .
183(7) . . .
161(7) . . .
186(7) . . .
184(7) . . .
179(7) . . .
183(7) . . .
181(7) . . .
178(7) . . .
182(7) . . .
174(7) . . .
166(7) . . .
160(7) . . .
179(7) . . .
163(7) . . .
167(7) . . .
176(7) . . .
172(7) . . .
170(7) . . .
186(8) . . .
179(7) . . .
178(7) . . .
179(7) . . .
179(7) . . .
186(7) . . .
173(7) . . .
175(7) . . .
174(7) . . .
161(7) . . .
160(7) . . .
165(7) . . .
158(7) . . .
154(6) . . .
171(7) . . .
172(7) . . .
161(7) . . .
183(7) . . .
178(7) . . .
176(7) . . .
177(7) . . .
163(7) . . .
177(7) . . .
177(7) . . .
160(7) . . .
165(7) . . .
187(8) . . .
185(7) . . .
161(7) . . .
189(7) . . .
180(7) . . .
173(7) . . .
164(7) . . .
178(7) . . .
177(7) . . .
167(7) . . .
162(7) . . .
174(7) . . .
168(7) . . .
172(7) . . .
174(7) . . .
179(7) . . .
173(7) . . .
169(7) . . .
153(7) . . .
159(7) . . .
157(7) . . .
171(7) . . .
171(7) . . .
178(7) . . .
176(7) . . .
156(7) . . .
169(7) . . .
165(7) . . .
148(6) . . .
162(7) . . .
169(7) . . .
189(7) . . .
168(7) . . .
190(7) . . .
177(7) . . .
182(7) . . .
163(7) . . .
160(7) . . .
174(7) . . .
168(7) . . .
176(7) . . .
171(7) . . .
189(7) . . .
160(7) . . .
173(7) . . .
186(7) . . .
186(7) . . .
181(7) . . .
175(7) . . .
162(7) . . .
182(8) . . .
170(7) . . .
190(7) . . .
172(7) . . .
190(8) . . .
165(7) . . .
164(7) . . .
188(7) . . .
180(7) . . .
174(7) . . .
166(7) . . .
166(7) . . .
160(7) . . .
162(7) . . .
163(7) . . .
172(7) . . .
180(7) . . .
162(7) . . .
187(8) . . .
176(7) . . .
160(7) . . .
172(7) . . .
170(7) . . .
173(7) . . .
180(7) . . .
179(7) . . .
183(7) . . .
190(8) . . .
165(7) . . .
181(7) . . .
186(7) . . .
186(7) . . .
174(7) . . .
152(7) . . .
174(7) . . .
167(7) . . .
180(7) . . .
166(7) . . .
177(7) . . .
171(7) . . .
162(7) . . .
167(7) . . .
176(7) . . .
177(7) . . .
158(7) . . .
168(7) . . .
180(7) . . .
171(7) . . .
171(7) . . .
168(7) . . .
166(7) . . .
160(7) . . .
167(7) . . .
166(7) . . .
158(7) . . .
183(7) . . .
172(7) . . .
180(7) . . .
160(7) . . .
152(7) . . .
194(7) . . .
167(7) . . .
173(7) . . .
167(7) . . .
182(7) . . .
181(7) . . .
174(7) . . .
161(7) . . .
190(7) . . .
186(7) . . .
181(7) . . .
192(8) . . .
175(7) . . .
156(7) . . .
164(7) . . .
164(7) . . .
167(7) . . .
154(7) . . .
164(7) . . .
176(7) . . .
169(7) . . .
156(7) . . .
159(7) . . .
159(7) . . .
172(7) . . .
175(7) . . .
173(7) . . .
169(7) . . .
177(7) . . .
153(7) . . .
173(7) . . .
153(7) . . .
175(7) . . .
166(7) . . .
166(7) . . .
165(7) . . .
182(8) . . .
177(8) . . .
163(7) . . .
154(6) . . .
170(7) . . .
159(7) . . .
148(7) . . .
173(7) . . .
172(7) . . .
170(7) . . .
164(7) . . .
169(7) . . .
175(7) . . .
191(7) . . .
164(7) . . .
192(8) . . .
175(7) . . .
146(6) . . .
165(7) . . .
180(7) . . .
160(7) . . .
165(7) . . .
175(7) . . .
178(7) . . .
173(7) . . .
164(7) . . .
189(7) . . .
201(7) . . .
179(7) . . .
170(7) . . .
188(8) . . .
176(7) . . .
164(7) . . .
170(7) . . .
179(7) . . .
169(7) . . .
177(7) . . .
152(6) . . .
179(7) . . .
162(7) . . .
177(7) . . .
186(7) . . .
157(7) . . .
171(7) . . .
161(7) . . .
175(8) . . .
165(7) . . .
182(7) . . .
155(7) . . .
172(7) . . .
154(7) . . .
177(7) . . .
172(7) . . .
164(7) . . .
172(7) . . .
167(7) . . .
168(7) . . .
168(7) . . .
189(7) . . .
165(7) . . .
166(7) . . .
145(6) . . .
157(7) . . .
179(7) . . .
177(7) . . .
171(7) . . .
172(7) . . .
179(7) . . .
167(7) . . .
187(8) . . .
166(7) . . .
162(7) . . .
154(7) . . .
150(7) . . .
165(7) . . .
168(7) . . .
175(7) . . .
167(7) . . .
170(7) . . .
160(7) . . .
177(7) . . .
169(7) . . .
174(7) . . .
168(7) . . .
180(8) . . .
165(7) . . .
163(7) . . .
153(6) . . .
165(7) . . .
170(7) . . .
179(7) . . .
194(7) . . .
186(7) . . .
189(7) . . .
164(7) . . .
168(7) . . .
169(7) . . .
170(7) . . .
170(7) . . .
170(7) . . .
156(7) . . .
163(7) . . .
165(7) . . .
172(7) . . .
162(7) . . .
176(7) . . .
170(7) . . .
182(7) . . .
181(7) . . .
167(7) . . .
175(7) . . .
187(7) . . .
175(7) . . .
168(7) . . .
167(7) . . .
160(7) . . .
178(7) . . .
175(7) . . .
155(7) . . .
171(7) . . .
170(7) . . .
175(7) . . .
174(7) . . .
166(7) . . .
168(7) . . .
156(7) . . .
171(7) . . .
156(7) . . .
164(7) . . .
140(6) . . .
180(7) . . .
181(7) . . .
178(7) . . .
204(8) . . .
178(7) . . .
174(7) . . .
168(7) . . .
156(7) . . .
167(7) . . .
173(7) . . .
179(7) . . .
172(7) . . .
156(7) . . .
172(7) . . .
179(7) . . .
169(7) . . .
184(7) . . .
165(7) . . .
165(7) . . .
179(7) . . .
174(7) . . .
165(7) . . .
166(7) . . .
171(7) . . .
182(7) . . .
174(7) . . .
177(7) . . .
178(7) . . .
163(7) . . .
151(7) . . .
178(7) . . .
180(7) . . .
166(7) . . .
158(7) . . .
163(7) . . .
182(7) . . .
173(7) . . .
183(7) . . .
169(7) . . .
184(7) . . .
183(7) . . .
175(7) . . .
174(7) . . .
149(6) . . .
166(7) . . .
177(7) . . .
165(7) . . .
162(7) . . .
189(7) . . .
162(7) . . .
159(7) . . .
170(7) . . .
157(7) . . .
167(7) . . .
167(7) . . .
179(7) . . .
165(7) . . .
157(7) . . .
163(7) . . .
190(7) . . .
166(7) . . .
188(8) . . .
156(7) . . .
168(7) . . .
177(7) . . .
170(7) . . .
149(6) . . .
174(7) . . .
185(7) . . .
195(7) . . .
195(7) . . .
156(7) . . .
177(7) . . .
175(7) . . .
170(7) . . .
163(7) . . .
164(7) . . .
155(7) . . .
153(7) . . .
180(7) . . .
165(7) . . .
166(7) . . .
148(7) . . .
177(7) . . .
177(7) . . .
166(7) . . .
144(6) . . .
175(7) . . .
162(7) . . .
167(7) . . .
158(7) . . .
169(7) . . .
171(7) . . .
168(7) . . .
178(7) . . .
156(7) . . .
157(7) . . .
155(7) . . .
154(7) . . .
162(7) . . .
151(7) . . .
148(7) . . .
146(6) . . .
156(7) . . .
162(7) . . .
167(7) . . .
165(7) . . .
170(7) . . .
145(6) . . .
160(7) . . .
151(7) . . .
151(7) . . .
164(7) . . .
142(6) . . .
167(7) . . .
184(8) . . .
162(7) . . .
160(7) . . .
140(6) . . .
162(7) . . .
168(7) . . .
162(7) . . .
177(7) . . .
155(6) . . .
164(7) . . .
141(6) . . .
166(7) . . .
165(7) . . .
169(7) . . .
163(7) . . .
157(7) . . .
156(7) . . .
163(7) . . .
196(7) . . .
152(7) . . .
155(7) . . .
173(7) . . .
177(7) . . .
183(7) . . .
171(7) . . .
180(7) . . .
168(7) . . .
160(7) . . .
162(7) . . .
166(7) . . .
179(7) . . .
164(7) . . .
151(6) . . .
160(7) . . .
170(7) . . .
184(7) . . .
166(7) . . .
165(7) . . .
158(6) . . .
179(7) . . .
181(7) . . .
179(7) . . .
155(7) . . .
159(7) . . .
171(7) . . .
171(7) . . .
188(7) . . .
170(7) . . .
151(6) . . .
152(7) . . .
165(7) . . .
176(7) . . .
169(7) . . .
168(7) . . .
166(7) . . .
176(8) . . .
193(8) . . .
177(7) . . .
175(7) . . .
176(7) . . .
157(7) . . .
159(7) . . .
166(7) . . .
157(7) . . .
170(7) . . .
173(7) . . .
178(7) . . .
170(7) . . .
173(7) . . .
192(8) . . .
184(7) . . .
169(7) . . .
173(7) . . .
175(7) . . .
170(7) . . .
165(7) . . .
155(7) . . .
173(7) . . .
166(7) . . .
171(7) . . .
158(7) . . .
183(7) . . .
158(6) . . .
158(7) . . .
179(7) . . .
155(7) . . .
158(7) . . .
153(6) . . .
153(7) . . .
153(7) . . .
174(7) . . .
156(7) . . .
160(7) . . .
159(7) . . .
172(7) . . .
163(7) . . .
155(6) . . .
165(7) . . .
171(7) . . .
178(7) . . .
172(7) . . .
157(7) . . .
173(7) . . .
167(7) . . .
174(7) . . .
171(7) . . .
172(7) . . .
167(7) . . .
181(7) . . .
162(7) . . .
168(7) . . .
165(7) . . .
145(6) . . .
168(7) . . .
169(7) . . .
164(7) . . .
173(7) . . .
160(7) . . .
152(7) . . .
176(7) . . .
155(7) . . .
173(7) . . .
167(7) . . .
183(7) . . .
185(8) . . .
141(6) . . .
161(7) . . .
158(7) . . .
161(7) . . .
150(7) . . .
164(7) . . .
171(7) . . .
166(7) . . .
164(7) . . .
163(7) . . .
176(7) . . .
172(7) . . .
154(7) . . .
158(7) . . .
173(7) . . .
173(7) . . .
153(6) . . .
157(7) . . .
170(7) . . .
149(6) . . .
166(7) . . .
144(6) . . .
164(7) . . .
157(7) . . .
143(6) . . .
157(7) . . .
162(7) . . .
178(7) . . .
157(7) . . .
164(7) . . .
167(7) . . .
164(7) . . .
170(7) . . .
166(7) . . .
185(7) . . .
171(7) . . .
172(7) . . .
159(7) . . .
175(7) . . .
171(7) . . .
182(7) . . .
168(7) . . .
168(7) . . .
176(7) . . .
177(7) . . .
164(7) . . .
171(7) . . .
165(7) . . .
176(7) . . .
174(7) . . .
163(7) . . .
150(6) . . .
154(7) . . .
168(7) . . .
172(7) . . .
174(7) . . .
168(7) . . .
157(7) . . .
162(7) . . .
163(7) . . .
170(7) . . .
163(7) . . .
174(7) . . .
171(7) . . .
157(7) . . .
171(7) . . .
173(7) . . .
147(7) . . .
164(7) . . .
178(7) . . .
148(6) . . .
166(7) . . .
173(7) . . .
155(7) . . .
145(6) . . .
170(7) . . .
137(6) . . .
142(7) . . .
146(6) . . .
148(6) . . .
166(7) . . .
153(7) . . .
162(7) . . .
169(7) . . .
175(7) . . .
170(7) . . .
167(7) . . .
163(7) . . .
159(7) . . .
183(7) . . .
151(7) . . .
178(7) . . .
159(7) . . .
155(7) . . .
152(6) . . .
156(7) . . .
155(7) . . .
160(7) . . .
165(7) . . .
179(7) . . .
182(7) . . .
163(7) . . .
156(7) . . .
173(7) . . .
163(7) . . .
147(7) . . .
177(7) . . .
146(6) . . .
151(6) . . .
165(7) . . .
163(7) . . .
169(7) . . .
154(7) . . .
165(7) . . .
164(7) . . .
176(7) . . .
157(7) . . .
167(7) . . .
175(7) . . .
149(6) . . .
172(7) . . .
153(7) . . .
149(7) . . .
169(7) . . .
157(7) . . .
153(7) . . .
160(7) . . .
170(7) . . .
179(7) . . .
174(7) . . .
178(7) . . .
162(7) . . .
158(7) . . .
164(7) . . .
139(6) . . .
170(7) . . .
173(7) . . .
159(7) . . .
168(7) . . .
162(7) . . .
168(7) . . .
171(7) . . .
173(7) . . .
161(7) . . .
170(7) . . .
166(7) . . .
163(7) . . .
160(7) . . .
152(6) . . .
160(7) . . .
165(7) . . .
174(7) . . .
186(7) . . .
152(6) . . .
168(7) . . .
176(7) . . .
151(7) . . .
166(7) . . .
152(6) . . .
144(6) . . .
176(7) . . .
155(7) . . .
181(7) . . .
173(7) . . .
164(7) . . .
161(7) . . .
164(7) . . .
157(7) . . .
170(7) . . .
162(7) . . .
169(7) . . .
159(7) . . .
163(7) . . .
148(6) . . .
172(7) . . .
154(7) . . .
159(7) . . .
157(6) . . .
166(7) . . .
159(7) . . .
172(7) . . .
180(7) . . .
157(7) . . .
155(6) . . .
171(7) . . .
153(7) . . .
158(7) . . .
168(7) . . .
170(7) . . .
152(7) . . .
150(7) . . .
166(7) . . .
167(7) . . .
142(6) . . .
155(7) . . .
161(7) . . .
163(7) . . .
181(7) . . .
173(7) . . .
162(7) . . .
158(7) . . .
168(7) . . .
161(7) . . .
169(7) . . .
176(7) . . .
152(7) . . .
171(7) . . .
168(7) . . .
165(7) . . .
174(7) . . .
182(7) . . .
167(7) . . .
149(6) . . .
167(7) . . .
165(7) . . .
149(7) . . .
174(7) . . .
174(7) . . .
165(7) . . .
165(7) . . .
166(7) . . .
157(6) . . .
165(7) . . .
157(7) . . .
160(7) . . .
174(7) . . .
165(7) . . .
166(7) . . .
152(7) . . .
147(7) . . .
169(7) . . .
156(6) . . .
149(6) . . .
154(7) . . .
148(7) . . .
151(7) . . .
163(7) . . .
162(7) . . .
165(7) . . .
145(6) . . .
150(6) . . .
153(6) . . .
168(7) . . .
162(7) . . .
160(7) . . .
174(7) . . .
149(6) . . .
158(7) . . .
153(7) . . .
161(7) . . .
163(7) . . .
170(7) . . .
164(7) . . .
146(6) . . .
164(7) . . .
149(6) . . .
157(6) . . .
157(7) . . .
173(7) . . .
148(6) . . .
165(7) . . .
151(6) . . .
147(7) . . .
170(7) . . .
166(7) . . .
171(7) . . .
186(7) . . .
144(6) . . .
162(7) . . .
185(7) . . .
169(7) . . .
155(6) . . .
169(7) . . .
165(7) . . .
159(7) . . .
152(7) . . .
139(6) . . .
156(7) . . .
151(7) . . .
143(6) . . .
154(7) . . .
161(7) . . .
162(7) . . .
168(7) . . .
154(7) . . .
157(7) . . .
156(7) . . .
157(7) . . .
155(7) . . .
145(6) . . .
134(6) . . .
164(7) . . .
158(7) . . .
184(7) . . .
154(7) . . .
151(6) . . .
161(7) . . .
154(7) . . .
150(7) . . .
142(6) . . .
154(6) . . .
155(7) . . .
145(7) . . .
154(7) . . .
158(7) . . .
157(7) . . .
174(7) . . .
148(7) . . .
171(7) . . .
161(7) . . .
170(7) . . .
152(7) . . .
173(7) . . .
155(7) . . .
173(7) . . .
172(7) . . .
167(7) . . .
176(7) . . .
159(7) . . .
152(6) . . .
153(6) . . .
170(7) . . .
166(7) . . .
159(7) . . .
161(7) . . .
174(7) . . .
161(7) . . .
182(8) . . .
161(7) . . .
146(6) . . .
150(6) . . .
145(6) . . .
165(7) . . .
161(7) . . .
166(7) . . .
171(7) . . .
168(7) . . .
168(7) . . .
173(7) . . .
154(6) . . .
173(7) . . .
175(7) . . .
149(7) . . .
169(7) . . .
167(7) . . .
157(7) . . .
157(7) . . .
150(7) . . .
177(7) . . .
169(7) . . .
155(7) . . .
144(7) . . .
178(7) . . .
171(7) . . .
173(7) . . .
169(7) . . .
147(7) . . .
156(7) . . .
172(7) . . .
152(6) . . .
152(6) . . .
187(8) . . .
153(7) . . .
174(7) . . .
173(7) . . .
158(7) . . .
159(7) . . .
160(7) . . .
145(6) . . .
160(7) . . .
156(7) . . .
170(7) . . .
156(7) . . .
167(7) . . .
160(7) . . .
145(6) . . .
156(7) . . .
160(7) . . .
157(7) . . .
164(7) . . .
164(7) . . .
158(7) . . .
155(7) . . .
154(6) . . .
161(7) . . .
172(7) . . .
152(7) . . .
186(7) . . .
164(7) . . .
156(7) . . .
161(7) . . .
165(7) . . .
140(6) . . .
148(6) . . .
160(7) . . .
169(7) . . .
149(7) . . .
168(7) . . .
163(7) . . .
171(7) . . .
159(7) . . .
161(7) . . .
173(7) . . .
163(7) . . .
154(7) . . .
166(7) . . .
151(7) . . .
156(7) . . .
148(6) . . .
177(7) . . .
167(7) . . .
176(7) . . .
162(7) . . .
143(6) . . .
158(7) . . .
133(6) . . .
148(6) . . .
161(7) . . .
152(6) . . .
159(7) . . .
181(7) . . .
146(6) . . .
159(7) . . .
163(7) . . .
150(7) . . .
158(7) . . .
165(7) . . .
159(7) . . .
171(7) . . .
172(7) . . .
148(7) . . .
148(6) . . .
166(7) . . .
162(7) . . .
158(7) . . .
172(7) . . .
169(7) . . .
154(6) . . .
171(7) . . .
152(7) . . .
154(7) . . .
155(7) . . .
147(6) . . .
156(7) . . .
144(6) . . .
146(7) . . .
154(7) . . .
164(7) . . .
156(7) . . .
168(7) . . .
164(7) . . .
143(6) . . .
161(7) . . .
160(7) . . .
157(7) . . .
182(7) . . .
144(6) . . .
150(6) . . .
172(7) . . .
167(7) . . .
168(7) . . .
152(6) . . .
154(6) . . .
172(7) . . .
173(7) . . .
169(7) . . .
179(7) . . .
168(7) . . .
146(6) . . .
163(7) . . .
172(7) . . .
157(6) . . .
150(6) . . .
146(7) . . .
152(7) . . .
149(6) . . .
164(7) . . .
150(6) . . .
153(6) . . .
150(7) . . .
146(6) . . .
158(7) . . .
161(7) . . .
163(7) . . .
169(7) . . .
158(7) . . .
153(6) . . .
155(7) . . .
158(7) . . .
154(7) . . .
148(7) . . .
163(7) . . .
156(7) . . .
149(7) . . .
164(7) . . .
164(7) . . .
151(6) . . .
162(7) . . .
164(7) . . .
168(7) . . .
149(6) . . .
144(6) . . .
156(7) . . .
146(7) . . .
133(6) . . .
124(6) . . .
158(7) . . .
165(7) . . .
163(7) . . .
159(7) . . .
165(7) . . .
160(7) . . .
152(7) . . .
152(7) . . .
143(6) . . .
165(7) . . .
143(6) . . .
149(7) . . .
143(7) . . .
168(7) . . .
160(7) . . .
155(7) . . .
155(7) . . .
180(7) . . .
170(7) . . .
179(7) . . .
171(7) . . .
165(7) . . .
166(7) . . .
152(7) . . .
141(6) . . .
144(6) . . .
178(7) . . .
153(7) . . .
139(6) . . .
159(7) . . .
153(7) . . .
154(7) . . .
160(7) . . .
144(6) . . .
171(7) . . .
165(7) . . .
166(7) . . .
164(7) . . .
170(7) . . .
137(6) . . .
151(6) . . .
165(7) . . .
139(6) . . .
151(7) . . .
161(7) . . .
162(7) . . .
162(7) . . .
150(6) . . .
163(7) . . .
159(7) . . .
166(7) . . .
137(6) . . .
169(7) . . .
160(7) . . .
162(7) . . .
147(6) . . .
140(6) . . .
151(7) . . .
161(7) . . .
167(7) . . .
172(7) . . .
155(7) . . .
143(6) . . .
152(6) . . .
156(7) . . .
154(7) . . .
164(7) . . .
151(6) . . .
166(7) . . .
168(7) . . .
179(7) . . .
175(7) . . .
149(7) . . .
169(7) . . .
155(6) . . .
165(7) . . .
164(7) . . .
150(7) . . .
149(6) . . .
142(6) . . .
144(6) . . .
158(7) . . .
153(7) . . .
142(6) . . .
150(6) . . .
162(7) . . .
167(7) . . .
159(7) . . .
164(7) . . .
143(6) . . .
159(7) . . .
159(7) . . .
167(7) . . .
144(6) . . .
165(7) . . .
153(6) . . .
159(7) . . .
162(7) . . .
147(6) . . .
150(6) . . .
155(7) . . .
159(7) . . .
149(6) . . .
173(7) . . .
166(7) . . .
164(7) . . .
155(7) . . .
151(6) . . .
147(6) . . .
158(7) . . .
158(7) . . .
160(7) . . .
161(7) . . .
155(6) . . .
163(7) . . .
162(7) . . .
159(7) . . .
157(7) . . .
150(6) . . .
158(7) . . .
144(7) . . .
150(7) . . .
158(7) . . .
163(7) . . .
160(7) . . .
155(7) . . .
156(7) . . .
136(6) . . .
150(6) . . .
150(7) . . .
137(6) . . .
147(6) . . .
173(7) . . .
164(7) . . .
171(7) . . .
147(7) . . .
154(7) . . .
161(7) . . .
163(7) . . .
148(7) . . .
151(7) . . .
176(7) . . .
158(7) . . .
152(6) . . .
166(7) . . .
164(7) . . .
150(6) . . .
156(6) . . .
129(6) . . .
149(7) . . .
159(7) . . .
159(7) . . .
153(6) . . .
150(7) . . .
171(7) . . .
150(7) . . .
152(6) . . .
152(6) . . .
139(6) . . .
141(6) . . .
166(7) . . .
147(6) . . .
157(7) . . .
159(7) . . .
143(7) . . .
166(7) . . .
156(7) . . .
149(6) . . .
177(7) . . .
153(7) . . .
149(6) . . .
159(7) . . .
156(6) . . .
162(7) . . .
161(7) . . .
171(7) . . .
168(7) . . .
144(6) . . .
139(6) . . .
147(7) . . .
146(6) . . .
143(6) . . .
148(6) . . .
146(6) . . .
152(7) . . .
168(7) . . .
160(7) . . .
148(6) . . .
160(7) . . .
148(7) . . .
171(7) . . .
162(7) . . .
141(6) . . .
156(7) . . .
159(7) . . .
149(7) . . .
160(7) . . .
154(7) . . .
168(7) . . .
161(7) . . .
145(6) . . .
155(6) . . .
164(7) . . .
169(7) . . .
162(7) . . .
157(7) . . .
159(7) . . .
174(7) . . .
163(7) . . .
155(6) . . .
150(6) . . .
157(6) . . .
162(7) . . .
162(7) . . .
142(6) . . .
138(6) . . .
154(6) . . .
158(7) . . .
154(7) . . .
151(6) . . .
162(7) . . .
153(6) . . .
162(7) . . .
156(7) . . .
144(6) . . .
157(6) . . .
143(6) . . .
154(7) . . .
166(7) . . .
163(7) . . .
156(7) . . .
139(6) . . .
165(7) . . .
154(7) . . .
148(6) . . .
155(6) . . .
176(7) . . .
157(7) . . .
137(6) . . .
138(6) . . .
156(6) . . .
163(7) . . .
157(7) . . .
156(7) . . .
136(6) . . .
170(7) . . .
163(7) . . .
161(7) . . .
159(7) . . .
155(7) . . .
171(7) . . .
151(7) . . .
159(7) . . .
164(7) . . .
163(7) . . .
133(6) . . .
154(7) . . .
159(7) . . .
151(7) . . .
144(6) . . .
150(6) . . .
157(7) . . .
144(7) . . .
153(7) . . .
144(6) . . .
163(7) . . .
145(6) . . .
163(7) . . .
158(7) . . .
161(7) . . .
161(7) . . .
172(7) . . .
171(7) . . .
189(7) . . .
144(6) . . .
147(6) . . .
151(7) . . .
159(7) . . .
145(7) . . .
146(6) . . .
168(7) . . .
144(6) . . .
162(7) . . .
149(7) . . .
134(6) . . .
164(7) . . .
161(7) . . .
150(7) . . .
172(7) . . .
161(7) . . .
172(7) . . .
162(7) . . .
164(7) . . .
154(7) . . .
140(6) . . .
155(7) . . .
151(7) . . .
151(7) . . .
150(7) . . .
158(7) . . .
167(7) . . .
186(8) . . .
142(6) . . .
141(6) . . .
148(6) . . .
153(7) . . .
138(7) . . .
147(7) . . .
172(7) . . .
151(6) . . .
161(7) . . .
152(7) . . .
159(7) . . .
145(6) . . .
134(6) . . .
160(7) . . .
156(7) . . .
158(7) . . .
160(7) . . .
159(7) . . .
146(6) . . .
148(7) . . .
155(7) . . .
150(6) . . .
144(6) . . .
141(6) . . .
149(7) . . .
163(7) . . .
174(7) . . .
154(7) . . .
150(7) . . .
142(7) . . .
150(7) . . .
140(6) . . .
145(6) . . .
139(6) . . .
149(7) . . .
167(7) . . .
160(7) . . .
150(6) . . .
149(7) . . .
143(7) . . .
158(7) . . .
158(7) . . .
133(6) . . .
162(7) . . .
166(7) . . .
157(7) . . .
147(6) . . .
136(6) . . .
153(7) . . .
161(7) . . .
174(7) . . .
149(6) . . .
147(6) . . .
146(7) . . .
149(7) . . .
160(7) . . .
167(7) . . .
147(6) . . .
146(7) . . .
135(6) . . .
164(7) . . .
140(6) . . .
139(6) . . .
146(7) . . .
151(7) . . .
158(7) . . .
139(6) . . .
163(7) . . .
153(7) . . .
148(6) . . .
171(7) . . .
151(6) . . .
155(7) . . .
141(7) . . .
141(6) . . .
150(6) . . .
162(7) . . .
152(7) . . .
160(7) . . .
146(7) . . .
143(6) . . .
161(7) . . .
156(7) . . .
154(7) . . .
165(7) . . .
157(7) . . .
173(7) . . .
156(7) . . .
136(6) . . .
150(7) . . .
169(7) . . .
164(7) . . .
154(7) . . .
150(7) . . .
158(7) . . .
158(6) . . .
154(7) . . .
136(6) . . .
158(7) . . .
153(6) . . .
142(6) . . .
167(7) . . .
152(7) . . .
156(7) . . .
141(6) . . .
152(6) . . .
158(7) . . .
163(7) . . .
162(7) . . .
145(6) . . .
168(7) . . .
142(6) . . .
153(7) . . .
151(7) . . .
153(6) . . .
156(7) . . .
145(7) . . .
129(6) . . .
151(7) . . .
143(6) . . .
140(6) . . .
154(7) . . .
167(7) . . .
167(7) . . .
168(7) . . .
152(7) . . .
163(7) . . .
147(7) . . .
163(7) . . .
152(6) . . .
153(6) . . .
150(7) . . .
171(7) . . .
160(7) . . .
156(7) . . .
146(6) . . .
164(7) . . .
147(7) . . .
149(7) . . .
152(6) . . .
140(6) . . .
146(6) . . .
151(7) . . .
135(6) . . .
156(7) . . .
166(7) . . .
152(7) . . .
153(7) . . .
131(6) . . .
135(6) . . .
137(6) . . .
135(6) . . .
153(7) . . .
147(6) . . .
170(7) . . .
167(7) . . .
141(6) . . .
151(7) . . .
155(7) . . .
146(6) . . .
149(7) . . .
165(7) . . .
151(7) . . .
135(6) . . .
140(6) . . .
161(7) . . .
138(6) . . .
147(6) . . .
158(7) . . .
161(7) . . .
157(7) . . .
142(7) . . .
151(7) . . .
156(6) . . .
154(6) . . .
154(7) . . .
156(7) . . .
153(7) . . .
134(6) . . .
143(6) . . .
146(6) . . .
162(7) . . .
142(6) . . .
153(6) . . .
159(7) . . .
146(6) . . .
155(7) . . .
179(7) . . .
138(6) . . .
157(7) . . .
137(6) . . .
143(6) . . .
153(7) . . .
157(6) . . .
148(7) . . .
148(7) . . .
156(7) . . .
162(7) . . .
143(6) . . .
153(6) . . .
150(7) . . .
136(6) . . .
134(6) . . .
148(6) . . .
134(6) . . .
143(7) . . .
148(7) . . .
136(6) . . .
151(6) . . .
140(6) . . .
150(7) . . .
156(7) . . .
146(6) . . .
154(6) . . .
139(6) . . .
165(7) . . .
145(6) . . .
143(6) . . .
142(6) . . .
155(7) . . .
136(6) . . .
149(6) . . .
162(7) . . .
150(6) . . .
148(7) . . .
135(6) . . .
146(6) . . .
171(7) . . .
147(6) . . .
155(7) . . .
154(7) . . .
147(7) . . .
164(7) . . .
151(6) . . .
142(6) . . .
153(7) . . .
154(7) . . .
147(6) . . .
135(6) . . .
166(7) . . .
142(7) . . .
128(6) . . .
162(7) . . .
144(6) . . .
140(6) . . .
136(6) . . .
139(6) . . .
130(6) . . .
129(6) . . .
160(7) . . .
156(7) . . .
132(6) . . .
141(6) . . .
152(6) . . .
141(6) . . .
150(7) . . .
152(7) . . .
156(6) . . .
135(6) . . .
145(7) . . .
154(7) . . .
142(6) . . .
156(6) . . .
142(6) . . .
138(6) . . .
171(7) . . .
159(7) . . .
155(6) . . .
146(7) . . .
140(7) . . .
141(6) . . .
153(7) . . .
134(6) . . .
155(7) . . .
145(7) . . .
155(7) . . .
145(6) . . .
135(6) . . .
144(7) . . .
142(7) . . .
155(7) . . .
147(6) . . .
153(7) . . .
160(7) . . .
145(7) . . .
154(7) . . .
145(6) . . .
152(6) . . .
140(6) . . .
150(7) . . .
159(7) . . .
127(6) . . .
147(7) . . .
149(6) . . .
158(7) . . .
157(7) . . .
159(6) . . .
152(7) . . .
142(6) . . .
144(7) . . .
138(6) . . .
170(7) . . .
168(7) . . .
159(7) . . .
156(7) . . .
150(6) . . .
157(6) . . .
146(6) . . .
158(7) . . .
165(7) . . .
151(6) . . .
139(6) . . .
152(7) . . .
153(7) . . .
134(6) . . .
163(7) . . .
151(6) . . .
152(7) . . .
164(7) . . .
149(6) . . .
155(6) . . .
155(6) . . .
162(7) . . .
166(7) . . .
155(7) . . .
176(7) . . .
147(6) . . .
165(7) . . .
138(6) . . .
141(6) . . .
146(6) . . .
150(6) . . .
148(7) . . .
154(7) . . .
151(7) . . .
156(6) . . .
157(7) . . .
152(7) . . .
151(7) . . .
145(6) . . .
141(6) . . .
159(7) . . .
181(7) . . .
157(7) . . .
145(6) . . .
145(6) . . .
159(7) . . .
148(7) . . .
152(7) . . .
161(7) . . .
153(6) . . .
166(7) . . .
147(7) . . .
154(7) . . .
132(6) . . .
146(6) . . .
154(6) . . .
158(7) . . .
133(6) . . .
152(7) . . .
157(6) . . .
136(6) . . .
159(7) . . .
168(7) . . .
167(7) . . .
162(7) . . .
151(7) . . .
148(7) . . .
145(6) . . .
163(7) . . .
162(7) . . .
151(7) . . .
141(7) . . .
139(6) . . .
143(6) . . .
150(6) . . .
157(7) . . .
143(7) . . .
143(6) . . .
159(7) . . .
165(7) . . .
136(6) . . .
126(6) . . .
147(6) . . .
147(6) . . .
142(6) . . .
151(7) . . .
148(7) . . .
140(6) . . .
156(6) . . .
131(6) . . .
146(7) . . .
148(7) . . .
154(7) . . .
158(7) . . .
132(6) . . .
126(6) . . .
134(6) . . .
148(7) . . .
136(6) . . .
143(6) . . .
136(6) . . .
147(7) . . .
124(6) . . .
155(6) . . .
149(7) . . .
150(7) . . .
153(7) . . .
131(6) . . .
140(6) . . .
143(6) . . .
151(7) . . .
147(7) . . .
143(6) . . .
170(7) . . .
153(7) . . .
140(7) . . .
150(7) . . .
148(6) . . .
144(6) . . .
147(6) . . .
146(7) . . .
155(7) . . .
138(6) . . .
157(7) . . .
142(6) . . .
140(7) . . .
150(6) . . .
157(7) . . .
131(6) . . .
153(7) . . .
163(7) . . .
139(6) . . .
144(6) . . .
144(6) . . .
153(6) . . .
167(7) . . .
150(7) . . .
144(6) . . .
151(7) . . .
163(7) . . .
133(6) . . .
129(6) . . .
162(7) . . .
148(6) . . .
152(7) . . .
154(7) . . .
155(7) . . .
154(6) . . .
161(7) . . .
168(7) . . .
139(7) . . .
149(7) . . .
161(7) . . .
154(7) . . .
154(7) . . .
158(7) . . .
168(7) . . .
129(6) . . .
164(7) . . .
149(7) . . .
158(7) . . .
145(6) . . .
140(6) . . .
166(7) . . .
146(7) . . .
152(7) . . .
160(7) . . .
148(6) . . .
152(6) . . .
153(7) . . .
142(6) . . .
154(7) . . .
147(6) . . .
144(6) . . .
160(7) . . .
140(6) . . .
140(6) . . .
139(6) . . .
156(7) . . .
135(6) . . .
172(7) . . .
156(7) . . .
151(6) . . .
159(7) . . .
162(7) . . .
168(7) . . .
158(7) . . .
157(7) . . .
156(7) . . .
140(7) . . .
158(7) . . .
160(7) . . .
166(7) . . .
146(7) . . .
148(7) . . .
143(6) . . .
138(6) . . .
137(6) . . .
153(7) . . .
131(6) . . .
155(7) . . .
151(6) . . .
150(7) . . .
180(7) . . .
154(7) . . .
155(6) . . .
165(7) . . .
152(7) . . .
136(6) . . .
158(7) . . .
144(6) . . .
164(7) . . .
155(7) . . .
131(6) . . .
137(6) . . .
137(6) . . .
135(6) . . .
130(6) . . .
138(7) . . .
142(6) . . .
156(7) . . .
154(6) . . .
144(6) . . .
161(7) . . .
154(7) . . .
135(6) . . .
142(6) . . .
137(6) . . .
151(7) . . .
157(7) . . .
156(6) . . .
147(6) . . .
147(7) . . .
151(7) . . .
148(7) . . .
136(6) . . .
152(7) . . .
130(6) . . .
145(7) . . .
141(6) . . .
129(6) . . .
156(7) . . .
148(6) . . .
163(7) . . .
160(7) . . .
146(6) . . .
139(6) . . .
166(7) . . .
159(7) . . .
129(6) . . .
148(6) . . .
139(6) . . .
147(7) . . .
153(7) . . .
156(7) . . .
140(6) . . .
151(6) . . .
141(6) . . .
153(7) . . .
158(7) . . .
154(6) . . .
151(7) . . .
159(7) . . .
143(6) . . .
150(7) . . .
134(6) . . .
161(7) . . .
151(7) . . .
160(7) . . .
149(6) . . .
135(6) . . .
136(6) . . .
150(7) . . .
150(6) . . .
145(6) . . .
156(6) . . .
159(7) . . .
140(6) . . .
151(7) . . .
132(6) . . .
150(6) . . .
138(6) . . .
156(7) . . .
161(7) . . .
156(7) . . .
140(6) . . .
141(6) . . .
151(7) . . .
139(6) . . .
149(6) . . .
149(6) . . .
149(7) . . .
150(7) . . .
155(7) . . .
145(6) . . .
134(6) . . .
143(7) . . .
138(6) . . .
140(6) . . .
141(6) . . .
125(6) . . .
146(7) . . .
161(7) . . .
136(6) . . .
131(6) . . .
130(6) . . .
158(7) . . .
142(7) . . .
127(6) . . .
148(6) . . .
144(6) . . .
149(7) . . .
140(6) . . .
147(6) . . .
132(6) . . .
138(6) . . .
142(7) . . .
132(6) . . .
164(7) . . .
146(6) . . .
138(6) . . .
127(6) . . .
146(6) . . .
150(6) . . .
142(6) . . .
162(7) . . .
167(7) . . .
156(7) . . .
151(6) . . .
141(6) . . .
144(6) . . .
141(7) . . .
134(6) . . .
139(6) . . .
158(7) . . .
142(6) . . .
139(6) . . .
148(7) . . .
142(6) . . .
146(6) . . .
151(7) . . .
146(6) . . .
164(7) . . .
138(6) . . .
145(6) . . .
160(7) . . .
144(7) . . .
136(6) . . .
143(6) . . .
146(7) . . .
152(7) . . .
150(7) . . .
142(6) . . .
143(6) . . .
141(7) . . .
165(7) . . .
172(7) . . .
136(6) . . .
142(6) . . .
142(6) . . .
155(7) . . .
147(7) . . .
157(7) . . .
149(6) . . .
134(6) . . .
128(6) . . .
139(6) . . .
150(6) . . .
143(6) . . .
162(7) . . .
129(6) . . .
127(6) . . .
138(6) . . .
151(6) . . .
136(6) . . .
137(7) . . .
143(6) . . .
146(6) . . .
148(6) . . .
137(6) . . .
138(7) . . .
148(7) . . .
138(6) . . .
136(6) . . .
156(7) . . .
141(7) . . .
134(6) . . .
145(6) . . .
119(6) . . .
138(6) . . .
142(6) . . .
154(7) . . .
153(6) . . .
154(7) . . .
140(6) . . .
114(6) . . .
154(7) . . .
150(6) . . .
135(6) . . .
139(6) . . .
145(6) . . .
155(7) . . .
162(7) . . .
133(6) . . .
146(6) . . .
160(7) . . .
142(6) . . .
134(6) . . .
141(6) . . .
140(6) . . .
144(6) . . .
140(6) . . .
136(6) . . .
149(7) . . .
142(7) . . .
140(6) . . .
169(7) . . .
155(6) . . .
127(6) . . .
125(6) . . .
132(6) . . .
140(6) . . .
144(6) . . .
134(6) . . .
137(7) . . .
143(7) . . .
140(6) . . .
127(6) . . .
143(6) . . .
132(6) . . .
140(6) . . .
139(6) . . .
130(6) . . .
138(7) . . .
129(6) . . .
133(6) . . .
143(6) . . .
142(6) . . .
139(6) . . .
140(6) . . .
135(6) . . .
140(6) . . .
135(6) . . .
150(7) . . .
158(7) . . .
134(6) . . .
141(6) . . .
138(6) . . .
140(6) . . .
130(6) . . .
142(6) . . .
148(6) . . .
134(6) . . .
153(7) . . .
145(6) . . .
138(6) . . .
148(6) . . .
143(6) . . .
147(7) . . .
131(6) . . .
140(6) . . .
128(6) . . .
132(6) . . .
140(7) . . .
144(6) . . .
140(6) . . .
127(6) . . .
134(6) . . .
141(7) . . .
128(6) . . .
138(6) . . .
169(7) . . .
144(7) . . .
143(7) . . .
139(6) . . .
137(6) . . .
137(6) . . .
131(6) . . .
127(6) . . .
138(6) . . .
159(7) . . .
145(6) . . .
136(6) . . .
144(7) . . .
125(6) . . .
146(6) . . .
165(7) . . .
135(6) . . .
138(6) . . .
148(7) . . .
137(6) . . .
147(6) . . .
143(6) . . .
147(7) . . .
131(6) . . .
145(6) . . .
144(6) . . .
131(6) . . .
118(6) . . .
120(6) . . .
142(6) . . .
138(6) . . .
146(7) . . .
147(7) . . .
153(6) . . .
144(6) . . .
137(6) . . .
148(7) . . .
139(6) . . .
142(6) . . .
150(6) . . .
153(7) . . .
144(7) . . .
129(6) . . .
137(6) . . .
132(6) . . .
138(6) . . .
132(6) . . .
137(6) . . .
146(6) . . .
132(6) . . .
149(6) . . .
140(7) . . .
150(7) . . .
127(6) . . .
140(6) . . .
153(7) . . .
142(7) . . .
166(7) . . .
131(6) . . .
144(6) . . .
130(6) . . .
157(7) . . .
137(6) . . .
141(6) . . .
132(6) . . .
142(6) . . .
155(7) . . .
124(6) . . .
153(6) . . .
152(6) . . .
145(6) . . .
157(7) . . .
145(6) . . .
144(6) . . .
139(6) . . .
126(6) . . .
134(6) . . .
136(6) . . .
145(6) . . .
154(7) . . .
138(6) . . .
132(6) . . .
126(6) . . .
146(6) . . .
147(7) . . .
130(6) . . .
131(6) . . .
147(6) . . .
155(6) . . .
139(7) . . .
135(7) . . .
129(6) . . .
132(6) . . .
145(6) . . .
163(7) . . .
137(6) . . .
147(7) . . .
142(6) . . .
140(6) . . .
148(7) . . .
142(7) . . .
140(6) . . .
139(6) . . .
144(6) . . .
141(6) . . .
131(6) . . .
143(6) . . .
132(6) . . .
141(6) . . .
142(6) . . .
132(6) . . .
130(6) . . .
135(6) . . .
146(6) . . .
135(6) . . .
125(6) . . .
127(6) . . .
141(6) . . .
137(6) . . .
151(7) . . .
145(7) . . .
119(6) . . .
147(6) . . .
159(7) . . .
135(6) . . .
134(6) . . .
141(6) . . .
139(6) . . .
136(6) . . .
143(7) . . .
142(6) . . .
142(6) . . .
120(6) . . .
135(6) . . .
128(6) . . .
147(7) . . .
124(6) . . .
132(6) . . .
135(6) . . .
129(6) . . .
145(7) . . .
129(6) . . .
143(6) . . .
124(6) . . .
147(7) . . .
139(6) . . .
149(6) . . .
146(6) . . .
147(7) . . .
152(7) . . .
138(6) . . .
134(6) . . .
144(6) . . .
135(6) . . .
155(7) . . .
129(6) . . .
132(6) . . .
148(6) . . .
131(6) . . .
131(6) . . .
132(6) . . .
155(6) . . .
146(6) . . .
145(6) . . .
130(6) . . .
144(6) . . .
135(6) . . .
151(6) . . .
144(6) . . .
139(6) . . .
146(7) . . .
141(6) . . .
130(6) . . .
129(6) . . .
132(6) . . .
139(6) . . .
153(6) . . .
128(6) . . .
139(6) . . .
133(6) . . .
146(7) . . .
124(6) . . .
113(6) . . .
138(6) . . .
119(6) . . .
131(6) . . .
157(7) . . .
132(6) . . .
141(6) . . .
142(6) . . .
133(6) . . .
129(6) . . .
132(6) . . .
139(6) . . .
144(7) . . .
128(6) . . .
140(6) . . .
147(6) . . .
150(7) . . .
137(6) . . .
149(6) . . .
132(6) . . .
143(6) . . .
126(6) . . .
137(6) . . .
139(6) . . .
131(6) . . .
114(6) . . .
141(7) . . .
150(7) . . .
149(6) . . .
138(6) . . .
132(6) . . .
148(7) . . .
129(6) . . .
127(6) . . .
143(6) . . .
156(7) . . .
129(6) . . .
145(7) . . .
133(6) . . .
137(6) . . .
144(6) . . .
152(7) . . .
126(6) . . .
146(6) . . .
138(6) . . .
145(7) . . .
117(6) . . .
151(7) . . .
157(6) . . .
128(6) . . .
141(7) . . .
153(7) . . .
145(6) . . .
144(6) . . .
128(6) . . .
135(6) . . .
143(6) . . .
131(6) . . .
135(6) . . .
129(6) . . .
134(6) . . .
127(6) . . .
143(6) . . .
152(6) . . .
126(6) . . .
143(7) . . .
139(6) . . .
130(6) . . .
112(6) . . .
144(6) . . .
158(7) . . .
131(6) . . .
139(6) . . .
142(6) . . .
140(6) . . .
151(7) . . .
153(7) . . .
143(6) . . .
144(6) . . .
137(6) . . .
133(6) . . .
122(6) . . .
144(6) . . .
149(6) . . .
145(7) . . .
135(6) . . .
129(6) . . .
129(6) . . .
133(6) . . .
139(6) . . .
151(7) . . .
139(6) . . .
137(6) . . .
135(6) . . .
139(6) . . .
135(6) . . .
146(7) . . .
150(6) . . .
153(7) . . .
147(6) . . .
159(7) . . .
148(6) . . .
131(6) . . .
134(6) . . .
144(7) . . .
133(6) . . .
138(6) . . .
132(6) . . .
133(6) . . .
142(7) . . .
137(6) . . .
109(5) . . .
131(6) . . .
135(6) . . .
128(6) . . .
139(6) . . .
146(6) . . .
123(6) . . .
134(6) . . .
148(7) . . .
130(6) . . .
132(6) . . .
143(6) . . .
133(6) . . .
138(7) . . .
143(6) . . .
141(6) . . .
144(6) . . .
133(6) . . .
149(7) . . .
143(6) . . .
115(6) . . .
126(6) . . .
130(6) . . .
121(6) . . .
131(6) . . .
136(6) . . .
141(6) . . .
138(6) . . .
147(7) . . .
143(6) . . .
154(6) . . .
128(6) . . .
130(6) . . .
123(6) . . .
130(6) . . .
146(6) . . .
147(6) . . .
144(7) . . .
127(6) . . .
157(7) . . .
130(6) . . .
130(6) . . .
121(6) . . .
121(6) . . .
130(6) . . .
124(6) . . .
128(6) . . .
126(6) . . .
122(6) . . .
121(6) . . .
154(6) . . .
130(6) . . .
138(6) . . .
138(6) . . .
147(6) . . .
142(6) . . .
126(6) . . .
124(6) . . .
126(6) . . .
135(6) . . .
138(6) . . .
131(6) . . .
141(7) . . .
136(6) . . .
157(7) . . .
130(6) . . .
129(6) . . .
131(7) . . .
134(6) . . .
139(6) . . .
126(6) . . .
131(6) . . .
152(7) . . .
135(6) . . .
133(6) . . .
132(6) . . .
121(6) . . .
141(6) . . .
139(6) . . .
129(6) . . .
136(6) . . .
124(6) . . .
135(7) . . .
141(6) . . .
140(6) . . .
142(6) . . .
121(6) . . .
150(7) . . .
147(7) . . .
131(6) . . .
137(6) . . .
121(6) . . .
126(6) . . .
126(6) . . .
132(6) . . .
129(6) . . .
137(6) . . .
149(7) . . .
140(6) . . .
137(6) . . .
122(6) . . .
121(6) . . .
136(6) . . .
132(6) . . .
125(6) . . .
138(6) . . .
133(6) . . .
127(6) . . .
123(6) . . .
123(6) . . .
146(6) . . .
147(7) . . .
137(6) . . .
144(6) . . .
128(6) . . .
143(6) . . .
151(7) . . .
133(6) . . .
124(6) . . .
136(6) . . .
143(6) . . .
131(6) . . .
118(6) . . .
112(6) . . .
150(6) . . .
129(6) . . .
157(7) . . .
144(6) . . .
139(6) . . .
153(6) . . .
143(6) . . .
127(6) . . .
121(6) . . .
131(6) . . .
130(6) . . .
137(6) . . .
133(6) . . .
142(6) . . .
125(6) . . .
130(6) . . .
142(6) . . .
129(6) . . .
147(6) . . .
128(6) . . .
125(6) . . .
144(7) . . .
135(6) . . .
140(6) . . .
133(6) . . .
141(7) . . .
128(6) . . .
118(6) . . .
132(6) . . .
137(6) . . .
137(6) . . .
135(6) . . .
129(6) . . .
142(6) . . .
130(6) . . .
128(6) . . .
126(6) . . .
120(6) . . .
128(6) . . .
135(6) . . .
135(6) . . .
128(6) . . .
138(6) . . .
146(6) . . .
148(6) . . .
131(6) . . .
136(6) . . .
129(6) . . .
132(6) . . .
133(6) . . .
128(6) . . .
134(6) . . .
141(7) . . .
145(6) . . .
129(6) . . .
136(6) . . .
139(6) . . .
139(6) . . .
129(6) . . .
120(6) . . .
140(6) . . .
151(7) . . .
133(6) . . .
130(6) . . .
131(6) . . .
149(7) . . .
117(6) . . .
140(6) . . .
135(6) . . .
145(7) . . .
133(6) . . .
137(6) . . .
141(6) . . .
133(6) . . .
144(6) . . .
132(6) . . .
126(6) . . .
139(6) . . .
126(6) . . .
147(6) . . .
143(7) . . .
115(6) . . .
129(6) . . .
142(6) . . .
129(6) . . .
134(7) . . .
142(6) . . .
130(6) . . .
133(6) . . .
132(6) . . .
128(6) . . .
116(6) . . .
129(6) . . .
144(6) . . .
124(6) . . .
129(6) . . .
138(6) . . .
127(6) . . .
141(6) . . .
123(6) . . .
124(6) . . .
136(6) . . .
134(6) . . .
118(6) . . .
129(6) . . .
128(6) . . .
128(6) . . .
135(6) . . .
140(6) . . .
143(6) . . .
127(6) . . .
143(7) . . .
133(6) . . .
137(6) . . .
145(6) . . .
127(6) . . .
121(6) . . .
133(6) . . .
132(6) . . .
113(6) . . .
135(6) . . .
141(6) . . .
124(6) . . .
121(6) . . .
129(6) . . .
138(6) . . .
128(6) . . .
136(6) . . .
135(6) . . .
135(6) . . .
141(6) . . .
150(6) . . .
145(6) . . .
133(6) . . .
125(6) . . .
141(6) . . .
133(6) . . .
130(6) . . .
139(6) . . .
131(6) . . .
135(6) . . .
121(6) . . .
130(6) . . .
152(7) . . .
135(6) . . .
138(6) . . .
134(6) . . .
139(6) . . .
141(7) . . .
137(7) . . .
138(6) . . .
133(6) . . .
133(6) . . .
149(7) . . .
135(7) . . .
139(6) . . .
138(6) . . .
132(6) . . .
128(6) . . .
120(6) . . .
129(6) . . .
128(6) . . .
127(6) . . .
135(6) . . .
128(6) . . .
121(6) . . .
133(6) . . .
132(6) . . .
151(7) . . .
132(6) . . .
140(6) . . .
128(6) . . .
140(7) . . .
142(6) . . .
138(6) . . .
153(6) . . .
147(6) . . .
145(6) . . .
125(6) . . .
122(6) . . .
120(6) . . .
111(6) . . .
142(6) . . .
123(6) . . .
140(6) . . .
150(6) . . .
134(6) . . .
128(6) . . .
125(6) . . .
139(6) . . .
128(6) . . .
141(6) . . .
136(7) . . .
138(7) . . .
134(6) . . .
134(6) . . .
138(6) . . .
144(6) . . .
141(6) . . .
137(6) . . .
146(6) . . .
128(6) . . .
108(6) . . .
133(6) . . .
140(6) . . .
137(6) . . .
142(6) . . .
137(6) . . .
142(7) . . .
117(6) . . .
140(6) . . .
132(6) . . .
145(7) . . .
158(7) . . .
138(6) . . .
133(6) . . .
127(6) . . .
131(6) . . .
146(7) . . .
125(6) . . .
114(5) . . .
130(6) . . .
132(6) . . .
124(6) . . .
131(6) . . .
149(6) . . .
131(6) . . .
135(6) . . .
153(7) . . .
136(6) . . .
124(6) . . .
135(6) . . .
134(7) . . .
122(6) . . .
136(6) . . .
127(6) . . .
125(6) . . .
132(7) . . .
123(6) . . .
130(6) . . .
140(6) . . .
133(6) . . .
122(6) . . .
111(6) . . .
139(6) . . .
135(6) . . .
133(6) . . .
131(6) . . .
139(6) . . .
126(6) . . .
126(6) . . .
121(6) . . .
126(6) . . .
143(6) . . .
142(6) . . .
129(6) . . .
129(6) . . .
129(6) . . .
139(6) . . .
145(6) . . .
132(6) . . .
126(6) . . .
129(6) . . .
138(6) . . .
133(6) . . .
110(6) . . .
130(6) . . .
131(6) . . .
134(6) . . .
135(6) . . .
137(6) . . .
130(6) . . .
153(7) . . .
153(6) . . .
124(6) . . .
140(6) . . .
128(6) . . .
120(6) . . .
132(6) . . .
130(6) . . .
107(6) . . .
124(6) . . .
140(6) . . .
128(6) . . .
140(6) . . .
128(6) . . .
135(6) . . .
131(6) . . .
119(6) . . .
144(6) . . .
147(7) . . .
140(6) . . .
134(6) . . .
126(6) . . .
146(6) . . .
135(6) . . .
124(6) . . .
149(7) . . .
128(6) . . .
129(6) . . .
133(6) . . .
142(7) . . .
125(6) . . .
114(6) . . .
124(6) . . .
114(6) . . .
138(7) . . .
146(7) . . .
130(6) . . .
113(6) . . .
133(6) . . .
134(6) . . .
123(6) . . .
126(6) . . .
133(6) . . .
127(6) . . .
131(6) . . .
122(6) . . .
137(6) . . .
132(6) . . .
117(6) . . .
132(6) . . .
142(6) . . .
136(6) . . .
140(6) . . .
135(6) . . .
130(6) . . .
137(6) . . .
139(6) . . .
150(7) . . .
143(7) . . .
127(6) . . .
137(6) . . .
126(6) . . .
130(6) . . .
128(6) . . .
142(6) . . .
145(6) . . .
129(6) . . .
120(6) . . .
139(7) . . .
145(6) . . .
124(6) . . .
115(6) . . .
112(6) . . .
117(6) . . .
142(6) . . .
148(6) . . .
137(6) . . .
119(6) . . .
142(7) . . .
127(6) . . .
110(5) . . .
111(6) . . .
124(6) . . .
131(6) . . .
129(6) . . .
114(6) . . .
148(6) . . .
121(6) . . .
130(6) . . .
134(6) . . .
129(6) . . .
138(6) . . .
113(6) . . .
122(6) . . .
127(6) . . .
133(6) . . .
132(6) . . .
137(7) . . .
123(6) . . .
125(6) . . .
130(6) . . .
126(6) . . .
123(6) . . .
125(6) . . .
129(6) . . .
131(6) . . .
131(6) . . .
127(6) . . .
127(6) . . .
125(6) . . .
123(6) . . .
128(6) . . .
124(6) . . .
129(6) . . .
138(6) . . .
144(6) . . .
132(6) . . .
124(6) . . .
129(6) . . .
129(6) . . .
148(6) . . .
131(6) . . .
125(6) . . .
123(6) . . .
135(6) . . .
132(6) . . .
126(6) . . .
131(6) . . .
140(6) . . .
133(6) . . .
146(6) . . .
126(6) . . .
125(6) . . .
137(6) . . .
118(6) . . .
130(6) . . .
133(6) . . .
122(6) . . .
135(6) . . .
140(6) . . .
134(6) . . .
116(6) . . .
138(7) . . .
142(6) . . .
135(6) . . .
143(7) . . .
147(7) . . .
130(6) . . .
132(6) . . .
120(6) . . .
152(7) . . .
132(6) . . .
134(6) . . .
124(6) . . .
135(6) . . .
127(6) . . .
140(7) . . .
125(6) . . .
119(6) . . .
139(6) . . .
146(6) . . .
135(6) . . .
128(6) . . .
133(6) . . .
138(6) . . .
122(6) . . .
122(6) . . .
121(6) . . .
131(6) . . .
125(6) . . .
131(6) . . .
121(6) . . .
128(6) . . .
137(6) . . .
116(6) . . .
126(6) . . .
139(7) . . .
139(7) . . .
131(6) . . .
152(6) . . .
133(6) . . .
135(6) . . .
127(6) . . .
128(6) . . .
121(6) . . .
130(6) . . .
134(6) . . .
136(6) . . .
117(6) . . .
136(6) . . .
135(6) . . .
120(6) . . .
117(6) . . .
123(6) . . .
126(6) . . .
131(6) . . .
114(6) . . .
117(6) . . .
127(6) . . .
123(6) . . .
131(6) . . .
131(6) . . .
127(6) . . .
118(6) . . .
112(6) . . .
130(6) . . .
132(6) . . .
124(6) . . .
114(6) . . .
127(6) . . .
120(6) . . .
127(6) . . .
123(6) . . .
107(5) . . .
140(6) . . .
121(6) . . .
123(6) . . .
127(6) . . .
129(6) . . .
121(6) . . .
121(6) . . .
136(6) . . .
116(6) . . .
134(6) . . .
125(6) . . .
125(6) . . .
123(6) . . .
138(6) . . .
150(6) . . .
136(6) . . .
137(7) . . .
112(6) . . .
107(5) . . .
130(6) . . .
132(6) . . .
146(7) . . .
137(6) . . .
135(6) . . .
145(6) . . .
135(6) . . .
129(6) . . .
122(6) . . .
125(6) . . .
122(6) . . .
128(6) . . .
136(6) . . .
133(6) . . .
125(6) . . .
129(6) . . .
126(6) . . .
125(6) . . .
138(6) . . .
130(6) . . .
119(6) . . .
119(6) . . .
109(5) . . .
133(6) . . .
124(6) . . .
128(6) . . .
118(6) . . .
124(6) . . .
128(6) . . .
122(6) . . .
122(6) . . .
128(6) . . .
131(6) . . .
144(6) . . .
131(6) . . .
114(6) . . .
137(7) . . .
136(6) . . .
126(6) . . .
127(6) . . .
125(6) . . .
119(6) . . .
137(6) . . .
137(6) . . .
127(6) . . .
121(6) . . .
137(7) . . .
141(6) . . .
136(6) . . .
133(6) . . .
135(6) . . .
127(6) . . .
115(6) . . .
113(6) . . .
132(6) . . .
128(6) . . .
120(6) . . .
115(6) . . .
135(6) . . .
115(6) . . .
124(6) . . .
111(5) . . .
122(6) . . .
116(6) . . .
114(6) . . .
109(6) . . .
111(6) . . .
121(6) . . .
136(6) . . .
137(6) . . .
132(6) . . .
123(6) . . .
120(6) . . .
120(6) . . .
132(6) . . .
134(6) . . .
143(6) . . .
136(6) . . .
122(6) . . .
131(6) . . .
125(6) . . .
134(6) . . .
124(6) . . .
130(6) . . .
130(6) . . .
129(6) . . .
129(6) . . .
138(6) . . .
128(6) . . .
118(6) . . .
102(6) . . .
120(6) . . .
134(6) . . .
135(6) . . .
131(6) . . .
128(6) . . .
122(6) . . .
115(6) . . .
130(6) . . .
135(6) . . .
140(6) . . .
122(6) . . .
131(6) . . .
127(6) . . .
139(6) . . .
129(6) . . .
128(6) . . .
132(6) . . .
131(6) . . .
115(6) . . .
122(6) . . .
128(6) . . .
120(6) . . .
118(6) . . .
129(6) . . .
108(5) . . .
122(6) . . .
120(6) . . .
117(6) . . .
116(6) . . .
144(7) . . .
124(6) . . .
124(6) . . .
124(6) . . .
133(7) . . .
122(6) . . .
125(6) . . .
139(6) . . .
130(6) . . .
142(7) . . .
125(6) . . .
115(6) . . .
119(6) . . .
124(6) . . .
133(6) . . .
124(6) . . .
112(6) . . .
123(6) . . .
141(6) . . .
134(6) . . .
137(6) . . .
124(6) . . .
137(6) . . .
146(7) . . .
124(6) . . .
126(6) . . .
131(6) . . .
136(6) . . .
135(6) . . .
134(7) . . .
126(6) . . .
125(6) . . .
134(6) . . .
126(6) . . .
127(6) . . .
131(6) . . .
134(6) . . .
124(6) . . .
136(6) . . .
131(6) . . .
130(6) . . .
122(6) . . .
122(6) . . .
132(6) . . .
124(6) . . .
118(6) . . .
130(6) . . .
132(6) . . .
117(6) . . .
132(6) . . .
124(6) . . .
116(6) . . .
127(6) . . .
147(7) . . .
139(6) . . .
128(6) . . .
131(6) . . .
123(6) . . .
137(7) . . .
144(6) . . .
137(6) . . .
139(6) . . .
136(6) . . .
127(6) . . .
145(6) . . .
136(6) . . .
133(6) . . .
136(6) . . .
115(6) . . .
124(6) . . .
122(6) . . .
118(6) . . .
125(6) . . .
124(6) . . .
118(6) . . .
123(6) . . .
131(6) . . .
123(6) . . .
138(7) . . .
147(7) . . .
125(6) . . .
116(6) . . .
128(6) . . .
119(6) . . .
127(6) . . .
123(6) . . .
121(6) . . .
131(6) . . .
131(6) . . .
130(6) . . .
121(6) . . .
125(6) . . .
135(6) . . .
137(6) . . .
151(6) . . .
138(6) . . .
129(6) . . .
125(6) . . .
117(6) . . .
121(6) . . .
125(6) . . .
135(6) . . .
126(6) . . .
113(6) . . .
124(6) . . .
134(6) . . .
135(6) . . .
135(6) . . .
128(6) . . .
123(6) . . .
138(6) . . .
134(6) . . .
116(6) . . .
141(6) . . .
133(6) . . .
147(6) . . .
129(6) . . .
124(6) . . .
126(6) . . .
131(6) . . .
131(6) . . .
138(6) . . .
129(6) . . .
133(6) . . .
126(6) . . .
132(6) . . .
133(6) . . .
131(6) . . .
124(6) . . .
122(6) . . .
119(6) . . .
121(6) . . .
123(6) . . .
141(7) . . .
140(6) . . .
118(6) . . .
137(7) . . .
124(6) . . .
122(6) . . .
124(6) . . .
118(6) . . .
131(6) . . .
131(6) . . .
125(6) . . .
136(6) . . .
133(6) . . .
135(6) . . .
139(6) . . .
133(6) . . .
141(6) . . .
119(6) . . .
141(6) . . .
140(6) . . .
132(6) . . .
120(6) . . .
119(6) . . .
117(6) . . .
123(6) . . .
135(6) . . .
115(6) . . .
136(6) . . .
136(6) . . .
136(6) . . .
155(7) . . .
130(6) . . .
129(6) . . .
130(6) . . .
134(6) . . .
141(6) . . .
130(6) . . .
128(6) . . .
121(6) . . .
123(6) . . .
121(6) . . .
120(6) . . .
120(6) . . .
137(6) . . .
127(6) . . .
130(6) . . .
133(6) . . .
136(6) . . .
118(6) . . .
138(6) . . .
127(6) . . .
126(6) . . .
140(6) . . .
134(6) . . .
129(6) . . .
135(6) . . .
116(6) . . .
125(6) . . .
136(6) . . .
133(6) . . .
136(6) . . .
127(6) . . .
127(6) . . .
126(6) . . .
114(6) . . .
121(6) . . .
135(6) . . .
132(6) . . .
127(6) . . .
147(6) . . .
144(6) . . .
135(6) . . .
137(6) . . .
130(6) . . .
127(6) . . .
128(6) . . .
131(7) . . .
130(6) . . .
119(6) . . .
122(6) . . .
125(6) . . .
137(6) . . .
126(6) . . .
117(6) . . .
121(6) . . .
134(6) . . .
117(6) . . .
134(6) . . .
138(6) . . .
142(6) . . .
128(6) . . .
132(6) . . .
133(6) . . .
120(6) . . .
127(6) . . .
115(6) . . .
126(6) . . .
142(7) . . .
136(6) . . .
130(6) . . .
140(6) . . .
134(6) . . .
121(6) . . .
138(6) . . .
135(6) . . .
124(6) . . .
124(6) . . .
126(6) . . .
114(6) . . .
134(6) . . .
130(6) . . .
120(6) . . .
126(6) . . .
117(6) . . .
125(6) . . .
140(6) . . .
115(6) . . .
118(6) . . .
143(6) . . .
136(6) . . .
131(6) . . .
131(6) . . .
133(6) . . .
127(6) . . .
115(6) . . .
136(6) . . .
151(7) . . .
138(6) . . .
143(6) . . .
126(6) . . .
138(6) . . .
149(7) . . .
142(6) . . .
163(7) . . .
128(6) . . .
136(6) . . .
119(6) . . .
127(6) . . .
132(6) . . .
153(7) . . .
129(6) . . .
118(6) . . .
123(6) . . .
132(6) . . .
150(6) . . .
146(7) . . .
128(6) . . .
132(6) . . .
139(6) . . .
135(6) . . .
146(6) . . .
136(6) . . .
119(6) . . .
127(6) . . .
141(6) . . .
132(6) . . .
144(7) . . .
120(6) . . .
150(6) . . .
131(6) . . .
141(6) . . .
129(6) . . .
142(6) . . .
130(6) . . .
163(7) . . .
142(6) . . .
131(6) . . .
129(6) . . .
137(6) . . .
143(6) . . .
151(7) . . .
145(7) . . .
140(6) . . .
126(6) . . .
143(7) . . .
149(7) . . .
153(7) . . .
140(6) . . .
125(6) . . .
137(6) . . .
132(6) . . .
134(6) . . .
127(6) . . .
122(6) . . .
132(6) . . .
143(7) . . .
141(6) . . .
150(6) . . .
131(6) . . .
134(6) . . .
134(6) . . .
132(6) . . .
137(6) . . .
127(6) . . .
119(6) . . .
130(6) . . .
116(6) . . .
126(6) . . .
138(6) . . .
134(6) . . .
129(6) . . .
133(6) . . .
117(6) . . .
143(6) . . .
136(6) . . .
125(6) . . .
135(6) . . .
140(6) . . .
131(6) . . .
117(6) . . .
132(6) . . .
123(6) . . .
148(6) . . .
130(6) . . .
122(6) . . .
132(6) . . .
133(6) . . .
117(6) . . .
140(7) . . .
124(6) . . .
115(6) . . .
123(6) . . .
142(6) . . .
131(6) . . .
135(6) . . .
126(6) . . .
130(6) . . .
138(6) . . .
132(6) . . .
128(6) . . .
105(5) . . .
138(6) . . .
122(6) . . .
120(6) . . .
135(6) . . .
128(6) . . .
133(6) . . .
137(6) . . .
121(6) . . .
124(6) . . .
131(6) . . .
147(6) . . .
120(6) . . .
150(7) . . .
125(6) . . .
123(6) . . .
130(6) . . .
133(6) . . .
146(6) . . .
137(6) . . .
129(6) . . .
133(6) . . .
131(6) . . .
121(6) . . .
128(6) . . .
117(6) . . .
138(6) . . .
137(6) . . .
151(7) . . .
146(7) . . .
127(6) . . .
129(6) . . .
116(6) . . .
136(6) . . .
135(6) . . .
127(6) . . .
123(6) . . .
127(6) . . .
138(6) . . .
146(6) . . .
151(6) . . .
131(6) . . .
134(6) . . .
140(6) . . .
133(6) . . .
131(6) . . .
123(6) . . .
138(6) . . .
134(6) . . .
127(6) . . .
125(6) . . .
122(6) . . .
134(6) . . .
129(6) . . .
112(6) . . .
114(6) . . .
131(6) . . .
139(6) . . .
139(7) . . .
131(6) . . .
128(6) . . .
140(6) . . .
131(6) . . .
129(6) . . .
130(6) . . .
138(6) . . .
134(6) . . .
127(6) . . .
115(6) . . .
108(6) . . .
140(6) . . .
126(6) . . .
122(6) . . .
118(6) . . .
137(6) . . .
141(6) . . .
127(6) . . .
145(7) . . .
135(6) . . .
128(6) . . .
106(5) . . .
116(6) . . .
117(6) . . .
123(6) . . .
128(6) . . .
123(6) . . .
132(6) . . .
147(6) . . .
119(6) . . .
130(6) . . .
123(6) . . .
136(6) . . .
128(6) . . .
132(6) . . .
118(6) . . .
119(6) . . .
126(6) . . .
139(7) . . .
124(6) . . .
124(6) . . .
142(6) . . .
127(6) . . .
128(6) . . .
134(6) . . .
112(6) . . .
121(6) . . .
123(6) . . .
113(6) . . .
98(5) . . .
127(6) . . .
112(6) . . .
111(6) . . .
118(6) . . .
128(6) . . .
122(6) . . .
135(6) . . .
125(6) . . .
134(6) . . .
125(6) . . .
126(6) . . .
138(6) . . .
127(6) . . .
125(6) . . .
128(6) . . .
115(6) . . .
116(6) . . .
113(6) . . .
134(6) . . .
126(6) . . .
131(6) . . .
141(6) . . .
125(6) . . .
125(6) . . .
125(6) . . .
125(6) . . .
122(6) . . .
129(6) . . .
138(6) . . .
133(6) . . .
145(6) . . .
139(6) . . .
129(6) . . .
110(6) . . .
116(6) . . .
136(6) . . .
122(6) . . .
114(6) . . .
130(6) . . .
127(6) . . .
116(6) . . .
120(6) . . .
124(6) . . .
129(6) . . .
115(6) . . .
115(6) . . .
142(6) . . .
130(6) . . .
120(6) . . .
129(6) . . .
122(6) . . .
121(6) . . .
142(7) . . .
128(6) . . .
120(6) . . .
102(5) . . .
139(7) . . .
137(6) . . .
117(6) . . .
116(6) . . .
131(6) . . .
128(6) . . .
125(6) . . .
112(6) . . .
116(6) . . .
133(6) . . .
135(6) . . .
126(6) . . .
123(6) . . .
123(6) . . .
129(6) . . .
118(6) . . .
124(6) . . .
126(6) . . .
119(6) . . .
119(6) . . .
126(6) . . .
132(6) . . .
153(7) . . .
124(6) . . .
140(6) . . .
142(7) . . .
152(7) . . .
139(6) . . .
133(6) . . .
125(6) . . .
127(6) . . .
119(6) . . .
154(6) . . .
137(6) . . .
126(6) . . .
137(6) . . .
133(6) . . .
130(6) . . .
124(6) . . .
121(6) . . .
152(7) . . .
140(6) . . .
135(6) . . .
135(6) . . .
131(6) . . .
136(7) . . .
129(6) . . .
125(6) . . .
137(6) . . .
137(6) . . .
129(6) . . .
123(6) . . .
129(6) . . .
132(6) . . .
131(6) . . .
126(6) . . .
132(6) . . .
133(6) . . .
146(6) . . .
129(6) . . .
105(6) . . .
122(6) . . .
119(6) . . .
117(6) . . .
121(6) . . .
127(6) . . .
115(6) . . .
121(6) . . .
128(6) . . .
136(7) . . .
129(6) . . .
121(6) . . .
126(6) . . .
125(6) . . .
115(6) . . .
112(6) . . .
138(6) . . .
141(6) . . .
123(6) . . .
130(6) . . .
130(6) . . .
140(6) . . .
130(6) . . .
134(6) . . .
121(6) . . .
153(7) . . .
140(6) . . .
145(6) . . .
123(6) . . .
131(6) . . .
133(6) . . .
121(6) . . .
126(6) . . .
120(6) . . .
120(6) . . .
121(6) . . .
124(6) . . .
134(6) . . .
129(6) . . .
129(6) . . .
139(6) . . .
128(6) . . .
137(6) . . .
123(6) . . .
131(6) . . .
128(6) . . .
139(6) . . .
117(6) . . .
123(6) . . .
131(6) . . .
136(6) . . .
143(6) . . .
125(6) . . .
109(6) . . .
135(6) . . .
122(6) . . .
114(6) . . .
114(6) . . .
135(6) . . .
136(6) . . .
128(6) . . .
134(6) . . .
140(6) . . .
132(6) . . .
126(6) . . .
118(6) . . .
137(6) . . .
138(6) . . .
120(6) . . .
125(6) . . .
128(6) . . .
123(6) . . .
144(7) . . .
140(7) . . .
126(6) . . .
120(6) . . .
132(6) . . .
138(6) . . .
144(7) . . .
133(6) . . .
126(6) . . .
142(6) . . .
136(6) . . .
131(6) . . .
150(7) . . .
128(6) . . .
122(6) . . .
136(6) . . .
140(6) . . .
126(6) . . .
117(6) . . .
116(6) . . .
129(6) . . .
117(6) . . .
113(6) . . .
115(6) . . .
113(6) . . .
110(5) . . .
121(6) . . .
116(6) . . .
115(6) . . .
112(6) . . .
109(5) . . .
118(6) . . .
125(6) . . .
114(6) . . .
125(6) . . .
126(6) . . .
121(6) . . .
110(6) . . .
113(6) . . .
137(6) . . .
131(6) . . .
114(6) . . .
132(6) . . .
130(6) . . .
125(6) . . .
117(6) . . .
135(6) . . .
108(6) . . .
112(6) . . .
113(6) . . .
115(6) . . .
137(6) . . .
121(6) . . .
120(6) . . .
123(6) . . .
124(6) . . .
127(6) . . .
127(6) . . .
132(6) . . .
120(6) . . .
109(5) . . .
116(6) . . .
124(6) . . .
128(6) . . .
112(6) . . .
118(6) . . .
113(6) . . .
104(6) . . .
128(6) . . .
113(6) . . .
113(6) . . .
113(6) . . .
137(7) . . .
126(6) . . .
140(6) . . .
111(6) . . .
117(6) . . .
118(6) . . .
109(5) . . .
111(5) . . .
131(6) . . .
123(6) . . .
119(6) . . .
118(6) . . .
120(6) . . .
100(5) . . .
131(6) . . .
123(6) . . .
108(6) . . .
117(6) . . .
114(6) . . .
127(6) . . .
121(6) . . .
118(6) . . .
114(6) . . .
123(6) . . .
115(6) . . .
121(6) . . .
116(6) . . .
120(6) . . .
113(6) . . .
117(6) . . .
102(5) . . .
123(6) . . .
128(6) . . .
110(5) . . .
119(6) . . .
128(6) . . .
125(6) . . .
120(6) . . .
119(6) . . .
126(6) . . .
117(6) . . .
108(5) . . .
104(5) . . .
126(6) . . .
117(6) . . .
123(6) . . .
123(6) . . .
125(6) . . .
129(6) . . .
94(5) . . .
120(6) . . .
122(6) . . .
125(6) . . .
116(6) . . .
122(6) . . .
128(6) . . .
127(6) . . .
120(6) . . .
108(6) . . .
115(6) . . .
129(6) . . .
127(6) . . .
116(6) . . .
121(6) . . .
122(6) . . .
112(5) . . .
122(6) . . .
127(6) . . .
120(6) . . .
119(6) . . .
120(6) . . .
138(6) . . .
124(6) . . .
121(6) . . .
135(6) . . .
140(6) . . .
128(6) . . .
117(6) . . .
121(6) . . .
111(6) . . .
124(6) . . .
124(6) . . .
121(6) . . .
127(6) . . .
132(6) . . .
126(6) . . .
118(6) . . .
111(5) . . .
122(6) . . .
126(6) . . .
112(6) . . .
120(6) . . .
113(6) . . .
121(6) . . .
107(6) . . .
116(6) . . .
106(5) . . .
115(6) . . .
136(7) . . .
117(6) . . .
109(5) . . .
116(6) . . .
139(6) . . .
132(6) . . .
143(7) . . .
131(6) . . .
127(6) . . .
121(6) . . .
131(6) . . .
123(6) . . .
116(6) . . .
120(6) . . .
124(6) . . .
126(6) . . .
124(6) . . .
110(5) . . .
129(6) . . .
117(6) . . .
129(6) . . .
128(6) . . .
105(5) . . .
103(6) . . .
107(6) . . .
115(6) . . .
133(6) . . .
113(6) . . .
125(6) . . .
125(6) . . .
122(6) . . .
121(6) . . .
119(6) . . .
111(5) . . .
130(6) . . .
120(6) . . .
133(6) . . .
116(6) . . .
134(6) . . .
134(6) . . .
127(6) . . .
115(6) . . .
120(6) . . .
120(6) . . .
110(6) . . .
105(6) . . .
120(6) . . .
122(6) . . .
125(6) . . .
121(6) . . .
118(6) . . .
130(6) . . .
129(6) . . .
127(6) . . .
118(6) . . .
126(6) . . .
116(6) . . .
130(6) . . .
132(6) . . .
122(6) . . .
115(6) . . .
103(5) . . .
109(6) . . .
109(5) . . .
109(6) . . .
114(6) . . .
121(6) . . .
122(6) . . .
128(6) . . .
111(6) . . .
105(5) . . .
127(6) . . .
117(6) . . .
118(6) . . .
116(6) . . .
117(6) . . .
129(6) . . .
122(6) . . .
127(6) . . .
129(6) . . .
111(5) . . .
118(6) . . .
132(6) . . .
121(6) . . .
127(6) . . .
123(6) . . .
121(6) . . .
121(6) . . .
114(6) . . .
139(6) . . .
131(6) . . .
122(6) . . .
120(6) . . .
114(6) . . .
116(6) . . .
120(6) . . .
115(6) . . .
133(6) . . .
115(6) . . .
118(6) . . .
131(6) . . .
118(6) . . .
117(6) . . .
132(6) . . .
120(6) . . .
120(6) . . .
134(6) . . .
129(6) . . .
116(6) . . .
120(6) . . .
117(6) . . .
111(6) . . .
125(6) . . .
125(6) . . .
136(6) . . .
127(6) . . .
131(6) . . .
111(5) . . .
118(6) . . .
107(6) . . .
121(6) . . .
117(6) . . .
127(6) . . .
118(6) . . .
124(6) . . .
119(6) . . .
136(6) . . .
113(6) . . .
117(6) . . .
118(6) . . .
118(6) . . .
125(6) . . .
118(6) . . .
124(6) . . .
118(6) . . .
119(6) . . .
133(6) . . .
134(6) . . .
124(6) . . .
114(5) . . .
143(6) . . .
125(6) . . .
138(6) . . .
120(6) . . .
113(6) . . .
128(6) . . .
128(6) . . .
123(6) . . .
126(6) . . .
118(6) . . .
113(5) . . .
136(6) . . .
126(6) . . .
120(6) . . .
126(6) . . .
124(6) . . .
118(6) . . .
119(6) . . .
114(6) . . .
133(6) . . .
142(6) . . .
117(6) . . .
137(7) . . .
112(6) . . .
117(6) . . .
115(6) . . .
104(5) . . .
118(6) . . .
131(6) . . .
111(6) . . .
117(6) . . .
108(6) . . .
115(6) . . .
122(6) . . .
118(6) . . .
120(6) . . .
102(6) . . .
116(6) . . .
107(5) . . .
126(6) . . .
130(6) . . .
125(6) . . .
106(5) . . .
133(6) . . .
136(6) . . .
134(6) . . .
115(6) . . .
129(6) . . .
127(6) . . .
128(6) . . .
127(6) . . .
114(6) . . .
131(6) . . .
127(6) . . .
121(6) . . .
124(6) . . .
128(6) . . .
118(6) . . .
116(6) . . .
114(6) . . .
124(6) . . .
118(6) . . .
118(6) . . .
124(6) . . .
109(6) . . .
114(6) . . .
126(6) . . .
120(6) . . .
114(6) . . .
117(6) . . .
128(6) . . .
121(6) . . .
137(7) . . .
105(5) . . .
127(6) . . .
114(6) . . .
123(6) . . .
111(6) . . .
109(5) . . .
107(5) . . .
124(6) . . .
125(6) . . .
118(6) . . .
143(6) . . .
124(6) . . .
121(6) . . .
122(6) . . .
118(6) . . .
117(6) . . .
118(6) . . .
115(6) . . .
123(6) . . .
120(6) . . .
108(5) . . .
127(6) . . .
116(6) . . .
135(6) . . .
127(6) . . .
128(6) . . .
120(6) . . .
118(6) . . .
118(6) . . .
128(6) . . .
115(6) . . .
126(6) . . .
128(6) . . .
129(6) . . .
115(6) . . .
124(6) . . .
129(6) . . .
128(6) . . .
120(6) . . .
127(6) . . .
114(6) . . .
122(6) . . .
104(6) . . .
110(6) . . .
105(5) . . .
119(6) . . .
116(6) . . .
125(6) . . .
129(6) . . .
127(6) . . .
122(6) . . .
129(6) . . .
131(6) . . .
115(6) . . .
118(6) . . .
118(6) . . .
112(6) . . .
105(5) . . .
136(6) . . .
129(6) . . .
109(6) . . .
109(6) . . .
116(6) . . .
120(6) . . .
102(5) . . .
128(6) . . .
130(6) . . .
117(6) . . .
119(6) . . .
112(5) . . .
125(6) . . .
122(6) . . .
130(6) . . .
139(6) . . .
129(6) . . .
110(6) . . .
110(6) . . .
132(6) . . .
129(6) . . .
127(6) . . .
137(6) . . .
134(6) . . .
124(6) . . .
125(6) . . .
132(6) . . .
146(7) . . .
123(6) . . .
118(6) . . .
122(6) . . .
126(6) . . .
111(6) . . .
102(5) . . .
123(6) . . .
118(6) . . .
125(6) . . .
127(6) . . .
109(6) . . .
127(6) . . .
124(6) . . .
127(6) . . .
124(6) . . .
108(6) . . .
119(6) . . .
123(6) . . .
121(6) . . .
109(6) . . .
120(6) . . .
110(6) . . .
130(6) . . .
128(6) . . .
120(6) . . .
126(6) . . .
120(6) . . .
112(5) . . .
124(6) . . .
127(6) . . .
117(6) . . .
106(5) . . .
121(6) . . .
124(6) . . .
120(6) . . .
127(6) . . .
118(6) . . .
116(6) . . .
128(6) . . .
114(6) . . .
120(6) . . .
114(6) . . .
107(5) . . .
122(6) . . .
119(6) . . .
110(6) . . .
120(6) . . .
103(5) . . .
136(6) . . .
127(6) . . .
116(6) . . .
144(6) . . .
120(6) . . .
124(6) . . .
114(6) . . .
124(6) . . .
117(6) . . .
131(6) . . .
132(6) . . .
146(7) . . .
132(6) . . .
107(5) . . .
113(6) . . .
100(5) . . .
120(6) . . .
124(6) . . .
116(6) . . .
119(6) . . .
120(6) . . .
130(6) . . .
137(6) . . .
119(6) . . .
127(6) . . .
119(6) . . .
116(6) . . .
110(6) . . .
122(6) . . .
119(6) . . .
121(6) . . .
112(6) . . .
121(6) . . .
124(6) . . .
129(6) . . .
134(6) . . .
112(6) . . .
119(6) . . .
113(6) . . .
126(6) . . .
127(6) . . .
129(6) . . .
140(6) . . .
122(6) . . .
118(6) . . .
117(6) . . .
128(6) . . .
123(6) . . .
136(6) . . .
115(6) . . .
106(6) . . .
132(6) . . .
131(6) . . .
122(6) . . .
128(6) . . .
115(6) . . .
111(6) . . .
137(6) . . .
129(6) . . .
119(6) . . .
119(6) . . .
119(6) . . .
119(6) . . .
123(6) . . .
130(6) . . .
106(5) . . .
114(6) . . .
137(6) . . .
121(6) . . .
111(6) . . .
111(6) . . .
109(6) . . .
132(6) . . .
121(6) . . .
123(6) . . .
132(6) . . .
128(6) . . .
144(6) . . .
115(6) . . .
128(6) . . .
119(6) . . .
126(6) . . .
136(6) . . .
128(6) . . .
117(6) . . .
117(6) . . .
132(6) . . .
107(5) . . .
117(6) . . .
120(6) . . .
124(6) . . .
120(6) . . .
119(6) . . .
106(6) . . .
101(6) . . .
105(5) . . .
110(5) . . .
113(6) . . .
136(6) . . .
124(6) . . .
124(6) . . .
121(6) . . .
126(6) . . .
126(6) . . .
121(6) . . .
117(6) . . .
134(6) . . .
131(6) . . .
124(6) . . .
129(6) . . .
118(6) . . .
123(6) . . .
124(6) . . .
128(6) . . .
124(6) . . .
114(6) . . .
119(6) . . .
122(6) . . .
128(6) . . .
112(6) . . .
117(6) . . .
122(6) . . .
109(5) . . .
128(6) . . .
122(6) . . .
131(6) . . .
135(6) . . .
126(6) . . .
116(6) . . .
128(6) . . .
127(6) . . .
124(6) . . .
117(6) . . .
116(6) . . .
120(6) . . .
133(6) . . .
125(6) . . .
124(6) . . .
121(6) . . .
116(6) . . .
121(6) . . .
118(6) . . .
129(6) . . .
118(6) . . .
121(6) . . .
117(6) . . .
131(6) . . .
113(6) . . .
110(6) . . .
126(6) . . .
109(5) . . .
116(6) . . .
115(6) . . .
120(6) . . .
125(6) . . .
119(6) . . .
116(6) . . .
126(6) . . .
134(6) . . .
135(6) . . .
135(6) . . .
115(6) . . .
125(6) . . .
123(6) . . .
123(6) . . .
126(6) . . .
143(6) . . .
113(6) . . .
124(6) . . .
123(6) . . .
125(6) . . .
122(6) . . .
114(6) . . .
117(6) . . .
127(6) . . .
114(6) . . .
127(6) . . .
123(6) . . .
109(5) . . .
129(6) . . .
131(6) . . .
129(6) . . .
124(6) . . .
140(6) . . .
120(6) . . .
129(6) . . .
114(6) . . .
124(6) . . .
118(6) . . .
137(6) . . .
133(6) . . .
119(6) . . .
112(6) . . .
122(6) . . .
119(6) . . .
115(6) . . .
135(6) . . .
126(6) . . .
116(6) . . .
124(6) . . .
127(6) . . .
136(6) . . .
139(6) . . .
118(6) . . .
118(6) . . .
119(6) . . .
123(6) . . .
119(6) . . .
121(6) . . .
117(6) . . .
134(6) . . .
132(6) . . .
121(6) . . .
119(6) . . .
121(6) . . .
129(6) . . .
122(6) . . .
136(6) . . .
118(6) . . .
120(6) . . .
130(6) . . .
119(6) . . .
123(6) . . .
131(6) . . .
117(6) . . .
135(6) . . .
121(6) . . .
126(6) . . .
123(6) . . .
116(6) . . .
120(6) . . .
112(6) . . .
125(6) . . .
124(6) . . .
130(6) . . .
124(6) . . .
119(6) . . .
116(6) . . .
122(6) . . .
122(6) . . .
134(6) . . .
137(6) . . .
139(6) . . .
124(6) . . .
116(6) . . .
132(6) . . .
132(7) . . .
116(6) . . .
130(6) . . .
119(6) . . .
127(6) . . .
127(6) . . .
124(6) . . .
118(6) . . .
117(6) . . .
103(5) . . .
126(6) . . .
125(6) . . .
126(6) . . .
119(6) . . .
129(6) . . .
121(6) . . .
142(6) . . .
126(6) . . .
139(6) . . .
135(6) . . .
130(6) . . .
120(6) . . .
119(6) . . .
138(6) . . .
123(6) . . .
137(7) . . .
138(6) . . .
120(6) . . .
131(6) . . .
118(6) . . .
122(6) . . .
125(6) . . .
121(6) . . .
121(6) . . .
108(6) . . .
117(6) . . .
123(6) . . .
111(6) . . .
115(6) . . .
115(6) . . .
122(6) . . .
119(6) . . .
117(6) . . .
113(6) . . .
125(6) . . .
133(6) . . .
112(6) . . .
111(5) . . .
132(6) . . .
125(6) . . .
135(6) . . .
140(6) . . .
115(6) . . .
140(7) . . .
124(6) . . .
133(6) . . .
103(5) . . .
115(6) . . .
127(6) . . .
136(7) . . .
129(6) . . .
122(6) . . .
122(6) . . .
123(6) . . .
131(6) . . .
137(6) . . .
121(6) . . .
118(6) . . .
131(6) . . .
145(7) . . .
119(6) . . .
119(6) . . .
130(6) . . .
126(6) . . .
125(6) . . .
128(6) . . .
134(6) . . .
118(6) . . .
132(6) . . .
143(7) . . .
116(6) . . .
127(6) . . .
133(6) . . .
128(6) . . .
119(6) . . .
131(6) . . .
135(6) . . .
128(6) . . .
126(6) . . .
133(6) . . .
141(6) . . .
145(6) . . .
115(6) . . .
126(6) . . .
120(6) . . .
120(6) . . .
131(6) . . .
128(6) . . .
122(6) . . .
135(6) . . .
125(6) . . .
123(6) . . .
131(6) . . .
132(6) . . .
123(6) . . .
136(6) . . .
138(6) . . .
134(6) . . .
138(7) . . .
121(6) . . .
142(6) . . .
131(6) . . .
131(6) . . .
124(6) . . .
112(6) . . .
103(5) . . .
108(5) . . .
113(6) . . .
134(6) . . .
133(6) . . .
128(6) . . .
129(6) . . .
127(6) . . .
131(6) . . .
125(6) . . .
118(6) . . .
127(6) . . .
127(6) . . .
123(6) . . .
123(6) . . .
134(6) . . .
121(6) . . .
119(6) . . .
133(6) . . .
128(6) . . .
129(6) . . .
129(6) . . .
130(6) . . .
121(6) . . .
135(6) . . .
136(6) . . .
126(6) . . .
137(6) . . .
135(6) . . .
127(6) . . .
131(6) . . .
129(6) . . .
125(6) . . .
125(6) . . .
137(6) . . .
126(6) . . .
119(6) . . .
120(6) . . .
131(6) . . .
125(6) . . .
138(6) . . .
140(6) . . .
115(6) . . .
134(6) . . .
119(6) . . .
112(5) . . .
121(6) . . .
119(6) . . .
122(6) . . .
113(6) . . .
117(6) . . .
118(6) . . .
115(6) . . .
122(6) . . .
130(6) . . .
117(6) . . .
132(6) . . .
117(6) . . .
123(6) . . .
115(6) . . .
121(6) . . .
127(6) . . .
127(6) . . .
128(6) . . .
135(6) . . .
139(6) . . .
120(6) . . .
119(6) . . .
112(5) . . .
118(6) . . .
135(6) . . .
125(6) . . .
131(6) . . .
123(6) . . .
109(5) . . .
127(6) . . .
129(6) . . .
135(6) . . .
130(6) . . .
120(6) . . .
127(6) . . .
122(6) . . .
140(7) . . .
137(6) . . .
108(5) . . .
116(6) . . .
121(6) . . .
125(6) . . .
123(6) . . .
125(6) . . .
129(6) . . .
118(6) . . .
134(6) . . .
128(6) . . .
120(6) . . .
117(6) . . .
123(6) . . .
127(6) . . .
135(6) . . .
117(6) . . .
117(6) . . .
130(6) . . .
127(6) . . .
116(6) . . .
118(6) . . .
112(6) . . .
131(6) . . .
124(6) . . .
113(6) . . .
113(6) . . .
119(6) . . .
117(6) . . .
117(6) . . .
118(6) . . .
120(6) . . .
119(6) . . .
126(6) . . .
131(6) . . .
131(6) . . .
124(6) . . .
131(6) . . .
124(6) . . .
120(6) . . .
119(6) . . .
112(6) . . .
124(6) . . .
122(6) . . .
130(6) . . .
125(6) . . .
119(6) . . .
133(6) . . .
139(7) . . .
124(6) . . .
123(6) . . .
126(6) . . .
126(6) . . .
117(6) . . .
115(6) . . .
107(5) . . .
113(6) . . .
108(6) . . .
121(6) . . .
126(6) . . .
120(6) . . .
131(6) . . .
117(6) . . .
116(6) . . .
121(6) . . .
119(6) . . .
102(5) . . .
125(6) . . .
118(6) . . .
113(6) . . .
115(6) . . .
125(6) . . .
110(5) . . .
116(6) . . .
115(6) . . .
114(6) . . .
117(6) . . .
115(6) . . .
126(6) . . .
110(5) . . .
133(6) . . .
128(6) . . .
141(6) . . .
120(6) . . .
126(6) . . .
111(6) . . .
117(6) . . .
128(6) . . .
128(6) . . .
119(6) . . .
124(6) . . .
123(6) . . .
125(6) . . .
132(6) . . .
128(6) . . .
123(6) . . .
127(6) . . .
124(6) . . .
123(6) . . .
115(6) . . .
127(6) . . .
114(6) . . .
123(6) . . .
123(6) . . .
114(6) . . .
102(6) . . .
121(6) . . .
126(6) . . .
120(6) . . .
114(6) . . .
106(6) . . .
127(6) . . .
133(6) . . .
118(6) . . .
104(5) . . .
133(6) . . .
119(6) . . .
122(6) . . .
129(6) . . .
131(6) . . .
139(6) . . .
119(6) . . .
130(6) . . .
114(6) . . .
123(6) . . .
124(6) . . .
120(6) . . .
122(6) . . .
128(6) . . .
125(6) . . .
120(6) . . .
126(6) . . .
113(6) . . .
130(6) . . .
129(6) . . .
127(6) . . .
130(6) . . .
128(6) . . .
133(6) . . .
126(6) . . .
135(6) . . .
121(6) . . .
131(6) . . .
121(6) . . .
118(6) . . .
116(6) . . .
119(6) . . .
123(6) . . .
134(6) . . .
121(6) . . .
126(6) . . .
130(6) . . .
112(6) . . .
122(6) . . .
122(6) . . .
133(6) . . .
127(6) . . .
129(6) . . .
136(6) . . .
116(6) . . .
122(6) . . .
128(6) . . .
134(6) . . .
115(6) . . .
136(6) . . .
132(7) . . .
115(6) . . .
121(6) . . .
131(6) . . .
122(6) . . .
133(7) . . .
128(6) . . .
127(6) . . .
111(5) . . .
116(6) . . .
128(6) . . .
121(6) . . .
127(6) . . .
145(6) . . .
129(6) . . .
124(6) . . .
123(6) . . .
129(6) . . .
124(6) . . .
122(6) . . .
117(6) . . .
112(6) . . .
124(6) . . .
95(5) . . .
104(5) . . .
127(6) . . .
123(6) . . .
120(6) . . .
129(6) . . .
115(6) . . .
124(6) . . .
121(6) . . .
121(6) . . .
124(6) . . .
124(6) . . .
128(6) . . .
132(6) . . .
132(6) . . .
117(6) . . .
116(6) . . .
126(6) . . .
132(6) . . .
122(6) . . .
124(6) . . .
126(6) . . .
108(5) . . .
126(6) . . .
124(6) . . .
134(6) . . .
135(7) . . .
128(6) . . .
116(6) . . .
128(6) . . .
140(6) . . .
125(6) . . .
126(6) . . .
131(6) . . .
120(6) . . .
120(6) . . .
129(6) . . .
112(6) . . .
124(6) . . .
110(5) . . .
113(6) . . .
117(6) . . .
113(6) . . .
124(6) . . .
126(6) . . .
128(6) . . .
127(6) . . .
131(6) . . .
111(5) . . .
113(6) . . .
112(6) . . .
129(6) . . .
114(6) . . .
124(6) . . .
119(6) . . .
129(6) . . .
142(7) . . .
128(6) . . .
125(6) . . .
107(6) . . .
123(6) . . .
128(6) . . .
120(6) . . .
129(6) . . .
117(6) . . .
126(6) . . .
121(6) . . .
133(6) . . .
128(6) . . .
136(6) . . .
133(6) . . .
112(6) . . .
121(6) . . .
122(6) . . .
124(6) . . .
130(7) . . .
122(6) . . .
134(6) . . .
124(6) . . .
124(6) . . .
132(6) . . .
121(6) . . .
137(6) . . .
128(6) . . .
136(6) . . .
133(6) . . .
134(6) . . .
119(6) . . .
124(6) . . .
122(6) . . .
121(6) . . .
142(6) . . .
122(6) . . .
119(6) . . .
118(6) . . .
127(6) . . .
130(6) . . .
131(6) . . .
123(6) . . .
138(6) . . .
133(6) . . .
127(6) . . .
119(6) . . .
132(6) . . .
134(6) . . .
121(6) . . .
115(6) . . .
116(6) . . .
124(6) . . .
124(6) . . .
130(6) . . .
116(6) . . .
115(6) . . .
125(6) . . .
126(6) . . .
114(6) . . .
126(6) . . .
135(6) . . .
115(6) . . .
133(7) . . .
121(6) . . .
128(6) . . .
122(6) . . .
129(6) . . .
125(6) . . .
123(6) . . .
121(6) . . .
114(6) . . .
122(6) . . .
138(7) . . .
136(6) . . .
134(6) . . .
121(6) . . .
119(6) . . .
100(5) . . .
112(6) . . .
116(6) . . .
124(6) . . .
121(6) . . .
121(6) . . .
127(6) . . .
125(6) . . .
110(5) . . .
126(6) . . .
125(6) . . .
116(6) . . .
121(6) . . .
130(6) . . .
119(6) . . .
111(6) . . .
122(6) . . .
119(6) . . .
123(6) . . .
119(6) . . .
119(6) . . .
117(6) . . .
123(6) . . .
132(6) . . .
139(7) . . .
131(6) . . .
136(6) . . .
127(6) . . .
136(6) . . .
127(6) . . .
131(6) . . .
125(6) . . .
123(6) . . .
125(6) . . .
120(6) . . .
126(6) . . .
118(6) . . .
127(6) . . .
129(6) . . .
127(6) . . .
128(6) . . .
129(6) . . .
129(6) . . .
125(6) . . .
123(6) . . .
134(6) . . .
130(6) . . .
126(6) . . .
116(6) . . .
135(7) . . .
127(6) . . .
130(6) . . .
129(6) . . .
135(6) . . .
145(7) . . .
113(6) . . .
127(6) . . .
124(6) . . .
103(6) . . .
112(6) . . .
111(6) . . .
121(6) . . .
141(6) . . .
130(6) . . .
127(6) . . .
134(6) . . .
133(6) . . .
121(6) . . .
111(6) . . .
108(6) . . .
119(6) . . .
123(6) . . .
117(6) . . .
123(6) . . .
130(6) . . .
122(6) . . .
120(6) . . .
112(6) . . .
112(6) . . .
122(6) . . .
129(6) . . .
136(6) . . .
116(6) . . .
141(7) . . .
131(6) . . .
117(6) . . .
141(6) . . .
102(5) . . .
109(6) . . .
114(6) . . .
109(5) . . .
115(6) . . .
121(6) . . .
118(6) . . .
123(6) . . .
125(6) . . .
125(6) . . .
132(6) . . .
119(6) . . .
134(6) . . .
122(6) . . .
110(5) . . .
124(6) . . .
138(6) . . .
132(6) . . .
129(6) . . .
121(6) . . .
108(5) . . .
106(6) . . .
110(6) . . .
109(5) . . .
127(6) . . .
125(6) . . .
122(6) . . .
108(6) . . .
116(6) . . .
117(6) . . .
116(6) . . .
117(6) . . .
119(6) . . .
114(6) . . .
109(6) . . .
113(6) . . .
120(6) . . .
115(6) . . .
147(6) . . .
122(6) . . .
117(6) . . .
123(6) . . .
135(6) . . .
123(6) . . .
124(6) . . .
131(6) . . .
135(6) . . .
115(6) . . .
117(6) . . .
124(6) . . .
128(6) . . .
127(6) . . .
124(6) . . .
120(6) . . .
132(6) . . .
122(6) . . .
113(6) . . .
106(5) . . .
124(6) . . .
130(6) . . .
110(6) . . .
120(6) . . .
123(6) . . .
120(6) . . .
102(5) . . .
120(6) . . .
125(6) . . .
122(6) . . .
112(6) . . .
118(6) . . .
123(6) . . .
138(6) . . .
135(6) . . .
113(6) . . .
123(6) . . .
117(6) . . .
124(6) . . .
116(6) . . .
121(6) . . .
111(6) . . .
114(6) . . .
119(6) . . .
130(6) . . .
114(6) . . .
114(6) . . .
118(6) . . .
129(6) . . .
115(6) . . .
118(6) . . .
114(6) . . .
116(6) . . .
117(6) . . .
123(6) . . .
127(6) . . .
115(6) . . .
120(6) . . .
141(6) . . .
141(6) . . .
125(6) . . .
116(6) . . .
142(6) . . .
128(6) . . .
133(6) . . .
105(5) . . .
130(7) . . .
110(5) . . .
141(6) . . .
110(6) . . .
131(6) . . .
125(6) . . .
115(6) . . .
117(6) . . .
122(6) . . .
138(6) . . .
132(6) . . .
118(6) . . .
125(6) . . .
123(6) . . .
115(6) . . .
118(6) . . .
135(6) . . .
127(6) . . .
117(6) . . .
119(6) . . .
127(6) . . .
121(6) . . .
123(6) . . .
112(5) . . .
136(7) . . .
121(6) . . .
109(6) . . .
119(6) . . .
126(6) . . .
124(6) . . .
119(6) . . .
121(6) . . .
121(6) . . .
121(6) . . .
115(6) . . .
114(6) . . .
120(6) . . .
134(6) . . .
120(6) . . .
130(6) . . .
107(5) . . .
111(5) . . .
122(6) . . .
115(6) . . .
138(6) . . .
142(7) . . .
107(5) . . .
124(6) . . .
107(5) . . .
117(6) . . .
103(5) . . .
122(6) . . .
117(6) . . .
121(6) . . .
113(6) . . .
108(6) . . .
113(5) . . .
138(6) . . .
126(6) . . .
128(6) . . .
128(6) . . .
141(6) . . .
125(6) . . .
138(6) . . .
150(7) . . .
126(6) . . .
130(6) . . .
128(6) . . .
135(6) . . .
119(6) . . .
115(6) . . .
134(6) . . .
130(6) . . .
128(6) . . .
131(6) . . .
122(6) . . .
120(6) . . .
111(6) . . .
136(6) . . .
124(6) . . .
126(6) . . .
118(6) . . .
112(6) . . .
122(6) . . .
119(6) . . .
123(6) . . .
119(6) . . .
117(6) . . .
122(6) . . .
119(6) . . .
120(6) . . .
124(6) . . .
126(6) . . .
112(6) . . .
127(6) . . .
127(6) . . .
129(6) . . .
119(6) . . .
114(6) . . .
128(6) . . .
116(6) . . .
124(6) . . .
121(6) . . .
136(7) . . .
133(6) . . .
123(6) . . .
124(6) . . .
138(6) . . .
136(6) . . .
128(6) . . .
113(5) . . .
117(6) . . .
124(6) . . .
129(6) . . .
108(6) . . .
120(6) . . .
109(5) . . .
124(6) . . .
131(6) . . .
121(6) . . .
116(6) . . .
112(6) . . .
122(6) . . .
105(5) . . .
121(6) . . .
121(6) . . .
110(6) . . .
116(6) . . .
127(6) . . .
124(6) . . .
111(5) . . .
126(6) . . .
125(6) . . .
119(6) . . .
100(5) . . .
119(6) . . .
121(6) . . .
118(6) . . .
117(6) . . .
118(6) . . .
117(6) . . .
111(6) . . .
110(6) . . .
110(6) . . .
119(6) . . .
116(6) . . .
135(6) . . .
132(6) . . .
117(6) . . .
128(6) . . .
102(5) . . .
127(6) . . .
122(6) . . .
111(6) . . .
108(5) . . .
133(6) . . .
125(6) . . .
121(6) . . .
116(6) . . .
125(6) . . .
110(5) . . .
102(5) . . .
121(6) . . .
125(6) . . .
125(6) . . .
108(5) . . .
121(6) . . .
114(6) . . .
107(6) . . .
117(6) . . .
116(6) . . .
125(6) . . .
117(6) . . .
116(6) . . .
123(6) . . .
114(6) . . .
116(6) . . .
112(6) . . .
126(6) . . .
122(6) . . .
120(6) . . .
132(6) . . .
133(6) . . .
131(6) . . .
121(6) . . .
115(6) . . .
109(6) . . .
111(6) . . .
132(6) . . .
110(6) . . .
120(6) . . .
128(6) . . .
118(6) . . .
129(6) . . .
126(6) . . .
112(6) . . .
131(6) . . .
125(6) . . .
129(6) . . .
113(5) . . .
110(6) . . .
119(6) . . .
121(6) . . .
131(6) . . .
113(6) . . .
133(6) . . .
128(6) . . .
136(6) . . .
136(6) . . .
109(5) . . .
116(6) . . .
126(6) . . .
131(6) . . .
124(6) . . .
128(6) . . .
132(6) . . .
130(6) . . .
139(6) . . .
134(6) . . .
131(6) . . .
118(6) . . .
122(6) . . .
126(6) . . .
114(6) . . .
120(6) . . .
123(6) . . .
131(6) . . .
137(6) . . .
110(5) . . .
126(6) . . .
125(6) . . .
130(6) . . .
118(6) . . .
104(5) . . .
115(6) . . .
124(6) . . .
107(6) . . .
130(6) . . .
118(6) . . .
139(6) . . .
121(6) . . .
103(5) . . .
120(6) . . .
114(6) . . .
131(6) . . .
107(6) . . .
117(6) . . .
125(6) . . .
115(6) . . .
116(6) . . .
119(6) . . .
123(6) . . .
131(6) . . .
120(6) . . .
115(6) . . .
110(6) . . .
119(6) . . .
107(5) . . .
107(5) . . .
118(6) . . .
118(6) . . .
104(6) . . .
115(6) . . .
112(6) . . .
105(5) . . .
114(6) . . .
121(6) . . .
133(6) . . .
125(6) . . .
127(6) . . .
123(6) . . .
99(5) . . .
119(6) . . .
109(5) . . .
120(6) . . .
115(6) . . .
128(6) . . .
117(6) . . .
133(6) . . .
121(6) . . .
125(6) . . .
105(5) . . .
108(5) . . .
119(6) . . .
134(6) . . .
132(6) . . .
116(6) . . .
130(6) . . .
125(6) . . .
117(6) . . .
119(6) . . .
118(6) . . .
113(6) . . .
120(6) . . .
115(6) . . .
128(6) . . .
128(6) . . .
141(6) . . .
136(6) . . .
114(6) . . .
107(6) . . .
118(6) . . .
135(6) . . .
102(5) . . .
125(6) . . .
121(6) . . .
121(6) . . .
122(6) . . .
117(6) . . .
121(6) . . .
115(6) . . .
125(6) . . .
131(6) . . .
117(6) . . .
114(6) . . .
103(6) . . .
130(6) . . .
128(6) . . .
115(6) . . .
106(5) . . .
124(6) . . .
107(5) . . .
120(6) . . .
112(6) . . .
111(6) . . .
108(5) . . .
109(5) . . .
117(6) . . .
122(6) . . .
134(6) . . .
113(6) . . .
108(5) . . .
135(6) . . .
125(6) . . .
125(6) . . .
120(6) . . .
103(5) . . .
110(6) . . .
124(6) . . .
123(6) . . .
120(6) . . .
127(6) . . .
118(6) . . .
108(6) . . .
129(6) . . .
129(6) . . .
128(6) . . .
129(6) . . .
119(6) . . .
121(6) . . .
112(6) . . .
111(6) . . .
114(6) . . .
131(6) . . .
130(6) . . .
153(6) . . .
122(6) . . .
121(6) . . .
113(6) . . .
113(6) . . .
116(6) . . .
114(6) . . .
121(6) . . .
119(6) . . .
121(6) . . .
122(6) . . .
132(6) . . .
123(6) . . .
123(6) . . .
124(6) . . .
138(6) . . .
116(6) . . .
129(6) . . .
107(5) . . .
135(6) . . .
144(6) . . .
126(6) . . .
114(6) . . .
113(6) . . .
122(6) . . .
123(6) . . .
132(6) . . .
130(6) . . .
118(6) . . .
118(6) . . .
111(5) . . .
111(6) . . .
116(6) . . .
123(6) . . .
123(6) . . .
119(6) . . .
123(6) . . .
108(6) . . .
118(6) . . .
116(6) . . .
117(6) . . .
123(6) . . .
123(6) . . .
119(6) . . .
137(6) . . .
112(5) . . .
111(6) . . .
111(6) . . .
117(6) . . .
121(6) . . .
120(6) . . .
122(6) . . .
130(6) . . .
126(6) . . .
123(6) . . .
122(6) . . .
110(6) . . .
108(6) . . .
97(5) . . .
122(6) . . .
107(5) . . .
119(6) . . .
130(6) . . .
136(6) . . .
133(6) . . .
122(6) . . .
124(6) . . .
128(6) . . .
111(6) . . .
111(6) . . .
110(6) . . .
129(6) . . .
119(6) . . .
115(6) . . .
129(6) . . .
126(6) . . .
106(6) . . .
124(6) . . .
116(6) . . .
111(5) . . .
113(6) . . .
119(6) . . .
127(6) . . .
126(6) . . .
132(6) . . .
111(6) . . .
126(6) . . .
136(6) . . .
131(6) . . .
111(5) . . .
113(6) . . .
104(6) . . .
116(6) . . .
135(6) . . .
104(5) . . .
118(6) . . .
118(6) . . .
127(6) . . .
109(5) . . .
114(6) . . .
127(6) . . .
132(6) . . .
131(6) . . .
129(6) . . .
142(6) . . .
131(6) . . .
110(6) . . .
123(6) . . .
128(6) . . .
122(6) . . .
131(6) . . .
125(6) . . .
118(6) . . .
115(6) . . .
118(6) . . .
114(6) . . .
111(6) . . .
111(6) . . .
131(6) . . .
130(6) . . .
123(6) . . .
112(6) . . .
111(5) . . .
116(6) . . .
110(6) . . .
127(6) . . .
128(6) . . .
121(6) . . .
113(6) . . .
122(6) . . .
128(6) . . .
130(6) . . .
112(6) . . .
105(5) . . .
107(6) . . .
135(6) . . .
119(6) . . .
132(6) . . .
118(6) . . .
114(6) . . .
112(6) . . .
114(6) . . .
117(6) . . .
109(5) . . .
112(6) . . .
132(7) . . .
119(6) . . .
120(6) . . .
102(5) . . .
122(6) . . .
124(6) . . .
125(6) . . .
114(6) . . .
107(5) . . .
118(6) . . .
122(6) . . .
127(6) . . .
127(6) . . .
129(6) . . .
111(6) . . .
117(6) . . .
108(5) . . .
120(6) . . .
113(6) . . .
121(6) . . .
124(6) . . .
115(6) . . .
123(6) . . .
126(6) . . .
121(6) . . .
121(6) . . .
115(6) . . .
112(5) . . .
108(5) . . .
117(6) . . .
119(6) . . .
116(6) . . .
137(6) . . .
125(6) . . .
118(6) . . .
127(6) . . .
108(5) . . .
122(6) . . .
118(6) . . .
132(6) . . .
126(6) . . .
125(6) . . .
120(6) . . .
106(5) . . .
128(6) . . .
128(6) . . .
125(6) . . .
111(5) . . .
111(6) . . .
112(6) . . .
127(6) . . .
122(6) . . .
120(6) . . .
105(5) . . .
104(6) . . .
129(6) . . .
133(6) . . .
116(6) . . .
122(6) . . .
118(6) . . .
120(6) . . .
136(6) . . .
113(5) . . .
111(6) . . .
110(6) . . .
124(6) . . .
125(6) . . .
128(6) . . .
124(6) . . .
123(6) . . .
116(6) . . .
119(6) . . .
141(6) . . .
118(6) . . .
135(6) . . .
132(6) . . .
117(6) . . .
116(6) . . .
112(6) . . .
116(6) . . .
136(6) . . .
134(6) . . .
116(6) . . .
125(6) . . .
111(5) . . .
114(6) . . .
111(5) . . .
115(6) . . .
116(6) . . .
113(6) . . .
122(6) . . .
119(6) . . .
121(6) . . .
110(6) . . .
136(6) . . .
127(6) . . .
135(6) . . .
134(6) . . .
142(7) . . .
126(6) . . .
121(6) . . .
117(6) . . .
117(6) . . .
133(6) . . .
127(6) . . .
125(6) . . .
130(6) . . .
128(6) . . .
130(7) . . .
114(6) . . .
114(5) . . .
107(6) . . .
117(6) . . .
111(6) . . .
114(6) . . .
114(6) . . .
120(6) . . .
110(6) . . .
121(6) . . .
117(6) . . .
118(6) . . .
120(6) . . .
116(6) . . .
117(6) . . .
116(6) . . .
130(6) . . .
122(6) . . .
128(6) . . .
119(6) . . .
120(6) . . .
116(6) . . .
120(6) . . .
142(7) . . .
127(6) . . .
118(6) . . .
122(6) . . .
115(6) . . .
112(6) . . .
109(5) . . .
111(6) . . .
119(6) . . .
112(6) . . .
125(6) . . .
118(6) . . .
118(6) . . .
134(6) . . .
119(6) . . .
125(6) . . .
111(6) . . .
116(6) . . .
122(6) . . .
129(6) . . .
111(6) . . .
116(6) . . .
127(6) . . .
133(6) . . .
125(6) . . .
118(6) . . .
130(6) . . .
118(6) . . .
115(6) . . .
116(6) . . .
118(6) . . .
128(6) . . .
123(6) . . .
133(6) . . .
117(6) . . .
112(6) . . .
113(6) . . .
132(6) . . .
116(6) . . .
118(6) . . .
117(6) . . .
116(6) . . .
115(6) . . .
111(6) . . .
126(6) . . .
114(6) . . .
124(6) . . .
107(5) . . .
118(6) . . .
97(5) . . .
110(6) . . .
100(5) . . .
120(6) . . .
119(6) . . .
119(6) . . .
112(6) . . .
124(6) . . .
120(6) . . .
120(6) . . .
117(6) . . .
110(6) . . .
111(6) . . .
121(6) . . .
113(6) . . .
127(6) . . .
125(6) . . .
114(6) . . .
124(6) . . .
117(6) . . .
110(6) . . .
103(5) . . .
128(6) . . .
125(6) . . .
111(6) . . .
121(6) . . .
113(6) . . .
116(6) . . .
118(6) . . .
112(6) . . .
132(7) . . .
114(6) . . .
115(6) . . .
138(6) . . .
112(6) . . .
118(6) . . .
122(6) . . .
109(5) . . .
121(6) . . .
124(6) . . .
127(6) . . .
124(6) . . .
102(5) . . .
113(6) . . .
109(6) . . .
109(6) . . .
110(6) . . .
130(6) . . .
114(6) . . .
117(6) . . .
113(5) . . .
131(6) . . .
120(6) . . .
126(6) . . .
108(6) . . .
119(6) . . .
114(6) . . .
119(6) . . .
116(6) . . .
108(6) . . .
104(5) . . .
117(6) . . .
121(6) . . .
130(6) . . .
126(6) . . .
116(6) . . .
134(6) . . .
136(6) . . .
124(6) . . .
115(6) . . .
120(6) . . .
139(6) . . .
125(6) . . .
119(6) . . .
105(6) . . .
117(6) . . .
120(6) . . .
119(6) . . .
119(6) . . .
133(6) . . .
127(6) . . .
117(6) . . .
110(5) . . .
110(6) . . .
120(6) . . .
113(6) . . .
113(5) . . .
132(6) . . .
126(6) . . .
127(6) . . .
109(6) . . .
110(5) . . .
117(6) . . .
102(6) . . .
99(5) . . .
112(6) . . .
127(6) . . .
126(6) . . .
112(5) . . .
123(6) . . .
129(6) . . .
112(6) . . .
121(6) . . .
124(6) . . .
121(6) . . .
101(5) . . .
103(5) . . .
124(6) . . .
117(6) . . .
114(6) . . .
105(5) . . .
124(6) . . .
114(6) . . .
113(6) . . .
113(6) . . .
119(6) . . .
111(5) . . .
121(6) . . .
110(6) . . .
123(6) . . .
120(6) . . .
111(5) . . .
106(5) . . .
117(6) . . .
134(6) . . .
115(6) . . .
133(6) . . .
120(6) . . .
120(6) . . .
115(6) . . .
112(6) . . .
120(6) . . .
112(6) . . .
100(5) . . .
111(6) . . .
108(5) . . .
112(5) . . .
136(6) . . .
109(5) . . .
119(6) . . .
117(6) . . .
123(6) . . .
129(6) . . .
111(6) . . .
119(6) . . .
127(6) . . .
109(6) . . .
110(6) . . .
112(6) . . .
115(6) . . .
111(5) . . .
117(6) . . .
122(6) . . .
121(6) . . .
107(5) . . .
104(5) . . .
124(6) . . .
104(6) . . .
109(6) . . .
111(5) . . .
126(6) . . .
109(6) . . .
107(6) . . .
101(5) . . .
127(6) . . .
116(6) . . .
119(6) . . .
118(6) . . .
114(6) . . .
133(6) . . .
109(5) . . .
110(6) . . .
117(6) . . .
111(6) . . .
109(5) . . .
101(5) . . .
112(6) . . .
126(6) . . .
127(6) . . .
122(6) . . .
127(6) . . .
113(6) . . .
104(6) . . .
115(6) . . .
133(6) . . .
118(6) . . .
125(6) . . .
124(6) . . .
123(6) . . .
112(6) . . .
113(6) . . .
122(6) . . .
112(6) . . .
119(6) . . .
112(6) . . .
108(6) . . .
104(5) . . .
114(6) . . .
121(6) . . .
116(6) . . .
110(6) . . .
104(5) . . .
110(6) . . .
121(6) . . .
126(6) . . .
126(6) . . .
109(5) . . .
132(6) . . .
115(6) . . .
124(6) . . .
111(6) . . .
124(6) . . .
115(6) . . .
106(5) . . .
109(5) . . .
118(6) . . .
120(6) . . .
119(6) . . .
115(6) . . .
117(6) . . .
114(6) . . .
110(6) . . .
109(5) . . .
101(5) . . .
110(5) . . .
128(6) . . .
105(6) . . .
115(6) . . .
114(6) . . .
119(6) . . .
131(6) . . .
103(5) . . .
120(6) . . .
110(5) . . .
115(6) . . .
121(6) . . .
114(6) . . .
113(6) . . .
126(6) . . .
100(5) . . .
100(5) . . .
117(6) . . .
128(6) . . .
114(6) . . .
123(6) . . .
114(6) . . .
123(6) . . .
110(6) . . .
117(6) . . .
108(6) . . .
120(6) . . .
110(5) . . .
129(6) . . .
133(6) . . .
102(5) . . .
105(6) . . .
112(6) . . .
111(6) . . .
114(6) . . .
120(6) . . .
106(5) . . .
117(6) . . .
117(6) . . .
128(6) . . .
118(6) . . .
122(6) . . .
107(6) . . .
117(6) . . .
109(6) . . .
111(6) . . .
112(6) . . .
109(6) . . .
108(5) . . .
108(5) . . .
116(6) . . .
113(6) . . .
109(5) . . .
101(5) . . .
105(5) . . .
133(6) . . .
107(6) . . .
119(6) . . .
112(5) . . .
120(6) . . .
121(6) . . .
118(6) . . .
130(6) . . .
110(5) . . .
124(6) . . .
127(6) . . .
97(6) . . .
113(6) . . .
108(5) . . .
116(6) . . .
125(6) . . .
108(6) . . .
122(6) . . .
120(6) . . .
121(6) . . .
100(5) . . .
104(5) . . .
115(6) . . .
128(6) . . .
114(6) . . .
104(6) . . .
114(6) . . .
102(5) . . .
102(5) . . .
113(6) . . .
116(6) . . .
121(6) . . .
113(6) . . .
106(5) . . .
108(6) . . .
120(6) . . .
112(6) . . .
123(6) . . .
106(5) . . .
105(6) . . .
117(6) . . .
109(6) . . .
109(5) . . .
114(6) . . .
115(6) . . .
112(6) . . .
111(6) . . .
108(5) . . .
128(6) . . .
123(6) . . .
119(6) . . .
111(6) . . .
122(6) . . .
112(5) . . .
103(5) . . .
104(6) . . .
119(6) . . .
117(6) . . .
111(5) . . .
117(6) . . .
105(6) . . .
109(6) . . .
115(6) . . .
119(6) . . .
111(6) . . .
114(6) . . .
122(6) . . .
111(5) . . .
119(6) . . .
123(6) . . .
112(6) . . .
108(6) . . .
106(5) . . .
111(6) . . .
116(6) . . .
125(6) . . .
127(6) . . .
132(6) . . .
120(6) . . .
109(6) . . .
116(6) . . .
121(6) . . .
111(5) . . .
109(6) . . .
114(6) . . .
104(6) . . .
100(5) . . .
110(5) . . .
111(6) . . .
115(6) . . .
104(6) . . .
114(6) . . .
118(6) . . .
115(6) . . .
112(6) . . .
124(6) . . .
118(6) . . .
109(5) . . .
99(5) . . .
107(6) . . .
127(6) . . .
112(5) . . .
124(6) . . .
116(6) . . .
105(6) . . .
113(6) . . .
113(6) . . .
113(6) . . .
104(5) . . .
117(6) . . .
105(6) . . .
117(6) . . .
116(6) . . .
103(6) . . .
109(6) . . .
119(6) . . .
108(5) . . .
106(5) . . .
115(6) . . .
127(6) . . .
130(6) . . .
120(6) . . .
117(6) . . .
101(5) . . .
113(6) . . .
113(5) . . .
112(5) . . .
100(5) . . .
104(5) . . .
121(6) . . .
120(6) . . .
121(6) . . .
123(6) . . .
116(6) . . .
112(6) . . .
103(5) . . .
109(5) . . .
103(5) . . .
116(6) . . .
122(6) . . .
113(6) . . .
109(5) . . .
104(5) . . .
115(6) . . .
124(6) . . .
108(5) . . .
101(5) . . .
110(5) . . .
110(6) . . .
120(6) . . .
122(6) . . .
118(6) . . .
99(5) . . .
105(6) . . .
120(6) . . .
118(6) . . .
117(6) . . .
115(6) . . .
99(5) . . .
102(5) . . .
110(5) . . .
116(6) . . .
108(6) . . .
117(6) . . .
120(6) . . .
112(6) . . .
127(6) . . .
105(5) . . .
110(6) . . .
123(6) . . .
123(6) . . .
121(6) . . .
124(6) . . .
105(5) . . .
110(6) . . .
108(5) . . .
103(6) . . .
105(6) . . .
106(6) . . .
118(6) . . .
118(6) . . .
102(5) . . .
110(6) . . .
112(6) . . .
125(6) . . .
109(5) . . .
114(6) . . .
113(6) . . .
101(5) . . .
112(6) . . .
109(5) . . .
111(6) . . .
107(6) . . .
112(6) . . .
115(6) . . .
118(6) . . .
102(5) . . .
121(6) . . .
118(6) . . .
112(6) . . .
126(6) . . .
108(6) . . .
116(6) . . .
126(6) . . .
130(6) . . .
116(6) . . .
109(6) . . .
117(6) . . .
108(6) . . .
108(5) . . .
109(5) . . .
105(5) . . .
120(6) . . .
112(6) . . .
123(6) . . .
105(5) . . .
112(6) . . .
120(6) . . .
129(6) . . .
115(6) . . .
102(5) . . .
129(6) . . .
119(6) . . .
112(6) . . .
121(6) . . .
117(6) . . .
114(6) . . .
124(6) . . .
110(5) . . .
115(6) . . .
105(5) . . .
125(6) . . .
115(6) . . .
110(6) . . .
103(5) . . .
108(6) . . .
101(5) . . .
110(6) . . .
104(5) . . .
101(5) . . .
115(6) . . .
111(6) . . .
121(6) . . .
110(5) . . .
113(6) . . .
96(5) . . .
114(6) . . .
103(6) . . .
100(5) . . .
108(5) . . .
122(6) . . .
115(6) . . .
111(6) . . .
106(5) . . .
112(6) . . .
117(6) . . .
102(5) . . .
106(5) . . .
124(6) . . .
127(6) . . .
106(6) . . .
122(6) . . .
108(6) . . .
101(5) . . .
107(6) . . .
100(5) . . .
112(6) . . .
120(6) . . .
115(6) . . .
123(6) . . .
98(5) . . .
108(6) . . .
118(6) . . .
115(6) . . .
115(6) . . .
110(6) . . .
126(6) . . .
118(6) . . .
117(6) . . .
114(6) . . .
125(6) . . .
112(6) . . .
114(6) . . .
109(5) . . .
107(6) . . .
115(6) . . .
125(6) . . .
118(6) . . .
109(5) . . .
135(6) . . .
124(6) . . .
97(5) . . .
112(6) . . .
110(5) . . .
114(6) . . .
106(6) . . .
112(6) . . .
112(6) . . .
111(6) . . .
101(5) . . .
122(6) . . .
123(6) . . .
113(5) . . .
109(5) . . .
120(6) . . .
128(6) . . .
121(6) . . .
98(5) . . .
104(5) . . .
118(6) . . .
113(6) . . .
105(6) . . .
110(5) . . .
107(5) . . .
105(5) . . .
112(6) . . .
101(5) . . .
107(5) . . .
100(5) . . .
105(6) . . .
119(6) . . .
105(5) . . .
113(6) . . .
122(6) . . .
110(6) . . .
115(6) . . .
109(6) . . .
112(6) . . .
120(6) . . .
119(6) . . .
110(6) . . .
125(6) . . .
113(6) . . .
115(6) . . .
120(6) . . .
101(5) . . .
128(6) . . .
124(6) . . .
119(6) . . .
128(6) . . .
104(5) . . .
116(6) . . .
122(6) . . .
102(5) . . .
105(6) . . .
113(6) . . .
123(6) . . .
115(6) . . .
103(6) . . .
114(6) . . .
108(5) . . .
91(5) . . .
123(6) . . .
96(5) . . .
101(6) . . .
109(6) . . .
101(5) . . .
111(6) . . .
124(6) . . .
106(6) . . .
117(6) . . .
109(5) . . .
114(6) . . .
112(6) . . .
117(6) . . .
117(6) . . .
101(5) . . .
122(6) . . .
108(6) . . .
104(6) . . .
97(5) . . .
105(5) . . .
124(6) . . .
124(6) . . .
122(6) . . .
108(5) . . .
104(5) . . .
112(6) . . .
126(6) . . .
100(5) . . .
104(5) . . .
103(5) . . .
114(6) . . .
91(5) . . .
116(6) . . .
101(5) . . .
100(5) . . .
110(6) . . .
100(5) . . .
124(6) . . .
124(6) . . .
104(5) . . .
104(5) . . .
122(7) . . .
104(6) . . .
111(6) . . .
110(5) . . .
112(6) . . .
114(6) . . .
121(6) . . .
114(6) . . .
110(5) . . .
124(6) . . .
110(6) . . .
121(6) . . .
113(6) . . .
121(6) . . .
110(6) . . .
104(6) . . .
113(6) . . .
108(5) . . .
109(6) . . .
118(6) . . .
109(6) . . .
105(5) . . .
111(5) . . .
107(5) . . .
119(6) . . .
105(6) . . .
108(6) . . .
101(5) . . .
106(6) . . .
127(6) . . .
102(5) . . .
112(6) . . .
117(6) . . .
110(6) . . .
93(5) . . .
122(6) . . .
110(5) . . .
119(6) . . .
113(6) . . .
92(5) . . .
102(5) . . .
115(6) . . .
111(5) . . .
112(6) . . .
119(6) . . .
109(6) . . .
101(5) . . .
121(6) . . .
115(6) . . .
114(6) . . .
107(5) . . .
121(6) . . .
117(6) . . .
113(6) . . .
94(5) . . .
111(6) . . .
123(6) . . .
121(6) . . .
127(6) . . .
128(6) . . .
108(5) . . .
117(6) . . .
118(6) . . .
122(6) . . .
122(6) . . .
102(5) . . .
111(5) . . .
125(6) . . .
96(5) . . .
104(6) . . .
95(5) . . .
121(6) . . .
104(5) . . .
105(5) . . .
116(6) . . .
127(6) . . .
115(6) . . .
113(6) . . .
116(6) . . .
119(6) . . .
119(6) . . .
108(5) . . .
118(6) . . .
109(6) . . .
112(6) . . .
100(5) . . .
113(6) . . .
116(6) . . .
116(6) . . .
114(6) . . .
115(6) . . .
118(6) . . .
106(6) . . .
114(6) . . .
95(5) . . .
114(6) . . .
108(5) . . .
110(6) . . .
118(6) . . .
108(6) . . .
119(6) . . .
116(6) . . .
118(6) . . .
111(6) . . .
123(6) . . .
108(5) . . .
118(6) . . .
116(6) . . .
104(6) . . .
116(6) . . .
119(6) . . .
116(6) . . .
125(6) . . .
105(6) . . .
107(6) . . .
107(5) . . .
110(5) . . .
124(6) . . .
103(5) . . .
119(6) . . .
124(6) . . .
102(5) . . .
120(6) . . .
118(6) . . .
110(6) . . .
103(5) . . .
105(5) . . .
127(6) . . .
111(6) . . .
118(6) . . .
112(5) . . .
115(6) . . .
120(6) . . .
114(6) . . .
121(6) . . .
107(5) . . .
112(6) . . .
118(6) . . .
106(5) . . .
100(5) . . .
104(5) . . .
103(6) . . .
106(6) . . .
113(6) . . .
106(6) . . .
107(5) . . .
108(6) . . .
104(6) . . .
103(6) . . .
115(6) . . .
108(5) . . .
108(6) . . .
122(6) . . .
112(6) . . .
119(6) . . .
123(6) . . .
118(6) . . .
111(6) . . .
119(6) . . .
123(6) . . .
118(6) . . .
109(6) . . .
106(6) . . .
100(5) . . .
120(6) . . .
118(6) . . .
104(6) . . .
108(6) . . .
115(6) . . .
111(5) . . .
105(5) . . .
112(6) . . .
113(6) . . .
106(5) . . .
100(5) . . .
116(6) . . .
105(5) . . .
113(6) . . .
115(6) . . .
112(6) . . .
101(5) . . .
103(6) . . .
114(6) . . .
110(6) . . .
105(5) . . .
99(5) . . .
106(6) . . .
107(6) . . .
104(5) . . .
108(5) . . .
106(6) . . .
109(6) . . .
118(6) . . .
107(5) . . .
110(5) . . .
102(5) . . .
103(5) . . .
118(6) . . .
110(6) . . .
114(5) . . .
125(6) . . .
108(6) . . .
112(6) . . .
99(5) . . .
120(6) . . .
115(6) . . .
119(6) . . .
102(5) . . .
102(5) . . .
117(6) . . .
110(6) . . .
117(6) . . .
130(6) . . .
108(5) . . .
99(5) . . .
109(6) . . .
126(6) . . .
107(5) . . .
115(6) . . .
113(6) . . .
117(6) . . .
122(6) . . .
108(6) . . .
94(5) . . .
109(6) . . .
114(6) . . .
110(6) . . .
100(6) . . .
115(6) . . .
113(6) . . .
111(6) . . .
100(5) . . .
107(5) . . .
117(6) . . .
111(6) . . .
108(6) . . .
103(5) . . .
106(5) . . .
108(5) . . .
107(5) . . .
116(6) . . .
117(6) . . .
114(6) . . .
104(5) . . .
107(6) . . .
116(6) . . .
117(6) . . .
109(5) . . .
92(5) . . .
102(5) . . .
116(6) . . .
118(6) . . .
119(6) . . .
96(5) . . .
111(6) . . .
101(5) . . .
100(5) . . .
104(5) . . .
110(5) . . .
108(5) . . .
102(5) . . .
110(6) . . .
103(5) . . .
100(5) . . .
96(5) . . .
112(6) . . .
108(6) . . .
105(5) . . .
106(5) . . .
111(6) . . .
114(6) . . .
107(6) . . .
97(5) . . .
111(6) . . .
105(6) . . .
105(5) . . .
103(5) . . .
112(6) . . .
104(5) . . .
122(6) . . .
115(6) . . .
118(6) . . .
108(5) . . .
107(5) . . .
110(6) . . .
103(5) . . .
111(5) . . .
108(5) . . .
107(5) . . .
117(6) . . .
116(6) . . .
104(5) . . .
100(5) . . .
112(6) . . .
107(6) . . .
120(6) . . .
107(5) . . .
107(5) . . .
98(5) . . .
102(6) . . .
99(5) . . .
99(5) . . .
117(6) . . .
98(5) . . .
108(6) . . .
116(6) . . .
109(5) . . .
101(5) . . .
111(6) . . .
100(6) . . .
99(5) . . .
106(5) . . .
99(5) . . .
121(6) . . .
116(6) . . .
118(6) . . .
117(6) . . .
103(5) . . .
105(6) . . .
112(6) . . .
112(6) . . .
104(5) . . .
106(5) . . .
99(5) . . .
111(6) . . .
123(6) . . .
104(5) . . .
111(6) . . .
90(5) . . .
89(5) . . .
118(6) . . .
115(6) . . .
115(6) . . .
109(6) . . .
94(5) . . .
116(6) . . .
105(5) . . .
107(6) . . .
109(6) . . .
108(5) . . .
109(5) . . .
138(6) . . .
117(6) . . .
100(5) . . .
96(5) . . .
113(6) . . .
101(5) . . .
101(5) . . .
105(6) . . .
102(5) . . .
103(5) . . .
108(5) . . .
112(6) . . .
113(6) . . .
115(6) . . .
106(5) . . .
105(5) . . .
115(6) . . .
111(6) . . .
115(6) . . .
109(5) . . .
101(5) . . .
112(6) . . .
103(6) . . .
108(5) . . .
97(5) . . .
110(6) . . .
103(5) . . .
115(6) . . .
108(6) . . .
80(5) . . .
113(6) . . .
130(6) . . .
110(6) . . .
99(5) . . .
100(5) . . .
112(6) . . .
128(6) . . .
117(6) . . .
116(6) . . .
100(5) . . .
99(5) . . .
108(6) . . .
104(5) . . .
108(5) . . .
111(5) . . .
98(5) . . .
111(6) . . .
99(5) . . .
101(5) . . .
116(6) . . .
117(6) . . .
123(6) . . .
103(5) . . .
95(5) . . .
108(5) . . .
107(6) . . .
106(6) . . .
118(6) . . .
106(5) . . .
98(5) . . .
99(5) . . .
111(6) . . .
104(5) . . .
107(5) . . .
116(6) . . .
120(6) . . .
105(6) . . .
122(6) . . .
99(5) . . .
113(6) . . .
100(5) . . .
101(6) . . .
87(5) . . .
103(5) . . .
109(6) . . .
106(5) . . .
103(6) . . .
96(5) . . .
109(5) . . .
103(5) . . .
112(6) . . .
102(6) . . .
101(5) . . .
108(5) . . .
102(5) . . .
103(5) . . .
101(5) . . .
111(6) . . .
103(5) . . .
100(5) . . .
96(5) . . .
91(5) . . .
106(5) . . .
103(5) . . .
106(6) . . .
105(5) . . .
126(6) . . .
117(6) . . .
106(5) . . .
119(6) . . .
110(6) . . .
115(6) . . .
117(6) . . .
103(5) . . .
123(6) . . .
109(6) . . .
109(6) . . .
104(5) . . .
114(6) . . .
98(5) . . .
127(6) . . .
110(6) . . .
99(5) . . .
98(5) . . .
128(6) . . .
111(6) . . .
100(5) . . .
90(5) . . .
101(5) . . .
107(6) . . .
97(5) . . .
101(5) . . .
109(5) . . .
108(5) . . .
110(6) . . .
104(5) . . .
119(6) . . .
108(5) . . .
113(6) . . .
110(6) . . .
105(6) . . .
110(6) . . .
103(5) . . .
116(6) . . .
113(6) . . .
109(6) . . .
98(5) . . .
106(5) . . .
103(5) . . .
101(5) . . .
124(6) . . .
126(6) . . .
102(5) . . .
100(5) . . .
101(5) . . .
114(6) . . .
93(5) . . .
106(5) . . .
114(6) . . .
105(6) . . .
118(6) . . .
105(5) . . .
105(5) . . .
115(6) . . .
99(5) . . .
99(6) . . .
107(5) . . .
108(5) . . .
103(6) . . .
118(6) . . .
91(5) . . .
94(5) . . .
107(5) . . .
106(5) . . .
105(6) . . .
116(6) . . .
96(5) . . .
115(6) . . .
108(6) . . .
113(6) . . .
105(5) . . .
108(5) . . .
99(5) . . .
120(6) . . .
105(6) . . .
112(6) . . .
101(5) . . .
114(6) . . .
97(5) . . .
109(6) . . .
100(5) . . .
105(5) . . .
109(6) . . .
117(6) . . .
101(5) . . .
110(6) . . .
98(5) . . .
112(5) . . .
113(6) . . .
102(6) . . .
107(6) . . .
110(5) . . .
113(6) . . .
91(5) . . .
102(6) . . .
102(5) . . .
124(6) . . .
113(6) . . .
103(5) . . .
103(5) . . .
112(6) . . .
117(6) . . .
111(6) . . .
101(6) . . .
101(6) . . .
101(5) . . .
124(6) . . .
89(5) . . .
113(6) . . .
122(6) . . .
115(6) . . .
110(5) . . .
114(6) . . .
120(6) . . .
121(6) . . .
102(5) . . .
101(5) . . .
85(5) . . .
101(6) . . .
108(6) . . .
107(5) . . .
97(5) . . .
101(5) . . .
92(5) . . .
94(5) . . .
111(5) . . .
112(6) . . .
109(6) . . .
99(5) . . .
98(5) . . .
87(5) . . .
113(6) . . .
103(5) . . .
94(5) . . .
105(6) . . .
98(5) . . .
109(5) . . .
108(6) . . .
123(6) . . .
98(5) . . .
109(5) . . .
104(5) . . .
106(6) . . .
119(6) . . .
102(5) . . .
113(6) . . .
117(6) . . .
111(6) . . .
104(6) . . .
101(5) . . .
101(5) . . .
117(6) . . .
114(6) . . .
96(5) . . .
118(6) . . .
101(5) . . .
102(5) . . .
109(6) . . .
93(5) . . .
110(5) . . .
113(6) . . .
111(6) . . .
103(6) . . .
123(6) . . .
106(5) . . .
98(5) . . .
102(5) . . .
107(6) . . .
110(6) . . .
118(6) . . .
103(5) . . .
105(6) . . .
106(6) . . .
97(5) . . .
96(5) . . .
106(5) . . .
101(5) . . .
98(5) . . .
108(5) . . .
115(6) . . .
112(6) . . .
106(6) . . .
102(6) . . .
111(6) . . .
90(5) . . .
117(6) . . .
106(5) . . .
102(5) . . .
102(5) . . .
110(5) . . .
95(5) . . .
115(6) . . .
96(5) . . .
112(6) . . .
114(6) . . .
113(6) . . .
99(5) . . .
103(6) . . .
92(5) . . .
107(5) . . .
107(6) . . .
104(6) . . .
104(6) . . .
105(5) . . .
102(5) . . .
114(6) . . .
113(6) . . .
103(5) . . .
111(5) . . .
113(6) . . .
111(6) . . .
107(6) . . .
103(6) . . .
96(5) . . .
99(5) . . .
109(6) . . .
102(6) . . .
106(6) . . .
108(5) . . .
105(5) . . .
109(6) . . .
104(6) . . .
112(6) . . .
108(5) . . .
107(5) . . .
100(5) . . .
107(6) . . .
106(5) . . .
114(6) . . .
109(6) . . .
99(5) . . .
92(5) . . .
106(6) . . .
107(5) . . .
93(5) . . .
98(5) . . .
94(5) . . .
104(5) . . .
107(5) . . .
104(5) . . .
116(6) . . .
118(6) . . .
85(5) . . .
106(5) . . .
111(6) . . .
106(6) . . .
93(5) . . .
106(5) . . .
114(6) . . .
109(6) . . .
109(6) . . .
91(5) . . .
97(5) . . .
97(5) . . .
100(5) . . .
111(6) . . .
111(6) . . .
102(5) . . .
97(5) . . .
91(5) . . .
100(5) . . .
93(5) . . .
94(5) . . .
98(5) . . .
94(5) . . .
100(5) . . .
101(6) . . .
103(5) . . .
110(5) . . .
102(5) . . .
83(5) . . .
111(6) . . .
99(5) . . .
108(5) . . .
105(5) . . .
102(5) . . .
99(5) . . .
100(5) . . .
108(5) . . .
107(6) . . .
95(6) . . .
97(5) . . .
100(5) . . .
91(5) . . .
111(6) . . .
117(6) . . .
108(6) . . .
111(6) . . .
117(6) . . .
128(6) . . .
86(5) . . .
100(5) . . .
88(5) . . .
118(6) . . .
112(6) . . .
107(6) . . .
99(5) . . .
98(5) . . .
103(5) . . .
99(6) . . .
108(6) . . .
101(5) . . .
94(5) . . .
106(6) . . .
108(6) . . .
105(6) . . .
114(6) . . .
112(5) . . .
96(5) . . .
99(5) . . .
119(6) . . .
107(5) . . .
100(5) . . .
98(5) . . .
113(6) . . .
96(5) . . .
90(5) . . .
98(5) . . .
97(5) . . .
99(6) . . .
107(5) . . .
95(5) . . .
90(5) . . .
105(5) . . .
110(6) . . .
98(5) . . .
115(6) . . .
103(5) . . .
103(5) . . .
110(6) . . .
103(5) . . .
101(5) . . .
102(5) . . .
106(6) . . .
98(5) . . .
93(5) . . .
89(5) . . .
106(6) . . .
109(6) . . .
109(6) . . .
106(6) . . .
103(5) . . .
114(6) . . .
106(6) . . .
91(5) . . .
88(5) . . .
79(5) . . .
111(6) . . .
111(6) . . .
112(6) . . .
106(5) . . .
107(5) . . .
96(5) . . .
100(5) . . .
111(6) . . .
116(6) . . .
97(5) . . .
106(6) . . .
96(5) . . .
96(5) . . .
114(6) . . .
113(6) . . .
100(5) . . .
96(5) . . .
95(5) . . .
107(5) . . .
108(5) . . .
108(6) . . .
109(6) . . .
99(5) . . .
95(5) . . .
95(5) . . .
114(6) . . .
102(6) . . .
103(6) . . .
108(5) . . .
108(6) . . .
108(5) . . .
101(5) . . .
95(5) . . .
113(6) . . .
111(6) . . .
96(5) . . .
95(5) . . .
101(6) . . .
108(5) . . .
106(5) . . .
96(5) . . .
90(5) . . .
95(5) . . .
94(5) . . .
86(5) . . .
98(5) . . .
102(5) . . .
112(6) . . .
129(6) . . .
115(6) . . .
109(6) . . .
106(6) . . .
106(5) . . .
106(5) . . .
99(5) . . .
112(6) . . .
103(5) . . .
98(5) . . .
94(5) . . .
104(5) . . .
104(5) . . .
116(6) . . .
111(6) . . .
113(6) . . .
99(5) . . .
91(5) . . .
93(5) . . .
96(5) . . .
110(5) . . .
115(6) . . .
94(5) . . .
108(6) . . .
96(5) . . .
93(5) . . .
89(5) . . .
113(6) . . .
98(5) . . .
104(5) . . .
106(5) . . .
111(5) . . .
108(6) . . .
95(5) . . .
104(5) . . .
115(6) . . .
103(6) . . .
91(5) . . .
100(5) . . .
102(5) . . .
99(6) . . .
95(5) . . .
93(5) . . .
93(5) . . .
104(5) . . .
107(5) . . .
100(5) . . .
98(5) . . .
98(5) . . .
105(5) . . .
104(5) . . .
109(6) . . .
106(6) . . .
92(5) . . .
101(5) . . .
112(6) . . .
104(5) . . .
102(5) . . .
98(5) . . .
111(5) . . .
103(5) . . .
90(5) . . .
110(6) . . .
113(6) . . .
104(5) . . .
102(5) . . .
101(6) . . .
89(5) . . .
92(5) . . .
98(5) . . .
89(5) . . .
90(5) . . .
91(5) . . .
102(5) . . .
99(5) . . .
102(5) . . .
111(6) . . .
102(6) . . .
101(5) . . .
107(5) . . .
97(5) . . .
99(6) . . .
102(5) . . .
90(5) . . .
94(5) . . .
84(5) . . .
96(5) . . .
103(5) . . .
87(5) . . .
114(6) . . .
100(5) . . .
104(6) . . .
108(6) . . .
83(5) . . .
98(5) . . .
95(5) . . .
98(5) . . .
96(5) . . .
91(5) . . .
119(6) . . .
119(6) . . .
100(5) . . .
88(5) . . .
98(5) . . .
112(6) . . .
103(5) . . .
95(5) . . .
123(6) . . .
111(5) . . .
93(5) . . .
98(5) . . .
100(6) . . .
103(5) . . .
114(6) . . .
98(5) . . .
93(5) . . .
109(6) . . .
103(5) . . .
94(5) . . .
104(5) . . .
107(6) . . .
98(5) . . .
104(5) . . .
105(5) . . .
96(5) . . .
95(5) . . .
94(5) . . .
108(6) . . .
101(5) . . .
93(5) . . .
103(6) . . .
93(5) . . .
95(5) . . .
93(5) . . .
81(5) . . .
107(6) . . .
103(6) . . .
97(5) . . .
102(5) . . .
96(5) . . .
103(6) . . .
103(6) . . .
108(5) . . .
95(5) . . .
95(5) . . .
95(5) . . .
111(6) . . .
96(5) . . .
107(6) . . .
102(6) . . .
97(5) . . .
91(5) . . .
103(5) . . .
120(6) . . .
94(5) . . .
94(5) . . .
101(5) . . .
108(5) . . .
96(5) . . .
101(6) . . .
98(5) . . .
95(5) . . .
90(5) . . .
99(5) . . .
100(5) . . .
95(5) . . .
100(5) . . .
112(6) . . .
93(5) . . .
120(6) . . .
98(5) . . .
103(5) . . .
110(5) . . .
109(6) . . .
97(6) . . .
101(5) . . .
88(5) . . .
95(5) . . .
93(5) . . .
103(6) . . .
103(5) . . .
103(5) . . .
102(5) . . .
100(5) . . .
115(6) . . .
96(5) . . .
102(5) . . .
93(5) . . .
93(5) . . .
102(6) . . .
110(6) . . .
108(5) . . .
94(5) . . .
109(6) . . .
102(6) . . .
107(6) . . .
106(5) . . .
105(5) . . .
106(6) . . .
94(5) . . .
99(5) . . .
95(5) . . .
107(6) . . .
95(5) . . .
107(6) . . .
109(6) . . .
102(5) . . .
97(5) . . .
105(6) . . .
111(6) . . .
106(5) . . .
94(5) . . .
89(5) . . .
97(5) . . .
108(6) . . .
95(5) . . .
101(5) . . .
88(5) . . .
104(6) . . .
101(5) . . .
111(5) . . .
102(5) . . .
103(6) . . .
102(6) . . .
91(5) . . .
98(5) . . .
98(5) . . .
110(6) . . .
100(5) . . .
93(5) . . .
103(5) . . .
99(5) . . .
106(6) . . .
92(5) . . .
91(5) . . .
93(5) . . .
90(5) . . .
92(5) . . .
97(5) . . .
96(5) . . .
110(5) . . .
104(5) . . .
97(5) . . .
111(6) . . .
96(5) . . .
108(5) . . .
105(6) . . .
104(6) . . .
101(5) . . .
93(5) . . .
96(5) . . .
92(5) . . .
79(5) . . .
98(5) . . .
100(5) . . .
104(5) . . .
107(5) . . .
92(5) . . .
110(6) . . .
97(5) . . .
99(5) . . .
108(6) . . .
85(5) . . .
102(5) . . .
111(5) . . .
101(5) . . .
84(5) . . .
111(6) . . .
118(6) . . .
98(5) . . .
110(6) . . .
98(5) . . .
101(6) . . .
93(5) . . .
101(5) . . .
101(5) . . .
87(5) . . .
90(5) . . .
109(6) . . .
90(5) . . .
100(5) . . .
88(5) . . .
89(5) . . .
107(6) . . .
101(5) . . .
94(5) . . .
97(5) . . .
108(6) . . .
100(5) . . .
100(5) . . .
99(5) . . .
100(5) . . .
89(5) . . .
108(6) . . .
103(5) . . .
114(6) . . .
99(5) . . .
108(6) . . .
109(6) . . .
102(5) . . .
105(5) . . .
95(5) . . .
111(6) . . .
103(6) . . .
106(5) . . .
101(5) . . .
95(5) . . .
95(5) . . .
114(6) . . .
111(5) . . .
102(6) . . .
97(5) . . .
90(5) . . .
90(5) . . .
91(5) . . .
106(6) . . .
91(5) . . .
94(5) . . .
85(5) . . .
92(5) . . .
102(6) . . .
106(6) . . .
108(6) . . .
107(5) . . .
98(5) . . .
94(5) . . .
99(5) . . .
107(6) . . .
117(6) . . .
101(5) . . .
89(5) . . .
94(5) . . .
83(5) . . .
96(5) . . .
102(5) . . .
98(5) . . .
104(6) . . .
110(6) . . .
110(5) . . .
97(5) . . .
98(5) . . .
90(5) . . .
89(5) . . .
93(5) . . .
103(5) . . .
116(6) . . .
109(6) . . .
98(5) . . .
105(5) . . .
104(6) . . .
98(5) . . .
88(5) . . .
99(5) . . .
99(5) . . .
86(5) . . .
98(5) . . .
97(5) . . .
86(5) . . .
96(5) . . .
92(5) . . .
88(5) . . .
110(6) . . .
100(5) . . .
78(5) . . .
96(5) . . .
83(5) . . .
113(6) . . .
89(5) . . .
99(5) . . .
113(6) . . .
85(5) . . .
96(5) . . .
104(5) . . .
78(5) . . .
90(5) . . .
101(6) . . .
85(5) . . .
94(5) . . .
84(5) . . .
89(5) . . .
95(5) . . .
95(5) . . .
103(5) . . .
110(5) . . .
100(5) . . .
111(6) . . .
92(5) . . .
92(5) . . .
98(5) . . .
98(5) . . .
104(6) . . .
99(6) . . .
96(5) . . .
103(5) . . .
113(6) . . .
95(5) . . .
92(5) . . .
97(5) . . .
99(5) . . .
106(6) . . .
97(5) . . .
93(5) . . .
90(5) . . .
96(5) . . .
91(5) . . .
103(5) . . .
93(5) . . .
100(5) . . .
96(5) . . .
106(6) . . .
101(5) . . .
105(5) . . .
102(5) . . .
100(5) . . .
100(5) . . .
100(5) . . .
100(5) . . .
96(5) . . .
93(5) . . .
90(5) . . .
95(5) . . .
95(5) . . .
99(5) . . .
91(5) . . .
90(5) . . .
98(5) . . .
99(5) . . .
100(5) . . .
98(5) . . .
101(6) . . .
77(5) . . .
109(5) . . .
92(5) . . .
96(5) . . .
96(5) . . .
108(6) . . .
92(5) . . .
90(5) . . .
100(5) . . .
100(5) . . .
109(6) . . .
112(5) . . .
96(5) . . .
102(6) . . .
106(6) . . .
91(5) . . .
97(5) . . .
104(5) . . .
110(6) . . .
107(6) . . .
102(6) . . .
90(5) . . .
104(5) . . .
91(5) . . .
96(5) . . .
102(5) . . .
101(5) . . .
90(5) . . .
94(6) . . .
84(5) . . .
108(5) . . .
82(5) . . .
97(5) . . .
88(5) . . .
89(5) . . .
107(5) . . .
94(5) . . .
90(5) . . .
81(5) . . .
96(5) . . .
86(5) . . .
99(5) . . .
101(5) . . .
88(5) . . .
87(5) . . .
87(5) . . .
93(5) . . .
100(5) . . .
81(5) . . .
94(5) . . .
89(5) . . .
99(5) . . .
94(5) . . .
97(6) . . .
97(5) . . .
103(5) . . .
103(5) . . .
90(5) . . .
84(5) . . .
100(5) . . .
98(5) . . .
92(5) . . .
90(5) . . .
87(5) . . .
89(5) . . .
98(5) . . .
99(5) . . .
88(5) . . .
90(5) . . .
97(5) . . .
98(5) . . .
91(5) . . .
102(6) . . .
98(5) . . .
103(6) . . .
102(5) . . .
91(5) . . .
93(5) . . .
104(6) . . .
87(5) . . .
90(5) . . .
95(5) . . .
94(5) . . .
98(5) . . .
94(5) . . .
107(5) . . .
95(5) . . .
91(5) . . .
97(5) . . .
92(5) . . .
91(5) . . .
93(5) . . .
87(5) . . .
98(5) . . .
99(5) . . .
88(5) . . .
96(5) . . .
100(6) . . .
94(5) . . .
84(5) . . .
91(5) . . .
102(5) . . .
94(5) . . .
96(5) . . .
106(5) . . .
109(5) . . .
80(5) . . .
100(6) . . .
109(6) . . .
120(6) . . .
88(5) . . .
99(5) . . .
82(5) . . .
91(5) . . .
107(5) . . .
95(5) . . .
85(5) . . .
106(6) . . .
100(5) . . .
96(5) . . .
91(5) . . .
90(5) . . .
86(5) . . .
86(5) . . .
83(5) . . .
95(5) . . .
100(5) . . .
101(6) . . .
87(5) . . .
80(5) . . .
87(5) . . .
88(5) . . .
87(5) . . .
96(5) . . .
101(5) . . .
91(5) . . .
113(6) . . .
101(5) . . .
95(5) . . .
97(5) . . .
101(5) . . .
105(6) . . .
89(5) . . .
115(6) . . .
96(5) . . .
91(5) . . .
91(5) . . .
94(5) . . .
91(5) . . .
97(5) . . .
98(5) . . .
95(5) . . .
96(5) . . .
94(5) . . .
96(5) . . .
100(5) . . .
105(6) . . .
114(6) . . .
105(5) . . .
82(5) . . .
102(6) . . .
96(5) . . .
100(5) . . .
99(5) . . .
96(5) . . .
105(6) . . .
101(6) . . .
86(5) . . .
97(5) . . .
88(5) . . .
106(6) . . .
106(6) . . .
90(5) . . .
109(5) . . .
103(5) . . .
92(5) . . .
87(5) . . .
97(5) . . .
91(5) . . .
94(5) . . .
96(5) . . .
87(5) . . .
78(5) . . .
107(5) . . .
98(5) . . .
100(6) . . .
98(5) . . .
92(5) . . .
96(5) . . .
93(5) . . .
102(6) . . .
88(5) . . .
106(5) . . .
97(5) . . .
101(6) . . .
96(6) . . .
112(6) . . .
98(5) . . .
100(5) . . .
92(5) . . .
99(6) . . .
98(5) . . .
92(5) . . .
86(5) . . .
91(5) . . .
92(5) . . .
104(6) . . .
90(5) . . .
86(5) . . .
90(5) . . .
99(6) . . .
103(5) . . .
89(5) . . .
96(5) . . .
86(5) . . .
92(5) . . .
85(5) . . .
100(5) . . .
102(5) . . .
93(5) . . .
100(5) . . .
97(5) . . .
97(5) . . .
100(5) . . .
99(6) . . .
87(5) . . .
82(5) . . .
100(5) . . .
104(6) . . .
91(5) . . .
89(5) . . .
84(5) . . .
97(5) . . .
98(5) . . .
96(5) . . .
95(5) . . .
98(5) . . .
97(5) . . .
104(6) . . .
111(6) . . .
102(6) . . .
85(5) . . .
93(5) . . .
99(5) . . .
92(5) . . .
96(5) . . .
97(5) . . .
91(5) . . .
90(5) . . .
92(5) . . .
99(5) . . .
90(5) . . .
101(5) . . .
80(5) . . .
93(5) . . .
89(5) . . .
101(5) . . .
90(5) . . .
95(5) . . .
107(6) . . .
100(5) . . .
98(5) . . .
97(5) . . .
103(5) . . .
104(6) . . .
82(5) . . .
88(5) . . .
87(5) . . .
101(5) . . .
104(6) . . .
96(5) . . .
101(5) . . .
95(5) . . .
87(5) . . .
98(5) . . .
115(6) . . .
109(5) . . .
116(6) . . .
95(5) . . .
103(6) . . .
98(5) . . .
85(5) . . .
94(5) . . .
97(6) . . .
97(5) . . .
93(5) . . .
90(5) . . .
88(5) . . .
90(5) . . .
92(5) . . .
90(5) . . .
83(5) . . .
101(5) . . .
98(5) . . .
98(5) . . .
91(5) . . .
92(5) . . .
98(5) . . .
99(6) . . .
97(5) . . .
100(5) . . .
91(5) . . .
103(5) . . .
92(5) . . .
97(5) . . .
89(5) . . .
97(5) . . .
92(5) . . .
93(5) . . .
101(6) . . .
84(5) . . .
88(5) . . .
94(5) . . .
102(5) . . .
94(5) . . .
103(5) . . .
104(5) . . .
92(5) . . .
109(6) . . .
89(5) . . .
92(5) . . .
89(5) . . .
95(5) . . .
93(5) . . .
105(6) . . .
102(5) . . .
98(5) . . .
109(6) . . .
84(5) . . .
105(5) . . .
101(5) . . .
90(5) . . .
98(5) . . .
104(5) . . .
108(6) . . .
97(5) . . .
103(5) . . .
101(6) . . .
105(6) . . .
89(5) . . .
79(5) . . .
87(5) . . .
85(5) . . .
79(5) . . .
90(5) . . .
84(5) . . .
96(5) . . .
77(5) . . .
90(5) . . .
100(5) . . .
84(5) . . .
89(5) . . .
94(6) . . .
102(5) . . .
98(5) . . .
94(5) . . .
114(6) . . .
101(5) . . .
99(5) . . .
109(5) . . .
94(5) . . .
104(5) . . .
91(5) . . .
97(6) . . .
91(5) . . .
91(5) . . .
93(5) . . .
93(5) . . .
101(5) . . .
98(5) . . .
99(5) . . .
102(6) . . .
81(5) . . .
88(5) . . .
98(5) . . .
94(5) . . .
92(5) . . .
81(5) . . .
83(5) . . .
78(5) . . .
91(5) . . .
89(5) . . .
87(5) . . .
87(5) . . .
97(5) . . .
90(5) . . .
88(5) . . .
99(5) . . .
99(5) . . .
94(5) . . .
105(6) . . .
100(6) . . .
91(5) . . .
100(5) . . .
102(5) . . .
93(5) . . .
92(5) . . .
94(5) . . .
102(5) . . .
98(5) . . .
97(5) . . .
100(6) . . .
105(6) . . .
99(5) . . .
92(5) . . .
64(4) . . .
96(5) . . .
99(5) . . .
87(5) . . .
85(5) . . .
87(5) . . .
96(5) . . .
100(5) . . .
90(5) . . .
83(5) . . .
99(6) . . .
86(5) . . .
82(5) . . .
97(5) . . .
102(5) . . .
105(6) . . .
83(5) . . .
86(5) . . .
104(5) . . .
101(5) . . .
98(5) . . .
101(5) . . .
88(5) . . .
94(5) . . .
89(5) . . .
97(6) . . .
97(6) . . .
88(5) . . .
89(5) . . .
97(5) . . .
106(6) . . .
99(5) . . .
91(5) . . .
80(5) . . .
103(6) . . .
79(5) . . .
80(5) . . .
95(5) . . .
96(5) . . .
85(5) . . .
96(5) . . .
106(6) . . .
92(5) . . .
90(5) . . .
92(5) . . .
90(5) . . .
82(5) . . .
84(5) . . .
89(5) . . .
95(5) . . .
87(5) . . .
91(5) . . .
109(5) . . .
88(5) . . .
96(5) . . .
93(6) . . .
84(5) . . .
87(5) . . .
110(5) . . .
99(5) . . .
99(6) . . .
101(6) . . .
92(5) . . .
78(5) . . .
86(5) . . .
85(5) . . .
96(5) . . .
98(5) . . .
79(5) . . .
86(5) . . .
106(6) . . .
113(6) . . .
91(5) . . .
85(5) . . .
98(5) . . .
94(5) . . .
100(5) . . .
104(5) . . .
96(5) . . .
91(5) . . .
81(5) . . .
93(5) . . .
97(5) . . .
99(5) . . .
88(5) . . .
95(5) . . .
91(5) . . .
109(5) . . .
97(5) . . .
96(5) . . .
102(5) . . .
98(5) . . .
110(5) . . .
105(6) . . .
91(5) . . .
92(5) . . .
89(5) . . .
95(5) . . .
99(5) . . .
89(5) . . .
88(5) . . .
97(5) . . .
93(5) . . .
96(5) . . .
91(5) . . .
82(5) . . .
92(5) . . .
91(5) . . .
88(5) . . .
85(5) . . .
103(5) . . .
112(5) . . .
93(5) . . .
88(5) . . .
94(5) . . .
90(5) . . .
92(5) . . .
92(5) . . .
97(5) . . .
97(5) . . .
91(5) . . .
98(5) . . .
100(5) . . .
97(5) . . .
84(5) . . .
96(5) . . .
88(5) . . .
101(5) . . .
92(5) . . .
90(5) . . .
86(5) . . .
98(5) . . .
84(5) . . .
91(5) . . .
98(6) . . .
77(5) . . .
82(5) . . .
80(5) . . .
89(5) . . .
77(5) . . .
87(5) . . .
94(5) . . .
111(6) . . .
95(5) . . .
89(5) . . .
88(5) . . .
89(5) . . .
94(5) . . .
96(6) . . .
89(5) . . .
96(5) . . .
91(5) . . .
92(5) . . .
87(5) . . .
96(5) . . .
94(5) . . .
87(5) . . .
95(5) . . .
92(5) . . .
97(5) . . .
90(5) . . .
87(5) . . .
85(5) . . .
83(5) . . .
79(5) . . .
97(5) . . .
87(5) . . .
79(5) . . .
93(5) . . .
95(5) . . .
95(5) . . .
102(5) . . .
90(5) . . .
94(5) . . .
104(5) . . .
86(5) . . .
101(5) . . .
97(5) . . .
82(5) . . .
95(5) . . .
102(5) . . .
80(5) . . .
97(5) . . .
76(5) . . .
98(5) . . .
90(5) . . .
89(5) . . .
94(5) . . .
84(5) . . .
85(5) . . .
81(5) . . .
88(5) . . .
90(5) . . .
99(5) . . .
80(5) . . .
84(5) . . .
90(5) . . .
85(5) . . .
84(5) . . .
91(5) . . .
93(5) . . .
92(5) . . .
100(6) . . .
96(5) . . .
95(5) . . .
80(5) . . .
82(5) . . .
83(5) . . .
85(5) . . .
97(5) . . .
99(5) . . .
86(5) . . .
98(6) . . .
94(5) . . .
86(5) . . .
77(5) . . .
95(5) . . .
89(5) . . .
92(5) . . .
96(5) . . .
88(5) . . .
97(5) . . .
99(5) . . .
86(5) . . .
95(5) . . .
94(5) . . .
85(5) . . .
91(5) . . .
96(5) . . .
91(5) . . .
97(5) . . .
85(5) . . .
92(5) . . .
102(5) . . .
104(5) . . .
92(5) . . .
93(6) . . .
83(5) . . .
89(5) . . .
92(5) . . .
92(5) . . .
100(6) . . .
92(5) . . .
90(5) . . .
95(5) . . .
94(5) . . .
95(6) . . .
93(5) . . .
87(5) . . .
98(5) . . .
92(5) . . .
93(5) . . .
99(5) . . .
94(5) . . .
101(5) . . .
87(5) . . .
90(5) . . .
82(5) . . .
96(5) . . .
81(5) . . .
99(5) . . .
102(6) . . .
98(5) . . .
78(5) . . .
89(5) . . .
97(5) . . .
85(5) . . .
98(5) . . .
83(5) . . .
81(5) . . .
90(5) . . .
91(5) . . .
91(5) . . .
84(5) . . .
92(5) . . .
102(5) . . .
99(5) . . .
80(5) . . .
94(5) . . .
90(5) . . .
94(5) . . .
95(5) . . .
102(5) . . .
94(5) . . .
97(5) . . .
96(5) . . .
103(5) . . .
100(5) . . .
96(5) . . .
93(5) . . .
94(5) . . .
85(5) . . .
92(5) . . .
96(5) . . .
100(5) . . .
96(5) . . .
107(6) . . .
86(5) . . .
91(5) . . .
82(5) . . .
77(5) . . .
87(5) . . .
94(5) . . .
79(5) . . .
92(5) . . .
91(5) . . .
93(5) . . .
95(5) . . .
88(5) . . .
90(5) . . .
102(5) . . .
96(5) . . .
92(5) . . .
89(5) . . .
89(5) . . .
87(5) . . .
91(5) . . .
96(5) . . .
86(5) . . .
91(5) . . .
103(5) . . .
96(5) . . .
83(5) . . .
100(5) . . .
87(5) . . .
81(5) . . .
93(5) . . .
99(5) . . .
88(5) . . .
98(5) . . .
96(5) . . .
97(5) . . .
95(5) . . .
94(5) . . .
110(6) . . .
88(5) . . .
86(5) . . .
97(5) . . .
101(5) . . .
94(5) . . .
82(5) . . .
89(5) . . .
88(5) . . .
85(5) . . .
96(6) . . .
83(5) . . .
102(5) . . .
89(5) . . .
95(5) . . .
91(5) . . .
89(5) . . .
81(5) . . .
88(5) . . .
90(5) . . .
92(5) . . .
95(5) . . .
97(5) . . .
86(5) . . .
94(5) . . .
105(6) . . .
85(5) . . .
99(5) . . .
97(5) . . .
97(5) . . .
73(5) . . .
95(5) . . .
95(5) . . .
86(5) . . .
98(6) . . .
87(5) . . .
85(5) . . .
81(5) . . .
83(5) . . .
89(5) . . .
96(5) . . .
82(5) . . .
90(5) . . .
83(5) . . .
91(5) . . .
95(5) . . .
114(6) . . .
96(5) . . .
85(5) . . .
89(5) . . .
86(5) . . .
84(5) . . .
99(5) . . .
85(5) . . .
99(6) . . .
88(5) . . .
88(5) . . .
93(5) . . .
91(5) . . .
91(5) . . .
102(5) . . .
89(5) . . .
85(5) . . .
92(5) . . .
96(6) . . .
99(5) . . .
111(5) . . .
103(5) . . .
77(5) . . .
80(5) . . .
88(5) . . .
95(5) . . .
102(5) . . .
85(5) . . .
76(5) . . .
97(5) . . .
76(5) . . .
102(5) . . .
90(5) . . .
96(6) . . .
96(5) . . .
89(5) . . .
78(5) . . .
94(5) . . .
99(5) . . .
91(5) . . .
78(5) . . .
84(5) . . .
93(5) . . .
99(5) . . .
87(5) . . .
104(5) . . .
76(5) . . .
78(5) . . .
67(4) . . .
75(5) . . .
92(5) . . .
90(5) . . .
92(5) . . .
90(5) . . .
84(5) . . .
96(5) . . .
76(5) . . .
81(5) . . .
79(5) . . .
84(5) . . .
88(5) . . .
95(5) . . .
79(5) . . .
89(5) . . .
86(5) . . .
83(5) . . .
81(5) . . .
89(5) . . .
98(5) . . .
104(5) . . .
78(5) . . .
78(5) . . .
87(5) . . .
105(5) . . .
98(5) . . .
104(5) . . .
98(5) . . .
99(6) . . .
94(5) . . .
94(5) . . .
86(5) . . .
78(5) . . .
87(5) . . .
82(5) . . .
83(5) . . .
96(5) . . .
88(5) . . .
86(5) . . .
99(5) . . .
91(5) . . .
91(5) . . .
81(5) . . .
83(5) . . .
82(5) . . .
92(5) . . .
87(5) . . .
79(5) . . .
78(5) . . .
83(5) . . .
84(5) . . .
92(5) . . .
82(5) . . .
79(5) . . .
89(5) . . .
82(5) . . .
83(5) . . .
76(5) . . .
87(5) . . .
87(5) . . .
76(5) . . .
82(5) . . .
74(5) . . .
89(5) . . .
79(5) . . .
93(5) . . .
100(6) . . .
90(5) . . .
100(5) . . .
83(5) . . .
86(5) . . .
84(5) . . .
89(5) . . .
86(5) . . .
90(5) . . .
91(5) . . .
92(5) . . .
93(5) . . .
76(5) . . .
90(5) . . .
88(5) . . .
77(5) . . .
85(5) . . .
81(5) . . .
92(5) . . .
69(4) . . .
97(5) . . .
93(5) . . .
98(6) . . .
81(5) . . .
90(5) . . .
88(5) . . .
87(5) . . .
96(5) . . .
97(5) . . .
86(5) . . .
92(5) . . .
75(5) . . .
79(5) . . .
88(5) . . .
78(5) . . .
87(5) . . .
88(5) . . .
82(5) . . .
83(5) . . .
73(5) . . .
90(5) . . .
90(5) . . .
81(5) . . .
95(5) . . .
78(5) . . .
78(5) . . .
95(5) . . .
85(5) . . .
93(5) . . .
82(5) . . .
78(5) . . .
81(5) . . .
102(5) . . .
87(5) . . .
87(5) . . .
85(5) . . .
87(5) . . .
86(5) . . .
97(5) . . .
91(5) . . .
82(5) . . .
82(5) . . .
77(5) . . .
81(5) . . .
87(5) . . .
94(5) . . .
84(5) . . .
93(5) . . .
89(5) . . .
90(5) . . .
79(5) . . .
94(5) . . .
97(5) . . .
97(5) . . .
80(5) . . .
93(5) . . .
100(5) . . .
95(5) . . .
96(5) . . .
81(5) . . .
86(5) . . .
86(5) . . .
98(5) . . .
82(5) . . .
74(5) . . .
86(5) . . .
86(5) . . .
80(5) . . .
82(5) . . .
83(5) . . .
85(5) . . .
87(5) . . .
98(5) . . .
94(5) . . .
87(5) . . .
90(5) . . .
90(5) . . .
89(5) . . .
74(4) . . .
98(6) . . .
108(6) . . .
85(5) . . .
109(6) . . .
99(5) . . .
87(5) . . .
86(5) . . .
91(5) . . .
84(5) . . .
89(5) . . .
104(6) . . .
90(5) . . .
88(5) . . .
86(5) . . .
79(5) . . .
74(5) . . .
77(5) . . .
83(5) . . .
84(5) . . .
88(5) . . .
95(5) . . .
82(5) . . .
83(5) . . .
81(5) . . .
87(5) . . .
91(5) . . .
84(5) . . .
87(5) . . .
93(5) . . .
85(5) . . .
94(5) . . .
102(5) . . .
86(5) . . .
95(5) . . .
82(5) . . .
79(5) . . .
81(5) . . .
105(5) . . .
88(5) . . .
93(5) . . .
89(5) . . .
99(5) . . .
81(5) . . .
83(5) . . .
88(5) . . .
93(5) . . .
94(5) . . .
78(5) . . .
82(5) . . .
77(5) . . .
75(5) . . .
85(5) . . .
84(5) . . .
89(5) . . .
84(5) . . .
81(5) . . .
80(5) . . .
83(5) . . .
95(5) . . .
96(5) . . .
85(5) . . .
99(5) . . .
90(5) . . .
82(5) . . .
93(5) . . .
96(5) . . .
88(5) . . .
83(5) . . .
86(5) . . .
90(5) . . .
80(5) . . .
82(5) . . .
100(5) . . .
109(6) . . .
100(5) . . .
76(5) . . .
85(5) . . .
90(5) . . .
108(6) . . .
82(5) . . .
90(5) . . .
75(5) . . .
83(5) . . .
84(5) . . .
82(5) . . .
89(5) . . .
83(5) . . .
82(5) . . .
81(5) . . .
88(5) . . .
73(5) . . .
80(5) . . .
83(5) . . .
75(5) . . .
82(5) . . .
81(5) . . .
74(4) . . .
76(5) . . .
85(5) . . .
80(5) . . .
73(4) . . .
92(5) . . .
79(5) . . .
75(5) . . .
93(5) . . .
74(5) . . .
88(5) . . .
86(5) . . .
85(5) . . .
78(5) . . .
79(5) . . .
91(5) . . .
75(5) . . .
97(6) . . .
97(5) . . .
71(4) . . .
88(5) . . .
79(5) . . .
85(5) . . .
94(5) . . .
85(5) . . .
80(5) . . .
71(4) . . .
82(5) . . .
89(5) . . .
84(5) . . .
79(5) . . .
94(5) . . .
85(5) . . .
79(5) . . .
89(5) . . .
79(5) . . .
78(5) . . .
84(5) . . .
85(5) . . .
80(5) . . .
85(5) . . .
85(5) . . .
99(6) . . .
97(5) . . .
94(5) . . .
82(5) . . .
84(5) . . .
97(5) . . .
80(5) . . .
76(4) . . .
91(5) . . .
73(5) . . .
85(5) . . .
101(5) . . .
89(5) . . .
85(5) . . .
83(5) . . .
85(5) . . .
94(5) . . .
98(5) . . .
96(5) . . .
81(5) . . .
84(5) . . .
85(5) . . .
80(5) . . .
87(5) . . .
82(5) . . .
81(5) . . .
87(5) . . .
79(5) . . .
93(5) . . .
74(5) . . .
84(5) . . .
74(4) . . .
82(5) . . .
86(5) . . .
89(5) . . .
80(5) . . .
78(5) . . .
82(5) . . .
83(5) . . .
84(5) . . .
75(5) . . .
87(5) . . .
83(5) . . .
66(4) . . .
67(4) . . .
96(5) . . .
80(5) . . .
85(5) . . .
91(5) . . .
91(5) . . .
98(5) . . .
76(5) . . .
83(5) . . .
81(5) . . .
86(5) . . .
86(5) . . .
94(5) . . .
98(5) . . .
78(5) . . .
85(5) . . .
88(5) . . .
85(5) . . .
85(5) . . .
83(5) . . .
86(5) . . .
91(5) . . .
87(5) . . .
83(5) . . .
94(6) . . .
89(5) . . .
88(5) . . .
78(5) . . .
79(5) . . .
92(5) . . .
84(5) . . .
80(5) . . .
77(5) . . .
92(5) . . .
90(5) . . .
88(5) . . .
85(5) . . .
97(5) . . .
83(5) . . .
77(5) . . .
103(5) . . .
96(5) . . .
87(5) . . .
86(5) . . .
84(5) . . .
83(5) . . .
71(4) . . .
83(5) . . .
88(5) . . .
82(5) . . .
90(5) . . .
90(5) . . .
82(5) . . .
81(5) . . .
91(5) . . .
95(5) . . .
87(5) . . .
84(5) . . .
88(5) . . .
93(5) . . .
79(5) . . .
80(5) . . .
91(5) . . .
90(5) . . .
78(5) . . .
82(5) . . .
84(5) . . .
80(5) . . .
81(5) . . .
85(5) . . .
88(5) . . .
79(5) . . .
75(5) . . .
88(5) . . .
87(5) . . .
99(5) . . .
71(4) . . .
84(5) . . .
86(5) . . .
85(5) . . .
89(5) . . .
86(5) . . .
86(5) . . .
96(6) . . .
80(5) . . .
78(5) . . .
73(4) . . .
74(5) . . .
90(5) . . .
84(5) . . .
78(5) . . .
101(5) . . .
87(5) . . .
88(5) . . .
99(6) . . .
89(5) . . .
94(5) . . .
82(5) . . .
99(6) . . .
75(5) . . .
77(5) . . .
80(5) . . .
86(5) . . .
87(5) . . .
88(5) . . .
90(5) . . .
85(5) . . .
82(5) . . .
75(5) . . .
86(5) . . .
77(5) . . .
71(5) . . .
84(5) . . .
81(5) . . .
90(5) . . .
87(5) . . .
76(5) . . .
86(5) . . .
91(5) . . .
73(4) . . .
90(5) . . .
85(5) . . .
84(5) . . .
77(5) . . .
77(5) . . .
84(5) . . .
81(5) . . .
95(5) . . .
83(5) . . .
77(5) . . .
95(5) . . .
81(5) . . .
91(5) . . .
82(5) . . .
72(4) . . .
86(5) . . .
87(5) . . .
85(5) . . .
84(5) . . .
100(5) . . .
77(5) . . .
85(5) . . .
76(5) . . .
82(5) . . .
75(4) . . .
103(5) . . .
84(5) . . .
87(5) . . .
85(5) . . .
89(5) . . .
87(5) . . .
78(5) . . .
89(5) . . .
86(5) . . .
80(5) . . .
86(5) . . .
82(5) . . .
83(5) . . .
81(5) . . .
86(5) . . .
79(5) . . .
89(5) . . .
75(5) . . .
81(5) . . .
83(5) . . .
82(5) . . .
78(5) . . .
80(5) . . .
87(5) . . .
87(5) . . .
92(5) . . .
88(5) . . .
78(5) . . .
76(5) . . .
83(5) . . .
98(6) . . .
90(5) . . .
79(5) . . .
85(5) . . .
80(5) . . .
77(5) . . .
91(5) . . .
84(5) . . .
75(5) . . .
78(5) . . .
83(5) . . .
93(5) . . .
81(5) . . .
92(5) . . .
81(5) . . .
98(5) . . .
92(5) . . .
79(5) . . .
82(5) . . .
90(5) . . .
105(6) . . .
95(5) . . .
91(5) . . .
80(5) . . .
83(5) . . .
98(6) . . .
79(5) . . .
89(5) . . .
81(5) . . .
70(5) . . .
90(5) . . .
90(5) . . .
91(5) . . .
94(5) . . .
89(5) . . .
95(5) . . .
78(5) . . .
71(4) . . .
73(4) . . .
95(6) . . .
91(5) . . .
75(5) . . .
88(5) . . .
87(5) . . .
86(5) . . .
85(5) . . .
79(5) . . .
86(5) . . .
82(5) . . .
81(5) . . .
104(6) . . .
80(5) . . .
70(4) . . .
78(5) . . .
93(5) . . .
77(5) . . .
80(5) . . .
92(5) . . .
90(5) . . .
87(5) . . .
80(5) . . .
77(5) . . .
78(5) . . .
77(5) . . .
83(5) . . .
76(5) . . .
79(5) . . .
85(5) . . .
77(5) . . .
83(5) . . .
93(5) . . .
96(6) . . .
76(5) . . .
79(5) . . .
79(5) . . .
82(5) . . .
81(5) . . .
85(5) . . .
87(5) . . .
78(5) . . .
85(5) . . .
82(5) . . .
87(5) . . .
87(5) . . .
78(5) . . .
85(5) . . .
91(5) . . .
75(5) . . .
78(5) . . .
77(5) . . .
81(5) . . .
81(5) . . .
72(4) . . .
98(6) . . .
97(5) . . .
103(6) . . .
101(5) . . .
87(5) . . .
87(5) . . .
96(6) . . .
91(5) . . .
82(5) . . .
83(5) . . .
95(6) . . .
80(5) . . .
76(5) . . .
78(5) . . .
85(5) . . .
95(5) . . .
81(5) . . .
89(5) . . .
82(5) . . .
83(5) . . .
81(5) . . .
74(5) . . .
73(5) . . .
81(5) . . .
85(5) . . .
74(4) . . .
81(5) . . .
82(5) . . .
75(5) . . .
83(5) . . .
73(5) . . .
76(5) . . .
75(5) . . .
77(5) . . .
85(5) . . .
84(5) . . .
88(5) . . .
80(5) . . .
86(5) . . .
85(5) . . .
82(5) . . .
76(5) . . .
83(5) . . .
78(5) . . .
85(5) . . .
75(5) . . .
78(5) . . .
73(4) . . .
84(5) . . .
86(5) . . .
68(5) . . .
72(4) . . .
74(5) . . .
83(5) . . .
81(5) . . .
69(4) . . .
75(5) . . .
70(4) . . .
81(5) . . .
84(5) . . .
86(5) . . .
78(5) . . .
81(5) . . .
75(4) . . .
82(5) . . .
100(6) . . .
94(5) . . .
83(5) . . .
93(5) . . .
87(5) . . .
88(5) . . .
88(5) . . .
91(5) . . .
82(5) . . .
80(5) . . .
74(5) . . .
86(5) . . .
81(5) . . .
84(5) . . .
89(5) . . .
89(5) . . .
93(5) . . .
76(5) . . .
80(5) . . .
84(5) . . .
76(5) . . .
88(5) . . .
70(4) . . .
76(5) . . .
89(5) . . .
90(5) . . .
70(4) . . .
69(4) . . .
74(5) . . .
75(5) . . .
77(5) . . .
77(5) . . .
93(5) . . .
83(5) . . .
87(5) . . .
73(5) . . .
80(5) . . .
83(5) . . .
86(5) . . .
86(5) . . .
91(5) . . .
87(5) . . .
81(5) . . .
70(4) . . .
79(5) . . .
91(5) . . .
93(5) . . .
81(5) . . .
82(5) . . .
75(5) . . .
75(5) . . .
82(5) . . .
82(5) . . .
78(5) . . .
76(5) . . .
88(5) . . .
81(5) . . .
70(4) . . .
71(5) . . .
82(5) . . .
85(5) . . .
84(5) . . .
83(5) . . .
91(5) . . .
73(5) . . .
83(5) . . .
86(5) . . .
72(5) . . .
75(5) . . .
78(5) . . .
79(5) . . .
102(5) . . .
80(5) . . .
75(5) . . .
78(5) . . .
97(5) . . .
82(5) . . .
83(5) . . .
89(5) . . .
80(5) . . .
77(5) . . .
90(5) . . .
83(5) . . .
89(5) . . .
79(5) . . .
74(5) . . .
67(4) . . .
77(5) . . .
78(5) . . .
76(5) . . .
75(5) . . .
84(5) . . .
76(5) . . .
91(5) . . .
91(5) . . .
89(5) . . .
86(5) . . .
72(4) . . .
84(5) . . .
84(5) . . .
83(5) . . .
87(5) . . .
79(5) . . .
67(5) . . .
78(5) . . .
77(5) . . .
65(4) . . .
73(5) . . .
81(5) . . .
82(5) . . .
79(5) . . .
83(5) . . .
81(5) . . .
77(5) . . .
68(4) . . .
85(5) . . .
72(4) . . .
80(5) . . .
71(4) . . .
79(5) . . .
77(5) . . .
90(5) . . .
73(5) . . .
69(4) . . .
79(5) . . .
69(4) . . .
75(5) . . .
81(5) . . .
79(5) . . .
75(5) . . .
88(5) . . .
69(5) . . .
74(5) . . .
85(5) . . .
68(4) . . .
75(5) . . .
78(5) . . .
86(5) . . .
74(4) . . .
75(4) . . .
86(5) . . .
85(5) . . .
80(5) . . .
82(5) . . .
87(5) . . .
82(5) . . .
78(5) . . .
74(5) . . .
84(5) . . .
83(5) . . .
79(5) . . .
94(5) . . .
84(5) . . .
78(5) . . .
74(5) . . .
88(5) . . .
81(5) . . .
70(5) . . .
86(5) . . .
79(5) . . .
79(5) . . .
81(5) . . .
85(5) . . .
84(5) . . .
82(5) . . .
71(4) . . .
79(5) . . .
70(5) . . .
92(5) . . .
73(4) . . .
94(5) . . .
76(5) . . .
78(5) . . .
81(5) . . .
77(5) . . .
85(5) . . .
82(5) . . .
73(4) . . .
93(5) . . .
80(5) . . .
82(5) . . .
73(5) . . .
97(6) . . .
81(5) . . .
100(5) . . .
69(4) . . .
80(5) . . .
79(5) . . .
64(4) . . .
77(5) . . .
98(6) . . .
73(5) . . .
68(4) . . .
89(5) . . .
79(5) . . .
86(5) . . .
80(5) . . .
74(5) . . .
74(4) . . .
77(5) . . .
88(5) . . .
78(5) . . .
74(5) . . .
79(5) . . .
87(5) . . .
75(5) . . .
89(5) . . .
83(5) . . .
80(5) . . .
79(5) . . .
80(5) . . .
86(5) . . .
76(5) . . .
71(4) . . .
84(5) . . .
82(5) . . .
80(5) . . .
83(5) . . .
78(5) . . .
78(5) . . .
84(5) . . .
81(5) . . .
59(4) . . .
84(5) . . .
86(5) . . .
82(5) . . .
83(5) . . .
79(5) . . .
84(5) . . .
87(5) . . .
84(5) . . .
67(4) . . .
86(5) . . .
85(5) . . .
85(5) . . .
74(5) . . .
82(5) . . .
90(5) . . .
81(5) . . .
69(5) . . .
62(4) . . .
83(5) . . .
78(5) . . .
79(5) . . .
73(5) . . .
64(4) . . .
83(5) . . .
84(5) . . .
76(4) . . .
86(5) . . .
84(5) . . .
74(5) . . .
89(5) . . .
75(5) . . .
88(5) . . .
77(5) . . .
79(5) . . .
75(4) . . .
79(5) . . .
86(5) . . .
95(5) . . .
82(5) . . .
76(5) . . .
81(5) . . .
76(5) . . .
84(5) . . .
79(5) . . .
85(5) . . .
72(4) . . .
97(5) . . .
74(5) . . .
70(4) . . .
73(4) . . .
80(5) . . .
92(5) . . .
71(4) . . .
77(5) . . .
67(4) . . .
72(5) . . .
78(5) . . .
81(5) . . .
75(5) . . .
79(5) . . .
78(5) . . .
80(5) . . .
84(5) . . .
73(4) . . .
77(5) . . .
69(4) . . .
66(4) . . .
91(5) . . .
76(5) . . .
78(5) . . .
84(5) . . .
79(5) . . .
80(5) . . .
90(5) . . .
85(5) . . .
71(4) . . .
81(5) . . .
71(4) . . .
70(4) . . .
74(4) . . .
86(5) . . .
66(4) . . .
65(4) . . .
71(4) . . .
74(5) . . .
65(4) . . .
86(5) . . .
77(5) . . .
80(5) . . .
80(5) . . .
71(4) . . .
79(5) . . .
71(4) . . .
73(4) . . .
79(5) . . .
84(5) . . .
85(5) . . .
81(5) . . .
74(4) . . .
77(5) . . .
63(4) . . .
63(4) . . .
85(5) . . .
71(4) . . .
87(5) . . .
99(6) . . .
82(5) . . .
77(5) . . .
86(5) . . .
75(5) . . .
74(5) . . .
81(5) . . .
92(5) . . .
81(5) . . .
77(5) . . .
85(5) . . .
82(5) . . .
79(5) . . .
66(4) . . .
81(5) . . .
89(5) . . .
85(5) . . .
70(4) . . .
74(4) . . .
79(5) . . .
84(5) . . .
90(5) . . .
86(5) . . .
84(5) . . .
81(5) . . .
77(5) . . .
78(5) . . .
77(5) . . .
80(5) . . .
81(5) . . .
72(5) . . .
75(5) . . .
72(4) . . .
91(5) . . .
89(5) . . .
78(5) . . .
70(5) . . .
84(5) . . .
89(5) . . .
84(5) . . .
81(5) . . .
70(4) . . .
79(5) . . .
78(5) . . .
80(5) . . .
73(5) . . .
76(5) . . .
65(4) . . .
80(5) . . .
85(5) . . .
85(5) . . .
75(4) . . .
79(5) . . .
85(5) . . .
79(5) . . .
75(5) . . .
76(5) . . .
90(5) . . .
82(5) . . .
76(5) . . .
69(4) . . .
82(5) . . .
70(4) . . .
85(5) . . .
99(6) . . .
81(5) . . .
79(5) . . .
73(4) . . .
79(5) . . .
75(5) . . .
69(4) . . .
78(5) . . .
71(4) . . .
77(5) . . .
76(5) . . .
65(4) . . .
84(5) . . .
74(4) . . .
79(5) . . .
78(5) . . .
77(5) . . .
74(5) . . .
86(5) . . .
91(5) . . .
75(5) . . .
80(5) . . .
80(5) . . .
77(5) . . .
86(5) . . .
88(5) . . .
86(5) . . .
91(5) . . .
84(5) . . .
94(6) . . .
81(5) . . .
78(5) . . .
71(4) . . .
68(4) . . .
70(5) . . .
78(5) . . .
82(5) . . .
83(5) . . .
75(5) . . .
71(5) . . .
71(4) . . .
80(5) . . .
80(5) . . .
85(5) . . .
74(5) . . .
79(5) . . .
87(5) . . .
86(5) . . .
83(5) . . .
86(5) . . .
84(5) . . .
81(5) . . .
73(5) . . .
88(5) . . .
83(5) . . .
79(5) . . .
65(4) . . .
79(5) . . .
68(4) . . .
73(5) . . .
77(5) . . .
81(5) . . .
81(5) . . .
90(5) . . .
78(5) . . .
80(5) . . .
81(5) . . .
78(5) . . .
69(4) . . .
74(5) . . .
71(4) . . .
73(5) . . .
86(5) . . .
66(4) . . .
75(5) . . .
79(5) . . .
73(4) . . .
80(5) . . .
67(4) . . .
80(5) . . .
67(4) . . .
83(5) . . .
73(5) . . .
74(5) . . .
76(5) . . .
83(5) . . .
86(5) . . .
76(5) . . .
88(5) . . .
74(5) . . .
70(5) . . .
86(5) . . .
74(5) . . .
65(5) . . .
76(5) . . .
62(4) . . .
75(5) . . .
86(5) . . .
71(5) . . .
77(5) . . .
81(5) . . .
73(4) . . .
67(4) . . .
77(5) . . .
67(4) . . .
86(5) . . .
76(4) . . .
67(4) . . .
82(5) . . .
70(4) . . .
67(4) . . .
78(5) . . .
83(5) . . .
76(5) . . .
82(5) . . .
70(4) . . .
71(4) . . .
71(4) . . .
68(5) . . .
76(5) . . .
88(5) . . .
79(5) . . .
74(5) . . .
75(5) . . .
74(5) . . .
82(5) . . .
82(5) . . .
72(5) . . .
79(5) . . .
68(4) . . .
66(4) . . .
78(5) . . .
69(5) . . .
81(5) . . .
81(5) . . .
82(5) . . .
72(5) . . .
76(5) . . .
81(5) . . .
82(5) . . .
90(5) . . .
70(4) . . .
73(5) . . .
90(5) . . .
71(4) . . .
75(5) . . .
82(5) . . .
89(5) . . .
81(5) . . .
81(5) . . .
74(4) . . .
87(5) . . .
75(5) . . .
78(5) . . .
71(4) . . .
78(5) . . .
73(4) . . .
83(5) . . .
81(5) . . .
73(5) . . .
79(5) . . .
80(5) . . .
79(5) . . .
83(5) . . .
81(5) . . .
75(5) . . .
70(5) . . .
83(5) . . .
82(5) . . .
82(5) . . .
74(4) . . .
79(5) . . .
73(4) . . .
80(5) . . .
86(5) . . .
73(4) . . .
85(5) . . .
71(5) . . .
93(5) . . .
77(5) . . .
72(5) . . .
82(5) . . .
75(5) . . .
71(4) . . .
73(4) . . .
76(5) . . .
79(5) . . .
72(4) . . .
73(4) . . .
63(4) . . .
68(4) . . .
73(5) . . .
60(4) . . .
61(4) . . .
84(5) . . .
83(5) . . .
75(5) . . .
65(4) . . .
74(5) . . .
69(4) . . .
73(4) . . .
70(4) . . .
69(5) . . .
65(4) . . .
82(5) . . .
68(4) . . .
76(5) . . .
69(4) . . .
74(4) . . .
83(5) . . .
74(5) . . .
76(5) . . .
71(4) . . .
71(4) . . .
76(5) . . .
83(5) . . .
66(5) . . .
70(5) . . .
83(5) . . .
70(4) . . .
83(5) . . .
85(5) . . .
81(5) . . .
74(4) . . .
66(4) . . .
66(4) . . .
60(4) . . .
87(5) . . .
75(4) . . .
84(5) . . .
72(5) . . .
67(4) . . .
76(5) . . .
76(5) . . .
85(5) . . .
89(5) . . .
79(5) . . .
78(5) . . .
74(4) . . .
78(5) . . .
88(5) . . .
71(5) . . .
58(4) . . .
76(4) . . .
89(5) . . .
83(5) . . .
85(5) . . .
84(5) . . .
79(5) . . .
88(5) . . .
70(4) . . .
71(4) . . .
76(5) . . .
69(4) . . .
56(4) . . .
76(5) . . .
88(5) . . .
83(5) . . .
77(5) . . .
77(5) . . .
70(5) . . .
69(5) . . .
68(4) . . .
78(5) . . .
66(4) . . .
79(5) . . .
70(4) . . .
65(4) . . .
79(5) . . .
66(4) . . .
75(5) . . .
83(5) . . .
76(5) . . .
68(4) . . .
73(5) . . .
72(5) . . .
74(5) . . .
71(4) . . .
67(5) . . .
64(4) . . .
73(5) . . .
82(5) . . .
76(5) . . .
78(5) . . .
71(4) . . .
80(5) . . .
76(5) . . .
76(5) . . .
67(5) . . .
81(5) . . .
70(4) . . .
71(4) . . .
79(5) . . .
74(5) . . .
91(5) . . .
87(5) . . .
80(5) . . .
63(4) . . .
74(5) . . .
77(5) . . .
87(5) . . .
82(5) . . .
87(5) . . .
67(5) . . .
77(5) . . .
74(4) . . .
75(5) . . .
74(4) . . .
70(4) . . .
74(5) . . .
85(5) . . .
72(4) . . .
62(4) . . .
65(4) . . .
87(5) . . .
77(5) . . .
86(5) . . .
76(4) . . .
86(5) . . .
68(4) . . .
74(5) . . .
65(4) . . .
83(5) . . .
90(5) . . .
88(5) . . .
78(5) . . .
74(5) . . .
79(5) . . .
76(5) . . .
81(5) . . .
75(5) . . .
77(5) . . .
82(5) . . .
76(5) . . .
78(5) . . .
72(5) . . .
75(4) . . .
73(5) . . .
79(5) . . .
82(5) . . .
70(4) . . .
73(5) . . .
69(4) . . .
76(5) . . .
64(4) . . .
82(5) . . .
72(4) . . .
73(5) . . .
70(5) . . .
75(5) . . .
77(5) . . .
74(4) . . .
83(5) . . .
65(4) . . .
81(5) . . .
79(5) . . .
71(4) . . .
76(5) . . .
81(5) . . .
72(4) . . .
74(4) . . .
85(5) . . .
64(4) . . .
90(5) . . .
64(4) . . .
73(4) . . .
82(5) . . .
76(5) . . .
64(5) . . .
63(4) . . .
68(4) . . .
82(5) . . .
75(5) . . .
82(5) . . .
94(5) . . .
70(4) . . .
80(5) . . .
73(5) . . .
70(5) . . .
77(5) . . .
89(5) . . .
70(4) . . .
80(5) . . .
80(5) . . .
61(4) . . .
91(5) . . .
78(5) . . .
80(5) . . .
68(4) . . .
77(5) . . .
78(5) . . .
73(4) . . .
75(5) . . .
72(4) . . .
71(4) . . .
66(4) . . .
69(4) . . .
77(5) . . .
91(5) . . .
83(5) . . .
83(5) . . .
76(5) . . .
70(5) . . .
62(4) . . .
81(5) . . .
69(4) . . .
70(5) . . .
80(5) . . .
77(5) . . .
89(5) . . .
90(5) . . .
72(5) . . .
67(4) . . .
86(5) . . .
79(5) . . .
72(4) . . .
87(5) . . .
74(5) . . .
81(5) . . .
83(5) . . .
73(4) . . .
79(5) . . .
86(5) . . .
82(5) . . .
87(5) . . .
70(4) . . .
76(5) . . .
66(4) . . .
67(4) . . .
81(5) . . .
71(4) . . .
97(6) . . .
63(4) . . .
68(4) . . .
81(5) . . .
81(5) . . .
69(4) . . .
90(5) . . .
75(5) . . .
72(4) . . .
61(4) . . .
61(4) . . .
83(5) . . .
74(4) . . .
70(4) . . .
76(5) . . .
82(5) . . .
75(5) . . .
69(4) . . .
72(4) . . .
78(5) . . .
80(5) . . .
63(4) . . .
75(4) . . .
72(4) . . .
83(5) . . .
72(5) . . .
69(4) . . .
68(4) . . .
92(5) . . .
87(5) . . .
84(5) . . .
79(5) . . .
84(5) . . .
73(5) . . .
70(5) . . .
78(5) . . .
86(5) . . .
70(4) . . .
73(5) . . .
77(5) . . .
75(5) . . .
79(5) . . .
87(5) . . .
73(5) . . .
65(4) . . .
75(5) . . .
81(5) . . .
79(5) . . .
74(4) . . .
86(5) . . .
86(5) . . .
90(5) . . .
74(5) . . .
64(4) . . .
72(5) . . .
84(5) . . .
83(5) . . .
75(5) . . .
74(5) . . .
75(5) . . .
78(5) . . .
75(5) . . .
88(5) . . .
85(5) . . .
84(5) . . .
65(4) . . .
75(4) . . .
75(4) . . .
84(5) . . .
81(5) . . .
77(5) . . .
60(4) . . .
69(4) . . .
76(5) . . .
77(5) . . .
64(4) . . .
73(4) . . .
76(5) . . .
81(5) . . .
74(5) . . .
71(5) . . .
70(4) . . .
81(5) . . .
74(5) . . .
79(5) . . .
71(5) . . .
64(4) . . .
81(5) . . .
89(5) . . .
79(5) . . .
81(5) . . .
83(5) . . .
79(5) . . .
71(5) . . .
85(5) . . .
80(5) . . .
75(4) . . .
74(5) . . .
87(5) . . .
86(5) . . .
68(5) . . .
88(5) . . .
72(4) . . .
87(5) . . .
69(5) . . .
72(4) . . .
85(5) . . .
81(5) . . .
72(5) . . .
78(5) . . .
71(4) . . .
66(4) . . .
83(5) . . .
74(5) . . .
74(5) . . .
63(4) . . .
67(4) . . .
87(5) . . .
80(5) . . .
76(5) . . .
61(4) . . .
83(5) . . .
84(5) . . .
69(5) . . .
64(4) . . .
67(4) . . .
88(5) . . .
79(5) . . .
66(5) . . .
88(6) . . .
76(5) . . .
73(4) . . .
75(5) . . .
63(4) . . .
80(5) . . .
65(4) . . .
74(5) . . .
77(5) . . .
70(4) . . .
66(4) . . .
71(4) . . .
70(4) . . .
78(5) . . .
75(5) . . .
77(5) . . .
83(5) . . .
79(5) . . .
64(4) . . .
66(4) . . .
72(5) . . .
67(4) . . .
78(5) . . .
77(5) . . .
75(5) . . .
78(5) . . .
71(4) . . .
68(4) . . .
69(5) . . .
61(4) . . .
68(4) . . .
81(5) . . .
84(5) . . .
81(5) . . .
72(5) . . .
65(4) . . .
72(4) . . .
83(5) . . .
72(5) . . .
65(4) . . .
81(5) . . .
71(4) . . .
77(5) . . .
70(5) . . .
68(5) . . .
65(4) . . .
76(5) . . .
69(5) . . .
83(5) . . .
72(4) . . .
78(5) . . .
69(4) . . .
80(5) . . .
74(5) . . .
66(4) . . .
66(4) . . .
75(5) . . .
82(5) . . .
85(5) . . .
84(5) . . .
67(4) . . .
74(5) . . .
65(4) . . .
75(5) . . .
85(5) . . .
71(4) . . .
84(5) . . .
66(4) . . .
73(5) . . .
81(5) . . .
72(4) . . .
61(4) . . .
68(4) . . .
74(5) . . .
60(4) . . .
77(5) . . .
73(4) . . .
74(5) . . .
80(5) . . .
80(5) . . .
78(5) . . .
74(5) . . .
89(5) . . .
87(5) . . .
91(5) . . .
81(5) . . .
85(5) . . .
76(5) . . .
70(4) . . .
74(5) . . .
63(4) . . .
71(5) . . .
66(5) . . .
78(5) . . .
77(5) . . .
64(4) . . .
80(5) . . .
65(4) . . .
78(5) . . .
63(4) . . .
65(4) . . .
69(5) . . .
61(4) . . .
73(5) . . .
82(5) . . .
65(4) . . .
89(5) . . .
83(5) . . .
89(5) . . .
74(4) . . .
77(5) . . .
72(4) . . .
67(4) . . .
75(5) . . .
76(5) . . .
74(4) . . .
83(5) . . .
67(4) . . .
75(5) . . .
78(5) . . .
71(4) . . .
76(5) . . .
72(5) . . .
68(4) . . .
68(4) . . .
76(5) . . .
72(5) . . .
78(5) . . .
79(5) . . .
87(5) . . .
85(5) . . .
76(5) . . .
68(4) . . .
64(4) . . .
79(5) . . .
86(5) . . .
81(5) . . .
84(5) . . .
79(5) . . .
77(5) . . .
74(5) . . .
67(5) . . .
79(5) . . .
82(5) . . .
83(5) . . .
65(4) . . .
70(5) . . .
72(5) . . .
81(5) . . .
75(4) . . .
83(5) . . .
75(5) . . .
74(5) . . .
76(5) . . .
79(5) . . .
79(5) . . .
69(5) . . .
78(5) . . .
74(5) . . .
77(5) . . .
77(5) . . .
78(5) . . .
79(5) . . .
70(4) . . .
78(5) . . .
82(5) . . .
76(5) . . .
78(5) . . .
74(4) . . .
74(5) . . .
68(4) . . .
81(5) . . .
75(5) . . .
59(4) . . .
71(4) . . .
70(4) . . .
77(5) . . .
79(5) . . .
85(5) . . .
70(4) . . .
76(5) . . .
80(5) . . .
82(5) . . .
69(4) . . .
67(4) . . .
76(5) . . .
80(5) . . .
66(4) . . .
69(4) . . .
70(4) . . .
67(4) . . .
73(4) . . .
79(5) . . .
85(5) . . .
83(5) . . .
82(5) . . .
70(4) . . .
84(5) . . .
83(5) . . .
83(5) . . .
67(5) . . .
77(5) . . .
65(4) . . .
78(5) . . .
77(5) . . .
78(5) . . .
63(4) . . .
65(4) . . .
66(4) . . .
68(4) . . .
74(5) . . .
70(4) . . .
71(4) . . .
86(5) . . .
71(5) . . .
60(4) . . .
70(5) . . .
69(4) . . .
81(5) . . .
79(5) . . .
67(5) . . .
69(4) . . .
66(4) . . .
75(5) . . .
82(5) . . .
85(5) . . .
77(5) . . .
65(4) . . .
72(5) . . .
76(5) . . .
68(4) . . .
72(4) . . .
83(5) . . .
67(4) . . .
70(4) . . .
82(5) . . .
71(4) . . .
64(4) . . .
78(5) . . .
81(5) . . .
63(4) . . .
76(5) . . .
75(5) . . .
79(5) . . .
89(5) . . .
82(5) . . .
64(4) . . .
64(4) . . .
72(5) . . .
75(5) . . .
74(5) . . .
59(4) . . .
75(5) . . .
74(5) . . .
73(5) . . .
64(4) . . .
62(4) . . .
70(4) . . .
71(5) . . .
72(5) . . .
75(5) . . .
64(4) . . .
68(4) . . .
70(4) . . .
69(4) . . .
71(5) . . .
67(4) . . .
67(4) . . .
60(4) . . .
70(4) . . .
72(4) . . .
73(4) . . .
65(4) . . .
70(5) . . .
67(4) . . .
70(4) . . .
74(4) . . .
81(5) . . .
67(5) . . .
71(5) . . .
73(5) . . .
78(5) . . .
66(4) . . .
77(5) . . .
65(4) . . .
71(5) . . .
76(5) . . .
74(5) . . .
76(5) . . .
71(4) . . .
66(4) . . .
71(4) . . .
81(5) . . .
75(5) . . .
69(4) . . .
83(5) . . .
75(5) . . .
69(4) . . .
69(4) . . .
70(4) . . .
75(4) . . .
74(4) . . .
76(5) . . .
79(5) . . .
66(4) . . .
70(4) . . .
65(4) . . .
67(4) . . .
67(4) . . .
64(4) . . .
67(4) . . .
85(5) . . .
81(5) . . .
83(5) . . .
76(5) . . .
63(4) . . .
72(4) . . .
79(5) . . .
76(5) . . .
81(5) . . .
79(5) . . .
81(5) . . .
54(4) . . .
69(5) . . .
75(5) . . .
69(4) . . .
70(4) . . .
66(4) . . .
82(5) . . .
76(5) . . .
90(5) . . .
82(5) . . .
81(5) . . .
75(5) . . .
74(4) . . .
73(4) . . .
66(4) . . .
70(5) . . .
76(5) . . .
78(5) . . .
85(5) . . .
73(4) . . .
74(5) . . .
68(5) . . .
68(4) . . .
71(4) . . .
66(4) . . .
71(5) . . .
70(4) . . .
61(4) . . .
70(4) . . .
76(5) . . .
62(5) . . .
62(5) . . .
60(4) . . .
73(4) . . .
76(5) . . .
68(4) . . .
74(5) . . .
70(4) . . .
71(4) . . .
87(5) . . .
63(4) . . .
71(5) . . .
85(5) . . .
71(4) . . .
72(5) . . .
72(5) . . .
79(5) . . .
81(5) . . .
71(5) . . .
77(5) . . .
66(4) . . .
69(4) . . .
65(4) . . .
77(5) . . .
67(4) . . .
70(4) . . .
78(5) . . .
64(4) . . .
79(5) . . .
81(5) . . .
64(4) . . .
77(5) . . .
65(4) . . .
71(4) . . .
78(5) . . .
65(4) . . .
65(4) . . .
73(4) . . .
86(5) . . .
71(5) . . .
68(4) . . .
88(5) . . .
63(4) . . .
74(5) . . .
70(5) . . .
77(5) . . .
71(4) . . .
79(5) . . .
75(5) . . .
72(5) . . .
64(4) . . .
63(4) . . .
73(5) . . .
78(5) . . .
78(5) . . .
77(5) . . .
72(4) . . .
80(5) . . .
75(5) . . .
88(5) . . .
73(5) . . .
69(4) . . .
70(4) . . .
75(5) . . .
74(5) . . .
72(5) . . .
66(4) . . .
72(5) . . .
80(5) . . .
75(5) . . .
69(5) . . .
76(5) . . .
72(4) . . .
66(4) . . .
60(4) . . .
78(5) . . .
76(4) . . .
62(4) . . .
82(5) . . .
87(5) . . .
72(4) . . .
72(4) . . .
76(5) . . .
69(5) . . .
61(4) . . .
75(5) . . .
77(5) . . .
73(5) . . .
65(4) . . .
82(5) . . .
76(4) . . .
83(5) . . .
68(4) . . .
70(5) . . .
76(5) . . .
76(5) . . .
62(4) . . .
78(5) . . .
66(4) . . .
61(4) . . .
75(5) . . .
69(4) . . .
65(4) . . .
64(5) . . .
70(5) . . .
78(5) . . .
70(4) . . .
62(4) . . .
74(5) . . .
67(4) . . .
73(4) . . .
77(5) . . .
66(4) . . .
83(5) . . .
61(4) . . .
66(4) . . .
74(4) . . .
83(5) . . .
70(4) . . .
65(4) . . .
77(5) . . .
58(4) . . .
66(5) . . .
68(4) . . .
63(4) . . .
67(4) . . .
82(5) . . .
69(5) . . .
63(4) . . .
71(4) . . .
71(4) . . .
73(5) . . .
65(4) . . .
75(5) . . .
66(4) . . .
64(4) . . .
67(4) . . .
72(5) . . .
67(4) . . .
84(5) . . .
75(5) . . .
76(5) . . .
82(5) . . .
73(5) . . .
70(4) . . .
73(4) . . .
73(4) . . .
74(5) . . .
77(5) . . .
75(4) . . .
68(4) . . .
59(4) . . .
80(5) . . .
71(5) . . .
67(4) . . .
81(5) . . .
69(5) . . .
56(4) . . .
68(5) . . .
63(4) . . .
73(5) . . .
60(4) . . .
78(5) . . .
79(5) . . .
63(4) . . .
71(4) . . .
72(5) . . .
71(4) . . .
70(4) . . .
66(4) . . .
71(5) . . .
78(5) . . .
67(4) . . .
71(4) . . .
71(4) . . .
71(4) . . .
70(4) . . .
70(4) . . .
70(5) . . .
62(4) . . .
78(5) . . .
65(4) . . .
69(5) . . .
59(4) . . .
65(4) . . .
62(4) . . .
72(5) . . .
60(4) . . .
71(4) . . .
66(4) . . .
74(5) . . .
77(5) . . .
72(5) . . .
65(4) . . .
68(4) . . .
57(4) . . .
69(5) . . .
69(4) . . .
72(4) . . .
67(4) . . .
67(4) . . .
68(4) . . .
63(4) . . .
71(4) . . .
69(4) . . .
80(5) . . .
67(5) . . .
75(5) . . .
86(5) . . .
69(4) . . .
58(4) . . .
76(5) . . .
74(5) . . .
70(4) . . .
80(5) . . .
74(5) . . .
64(4) . . .
78(5) . . .
70(4) . . .
57(4) . . .
69(5) . . .
74(5) . . .
73(5) . . .
78(5) . . .
75(5) . . .
67(4) . . .
76(5) . . .
73(4) . . .
62(4) . . .
62(4) . . .
69(4) . . .
69(4) . . .
67(4) . . .
80(5) . . .
91(5) . . .
70(4) . . .
70(5) . . .
63(4) . . .
66(4) . . .
79(5) . . .
74(5) . . .
69(5) . . .
68(4) . . .
68(4) . . .
65(4) . . .
73(5) . . .
79(5) . . .
74(4) . . .
76(5) . . .
65(4) . . .
74(5) . . .
65(4) . . .
76(5) . . .
82(5) . . .
73(5) . . .
68(5) . . .
65(4) . . .
74(4) . . .
59(4) . . .
73(5) . . .
60(4) . . .
64(4) . . .
63(4) . . .
73(4) . . .
64(4) . . .
56(4) . . .
63(4) . . .
67(4) . . .
75(5) . . .
74(5) . . .
73(5) . . .
87(5) . . .
65(4) . . .
65(4) . . .
86(5) . . .
82(5) . . .
68(4) . . .
66(4) . . .
66(4) . . .
67(4) . . .
62(4) . . .
68(4) . . .
73(4) . . .
67(4) . . .
69(5) . . .
66(4) . . .
76(5) . . .
81(5) . . .
81(5) . . .
58(4) . . .
68(4) . . .
88(5) . . .
72(4) . . .
71(5) . . .
69(5) . . .
71(4) . . .
68(4) . . .
80(5) . . .
70(5) . . .
59(4) . . .
66(4) . . .
73(4) . . .
73(4) . . .
60(4) . . .
62(4) . . .
75(5) . . .
73(4) . . .
65(4) . . .
74(5) . . .
59(4) . . .
70(5) . . .
70(4) . . .
66(4) . . .
75(5) . . .
68(4) . . .
68(4) . . .
69(4) . . .
57(4) . . .
70(4) . . .
73(5) . . .
69(5) . . .
65(4) . . .
69(4) . . .
56(4) . . .
66(4) . . .
74(5) . . .
71(4) . . .
64(4) . . .
63(4) . . .
79(5) . . .
72(5) . . .
65(4) . . .
65(4) . . .
56(4) . . .
67(5) . . .
58(4) . . .
70(4) . . .
67(5) . . .
68(5) . . .
75(5) . . .
59(4) . . .
70(4) . . .
82(5) . . .
79(5) . . .
70(4) . . .
77(5) . . .
80(5) . . .
66(4) . . .
70(5) . . .
74(5) . . .
75(4) . . .
76(4) . . .
84(5) . . .
68(4) . . .
68(4) . . .
74(4) . . .
66(4) . . .
60(4) . . .
68(5) . . .
72(5) . . .
77(5) . . .
67(4) . . .
81(5) . . .
70(5) . . .
68(4) . . .
70(4) . . .
66(4) . . .
90(5) . . .
74(5) . . .
75(5) . . .
75(5) . . .
68(4) . . .
70(5) . . .
74(5) . . .
68(4) . . .
74(4) . . .
64(4) . . .
68(4) . . .
75(5) . . .
61(4) . . .
67(4) . . .
70(4) . . .
68(5) . . .
70(4) . . .
62(4) . . .
60(4) . . .
68(4) . . .
68(4) . . .
72(5) . . .
67(4) . . .
81(5) . . .
75(5) . . .
71(5) . . .
66(5) . . .
68(4) . . .
63(4) . . .
61(4) . . .
75(5) . . .
69(5) . . .
67(4) . . .
64(4) . . .
76(5) . . .
71(5) . . .
69(5) . . .
55(4) . . .
70(4) . . .
65(4) . . .
63(4) . . .
71(4) . . .
77(5) . . .
74(4) . . .
71(5) . . .
79(5) . . .
66(4) . . .
72(4) . . .
80(5) . . .
68(4) . . .
74(5) . . .
56(4) . . .
63(4) . . .
70(4) . . .
65(4) . . .
71(5) . . .
70(5) . . .
67(4) . . .
71(4) . . .
71(5) . . .
63(4) . . .
64(4) . . .
73(4) . . .
67(4) . . .
69(5) . . .
64(4) . . .
71(5) . . .
53(4) . . .
71(5) . . .
60(4) . . .
63(4) . . .
70(5) . . .
63(4) . . .
69(4) . . .
77(5) . . .
69(4) . . .
68(4) . . .
69(4) . . .
74(5) . . .
79(5) . . .
84(5) . . .
81(5) . . .
88(5) . . .
67(4) . . .
63(5) . . .
63(4) . . .
61(4) . . .
72(5) . . .
80(5) . . .
63(5) . . .
60(4) . . .
69(4) . . .
76(5) . . .
66(4) . . .
71(5) . . .
63(4) . . .
66(4) . . .
68(4) . . .
72(5) . . .
75(5) . . .
63(4) . . .
69(4) . . .
74(5) . . .
67(4) . . .
63(4) . . .
73(5) . . .
61(4) . . .
64(4) . . .
63(5) . . .
70(5) . . .
70(4) . . .
76(5) . . .
67(4) . . .
76(5) . . .
78(5) . . .
66(4) . . .
62(4) . . .
77(5) . . .
90(5) . . .
75(5) . . .
67(4) . . .
64(4) . . .
72(4) . . .
79(5) . . .
66(4) . . .
79(5) . . .
66(4) . . .
70(5) . . .
60(4) . . .
58(4) . . .
66(4) . . .
64(4) . . .
62(4) . . .
71(5) . . .
68(4) . . .
63(4) . . .
61(4) . . .
65(4) . . .
66(4) . . .
73(5) . . .
63(4) . . .
55(4) . . .
64(4) . . .
68(5) . . .
66(4) . . .
59(4) . . .
71(5) . . .
60(4) . . .
70(5) . . .
71(5) . . .
69(4) . . .
63(4) . . .
57(4) . . .
65(5) . . .
72(5) . . .
69(4) . . .
55(4) . . .
68(5) . . .
73(5) . . .
68(4) . . .
67(4) . . .
75(5) . . .
69(5) . . .
71(5) . . .
68(4) . . .
70(4) . . .
69(5) . . .
67(5) . . .
57(4) . . .
67(5) . . .
63(4) . . .
65(4) . . .
68(4) . . .
73(4) . . .
69(4) . . .
76(5) . . .
85(5) . . .
67(4) . . .
70(4) . . .
83(5) . . .
63(4) . . .
61(4) . . .
77(5) . . .
70(4) . . .
78(5) . . .
77(5) . . .
62(4) . . .
65(5) . . .
64(5) . . .
63(4) . . .
61(4) . . .
61(4) . . .
62(4) . . .
68(5) . . .
65(4) . . .
72(4) . . .
83(5) . . .
68(4) . . .
69(4) . . .
63(4) . . .
67(4) . . .
75(5) . . .
63(5) . . .
59(4) . . .
66(4) . . .
69(4) . . .
78(5) . . .
73(5) . . .
70(4) . . .
80(5) . . .
57(4) . . .
69(5) . . .
65(4) . . .
67(4) . . .
67(4) . . .
67(4) . . .
60(4) . . .
77(5) . . .
59(4) . . .
72(4) . . .
68(5) . . .
71(5) . . .
66(4) . . .
69(4) . . .
71(4) . . .
78(5) . . .
63(4) . . .
74(5) . . .
58(4) . . .
69(4) . . .
57(4) . . .
61(4) . . .
75(5) . . .
66(4) . . .
69(4) . . .
51(4) . . .
67(4) . . .
59(4) . . .
78(5) . . .
64(4) . . .
65(4) . . .
89(5) . . .
71(5) . . .
66(4) . . .
75(5) . . .
69(5) . . .
63(5) . . .
64(4) . . .
68(4) . . .
63(4) . . .
58(4) . . .
61(4) . . .
53(4) . . .
63(4) . . .
58(4) . . .
64(4) . . .
66(5) . . .
63(4) . . .
60(4) . . .
68(4) . . .
58(4) . . .
65(4) . . .
71(4) . . .
72(4) . . .
68(4) . . .
62(4) . . .
64(4) . . .
67(4) . . .
63(4) . . .
60(4) . . .
58(4) . . .
69(5) . . .
61(4) . . .
65(4) . . .
58(4) . . .
61(4) . . .
69(5) . . .
63(4) . . .
75(5) . . .
62(4) . . .
74(5) . . .
69(4) . . .
78(5) . . .
66(4) . . .
69(5) . . .
71(5) . . .
57(4) . . .
64(4) . . .
76(5) . . .
67(4) . . .
64(4) . . .
63(4) . . .
65(4) . . .
73(4) . . .
73(5) . . .
62(5) . . .
56(4) . . .
73(4) . . .
78(5) . . .
73(5) . . .
59(4) . . .
75(5) . . .
75(4) . . .
76(5) . . .
73(5) . . .
71(4) . . .
72(4) . . .
56(4) . . .
66(4) . . .
66(5) . . .
69(4) . . .
67(4) . . .
59(4) . . .
53(4) . . .
66(4) . . .
61(4) . . .
57(4) . . .
83(5) . . .
70(5) . . .
67(5) . . .
63(4) . . .
60(4) . . .
65(4) . . .
66(4) . . .
73(5) . . .
69(5) . . .
56(4) . . .
71(4) . . .
52(4) . . .
67(5) . . .
72(5) . . .
62(4) . . .
58(4) . . .
68(4) . . .
54(4) . . .
66(4) . . .
75(4) . . .
60(4) . . .
67(4) . . .
68(5) . . .
62(4) . . .
72(4) . . .
63(4) . . .
74(5) . . .
57(4) . . .
62(4) . . .
60(4) . . .
65(4) . . .
70(5) . . .
74(5) . . .
67(4) . . .
72(4) . . .
68(4) . . .
59(4) . . .
67(4) . . .
64(4) . . .
69(4) . . .
66(4) . . .
64(4) . . .
68(4) . . .
58(4) . . .
70(4) . . .
64(4) . . .
72(5) . . .
72(5) . . .
54(4) . . .
60(4) . . .
67(4) . . .
74(5) . . .
64(4) . . .
69(4) . . .
64(4) . . .
64(4) . . .
59(4) . . .
60(4) . . .
69(4) . . .
79(5) . . .
72(5) . . .
62(5) . . .
56(4) . . .
59(4) . . .
67(4) . . .
71(5) . . .
64(5) . . .
62(4) . . .
60(4) . . .
69(4) . . .
60(4) . . .
63(4) . . .
73(5) . . .
48(4) . . .
67(4) . . .
67(4) . . .
64(4) . . .
70(5) . . .
69(4) . . .
65(4) . . .
62(4) . . .
70(5) . . .
68(4) . . .
52(4) . . .
56(4) . . .
62(4) . . .
66(4) . . .
66(4) . . .
66(4) . . .
73(5) . . .
67(5) . . .
65(4) . . .
64(4) . . .
61(4) . . .
64(4) . . .
56(4) . . .
60(4) . . .
62(4) . . .
71(4) . . .
64(4) . . .
70(5) . . .
73(5) . . .
71(5) . . .
67(4) . . .
68(4) . . .
83(5) . . .
67(4) . . .
60(4) . . .
78(5) . . .
76(5) . . .
69(4) . . .
83(5) . . .
59(4) . . .
61(4) . . .
65(4) . . .
66(4) . . .
77(5) . . .
64(4) . . .
62(4) . . .
65(4) . . .
69(5) . . .
63(4) . . .
68(4) . . .
61(4) . . .
69(4) . . .
77(5) . . .
66(4) . . .
65(4) . . .
73(4) . . .
59(4) . . .
72(5) . . .
62(4) . . .
73(4) . . .
67(4) . . .
60(4) . . .
60(4) . . .
59(4) . . .
65(4) . . .
62(4) . . .
69(5) . . .
67(4) . . .
74(5) . . .
70(4) . . .
68(4) . . .
67(4) . . .
72(5) . . .
75(5) . . .
75(4) . . .
61(4) . . .
72(5) . . .
67(4) . . .
62(4) . . .
64(4) . . .
60(4) . . .
60(4) . . .
74(5) . . .
67(4) . . .
64(4) . . .
65(5) . . .
58(4) . . .
64(4) . . .
61(4) . . .
64(4) . . .
63(4) . . .
70(5) . . .
65(4) . . .
60(4) . . .
57(4) . . .
62(4) . . .
66(5) . . .
59(4) . . .
59(4) . . .
62(4) . . .
63(4) . . .
61(4) . . .
65(4) . . .
50(4) . . .
52(4) . . .
61(4) . . .
58(4) . . .
65(4) . . .
75(5) . . .
69(4) . . .
57(4) . . .
71(5) . . .
59(4) . . .
62(4) . . .
76(5) . . .
68(4) . . .
61(4) . . .
59(4) . . .
66(4) . . .
74(5) . . .
77(5) . . .
61(4) . . .
65(4) . . .
65(4) . . .
68(4) . . .
63(4) . . .
70(5) . . .
64(4) . . .
60(4) . . .
56(4) . . .
62(4) . . .
56(4) . . .
61(4) . . .
61(4) . . .
63(4) . . .
72(5) . . .
74(5) . . .
68(4) . . .
71(4) . . .
69(4) . . .
63(4) . . .
63(4) . . .
58(4) . . .
54(4) . . .
68(4) . . .
55(4) . . .
59(4) . . .
63(4) . . .
59(4) . . .
59(4) . . .
67(5) . . .
65(4) . . .
67(4) . . .
69(4) . . .
66(4) . . .
62(4) . . .
70(5) . . .
66(4) . . .
76(5) . . .
70(5) . . .
62(4) . . .
64(4) . . .
65(4) . . .
71(5) . . .
67(4) . . .
64(4) . . .
64(4) . . .
61(4) . . .
67(4) . . .
65(4) . . .
62(4) . . .
56(4) . . .
71(4) . . .
60(4) . . .
73(5) . . .
58(4) . . .
47(4) . . .
69(4) . . .
69(5) . . .
63(4) . . .
66(4) . . .
72(4) . . .
60(4) . . .
67(4) . . .
65(4) . . .
59(4) . . .
66(4) . . .
63(4) . . .
64(4) . . .
64(4) . . .
73(5) . . .
69(4) . . .
73(4) . . .
64(4) . . .
66(5) . . .
63(4) . . .
61(4) . . .
74(4) . . .
58(4) . . .
67(5) . . .
68(4) . . .
62(4) . . .
67(4) . . .
68(4) . . .
76(5) . . .
53(4) . . .
48(4) . . .
68(4) . . .
76(5) . . .
52(4) . . .
60(4) . . .
66(4) . . .
50(4) . . .
62(4) . . .
60(4) . . .
61(4) . . .
53(4) . . .
57(4) . . .
72(5) . . .
73(5) . . .
65(4) . . .
72(4) . . .
60(4) . . .
67(5) . . .
68(5) . . .
58(4) . . .
69(4) . . .
66(4) . . .
64(4) . . .
70(5) . . .
51(4) . . .
78(5) . . .
74(5) . . .
60(4) . . .
68(4) . . .
53(4) . . .
71(4) . . .
64(4) . . .
70(5) . . .
60(4) . . .
64(4) . . .
62(4) . . .
67(4) . . .
57(4) . . .
61(4) . . .
71(4) . . .
68(4) . . .
66(4) . . .
78(5) . . .
63(4) . . .
62(4) . . .
58(4) . . .
69(4) . . .
59(4) . . .
66(5) . . .
63(4) . . .
60(4) . . .
75(5) . . .
66(4) . . .
75(5) . . .
73(4) . . .
71(5) . . .
57(4) . . .
63(4) . . .
67(4) . . .
67(4) . . .
60(4) . . .
65(4) . . .
64(4) . . .
69(4) . . .
59(4) . . .
73(5) . . .
69(5) . . .
59(4) . . .
68(4) . . .
56(4) . . .
58(4) . . .
67(5) . . .
70(5) . . .
60(4) . . .
67(4) . . .
58(4) . . .
74(5) . . .
65(4) . . .
73(4) . . .
63(4) . . .
72(5) . . .
82(5) . . .
81(5) . . .
69(4) . . .
68(4) . . .
72(5) . . .
64(5) . . .
69(4) . . .
72(4) . . .
65(4) . . .
62(4) . . .
67(5) . . .
69(4) . . .
63(4) . . .
62(4) . . .
68(4) . . .
67(4) . . .
70(5) . . .
65(4) . . .
61(4) . . .
79(5) . . .
74(5) . . .
52(4) . . .
62(4) . . .
71(5) . . .
70(5) . . .
63(4) . . .
74(5) . . .
79(5) . . .
73(5) . . .
69(4) . . .
59(4) . . .
48(4) . . .
69(4) . . .
66(4) . . .
77(5) . . .
67(4) . . .
76(5) . . .
66(4) . . .
66(4) . . .
78(5) . . .
70(5) . . .
62(4) . . .
58(4) . . .
55(4) . . .
59(4) . . .
55(4) . . .
58(4) . . .
65(4) . . .
64(4) . . .
64(4) . . .
61(4) . . .
69(4) . . .
60(4) . . .
64(4) . . .
66(5) . . .
64(4) . . .
67(4) . . .
66(4) . . .
63(4) . . .
65(5) . . .
59(4) . . .
62(4) . . .
69(4) . . .
64(4) . . .
64(5) . . .
54(4) . . .
53(4) . . .
52(4) . . .
59(4) . . .
63(4) . . .
68(4) . . .
67(4) . . .
62(4) . . .
66(4) . . .
68(5) . . .
74(5) . . .
66(4) . . .
67(4) . . .
58(4) . . .
57(4) . . .
64(4) . . .
68(4) . . .
66(4) . . .
65(4) . . .
73(5) . . .
62(4) . . .
61(4) . . .
59(4) . . .
60(4) . . .
54(4) . . .
59(4) . . .
55(4) . . .
54(4) . . .
59(4) . . .
59(4) . . .
62(4) . . .
44.3(35) . . .
55(4) . . .
60(4) . . .
64(4) . . .
61(4) . . .
56(4) . . .
72(4) . . .
54(4) . . .
58(4) . . .
66(4) . . .
62(4) . . .
67(5) . . .
63(4) . . .
63(4) . . .
68(4) . . .
62(4) . . .
58(4) . . .
67(4) . . .
66(4) . . .
69(4) . . .
67(4) . . .
67(4) . . .
72(5) . . .
65(4) . . .
70(4) . . .
63(4) . . .
55(4) . . .
60(4) . . .
63(4) . . .
65(4) . . .
60(4) . . .
60(4) . . .
54(4) . . .
65(4) . . .
62(4) . . .
58(4) . . .
61(4) . . .
52(4) . . .
54(4) . . .
62(4) . . .
56(4) . . .
58(4) . . .
61(4) . . .
67(5) . . .
67(4) . . .
63(4) . . .
61(4) . . .
69(5) . . .
65(4) . . .
61(4) . . .
71(5) . . .
66(5) . . .
69(4) . . .
63(4) . . .
57(4) . . .
62(4) . . .
77(5) . . .
60(4) . . .
68(4) . . .
69(4) . . .
60(4) . . .
61(4) . . .
73(5) . . .
68(4) . . .
65(4) . . .
67(4) . . .
64(4) . . .
76(5) . . .
64(4) . . .
67(4) . . .
64(4) . . .
67(5) . . .
57(4) . . .
63(4) . . .
53(4) . . .
68(5) . . .
63(5) . . .
60(4) . . .
69(4) . . .
64(4) . . .
68(4) . . .
75(5) . . .
65(4) . . .
60(4) . . .
60(4) . . .
69(5) . . .
65(4) . . .
81(5) . . .
71(4) . . .
63(4) . . .
61(4) . . .
65(4) . . .
60(4) . . .
69(4) . . .
71(4) . . .
70(4) . . .
71(5) . . .
71(4) . . .
67(4) . . .
58(4) . . .
52(4) . . .
67(5) . . .
73(5) . . .
70(4) . . .
60(4) . . .
48(4) . . .
63(4) . . .
61(4) . . .
54(4) . . .
72(5) . . .
75(5) . . .
64(4) . . .
73(4) . . .
56(4) . . .
61(4) . . .
60(4) . . .
49(4) . . .
58(4) . . .
76(5) . . .
75(5) . . .
59(4) . . .
64(4) . . .
62(4) . . .
61(4) . . .
65(4) . . .
65(4) . . .
62(4) . . .
72(4) . . .
67(4) . . .
78(5) . . .
63(4) . . .
62(4) . . .
60(4) . . .
59(4) . . .
63(4) . . .
63(4) . . .
65(4) . . .
65(4) . . .
64(4) . . .
72(5) . . .
70(5) . . .
67(4) . . .
68(4) . . .
78(5) . . .
74(5) . . .
77(5) . . .
80(5) . . .
76(5) . . .
71(4) . . .
75(5) . . .
58(4) . . .
60(4) . . .
73(4) . . .
64(4) . . .
63(4) . . .
63(4) . . .
65(4) . . .
64(4) . . .
61(4) . . .
70(5) . . .
71(5) . . .
50(4) . . .
58(4) . . .
68(5) . . .
68(5) . . .
56(4) . . .
78(5) . . .
55(4) . . .
57(4) . . .
79(5) . . .
75(5) . . .
71(4) . . .
49(4) . . .
54(4) . . .
63(4) . . .
59(4) . . .
58(4) . . .
61(4) . . .
71(5) . . .
66(4) . . .
62(4) . . .
67(4) . . .
53(4) . . .
59(4) . . .
67(4) . . .
67(4) . . .
78(5) . . .
59(4) . . .
61(4) . . .
66(4) . . .
64(5) . . .
67(4) . . .
75(5) . . .
58(4) . . .
72(5) . . .
57(4) . . .
65(4) . . .
69(4) . . .
68(4) . . .
65(4) . . .
56(4) . . .
61(4) . . .
55(4) . . .
63(5) . . .
66(4) . . .
66(4) . . .
60(4) . . .
60(4) . . .
65(5) . . .
57(4) . . .
50(4) . . .
57(4) . . .
71(5) . . .
58(4) . . .
64(4) . . .
65(4) . . .
65(4) . . .
75(5) . . .
65(4) . . .
69(4) . . .
66(4) . . .
61(4) . . .
64(4) . . .
67(5) . . .
62(4) . . .
54(4) . . .
64(4) . . .
62(4) . . .
61(4) . . .
59(4) . . .
74(5) . . .
64(4) . . .
69(5) . . .
51(4) . . .
55(4) . . .
62(4) . . .
64(4) . . .
67(4) . . .
55(4) . . .
66(4) . . .
54(4) . . .
59(4) . . .
56(4) . . .
65(5) . . .
58(4) . . .
63(4) . . .
70(4) . . .
60(4) . . .
65(4) . . .
67(4) . . .
57(4) . . .
59(4) . . .
63(4) . . .
67(4) . . .
67(4) . . .
68(4) . . .
63(4) . . .
66(5) . . .
60(4) . . .
65(4) . . .
72(4) . . .
65(4) . . .
71(5) . . .
72(4) . . .
52(4) . . .
52(4) . . .
53(4) . . .
58(4) . . .
66(4) . . .
62(4) . . .
58(4) . . .
68(4) . . .
58(4) . . .
59(4) . . .
55(4) . . .
64(4) . . .
64(4) . . .
73(5) . . .
69(5) . . .
57(4) . . .
66(4) . . .
59(4) . . .
63(4) . . .
71(5) . . .
62(4) . . .
64(4) . . .
63(4) . . .
63(5) . . .
67(4) . . .
68(4) . . .
70(5) . . .
63(4) . . .
59(4) . . .
62(4) . . .
71(4) . . .
62(4) . . .
59(4) . . .
55(4) . . .
60(4) . . .
64(4) . . .
64(4) . . .
64(4) . . .
63(4) . . .
67(4) . . .
56(4) . . .
66(5) . . .
43.7(35) . . .
61(4) . . .
73(4) . . .
69(4) . . .
53(4) . . .
58(4) . . .
69(5) . . .
68(4) . . .
65(4) . . .
59(4) . . .
63(4) . . .
61(4) . . .
63(4) . . .
56(4) . . .
60(4) . . .
60(4) . . .
56(4) . . .
61(4) . . .
70(4) . . .
54(4) . . .
64(4) . . .
65(4) . . .
66(4) . . .
78(5) . . .
60(4) . . .
59(4) . . .
63(4) . . .
60(4) . . .
68(5) . . .
57(4) . . .
69(5) . . .
60(4) . . .
71(4) . . .
69(4) . . .
59(4) . . .
63(4) . . .
62(4) . . .
69(4) . . .
62(4) . . .
64(4) . . .
68(4) . . .
58(4) . . .
70(4) . . .
60(4) . . .
73(5) . . .
63(4) . . .
64(4) . . .
68(4) . . .
67(4) . . .
75(5) . . .
63(4) . . .
75(5) . . .
58(4) . . .
56(4) . . .
69(4) . . .
55(4) . . .
62(4) . . .
65(4) . . .
69(5) . . .
63(5) . . .
66(4) . . .
58(4) . . .
74(5) . . .
56(4) . . .
63(4) . . .
66(4) . . .
60(4) . . .
61(4) . . .
72(5) . . .
68(4) . . .
64(4) . . .
59(4) . . .
69(4) . . .
62(4) . . .
67(5) . . .
65(4) . . .
58(4) . . .
59(4) . . .
64(4) . . .
61(4) . . .
65(4) . . .
57(4) . . .
58(4) . . .
51(4) . . .
69(5) . . .
70(5) . . .
62(4) . . .
73(5) . . .
81(5) . . .
66(4) . . .
60(4) . . .
68(4) . . .
73(5) . . .
63(4) . . .
64(4) . . .
66(4) . . .
58(4) . . .
58(4) . . .
57(4) . . .
63(4) . . .
55(4) . . .
55(4) . . .
60(4) . . .
62(4) . . .
63(4) . . .
66(4) . . .
65(4) . . .
46(4) . . .
64(5) . . .
61(4) . . .
52(4) . . .
65(4) . . .
69(5) . . .
69(5) . . .
74(5) . . .
61(4) . . .
60(4) . . .
60(4) . . .
65(5) . . .
64(4) . . .
63(4) . . .
64(4) . . .
74(5) . . .
74(5) . . .
66(4) . . .
61(4) . . .
58(4) . . .
61(4) . . .
58(4) . . .
59(4) . . .
63(4) . . .
67(4) . . .
69(4) . . .
71(5) . . .
62(4) . . .
66(4) . . .
68(4) . . .
69(4) . . .
72(4) . . .
66(4) . . .
67(4) . . .
62(4) . . .
58(4) . . .
66(4) . . .
68(4) . . .
54(4) . . .
58(4) . . .
71(5) . . .
60(4) . . .
68(4) . . .
70(4) . . .
51(4) . . .
69(5) . . .
60(4) . . .
65(4) . . .
62(4) . . .
61(4) . . .
57(4) . . .
57(4) . . .
66(4) . . .
69(4) . . .
67(4) . . .
57(4) . . .
66(5) . . .
68(4) . . .
64(4) . . .
52(4) . . .
73(5) . . .
71(5) . . .
57(4) . . .
59(4) . . .
59(4) . . .
52(4) . . .
58(4) . . .
51(4) . . .
54(4) . . .
58(4) . . .
55(4) . . .
58(4) . . .
65(4) . . .
64(4) . . .
64(4) . . .
65(4) . . .
63(4) . . .
66(4) . . .
66(4) . . .
58(4) . . .
62(4) . . .
67(4) . . .
61(4) . . .
62(4) . . .
64(4) . . .
65(4) . . .
65(4) . . .
63(4) . . .
62(4) . . .
58(4) . . .
66(4) . . .
58(4) . . .
56(4) . . .
65(4) . . .
64(5) . . .
50(4) . . .
54(4) . . .
61(4) . . .
66(4) . . .
64(4) . . .
56(4) . . .
56(4) . . .
68(4) . . .
67(5) . . .
54(4) . . .
63(4) . . .
70(4) . . .
58(4) . . .
59(4) . . .
60(4) . . .
69(4) . . .
62(4) . . .
64(4) . . .
71(4) . . .
65(4) . . .
57(4) . . .
71(4) . . .
64(4) . . .
65(5) . . .
56(4) . . .
65(4) . . .
56(4) . . .
65(4) . . .
62(4) . . .
55(4) . . .
72(5) . . .
59(4) . . .
61(4) . . .
60(4) . . .
61(5) . . .
60(4) . . .
73(4) . . .
58(4) . . .
57(4) . . .
60(4) . . .
68(4) . . .
60(4) . . .
54(4) . . .
60(4) . . .
62(4) . . .
66(4) . . .
59(4) . . .
64(4) . . .
71(5) . . .
61(4) . . .
65(4) . . .
58(4) . . .
57(4) . . .
57(4) . . .
53(4) . . .
57(4) . . .
61(4) . . .
66(4) . . .
62(4) . . .
72(5) . . .
53(4) . . .
55(4) . . .
62(4) . . .
62(4) . . .
57(4) . . .
63(4) . . .
64(4) . . .
62(4) . . .
61(4) . . .
74(5) . . .
64(4) . . .
68(4) . . .
64(4) . . .
64(4) . . .
69(4) . . .
60(4) . . .
52(4) . . .
71(4) . . .
63(4) . . .
63(4) . . .
51(4) . . .
62(4) . . .
59(4) . . .
65(4) . . .
59(4) . . .
60(4) . . .
60(4) . . .
52(4) . . .
64(4) . . .
65(4) . . .
77(5) . . .
66(4) . . .
65(4) . . .
62(4) . . .
64(4) . . .
62(4) . . .
62(4) . . .
55(4) . . .
58(4) . . .
60(4) . . .
65(4) . . .
62(4) . . .
57(4) . . .
63(4) . . .
69(4) . . .
65(4) . . .
56(4) . . .
62(4) . . .
70(4) . . .
53(4) . . .
67(4) . . .
66(4) . . .
67(4) . . .
64(4) . . .
56(4) . . .
69(4) . . .
54(4) . . .
59(4) . . .
72(5) . . .
64(4) . . .
65(4) . . .
67(5) . . .
65(4) . . .
50(4) . . .
59(4) . . .
53(4) . . .
60(4) . . .
65(4) . . .
63(4) . . .
63(4) . . .
59(4) . . .
59(4) . . .
68(5) . . .
62(4) . . .
56(4) . . .
59(4) . . .
63(4) . . .
59(4) . . .
67(4) . . .
61(4) . . .
53(4) . . .
53(4) . . .
64(4) . . .
60(4) . . .
68(4) . . .
68(5) . . .
64(4) . . .
71(5) . . .
67(4) . . .
71(4) . . .
69(4) . . .
64(4) . . .
66(4) . . .
65(4) . . .
61(4) . . .
55(4) . . .
67(5) . . .
70(5) . . .
58(4) . . .
49(4) . . .
66(4) . . .
60(4) . . .
62(4) . . .
64(4) . . .
62(4) . . .
64(4) . . .
57(4) . . .
58(4) . . .
62(4) . . .
54(4) . . .
63(4) . . .
58(4) . . .
59(4) . . .
49(4) . . .
50(4) . . .
59(4) . . .
55(4) . . .
61(4) . . .
56(4) . . .
60(4) . . .
55(4) . . .
57(4) . . .
58(4) . . .
63(4) . . .
60(4) . . .
67(5) . . .
54(4) . . .
63(4) . . .
59(4) . . .
54(4) . . .
66(4) . . .
75(5) . . .
56(4) . . .
51(4) . . .
49(4) . . .
71(5) . . .
54(4) . . .
60(4) . . .
62(4) . . .
58(4) . . .
55(4) . . .
63(4) . . .
57(4) . . .
60(4) . . .
66(4) . . .
76(5) . . .
64(4) . . .
68(4) . . .
75(5) . . .
71(4) . . .
61(4) . . .
56(4) . . .
74(5) . . .
50(4) . . .
56(4) . . .
59(4) . . .
63(4) . . .
66(4) . . .
68(4) . . .
67(4) . . .
56(4) . . .
61(4) . . .
60(4) . . .
65(4) . . .
67(4) . . .
62(4) . . .
65(4) . . .
57(4) . . .
55(4) . . .
65(4) . . .
58(4) . . .
48(4) . . .
59(4) . . .
56(4) . . .
48(4) . . .
65(4) . . .
54(4) . . .
62(4) . . .
59(4) . . .
52(4) . . .
57(4) . . .
66(4) . . .
67(4) . . .
53(4) . . .
57(4) . . .
64(4) . . .
54(4) . . .
66(4) . . .
59(4) . . .
58(4) . . .
54(4) . . .
56(4) . . .
69(4) . . .
63(4) . . .
63(4) . . .
64(4) . . .
55(4) . . .
53(4) . . .
68(4) . . .
59(4) . . .
56(4) . . .
51(4) . . .
54(4) . . .
51(4) . . .
62(5) . . .
64(4) . . .
57(4) . . .
66(4) . . .
62(4) . . .
67(5) . . .
58(4) . . .
67(4) . . .
77(5) . . .
60(4) . . .
51(4) . . .
54(4) . . .
62(4) . . .
54(4) . . .
64(4) . . .
63(5) . . .
71(5) . . .
63(4) . . .
67(4) . . .
54(4) . . .
60(4) . . .
63(4) . . .
66(4) . . .
65(4) . . .
64(4) . . .
67(5) . . .
62(4) . . .
65(4) . . .
67(4) . . .
53(4) . . .
55(4) . . .
61(4) . . .
58(4) . . .
63(4) . . .
58(4) . . .
69(5) . . .
63(4) . . .
66(4) . . .
59(4) . . .
63(4) . . .
59(4) . . .
71(5) . . .
59(4) . . .
67(5) . . .
55(4) . . .
55(4) . . .
59(4) . . .
57(4) . . .
71(4) . . .
62(4) . . .
64(4) . . .
62(4) . . .
56(4) . . .
54(4) . . .
44(4) . . .
59(4) . . .
57(4) . . .
71(4) . . .
61(4) . . .
56(4) . . .
55(4) . . .
53(4) . . .
60(4) . . .
54(4) . . .
61(4) . . .
65(4) . . .
52(4) . . .
65(4) . . .
56(4) . . .
58(4) . . .
57(4) . . .
67(4) . . .
56(4) . . .
54(4) . . .
63(4) . . .
62(4) . . .
72(4) . . .
58(4) . . .
58(4) . . .
61(4) . . .
67(4) . . .
70(4) . . .
58(4) . . .
72(5) . . .
62(4) . . .
63(4) . . .
57(4) . . .
60(4) . . .
58(4) . . .
61(4) . . .
54(4) . . .
57(4) . . .
68(4) . . .
53(4) . . .
54(4) . . .
50(4) . . .
71(4) . . .
62(4) . . .
67(5) . . .
52(4) . . .
60(4) . . .
64(4) . . .
69(5) . . .
67(5) . . .
51(4) . . .
53(4) . . .
63(4) . . .
60(4) . . .
64(4) . . .
62(4) . . .
65(4) . . .
61(4) . . .
69(4) . . .
70(4) . . .
64(4) . . .
60(4) . . .
61(4) . . .
51(4) . . .
60(4) . . .
50(4) . . .
66(4) . . .
55(4) . . .
60(4) . . .
53(4) . . .
69(5) . . .
58(4) . . .
61(4) . . .
68(5) . . .
48(4) . . .
55(4) . . .
54(4) . . .
52(4) . . .
72(5) . . .
51(4) . . .
60(4) . . .
60(4) . . .
63(4) . . .
67(4) . . .
64(4) . . .
65(4) . . .
56(4) . . .
57(4) . . .
57(4) . . .
56(4) . . .
59(4) . . .
53(4) . . .
54(4) . . .
65(5) . . .
62(4) . . .
61(4) . . .
61(4) . . .
61(4) . . .
57(4) . . .
67(4) . . .
57(4) . . .
51(4) . . .
56(4) . . .
61(4) . . .
64(4) . . .
59(4) . . .
59(4) . . .
50(4) . . .
58(4) . . .
58(4) . . .
72(4) . . .
57(4) . . .
59(4) . . .
55(4) . . .
49(4) . . .
54(4) . . .
61(4) . . .
70(4) . . .
54(4) . . .
56(4) . . .
58(4) . . .
62(4) . . .
70(5) . . .
61(4) . . .
58(4) . . .
43.4(35) . . .
54(4) . . .
66(4) . . .
73(5) . . .
63(4) . . .
60(4) . . .
61(4) . . .
55(4) . . .
47(4) . . .
45(4) . . .
56(4) . . .
56(4) . . .
60(4) . . .
66(4) . . .
56(4) . . .
56(4) . . .
60(4) . . .
52(4) . . .
67(5) . . .
69(4) . . .
64(4) . . .
51(4) . . .
55(4) . . .
73(5) . . .
65(4) . . .
64(4) . . .
52(4) . . .
54(4) . . .
49(4) . . .
53(4) . . .
57(4) . . .
64(4) . . .
62(4) . . .
62(4) . . .
57(4) . . .
53(4) . . .
64(4) . . .
56(4) . . .
53(4) . . .
81(5) . . .
50(4) . . .
67(4) . . .
56(4) . . .
58(4) . . .
63(4) . . .
57(4) . . .
60(4) . . .
57(4) . . .
64(4) . . .
53(4) . . .
53(4) . . .
51(4) . . .
58(4) . . .
69(4) . . .
60(4) . . .
52(4) . . .
52(4) . . .
54(4) . . .
59(4) . . .
65(4) . . .
70(5) . . .
54(4) . . .
67(4) . . .
63(4) . . .
56(4) . . .
48(4) . . .
65(5) . . .
64(4) . . .
53(4) . . .
61(4) . . .
68(4) . . .
69(5) . . .
52(4) . . .
58(4) . . .
55(4) . . .
63(4) . . .
65(4) . . .
59(4) . . .
62(4) . . .
62(4) . . .
62(4) . . .
55(4) . . .
62(4) . . .
58(4) . . .
60(4) . . .
53(4) . . .
66(4) . . .
60(4) . . .
54(4) . . .
56(4) . . .
56(4) . . .
53(4) . . .
64(4) . . .
53(4) . . .
52(4) . . .
59(4) . . .
58(4) . . .
66(4) . . .
58(4) . . .
66(4) . . .
70(5) . . .
59(4) . . .
70(4) . . .
64(4) . . .
61(4) . . .
61(4) . . .
62(4) . . .
51(4) . . .
53(4) . . .
60(4) . . .
63(5) . . .
56(4) . . .
59(4) . . .
67(4) . . .
67(4) . . .
58(4) . . .
63(4) . . .
59(4) . . .
63(4) . . .
60(4) . . .
54(4) . . .
49(4) . . .
62(4) . . .
55(4) . . .
52(4) . . .
50(4) . . .
61(4) . . .
46(4) . . .
59(4) . . .
61(4) . . .
59(4) . . .
54(4) . . .
61(4) . . .
58(4) . . .
66(4) . . .
52(4) . . .
59(4) . . .
50(4) . . .
49(4) . . .
57(4) . . .
59(4) . . .
52(4) . . .
69(4) . . .
55(4) . . .
48(4) . . .
53(4) . . .
49(4) . . .
67(4) . . .
59(4) . . .
59(4) . . .
60(4) . . .
58(4) . . .
62(4) . . .
58(4) . . .
57(4) . . .
56(4) . . .
56(4) . . .
58(4) . . .
65(4) . . .
56(4) . . .
62(4) . . .
56(4) . . .
62(4) . . .
59(4) . . .
60(4) . . .
59(4) . . .
51(4) . . .
61(4) . . .
55(4) . . .
55(4) . . .
70(5) . . .
55(4) . . .
54(4) . . .
54(4) . . .
61(4) . . .
57(4) . . .
54(4) . . .
58(4) . . .
70(5) . . .
64(5) . . .
66(4) . . .
58(4) . . .
55(4) . . .
53(4) . . .
65(4) . . .
55(4) . . .
71(4) . . .
58(4) . . .
68(4) . . .
70(5) . . .
57(4) . . .
63(4) . . .
59(4) . . .
56(4) . . .
60(4) . . .
54(4) . . .
59(4) . . .
59(4) . . .
59(4) . . .
70(5) . . .
57(4) . . .
52(4) . . .
63(4) . . .
57(4) . . .
62(4) . . .
69(4) . . .
64(4) . . .
64(4) . . .
46(4) . . .
54(4) . . .
56(4) . . .
61(4) . . .
61(4) . . .
57(4) . . .
56(4) . . .
58(4) . . .
66(4) . . .
50(4) . . .
49(4) . . .
62(4) . . .
65(4) . . .
59(4) . . .
55(4) . . .
52(4) . . .
61(4) . . .
72(5) . . .
54(4) . . .
53(4) . . .
65(4) . . .
54(4) . . .
52(4) . . .
52(4) . . .
65(4) . . .
63(4) . . .
65(4) . . .
58(4) . . .
57(4) . . .
65(4) . . .
58(4) . . .
62(4) . . .
66(4) . . .
60(4) . . .
59(4) . . .
57(4) . . .
49(4) . . .
47(4) . . .
60(4) . . .
56(4) . . .
60(4) . . .
58(4) . . .
53(4) . . .
58(4) . . .
60(4) . . .
62(4) . . .
54(4) . . .
56(4) . . .
64(4) . . .
64(4) . . .
63(4) . . .
65(4) . . .
59(4) . . .
65(4) . . .
47(4) . . .
53(4) . . .
61(4) . . .
63(4) . . .
70(5) . . .
65(4) . . .
55(4) . . .
52(4) . . .
42.0(34) . . .
68(4) . . .
55(4) . . .
52(4) . . .
52(4) . . .
60(4) . . .
67(5) . . .
55(4) . . .
50(4) . . .
61(4) . . .
55(4) . . .
68(5) . . .
70(5) . . .
70(5) . . .
56(4) . . .
60(4) . . .
60(4) . . .
55(4) . . .
60(4) . . .
61(4) . . .
66(4) . . .
64(4) . . .
63(4) . . .
59(4) . . .
44.6(35) . . .
51(4) . . .
61(4) . . .
69(4) . . .
70(5) . . .
53(4) . . .
56(4) . . .
68(4) . . .
65(4) . . .
61(4) . . .
63(4) . . .
54(4) . . .
72(5) . . .
57(4) . . .
61(4) . . .
56(4) . . .
65(4) . . .
61(4) . . .
52(4) . . .
60(4) . . .
62(4) . . .
66(4) . . .
65(4) . . .
60(4) . . .
57(4) . . .
51(4) . . .
56(4) . . .
66(4) . . .
63(4) . . .
62(4) . . .
56(4) . . .
48(4) . . .
54(4) . . .
59(4) . . .
59(4) . . .
62(4) . . .
60(4) . . .
58(4) . . .
60(4) . . .
54(4) . . .
50(4) . . .
62(4) . . .
65(4) . . .
60(4) . . .
52(4) . . .
62(4) . . .
74(5) . . .
76(5) . . .
55(4) . . .
55(4) . . .
66(4) . . .
73(5) . . .
49(4) . . .
53(4) . . .
54(4) . . .
72(5) . . .
68(4) . . .
67(5) . . .
57(4) . . .
58(4) . . .
76(5) . . .
63(4) . . .
66(5) . . .
70(4) . . .
56(4) . . .
62(4) . . .
60(4) . . .
54(4) . . .
62(4) . . .
58(4) . . .
59(4) . . .
54(4) . . .
59(4) . . .
62(4) . . .
59(4) . . .
66(4) . . .
59(4) . . .
55(4) . . .
66(4) . . .
52(4) . . .
58(4) . . .
63(5) . . .
67(4) . . .
67(4) . . .
75(5) . . .
58(4) . . .
50(4) . . .
58(4) . . .
53(4) . . .
48(4) . . .
41.8(34) . . .
59(4) . . .
62(4) . . .
57(4) . . .
56(4) . . .
54(4) . . .
54(4) . . .
69(5) . . .
42.5(34) . . .
46(4) . . .
51(4) . . .
58(4) . . .
59(4) . . .
50(4) . . .
55(4) . . .
61(4) . . .
58(4) . . .
63(4) . . .
38.1(32) . . .
60(4) . . .
58(4) . . .
62(4) . . .
54(4) . . .
61(4) . . .
53(4) . . .
52(4) . . .
61(4) . . .
52(4) . . .
55(4) . . .
62(4) . . .
57(4) . . .
56(4) . . .
57(4) . . .
72(4) . . .
61(4) . . .
62(5) . . .
53(4) . . .
56(4) . . .
50(4) . . .
55(4) . . .
51(4) . . .
50(4) . . .
47(4) . . .
48(4) . . .
47(4) . . .
56(4) . . .
59(4) . . .
59(4) . . .
54(4) . . .
54(4) . . .
69(5) . . .
59(4) . . .
72(5) . . .
56(4) . . .
53(4) . . .
59(4) . . .
69(4) . . .
60(4) . . .
55(4) . . .
56(4) . . .
56(4) . . .
60(4) . . .
50(4) . . .
53(4) . . .
67(4) . . .
66(4) . . .
64(4) . . .
52(4) . . .
58(4) . . .
58(4) . . .
63(4) . . .
70(5) . . .
67(4) . . .
51(4) . . .
49(4) . . .
57(4) . . .
56(4) . . .
65(4) . . .
66(5) . . .
55(4) . . .
59(4) . . .
65(4) . . .
58(4) . . .
60(4) . . .
50(4) . . .
54(4) . . .
59(4) . . .
56(4) . . .
61(4) . . .
58(4) . . .
53(4) . . .
53(4) . . .
52(4) . . .
60(4) . . .
61(5) . . .
55(4) . . .
63(4) . . .
50(4) . . .
62(5) . . .
58(4) . . .
68(5) . . .
71(4) . . .
54(4) . . .
57(4) . . .
52(4) . . .
55(4) . . .
55(4) . . .
55(4) . . .
59(4) . . .
53(4) . . .
55(4) . . .
62(4) . . .
54(4) . . .
54(4) . . .
62(4) . . .
52(4) . . .
67(4) . . .
59(4) . . .
64(5) . . .
52(4) . . .
53(4) . . .
50(4) . . .
58(4) . . .
52(4) . . .
57(4) . . .
61(4) . . .
56(4) . . .
55(4) . . .
54(4) . . .
69(4) . . .
77(5) . . .
60(4) . . .
50(4) . . .
57(4) . . .
52(4) . . .
50(4) . . .
59(4) . . .
61(4) . . .
68(5) . . .
54(4) . . .
59(4) . . .
56(4) . . .
59(4) . . .
52(4) . . .
57(4) . . .
54(4) . . .
56(4) . . .
60(4) . . .
71(5) . . .
64(4) . . .
61(4) . . .
71(5) . . .
55(4) . . .
51(4) . . .
65(5) . . .
61(4) . . .
50(4) . . .
51(4) . . .
57(4) . . .
54(4) . . .
62(4) . . .
57(4) . . .
53(4) . . .
57(4) . . .
61(4) . . .
56(4) . . .
51(4) . . .
54(4) . . .
64(4) . . .
52(4) . . .
56(4) . . .
60(4) . . .
72(5) . . .
60(4) . . .
62(4) . . .
64(4) . . .
53(4) . . .
49(4) . . .
60(4) . . .
62(4) . . .
54(4) . . .
52(4) . . .
58(4) . . .
69(4) . . .
60(4) . . .
59(4) . . .
55(4) . . .
58(4) . . .
60(4) . . .
58(4) . . .
64(4) . . .
57(4) . . .
54(4) . . .
63(4) . . .
68(4) . . .
62(4) . . .
48(4) . . .
52(4) . . .
57(4) . . .
52(4) . . .
62(4) . . .
67(4) . . .
60(4) . . .
75(5) . . .
57(4) . . .
57(4) . . .
62(4) . . .
50(4) . . .
63(4) . . .
59(4) . . .
56(4) . . .
64(4) . . .
70(5) . . .
60(4) . . .
61(4) . . .
67(4) . . .
65(4) . . .
68(4) . . .
68(4) . . .
56(4) . . .
51(4) . . .
54(4) . . .
55(4) . . .
50(4) . . .
58(4) . . .
60(4) . . .
66(4) . . .
63(4) . . .
50(4) . . .
56(4) . . .
54(4) . . .
60(4) . . .
67(4) . . .
55(4) . . .
64(4) . . .
59(4) . . .
65(5) . . .
59(4) . . .
57(4) . . .
66(4) . . .
63(4) . . .
63(4) . . .
61(4) . . .
57(4) . . .
58(4) . . .
55(4) . . .
55(4) . . .
58(4) . . .
67(4) . . .
50(4) . . .
56(4) . . .
56(4) . . .
46(4) . . .
49(4) . . .
59(4) . . .
62(4) . . .
67(5) . . .
58(4) . . .
62(4) . . .
58(4) . . .
61(4) . . .
67(4) . . .
51(4) . . .
66(4) . . .
56(4) . . .
56(4) . . .
54(4) . . .
46(4) . . .
54(4) . . .
65(4) . . .
60(4) . . .
57(4) . . .
62(4) . . .
68(4) . . .
75(5) . . .
53(4) . . .
65(5) . . .
62(4) . . .
64(4) . . .
56(4) . . .
59(4) . . .
59(4) . . .
58(4) . . .
58(4) . . .
56(4) . . .
59(4) . . .
57(4) . . .
53(4) . . .
61(4) . . .
58(4) . . .
63(5) . . .
53(4) . . .
58(4) . . .
66(4) . . .
49(4) . . .
55(4) . . .
58(4) . . .
52(4) . . .
57(4) . . .
57(4) . . .
59(4) . . .
57(4) . . .
67(4) . . .
62(4) . . .
67(4) . . .
65(4) . . .
60(4) . . .
68(4) . . .
64(4) . . .
56(4) . . .
63(4) . . .
55(4) . . .
54(4) . . .
63(4) . . .
49(4) . . .
49(4) . . .
68(4) . . .
52(4) . . .
50(4) . . .
63(5) . . .
58(4) . . .
48(4) . . .
58(4) . . .
55(4) . . .
59(4) . . .
59(4) . . .
57(4) . . .
67(4) . . .
60(4) . . .
57(4) . . .
57(4) . . .
52(4) . . .
58(4) . . .
72(5) . . .
61(4) . . .
60(4) . . .
71(4) . . .
59(4) . . .
58(4) . . .
58(4) . . .
55(4) . . .
61(4) . . .
53(4) . . .
47(4) . . .
56(4) . . .
50(4) . . .
62(4) . . .
52(4) . . .
63(4) . . .
78(5) . . .
66(4) . . .
51(4) . . .
62(4) . . .
60(4) . . .
65(4) . . .
65(4) . . .
40.4(33) . . .
66(4) . . .
64(5) . . .
49(4) . . .
55(4) . . .
59(4) . . .
67(4) . . .
57(4) . . .
64(4) . . .
54(4) . . .
57(4) . . .
66(4) . . .
44(4) . . .
65(5) . . .
61(4) . . .
55(4) . . .
54(4) . . .
52(4) . . .
57(4) . . .
58(4) . . .
58(4) . . .
67(4) . . .
57(4) . . .
40.0(33) . . .
57(4) . . .
55(4) . . .
60(4) . . .
65(4) . . .
52(4) . . .
60(4) . . .
68(4) . . .
58(4) . . .
69(5) . . .
49(4) . . .
53(4) . . .
59(4) . . .
54(4) . . .
54(4) . . .
57(4) . . .
56(4) . . .
54(4) . . .
55(4) . . .
64(5) . . .
59(4) . . .
49(4) . . .
60(4) . . .
53(4) . . .
57(4) . . .
67(4) . . .
68(4) . . .
50(4) . . .
52(4) . . .
61(4) . . .
62(4) . . .
59(4) . . .
57(4) . . .
59(4) . . .
57(4) . . .
57(4) . . .
56(4) . . .
67(4) . . .
56(4) . . .
57(4) . . .
66(4) . . .
75(4) . . .
61(4) . . .
61(4) . . .
51(4) . . .
64(4) . . .
51(4) . . .
59(4) . . .
57(4) . . .
56(4) . . .
49(4) . . .
63(4) . . .
62(4) . . .
63(4) . . .
68(4) . . .
53(4) . . .
59(4) . . .
55(4) . . .
46(4) . . .
56(4) . . .
62(4) . . .
59(4) . . .
58(4) . . .
49(4) . . .
62(4) . . .
60(4) . . .
58(4) . . .
56(4) . . .
54(4) . . .
55(4) . . .
48(4) . . .
46(4) . . .
56(4) . . .
59(4) . . .
52(4) . . .
63(4) . . .
54(4) . . .
62(4) . . .
65(4) . . .
62(4) . . .
57(4) . . .
64(5) . . .
51(4) . . .
49(4) . . .
60(4) . . .
69(4) . . .
59(4) . . .
57(4) . . .
58(4) . . .
48(4) . . .
54(4) . . .
58(4) . . .
58(4) . . .
56(4) . . .
59(4) . . .
53(4) . . .
49(4) . . .
63(4) . . .
52(4) . . .
69(4) . . .
54(4) . . .
52(4) . . .
48(4) . . .
69(5) . . .
56(4) . . .
62(4) . . .
60(4) . . .
49(4) . . .
47(4) . . .
49(4) . . .
67(4) . . .
49(4) . . .
59(4) . . .
57(4) . . .
53(4) . . .
59(4) . . .
60(4) . . .
59(4) . . .
66(5) . . .
56(4) . . .
61(4) . . .
44(4) . . .
51(4) . . .
60(4) . . .
55(4) . . .
55(4) . . .
60(4) . . .
58(4) . . .
51(4) . . .
54(4) . . .
60(4) . . .
53(4) . . .
61(4) . . .
61(4) . . .
55(4) . . .
56(4) . . .
53(4) . . .
67(4) . . .
61(4) . . .
68(4) . . .
56(4) . . .
55(4) . . .
62(4) . . .
56(4) . . .
64(4) . . .
55(4) . . .
54(4) . . .
60(4) . . .
70(4) . . .
69(4) . . .
73(5) . . .
50(4) . . .
53(4) . . .
61(4) . . .
65(4) . . .
82(5) . . .
67(5) . . .
72(5) . . .
63(4) . . .
56(4) . . .
55(4) . . .
54(4) . . .
55(4) . . .
52(4) . . .
55(4) . . .
63(4) . . .
59(4) . . .
44(4) . . .
53(4) . . .
65(4) . . .
59(4) . . .
57(4) . . .
59(4) . . .
51(4) . . .
55(4) . . .
57(4) . . .
56(4) . . .
62(4) . . .
50(4) . . .
64(4) . . .
57(4) . . .
51(4) . . .
60(5) . . .
60(4) . . .
63(4) . . .
56(4) . . .
59(4) . . .
45.5(35) . . .
52(4) . . .
53(4) . . .
60(4) . . .
63(4) . . .
70(4) . . .
52(4) . . .
52(4) . . .
63(4) . . .
61(4) . . .
59(4) . . .
68(4) . . .
60(4) . . .
53(4) . . .
51(4) . . .
47(4) . . .
61(4) . . .
56(4) . . .
57(4) . . .
61(4) . . .
58(4) . . .
57(4) . . .
47(4) . . .
53(4) . . .
53(4) . . .
51(4) . . .
58(4) . . .
58(4) . . .
66(5) . . .
55(4) . . .
60(4) . . .
78(5) . . .
70(4) . . .
67(4) . . .
54(4) . . .
53(4) . . .
50(4) . . .
49(4) . . .
61(4) . . .
52(4) . . .
52(4) . . .
65(4) . . .
49(4) . . .
65(4) . . .
64(4) . . .
56(4) . . .
60(4) . . .
63(4) . . .
59(4) . . .
63(4) . . .
64(4) . . .
54(4) . . .
58(4) . . .
64(4) . . .
67(4) . . .
54(4) . . .
64(4) . . .
68(5) . . .
56(4) . . .
49(4) . . .
52(4) . . .
52(4) . . .
50(4) . . .
50(4) . . .
54(4) . . .
48(4) . . .
60(4) . . .
56(4) . . .
49(4) . . .
58(4) . . .
52(4) . . .
51(4) . . .
61(4) . . .
62(4) . . .
60(4) . . .
60(5) . . .
68(4) . . .
76(5) . . .
60(4) . . .
55(4) . . .
58(4) . . .
51(4) . . .
56(4) . . .
54(4) . . .
64(4) . . .
60(4) . . .
42.1(34) . . .
58(4) . . .
52(4) . . .
54(4) . . .
64(4) . . .
65(4) . . .
65(4) . . .
53(4) . . .
53(4) . . .
59(4) . . .
60(4) . . .
56(4) . . .
61(4) . . .
61(4) . . .
59(4) . . .
43.8(34) . . .
57(4) . . .
53(4) . . .
56(4) . . .
62(4) . . .
58(4) . . .
52(4) . . .
46(4) . . .
43.7(35) . . .
57(4) . . .
54(4) . . .
52(4) . . .
65(5) . . .
58(4) . . .
58(4) . . .
50(4) . . .
56(4) . . .
54(4) . . .
58(4) . . .
60(4) . . .
54(4) . . .
58(4) . . .
48(4) . . .
60(4) . . .
56(4) . . .
59(4) . . .
59(4) . . .
54(4) . . .
52(4) . . .
56(4) . . .
51(4) . . .
66(4) . . .
57(4) . . .
52(4) . . .
55(4) . . .
62(4) . . .
52(4) . . .
61(4) . . .
64(4) . . .
52(4) . . .
54(4) . . .
56(4) . . .
57(4) . . .
63(4) . . .
55(4) . . .
61(4) . . .
55(4) . . .
55(4) . . .
60(4) . . .
57(4) . . .
56(4) . . .
56(4) . . .
56(4) . . .
58(4) . . .
56(4) . . .
45.9(35) . . .
55(4) . . .
72(5) . . .
65(4) . . .
64(4) . . .
51(4) . . .
53(4) . . .
61(4) . . .
61(4) . . .
50(4) . . .
47(4) . . .
49(4) . . .
57(4) . . .
52(4) . . .
67(4) . . .
62(4) . . .
55(4) . . .
67(5) . . .
61(4) . . .
49(4) . . .
61(4) . . .
44(4) . . .
59(4) . . .
61(4) . . .
54(4) . . .
56(4) . . .
57(4) . . .
45(4) . . .
51(4) . . .
61(4) . . .
53(4) . . .
57(4) . . .
65(4) . . .
59(4) . . .
63(4) . . .
61(4) . . .
54(4) . . .
58(4) . . .
50(4) . . .
48(4) . . .
53(4) . . .
60(4) . . .
72(5) . . .
53(4) . . .
59(4) . . .
60(4) . . .
53(4) . . .
67(5) . . .
62(4) . . .
55(4) . . .
52(4) . . .
64(5) . . .
55(4) . . .
53(4) . . .
58(4) . . .
57(4) . . .
50(4) . . .
52(4) . . .
64(4) . . .
57(4) . . .
48(4) . . .
60(5) . . .
72(4) . . .
59(4) . . .
63(4) . . .
53(4) . . .
70(5) . . .
63(4) . . .
58(4) . . .
55(4) . . .
52(4) . . .
42.1(35) . . .
54(4) . . .
63(4) . . .
53(4) . . .
48(4) . . .
55(4) . . .
56(4) . . .
57(4) . . .
61(4) . . .
55(4) . . .
59(4) . . .
54(4) . . .
41.6(34) . . .
47(4) . . .
55(4) . . .
59(4) . . .
52(4) . . .
52(4) . . .
52(4) . . .
54(4) . . .
57(4) . . .
54(4) . . .
54(4) . . .
52(4) . . .
54(4) . . .
61(4) . . .
63(4) . . .
53(4) . . .
65(4) . . .
57(4) . . .
55(4) . . .
62(4) . . .
65(4) . . .
60(4) . . .
45(4) . . .
48(4) . . .
54(4) . . .
52(4) . . .
57(4) . . .
55(4) . . .
49(4) . . .
47(4) . . .
58(4) . . .
55(4) . . .
55(4) . . .
58(4) . . .
55(4) . . .
58(4) . . .
63(4) . . .
51(4) . . .
55(4) . . .
61(4) . . .
56(4) . . .
51(4) . . .
57(4) . . .
48(4) . . .
62(4) . . .
51(4) . . .
60(4) . . .
57(4) . . .
49(4) . . .
57(4) . . .
47(4) . . .
54(4) . . .
56(4) . . .
49(4) . . .
59(4) . . .
60(4) . . .
54(4) . . .
48(4) . . .
57(4) . . .
66(4) . . .
57(4) . . .
58(4) . . .
55(4) . . .
65(4) . . .
50(4) . . .
72(5) . . .
53(4) . . .
54(4) . . .
60(4) . . .
56(4) . . .
62(4) . . .
60(4) . . .
62(4) . . .
53(4) . . .
51(4) . . .
55(4) . . .
59(4) . . .
57(4) . . .
47(4) . . .
50(4) . . .
55(4) . . .
60(4) . . .
48(4) . . .
57(4) . . .
61(4) . . .
57(4) . . .
58(4) . . .
58(4) . . .
57(4) . . .
57(4) . . .
60(4) . . .
63(4) . . .
58(4) . . .
58(4) . . .
53(4) . . .
50(4) . . .
56(4) . . .
56(4) . . .
62(4) . . .
61(4) . . .
55(4) . . .
47(4) . . .
47(4) . . .
61(4) . . .
55(4) . . .
58(4) . . .
54(4) . . .
51(4) . . .
63(4) . . .
59(4) . . .
61(4) . . .
61(5) . . .
55(4) . . .
57(4) . . .
60(4) . . .
56(4) . . .
58(4) . . .
54(4) . . .
57(4) . . .
53(4) . . .
51(4) . . .
53(4) . . .
51(4) . . .
54(4) . . .
57(4) . . .
59(4) . . .
50(4) . . .
43.3(34) . . .
60(4) . . .
51(4) . . .
65(5) . . .
58(4) . . .
58(4) . . .
52(4) . . .
60(4) . . .
65(5) . . .
49(4) . . .
54(4) . . .
60(4) . . .
56(4) . . .
63(4) . . .
55(4) . . .
57(4) . . .
48(4) . . .
59(4) . . .
57(4) . . .
70(5) . . .
59(4) . . .
55(4) . . .
62(4) . . .
68(5) . . .
65(4) . . .
51(4) . . .
65(4) . . .
53(4) . . .
60(4) . . .
56(4) . . .
57(4) . . .
62(4) . . .
54(4) . . .
50(4) . . .
53(4) . . .
60(4) . . .
58(4) . . .
46(4) . . .
56(4) . . .
58(4) . . .
71(4) . . .
52(4) . . .
61(4) . . .
46(4) . . .
65(4) . . .
55(4) . . .
56(4) . . .
64(4) . . .
53(4) . . .
45(4) . . .
55(4) . . .
51(4) . . .
49(4) . . .
53(4) . . .
45.4(35) . . .
52(4) . . .
55(4) . . .
58(4) . . .
56(4) . . .
55(4) . . .
52(4) . . .
52(4) . . .
48(4) . . .
58(4) . . .
52(4) . . .
48(4) . . .
52(4) . . .
54(4) . . .
54(4) . . .
62(4) . . .
56(4) . . .
58(4) . . .
54(4) . . .
53(4) . . .
60(4) . . .
58(4) . . .
53(4) . . .
62(4) . . .
56(4) . . .
64(4) . . .
53(4) . . .
60(4) . . .
58(4) . . .
53(4) . . .
55(4) . . .
41.7(35) . . .
43.8(35) . . .
60(4) . . .
57(4) . . .
52(4) . . .
49(4) . . .
57(4) . . .
61(4) . . .
53(4) . . .
51(4) . . .
74(5) . . .
54(4) . . .
54(4) . . .
52(4) . . .
63(4) . . .
63(4) . . .
41.8(35) . . .
57(4) . . .
69(4) . . .
55(4) . . .
58(4) . . .
54(4) . . .
47(4) . . .
54(4) . . .
57(4) . . .
57(4) . . .
51(4) . . .
56(4) . . .
53(4) . . .
50(4) . . .
51(4) . . .
47(4) . . .
55(4) . . .
62(4) . . .
61(4) . . .
58(4) . . .
52(4) . . .
59(4) . . .
57(4) . . .
46(4) . . .
52(4) . . .
58(4) . . .
53(4) . . .
63(4) . . .
56(4) . . .
58(4) . . .
52(4) . . .
51(4) . . .
53(4) . . .
55(4) . . .
51(4) . . .
54(4) . . .
51(4) . . .
56(4) . . .
61(4) . . .
54(4) . . .
59(4) . . .
58(4) . . .
49(4) . . .
60(4) . . .
60(4) . . .
56(4) . . .
61(4) . . .
52(4) . . .
51(4) . . .
41.5(34) . . .
46(4) . . .
64(4) . . .
50(4) . . .
55(4) . . .
56(4) . . .
64(4) . . .
61(4) . . .
57(4) . . .
51(4) . . .
56(4) . . .
63(4) . . .
59(4) . . .
67(4) . . .
56(4) . . .
64(5) . . .
75(5) . . .
54(4) . . .
56(4) . . .
58(4) . . .
55(4) . . .
53(4) . . .
61(4) . . .
56(4) . . .
60(4) . . .
61(4) . . .
50(4) . . .
54(4) . . .
57(4) . . .
52(4) . . .
61(5) . . .
59(4) . . .
56(4) . . .
53(4) . . .
53(4) . . .
51(4) . . .
55(4) . . .
61(4) . . .
64(4) . . .
62(4) . . .
60(4) . . .
57(4) . . .
57(4) . . .
57(4) . . .
55(4) . . .
55(4) . . .
61(4) . . .
58(4) . . .
49(4) . . .
55(4) . . .
57(4) . . .
57(4) . . .
56(4) . . .
51(4) . . .
48(4) . . .
53(4) . . .
55(4) . . .
45(4) . . .
47(4) . . .
55(4) . . .
51(4) . . .
54(4) . . .
53(4) . . .
58(4) . . .
57(4) . . .
62(4) . . .
59(4) . . .
50(4) . . .
63(4) . . .
54(4) . . .
49(4) . . .
50(4) . . .
55(4) . . .
56(4) . . .
52(4) . . .
53(4) . . .
57(4) . . .
47(4) . . .
52(4) . . .
55(4) . . .
59(4) . . .
57(4) . . .
60(4) . . .
55(4) . . .
60(4) . . .
52(4) . . .
63(4) . . .
63(4) . . .
49(4) . . .
60(4) . . .
53(4) . . .
50(4) . . .
58(4) . . .
56(4) . . .
59(4) . . .
57(4) . . .
61(4) . . .
60(4) . . .
59(4) . . .
55(4) . . .
56(4) . . .
55(4) . . .
56(4) . . .
60(4) . . .
54(4) . . .
59(4) . . .
45.2(35) . . .
52(4) . . .
62(4) . . .
53(4) . . .
58(4) . . .
62(4) . . .
59(4) . . .
54(4) . . .
52(4) . . .
50(4) . . .
51(4) . . .
50(4) . . .
58(4) . . .
57(4) . . .
56(4) . . .
59(4) . . .
53(4) . . .
61(4) . . .
56(4) . . .
56(4) . . .
55(4) . . .
54(4) . . .
59(4) . . .
54(4) . . .
50(4) . . .
62(4) . . .
62(4) . . .
46(4) . . .
58(4) . . .
59(4) . . .
62(4) . . .
54(4) . . .
57(4) . . .
48(4) . . .
53(4) . . .
58(4) . . .
53(4) . . .
57(4) . . .
55(4) . . .
49(4) . . .
63(4) . . .
48(4) . . .
63(4) . . .
52(4) . . .
45.8(35) . . .
63(4) . . .
63(4) . . .
47(4) . . .
51(4) . . .
51(4) . . .
60(4) . . .
53(4) . . .
51(4) . . .
49(4) . . .
53(4) . . .
45(4) . . .
52(4) . . .
58(4) . . .
64(4) . . .
58(4) . . .
57(4) . . .
49(4) . . .
58(4) . . .
53(4) . . .
53(4) . . .
50(4) . . .
48(4) . . .
55(4) . . .
56(4) . . .
51(4) . . .
56(4) . . .
52(4) . . .
49(4) . . .
56(4) . . .
66(4) . . .
46(4) . . .
69(5) . . .
57(4) . . .
52(4) . . .
54(4) . . .
44(4) . . .
44(4) . . .
51(4) . . .
56(4) . . .
49(4) . . .
53(4) . . .
53(4) . . .
53(4) . . .
43.8(34) . . .
51(4) . . .
53(4) . . .
57(4) . . .
58(4) . . .
65(4) . . .
58(4) . . .
63(4) . . .
49(4) . . .
46(4) . . .
49(4) . . .
60(4) . . .
63(4) . . .
54(4) . . .
54(4) . . .
55(4) . . .
62(4) . . .
58(4) . . .
52(4) . . .
64(4) . . .
57(4) . . .
49(4) . . .
50(4) . . .
54(4) . . .
48(4) . . .
54(4) . . .
67(5) . . .
53(4) . . .
59(4) . . .
54(4) . . .
50(4) . . .
64(4) . . .
62(4) . . .
58(4) . . .
52(4) . . .
57(4) . . .
53(4) . . .
45(4) . . .
47(4) . . .
54(4) . . .
55(4) . . .
56(4) . . .
57(4) . . .
56(4) . . .
47(4) . . .
47(4) . . .
56(4) . . .
60(4) . . .
45.2(35) . . .
55(4) . . .
68(4) . . .
63(4) . . .
66(4) . . .
51(4) . . .
58(4) . . .
59(4) . . .
57(4) . . .
66(4) . . .
55(4) . . .
59(4) . . .
56(4) . . .
51(4) . . .
66(4) . . .
48(4) . . .
50(4) . . .
56(4) . . .
52(4) . . .
55(4) . . .
58(4) . . .
55(4) . . .
60(4) . . .
63(4) . . .
59(4) . . .
55(4) . . .
51(4) . . .
49(4) . . .
53(4) . . .
50(4) . . .
50(4) . . .
63(4) . . .
63(4) . . .
52(4) . . .
46(4) . . .
49(4) . . .
55(4) . . .
57(4) . . .
39.7(34) . . .
58(4) . . .
54(4) . . .
52(4) . . .
49(4) . . .
49(4) . . .
58(4) . . .
46(4) . . .
52(4) . . .
56(4) . . .
55(4) . . .
55(4) . . .
51(4) . . .
61(4) . . .
41.7(34) . . .
54(4) . . .
50(4) . . .
44.6(35) . . .
57(4) . . .
52(4) . . .
49(4) . . .
58(4) . . .
55(4) . . .
59(4) . . .
57(4) . . .
55(4) . . .
56(4) . . .
57(4) . . .
54(4) . . .
56(4) . . .
56(4) . . .
56(4) . . .
42.4(35) . . .
52(4) . . .
53(4) . . .
57(4) . . .
50(4) . . .
55(4) . . .
49(4) . . .
50(4) . . .
50(4) . . .
48(4) . . .
54(4) . . .
52(4) . . .
46(4) . . .
51(4) . . .
45.0(35) . . .
47(4) . . .
53(4) . . .
54(4) . . .
49(4) . . .
56(4) . . .
55(4) . . .
53(4) . . .
52(4) . . .
51(4) . . .
52(4) . . .
50(4) . . .
54(4) . . .
62(4) . . .
56(4) . . .
54(4) . . .
54(4) . . .
53(4) . . .
54(4) . . .
42.0(33) . . .
42.8(34) . . .
51(4) . . .
64(5) . . .
56(4) . . .
44.7(35) . . .
42.5(34) . . .
47(4) . . .
49(4) . . .
41.8(35) . . .
41.1(34) . . .
40.8(33) . . .
52(4) . . .
55(4) . . .
56(4) . . .
48(4) . . .
49(4) . . .
49(4) . . .
51(4) . . .
56(4) . . .
57(4) . . .
55(4) . . .
43.6(34) . . .
62(5) . . .
49(4) . . .
53(4) . . .
52(4) . . .
54(4) . . .
37.7(33) . . .
54(4) . . .
51(4) . . .
58(4) . . .
59(4) . . .
53(4) . . .
57(4) . . .
60(4) . . .
52(4) . . .
54(4) . . .
54(4) . . .
53(4) . . .
49(4) . . .
52(4) . . .
56(4) . . .
58(4) . . .
50(4) . . .
59(4) . . .
56(4) . . .
56(4) . . .
61(4) . . .
58(4) . . .
47(4) . . .
54(4) . . .
55(4) . . .
53(4) . . .
54(4) . . .
45(4) . . .
66(5) . . .
46(4) . . .
51(4) . . .
59(4) . . .
43.4(34) . . .
57(4) . . .
53(4) . . .
52(4) . . .
55(4) . . .
44.5(35) . . .
55(4) . . .
67(5) . . .
47(4) . . .
53(4) . . .
59(4) . . .
51(4) . . .
53(4) . . .
49(4) . . .
52(4) . . .
46(4) . . .
46(4) . . .
58(4) . . .
60(4) . . .
49(4) . . .
60(4) . . .
62(4) . . .
64(5) . . .
57(4) . . .
49(4) . . .
47(4) . . .
45(4) . . .
50(4) . . .
50(4) . . .
54(4) . . .
57(4) . . .
54(4) . . .
53(4) . . .
59(4) . . .
50(4) . . .
49(4) . . .
53(4) . . .
53(4) . . .
68(4) . . .
52(4) . . .
51(4) . . .
47(4) . . .
49(4) . . .
56(4) . . .
51(4) . . .
58(4) . . .
53(4) . . .
57(4) . . .
45(4) . . .
49(4) . . .
61(4) . . .
58(4) . . .
49(4) . . .
50(4) . . .
49(4) . . .
60(4) . . .
64(5) . . .
51(4) . . .
58(4) . . .
61(4) . . .
47(4) . . .
41(4) . . .
52(4) . . .
49(4) . . .
37.6(32) . . .
56(4) . . .
51(4) . . .
53(4) . . .
44.2(34) . . .
53(4) . . .
52(4) . . .
55(4) . . .
62(4) . . .
52(4) . . .
58(4) . . .
49(4) . . .
46(4) . . .
43.1(35) . . .
51(4) . . .
55(4) . . .
50(4) . . .
58(4) . . .
60(4) . . .
48(4) . . .
60(4) . . .
57(4) . . .
53(4) . . .
46(4) . . .
61(4) . . .
54(4) . . .
48(4) . . .
46(4) . . .
49(4) . . .
53(4) . . .
51(4) . . .
50(4) . . .
56(4) . . .
54(4) . . .
59(4) . . .
60(4) . . .
45(4) . . .
50(4) . . .
60(4) . . .
45.8(35) . . .
54(4) . . .
41(4) . . .
46(4) . . .
53(4) . . .
50(4) . . .
46(4) . . .
52(4) . . .
50(4) . . .
53(4) . . .
50(4) . . .
54(4) . . .
54(4) . . .
64(4) . . .
60(4) . . .
59(4) . . .
61(4) . . .
68(5) . . .
57(4) . . .
55(4) . . .
49(4) . . .
54(4) . . .
59(4) . . .
55(4) . . .
53(4) . . .
58(4) . . .
63(4) . . .
53(4) . . .
46(4) . . .
56(4) . . .
47(4) . . .
58(4) . . .
44(4) . . .
56(4) . . .
50(4) . . .
58(4) . . .
51(4) . . .
66(5) . . .
57(4) . . .
58(4) . . .
71(4) . . .
56(4) . . .
56(4) . . .
49(4) . . .
56(4) . . .
55(4) . . .
60(4) . . .
58(4) . . .
45(4) . . .
46(4) . . .
53(4) . . .
50(4) . . .
51(4) . . .
62(4) . . .
57(4) . . .
51(4) . . .
51(4) . . .
52(4) . . .
49(4) . . .
58(4) . . .
58(4) . . .
52(4) . . .
55(4) . . .
60(4) . . .
54(4) . . .
53(4) . . .
44(4) . . .
44(4) . . .
61(4) . . .
54(4) . . .
47(4) . . .
53(4) . . .
54(4) . . .
61(4) . . .
57(4) . . .
53(4) . . .
48(4) . . .
55(4) . . .
64(4) . . .
55(4) . . .
46(4) . . .
47(4) . . .
47(4) . . .
47(4) . . .
54(4) . . .
47(4) . . .
61(4) . . .
62(4) . . .
49(4) . . .
44(4) . . .
56(4) . . .
50(4) . . .
44.1(35) . . .
46(4) . . .
56(4) . . .
58(4) . . .
55(4) . . .
63(4) . . .
56(4) . . .
60(4) . . .
50(4) . . .
56(4) . . .
58(4) . . .
53(4) . . .
47(4) . . .
56(4) . . .
49(4) . . .
50(4) . . .
56(4) . . .
55(4) . . .
56(4) . . .
53(4) . . .
57(4) . . .
49(4) . . .
57(4) . . .
53(4) . . .
55(4) . . .
51(4) . . .
52(4) . . .
61(4) . . .
56(4) . . .
57(4) . . .
54(4) . . .
45(4) . . .
53(4) . . .
61(4) . . .
43.2(35) . . .
47(4) . . .
52(4) . . .
47(4) . . .
50(4) . . .
48(4) . . .
56(4) . . .
54(4) . . .
50(4) . . .
55(4) . . .
54(4) . . .
56(4) . . .
53(4) . . .
47(4) . . .
54(4) . . .
56(4) . . .
56(4) . . .
58(4) . . .
46(4) . . .
47(4) . . .
57(4) . . .
59(4) . . .
49(4) . . .
59(4) . . .
38.3(32) . . .
46(4) . . .
50(4) . . .
52(4) . . .
50(4) . . .
49(4) . . .
50(4) . . .
53(4) . . .
55(4) . . .
55(4) . . .
54(4) . . .
61(4) . . .
51(4) . . .
57(4) . . .
47(4) . . .
53(4) . . .
52(4) . . .
51(4) . . .
46(4) . . .
53(4) . . .
57(4) . . .
49(4) . . .
50(4) . . .
53(4) . . .
50(4) . . .
59(4) . . .
46(4) . . .
46(4) . . .
50(4) . . .
51(4) . . .
47(4) . . .
53(4) . . .
46(4) . . .
59(4) . . .
46(4) . . .
52(4) . . .
52(4) . . .
53(4) . . .
53(4) . . .
47(4) . . .
47(4) . . .
61(4) . . .
54(4) . . .
58(4) . . .
59(4) . . .
42.5(35) . . .
44.0(34) . . .
50(4) . . .
52(4) . . .
53(4) . . .
58(4) . . .
64(4) . . .
57(4) . . .
74(5) . . .
53(4) . . .
56(4) . . .
59(4) . . .
55(4) . . .
48(4) . . .
53(4) . . .
57(4) . . .
60(4) . . .
42.5(35) . . .
57(4) . . .
49(4) . . .
44(4) . . .
52(4) . . .
50(4) . . .
48(4) . . .
46(4) . . .
51(4) . . .
53(4) . . .
53(4) . . .
52(4) . . .
55(4) . . .
66(4) . . .
57(4) . . .
48(4) . . .
52(4) . . .
56(4) . . .
65(4) . . .
54(4) . . .
50(4) . . .
52(4) . . .
55(4) . . .
50(4) . . .
51(4) . . .
48(4) . . .
48(4) . . .
50(4) . . .
55(4) . . .
42.9(34) . . .
49(4) . . .
53(4) . . .
54(4) . . .
50(4) . . .
62(4) . . .
58(4) . . .
51(4) . . .
50(4) . . .
44.9(34) . . .
49(4) . . .
40.4(34) . . .
52(4) . . .
55(4) . . .
50(4) . . .
52(4) . . .
50(4) . . .
47(4) . . .
52(4) . . .
45(4) . . .
50(4) . . .
54(4) . . .
49(4) . . .
49(4) . . .
50(4) . . .
53(4) . . .
53(4) . . .
49(4) . . .
37.7(32) . . .
48(4) . . .
56(4) . . .
53(4) . . .
48(4) . . .
47(4) . . .
55(4) . . .
47(4) . . .
51(4) . . .
44(4) . . .
52(4) . . .
51(4) . . .
46(4) . . .
60(4) . . .
49(4) . . .
43.8(35) . . .
46(4) . . .
57(4) . . .
48(4) . . .
46(4) . . .
56(4) . . .
44(4) . . .
41(4) . . .
49(4) . . .
54(4) . . .
53(4) . . .
63(4) . . .
52(4) . . .
54(4) . . .
53(4) . . .
50(4) . . .
50(4) . . .
58(4) . . .
56(4) . . .
47(4) . . .
45.3(34) . . .
53(4) . . .
53(4) . . .
46(4) . . .
48(4) . . .
49(4) . . .
54(4) . . .
50(4) . . .
56(4) . . .
52(4) . . .
46(4) . . .
49(4) . . .
50(4) . . .
52(4) . . .
63(4) . . .
47(4) . . .
42.4(35) . . .
46(4) . . .
50(4) . . .
41.9(34) . . .
54(4) . . .
52(4) . . .
54(4) . . .
44(4) . . .
53(4) . . .
48(4) . . .
56(4) . . .
50(4) . . .
50(4) . . .
44.5(34) . . .
53(4) . . .
42.3(35) . . .
45(4) . . .
37.0(34) . . .
48(4) . . .
44(4) . . .
53(4) . . .
50(4) . . .
53(4) . . .
47(4) . . .
61(4) . . .
54(4) . . .
51(4) . . .
61(4) . . .
52(4) . . .
48(4) . . .
51(4) . . .
48(4) . . .
64(4) . . .
56(4) . . .
59(4) . . .
57(4) . . .
58(4) . . .
40.0(33) . . .
55(4) . . .
64(4) . . .
51(4) . . .
55(4) . . .
47(4) . . .
42.0(34) . . .
56(4) . . .
48(4) . . .
61(4) . . .
52(4) . . .
49(4) . . .
53(4) . . .
58(4) . . .
53(4) . . .
46(4) . . .
41.9(33) . . .
55(4) . . .
51(4) . . .
41.9(35) . . .
52(4) . . .
54(4) . . .
43.0(33) . . .
54(4) . . .
70(5) . . .
52(4) . . .
54(4) . . .
54(4) . . .
50(4) . . .
51(4) . . .
45.3(35) . . .
45(4) . . .
53(4) . . .
43(4) . . .
46.1(35) . . .
64(4) . . .
53(4) . . .
43(4) . . .
48(4) . . .
47(4) . . .
46(4) . . .
44.5(35) . . .
50(4) . . .
51(4) . . .
46(4) . . .
50(4) . . .
47(4) . . .
52(4) . . .
61(4) . . .
49(4) . . .
48(4) . . .
48(4) . . .
58(4) . . .
57(4) . . .
37.8(32) . . .
52(4) . . .
56(4) . . .
63(5) . . .
53(4) . . .
51(4) . . .
47(4) . . .
46(4) . . .
59(4) . . .
58(4) . . .
56(4) . . .
61(4) . . .
57(4) . . .
54(4) . . .
55(4) . . .
52(4) . . .
49(4) . . .
53(4) . . .
52(4) . . .
43(4) . . .
53(4) . . .
44.0(35) . . .
43.9(35) . . .
54(4) . . .
51(4) . . .
48(4) . . .
52(4) . . .
47(4) . . .
58(4) . . .
54(4) . . .
54(4) . . .
58(4) . . .
60(4) . . .
40.9(35) . . .
53(4) . . .
50(4) . . .
50(4) . . .
46(4) . . .
41.2(34) . . .
50(4) . . .
45.3(35) . . .
53(4) . . .
56(4) . . .
50(4) . . .
50(4) . . .
52(4) . . .
50(4) . . .
58(4) . . .
42.1(33) . . .
49(4) . . .
43.2(35) . . .
58(4) . . .
60(4) . . .
50(4) . . .
38.9(32) . . .
42.0(34) . . .
56(4) . . .
49(4) . . .
50(4) . . .
44.2(35) . . .
55(4) . . .
53(4) . . .
51(4) . . .
58(4) . . .
65(4) . . .
49(4) . . .
40.9(33) . . .
50(4) . . .
53(4) . . .
55(4) . . .
46(4) . . .
47(4) . . .
50(4) . . .
48(4) . . .
47(4) . . .
46(4) . . .
52(4) . . .
53(4) . . .
58(4) . . .
58(4) . . .
56(4) . . .
45(4) . . .
61(4) . . .
52(4) . . .
49(4) . . .
53(4) . . .
49(4) . . .
48(4) . . .
57(4) . . .
65(4) . . .
60(4) . . .
48(4) . . .
49(4) . . .
51(4) . . .
54(4) . . .
58(4) . . .
48(4) . . .
50(4) . . .
44.0(34) . . .
55(4) . . .
48(4) . . .
60(4) . . .
55(4) . . .
44(4) . . .
53(4) . . .
49(4) . . .
47(4) . . .
66(4) . . .
51(4) . . .
52(4) . . .
51(4) . . .
53(4) . . .
52(4) . . .
42.9(34) . . .
59(4) . . .
42.3(34) . . .
51(4) . . .
46(4) . . .
54(4) . . .
51(4) . . .
50(4) . . .
54(4) . . .
58(4) . . .
60(4) . . .
43.6(34) . . .
54(4) . . .
46(4) . . .
57(4) . . .
43.9(34) . . .
49(4) . . .
51(4) . . .
38.5(33) . . .
49(4) . . .
55(4) . . .
43.7(35) . . .
49(4) . . .
50(4) . . .
57(4) . . .
49(4) . . .
55(4) . . .
56(4) . . .
52(4) . . .
50(4) . . .
43.7(34) . . .
49(4) . . .
49(4) . . .
52(4) . . .
48(4) . . .
51(4) . . .
48(4) . . .
51(4) . . .
46(4) . . .
50(4) . . .
43.2(34) . . .
49(4) . . .
56(4) . . .
52(4) . . .
50(4) . . .
58(4) . . .
56(4) . . .
56(4) . . .
59(4) . . .
49(4) . . .
54(4) . . .
57(4) . . .
48(4) . . .
40.6(35) . . .
50(4) . . .
52(4) . . .
55(4) . . .
48(4) . . .
57(4) . . .
50(4) . . .
53(4) . . .
50(4) . . .
52(4) . . .
50(4) . . .
45(4) . . .
45(4) . . .
48(4) . . .
54(4) . . .
46(4) . . .
40.0(33) . . .
57(4) . . .
49(4) . . .
47(4) . . .
50(4) . . .
60(4) . . .
56(4) . . .
44(4) . . .
50(4) . . .
41.8(35) . . .
38.8(32) . . .
52(4) . . .
52(4) . . .
55(4) . . .
56(4) . . .
41.5(34) . . .
52(4) . . .
43(4) . . .
52(4) . . .
46(4) . . .
45(4) . . .
47(4) . . .
54(4) . . .
55(4) . . .
44.7(35) . . .
53(4) . . .
51(4) . . .
54(4) . . .
49(4) . . .
38.3(32) . . .
45.3(35) . . .
47(4) . . .
46(4) . . .
51(4) . . .
48(4) . . .
50(4) . . .
49(4) . . .
61(4) . . .
60(4) . . .
58(4) . . .
57(4) . . .
51(4) . . .
52(4) . . .
52(4) . . .
54(4) . . .
56(4) . . .
49(4) . . .
52(4) . . .
43.9(34) . . .
50(4) . . .
49(4) . . .
46(4) . . .
49(4) . . .
56(4) . . .
49(4) . . .
52(4) . . .
44(4) . . .
49(4) . . .
52(4) . . .
50(4) . . .
50(4) . . .
48(4) . . .
44(4) . . .
52(4) . . .
50(4) . . .
55(4) . . .
47(4) . . .
43(4) . . .
46(4) . . .
45(4) . . .
46(4) . . .
52(4) . . .
57(4) . . .
50(4) . . .
54(4) . . .
61(4) . . .
43(4) . . .
48(4) . . .
52(4) . . .
44.6(35) . . .
59(4) . . .
55(4) . . .
58(4) . . .
54(4) . . .
47(4) . . .
49(4) . . .
52(4) . . .
46(4) . . .
56(4) . . .
48(4) . . .
47(4) . . .
45(4) . . .
52(4) . . .
54(4) . . .
62(4) . . .
46(4) . . .
47(4) . . .
61(4) . . .
50(4) . . .
52(4) . . .
45(4) . . .
51(4) . . .
43.1(35) . . .
49(4) . . .
50(4) . . .
51(4) . . .
48(4) . . .
50(4) . . .
47(4) . . .
47(4) . . .
46(4) . . .
52(4) . . .
48(4) . . .
51(4) . . .
55(4) . . .
53(4) . . .
44(4) . . .
51(4) . . .
54(4) . . .
61(4) . . .
53(4) . . .
45(4) . . .
54(4) . . .
46.3(35) . . .
48(4) . . .
49(4) . . .
44.7(34) . . .
50(4) . . .
49(4) . . .
60(4) . . .
54(4) . . .
51(4) . . .
50(4) . . .
50(4) . . .
44(4) . . .
45(4) . . .
43(4) . . .
44.2(35) . . .
53(4) . . .
43(4) . . .
42.5(35) . . .
48(4) . . .
46(4) . . .
50(4) . . .
52(4) . . .
46(4) . . .
45(4) . . .
49(4) . . .
43.0(34) . . .
51(4) . . .
50(4) . . .
60(4) . . .
47(4) . . .
50(4) . . .
53(4) . . .
65(5) . . .
56(4) . . .
50(4) . . .
47(4) . . .
57(4) . . .
64(4) . . .
42.8(33) . . .
42.9(35) . . .
52(4) . . .
47(4) . . .
57(4) . . .
49(4) . . .
40.3(33) . . .
40(4) . . .
41(4) . . .
45(4) . . .
40.4(34) . . .
49(4) . . .
46(4) . . .
46(4) . . .
59(4) . . .
48(4) . . .
56(4) . . .
54(4) . . .
54(4) . . .
56(4) . . .
48(4) . . .
43(4) . . .
42.0(34) . . .
42.9(35) . . .
48(4) . . .
47(4) . . .
46(4) . . .
58(4) . . .
44.2(34) . . .
50(4) . . .
52(4) . . .
52(4) . . .
53(4) . . .
53(4) . . .
43.2(35) . . .
46(4) . . .
45(4) . . .
50(4) . . .
47(4) . . .
46(4) . . .
45(4) . . .
48(4) . . .
51(4) . . .
48(4) . . .
52(4) . . .
52(4) . . .
60(4) . . .
53(4) . . .
50(4) . . .
50(4) . . .
52(4) . . .
45(4) . . .
53(4) . . .
41.1(34) . . .
49(4) . . .
39.8(33) . . .
47(4) . . .
53(4) . . .
48(4) . . .
52(4) . . .
49(4) . . .
50(4) . . .
52(4) . . .
43.0(34) . . .
50(4) . . .
47(4) . . .
61(4) . . .
50(4) . . .
54(4) . . .
50(4) . . .
52(4) . . .
42.1(34) . . .
54(4) . . .
50(4) . . .
46(4) . . .
54(4) . . .
50(4) . . .
47(4) . . .
49(4) . . .
54(4) . . .
58(4) . . .
42.8(35) . . .
47(4) . . .
46(4) . . .
46(4) . . .
47(4) . . .
45(4) . . .
45(4) . . .
50(4) . . .
42.6(34) . . .
48(4) . . .
45(4) . . .
41.8(34) . . .
46(4) . . .
43.5(35) . . .
52(4) . . .
53(4) . . .
48(4) . . .
54(4) . . .
49(4) . . .
68(4) . . .
57(4) . . .
54(4) . . .
51(4) . . .
52(4) . . .
49(4) . . .
57(4) . . .
52(4) . . .
49(4) . . .
56(4) . . .
54(4) . . .
50(4) . . .
53(4) . . .
59(4) . . .
58(4) . . .
54(4) . . .
49(4) . . .
42.7(35) . . .
51(4) . . .
54(4) . . .
52(4) . . .
41.7(35) . . .
47(4) . . .
46.7(35) . . .
43.5(35) . . .
51(4) . . .
51(4) . . .
62(4) . . .
58(4) . . .
50(4) . . .
38.7(35) . . .
47(4) . . .
44.0(35) . . .
61(4) . . .
49(4) . . .
48(4) . . .
55(4) . . .
53(4) . . .
46(4) . . .
53(4) . . .
60(4) . . .
53(4) . . .
42.8(34) . . .
42.8(34) . . .
53(4) . . .
55(4) . . .
51(4) . . .
52(4) . . .
59(4) . . .
48(4) . . .
49(4) . . .
51(4) . . .
52(4) . . .
49(4) . . .
48(4) . . .
46(4) . . .
41.2(34) . . .
57(4) . . .
54(4) . . .
52(4) . . .
49(4) . . .
46(4) . . .
51(4) . . .
45(4) . . .
44(4) . . .
47(4) . . .
53(4) . . .
48(4) . . .
50(4) . . .
51(4) . . .
50(4) . . .
45(4) . . .
43.1(34) . . .
53(4) . . .
46(4) . . .
49(4) . . .
49(4) . . .
50(4) . . .
56(4) . . .
49(4) . . .
54(4) . . .
41.7(34) . . .
43.3(35) . . .
54(4) . . .
45(4) . . .
47(4) . . .
49(4) . . .
52(4) . . .
51(4) . . .
53(4) . . .
48(4) . . .
54(4) . . .
57(4) . . .
47(4) . . .
49(4) . . .
47(4) . . .
43.1(34) . . .
36.4(32) . . .
42.1(34) . . .
54(4) . . .
53(4) . . .
51(4) . . .
54(4) . . .
41.3(33) . . .
37.6(33) . . .
48(4) . . .
51(4) . . .
46.2(35) . . .
48(4) . . .
48(4) . . .
47(4) . . .
56(4) . . .
50(4) . . .
63(4) . . .
58(4) . . .
50(4) . . .
46(4) . . .
44.7(35) . . .
63(4) . . .
45(4) . . .
47(4) . . .
48(4) . . .
55(4) . . .
52(4) . . .
55(4) . . .
47(4) . . .
53(4) . . .
51(4) . . .
52(4) . . .
43(4) . . .
51(4) . . .
52(4) . . .
47(4) . . .
47(4) . . .
44(4) . . .
40.0(34) . . .
48(4) . . .
43.1(35) . . .
52(4) . . .
57(4) . . .
54(4) . . .
57(4) . . .
45.4(34) . . .
43(4) . . .
45(4) . . .
46(4) . . .
48(4) . . .
47(4) . . .
48(4) . . .
49(4) . . .
55(4) . . .
48(4) . . .
52(4) . . .
46(4) . . .
43(4) . . .
52(4) . . .
50(4) . . .
48(4) . . .
55(4) . . .
43.3(33) . . .
50(4) . . .
46.8(35) . . .
43.8(35) . . .
51(4) . . .
51(4) . . .
44.9(35) . . .
53(4) . . .
48(4) . . .
45(4) . . .
51(4) . . .
50(4) . . .
49(4) . . .
49(4) . . .
61(4) . . .
47(4) . . .
49(4) . . .
44.0(34) . . .
45(4) . . .
37.5(32) . . .
51(4) . . .
42.0(35) . . .
49(4) . . .
56(4) . . .
49(4) . . .
49(4) . . .
48(4) . . .
55(4) . . .
54(4) . . .
42(4) . . .
49(4) . . .
40.7(33) . . .
54(4) . . .
34.4(31) . . .
52(4) . . .
50(4) . . .
44.3(35) . . .
44.0(35) . . .
52(4) . . .
40.2(33) . . .
48(4) . . .
49(4) . . .
50(4) . . .
58(4) . . .
57(4) . . .
52(4) . . .
47(4) . . .
56(4) . . .
52(4) . . .
48(4) . . .
47(4) . . .
43.9(34) . . .
44(4) . . .
40.5(35) . . .
44.5(35) . . .
50(4) . . .
55(4) . . .
42.0(35) . . .
53(4) . . .
42.5(35) . . .
49(4) . . .
55(4) . . .
47(4) . . .
58(4) . . .
49(4) . . .
47(4) . . .
42.5(35) . . .
48(4) . . .
53(4) . . .
56(4) . . .
48(4) . . .
54(4) . . .
50(4) . . .
40.6(34) . . .
45(4) . . .
43.3(35) . . .
43.6(35) . . .
53(4) . . .
54(4) . . .
47(4) . . .
48(4) . . .
46(4) . . .
51(4) . . .
45(4) . . .
46(4) . . .
38.8(33) . . .
46(4) . . .
47(4) . . .
55(4) . . .
49(4) . . .
55(4) . . .
53(4) . . .
56(4) . . .
54(4) . . .
54(4) . . .
47(4) . . .
42.6(35) . . .
45(4) . . .
47(4) . . .
43.7(34) . . .
45.3(35) . . .
39.9(34) . . .
47(4) . . .
46(4) . . .
51(4) . . .
47(4) . . .
48(4) . . .
53(4) . . .
42.6(34) . . .
49(4) . . .
46(4) . . .
51(4) . . .
50(4) . . .
51(4) . . .
50(4) . . .
52(4) . . .
50(4) . . .
34.1(33) . . .
41.3(35) . . .
45.7(35) . . .
38.9(33) . . .
45(4) . . .
50(4) . . .
45(4) . . .
56(4) . . .
47(4) . . .
47(4) . . .
46(4) . . .
52(4) . . .
47(4) . . .
43.7(35) . . .
38.5(33) . . .
44(4) . . .
44(4) . . .
49(4) . . .
47(4) . . .
51(4) . . .
54(4) . . .
59(4) . . .
52(4) . . .
46(4) . . .
45.2(35) . . .
46(4) . . .
47(4) . . .
44.7(35) . . .
49(4) . . .
46(4) . . .
48(4) . . .
52(4) . . .
48(4) . . .
52(4) . . .
52(4) . . .
50(4) . . .
48(4) . . .
45(4) . . .
45(4) . . .
50(4) . . .
65(5) . . .
48(4) . . .
54(4) . . .
39.3(34) . . .
46(4) . . .
37.4(32) . . .
49(4) . . .
55(4) . . .
39.8(32) . . .
51(4) . . .
63(4) . . .
56(4) . . .
55(4) . . .
40.0(33) . . .
59(4) . . .
67(4) . . .
46(4) . . .
50(4) . . .
50(4) . . .
48(4) . . .
52(4) . . .
48(4) . . .
61(5) . . .
50(4) . . .
53(4) . . .
54(4) . . .
50(4) . . .
50(4) . . .
49(4) . . .
50(4) . . .
52(4) . . .
44.8(35) . . .
50(4) . . .
60(4) . . .
59(4) . . .
46(4) . . .
47(4) . . .
50(4) . . .
49(4) . . .
51(4) . . .
33.5(30) . . .
44.9(35) . . .
45(4) . . .
40(4) . . .
45(4) . . .
52(4) . . .
49(4) . . .
35.7(32) . . .
48(4) . . .
55(4) . . .
49(4) . . .
40.4(33) . . .
47(4) . . .
40.2(35) . . .
47(4) . . .
52(4) . . .
50(4) . . .
48(4) . . .
50(4) . . .
55(4) . . .
57(4) . . .
49(4) . . .
51(4) . . .
49(4) . . .
55(4) . . .
55(4) . . .
42.4(34) . . .
40.8(34) . . .
53(4) . . .
58(4) . . .
54(4) . . .
48(4) . . .
42(4) . . .
53(4) . . .
46(4) . . .
52(4) . . .
52(4) . . .
52(4) . . .
37.5(32) . . .
43.3(35) . . .
48(4) . . .
60(4) . . .
46(4) . . .
46(4) . . .
45(4) . . .
41.7(34) . . .
55(4) . . .
49(4) . . .
49(4) . . .
51(4) . . .
51(4) . . .
49(4) . . .
56(4) . . .
53(4) . . .
47(4) . . .
44.3(34) . . .
38.0(32) . . .
43(4) . . .
53(4) . . .
44(4) . . .
44.5(35) . . .
41(4) . . .
49(4) . . .
49(4) . . .
49(4) . . .
53(4) . . .
54(4) . . .
45(4) . . .
45(4) . . .
36.9(31) . . .
51(4) . . .
47(4) . . .
50(4) . . .
49(4) . . .
48(4) . . .
46.2(35) . . .
46(4) . . .
51(4) . . .
50(4) . . .
54(4) . . .
53(4) . . .
44.9(35) . . .
48(4) . . .
55(4) . . .
52(4) . . .
36.7(32) . . .
46(4) . . .
40(4) . . .
49(4) . . .
47(4) . . .
49(4) . . .
58(4) . . .
54(4) . . .
48(4) . . .
47(4) . . .
47(4) . . .
53(4) . . .
52(4) . . .
45(4) . . .
51(4) . . .
52(4) . . .
45(4) . . .
51(4) . . .
53(4) . . .
45.4(35) . . .
52(4) . . .
49(4) . . .
52(4) . . .
46(4) . . .
42.6(34) . . .
40.6(34) . . .
44(4) . . .
59(4) . . .
58(4) . . .
49(4) . . .
48(4) . . .
51(4) . . .
59(4) . . .
51(4) . . .
50(4) . . .
47(4) . . .
47(4) . . .
50(4) . . .
50(4) . . .
42.9(34) . . .
45(4) . . .
53(4) . . .
51(4) . . .
56(4) . . .
51(4) . . .
57(4) . . .
52(4) . . .
49(4) . . .
45.1(35) . . .
40(4) . . .
36.3(33) . . .
46(4) . . .
44.5(35) . . .
57(4) . . .
56(4) . . .
51(4) . . .
49(4) . . .
49(4) . . .
38.0(32) . . .
49(4) . . .
46(4) . . .
60(4) . . .
43.7(34) . . .
53(4) . . .
56(4) . . .
61(4) . . .
50(4) . . .
48(4) . . .
50(4) . . .
41.5(35) . . .
61(5) . . .
53(4) . . .
50(4) . . .
45(4) . . .
52(4) . . .
39.8(35) . . .
43(4) . . .
55(4) . . .
55(4) . . .
49(4) . . .
51(4) . . .
48(4) . . .
47(4) . . .
41.3(34) . . .
51(4) . . .
56(4) . . .
51(4) . . .
44.9(35) . . .
53(4) . . .
50(4) . . .
53(4) . . .
57(4) . . .
52(4) . . .
52(4) . . .
39.7(35) . . .
52(4) . . .
55(4) . . .
52(4) . . .
40(4) . . .
41(4) . . .
59(4) . . .
50(4) . . .
49(4) . . .
39.5(33) . . .
41.0(33) . . .
44(4) . . .
46(4) . . .
53(4) . . .
50(4) . . .
47(4) . . .
46(4) . . .
56(4) . . .
44.8(35) . . .
51(4) . . .
43(4) . . .
49(4) . . .
43.0(34) . . .
51(4) . . .
53(4) . . .
54(4) . . .
48(4) . . .
52(4) . . .
45.7(35) . . .
45(4) . . .
51(4) . . .
40.5(33) . . .
52(4) . . .
46(4) . . .
53(4) . . .
51(4) . . .
46(4) . . .
48(4) . . .
59(4) . . .
40.3(34) . . .
50(4) . . .
47(4) . . .
39.5(33) . . .
42.3(35) . . .
53(4) . . .
48(4) . . .
50(4) . . .
42.4(34) . . .
50(4) . . .
47(4) . . .
54(4) . . .
46(4) . . .
57(4) . . .
46(4) . . .
53(4) . . .
52(4) . . .
46.4(35) . . .
56(4) . . .
44(4) . . .
49(4) . . .
50(4) . . .
44.5(35) . . .
48(4) . . .
61(4) . . .
39.4(34) . . .
47(4) . . .
56(4) . . .
47(4) . . .
39.5(34) . . .
51(4) . . .
49(4) . . .
47(4) . . .
45(4) . . .
47(4) . . .
43(4) . . .
66(4) . . .
44.2(34) . . .
55(4) . . .
50(4) . . .
43(4) . . .
47(4) . . .
46(4) . . .
52(4) . . .
49(4) . . .
51(4) . . .
45(4) . . .
49(4) . . .
47(4) . . .
53(4) . . .
46(4) . . .
53(4) . . .
41.4(33) . . .
51(4) . . .
62(4) . . .
49(4) . . .
53(4) . . .
52(4) . . .
51(4) . . .
50(4) . . .
40(4) . . .
43(4) . . .
35.8(31) . . .
47(4) . . .
42.5(35) . . .
47(4) . . .
41.4(34) . . .
53(4) . . .
47(4) . . .
51(4) . . .
57(4) . . .
47(4) . . .
41.8(34) . . .
43.9(35) . . .
45(4) . . .
55(4) . . .
51(4) . . .
50(4) . . .
54(4) . . .
48(4) . . .
49(4) . . .
52(4) . . .
54(4) . . .
41.4(34) . . .
42(4) . . .
47(4) . . .
47(4) . . .
48(4) . . .
51(4) . . .
39.4(34) . . .
50(4) . . .
39.8(33) . . .
50(4) . . .
47(4) . . .
48(4) . . .
45(4) . . .
49(4) . . .
46(4) . . .
48(4) . . .
49(4) . . .
50(4) . . .
44.6(35) . . .
42.7(34) . . .
49(4) . . .
59(4) . . .
49(4) . . .
45.4(35) . . .
51(4) . . .
42.9(34) . . .
53(4) . . .
50(4) . . .
45.7(35) . . .
54(4) . . .
55(4) . . .
54(4) . . .
48(4) . . .
43.7(35) . . .
47(4) . . .
40.2(33) . . .
67(4) . . .
60(4) . . .
51(4) . . .
50(4) . . .
41(4) . . .
44(4) . . .
60(4) . . .
45(4) . . .
42(4) . . .
45(4) . . .
50(4) . . .
52(4) . . .
45.0(35) . . .
51(4) . . .
50(4) . . .
46(4) . . .
45(4) . . .
42.9(34) . . .
54(4) . . .
40.3(34) . . .
52(4) . . .
52(4) . . .
60(4) . . .
56(4) . . .
43(4) . . .
44(4) . . .
51(4) . . .
52(4) . . .
52(4) . . .
41.9(35) . . .
50(4) . . .
54(4) . . .
41.2(33) . . .
55(4) . . .
46(4) . . .
45(4) . . .
56(4) . . .
45(4) . . .
51(4) . . .
60(4) . . .
44(4) . . .
52(4) . . .
53(4) . . .
48(4) . . .
48(4) . . .
44(4) . . .
54(4) . . .
47(4) . . .
51(4) . . .
52(4) . . .
54(4) . . .
53(4) . . .
48(4) . . .
50(4) . . .
48(4) . . .
52(4) . . .
36.6(32) . . .
42.4(34) . . .
60(5) . . .
53(4) . . .
45(4) . . .
49(4) . . .
52(4) . . .
56(4) . . .
46(4) . . .
48(4) . . .
43.0(34) . . .
52(4) . . .
52(4) . . .
52(4) . . .
46(4) . . .
59(4) . . .
50(4) . . .
48(4) . . .
48(4) . . .
57(4) . . .
62(4) . . .
46(4) . . .
48(4) . . .
51(4) . . .
48(4) . . .
37.5(31) . . .
47(4) . . .
40.0(34) . . .
52(4) . . .
41.0(33) . . .
43.2(34) . . .
51(4) . . .
53(4) . . .
49(4) . . .
50(4) . . .
64(4) . . .
56(4) . . .
45(4) . . .
49(4) . . .
48(4) . . .
49(4) . . .
53(4) . . .
45(4) . . .
50(4) . . .
46(4) . . .
57(4) . . .
57(4) . . .
42.5(35) . . .
45(4) . . .
33.8(30) . . .
51(4) . . .
42(4) . . .
38.1(33) . . .
61(4) . . .
45.9(35) . . .
58(4) . . .
57(4) . . .
45.0(35) . . .
52(4) . . .
50(4) . . .
52(4) . . .
52(4) . . .
54(4) . . .
46.3(35) . . .
51(4) . . .
46(4) . . .
49(4) . . .
45(4) . . .
50(4) . . .
50(4) . . .
51(4) . . .
49(4) . . .
43.5(34) . . .
54(4) . . .
48(4) . . .
52(4) . . .
53(4) . . .
49(4) . . .
53(4) . . .
56(4) . . .
47(4) . . .
47(4) . . .
41.5(34) . . .
37.2(31) . . .
45.8(35) . . .
54(4) . . .
49(4) . . .
44.8(35) . . .
57(4) . . .
44(4) . . .
61(4) . . .
42.8(34) . . .
51(4) . . .
43.9(34) . . .
41.5(35) . . .
48(4) . . .
47(4) . . .
44.5(35) . . .
47(4) . . .
40.7(35) . . .
50(4) . . .
51(4) . . .
46(4) . . .
49(4) . . .
55(4) . . .
46(4) . . .
57(4) . . .
44.8(35) . . .
44.4(34) . . .
49(4) . . .
43(4) . . .
48(4) . . .
40.9(34) . . .
50(4) . . .
51(4) . . .
50(4) . . .
41.7(34) . . .
47(4) . . .
48(4) . . .
41.9(35) . . .
35.5(31) . . .
48(4) . . .
49(4) . . .
43.5(33) . . .
42.3(34) . . .
45(4) . . .
53(4) . . .
54(4) . . .
50(4) . . .
52(4) . . .
50(4) . . .
51(4) . . .
42.8(34) . . .
42.7(34) . . .
51(4) . . .
51(4) . . .
52(4) . . .
54(4) . . .
48(4) . . .
48(4) . . .
51(4) . . .
48(4) . . .
45.5(35) . . .
47(4) . . .
39.3(34) . . .
44(4) . . .
41.0(34) . . .
47(4) . . .
44.0(34) . . .
46(4) . . .
39.5(35) . . .
47(4) . . .
58(4) . . .
53(4) . . .
50(4) . . .
52(4) . . .
45(4) . . .
43.6(34) . . .
43(4) . . .
39.7(34) . . .
50(4) . . .
54(4) . . .
46(4) . . .
51(4) . . .
49(4) . . .
48(4) . . .
57(4) . . .
40.1(33) . . .
40.6(34) . . .
43(4) . . .
45.4(35) . . .
42.5(34) . . .
49(4) . . .
50(4) . . .
42(4) . . .
49(4) . . .
42.5(34) . . .
40.8(33) . . .
51(4) . . .
47(4) . . .
54(4) . . .
55(4) . . .
55(4) . . .
48(4) . . .
50(4) . . .
53(4) . . .
46(4) . . .
43.0(35) . . .
44(4) . . .
42(4) . . .
36.7(32) . . .
43.2(34) . . .
48(4) . . .
52(4) . . .
47(4) . . .
41.8(35) . . .
48(4) . . .
43.5(35) . . .
50(4) . . .
45(4) . . .
51(4) . . .
44.1(35) . . .
48(4) . . .
43(4) . . .
45(4) . . .
43(4) . . .
37.7(32) . . .
40.3(34) . . .
43.0(35) . . .
42.6(34) . . .
43.1(34) . . .
51(4) . . .
47(4) . . .
53(4) . . .
38.5(33) . . .
54(4) . . .
48(4) . . .
40.6(33) . . .
44(4) . . .
49(4) . . .
54(4) . . .
51(4) . . .
46(4) . . .
45(4) . . .
41.3(34) . . .
36.2(31) . . .
42.3(33) . . .
47(4) . . .
46(4) . . .
49(4) . . .
42.8(34) . . .
50(4) . . .
61(4) . . .
56(4) . . .
52(4) . . .
52(4) . . .
45.8(35) . . .
44.3(35) . . .
52(4) . . .
46(4) . . .
52(4) . . .
49(4) . . .
46(4) . . .
51(4) . . .
41.9(35) . . .
51(4) . . .
49(4) . . .
45(4) . . .
47(4) . . .
43.1(34) . . .
44.6(35) . . .
53(4) . . .
49(4) . . .
47(4) . . .
42.2(33) . . .
46(4) . . .
56(4) . . .
46(4) . . .
47(4) . . .
44.0(35) . . .
44.5(35) . . .
44(4) . . .
47(4) . . .
49(4) . . .
47(4) . . .
51(4) . . .
49(4) . . .
45(4) . . .
37.8(32) . . .
49(4) . . .
33.7(31) . . .
36.9(33) . . .
41(4) . . .
45(4) . . .
50(4) . . .
47(4) . . .
43(4) . . .
47(4) . . .
46(4) . . .
47(4) . . .
39.6(32) . . .
52(4) . . .
49(4) . . .
40.7(34) . . .
41.6(33) . . .
51(4) . . .
41.1(35) . . .
47(4) . . .
34.8(32) . . .
46(4) . . .
41(4) . . .
40.3(34) . . .
45(4) . . .
45(4) . . .
40.6(33) . . .
47(4) . . .
42(4) . . .
40(4) . . .
39.8(33) . . .
43.2(34) . . .
48(4) . . .
53(4) . . .
46.4(35) . . .
59(4) . . .
59(4) . . .
56(4) . . .
51(4) . . .
48(4) . . .
43.0(34) . . .
48(4) . . .
45(4) . . .
56(4) . . .
57(4) . . .
53(4) . . .
42.4(35) . . .
51(4) . . .
49(4) . . .
52(4) . . .
48(4) . . .
53(4) . . .
43.8(34) . . .
50(4) . . .
29.6(29) . . .
48(4) . . .
39.0(33) . . .
51(4) . . .
45(4) . . .
42.8(35) . . .
47(4) . . .
48(4) . . .
39.3(33) . . .
42(4) . . .
47(4) . . .
48(4) . . .
44.8(35) . . .
50(4) . . .
43(4) . . .
42(4) . . .
42.3(34) . . .
43.6(35) . . .
49(4) . . .
45(4) . . .
44.8(34) . . .
52(4) . . .
43.7(35) . . .
43(4) . . .
57(4) . . .
46(4) . . .
54(4) . . .
47(4) . . .
43(4) . . .
47(4) . . .
43.1(34) . . .
54(4) . . .
45(4) . . .
41.4(34) . . .
51(4) . . .
47(4) . . .
48(4) . . .
49(4) . . .
47(4) . . .
52(4) . . .
52(4) . . .
52(4) . . .
48(4) . . .
52(4) . . .
43.9(35) . . .
44.8(35) . . .
55(4) . . .
55(4) . . .
49(4) . . .
52(4) . . .
50(4) . . .
46.8(35) . . .
43(4) . . .
47(4) . . .
53(4) . . .
53(4) . . .
47(4) . . .
42(4) . . .
54(4) . . .
40.8(34) . . .
45.6(35) . . .
48(4) . . .
49(4) . . .
56(4) . . .
42.3(35) . . .
53(4) . . .
50(4) . . .
48(4) . . .
49(4) . . .
58(4) . . .
43.5(34) . . .
40.0(34) . . .
49(4) . . .
44(4) . . .
47(4) . . .
44.4(35) . . .
45(4) . . .
46(4) . . .
50(4) . . .
40.2(35) . . .
47(4) . . .
39.5(33) . . .
48(4) . . .
54(4) . . .
45(4) . . .
48(4) . . .
43(4) . . .
47(4) . . .
52(4) . . .
53(4) . . .
51(4) . . .
54(4) . . .
51(4) . . .
32.4(29) . . .
42.6(34) . . .
55(4) . . .
42(4) . . .
37(4) . . .
52(4) . . .
52(4) . . .
46(4) . . .
44.7(35) . . .
52(4) . . .
48(4) . . .
41.4(34) . . .
38.8(33) . . .
51(4) . . .
53(4) . . .
46(4) . . .
40.6(33) . . .
47(4) . . .
54(4) . . .
44(4) . . .
53(4) . . .
51(4) . . .
56(4) . . .
50(4) . . .
44(4) . . .
49(4) . . .
42.0(34) . . .
44.0(34) . . .
53(4) . . .
43.2(35) . . .
48(4) . . .
56(4) . . .
44(4) . . .
48(4) . . .
44(4) . . .
53(4) . . .
57(4) . . .
55(4) . . .
47(4) . . .
42.7(34) . . .
48(4) . . .
51(4) . . .
48(4) . . .
46(4) . . .
53(4) . . .
48(4) . . .
50(4) . . .
57(4) . . .
45(4) . . .
40.5(33) . . .
51(4) . . .
48(4) . . .
42(4) . . .
44(4) . . .
38(4) . . .
47(4) . . .
43.8(35) . . .
43(4) . . .
47(4) . . .
47(4) . . .
47(4) . . .
43.6(35) . . .
47(4) . . .
52(4) . . .
49(4) . . .
47(4) . . .
53(4) . . .
49(4) . . .
44(4) . . .
39(4) . . .
39.2(33) . . .
51(4) . . .
46(4) . . .
48(4) . . .
43(4) . . .
50(4) . . .
50(4) . . .
45(4) . . .
41.6(35) . . .
37.4(32) . . .
55(4) . . .
54(4) . . .
51(4) . . .
39.0(35) . . .
46(4) . . .
55(4) . . .
43.5(35) . . .
41(4) . . .
40(4) . . .
44.3(35) . . .
52(4) . . .
47(4) . . .
49(4) . . .
47(4) . . .
52(4) . . .
52(4) . . .
38.0(32) . . .
41.9(35) . . .
39.2(34) . . .
40.7(33) . . .
41.1(33) . . .
36.4(32) . . .
39.3(34) . . .
46(4) . . .
47(4) . . .
49(4) . . .
40.4(35) . . .
51(4) . . .
50(4) . . .
46(4) . . .
48(4) . . .
47(4) . . .
40.7(34) . . .
53(4) . . .
44.4(35) . . .
50(4) . . .
56(4) . . .
45(4) . . .
46(4) . . .
41.6(34) . . .
46(4) . . .
45(4) . . .
41(4) . . .
47(4) . . .
44.2(34) . . .
52(4) . . .
58(4) . . .
50(4) . . .
40.6(33) . . .
42.3(34) . . .
46(4) . . .
40.8(33) . . .
51(4) . . .
55(4) . . .
41.7(34) . . .
51(4) . . .
52(4) . . .
47(4) . . .
47(4) . . .
51(4) . . .
48(4) . . .
47(4) . . .
46(4) . . .
47(4) . . .
50(4) . . .
41.9(34) . . .
48(4) . . .
44(4) . . .
43.7(35) . . .
42.5(34) . . .
39.2(33) . . .
57(4) . . .
56(4) . . .
55(4) . . .
44.6(34) . . .
44(4) . . .
40(4) . . .
45(4) . . .
53(4) . . .
35.6(31) . . .
31.7(30) . . .
43(4) . . .
49(4) . . .
39.9(33) . . .
40.9(33) . . .
35.9(31) . . .
48(4) . . .
52(4) . . .
50(4) . . .
62(4) . . .
46.5(35) . . .
51(4) . . .
44(4) . . .
39.6(33) . . .
48(4) . . .
52(4) . . .
54(4) . . .
53(4) . . .
56(4) . . .
49(4) . . .
51(4) . . .
50(4) . . .
57(4) . . .
46(4) . . .
46(4) . . .
50(4) . . .
51(4) . . .
47(4) . . .
42.8(34) . . .
48(4) . . .
45(4) . . .
43(4) . . .
44.0(35) . . .
48(4) . . .
43(4) . . .
45(4) . . .
38.9(34) . . .
44.6(35) . . .
44(4) . . .
51(4) . . .
47(4) . . .
47(4) . . .
44.5(34) . . .
45.7(35) . . .
51(4) . . .
46(4) . . .
45(4) . . .
51(4) . . .
45(4) . . .
52(4) . . .
44(4) . . .
39.9(33) . . .
39.2(33) . . .
38.9(33) . . .
51(4) . . .
49(4) . . .
41.8(34) . . .
47(4) . . .
43.2(35) . . .
56(4) . . .
47(4) . . .
47(4) . . .
41.3(33) . . .
47(4) . . .
51(4) . . .
56(4) . . .
34.1(31) . . .
36.8(32) . . .
57(4) . . .
48(4) . . .
48(4) . . .
47(4) . . .
42.0(34) . . .
47(4) . . .
45(4) . . .
48(4) . . .
42.8(35) . . .
44.2(35) . . .
43.0(34) . . .
50(4) . . .
45.8(35) . . .
51(4) . . .
47(4) . . .
38.6(33) . . .
47(4) . . .
50(4) . . .
50(4) . . .
46.4(35) . . .
51(4) . . .
47(4) . . .
46(4) . . .
44.9(35) . . .
38.3(32) . . .
53(4) . . .
44(4) . . .
53(4) . . .
54(4) . . .
43.1(34) . . .
37.1(33) . . .
46(4) . . .
63(4) . . .
49(4) . . .
51(4) . . .
52(4) . . .
48(4) . . .
47(4) . . .
51(4) . . .
42(4) . . .
42(4) . . .
46(4) . . .
43.3(34) . . .
54(4) . . .
47(4) . . .
37.7(33) . . .
43(4) . . .
54(4) . . .
39.7(33) . . .
39.3(33) . . .
40.7(34) . . .
44(4) . . .
50(4) . . .
48(4) . . .
49(4) . . .
43.0(35) . . .
48(4) . . .
46(4) . . .
50(4) . . .
47(4) . . .
41.2(33) . . .
40.3(34) . . .
46(4) . . .
60(4) . . .
47(4) . . .
49(4) . . .
46(4) . . .
44(4) . . .
47(4) . . .
40.8(34) . . .
44(4) . . .
57(4) . . .
55(4) . . .
34.2(31) . . .
44(4) . . .
42(4) . . .
46(4) . . .
39.2(33) . . .
50(4) . . .
50(4) . . .
44(4) . . .
44.2(35) . . .
49(4) . . .
55(4) . . .
50(4) . . .
54(4) . . .
56(4) . . .
48(4) . . .
50(4) . . .
57(4) . . .
46(4) . . .
36.4(33) . . .
40.4(33) . . .
48(4) . . .
50(4) . . .
44(4) . . .
39.0(33) . . .
46(4) . . .
51(4) . . .
59(4) . . .
52(4) . . .
43.6(35) . . .
42.8(34) . . .
53(4) . . .
52(4) . . .
53(4) . . .
51(4) . . .
51(4) . . .
48(4) . . .
47(4) . . .
43.3(35) . . .
46.3(35) . . .
37.0(32) . . .
47(4) . . .
47(4) . . .
44(4) . . .
48(4) . . .
55(4) . . .
56(4) . . .
53(4) . . .
36.3(31) . . .
50(4) . . .
49(4) . . .
53(4) . . .
49(4) . . .
43.1(35) . . .
47(4) . . .
46(4) . . .
46(4) . . .
52(4) . . .
51(4) . . .
55(4) . . .
50(4) . . .
56(4) . . .
48(4) . . .
46(4) . . .
48(4) . . .
40.6(33) . . .
53(4) . . .
52(4) . . .
41.7(33) . . .
48(4) . . .
46(4) . . .
46(4) . . .
51(4) . . .
48(4) . . .
43.8(35) . . .
54(4) . . .
56(4) . . .
39.2(34) . . .
51(4) . . .
48(4) . . .
50(4) . . .
45(4) . . .
41.1(35) . . .
42(4) . . .
47(4) . . .
49(4) . . .
40.1(33) . . .
40.9(34) . . .
46(4) . . .
53(4) . . .
50(4) . . .
58(4) . . .
46(4) . . .
48(4) . . .
63(4) . . .
52(4) . . .
45(4) . . .
41.2(35) . . .
48(4) . . .
49(4) . . .
45(4) . . .
55(4) . . .
44(4) . . .
51(4) . . .
47(4) . . .
52(4) . . .
44(4) . . .
49(4) . . .
52(4) . . .
56(4) . . .
48(4) . . .
52(4) . . .
50(4) . . .
36.1(32) . . .
48(4) . . .
47(4) . . .
46(4) . . .
56(4) . . .
51(4) . . .
37.6(31) . . .
47(4) . . .
46(4) . . .
40.7(34) . . .
48(4) . . .
49(4) . . .
49(4) . . .
53(4) . . .
43.6(34) . . .
55(4) . . .
41.6(35) . . .
52(4) . . .
49(4) . . .
44(4) . . .
50(4) . . .
43(4) . . .
46(4) . . .
46(4) . . .
39.0(32) . . .
40.5(33) . . .
44.0(34) . . .
49(4) . . .
47(4) . . .
51(4) . . .
48(4) . . .
52(4) . . .
44(4) . . .
47(4) . . .
45(4) . . .
54(4) . . .
47(4) . . .
50(4) . . .
41.5(35) . . .
44.9(35) . . .
41.0(33) . . .
53(4) . . .
48(4) . . .
42.0(33) . . .
52(4) . . .
49(4) . . .
56(4) . . .
43(4) . . .
49(4) . . .
41.0(35) . . .
45.2(35) . . .
60(4) . . .
57(4) . . .
49(4) . . .
47(4) . . .
41.0(33) . . .
52(4) . . .
55(4) . . .
54(4) . . .
37.2(32) . . .
43.4(34) . . .
47(4) . . .
41.2(34) . . .
44(4) . . .
52(4) . . .
49(4) . . .
42.1(35) . . .
45.5(35) . . .
54(4) . . .
47(4) . . .
39.4(33) . . .
42.9(34) . . .
54(4) . . .
41.4(35) . . .
41.7(34) . . .
48(4) . . .
41(4) . . .
36.0(31) . . .
43(4) . . .
49(4) . . .
45.1(35) . . .
55(4) . . .
54(4) . . .
44(4) . . .
44.0(35) . . .
44(4) . . .
49(4) . . .
45(4) . . .
45(4) . . .
48(4) . . .
46(4) . . .
45(4) . . .
51(4) . . .
49(4) . . .
40.8(33) . . .
51(4) . . .
51(4) . . .
48(4) . . .
49(4) . . .
50(4) . . .
47(4) . . .
48(4) . . .
38.3(32) . . .
40.6(33) . . .
52(4) . . .
45(4) . . .
45(4) . . .
46(4) . . .
50(4) . . .
40.8(33) . . .
40.8(35) . . .
41.3(34) . . .
56(4) . . .
44(4) . . .
58(4) . . .
50(4) . . .
49(4) . . .
45(4) . . .
45(4) . . .
45.7(35) . . .
44(4) . . .
56(4) . . .
53(4) . . .
42.7(34) . . .
50(4) . . .
39.4(31) . . .
44(4) . . .
50(4) . . .
51(4) . . .
48(4) . . .
42(4) . . .
40.2(33) . . .
46(4) . . .
38.2(32) . . .
37.7(33) . . .
48(4) . . .
42.8(35) . . .
47(4) . . .
44.5(34) . . .
39.2(33) . . .
49(4) . . .
39.0(35) . . .
49(4) . . .
48(4) . . .
48(4) . . .
50(4) . . .
54(4) . . .
50(4) . . .
42.2(34) . . .
37.6(32) . . .
48(4) . . .
42(4) . . .
42.0(33) . . .
39.6(33) . . .
40.5(33) . . .
47(4) . . .
48(4) . . .
45.3(35) . . .
41.0(34) . . .
43(4) . . .
43(4) . . .
46(4) . . .
48(4) . . .
48(4) . . .
45.2(35) . . .
38.3(33) . . .
43(4) . . .
48(4) . . .
42(4) . . .
41.2(34) . . .
46(4) . . .
43.5(35) . . .
45(4) . . .
37.3(32) . . .
48(4) . . .
36.8(31) . . .
37.8(32) . . .
52(4) . . .
46(4) . . .
43(4) . . .
40.4(34) . . .
51(4) . . .
44.5(35) . . .
48(4) . . .
50(4) . . .
40.2(34) . . .
51(4) . . .
39.9(33) . . .
44.3(35) . . .
47(4) . . .
43(4) . . .
52(4) . . .
40.5(33) . . .
52(4) . . .
39.1(34) . . .
46(4) . . .
45.1(35) . . .
45.7(35) . . .
54(4) . . .
50(4) . . .
39.5(32) . . .
49(4) . . .
50(4) . . .
56(4) . . .
43.0(35) . . .
43(4) . . .
44(4) . . .
44(4) . . .
44(4) . . .
39(4) . . .
43(4) . . .
51(4) . . .
49(4) . . .
38.6(33) . . .
42.8(34) . . .
50(4) . . .
36.4(32) . . .
44(4) . . .
55(4) . . .
32.4(31) . . .
51(4) . . .
43.5(35) . . .
45(4) . . .
53(4) . . .
53(4) . . .
46(4) . . .
46(4) . . .
49(4) . . .
45(4) . . .
48(4) . . .
45(4) . . .
39.8(33) . . .
48(4) . . .
53(4) . . .
51(4) . . .
47(4) . . .
40.7(33) . . .
41.6(33) . . .
40(4) . . .
41.0(35) . . .
46.1(35) . . .
47(4) . . .
45(4) . . .
52(4) . . .
46(4) . . .
44(4) . . .
37.9(33) . . .
41(4) . . .
53(4) . . .
49(4) . . .
50(4) . . .
49(4) . . .
47(4) . . .
45(4) . . .
53(4) . . .
48(4) . . .
50(4) . . .
48(4) . . .
42(4) . . .
51(4) . . .
51(4) . . .
43.5(35) . . .
43(4) . . .
51(4) . . .
53(4) . . .
46(4) . . .
49(4) . . .
48(4) . . .
50(4) . . .
50(4) . . .
40.4(33) . . .
39.5(32) . . .
45(4) . . .
51(4) . . .
47(4) . . .
44.5(34) . . .
44.5(34) . . .
46(4) . . .
42(4) . . .
48(4) . . .
57(4) . . .
51(4) . . .
44.3(34) . . .
40.6(33) . . .
42.5(34) . . .
41.7(34) . . .
54(4) . . .
46(4) . . .
45(4) . . .
50(4) . . .
53(4) . . .
44(4) . . .
46(4) . . .
47(4) . . .
52(4) . . .
49(4) . . .
48(4) . . .
36.9(32) . . .
45(4) . . .
53(4) . . .
51(4) . . .
49(4) . . .
46(4) . . .
44.3(34) . . .
47(4) . . .
47(4) . . .
45(4) . . .
53(4) . . .
40.1(35) . . .
43.7(34) . . .
43(4) . . .
38.7(33) . . .
44(4) . . .
40(4) . . .
37.1(33) . . .
42.8(34) . . .
41.4(34) . . .
44(4) . . .
46(4) . . .
53(4) . . .
36.0(30) . . .
51(4) . . .
47(4) . . .
52(4) . . .
44.4(35) . . .
43(4) . . .
46(4) . . .
49(4) . . .
53(4) . . .
49(4) . . .
40.0(33) . . .
41.1(35) . . .
42.2(34) . . .
49(4) . . .
52(4) . . .
43.2(35) . . .
42(4) . . .
45(4) . . .
53(4) . . .
56(4) . . .
45(4) . . .
44(4) . . .
42.3(34) . . .
46(4) . . .
45.2(35) . . .
46(4) . . .
46(4) . . .
47(4) . . .
43(4) . . .
47(4) . . .
48(4) . . .
46(4) . . .
35.0(33) . . .
42.6(34) . . .
52(4) . . .
46(4) . . .
48(4) . . .
41(4) . . .
43.8(34) . . .
52(4) . . .
49(4) . . .
47(4) . . .
42.6(35) . . .
44.0(35) . . .
40.5(33) . . .
55(4) . . .
41.2(35) . . .
48(4) . . .
51(4) . . .
46(4) . . .
41.8(34) . . .
46(4) . . .
42.0(34) . . .
36.0(31) . . .
43.2(34) . . .
55(4) . . .
53(4) . . .
57(4) . . .
57(4) . . .
47(4) . . .
42(4) . . .
48(4) . . .
59(4) . . .
50(4) . . .
34.7(31) . . .
38.7(33) . . .
58(4) . . .
53(4) . . .
46.1(35) . . .
47(4) . . .
45(4) . . .
46(4) . . .
47(4) . . .
53(4) . . .
44(4) . . .
54(4) . . .
45(4) . . .
46(4) . . .
51(4) . . .
45.2(35) . . .
44(4) . . .
57(4) . . .
47(4) . . .
39.0(33) . . .
41.0(34) . . .
49(4) . . .
51(4) . . .
44.2(34) . . .
47(4) . . .
52(4) . . .
41(4) . . .
48(4) . . .
49(4) . . .
50(4) . . .
51(4) . . .
43.1(35) . . .
44(4) . . .
49(4) . . .
43.0(34) . . .
49(4) . . .
47(4) . . .
48(4) . . .
45.7(35) . . .
47(4) . . .
48(4) . . .
42.2(34) . . .
42.5(34) . . .
42.9(35) . . .
41.0(33) . . .
46(4) . . .
54(4) . . .
41.5(35) . . .
41.4(34) . . .
44(4) . . .
41.3(34) . . .
50(4) . . .
49(4) . . .
52(4) . . .
43.8(35) . . .
52(4) . . .
44(4) . . .
49(4) . . .
48(4) . . .
50(4) . . .
47(4) . . .
46(4) . . .
34.3(30) . . .
51(4) . . .
50(4) . . .
49(4) . . .
55(4) . . .
41.7(34) . . .
42.0(33) . . .
45(4) . . .
45(4) . . .
51(4) . . .
40.1(33) . . .
46.0(35) . . .
45(4) . . .
49(4) . . .
51(4) . . .
36.4(31) . . .
52(4) . . .
59(4) . . .
53(4) . . .
42.7(35) . . .
50(4) . . .
43.3(35) . . .
48(4) . . .
49(4) . . .
40.9(34) . . .
45.2(35) . . .
48(4) . . .
46(4) . . .
40.2(35) . . .
42.1(34) . . .
54(4) . . .
47(4) . . .
47(4) . . .
43(4) . . .
51(4) . . .
54(4) . . .
39.2(33) . . .
47(4) . . .
43(4) . . .
38.5(32) . . .
43.8(35) . . .
49(4) . . .
47(4) . . .
33.2(31) . . .
44(4) . . .
40.3(34) . . .
41.2(34) . . .
51(4) . . .
54(4) . . .
52(4) . . .
43.5(34) . . .
46(4) . . .
39.8(35) . . .
52(4) . . .
47(4) . . .
52(4) . . .
44.3(35) . . .
48(4) . . .
49(4) . . .
58(4) . . .
58(4) . . .
53(4) . . .
40.4(33) . . .
37.7(33) . . .
50(4) . . .
58(4) . . .
49(4) . . .
47(4) . . .
42(4) . . .
41.4(34) . . .
46(4) . . .
38.6(33) . . .
52(4) . . .
41.3(33) . . .
52(4) . . .
45(4) . . .
51(4) . . .
46(4) . . .
55(4) . . .
52(4) . . .
43(4) . . .
35.7(32) . . .
42.0(34) . . .
40.2(33) . . .
42.5(34) . . .
55(4) . . .
33.2(32) . . .
41.1(35) . . .
40.1(33) . . .
50(4) . . .
38.9(35) . . .
40(4) . . .
55(4) . . .
39.2(34) . . .
36.5(33) . . .
54(4) . . .
39.5(33) . . .
38.9(33) . . .
41.7(33) . . .
45(4) . . .
47(4) . . .
52(4) . . .
50(4) . . .
59(4) . . .
57(4) . . .
48(4) . . .
42(4) . . .
49(4) . . .
47(4) . . .
37.6(32) . . .
53(4) . . .
45(4) . . .
54(4) . . .
47(4) . . .
51(4) . . .
45(4) . . .
48(4) . . .
43(4) . . .
47(4) . . .
45(4) . . .
46(4) . . .
49(4) . . .
46(4) . . .
46(4) . . .
50(4) . . .
58(4) . . .
55(4) . . .
49(4) . . .
47(4) . . .
47(4) . . .
54(4) . . .
49(4) . . .
44.9(35) . . .
47(4) . . .
48(4) . . .
48(4) . . .
44.4(35) . . .
37.2(31) . . .
46(4) . . .
58(4) . . .
48(4) . . .
40.8(33) . . .
47(4) . . .
44.5(35) . . .
48(4) . . .
47(4) . . .
47(4) . . .
57(4) . . .
50(4) . . .
42.9(35) . . .
41.4(34) . . .
45(4) . . .
43.6(35) . . .
38.7(33) . . .
36.0(32) . . .
41(4) . . .
47(4) . . .
43.0(34) . . .
41.1(34) . . .
44.9(35) . . .
42(4) . . .
45(4) . . .
54(4) . . .
53(4) . . .
47(4) . . .
49(4) . . .
51(4) . . .
39.4(33) . . .
43.0(34) . . .
46(4) . . .
52(4) . . .
45(4) . . .
54(4) . . .
50(4) . . .
40.6(35) . . .
49(4) . . .
48(4) . . .
48(4) . . .
50(4) . . .
38.6(33) . . .
51(4) . . .
51(4) . . .
33.1(30) . . .
38.3(34) . . .
52(4) . . .
48(4) . . .
36.0(32) . . .
44.4(34) . . .
48(4) . . .
44(4) . . .
42(4) . . .
41.1(33) . . .
55(4) . . .
48(4) . . .
52(4) . . .
45(4) . . .
38.0(32) . . .
48(4) . . .
50(4) . . .
49(4) . . .
45(4) . . .
41.1(33) . . .
50(4) . . .
47(4) . . .
51(4) . . .
46(4) . . .
39.5(33) . . .
39.3(32) . . .
42.0(35) . . .
41(4) . . .
42.6(35) . . .
49(4) . . .
43.4(34) . . .
53(4) . . .
51(4) . . .
51(4) . . .
54(4) . . .
41.2(34) . . .
41.6(33) . . .
40.5(34) . . .
58(5) . . .
45.0(35) . . .
46(4) . . .
47(4) . . .
47(4) . . .
46(4) . . .
47(4) . . .
53(4) . . .
43(4) . . .
36.5(34) . . .
39.0(34) . . .
54(4) . . .
50(4) . . .
52(4) . . .
39.2(34) . . .
42.7(35) . . .
37.4(32) . . .
44.4(35) . . .
45(4) . . .
49(4) . . .
37.3(31) . . .
53(4) . . .
45(4) . . .
45(4) . . .
45(4) . . .
50(4) . . .
45.3(35) . . .
42(4) . . .
42(4) . . .
52(4) . . .
50(4) . . .
46(4) . . .
45(4) . . .
48(4) . . .
45(4) . . .
45.1(35) . . .
40.8(33) . . .
49(4) . . .
54(4) . . .
52(4) . . .
47(4) . . .
46(4) . . .
49(4) . . .
43(4) . . .
46(4) . . .
43.9(35) . . .
37.3(31) . . .
51(4) . . .
43(4) . . .
40.1(33) . . .
50(4) . . .
41.3(34) . . .
51(4) . . .
46(4) . . .
50(4) . . .
50(4) . . .
50(4) . . .
48(4) . . .
38.5(33) . . .
51(4) . . .
42.1(34) . . .
48(4) . . .
46(4) . . .
44(4) . . .
46(4) . . .
43.6(34) . . .
40.3(34) . . .
40.0(34) . . .
46(4) . . .
48(4) . . .
40.8(34) . . .
44(4) . . .
48(4) . . .
47(4) . . .
58(4) . . .
44.4(35) . . .
46(4) . . .
51(4) . . .
50(4) . . .
42.5(34) . . .
52(4) . . .
58(4) . . .
51(4) . . .
40.8(33) . . .
47(4) . . .
50(4) . . .
45(4) . . .
45(4) . . .
44.9(35) . . .
53(4) . . .
49(4) . . .
40.7(35) . . .
44(4) . . .
48(4) . . .
52(4) . . .
52(4) . . .
48(4) . . .
50(4) . . .
44(4) . . .
44.3(35) . . .
38.0(33) . . .
35.9(33) . . .
52(4) . . .
47(4) . . .
48(4) . . .
38.5(33) . . .
49(4) . . .
51(4) . . .
48(4) . . .
51(4) . . .
43.7(34) . . .
53(4) . . .
55(4) . . .
47(4) . . .
36.0(32) . . .
43(4) . . .
42(4) . . .
44(4) . . .
48(4) . . .
59(4) . . .
51(4) . . .
46(4) . . .
48(4) . . .
46(4) . . .
48(4) . . .
48(4) . . .
45(4) . . .
40.8(33) . . .
45(4) . . .
39.8(33) . . .
50(4) . . .
37.9(35) . . .
47(4) . . .
55(4) . . .
52(4) . . .
48(4) . . .
43(4) . . .
49(4) . . .
42.2(34) . . .
57(4) . . .
50(4) . . .
55(4) . . .
48(4) . . .
46(4) . . .
42.4(34) . . .
44(4) . . .
51(4) . . .
42.0(35) . . .
39.5(33) . . .
46(4) . . .
45(4) . . .
49(4) . . .
44(4) . . .
49(4) . . .
43.6(35) . . .
50(4) . . .
42.3(34) . . .
41.9(34) . . .
51(4) . . .
44.5(35) . . .
43(4) . . .
42(4) . . .
39.7(34) . . .
40.5(33) . . .
39.4(33) . . .
40(4) . . .
35.7(32) . . .
52(4) . . .
42.1(33) . . .
40.6(33) . . .
43(4) . . .
49(4) . . .
48(4) . . .
43.8(35) . . .
43.9(34) . . .
52(4) . . .
37.8(32) . . .
41.5(34) . . .
44.4(35) . . .
49(4) . . .
41.7(34) . . .
55(4) . . .
50(4) . . .
44.5(35) . . .
40.3(34) . . .
43(4) . . .
54(4) . . .
43.4(34) . . .
39.8(33) . . .
45(4) . . .
56(4) . . .
48(4) . . .
45.2(35) . . .
50(4) . . .
53(4) . . .
45(4) . . .
34.6(31) . . .
37.8(32) . . .
50(4) . . .
46(4) . . .
45(4) . . .
38.2(33) . . .
46(4) . . .
54(4) . . .
47(4) . . .
54(4) . . .
50(4) . . .
44.6(34) . . .
54(4) . . .
47(4) . . .
39.1(33) . . .
55(4) . . .
42.5(34) . . .
42(4) . . .
52(4) . . .
52(4) . . .
61(4) . . .
47(4) . . .
39.0(34) . . .
49(4) . . .
36.4(33) . . .
45(4) . . .
55(4) . . .
48(4) . . .
48(4) . . .
40.0(33) . . .
44(4) . . .
48(4) . . .
58(4) . . .
50(4) . . .
46(4) . . .
45.0(35) . . .
44.0(34) . . .
44(4) . . .
47(4) . . .
48(4) . . .
40.9(33) . . .
45(4) . . .
53(4) . . .
46(4) . . .
41.8(34) . . .
48(4) . . .
51(4) . . .
49(4) . . .
43(4) . . .
44(4) . . .
47(4) . . .
51(4) . . .
48(4) . . .
44(4) . . .
49(4) . . .
44(4) . . .
45(4) . . .
45(4) . . .
44(4) . . .
50(4) . . .
48(4) . . .
40.7(33) . . .
50(4) . . .
39.3(34) . . .
51(4) . . .
42.4(35) . . .
45(4) . . .
43(4) . . .
42.1(34) . . .
46(4) . . .
47(4) . . .
43.1(35) . . .
48(4) . . .
35.8(31) . . .
40.3(34) . . .
51(4) . . .
53(4) . . .
48(4) . . .
50(4) . . .
43.3(34) . . .
40.3(33) . . .
49(4) . . .
54(4) . . .
44(4) . . .
44.1(35) . . .
40.7(33) . . .
41.0(34) . . .
51(4) . . .
49(4) . . .
41.5(34) . . .
45(4) . . .
48(4) . . .
43(4) . . .
47(4) . . .
53(4) . . .
44.0(34) . . .
32.5(33) . . .
41(4) . . .
51(4) . . .
39.9(33) . . .
39.1(33) . . .
44.3(34) . . .
50(4) . . .
55(4) . . .
42.8(34) . . .
48(4) . . .
38.1(33) . . .
48(4) . . .
57(4) . . .
48(4) . . .
45(4) . . .
53(4) . . .
52(4) . . .
56(4) . . .
45.0(35) . . .
48(4) . . .
43(4) . . .
43(4) . . .
41.6(34) . . .
37.0(32) . . .
38.0(35) . . .
43(4) . . .
39(4) . . .
45(4) . . .
53(4) . . .
45(4) . . .
43(4) . . .
51(4) . . .
49(4) . . .
43.9(34) . . .
42(4) . . .
44(4) . . .
44(4) . . .
37.1(32) . . .
35.5(31) . . .
44(4) . . .
45(4) . . .
48(4) . . .
48(4) . . .
50(4) . . .
50(4) . . .
43(4) . . .
48(4) . . .
40.6(33) . . .
50(4) . . .
50(4) . . .
40.4(35) . . .
50(4) . . .
47(4) . . .
44(4) . . .
40.5(35) . . .
35.2(31) . . .
49(4) . . .
57(4) . . .
48(4) . . .
46(4) . . .
43(4) . . .
54(4) . . .
42.0(33) . . .
45(4) . . .
41.9(34) . . .
49(4) . . .
46(4) . . .
49(4) . . .
50(4) . . .
51(4) . . .
53(4) . . .
46(4) . . .
45.4(35) . . .
50(4) . . .
41(4) . . .
46(4) . . .
41.6(35) . . .
40.0(32) . . .
47(4) . . .
49(4) . . .
43.2(34) . . .
51(4) . . .
54(4) . . .
54(4) . . .
51(4) . . .
49(4) . . .
41.3(34) . . .
39.8(33) . . .
45(4) . . .
44(4) . . .
41.1(35) . . .
42.0(34) . . .
42.9(34) . . .
40.7(35) . . .
56(5) . . .
45(4) . . .
46(4) . . .
56(4) . . .
50(4) . . .
45(4) . . .
49(4) . . .
47(4) . . .
55(4) . . .
53(4) . . .
42(4) . . .
40.3(34) . . .
56(4) . . .
56(4) . . .
55(4) . . .
48(4) . . .
54(4) . . .
43.8(35) . . .
40.8(34) . . .
38.8(34) . . .
55(4) . . .
43.9(35) . . .
51(4) . . .
48(4) . . .
48(4) . . .
45(4) . . .
46(4) . . .
46(4) . . .
48(4) . . .
37.9(33) . . .
46(4) . . .
54(4) . . .
46(4) . . .
41.1(34) . . .
45(4) . . .
46(4) . . .
52(4) . . .
37.2(31) . . .
45(4) . . .
54(4) . . .
40(4) . . .
41.9(34) . . .
45(4) . . .
47(4) . . .
46(4) . . .
42(4) . . .
47(4) . . .
53(4) . . .
38.9(33) . . .
38.9(34) . . .
49(4) . . .
34.5(31) . . .
42.1(34) . . .
41.8(35) . . .
53(4) . . .
42(4) . . .
46(4) . . .
46(4) . . .
47(4) . . .
46(4) . . .
35.2(32) . . .
46.4(35) . . .
53(4) . . .
37.5(32) . . .
48(4) . . .
52(4) . . .
44.4(35) . . .
50(4) . . .
47(4) . . .
44(4) . . .
41.6(34) . . .
41.2(33) . . .
48(4) . . .
46(4) . . .
48(4) . . .
47(4) . . .
52(4) . . .
53(4) . . .
50(4) . . .
41.2(34) . . .
48(4) . . .
35.1(31) . . .
44(4) . . .
54(4) . . .
46(4) . . .
39.1(34) . . .
49(4) . . .
52(4) . . .
46(4) . . .
43(4) . . .
44.1(34) . . .
45(4) . . .
42.2(34) . . .
50(4) . . .
47(4) . . .
41.1(33) . . .
50(4) . . .
39.0(34) . . .
45(4) . . .
42.1(35) . . .
40.1(33) . . .
47(4) . . .
43.0(34) . . .
48(4) . . .
50(4) . . .
47(4) . . .
50(4) . . .
40.0(33) . . .
52(4) . . .
32.3(29) . . .
46(4) . . .
47(4) . . .
48(4) . . .
45(4) . . .
49(4) . . .
42.3(34) . . .
55(4) . . .
50(4) . . .
47(4) . . .
46(4) . . .
53(4) . . .
50(4) . . .
51(4) . . .
46(4) . . .
51(4) . . .
41.5(33) . . .
44(4) . . .
39.8(34) . . .
42.6(34) . . .
51(4) . . .
45.5(35) . . .
53(4) . . .
45(4) . . .
45(4) . . .
60(4) . . .
49(4) . . .
43(4) . . .
42.5(35) . . .
48(4) . . .
39.4(33) . . .
36.1(31) . . .
35.8(32) . . .
38.2(34) . . .
42.7(34) . . .
48(4) . . .
49(4) . . .
51(4) . . .
43.2(35) . . .
52(4) . . .
42.9(34) . . .
41.1(33) . . .
36.3(34) . . .
50(4) . . .
53(4) . . .
49(4) . . .
44.6(35) . . .
42(4) . . .
43(4) . . .
43.0(34) . . .
42.8(34) . . .
44.6(34) . . .
41.0(34) . . .
42(4) . . .
54(4) . . .
39.4(33) . . .
45(4) . . .
51(4) . . .
39.6(34) . . .
47(4) . . .
51(4) . . .
45(4) . . .
48(4) . . .
37.6(32) . . .
53(4) . . .
58(4) . . .
45.1(35) . . .
47(4) . . .
40.1(34) . . .
48(4) . . .
48(4) . . .
50(4) . . .
46(4) . . .
44(4) . . .
47(4) . . .
44.9(35) . . .
47(4) . . .
40.3(35) . . .
42.2(34) . . .
46.1(35) . . .
42.8(35) . . .
53(4) . . .
46(4) . . .
47(4) . . .
41.2(34) . . .
40.1(33) . . .
50(4) . . .
39.9(33) . . .
46(4) . . .
47(4) . . .
39.5(33) . . .
43(4) . . .
40(4) . . .
44(4) . . .
52(4) . . .
49(4) . . .
41.6(34) . . .
48(4) . . .
46(4) . . .
45.1(35) . . .
41.3(34) . . .
43.7(35) . . .
47(4) . . .
54(4) . . .
53(4) . . .
40.9(34) . . .
46(4) . . .
37.4(32) . . .
50(4) . . .
52(4) . . .
41.6(33) . . .
45(4) . . .
43.7(34) . . .
40.0(32) . . .
47(4) . . .
51(4) . . .
49(4) . . .
43(4) . . .
42.0(34) . . .
45.1(35) . . .
42.0(34) . . .
37.3(32) . . .
47(4) . . .
60(4) . . .
39.0(32) . . .
42(4) . . .
49(4) . . .
42.3(34) . . .
38.6(33) . . .
40.0(33) . . .
49(4) . . .
51(4) . . .
49(4) . . .
47(4) . . .
51(4) . . .
48(4) . . .
47(4) . . .
48(4) . . .
48(4) . . .
56(4) . . .
50(4) . . .
41.2(34) . . .
41.2(34) . . .
43(4) . . .
42.4(35) . . .
44(4) . . .
45(4) . . .
52(4) . . .
49(4) . . .
35.6(30) . . .
43(4) . . .
47(4) . . .
43(4) . . .
34.9(31) . . .
51(4) . . .
41.4(34) . . .
47(4) . . .
48(4) . . .
53(4) . . .
47(4) . . .
34.6(31) . . .
41(4) . . .
37.8(32) . . .
51(4) . . .
44(4) . . .
41.3(34) . . .
46(4) . . .
48(4) . . .
47(4) . . .
32.7(30) . . .
49(4) . . .
47(4) . . .
43(4) . . .
49(4) . . .
41.7(35) . . .
45(4) . . .
46(4) . . .
37.6(33) . . .
47(4) . . .
46(4) . . .
48(4) . . .
42.2(33) . . .
41.5(33) . . .
47(4) . . .
37.8(33) . . .
51(4) . . .
40.5(35) . . .
36.9(32) . . .
53(4) . . .
44(4) . . .
52(4) . . .
44.2(35) . . .
49(4) . . .
55(4) . . .
56(4) . . .
37.7(33) . . .
37.8(32) . . .
36.4(32) . . .
50(4) . . .
46(4) . . .
46(4) . . .
48(4) . . .
47(4) . . .
51(4) . . .
43(4) . . .
58(4) . . .
48(4) . . .
53(4) . . .
45.8(34) . . .
45(4) . . .
44(4) . . .
53(4) . . .
41.0(34) . . .
42.9(34) . . .
47(4) . . .
50(4) . . .
41.7(33) . . .
47(4) . . .
45(4) . . .
46(4) . . .
44(4) . . .
47(4) . . .
43.7(34) . . .
50(4) . . .
45(4) . . .
39.9(33) . . .
48(4) . . .
41.9(33) . . .
43(4) . . .
53(4) . . .
47(4) . . .
44(4) . . .
49(4) . . .
51(4) . . .
47(4) . . .
44(4) . . .
39.2(34) . . .
54(4) . . .
51(4) . . .
43(4) . . .
47(4) . . .
48(4) . . .
48(4) . . .
50(4) . . .
34.2(32) . . .
47(4) . . .
43.6(34) . . .
67(4) . . .
42.7(34) . . .
42(4) . . .
52(4) . . .
41.5(34) . . .
41.7(33) . . .
44.3(35) . . .
52(4) . . .
40.1(32) . . .
49(4) . . .
34.2(30) . . .
45(4) . . .
52(4) . . .
55(4) . . .
52(4) . . .
46(4) . . .
43.4(34) . . .
41.8(34) . . .
43(4) . . .
45.4(35) . . .
43.3(35) . . .
52(4) . . .
38.7(32) . . .
56(4) . . .
56(4) . . .
46(4) . . .
42(4) . . .
36.5(31) . . .
40.7(33) . . .
51(4) . . .
47(4) . . .
40(4) . . .
42.2(35) . . .
44.2(34) . . .
34.0(31) . . .
42.4(35) . . .
43(4) . . .
44(4) . . .
52(4) . . .
42.7(34) . . .
34.9(33) . . .
46(4) . . .
42(4) . . .
52(4) . . .
55(4) . . .
51(4) . . .
43(4) . . .
38.3(33) . . .
51(4) . . .
43.4(34) . . .
43(4) . . .
40(4) . . .
48(4) . . .
40.5(33) . . .
49(4) . . .
44(4) . . .
51(4) . . .
47(4) . . .
46.4(35) . . .
43.0(35) . . .
47(4) . . .
38.5(34) . . .
36.8(35) . . .
47(4) . . .
47(4) . . .
55(4) . . .
55(4) . . .
49(4) . . .
50(4) . . .
41.9(34) . . .
42(4) . . .
47(4) . . .
46(4) . . .
42.2(34) . . .
47(4) . . .
40.3(33) . . .
39.2(34) . . .
42.4(35) . . .
39.4(33) . . .
39.8(33) . . .
44(4) . . .
49(4) . . .
53(4) . . .
48(4) . . .
53(4) . . .
39.9(34) . . .
40.6(33) . . .
57(4) . . .
51(4) . . .
46(4) . . .
43(4) . . .
41.7(33) . . .
54(4) . . .
49(4) . . .
51(4) . . .
47(4) . . .
36.7(32) . . .
44.4(34) . . .
56(4) . . .
49(4) . . .
53(4) . . .
46(4) . . .
42.2(34) . . .
49(4) . . .
43.3(35) . . .
47(4) . . .
42.9(34) . . .
36.8(32) . . .
44.5(34) . . .
39.6(34) . . .
45(4) . . .
35.9(33) . . .
34.9(31) . . .
49(4) . . .
44(4) . . .
43(4) . . .
42(4) . . .
52(4) . . .
47(4) . . .
49(4) . . .
45(4) . . .
52(4) . . .
44.8(34) . . .
44(4) . . .
41.2(34) . . .
45(4) . . .
46(4) . . .
41.5(33) . . .
52(4) . . .
51(4) . . .
38.7(34) . . .
39.0(33) . . .
43.3(34) . . .
41(4) . . .
49(4) . . .
47(4) . . .
44.4(35) . . .
47(4) . . .
43.2(35) . . .
40.6(35) . . .
41.5(33) . . .
42.4(34) . . .
47(4) . . .
42.0(34) . . .
47(4) . . .
46(4) . . .
48(4) . . .
42.4(34) . . .
40.7(33) . . .
49(4) . . .
54(4) . . .
54(4) . . .
43.9(34) . . .
50(4) . . .
52(4) . . .
43(4) . . .
45.9(35) . . .
36.6(31) . . .
48(4) . . .
46(4) . . .
43(4) . . .
48(4) . . .
42.3(34) . . .
55(4) . . .
62(4) . . .
52(4) . . .
43.4(35) . . .
54(4) . . .
50(4) . . .
46(4) . . .
40.4(33) . . .
34.5(31) . . .
42(4) . . .
43(4) . . .
41.4(34) . . .
46(4) . . .
41.3(33) . . .
49(4) . . .
54(4) . . .
44(4) . . .
43(4) . . .
38.0(32) . . .
46(4) . . .
47(4) . . .
49(4) . . .
43.6(35) . . .
46(4) . . .
52(4) . . .
45(4) . . .
52(4) . . .
45(4) . . .
46(4) . . .
54(4) . . .
50(4) . . .
36.3(33) . . .
46(4) . . .
44.0(34) . . .
38.8(32) . . .
42.2(33) . . .
47(4) . . .
47(4) . . .
42.2(33) . . .
46(4) . . .
39.4(34) . . .
48(4) . . .
44(4) . . .
53(4) . . .
38.9(32) . . .
51(4) . . .
42.2(34) . . .
38.9(33) . . .
40.7(34) . . .
37.5(33) . . .
43(4) . . .
45(4) . . .
44.0(34) . . .
56(4) . . .
44(4) . . .
49(4) . . .
40.2(33) . . .
51(4) . . .
40.0(33) . . .
38.4(33) . . .
50(4) . . .
49(4) . . .
44.6(35) . . .
41.6(34) . . .
35.3(31) . . .
54(4) . . .
53(4) . . .
39.2(32) . . .
50(4) . . .
45(4) . . .
51(4) . . .
36.5(32) . . .
40.9(34) . . .
43.9(35) . . .
48(4) . . .
42(4) . . .
53(4) . . .
46(4) . . .
49(4) . . .
49(4) . . .
46(4) . . .
39.3(33) . . .
48(4) . . .
50(4) . . .
44(4) . . .
43(4) . . .
49(4) . . .
60(4) . . .
46(4) . . .
44(4) . . .
49(4) . . .
41.0(34) . . .
43.3(34) . . .
45(4) . . .
46(4) . . .
48(4) . . .
54(4) . . .
49(4) . . .
43(4) . . .
40(4) . . .
48(4) . . .
36.1(31) . . .
48(4) . . .
51(4) . . .
50(4) . . .
52(4) . . .
57(4) . . .
47(4) . . .
45(4) . . .
38.0(33) . . .
54(4) . . .
44(4) . . .
55(4) . . .
43.8(34) . . .
43(4) . . .
49(4) . . .
40.6(34) . . .
44.5(35) . . .
46(4) . . .
46(4) . . .
42.5(34) . . .
53(4) . . .
45(4) . . .
50(4) . . .
40.8(33) . . .
51(4) . . .
42.5(34) . . .
52(4) . . .
42(4) . . .
45(4) . . .
37.4(32) . . .
35.1(31) . . .
45(4) . . .
50(4) . . .
57(4) . . .
52(4) . . .
47(4) . . .
50(4) . . .
44(4) . . .
45(4) . . .
45.1(34) . . .
36.2(32) . . .
47(4) . . .
41.9(34) . . .
53(4) . . .
44.3(35) . . .
47(4) . . .
54(4) . . .
47(4) . . .
40.5(34) . . .
45.4(35) . . .
38.5(33) . . .
45(4) . . .
49(4) . . .
40(4) . . .
49(4) . . .
48(4) . . .
42.7(35) . . .
48(4) . . .
40(4) . . .
35.9(31) . . .
47(4) . . .
57(4) . . .
50(4) . . .
49(4) . . .
35.0(31) . . .
47(4) . . .
46(4) . . .
41.1(35) . . .
45(4) . . .
49(4) . . .
55(4) . . .
41(4) . . .
40.9(35) . . .
45(4) . . .
51(4) . . .
45(4) . . .
37.2(33) . . .
41(4) . . .
47(4) . . .
46(4) . . .
48(4) . . .
43(4) . . .
49(4) . . .
47(4) . . .
55(4) . . .
54(4) . . .
48(4) . . .
47(4) . . .
49(4) . . .
36.7(32) . . .
43(4) . . .
45(4) . . .
52(4) . . .
51(4) . . .
52(4) . . .
52(4) . . .
38.5(33) . . .
44(4) . . .
46.3(35) . . .
45(4) . . .
55(4) . . .
57(4) . . .
59(4) . . .
44.6(35) . . .
46(4) . . .
48(4) . . .
46(4) . . .
44.1(35) . . .
42.5(34) . . .
40.4(34) . . .
48(4) . . .
55(4) . . .
51(4) . . .
51(4) . . .
35.3(32) . . .
51(4) . . .
50(4) . . .
47(4) . . .
32.8(30) . . .
52(4) . . .
54(4) . . .
45(4) . . .
47(4) . . .
57(4) . . .
46(4) . . .
46(4) . . .
41.1(35) . . .
40.9(33) . . .
54(4) . . .
49(4) . . .
48(4) . . .
41.2(34) . . .
47(4) . . .
47(4) . . .
48(4) . . .
47(4) . . .
54(4) . . .
48(4) . . .
50(4) . . .
51(4) . . .
40.5(34) . . .
42.2(33) . . .
60(4) . . .
57(4) . . .
60(4) . . .
46(4) . . .
40.1(35) . . .
37.0(32) . . .
46(4) . . .
49(4) . . .
37.8(33) . . .
38.7(33) . . .
42.4(34) . . .
46(4) . . .
45(4) . . .
50(4) . . .
37.5(32) . . .
50(4) . . .
47(4) . . .
48(4) . . .
40.8(33) . . .
47(4) . . .
51(4) . . .
49(4) . . .
47(4) . . .
44.4(35) . . .
49(4) . . .
44.1(35) . . .
49(4) . . .
49(4) . . .
58(4) . . .
56(4) . . .
48(4) . . .
51(4) . . .
64(5) . . .
57(4) . . .
50(4) . . .
43.5(34) . . .
45(4) . . .
36.7(34) . . .
46(4) . . .
41.4(34) . . .
43.6(34) . . .
45(4) . . .
50(4) . . .
41.2(34) . . .
41.3(33) . . .
44.3(35) . . .
45.8(35) . . .
47(4) . . .
50(4) . . .
46(4) . . .
47(4) . . .
46(4) . . .
42.3(35) . . .
51(4) . . .
50(4) . . .
59(4) . . .
48(4) . . .
52(4) . . .
62(4) . . .
44.3(35) . . .
41.6(33) . . .
51(4) . . .
44(4) . . .
46(4) . . .
55(4) . . .
60(4) . . .
45(4) . . .
62(4) . . .
47(4) . . .
47(4) . . .
43.0(34) . . .
38.0(33) . . .
45(4) . . .
47(4) . . .
49(4) . . .
49(4) . . .
41.5(34) . . .
61(4) . . .
52(4) . . .
54(4) . . .
52(4) . . .
43(4) . . .
50(4) . . .
51(4) . . .
49(4) . . .
47(4) . . .
46(4) . . .
49(4) . . .
45.7(35) . . .
46(4) . . .
51(4) . . .
50(4) . . .
49(4) . . .
36.1(33) . . .
45(4) . . .
49(4) . . .
42(4) . . .
43.7(34) . . .
45.1(35) . . .
43.9(34) . . .
46(4) . . .
40(4) . . .
46(4) . . .
48(4) . . .
50(4) . . .
43(4) . . .
43(4) . . .
40.5(34) . . .
45(4) . . .
41.5(34) . . .
35.7(31) . . .
40.4(34) . . .
46(4) . . .
41.3(33) . . .
43(4) . . .
41.1(34) . . .
38.2(33) . . .
52(4) . . .
43.3(34) . . .
46(4) . . .
51(4) . . .
44.9(35) . . .
48(4) . . .
40.4(33) . . .
44(4) . . .
42(4) . . .
36.8(32) . . .
41.5(34) . . .
40.5(33) . . .
39.7(34) . . .
46(4) . . .
38.9(35) . . .
43(4) . . .
51(4) . . .
43.9(34) . . .
43.0(35) . . .
46(4) . . .
46(4) . . .
44.8(34) . . .
33.0(30) . . .
52(4) . . .
52(4) . . .
42(4) . . .
47(4) . . .
43.6(34) . . .
52(4) . . .
45(4) . . .
54(4) . . .
53(4) . . .
42.7(35) . . .
49(4) . . .
45(4) . . .
45(4) . . .
39.3(34) . . .
37.5(33) . . .
59(5) . . .
45(4) . . .
54(4) . . .
38.7(33) . . .
35.9(32) . . .
39.3(34) . . .
45(4) . . .
43.3(35) . . .
45(4) . . .
46(4) . . .
51(4) . . .
52(4) . . .
42.0(33) . . .
41.6(34) . . .
51(4) . . .
46(4) . . .
44(4) . . .
40.4(33) . . .
46(4) . . .
47(4) . . .
40.2(34) . . .
42.5(34) . . .
41.9(34) . . .
39.4(33) . . .
40.3(35) . . .
39.2(34) . . .
48(4) . . .
40.3(33) . . .
42(4) . . .
32.2(31) . . .
40.6(34) . . .
48(4) . . .
42.7(34) . . .
44(4) . . .
50(4) . . .
53(4) . . .
53(4) . . .
42.1(34) . . .
45(4) . . .
48(4) . . .
50(4) . . .
51(4) . . .
46(4) . . .
50(4) . . .
39.4(34) . . .
47(4) . . .
33.6(30) . . .
51(4) . . .
47(4) . . .
48(4) . . .
48(4) . . .
41.9(33) . . .
46(4) . . .
51(4) . . .
42.4(33) . . .
52(4) . . .
50(4) . . .
51(4) . . .
39.5(34) . . .
39.1(34) . . .
41(4) . . .
46(4) . . .
42.8(35) . . .
43(4) . . .
52(4) . . .
49(4) . . .
45.2(35) . . .
58(4) . . .
45(4) . . .
47(4) . . .
43.2(34) . . .
52(4) . . .
46(4) . . .
44(4) . . .
52(4) . . .
47(4) . . .
49(4) . . .
52(4) . . .
56(4) . . .
48(4) . . .
46(4) . . .
57(4) . . .
49(4) . . .
40.0(34) . . .
47(4) . . .
54(4) . . .
49(4) . . .
57(4) . . .
51(4) . . .
55(4) . . .
40.1(32) . . .
47(4) . . .
47(4) . . .
50(4) . . .
46(4) . . .
38.5(32) . . .
46(4) . . .
53(4) . . .
54(4) . . .
58(4) . . .
41.4(33) . . .
51(4) . . .
48(4) . . .
47(4) . . .
46(4) . . .
51(4) . . .
46(4) . . .
35.3(31) . . .
43(4) . . .
43.0(34) . . .
62(4) . . .
52(4) . . .
47(4) . . .
50(4) . . .
39.0(33) . . .
51(4) . . .
42.5(34) . . .
46(4) . . .
40.0(34) . . .
43.6(35) . . .
43.2(34) . . .
44(4) . . .
38.5(34) . . .
45(4) . . .
51(4) . . .
48(4) . . .
44(4) . . .
40.0(34) . . .
40(4) . . .
35.2(31) . . .
46.0(34) . . .
43(4) . . .
50(4) . . .
42.1(35) . . .
40.6(34) . . .
42.9(35) . . .
45(4) . . .
49(4) . . .
55(4) . . .
48(4) . . .
48(4) . . .
44(4) . . .
41(4) . . .
38.1(33) . . .
40.4(33) . . .
44.9(34) . . .
49(4) . . .
53(4) . . .
51(4) . . .
60(4) . . .
49(4) . . .
50(4) . . .
50(4) . . .
44(4) . . .
52(4) . . .
46(4) . . .
52(4) . . .
52(4) . . .
42.7(34) . . .
51(4) . . .
48(4) . . .
48(4) . . .
54(4) . . .
50(4) . . .
50(4) . . .
47(4) . . .
62(4) . . .
50(4) . . .
53(4) . . .
44.8(35) . . .
45(4) . . .
43.1(35) . . .
46(4) . . .
46(4) . . .
42.2(34) . . .
52(4) . . .
41(4) . . .
42(4) . . .
44(4) . . .
35.8(31) . . .
37.8(34) . . .
41(4) . . .
36.7(32) . . .
51(4) . . .
52(4) . . .
51(4) . . .
51(4) . . .
40.2(33) . . .
40.7(33) . . .
41.3(33) . . .
40.4(34) . . .
51(4) . . .
52(4) . . .
42.9(34) . . .
50(4) . . .
44.4(35) . . .
44(4) . . .
43.5(35) . . .
41.5(33) . . .
39.7(33) . . .
48(4) . . .
41(4) . . .
33.4(30) . . .
43.6(35) . . .
44(4) . . .
45(4) . . .
46(4) . . .
42.2(35) . . .
44.1(34) . . .
46(4) . . .
46(4) . . .
40.1(34) . . .
47(4) . . .
45(4) . . .
40.4(34) . . .
51(4) . . .
45(4) . . .
45(4) . . .
48(4) . . .
46(4) . . .
57(4) . . .
47(4) . . .
48(4) . . .
61(4) . . .
45(4) . . .
48(4) . . .
46(4) . . .
43.9(35) . . .
47(4) . . .
45(4) . . .
46(4) . . .
43(4) . . .
39.5(32) . . .
46(4) . . .
42(4) . . .
51(4) . . .
53(4) . . .
46(4) . . .
55(4) . . .
46(4) . . .
40(4) . . .
54(4) . . .
43.2(34) . . .
49(4) . . .
41.3(35) . . .
48(4) . . .
39.0(33) . . .
50(4) . . .
51(4) . . .
38.9(33) . . .
41(4) . . .
48(4) . . .
55(4) . . .
48(4) . . .
50(4) . . .
41.6(34) . . .
50(4) . . .
48(4) . . .
47(4) . . .
44(4) . . .
47(4) . . .
52(4) . . .
42.2(34) . . .
42(4) . . .
45(4) . . .
48(4) . . .
57(4) . . .
51(4) . . .
48(4) . . .
45(4) . . .
46(4) . . .
40.1(33) . . .
48(4) . . .
44(4) . . .
48(4) . . .
44(4) . . .
48(4) . . .
44.7(35) . . .
49(4) . . .
40.5(34) . . .
43(4) . . .
51(4) . . .
45.2(35) . . .
56(4) . . .
44.0(34) . . .
50(4) . . .
44.1(34) . . .
49(4) . . .
41.0(33) . . .
45(4) . . .
48(4) . . .
42.4(34) . . .
48(4) . . .
55(4) . . .
48(4) . . .
54(4) . . .
47(4) . . .
41.5(35) . . .
39.3(35) . . .
54(4) . . .
47(4) . . .
51(4) . . .
60(4) . . .
42.4(35) . . .
45(4) . . .
43(4) . . .
50(4) . . .
49(4) . . .
42(4) . . .
50(4) . . .
42(4) . . .
47(4) . . .
46(4) . . .
42(4) . . .
49(4) . . .
49(4) . . .
51(4) . . .
47(4) . . .
53(4) . . .
45(4) . . .
42.7(35) . . .
51(4) . . .
45(4) . . .
49(4) . . .
45(4) . . .
38.6(33) . . .
34.8(32) . . .
52(4) . . .
46(4) . . .
39.0(34) . . .
42.3(35) . . .
44.7(35) . . .
49(4) . . .
53(4) . . .
47(4) . . .
46.2(35) . . .
51(4) . . .
44.2(35) . . .
40.8(34) . . .
34.7(30) . . .
41.9(34) . . .
47(4) . . .
38.5(33) . . .
41(4) . . .
33.0(32) . . .
40.1(32) . . .
46(4) . . .
52(4) . . .
60(4) . . .
47(4) . . .
45.3(35) . . .
56(4) . . .
50(4) . . .
44(4) . . .
46(4) . . .
41.7(33) . . .
46.0(35) . . .
47(4) . . .
54(4) . . .
61(4) . . .
52(4) . . .
48(4) . . .
52(4) . . .
47(4) . . .
43(4) . . .
46(4) . . .
46(4) . . .
40.5(34) . . .
38.7(34) . . .
34.9(31) . . .
41.9(33) . . .
50(4) . . .
41(4) . . .
42.5(34) . . .
50(4) . . .
52(4) . . .
44.3(35) . . .
47(4) . . .
40.2(34) . . .
38.6(32) . . .
48(4) . . .
43.1(35) . . .
45(4) . . .
47(4) . . .
42.9(34) . . .
40.8(32) . . .
47(4) . . .
48(4) . . .
56(4) . . .
40.2(34) . . .
47(4) . . .
47(4) . . .
50(4) . . .
41.3(34) . . .
56(4) . . .
42.5(33) . . .
43(4) . . .
38.8(35) . . .
46(4) . . .
39.9(32) . . .
51(4) . . .
45(4) . . .
49(4) . . .
55(4) . . .
51(4) . . .
44.1(35) . . .
49(4) . . .
51(4) . . .
48(4) . . .
37.0(32) . . .
41.6(34) . . .
46(4) . . .
47(4) . . .
43.2(35) . . .
48(4) . . .
54(4) . . .
39.7(34) . . .
39(4) . . .
41.8(34) . . .
47(4) . . .
50(4) . . .
54(4) . . .
46(4) . . .
44.5(35) . . .
41.5(34) . . .
53(4) . . .
46(4) . . .
45(4) . . .
43.3(35) . . .
42.4(34) . . .
40(4) . . .
48(4) . . .
51(4) . . .
43.6(35) . . .
46(4) . . .
41(4) . . .
51(4) . . .
43(4) . . .
48(4) . . .
46.3(35) . . .
42.8(34) . . .
39.7(34) . . .
38.2(33) . . .
45(4) . . .
40.1(33) . . .
51(4) . . .
49(4) . . .
47(4) . . .
45(4) . . .
53(4) . . .
50(4) . . .
43(4) . . .
41.6(34) . . .
45(4) . . .
45(4) . . .
40.0(34) . . .
45(4) . . .
43(4) . . .
39.2(33) . . .
43.5(34) . . .
42(4) . . .
52(4) . . .
42(4) . . .
40.5(33) . . .
43(4) . . .
53(4) . . .
43.3(35) . . .
41.3(34) . . .
40.8(33) . . .
46(4) . . .
57(4) . . .
43(4) . . .
39.1(32) . . .
47(4) . . .
52(4) . . .
52(4) . . .
39.8(33) . . .
52(4) . . .
49(4) . . .
45(4) . . .
44(4) . . .
43.8(35) . . .
40.5(34) . . .
48(4) . . .
47(4) . . .
46(4) . . .
48(4) . . .
47(4) . . .
46.5(35) . . .
55(4) . . .
52(4) . . .
42.3(34) . . .
36.8(32) . . .
49(4) . . .
42.6(35) . . .
51(4) . . .
45(4) . . .
44.3(34) . . .
51(4) . . .
51(4) . . .
51(4) . . .
50(4) . . .
42.5(34) . . .
43.7(34) . . .
56(4) . . .
47(4) . . .
44(4) . . .
46(4) . . .
55(4) . . .
43.8(34) . . .
36.1(32) . . .
54(4) . . .
43.3(34) . . .
42.9(35) . . .
38.3(32) . . .
47(4) . . .
43.6(34) . . .
45(4) . . .
53(4) . . .
48(4) . . .
50(4) . . .
41.7(35) . . .
41.1(33) . . .
50(4) . . .
44(4) . . .
43.7(35) . . .
47(4) . . .
36.6(32) . . .
46(4) . . .
56(4) . . .
44.3(35) . . .
49(4) . . .
42.0(34) . . .
45(4) . . .
53(4) . . .
43(4) . . .
36.4(32) . . .
59(4) . . .
38.9(33) . . .
49(4) . . .
49(4) . . .
38.6(33) . . .
40.5(33) . . .
49(4) . . .
38.2(35) . . .
39.1(33) . . .
41.2(34) . . .
41.9(33) . . .
47(4) . . .
52(4) . . .
46.0(35) . . .
43.2(35) . . .
49(4) . . .
38.9(32) . . .
41.1(34) . . .
39.6(34) . . .
52(4) . . .
45.4(35) . . .
49(4) . . .
39.7(34) . . .
51(4) . . .
31.6(29) . . .
53(4) . . .
51(4) . . .
39(4) . . .
41.5(35) . . .
46(4) . . .
38.9(33) . . .
42(4) . . .
46(4) . . .
41.0(34) . . .
40.1(34) . . .
39.8(35) . . .
39.7(33) . . .
50(4) . . .
38.3(32) . . .
53(4) . . .
47(4) . . .
49(4) . . .
45(4) . . .
50(4) . . .
44.4(35) . . .
41(4) . . .
58(4) . . .
48(4) . . .
50(4) . . .
39.0(32) . . .
39.9(34) . . .
41(4) . . .
43(4) . . .
47(4) . . .
46(4) . . .
48(4) . . .
50(4) . . .
40.0(34) . . .
37.9(33) . . .
43.3(34) . . .
45(4) . . .
50(4) . . .
51(4) . . .
47(4) . . .
62(4) . . .
48(4) . . .
47(4) . . .
47(4) . . .
46.8(35) . . .
40.4(33) . . .
50(4) . . .
46(4) . . .
50(4) . . .
45(4) . . .
47(4) . . .
52(4) . . .
45(4) . . .
47(4) . . .
47(4) . . .
46(4) . . .
45(4) . . .
45(4) . . .
46(4) . . .
46(4) . . .
45.3(35) . . .
54(4) . . .
43.8(35) . . .
42.4(34) . . .
42.1(34) . . .
54(4) . . .
48(4) . . .
39.5(34) . . .
50(4) . . .
49(4) . . .
40.5(34) . . .
48(4) . . .
47(4) . . .
51(4) . . .
48(4) . . .
46(4) . . .
50(4) . . .
46(4) . . .
43.3(34) . . .
50(4) . . .
47(4) . . .
46(4) . . .
40(4) . . .
48(4) . . .
48(4) . . .
58(4) . . .
46(4) . . .
42.9(35) . . .
39.7(33) . . .
40(4) . . .
45(4) . . .
57(4) . . .
45.5(35) . . .
48(4) . . .
36.9(32) . . .
53(4) . . .
46(4) . . .
45(4) . . .
49(4) . . .
42.5(34) . . .
36.8(33) . . .
51(4) . . .
45(4) . . .
42.4(34) . . .
50(4) . . .
40(4) . . .
43(4) . . .
33.7(30) . . .
39.0(33) . . .
50(4) . . .
42.4(34) . . .
39.7(33) . . .
40.3(33) . . .
44.4(35) . . .
51(4) . . .
39.8(34) . . .
43(4) . . .
49(4) . . .
39.5(33) . . .
53(4) . . .
51(4) . . .
42(4) . . .
44.8(35) . . .
51(4) . . .
42(4) . . .
42(4) . . .
52(4) . . .
44.5(35) . . .
40.4(33) . . .
44.8(35) . . .
51(4) . . .
43(4) . . .
46(4) . . .
51(4) . . .
55(4) . . .
38.2(34) . . .
43(4) . . .
44.7(34) . . .
42.6(35) . . .
41(4) . . .
50(4) . . .
50(4) . . .
50(4) . . .
45.8(35) . . .
45(4) . . .
43(4) . . .
37.7(33) . . .
39.3(33) . . .
38.0(32) . . .
44(4) . . .
36.6(32) . . .
47(4) . . .
58(4) . . .
46(4) . . .
42.3(34) . . .
47(4) . . .
42.9(34) . . .
51(4) . . .
44.9(35) . . .
47(4) . . .
43(4) . . .
50(4) . . .
51(4) . . .
53(4) . . .
56(4) . . .
50(4) . . .
43.8(34) . . .
37.5(32) . . .
58(4) . . .
50(4) . . .
36.4(31) . . .
40.5(35) . . .
38.4(32) . . .
41(4) . . .
48(4) . . .
43.1(35) . . .
49(4) . . .
33.0(30) . . .
48(4) . . .
46(4) . . .
35.2(31) . . .
40.9(35) . . .
47(4) . . .
47(4) . . .
44(4) . . .
45(4) . . .
52(4) . . .
47(4) . . .
48(4) . . .
42(4) . . .
44(4) . . .
52(4) . . .
46(4) . . .
51(4) . . .
55(4) . . .
46(4) . . .
44.1(35) . . .
54(4) . . .
48(4) . . .
48(4) . . .
47(4) . . .
40.0(33) . . .
41.3(35) . . .
41(4) . . .
50(4) . . .
45(4) . . .
44.1(34) . . .
39.4(35) . . .
44(4) . . .
53(4) . . .
44(4) . . .
46(4) . . .
54(4) . . .
43.6(34) . . .
45(4) . . .
53(4) . . .
46(4) . . .
40.0(34) . . .
44(4) . . .
39.8(34) . . .
38.1(33) . . .
37.2(32) . . .
47(4) . . .
40(4) . . .
49(4) . . .
42.1(33) . . .
49(4) . . .
46(4) . . .
50(4) . . .
44(4) . . .
38.6(33) . . .
41.2(35) . . .
42.2(34) . . .
47(4) . . .
47(4) . . .
48(4) . . .
43.7(34) . . .
51(4) . . .
41(4) . . .
41.0(35) . . .
47(4) . . .
38.3(32) . . .
51(4) . . .
46(4) . . .
39.6(34) . . .
45(4) . . .
46(4) . . .
44(4) . . .
42(4) . . .
49(4) . . .
43.2(34) . . .
42.8(34) . . .
39.7(33) . . .
43(4) . . .
53(4) . . .
57(4) . . .
50(4) . . .
48(4) . . .
49(4) . . .
56(4) . . .
51(4) . . .
47(4) . . .
40(4) . . .
42(4) . . .
49(4) . . .
41.2(34) . . .
41.0(34) . . .
45(4) . . .
42(4) . . .
42(4) . . .
33.7(29) . . .
45(4) . . .
39(4) . . .
42.7(35) . . .
49(4) . . .
39.0(33) . . .
46(4) . . .
43(4) . . .
42(4) . . .
53(4) . . .
48(4) . . .
53(4) . . .
42(4) . . .
47(4) . . .
46.6(35) . . .
51(4) . . .
49(4) . . .
44(4) . . .
50(4) . . .
48(4) . . .
54(4) . . .
51(4) . . .
44(4) . . .
43.2(34) . . .
47(4) . . .
46(4) . . .
47(4) . . .
32.5(31) . . .
45(4) . . .
43.2(35) . . .
39.2(32) . . .
42.0(35) . . .
43(4) . . .
43(4) . . .
54(4) . . .
33.0(31) . . .
42.2(35) . . .
45(4) . . .
53(4) . . .
44(4) . . .
41.3(34) . . .
38.4(33) . . .
42(4) . . .
42.3(34) . . .
51(4) . . .
42.3(34) . . .
48(4) . . .
45(4) . . .
36.6(31) . . .
46(4) . . .
48(4) . . .
48(4) . . .
39.3(33) . . .
37.5(31) . . .
54(4) . . .
57(4) . . .
45(4) . . .
48(4) . . .
47(4) . . .
43.9(35) . . .
54(4) . . .
46(4) . . .
41.3(35) . . .
42.6(34) . . .
39.2(32) . . .
42.9(35) . . .
45(4) . . .
55(4) . . .
42.1(34) . . .
49(4) . . .
43(4) . . .
44(4) . . .
56(4) . . .
47(4) . . .
45.5(35) . . .
40.6(33) . . .
44(4) . . .
54(4) . . .
49(4) . . .
43.6(34) . . .
51(4) . . .
41.5(34) . . .
48(4) . . .
39.6(33) . . .
45(4) . . .
43(4) . . .
47(4) . . .
49(4) . . .
40.0(33) . . .
39.6(33) . . .
40.7(34) . . .
45(4) . . .
50(4) . . .
50(4) . . .
52(4) . . .
55(4) . . .
52(4) . . .
43.6(34) . . .
40.8(33) . . .
41.6(34) . . .
36.4(34) . . .
42.7(35) . . .
58(4) . . .
38.4(32) . . .
39.1(34) . . .
52(4) . . .
45(4) . . .
43.7(35) . . .
43.3(34) . . .
46(4) . . .
54(4) . . .
43(4) . . .
42.3(34) . . .
52(4) . . .
48(4) . . .
44(4) . . .
54(4) . . .
42.9(35) . . .
48(4) . . .
55(4) . . .
52(4) . . .
49(4) . . .
49(4) . . .
40.9(33) . . .
43.9(35) . . .
44.4(35) . . .
47(4) . . .
43.4(34) . . .
48(4) . . .
59(4) . . .
44.4(35) . . .
46(4) . . .
36.9(32) . . .
49(4) . . .
52(4) . . .
51(4) . . .
48(4) . . .
46(4) . . .
40.1(33) . . .
57(4) . . .
49(4) . . .
41.7(35) . . .
38.4(32) . . .
43(4) . . .
38.8(35) . . .
41.3(34) . . .
40.8(34) . . .
51(4) . . .
46(4) . . .
48(4) . . .
49(4) . . .
42.5(34) . . .
41.6(33) . . .
38.8(34) . . .
38.2(34) . . .
43.2(34) . . .
47(4) . . .
38.3(33) . . .
40.0(34) . . .
47(4) . . .
46(4) . . .
42.8(35) . . .
46(4) . . .
46(4) . . .
50(4) . . .
45(4) . . .
37.8(32) . . .
36.1(31) . . .
52(4) . . .
44(4) . . .
44.6(35) . . .
48(4) . . .
38.0(32) . . .
41.0(35) . . .
46(4) . . .
34.7(32) . . .
38.7(32) . . .
49(4) . . .
42.1(35) . . .
49(4) . . .
43(4) . . .
37.8(32) . . .
37.4(33) . . .
40(4) . . .
53(4) . . .
53(4) . . .
46(4) . . .
46(4) . . .
44(4) . . .
36.5(33) . . .
36.8(33) . . .
50(4) . . .
54(4) . . .
39.6(32) . . .
50(4) . . .
51(4) . . .
41.4(33) . . .
42.3(35) . . .
35.7(32) . . .
36.2(32) . . .
42.9(34) . . .
42.8(34) . . .
49(4) . . .
46(4) . . .
43.3(35) . . .
53(4) . . .
44.3(34) . . .
48(4) . . .
51(4) . . .
49(4) . . .
35.7(31) . . .
51(4) . . .
41.7(35) . . .
46(4) . . .
42.0(34) . . .
42.1(34) . . .
49(4) . . .
47(4) . . .
44(4) . . .
55(4) . . .
44.8(35) . . .
44.6(35) . . .
53(4) . . .
42(4) . . .
37.6(32) . . .
44.8(35) . . .
40.2(34) . . .
50(4) . . .
46(4) . . .
48(4) . . .
51(4) . . .
51(4) . . .
40.8(32) . . .
50(4) . . .
49(4) . . .
51(4) . . .
50(4) . . .
50(4) . . .
43(4) . . .
54(4) . . .
44.2(34) . . .
49(4) . . .
42(4) . . .
35.3(32) . . .
45(4) . . .
51(4) . . .
43(4) . . .
45(4) . . .
41(4) . . .
44(4) . . .
40.3(33) . . .
52(4) . . .
36.3(32) . . .
42(4) . . .
48(4) . . .
40.6(33) . . .
42.1(34) . . .
45(4) . . .
41(4) . . .
45.8(35) . . .
43.6(34) . . .
39.8(34) . . .
48(4) . . .
51(4) . . .
46.0(35) . . .
52(4) . . .
64(4) . . .
42(4) . . .
47(4) . . .
51(4) . . .
33.4(30) . . .
38.7(33) . . .
42(4) . . .
39.4(33) . . .
40.7(34) . . .
39.4(32) . . .
44(4) . . .
47(4) . . .
42.3(34) . . .
48(4) . . .
48(4) . . .
52(4) . . .
39.5(33) . . .
45(4) . . .
48(4) . . .
44(4) . . .
46(4) . . .
45(4) . . .
39.2(33) . . .
45(4) . . .
42.9(34) . . .
37.6(34) . . .
39.2(34) . . .
46(4) . . .
56(4) . . .
48(4) . . .
50(4) . . .
43(4) . . .
45.0(35) . . .
46(4) . . .
42.1(35) . . .
44(4) . . .
41.3(34) . . .
35.7(31) . . .
43.1(35) . . .
46(4) . . .
47(4) . . .
47(4) . . .
38.5(34) . . .
54(4) . . .
42.0(34) . . .
36.3(34) . . .
41.9(35) . . .
46.3(35) . . .
50(4) . . .
48(4) . . .
46(4) . . .
47(4) . . .
42.1(33) . . .
49(4) . . .
47(4) . . .
44(4) . . .
46(4) . . .
41.6(34) . . .
44.4(35) . . .
41.5(34) . . .
51(4) . . .
48(4) . . .
52(4) . . .
51(4) . . .
51(4) . . .
47(4) . . .
50(4) . . .
49(4) . . .
50(4) . . .
44(4) . . .
36.7(32) . . .
48(4) . . .
34.2(31) . . .
40.9(34) . . .
54(4) . . .
54(4) . . .
40.7(34) . . .
38.9(32) . . .
37.2(33) . . .
43(4) . . .
47(4) . . .
48(4) . . .
39.9(34) . . .
45(4) . . .
42(4) . . .
51(4) . . .
49(4) . . .
43.7(35) . . .
44(4) . . .
45(4) . . .
43.2(34) . . .
40.3(34) . . .
37.5(31) . . .
40(4) . . .
31.1(31) . . .
44(4) . . .
47(4) . . .
39.4(33) . . .
46(4) . . .
46(4) . . .
50(4) . . .
41.1(33) . . .
48(4) . . .
35.4(31) . . .
43(4) . . .
49(4) . . .
50(4) . . .
42.9(35) . . .
40.2(35) . . .
51(4) . . .
46(4) . . .
44.7(35) . . .
45(4) . . .
38(4) . . .
52(4) . . .
52(4) . . .
58(4) . . .
40.0(33) . . .
40.2(35) . . .
55(4) . . .
56(4) . . .
40.8(34) . . .
42.1(35) . . .
47(4) . . .
38.5(34) . . .
43(4) . . .
37.7(33) . . .
38.4(33) . . .
41(4) . . .
46(4) . . .
39.8(33) . . .
46(4) . . .
46(4) . . .
44(4) . . .
53(4) . . .
45(4) . . .
44.9(35) . . .
54(4) . . .
50(4) . . .
41.7(34) . . .
52(4) . . .
44.1(34) . . .
45(4) . . .
49(4) . . .
47(4) . . .
43.3(34) . . .
55(4) . . .
43(4) . . .
43(4) . . .
45(4) . . .
46.3(35) . . .
52(4) . . .
52(4) . . .
44(4) . . .
44.5(34) . . .
46(4) . . .
43.1(34) . . .
57(4) . . .
40(4) . . .
35.7(31) . . .
49(4) . . .
51(4) . . .
43(4) . . .
50(4) . . .
47(4) . . .
43.6(35) . . .
38.6(32) . . .
42.2(35) . . .
47(4) . . .
38.5(33) . . .
40.3(33) . . .
39.0(34) . . .
45.7(35) . . .
46(4) . . .
38.9(33) . . .
41.5(33) . . .
42.9(35) . . .
47(4) . . .
52(4) . . .
47(4) . . .
41.8(34) . . .
39.6(33) . . .
46(4) . . .
43.3(35) . . .
50(4) . . .
49(4) . . .
44(4) . . .
39.5(34) . . .
45(4) . . .
39.8(33) . . .
46(4) . . .
35.9(31) . . .
46(4) . . .
44.2(35) . . .
43.5(35) . . .
42.3(34) . . .
35.4(31) . . .
41.0(35) . . .
44(4) . . .
32.4(30) . . .
49(4) . . .
46(4) . . .
39.6(35) . . .
49(4) . . .
49(4) . . .
49(4) . . .
50(4) . . .
51(4) . . .
47(4) . . .
38.5(32) . . .
43.1(35) . . .
37.6(34) . . .
45(4) . . .
48(4) . . .
42.8(34) . . .
57(4) . . .
46(4) . . .
47(4) . . .
39(4) . . .
38.9(33) . . .
40.2(33) . . .
50(4) . . .
47(4) . . .
47(4) . . .
53(4) . . .
48(4) . . .
46(4) . . .
54(4) . . .
47(4) . . .
47(4) . . .
49(4) . . .
48(4) . . .
49(4) . . .
51(4) . . .
47(4) . . .
43(4) . . .
38.8(34) . . .
45(4) . . .
42.6(34) . . .
42.4(34) . . .
40.3(32) . . .
40.2(34) . . .
53(4) . . .
57(4) . . .
41.7(34) . . .
41.5(34) . . .
43(4) . . .
43.6(35) . . .
40.4(34) . . .
49(4) . . .
51(4) . . .
50(4) . . .
34.1(33) . . .
37.2(33) . . .
38.6(34) . . .
41(4) . . .
47(4) . . .
33.6(30) . . .
43.0(34) . . .
49(4) . . .
39.3(32) . . .
47(4) . . .
47(4) . . .
47(4) . . .
47(4) . . .
43.7(34) . . .
46(4) . . .
38.5(32) . . .
42.3(34) . . .
37.8(32) . . .
41(4) . . .
46(4) . . .
54(4) . . .
43.2(35) . . .
51(4) . . .
61(4) . . .
42.5(35) . . .
50(4) . . .
43.1(34) . . .
44(4) . . .
42(4) . . .
43(4) . . .
41.7(35) . . .
49(4) . . .
38.8(33) . . .
45(4) . . .
48(4) . . .
38.3(32) . . .
43.4(34) . . .
48(4) . . .
48(4) . . .
47(4) . . .
42.8(34) . . .
44.0(35) . . .
49(4) . . .
33.3(30) . . .
38.9(34) . . .
41.0(33) . . .
48(4) . . .
54(4) . . .
48(4) . . .
51(4) . . .
43.4(34) . . .
52(4) . . .
47(4) . . .
36.6(34) . . .
41(4) . . .
49(4) . . .
53(4) . . .
56(4) . . .
35.3(31) . . .
37.9(31) . . .
49(4) . . .
52(4) . . .
39.0(33) . . .
47(4) . . .
40.6(34) . . .
40.0(33) . . .
45(4) . . .
42(4) . . .
43(4) . . .
39.6(35) . . .
41.2(34) . . .
36.5(31) . . .
44(4) . . .
43(4) . . .
53(4) . . .
41.1(34) . . .
36.7(33) . . .
48(4) . . .
44(4) . . .
48(4) . . .
42.8(34) . . .
39.3(34) . . .
38.3(35) . . .
37.3(33) . . .
45(4) . . .
40.8(34) . . .
51(4) . . .
48(4) . . .
47(4) . . .
50(4) . . .
40.0(33) . . .
48(4) . . .
35.8(31) . . .
39.8(33) . . .
52(4) . . .
53(4) . . .
44.8(34) . . .
48(4) . . .
51(4) . . .
44.4(35) . . .
40.9(33) . . .
45(4) . . .
47(4) . . .
51(4) . . .
40.8(33) . . .
40.9(33) . . .
47(4) . . .
41.8(34) . . .
52(4) . . .
47(4) . . .
48(4) . . .
55(4) . . .
42.2(33) . . .
39.5(33) . . .
40.8(33) . . .
46(4) . . .
35.9(32) . . .
42(4) . . .
49(4) . . .
43.9(34) . . .
58(4) . . .
55(4) . . .
49(4) . . .
60(4) . . .
49(4) . . .
43.4(35) . . .
37.4(32) . . .
42.0(35) . . .
48(4) . . .
49(4) . . .
42.1(34) . . .
50(4) . . .
47(4) . . .
47(4) . . .
39.6(34) . . .
53(4) . . .
37.6(35) . . .
44(4) . . .
49(4) . . .
52(4) . . .
53(4) . . .
49(4) . . .
38.6(33) . . .
40.6(33) . . .
37.8(32) . . .
42(4) . . .
43(4) . . .
49(4) . . .
44.1(35) . . .
43.3(34) . . .
42.3(34) . . .
47(4) . . .
43.9(34) . . .
46(4) . . .
43.0(34) . . .
38.1(33) . . .
45(4) . . .
42.0(34) . . .
35.7(31) . . .
46(4) . . .
45(4) . . .
38.5(34) . . .
51(4) . . .
39.2(33) . . .
38.2(33) . . .
41.0(34) . . .
49(4) . . .
51(4) . . .
39.4(32) . . .
35.2(31) . . .
37.2(33) . . .
34.8(30) . . .
37.5(33) . . .
48(4) . . .
47(4) . . .
44(4) . . .
40.0(35) . . .
43(4) . . .
48(4) . . .
47(4) . . .
52(4) . . .
40.3(32) . . .
46(4) . . .
43.8(35) . . .
43(4) . . .
45(4) . . .
38.9(32) . . .
44(4) . . .
41.1(33) . . .
42.4(34) . . .
55(4) . . .
46(4) . . .
42.3(34) . . .
39.8(33) . . .
46(4) . . .
40.7(34) . . .
37.3(32) . . .
47(4) . . .
49(4) . . .
47(4) . . .
48(4) . . .
40(4) . . .
38.3(32) . . .
41.0(34) . . .
49(4) . . .
40(4) . . .
35.2(33) . . .
44.6(35) . . .
43.9(35) . . .
44(4) . . .
45(4) . . .
49(4) . . .
42.5(34) . . .
48(4) . . .
43(4) . . .
38.5(35) . . .
50(4) . . .
46(4) . . .
42.6(34) . . .
42.5(34) . . .
45(4) . . .
47(4) . . .
49(4) . . .
35.8(31) . . .
41(4) . . .
42(4) . . .
44.4(35) . . .
43.6(34) . . .
44(4) . . .
40.5(34) . . .
42.2(34) . . .
41.0(34) . . .
49(4) . . .
42(4) . . .
46(4) . . .
49(4) . . .
38.0(33) . . .
38.3(33) . . .
44(4) . . .
49(4) . . .
43.1(35) . . .
48(4) . . .
49(4) . . .
44(4) . . .
54(4) . . .
49(4) . . .
41.9(34) . . .
53(4) . . .
42(4) . . .
52(4) . . .
41.6(34) . . .
32.2(30) . . .
41.9(35) . . .
43(4) . . .
42.8(35) . . .
42.4(35) . . .
53(4) . . .
47(4) . . .
47(4) . . .
50(4) . . .
49(4) . . .
37.4(32) . . .
41.3(34) . . .
53(4) . . .
48(4) . . .
46(4) . . .
38.6(32) . . .
44(4) . . .
38.2(34) . . .
52(4) . . .
44.8(35) . . .
34.7(31) . . .
38.6(33) . . .
40.0(34) . . .
39.8(34) . . .
39.5(34) . . .
46(4) . . .
48(4) . . .
45(4) . . .
40.2(35) . . .
48(4) . . .
44.3(34) . . .
49(4) . . .
43.8(35) . . .
42(4) . . .
47(4) . . .
39.8(33) . . .
40.0(33) . . .
37.9(34) . . .
36.8(32) . . .
35.7(32) . . .
42.9(34) . . .
37.5(31) . . .
41(4) . . .
48(4) . . .
42.7(34) . . .
39.2(33) . . .
40.2(33) . . .
42.3(35) . . .
51(4) . . .
52(4) . . .
52(4) . . .
44(4) . . .
40(4) . . .
32.0(32) . . .
53(4) . . .
35.6(32) . . .
39.4(33) . . .
47(4) . . .
43(4) . . .
46(4) . . .
45(4) . . .
45(4) . . .
42(4) . . .
46(4) . . .
44.3(34) . . .
50(4) . . .
53(4) . . .
42.2(34) . . .
44(4) . . .
42.7(34) . . .
39.1(33) . . .
44(4) . . .
44(4) . . .
42.6(35) . . .
46(4) . . .
50(4) . . .
56(4) . . .
49(4) . . .
48(4) . . .
40.9(34) . . .
40(4) . . .
49(4) . . .
48(4) . . .
55(4) . . .
48(4) . . .
37.2(33) . . .
42(4) . . .
37.4(32) . . .
49(4) . . .
42.5(34) . . .
55(4) . . .
42.9(35) . . .
45(4) . . .
41.6(34) . . .
40.0(33) . . .
43(4) . . .
39.2(34) . . .
46(4) . . .
46.2(35) . . .
44.6(34) . . .
48(4) . . .
47(4) . . .
46(4) . . .
48(4) . . .
52(4) . . .
53(4) . . .
37.8(34) . . .
43(4) . . .
40.7(33) . . .
49(4) . . .
42.5(35) . . .
39.9(35) . . .
40.5(34) . . .
45.6(35) . . .
43.8(34) . . .
41.9(34) . . .
36.9(32) . . .
39.4(33) . . .
47(4) . . .
53(4) . . .
41.3(35) . . .
45(4) . . .
38.1(33) . . .
36.5(31) . . .
44(4) . . .
44(4) . . .
40.0(33) . . .
42.2(34) . . .
40.1(33) . . .
40.4(35) . . .
42(4) . . .
42.2(34) . . .
41.8(33) . . .
45.7(35) . . .
53(4) . . .
45(4) . . .
41.5(34) . . .
54(4) . . .
43.3(35) . . .
47(4) . . .
47(4) . . .
46(4) . . .
42.1(35) . . .
36.2(31) . . .
42.7(35) . . .
42(4) . . .
41.6(34) . . .
56(4) . . .
52(4) . . .
46(4) . . .
41.7(34) . . .
42.2(34) . . .
41.6(33) . . .
49(4) . . .
36.5(31) . . .
50(4) . . .
49(4) . . .
38.5(32) . . .
46(4) . . .
44(4) . . .
42(4) . . .
40.5(34) . . .
44.1(35) . . .
57(4) . . .
45.1(35) . . .
42.0(35) . . .
43(4) . . .
35.0(31) . . .
51(4) . . .
35.5(33) . . .
36.8(34) . . .
43.0(35) . . .
47(4) . . .
39.6(33) . . .
41.9(34) . . .
48(4) . . .
56(4) . . .
49(4) . . .
43.3(34) . . .
48(4) . . .
38.5(35) . . .
40(4) . . .
44.3(35) . . .
45(4) . . .
44(4) . . .
54(4) . . .
47(4) . . .
49(4) . . .
38.7(35) . . .
43(4) . . .
45(4) . . .
45(4) . . .
51(4) . . .
46(4) . . .
40.3(35) . . .
42.5(35) . . .
37.7(32) . . .
52(4) . . .
53(4) . . .
46(4) . . .
38.7(32) . . .
43.8(34) . . .
38.8(33) . . .
45(4) . . .
42(4) . . .
39.9(34) . . .
50(4) . . .
53(4) . . .
37.2(32) . . .
42(4) . . .
37.1(34) . . .
39.4(33) . . .
35.5(31) . . .
50(4) . . .
43(4) . . .
43(4) . . .
53(4) . . .
41.1(33) . . .
37.3(32) . . .
49(4) . . .
45(4) . . .
44.1(34) . . .
41.4(34) . . .
42(4) . . .
39.8(35) . . .
45(4) . . .
46(4) . . .
44.0(34) . . .
44(4) . . .
33.1(30) . . .
44(4) . . .
36.7(33) . . .
46(4) . . .
41(4) . . .
46(4) . . .
40(4) . . .
48(4) . . .
53(4) . . .
41(4) . . .
48(4) . . .
41.1(33) . . .
48(4) . . .
43(4) . . .
48(4) . . .
42(4) . . .
45(4) . . .
42.3(34) . . .
45(4) . . .
43(4) . . .
45(4) . . .
46(4) . . .
47(4) . . .
50(4) . . .
49(4) . . .
39.9(33) . . .
43.3(34) . . .
43.0(34) . . .
43.8(35) . . .
44(4) . . .
47(4) . . .
35.8(32) . . .
37.4(32) . . .
32.2(30) . . .
45(4) . . .
49(4) . . .
38.0(32) . . .
45(4) . . .
37.5(32) . . .
41(4) . . .
45(4) . . .
39.1(32) . . .
49(4) . . .
34.8(32) . . .
44(4) . . .
50(4) . . .
42.6(34) . . .
42.8(35) . . .
36.4(32) . . .
44(4) . . .
43(4) . . .
37.3(32) . . .
48(4) . . .
48(4) . . .
40.4(32) . . .
52(4) . . .
50(4) . . .
45.3(35) . . .
48(4) . . .
45.0(34) . . .
49(4) . . .
47(4) . . .
43.9(35) . . .
52(4) . . .
45(4) . . .
42.7(34) . . .
43.5(34) . . .
40.2(33) . . .
45(4) . . .
44(4) . . .
52(4) . . .
39.5(33) . . .
40.2(34) . . .
41(4) . . .
41(4) . . .
42.8(35) . . .
31.6(30) . . .
52(4) . . .
55(4) . . .
50(4) . . .
36.9(31) . . .
42.8(34) . . .
41.3(34) . . .
46(4) . . .
47(4) . . .
42.2(33) . . .
40.8(34) . . .
36.8(32) . . .
35.8(32) . . .
46(4) . . .
32.4(29) . . .
39.8(33) . . .
36.9(34) . . .
38.0(34) . . .
48(4) . . .
41.1(33) . . .
48(4) . . .
42(4) . . .
52(4) . . .
45(4) . . .
44.0(34) . . .
40(4) . . .
39(4) . . .
41.3(35) . . .
42.3(34) . . .
39.5(33) . . .
41.1(34) . . .
28.8(30) . . .
34.4(33) . . .
33.8(30) . . .
54(4) . . .
47(4) . . .
39.2(34) . . .
40.0(35) . . .
41.6(34) . . .
41.9(34) . . .
36.0(32) . . .
55(4) . . .
42.2(34) . . .
54(4) . . .
51(4) . . .
37.3(32) . . .
51(4) . . .
37.1(33) . . .
42.0(34) . . .
50(4) . . .
48(4) . . .
49(4) . . .
48(4) . . .
47(4) . . .
43.3(34) . . .
43(4) . . .
41(4) . . .
37.5(32) . . .
41.8(34) . . .
52(4) . . .
35.3(31) . . .
52(4) . . .
54(4) . . .
38.5(33) . . .
35.9(31) . . .
47(4) . . .
51(4) . . .
40.4(34) . . .
39.0(32) . . .
39.4(34) . . .
39.0(34) . . .
39.5(34) . . .
41.0(34) . . .
39.8(33) . . .
45(4) . . .
45(4) . . .
47(4) . . .
45(4) . . .
50(4) . . .
49(4) . . .
43(4) . . .
47(4) . . .
51(4) . . .
35.2(31) . . .
42(4) . . .
36.5(34) . . .
30.2(30) . . .
45.0(35) . . .
41.8(34) . . .
40.2(35) . . .
39(4) . . .
42(4) . . .
46(4) . . .
47(4) . . .
44(4) . . .
42(4) . . .
39.3(34) . . .
40.5(33) . . .
39.6(34) . . .
53(4) . . .
52(4) . . .
48(4) . . .
48(4) . . .
55(4) . . .
50(4) . . .
43(4) . . .
39.1(33) . . .
38.1(33) . . .
43.0(34) . . .
42.3(35) . . .
41(4) . . .
40.3(34) . . .
47(4) . . .
37.2(32) . . .
42.4(35) . . .
37.7(33) . . .
39.3(34) . . .
44.1(34) . . .
38.5(34) . . .
47(4) . . .
47(4) . . .
52(4) . . .
36.2(31) . . .
44(4) . . .
44(4) . . .
49(4) . . .
39(4) . . .
48(4) . . .
36.7(32) . . .
39.8(34) . . .
40.2(34) . . .
37.6(32) . . .
41.8(34) . . .
49(4) . . .
43(4) . . .
37.4(32) . . .
42.6(35) . . .
35.1(30) . . .
37.6(34) . . .
37.4(33) . . .
37.7(32) . . .
43.9(34) . . .
44.6(35) . . .
44(4) . . .
40.9(35) . . .
44.8(35) . . .
49(4) . . .
50(4) . . .
33.7(32) . . .
39.9(34) . . .
44(4) . . .
36.2(31) . . .
45(4) . . .
44.5(35) . . .
52(4) . . .
42.1(35) . . .
50(4) . . .
49(4) . . .
39.5(33) . . .
39.5(34) . . .
44(4) . . .
41.1(34) . . .
50(4) . . .
47(4) . . .
46(4) . . .
38.5(33) . . .
39.5(34) . . .
48(4) . . .
42.9(34) . . .
44(4) . . .
40.4(33) . . .
48(4) . . .
50(4) . . .
56(4) . . .
42(4) . . .
39(4) . . .
32.5(30) . . .
47(4) . . .
45(4) . . .
43(4) . . .
46(4) . . .
48(4) . . .
36.5(33) . . .
42.3(34) . . .
40.9(34) . . .
44.4(35) . . .
51(4) . . .
42.8(34) . . .
39.3(34) . . .
47(4) . . .
36.9(32) . . .
45(4) . . .
45(4) . . .
41.9(35) . . .
44(4) . . .
44.2(35) . . .
42.2(35) . . .
44.1(35) . . .
48(4) . . .
54(4) . . .
39.4(33) . . .
54(4) . . .
40.1(33) . . .
44(4) . . .
40.8(34) . . .
43.3(34) . . .
43.2(34) . . .
41.0(34) . . .
40.7(34) . . .
49(4) . . .
45.0(35) . . .
40.7(33) . . .
44(4) . . .
46(4) . . .
50(4) . . .
40.0(34) . . .
56(4) . . .
47(4) . . .
47(4) . . .
37.7(32) . . .
43.8(35) . . .
42.3(33) . . .
51(4) . . .
50(4) . . .
34.4(32) . . .
47(4) . . .
39.7(34) . . .
40.2(33) . . .
42(4) . . .
41.7(34) . . .
41.4(34) . . .
52(4) . . .
48(4) . . .
44(4) . . .
41.2(34) . . .
38.2(32) . . .
38.1(32) . . .
44(4) . . .
36.4(33) . . .
51(4) . . .
42.4(34) . . .
42(4) . . .
40(4) . . .
43(4) . . .
49(4) . . .
48(4) . . .
41.7(35) . . .
46(4) . . .
45.1(35) . . .
46(4) . . .
48(4) . . .
46(4) . . .
41(4) . . .
43.0(34) . . .
39.5(33) . . .
46(4) . . .
42.0(35) . . .
41(4) . . .
36.1(33) . . .
39.1(33) . . .
44.2(34) . . .
42(4) . . .
29.4(29) . . .
38.4(34) . . .
47(4) . . .
42.9(34) . . .
59(5) . . .
46(4) . . .
38.5(33) . . .
48(4) . . .
41.4(34) . . .
50(4) . . .
33.3(31) . . .
44(4) . . .
39.5(33) . . .
42(4) . . .
43(4) . . .
47(4) . . .
54(4) . . .
49(4) . . .
43.4(35) . . .
47(4) . . .
39.2(34) . . .
37.0(31) . . .
39.6(33) . . .
44(4) . . .
36.6(34) . . .
42(4) . . .
51(4) . . .
39.7(33) . . .
44(4) . . .
43(4) . . .
36.1(32) . . .
37.4(35) . . .
43.5(34) . . .
38.9(34) . . .
37(4) . . .
42.8(34) . . .
42.4(34) . . .
44.2(35) . . .
35.1(31) . . .
46(4) . . .
52(4) . . .
48(4) . . .
44.0(34) . . .
52(4) . . .
35.6(31) . . .
38.2(32) . . .
43.6(34) . . .
37.7(32) . . .
36.6(33) . . .
35.8(32) . . .
41.9(34) . . .
46(4) . . .
51(4) . . .
44.2(34) . . .
48(4) . . .
49(4) . . .
40.6(33) . . .
46(4) . . .
43.4(34) . . .
40(4) . . .
43(4) . . .
48(4) . . .
47(4) . . .
48(4) . . .
38.2(33) . . .
45(4) . . .
33.9(30) . . .
35.5(32) . . .
42(4) . . .
48(4) . . .
41.5(34) . . .
50(4) . . .
39.3(35) . . .
36.2(35) . . .
47(4) . . .
35.6(31) . . .
43.9(35) . . .
51(4) . . .
37.3(34) . . .
42(4) . . .
51(4) . . .
35.4(31) . . .
38.6(34) . . .
36.2(33) . . .
39.4(34) . . .
39.0(32) . . .
40.4(33) . . .
49(4) . . .
40.0(35) . . .
48(4) . . .
38.9(33) . . .
42.6(34) . . .
42(4) . . .
43(4) . . .
44.8(35) . . .
49(4) . . .
41.8(34) . . .
45(4) . . .
37.6(34) . . .
42(4) . . .
38.0(32) . . .
43.1(35) . . .
35.9(33) . . .
40(4) . . .
42(4) . . .
41.8(34) . . .
42.1(34) . . .
52(4) . . .
47(4) . . .
38(4) . . .
48(4) . . .
42(4) . . .
44(4) . . .
44(4) . . .
46(4) . . .
41.6(34) . . .
44.6(35) . . .
40(4) . . .
37.0(34) . . .
34.2(32) . . .
37.7(32) . . .
42.0(35) . . .
40(4) . . .
52(4) . . .
40.9(34) . . .
45(4) . . .
39.2(34) . . .
40(4) . . .
38.7(34) . . .
40.4(33) . . .
46(4) . . .
48(4) . . .
49(4) . . .
50(4) . . .
44(4) . . .
37.5(32) . . .
45(4) . . .
48(4) . . .
50(4) . . .
36.5(31) . . .
38.9(33) . . .
36.6(31) . . .
50(4) . . .
47(4) . . .
44(4) . . .
38.1(33) . . .
43.4(35) . . .
39.7(32) . . .
46(4) . . .
41.0(34) . . .
34.1(31) . . .
43(4) . . .
46(4) . . .
44(4) . . .
31.7(30) . . .
52(4) . . .
43.8(35) . . .
46(4) . . .
50(4) . . .
43.1(34) . . .
48(4) . . .
40(4) . . .
39(4) . . .
47(4) . . .
55(4) . . .
40.9(33) . . .
52(4) . . .
37.3(32) . . .
44(4) . . .
39.0(32) . . .
41.1(34) . . .
33.5(30) . . .
49(4) . . .
52(4) . . .
47(4) . . .
48(4) . . .
48(4) . . .
42.0(35) . . .
44.5(34) . . .
42.8(34) . . .
40.0(33) . . .
47(4) . . .
39.1(31) . . .
53(4) . . .
47(4) . . .
38.5(33) . . .
51(4) . . .
47(4) . . .
44.7(35) . . .
52(4) . . .
48(4) . . .
43(4) . . .
38.0(34) . . .
43.0(34) . . .
34.3(31) . . .
44.8(35) . . .
46(4) . . .
36.3(33) . . .
43.5(34) . . .
49(4) . . .
44(4) . . .
51(4) . . .
43(4) . . .
43.8(34) . . .
47(4) . . .
47(4) . . .
41.8(34) . . .
43(4) . . .
30.5(29) . . .
39.0(32) . . .
43.1(35) . . .
44(4) . . .
39.3(32) . . .
43.9(35) . . .
47(4) . . .
41(4) . . .
47(4) . . .
42.2(34) . . .
47(4) . . .
44(4) . . .
40(4) . . .
40.5(35) . . .
54(4) . . .
43.4(34) . . .
39.2(35) . . .
40(4) . . .
42(4) . . .
40.0(33) . . .
44.3(35) . . .
38.6(34) . . .
48(4) . . .
48(4) . . .
42.4(34) . . .
42.4(34) . . .
53(4) . . .
41.4(35) . . .
45(4) . . .
37.2(32) . . .
43.9(34) . . .
35.4(31) . . .
44(4) . . .
48(4) . . .
38.7(33) . . .
36.6(31) . . .
42.9(34) . . .
48(4) . . .
48(4) . . .
40.8(34) . . .
42.2(34) . . .
50(4) . . .
47(4) . . .
40.1(33) . . .
46.0(35) . . .
44(4) . . .
38.8(32) . . .
48(4) . . .
48(4) . . .
41.8(34) . . .
38.8(34) . . .
39.0(33) . . .
52(4) . . .
38.7(32) . . .
39.0(33) . . .
40.0(34) . . .
49(4) . . .
50(4) . . .
44.5(34) . . .
36.8(32) . . .
40.3(33) . . .
45(4) . . .
43(4) . . .
42.2(34) . . .
42.9(35) . . .
40.2(34) . . .
37.0(34) . . .
37.9(33) . . .
43.0(34) . . .
37.7(32) . . .
44(4) . . .
51(4) . . .
36.9(31) . . .
43.3(35) . . .
39.7(32) . . .
41.0(33) . . .
42.5(34) . . .
44(4) . . .
40.5(34) . . .
49(4) . . .
41(4) . . .
38.8(35) . . .
40.4(33) . . .
45.2(34) . . .
41.3(34) . . .
41.3(33) . . .
49(4) . . .
43(4) . . .
34.2(31) . . .
44.9(35) . . .
41.9(34) . . .
38.6(34) . . .
39.2(32) . . .
44.4(34) . . .
40.9(34) . . .
35.0(33) . . .
51(4) . . .
42(4) . . .
46(4) . . .
37.8(33) . . .
43(4) . . .
45(4) . . .
44(4) . . .
35.6(31) . . .
47(4) . . .
52(4) . . .
48(4) . . .
44(4) . . .
48(4) . . .
37.8(33) . . .
43(4) . . .
42(4) . . .
42.4(35) . . .
34.2(31) . . .
41(4) . . .
47(4) . . .
38.9(34) . . .
39.8(33) . . .
38.7(33) . . .
46(4) . . .
41(4) . . .
37.4(33) . . .
31.6(29) . . .
39.5(33) . . .
47(4) . . .
49(4) . . .
56(4) . . .
46(4) . . .
47.3(35) . . .
51(4) . . .
45(4) . . .
45(4) . . .
45(4) . . .
42.0(33) . . .
42.8(35) . . .
47(4) . . .
39.4(34) . . .
33.7(30) . . .
46(4) . . .
37.5(32) . . .
44(4) . . .
40.7(34) . . .
43.5(35) . . .
46(4) . . .
44.2(35) . . .
37.1(32) . . .
37.5(32) . . .
40.8(34) . . .
32.6(31) . . .
45(4) . . .
49(4) . . .
51(4) . . .
42.1(34) . . .
36.3(32) . . .
37.8(34) . . .
38.7(33) . . .
39.0(32) . . .
46(4) . . .
41.6(34) . . .
45(4) . . .
36.5(33) . . .
35.9(32) . . .
46(4) . . .
39.8(34) . . .
32.8(29) . . .
38.9(34) . . .
40.8(33) . . .
45.5(35) . . .
35.6(32) . . .
46(4) . . .
41.3(34) . . .
50(4) . . .
34.3(30) . . .
47(4) . . .
46(4) . . .
39.3(35) . . .
46(4) . . .
40.1(33) . . .
39.6(34) . . .
36.6(33) . . .
44(4) . . .
39.8(33) . . .
43.2(34) . . .
41(4) . . .
49(4) . . .
43(4) . . .
48(4) . . .
40.2(34) . . .
33.5(31) . . .
37.9(33) . . .
39.9(33) . . .
48(4) . . .
47(4) . . .
40.2(35) . . .
43(4) . . .
50(4) . . .
39.6(33) . . .
49(4) . . .
46(4) . . .
38.7(34) . . .
37.8(33) . . .
32.1(30) . . .
37.6(33) . . .
41.7(35) . . .
50(4) . . .
53(4) . . .
34.7(31) . . .
39.0(33) . . .
39.9(34) . . .
44(4) . . .
47(4) . . .
49(4) . . .
37.6(34) . . .
37.8(35) . . .
38.5(35) . . .
37.3(32) . . .
43.7(34) . . .
44.3(35) . . .
46(4) . . .
41.6(35) . . .
40.9(35) . . .
34.0(31) . . .
39.7(33) . . .
54(4) . . .
44(4) . . .
38.4(32) . . .
44.1(35) . . .
48(4) . . .
46(4) . . .
52(4) . . .
44.2(35) . . .
44.2(35) . . .
43.2(35) . . .
44(4) . . .
59(4) . . .
43.0(35) . . .
41.2(34) . . .
49(4) . . .
45(4) . . .
31.5(29) . . .
46(4) . . .
46(4) . . .
38.3(32) . . .
35.7(33) . . .
44(4) . . .
44.1(34) . . .
48(4) . . .
48(4) . . .
53(4) . . .
41.3(34) . . .
41.5(33) . . .
41.0(35) . . .
44(4) . . .
47(4) . . .
35.9(32) . . .
44.8(35) . . .
46.2(35) . . .
56(4) . . .
46(4) . . .
46(4) . . .
49(4) . . .
46(4) . . .
41.0(34) . . .
44(4) . . .
43.5(35) . . .
51(4) . . .
38.5(32) . . .
49(4) . . .
39.1(34) . . .
40.5(33) . . .
40.9(33) . . .
47(4) . . .
42.1(34) . . .
36.5(30) . . .
46.0(35) . . .
51(4) . . .
41.5(35) . . .
46(4) . . .
47(4) . . .
51(4) . . .
31.4(30) . . .
30.9(29) . . .
37.5(34) . . .
40.8(34) . . .
42.2(34) . . .
36.0(31) . . .
45(4) . . .
42(4) . . .
40.3(34) . . .
34.0(30) . . .
35.0(30) . . .
35.4(31) . . .
39.3(35) . . .
33.3(30) . . .
41.0(34) . . .
37.3(32) . . .
44(4) . . .
49(4) . . .
43.7(35) . . .
36.8(32) . . .
38.9(33) . . .
37.8(32) . . .
45(4) . . .
55(4) . . .
42.9(34) . . .
41.1(34) . . .
44(4) . . .
40(4) . . .
40.3(35) . . .
46.0(35) . . .
47(4) . . .
45(4) . . .
39.7(34) . . .
48(4) . . .
37.2(32) . . .
44(4) . . .
45(4) . . .
43(4) . . .
46(4) . . .
54(4) . . .
35.9(31) . . .
36.8(32) . . .
46(4) . . .
40.5(33) . . .
40.9(33) . . .
38.8(32) . . .
48(4) . . .
48(4) . . .
46(4) . . .
45.5(35) . . .
35.8(31) . . .
36.9(34) . . .
40(4) . . .
38.5(33) . . .
40.1(33) . . .
34.3(31) . . .
39(4) . . .
29.2(29) . . .
40.5(33) . . .
43.5(34) . . .
36.5(33) . . .
42(4) . . .
44(4) . . .
35.5(31) . . .
42.2(34) . . .
42(4) . . .
38.6(35) . . .
36.8(33) . . .
35.2(31) . . .
43.8(34) . . .
45(4) . . .
44(4) . . .
39.3(34) . . .
42.3(34) . . .
39.3(33) . . .
48(4) . . .
37.7(31) . . .
35.6(31) . . .
44.6(35) . . .
40(4) . . .
37.4(35) . . .
39.9(34) . . .
42.8(34) . . .
52(4) . . .
52(4) . . .
38.0(35) . . .
37.2(34) . . .
44(4) . . .
35.7(31) . . .
40.2(33) . . .
40.9(35) . . .
38.0(34) . . .
46(4) . . .
49(4) . . .
39.8(33) . . .
41(4) . . .
49(4) . . .
40.2(34) . . .
37.6(32) . . .
36.8(31) . . .
37.9(34) . . .
47(4) . . .
41.7(34) . . .
41.7(33) . . .
47(4) . . .
40(4) . . .
37.3(33) . . .
37.7(32) . . .
35.0(31) . . .
39.5(33) . . .
53(4) . . .
39.1(32) . . .
40.1(33) . . .
53(4) . . .
38.3(33) . . .
43(4) . . .
48(4) . . .
33.6(30) . . .
46(4) . . .
40.3(35) . . .
43(4) . . .
50(4) . . .
40.9(34) . . .
39.2(33) . . .
40.0(35) . . .
39.0(35) . . .
47(4) . . .
34.2(31) . . .
41.0(34) . . .
44(4) . . .
54(4) . . .
38.0(33) . . .
39.9(33) . . .
50(4) . . .
42.0(35) . . .
53(4) . . .
42.4(34) . . .
46(4) . . .
45(4) . . .
36.6(34) . . .
29.9(30) . . .
35(4) . . .
44.0(34) . . .
39(4) . . .
40.0(34) . . .
42(4) . . .
40.6(34) . . .
42.9(35) . . .
48(4) . . .
47(4) . . .
34.4(31) . . .
45(4) . . .
52(4) . . .
54(4) . . .
49(4) . . .
43(4) . . .
40.8(33) . . .
38.3(32) . . .
38.5(34) . . .
45(4) . . .
43(4) . . .
41.7(33) . . .
42.0(33) . . .
40.6(35) . . .
40(4) . . .
42(4) . . .
49(4) . . .
42.6(34) . . .
40(4) . . .
36.8(33) . . .
37.3(33) . . .
37.3(32) . . .
45.2(35) . . .
34.6(30) . . .
43(4) . . .
40.2(35) . . .
34.0(31) . . .
41.1(34) . . .
46(4) . . .
44(4) . . .
48(4) . . .
41.3(34) . . .
42.6(35) . . .
40(4) . . .
33.7(30) . . .
40.2(34) . . .
42.9(34) . . .
36.4(32) . . .
54(4) . . .
39.2(33) . . .
41.3(34) . . .
37.6(32) . . .
41(4) . . .
44(4) . . .
49(4) . . .
43.6(34) . . .
41.5(33) . . .
43.2(34) . . .
48(4) . . .
54(4) . . .
41.3(33) . . .
37.0(31) . . .
41.2(34) . . .
41(4) . . .
40.0(34) . . .
45.1(35) . . .
42.8(34) . . .
41.6(35) . . .
33.6(30) . . .
44(4) . . .
44.7(34) . . .
48(4) . . .
53(4) . . .
53(4) . . .
43.2(35) . . .
41.5(33) . . .
39.8(33) . . .
35.1(34) . . .
38(4) . . .
40.9(35) . . .
44.1(34) . . .
45(4) . . .
41.6(35) . . .
40.0(34) . . .
43(4) . . .
38.4(33) . . .
43.4(35) . . .
49(4) . . .
39.6(35) . . .
34.1(31) . . .
41.0(33) . . .
54(4) . . .
42.6(34) . . .
47(4) . . .
37.6(33) . . .
41.4(33) . . .
46(4) . . .
52(4) . . .
50(4) . . .
44.3(35) . . .
42.5(34) . . .
39.1(35) . . .
37.0(35) . . .
35.8(32) . . .
52(4) . . .
46(4) . . .
39.3(34) . . .
43(4) . . .
46(4) . . .
34.2(30) . . .
45(4) . . .
45(4) . . .
46(4) . . .
35.2(31) . . .
48(4) . . .
42.8(34) . . .
41.1(33) . . .
57(4) . . .
47(4) . . .
43.0(34) . . .
43.0(35) . . .
47(4) . . .
46(4) . . .
50(4) . . .
49(4) . . .
43(4) . . .
35.8(32) . . .
40(4) . . .
38.7(33) . . .
40.3(33) . . .
30.9(29) . . .
48(4) . . .
45(4) . . .
45(4) . . .
36.8(32) . . .
34.6(30) . . .
46(4) . . .
35.2(31) . . .
43(4) . . .
47(4) . . .
42(4) . . .
35.3(33) . . .
38.5(34) . . .
44(4) . . .
40.2(33) . . .
42(4) . . .
38.9(32) . . .
42(4) . . .
35.6(31) . . .
43.5(34) . . .
37.0(32) . . .
32.4(31) . . .
47(4) . . .
43.8(35) . . .
51(4) . . .
37.1(32) . . .
44(4) . . .
41.8(34) . . .
47(4) . . .
36.9(32) . . .
47(4) . . .
46(4) . . .
41.9(35) . . .
46.0(35) . . .
45(4) . . .
39.0(33) . . .
34.1(33) . . .
39.8(34) . . .
37.4(32) . . .
49(4) . . .
47(4) . . .
45(4) . . .
43(4) . . .
47(4) . . .
42.1(35) . . .
40.5(34) . . .
51(4) . . .
36.9(32) . . .
48(4) . . .
39.6(33) . . .
35.3(33) . . .
40.0(33) . . .
48(4) . . .
45.6(35) . . .
40.5(34) . . .
28.3(29) . . .
34.0(31) . . .
46(4) . . .
46(4) . . .
39.7(33) . . .
33.5(31) . . .
40.6(35) . . .
46(4) . . .
39.1(33) . . .
37(4) . . .
43(4) . . .
39.3(33) . . .
36.1(31) . . .
45(4) . . .
36.8(32) . . .
51(4) . . .
50(4) . . .
48(4) . . .
40.4(33) . . .
36(4) . . .
43(4) . . .
38.3(34) . . .
29.0(28) . . .
40.3(33) . . .
45(4) . . .
43(4) . . .
51(4) . . .
48(4) . . .
38.6(33) . . .
30.1(30) . . .
43(4) . . .
37.8(32) . . .
47(4) . . .
45(4) . . .
39.7(33) . . .
41.3(34) . . .
44.6(35) . . .
41.2(33) . . .
35.6(32) . . .
40.6(34) . . .
48(4) . . .
41.1(34) . . .
40.7(33) . . .
41.5(34) . . .
40.0(34) . . .
49(4) . . .
34.9(32) . . .
42.4(34) . . .
62(4) . . .
38.6(32) . . .
41(4) . . .
43(4) . . .
50(4) . . .
48(4) . . .
46(4) . . .
43.9(34) . . .
38.9(33) . . .
47(4) . . .
40.2(34) . . .
40(4) . . .
35.5(33) . . .
39.0(34) . . .
49(4) . . .
43(4) . . .
40(4) . . .
31.3(30) . . .
37.9(33) . . .
51(4) . . .
42.0(34) . . .
45(4) . . .
39.2(33) . . .
48(4) . . .
34.7(31) . . .
38.8(34) . . .
43(4) . . .
39.8(34) . . .
39.3(32) . . .
41.4(34) . . .
35.5(31) . . .
49(4) . . .
36.1(31) . . .
37.2(31) . . .
41.5(34) . . .
36.2(33) . . .
34.2(33) . . .
41.3(34) . . .
44(4) . . .
42.7(34) . . .
39.9(33) . . .
46(4) . . .
45(4) . . .
41.0(34) . . .
43.4(34) . . .
47(4) . . .
35.2(32) . . .
40.7(33) . . .
46(4) . . .
49(4) . . .
28.3(27) . . .
33.9(32) . . .
39.8(35) . . .
41.8(34) . . .
37.0(32) . . .
31.3(30) . . .
41(4) . . .
31.8(30) . . .
44.2(35) . . .
38.5(33) . . .
42(4) . . .
42.3(35) . . .
46(4) . . .
44(4) . . .
44(4) . . .
41.0(34) . . .
45(4) . . .
40(4) . . .
37.1(31) . . .
39.8(33) . . .
45(4) . . .
40.7(34) . . .
50(4) . . .
37.5(32) . . .
43(4) . . .
42(4) . . .
28.9(28) . . .
43(4) . . .
37.3(32) . . .
38.1(33) . . .
35.8(32) . . .
45(4) . . .
51(4) . . .
41.9(33) . . .
35.3(32) . . .
43(4) . . .
39.9(33) . . .
48(4) . . .
47(4) . . .
48(4) . . .
43(4) . . .
41(4) . . .
40.8(34) . . .
45.6(35) . . .
44(4) . . .
45(4) . . .
43(4) . . .
39.4(33) . . .
42.6(34) . . .
39.6(33) . . .
38.5(34) . . .
32.8(32) . . .
31.3(30) . . .
36.1(33) . . .
42(4) . . .
45(4) . . .
46(4) . . .
58(4) . . .
45(4) . . .
49(4) . . .
34.8(31) . . .
39.5(34) . . .
43.7(34) . . .
31.5(29) . . .
45(4) . . .
37.2(32) . . .
41(4) . . .
40.4(33) . . .
50(4) . . .
47(4) . . .
40.6(34) . . .
39.4(33) . . .
43.7(34) . . .
47(4) . . .
35.3(33) . . .
44(4) . . .
44.3(35) . . .
37.2(31) . . .
41(4) . . .
37.9(34) . . .
45(4) . . .
42.1(34) . . .
40.8(33) . . .
34.3(32) . . .
34.9(33) . . .
47(4) . . .
33.2(30) . . .
42.4(34) . . .
47(4) . . .
44(4) . . .
38.5(33) . . .
42(4) . . .
39.7(33) . . .
36.5(32) . . .
32.1(30) . . .
36.4(33) . . .
35.6(31) . . .
39.4(33) . . .
39.0(33) . . .
36.4(33) . . .
40.1(33) . . .
50(4) . . .
39.4(33) . . .
44(4) . . .
38.7(34) . . .
45(4) . . .
42.7(34) . . .
47(4) . . .
37.3(34) . . .
43(4) . . .
42.9(35) . . .
34.0(30) . . .
37.0(32) . . .
39.5(33) . . .
43(4) . . .
37.4(33) . . .
38.4(33) . . .
44.7(35) . . .
48(4) . . .
34.1(30) . . .
40.6(33) . . .
42.1(34) . . .
32.4(29) . . .
43(4) . . .
40.0(34) . . .
36.6(31) . . .
43.7(35) . . .
37.5(34) . . .
50(4) . . .
34.7(32) . . .
39.7(33) . . .
31.1(30) . . .
42.6(35) . . .
41(4) . . .
34.5(33) . . .
43.3(34) . . .
47(4) . . .
44(4) . . .
48(4) . . .
43(4) . . .
50(4) . . .
42.6(34) . . .
42.2(35) . . .
45(4) . . .
39.7(33) . . .
41.5(34) . . .
34.2(31) . . .
40(4) . . .
42(4) . . .
46(4) . . .
51(4) . . .
39.5(32) . . .
39.7(33) . . .
52(4) . . .
40(4) . . .
39.4(33) . . .
38.7(33) . . .
30.7(29) . . .
39.4(34) . . .
37.7(33) . . .
39.9(33) . . .
46(4) . . .
44(4) . . .
33.1(31) . . .
41.4(33) . . .
47(4) . . .
38.7(34) . . .
44(4) . . .
45(4) . . .
36.1(33) . . .
36.2(31) . . .
34.2(30) . . .
46(4) . . .
31.1(29) . . .
35.2(31) . . .
49(4) . . .
49(4) . . .
39.5(33) . . .
46(4) . . .
46(4) . . .
47(4) . . .
42(4) . . .
31.0(30) . . .
31.1(31) . . .
36.1(31) . . .
38.6(32) . . .
34.8(33) . . .
41(4) . . .
39.6(34) . . .
44.1(35) . . .
47(4) . . .
42(4) . . .
31.4(29) . . .
41(4) . . .
37.8(32) . . .
40.3(33) . . .
36.1(32) . . .
36.0(33) . . .
44(4) . . .
42.2(34) . . .
39.7(33) . . .
37.3(32) . . .
49(4) . . .
48(4) . . .
29.9(29) . . .
38.5(32) . . .
28.3(30) . . .
27.9(28) . . .
42(4) . . .
43.7(34) . . .
43(4) . . .
43.1(35) . . .
45.5(34) . . .
54(4) . . .
37.5(32) . . .
33.9(30) . . .
45.4(35) . . .
50(4) . . .
38.2(32) . . .
42.1(34) . . .
40.8(35) . . .
41(4) . . .
45(4) . . .
49(4) . . .
40.5(33) . . .
40.0(34) . . .
33.7(32) . . .
38.7(34) . . .
44.3(35) . . .
39.1(33) . . .
39.7(33) . . .
42(4) . . .
44(4) . . .
37.4(32) . . .
44.1(35) . . .
39.1(33) . . .
48(4) . . .
46(4) . . .
35.6(31) . . .
37.7(32) . . .
50(4) . . .
38.8(34) . . .
40(4) . . .
31.2(29) . . .
43.4(34) . . .
36.4(32) . . .
43(4) . . .
53(4) . . .
50(4) . . .
50(4) . . .
36.0(32) . . .
45(4) . . .
39.0(33) . . .
46(4) . . .
35.8(31) . . .
37.1(33) . . .
43(4) . . .
48(4) . . .
42.1(34) . . .
41.2(33) . . .
38.1(34) . . .
31.9(30) . . .
37.2(33) . . .
35.3(31) . . .
40.6(34) . . .
39.7(34) . . .
43.2(35) . . .
37.9(32) . . .
36.2(31) . . .
38.8(33) . . .
51(4) . . .
43.5(35) . . .
36.6(31) . . .
37.6(32) . . .
35.4(32) . . .
34.1(33) . . .
28.5(29) . . .
35.2(31) . . .
37.5(33) . . .
45(4) . . .
47(4) . . .
39.8(34) . . .
35.5(31) . . .
34.0(30) . . .
35.0(32) . . .
41(4) . . .
35.4(32) . . .
33.9(30) . . .
49(4) . . .
40.3(33) . . .
36.8(34) . . .
42(4) . . .
46.6(35) . . .
45(4) . . .
45(4) . . .
38.0(33) . . .
36.8(32) . . .
43.5(35) . . .
42.8(35) . . .
46(4) . . .
39.3(34) . . .
35.8(32) . . .
33.1(30) . . .
40.2(33) . . .
39.8(34) . . .
32.5(30) . . .
42.2(34) . . .
44(4) . . .
40.9(34) . . .
48(4) . . .
34.1(32) . . .
35.6(34) . . .
42.7(34) . . .
46(4) . . .
40.8(34) . . .
39.7(35) . . .
42(4) . . .
39.9(33) . . .
44(4) . . .
40.0(35) . . .
35.9(32) . . .
49(4) . . .
37.8(32) . . .
38.4(33) . . .
41(4) . . .
35.8(31) . . .
42.8(34) . . .
43.3(34) . . .
37.6(32) . . .
40(4) . . .
39.1(34) . . .
37.3(32) . . .
34.2(31) . . .
37.5(34) . . .
44(4) . . .
45(4) . . .
38.4(33) . . .
43(4) . . .
39(4) . . .
35.2(32) . . .
39.1(32) . . .
48(4) . . .
37.8(33) . . .
30.3(29) . . .
37.0(34) . . .
38.5(34) . . .
43.7(34) . . .
46.5(35) . . .
43(4) . . .
41.2(35) . . .
39.0(34) . . .
43.6(34) . . .
42.4(34) . . .
40.7(35) . . .
43(4) . . .
43(4) . . .
40.0(33) . . .
42(4) . . .
45(4) . . .
46(4) . . .
45(4) . . .
47(4) . . .
42.7(35) . . .
46(4) . . .
39.5(33) . . .
41.6(34) . . .
46(4) . . .
43(4) . . .
47(4) . . .
42(4) . . .
43.5(34) . . .
40.4(33) . . .
38.6(34) . . .
29.8(31) . . .
41(4) . . .
36.2(31) . . .
47(4) . . .
38.0(33) . . .
35.8(33) . . .
38.3(34) . . .
36.4(31) . . .
34.2(30) . . .
48(4) . . .
38.4(34) . . .
33.8(31) . . .
45(4) . . .
42.0(34) . . .
43(4) . . .
41(4) . . .
48(4) . . .
42.0(34) . . .
32.1(29) . . .
42.3(34) . . .
35.0(30) . . .
42.5(34) . . .
36.0(32) . . .
40.8(34) . . .
42.5(35) . . .
42(4) . . .
42(4) . . .
45(4) . . .
31.3(29) . . .
41(4) . . .
43(4) . . .
35.7(32) . . .
34.7(31) . . .
41.2(35) . . .
40.8(35) . . .
40.2(34) . . .
37.3(32) . . .
40.6(33) . . .
37.2(32) . . .
42(4) . . .
50(4) . . .
49(4) . . .
44.7(34) . . .
51(4) . . .
40.3(33) . . .
42.2(34) . . .
42(4) . . .
40.2(33) . . .
46(4) . . .
36.9(32) . . .
40.9(34) . . .
42.5(35) . . .
41.2(33) . . .
43(4) . . .
29.9(30) . . .
39(4) . . .
43.0(34) . . .
38.2(32) . . .
42.5(34) . . .
38.3(33) . . .
36.6(32) . . .
31.6(29) . . .
34.5(31) . . .
35.1(33) . . .
36(4) . . .
44(4) . . .
38.9(32) . . .
38.8(33) . . .
32.8(31) . . .
37(4) . . .
32.0(32) . . .
37.4(32) . . .
52(4) . . .
46(4) . . .
43(4) . . .
39(4) . . .
36.8(32) . . .
40.6(33) . . .
35.0(31) . . .
36.2(34) . . .
42(4) . . .
42.9(35) . . .
36.6(31) . . .
42.7(35) . . .
50(4) . . .
51(4) . . .
45.8(35) . . .
46(4) . . .
33.4(30) . . .
42(4) . . .
35.1(32) . . .
43.3(34) . . .
40.3(33) . . .
45(4) . . .
39.7(34) . . .
44(4) . . .
36.2(32) . . .
40(4) . . .
41(4) . . .
41.3(33) . . .
37.5(32) . . .
37.4(32) . . .
43(4) . . .
39.2(33) . . .
42.2(34) . . .
43.9(34) . . .
42.6(34) . . .
35.2(31) . . .
45(4) . . .
40.4(34) . . .
35.2(32) . . .
36.4(32) . . .
43(4) . . .
40(4) . . .
45(4) . . .
38.0(32) . . .
37.7(33) . . .
38.4(33) . . .
43(4) . . .
43.4(34) . . .
44.2(34) . . .
40.8(34) . . .
42.2(35) . . .
36.4(32) . . .
32.3(30) . . .
41.7(35) . . .
35.3(31) . . .
46(4) . . .
46(4) . . .
44(4) . . .
38.2(33) . . .
36.7(33) . . .
30.9(30) . . .
27.8(29) . . .
31.5(30) . . .
44.3(35) . . .
42(4) . . .
41.0(34) . . .
47(4) . . .
39.5(33) . . .
38.6(32) . . .
36.8(32) . . .
35.0(31) . . .
45(4) . . .
45(4) . . .
32.7(30) . . .
37.4(32) . . .
39.4(35) . . .
38.4(34) . . .
43.2(34) . . .
45(4) . . .
36.5(34) . . .
43(4) . . .
33.5(30) . . .
43.6(34) . . .
42.3(34) . . .
36.5(34) . . .
36.8(34) . . .
41.3(35) . . .
37.5(32) . . .
34.4(31) . . .
41.0(35) . . .
45(4) . . .
43(4) . . .
36.2(31) . . .
40.2(33) . . .
44(4) . . .
39.8(34) . . .
44(4) . . .
44.9(34) . . .
31.4(30) . . .
38.7(33) . . .
46(4) . . .
38.5(32) . . .
38.0(32) . . .
38.2(33) . . .
40.3(34) . . .
41.7(34) . . .
41.1(33) . . .
43.4(34) . . .
50(4) . . .
35.3(32) . . .
42(4) . . .
36.1(33) . . .
30.3(29) . . .
36.5(31) . . .
39.1(34) . . .
37.5(35) . . .
45(4) . . .
38.4(32) . . .
32.2(31) . . .
31.5(30) . . .
41(4) . . .
32.0(31) . . .
37.1(32) . . .
30.5(30) . . .
32.3(32) . . .
45(4) . . .
37.9(32) . . .
44.1(35) . . .
44.6(34) . . .
39.9(33) . . .
45(4) . . .
42.5(34) . . .
47(4) . . .
36.0(32) . . .
48(4) . . .
42.7(34) . . .
31.3(29) . . .
37.8(33) . . .
43(4) . . .
39.8(34) . . .
42(4) . . .
40.0(33) . . .
35.7(31) . . .
32.3(30) . . .
36.5(33) . . .
40.2(34) . . .
36.4(31) . . .
45(4) . . .
43(4) . . .
41(4) . . .
38.0(33) . . .
38.8(32) . . .
28.3(28) . . .
34.7(31) . . .
42(4) . . .
37.1(34) . . .
38.7(33) . . .
42.0(34) . . .
38.6(34) . . .
43(4) . . .
31.3(29) . . .
41.2(33) . . .
40.6(34) . . .
40.4(35) . . .
37(4) . . .
37.0(34) . . .
43.3(33) . . .
47(4) . . .
43(4) . . .
36.6(33) . . .
42.8(35) . . .
37.3(32) . . .
34.8(32) . . .
35.0(32) . . .
40(4) . . .
40.7(33) . . .
35.5(31) . . .
38.4(35) . . .
50(4) . . .
34.8(31) . . .
36.2(31) . . .
39.4(34) . . .
36.7(34) . . .
42(4) . . .
43(4) . . .
37.5(34) . . .
40.3(33) . . .
41.3(35) . . .
43(4) . . .
48(4) . . .
39.2(33) . . .
42.4(34) . . .
37.3(33) . . .
37.6(33) . . .
38.3(32) . . .
32.4(30) . . .
37.4(31) . . .
40.9(35) . . .
35.2(33) . . .
36.7(32) . . .
44.5(35) . . .
39.6(32) . . .
42(4) . . .
36.4(33) . . .
47(4) . . .
38.9(33) . . .
40.3(33) . . .
43(4) . . .
41(4) . . .
34.4(31) . . .
39.5(33) . . .
39.2(33) . . .
38.6(35) . . .
43(4) . . .
33.4(31) . . .
32.7(30) . . .
35.8(32) . . .
36.1(32) . . .
34.3(31) . . .
32.1(31) . . .
51(4) . . .
44(4) . . .
37.3(33) . . .
43(4) . . .
43(4) . . .
36.3(31) . . .
42(4) . . .
41(4) . . .
29.7(29) . . .
30.2(30) . . .
36.4(31) . . .
29.6(30) . . .
36.2(34) . . .
40.4(35) . . .
35.3(31) . . .
38.3(32) . . .
34.0(31) . . .
34.2(32) . . .
31.5(30) . . .
40.1(34) . . .
37.7(33) . . .
46(4) . . .
42(4) . . .
45(4) . . .
50(4) . . .
31.0(29) . . .
39.7(35) . . .
40(4) . . .
41.0(34) . . .
34.6(31) . . .
39.7(33) . . .
37.7(32) . . .
37.7(31) . . .
46(4) . . .
42.8(34) . . .
40.5(34) . . .
39.7(33) . . .
38.7(34) . . .
37.5(33) . . .
37.0(32) . . .
43(4) . . .
40.3(34) . . .
43(4) . . .
42(4) . . .
35.6(31) . . .
40.8(35) . . .
41(4) . . .
35.9(33) . . .
40.2(33) . . .
37.3(32) . . .
34.5(31) . . .
40(4) . . .
30.4(30) . . .
39.0(33) . . .
46(4) . . .
35.1(34) . . .
39(4) . . .
34.6(32) . . .
35.7(32) . . .
41.7(33) . . .
43.2(34) . . .
39.4(33) . . .
45(4) . . .
38.4(32) . . .
42.2(34) . . .
43(4) . . .
34.6(33) . . .
37.1(32) . . .
41.8(34) . . .
32.1(30) . . .
32.4(30) . . .
34.2(33) . . .
36(4) . . .
39.0(32) . . .
31.4(29) . . .
40.5(34) . . .
38.2(34) . . .
40.0(34) . . .
42.6(33) . . .
41.2(33) . . .
43.8(35) . . .
43(4) . . .
34.4(31) . . .
48(4) . . .
46(4) . . .
50(4) . . .
45(4) . . .
47(4) . . .
44.4(34) . . .
43.0(35) . . .
44(4) . . .
38(4) . . .
33.3(32) . . .
36.7(32) . . .
30.6(29) . . .
34.8(31) . . .
31.8(31) . . .
32.3(31) . . .
42.8(34) . . .
50(4) . . .
45(4) . . .
46(4) . . .
39.7(33) . . .
39.1(33) . . .
37.9(33) . . .
40(4) . . .
37.9(33) . . .
47(4) . . .
34.5(30) . . .
37.9(32) . . .
42(4) . . .
37.4(33) . . .
37.4(33) . . .
39.7(33) . . .
42(4) . . .
41(4) . . .
31.2(29) . . .
35.1(31) . . .
32.7(29) . . .
34.6(31) . . .
42(4) . . .
37.8(33) . . .
41.9(33) . . .
36.0(31) . . .
45(4) . . .
43(4) . . .
43(4) . . .
34.3(31) . . .
40.4(34) . . .
36.7(32) . . .
34.0(31) . . .
40.7(34) . . .
44.4(35) . . .
36.3(31) . . .
34.5(32) . . .
37(4) . . .
46(4) . . .
35.5(31) . . .
39.9(33) . . .
44(4) . . .
39.8(34) . . .
34.7(33) . . .
32.0(30) . . .
33.1(31) . . .
42(4) . . .
42(4) . . .
38.7(32) . . .
44.2(35) . . .
37.8(33) . . .
30.4(28) . . .
39.6(34) . . .
37.4(33) . . .
39.7(33) . . .
46(4) . . .
43.7(35) . . .
40.1(33) . . .
35.4(31) . . .
43.2(34) . . .
39.2(33) . . .
44(4) . . .
34.2(31) . . .
40.0(33) . . .
40.3(33) . . .
43(4) . . .
44(4) . . .
36.9(31) . . .
37.0(31) . . .
46.0(35) . . .
40.8(35) . . .
45(4) . . .
42.4(34) . . .
36.4(32) . . .
35.8(32) . . .
42.1(35) . . .
37.8(32) . . .
40.1(33) . . .
43.0(34) . . .
36.2(31) . . .
35.2(31) . . .
34.0(32) . . .
32.0(31) . . .
40.0(34) . . .
41.2(34) . . .
45(4) . . .
42(4) . . .
41.1(34) . . .
38.3(32) . . .
36.9(31) . . .
40.1(33) . . .
33.6(30) . . .
37.4(32) . . .
35.3(32) . . .
34.9(30) . . .
40.0(34) . . .
40.7(34) . . .
50(4) . . .
40.8(33) . . .
35.6(33) . . .
37.0(34) . . .
45(4) . . .
35.9(34) . . .
44.5(35) . . .
45(4) . . .
42.8(35) . . .
47(4) . . .
31.3(30) . . .
38.5(33) . . .
40.1(34) . . .
48(4) . . .
34.0(32) . . .
38.7(33) . . .
38.9(33) . . .
38.2(34) . . .
42(4) . . .
38.2(34) . . .
43.2(34) . . .
42.5(34) . . .
37.4(32) . . .
32.7(29) . . .
36.7(31) . . .
40.8(34) . . .
44.8(35) . . .
38.4(35) . . .
37.8(34) . . .
36.5(35) . . .
36.4(32) . . .
36.9(32) . . .
39.7(35) . . .
36.3(35) . . .
34.7(33) . . .
32.4(30) . . .
31.2(30) . . .
33.9(32) . . .
42(4) . . .
44(4) . . .
31.8(29) . . .
33.0(30) . . .
37.7(34) . . .
38.5(33) . . .
46(4) . . .
42.8(34) . . .
32.0(30) . . .
49(4) . . .
48(4) . . .
37.6(32) . . .
39.1(33) . . .
41.7(34) . . .
47(4) . . .
43.7(34) . . .
39.5(33) . . .
40.6(33) . . .
38.6(35) . . .
31.8(32) . . .
37.5(34) . . .
44(4) . . .
40.1(33) . . .
33.9(31) . . .
47(4) . . .
35.6(33) . . .
47(4) . . .
39.7(34) . . .
35.8(32) . . .
33.2(31) . . .
39.9(33) . . .
41.9(34) . . .
42.0(34) . . .
37.7(35) . . .
40(4) . . .
46(4) . . .
36.3(31) . . .
41.3(34) . . .
39.8(33) . . .
47(4) . . .
42(4) . . .
39.0(32) . . .
38.3(32) . . .
43(4) . . .
39(4) . . .
39.6(33) . . .
36.1(32) . . .
33.1(30) . . .
32.5(31) . . .
35.5(34) . . .
48(4) . . .
41.3(33) . . .
38.5(32) . . .
36.9(31) . . .
44(4) . . .
42(4) . . .
34.2(30) . . .
37.5(33) . . .
34.2(31) . . .
37.2(34) . . .
33.6(31) . . .
39.8(33) . . .
36.9(32) . . .
34.9(31) . . .
40.2(33) . . .
44(4) . . .
40.7(33) . . .
36.8(34) . . .
35.0(33) . . .
38.8(33) . . .
40.2(34) . . .
40.3(33) . . .
38.6(35) . . .
46(4) . . .
36.8(34) . . .
34.0(31) . . .
34.1(30) . . .
27.4(29) . . .
41(4) . . .
36.3(30) . . .
45.3(35) . . .
41.8(35) . . .
38.8(33) . . .
44(4) . . .
47(4) . . .
37.5(32) . . .
48(4) . . .
41.7(34) . . .
31.6(29) . . .
48(4) . . .
44.3(35) . . .
40.6(33) . . .
33.5(32) . . .
33.1(33) . . .
42(4) . . .
40.2(34) . . .
39.3(33) . . .
31.4(32) . . .
37(4) . . .
31.3(29) . . .
36.8(32) . . .
36.4(31) . . .
35.4(33) . . .
37.6(35) . . .
31.9(30) . . .
35.6(31) . . .
37.8(32) . . .
35.6(32) . . .
35.3(32) . . .
37.1(34) . . .
32.5(30) . . .
32.4(30) . . .
43(4) . . .
47(4) . . .
40.0(33) . . .
41.3(34) . . .
34.6(31) . . .
43(4) . . .
39(4) . . .
34.5(30) . . .
36.2(31) . . .
41.5(35) . . .
33.0(31) . . .
39.5(34) . . .
46(4) . . .
41.7(34) . . .
39.7(34) . . .
43(4) . . .
42(4) . . .
39.6(33) . . .
36.0(32) . . .
34.7(31) . . .
40.1(35) . . .
48(4) . . .
42.5(35) . . .
36.4(31) . . .
48(4) . . .
38.5(34) . . .
38.5(35) . . .
33.5(31) . . .
39.3(33) . . .
36.8(32) . . .
32.3(32) . . .
36.9(32) . . .
43.1(34) . . .
33.6(30) . . .
28.9(29) . . .
41(4) . . .
43(4) . . .
36.7(32) . . .
46(4) . . .
43(4) . . .
35.7(32) . . .
49(4) . . .
44.1(34) . . .
40.2(32) . . .
37.0(32) . . .
30.3(29) . . .
43(4) . . .
33.1(30) . . .
33.9(31) . . .
37.8(33) . . .
43(4) . . .
44(4) . . .
40.8(33) . . .
34.4(32) . . .
35.3(32) . . .
42(4) . . .
38.0(32) . . .
34.9(31) . . .
36.5(33) . . .
32.9(30) . . .
35.1(31) . . .
38.5(32) . . .
28.2(28) . . .
38.8(33) . . .
47(4) . . .
39.3(33) . . .
42.9(35) . . .
40.5(33) . . .
38.3(35) . . .
43(4) . . .
47(4) . . .
48(4) . . .
36.9(31) . . .
39.4(35) . . .
36.1(32) . . .
34.8(31) . . .
34.4(31) . . .
40.6(33) . . .
30.8(30) . . .
32.1(32) . . .
36.7(33) . . .
38.0(32) . . .
32.5(30) . . .
30.5(30) . . .
38(4) . . .
32.9(30) . . .
34.4(30) . . .
35.2(31) . . .
42.4(35) . . .
37.5(32) . . .
35.3(32) . . .
33.9(30) . . .
32.7(30) . . .
30.3(29) . . .
46(4) . . .
41.6(35) . . .
36.0(31) . . .
24.6(27) . . .
35.6(33) . . .
35.1(31) . . .
41.4(34) . . .
29.0(28) . . .
37.0(32) . . .
37.5(34) . . .
36.6(33) . . .
37.8(33) . . .
41.0(33) . . .
35.3(32) . . .
36.2(33) . . .
35.9(33) . . .
37.6(32) . . .
35.2(31) . . .
40.0(34) . . .
37.3(33) . . .
35.4(31) . . .
39.6(33) . . .
40.4(33) . . .
42(4) . . .
50(4) . . .
40.3(35) . . .
45(4) . . .
39.7(33) . . .
40.1(33) . . .
45(4) . . .
47(4) . . .
38.0(32) . . .
36.7(31) . . .
35.1(32) . . .
43.5(34) . . .
48(4) . . .
32.0(29) . . .
34.2(31) . . .
39(4) . . .
30.7(30) . . .
31.6(29) . . .
43.4(34) . . .
42.1(33) . . .
40.5(34) . . .
37.0(34) . . .
38(4) . . .
40.7(34) . . .
37.7(33) . . .
37.2(34) . . .
37.7(33) . . .
38.6(33) . . .
35.2(31) . . .
34.0(31) . . .
39.3(34) . . .
37.6(33) . . .
36.6(33) . . .
40.2(33) . . .
44.1(34) . . .
49(4) . . .
47(4) . . .
40.4(34) . . .
34.2(30) . . .
32.6(30) . . .
38.3(34) . . .
32.0(30) . . .
42(4) . . .
33.4(30) . . .
40.3(33) . . .
43(4) . . .
37.8(33) . . .
35.7(32) . . .
46(4) . . .
39.1(33) . . .
31.7(30) . . .
37(4) . . .
38.6(33) . . .
35.9(31) . . .
36.4(32) . . .
38.6(33) . . .
40.4(34) . . .
31.4(29) . . .
36.5(31) . . .
45(4) . . .
38.3(34) . . .
42.8(35) . . .
46(4) . . .
38.8(33) . . .
35.5(31) . . .
42.0(35) . . .
42.2(35) . . .
30.1(29) . . .
37.7(32) . . .
38.2(34) . . .
42(4) . . .
40(4) . . .
48(4) . . .
38.3(33) . . .
27.3(27) . . .
38(4) . . .
41(4) . . .
36.5(31) . . .
41.4(34) . . .
43.1(34) . . .
33.8(30) . . .
35.4(32) . . .
32.8(30) . . .
41.6(34) . . .
40.7(35) . . .
33.3(30) . . .
44.4(35) . . .
42.6(34) . . .
41.0(35) . . .
34.6(34) . . .
39.2(35) . . .
41.8(35) . . .
38.8(32) . . .
42(4) . . .
35.7(33) . . .
38.6(33) . . .
42.5(35) . . .
45.0(35) . . .
38.8(34) . . .
32.2(32) . . .
38.2(33) . . .
40.2(33) . . .
42.3(34) . . .
37.0(33) . . .
39.0(34) . . .
42(4) . . .
48(4) . . .
35.7(32) . . .
36.8(32) . . .
43(4) . . .
34.8(33) . . .
39.4(32) . . .
27.2(28) . . .
42.9(34) . . .
43(4) . . .
43(4) . . .
39.9(33) . . .
36.3(31) . . .
33.8(30) . . .
34.7(30) . . .
36.6(33) . . .
41.6(34) . . .
39.0(33) . . .
37.8(33) . . .
41(4) . . .
40.5(33) . . .
32.5(29) . . .
40.3(35) . . .
34.1(31) . . .
41(4) . . .
36.5(32) . . .
35.8(31) . . .
32.5(30) . . .
37.3(33) . . .
34.9(32) . . .
34.2(32) . . .
35.0(30) . . .
42.0(34) . . .
46(4) . . .
30.6(29) . . .
44(4) . . .
39.6(33) . . .
42.3(35) . . .
32.0(29) . . .
39.7(33) . . .
39.8(34) . . .
35.6(31) . . .
39.4(34) . . .
45(4) . . .
30.5(30) . . .
35.3(31) . . .
34.2(30) . . .
31.0(30) . . .
33.6(31) . . .
32.8(30) . . .
36.8(32) . . .
39.5(32) . . .
38.1(33) . . .
38.6(34) . . .
34.3(31) . . .
31.9(30) . . .
44.7(35) . . .
35.5(31) . . .
40.2(34) . . .
38.7(33) . . .
32.9(30) . . .
36.5(31) . . .
35.7(31) . . .
43(4) . . .
32.9(30) . . .
40.6(33) . . .
40.3(34) . . .
38.3(35) . . .
39(4) . . .
42.4(34) . . .
30.4(28) . . .
40.5(33) . . .
43(4) . . .
48(4) . . .
40.8(34) . . .
47(4) . . .
39.8(33) . . .
45(4) . . .
34.9(33) . . .
39.0(35) . . .
38.3(32) . . .
33.3(32) . . .
35.6(34) . . .
39(4) . . .
33.8(31) . . .
40.3(34) . . .
36.2(31) . . .
45(4) . . .
30.3(29) . . .
32.5(30) . . .
24.7(26) . . .
30.5(29) . . .
41(4) . . .
41(4) . . .
40.9(34) . . .
39.0(33) . . .
35.4(31) . . .
36.9(33) . . .
36.8(33) . . .
38.1(33) . . .
34.9(31) . . .
36.0(31) . . .
35.4(33) . . .
34.5(34) . . .
31.6(29) . . .
42.8(34) . . .
40.0(33) . . .
43(4) . . .
31.2(30) . . .
31.9(30) . . .
36.6(32) . . .
28.1(28) . . .
44(4) . . .
39.4(34) . . .
36.1(31) . . .
43.1(35) . . .
38.9(33) . . .
40.3(35) . . .
45(4) . . .
39.2(33) . . .
37.0(31) . . .
31.9(29) . . .
39.4(34) . . .
40.6(35) . . .
41.4(33) . . .
42.6(34) . . .
38.4(33) . . .
40(4) . . .
34.4(31) . . .
39.1(32) . . .
39.1(33) . . .
39.6(34) . . .
39.1(33) . . .
39.3(34) . . .
32.7(30) . . .
40.4(33) . . .
41.6(34) . . .
43(4) . . .
47(4) . . .
39.0(33) . . .
45(4) . . .
37.3(32) . . .
43(4) . . .
43.6(34) . . .
42.3(34) . . .
42(4) . . .
34.0(33) . . .
42(4) . . .
37.7(32) . . .
34.8(31) . . .
43(4) . . .
35.7(32) . . .
35.5(33) . . .
41.2(34) . . .
35.8(31) . . .
34.3(32) . . .
34.6(32) . . .
35.4(31) . . .
41.0(34) . . .
34.5(31) . . .
40.1(35) . . .
36.0(32) . . .
36.8(33) . . .
42.9(34) . . .
40.1(33) . . .
36.2(32) . . .
41(4) . . .
35.0(31) . . .
33.3(30) . . .
30.6(29) . . .
28.5(28) . . .
34.2(31) . . .
36.1(31) . . .
37.1(31) . . .
46(4) . . .
35.0(31) . . .
35.4(32) . . .
42.1(34) . . .
33.1(30) . . .
36.5(31) . . .
33.9(31) . . .
35.5(32) . . .
40.2(35) . . .
31.8(30) . . .
33.2(31) . . .
29.5(30) . . .
37.4(33) . . .
35.1(31) . . .
42.6(34) . . .
38.3(33) . . .
44(4) . . .
42(4) . . .
44(4) . . .
29.7(29) . . .
43(4) . . .
40(4) . . .
35.7(32) . . .
39.4(32) . . .
37.3(32) . . .
33.0(32) . . .
28.4(30) . . .
34.6(32) . . .
47(4) . . .
36.7(31) . . .
39.4(33) . . .
39(4) . . .
36.3(32) . . .
40.3(34) . . .
35.8(31) . . .
35.8(33) . . .
38(4) . . .
30.2(30) . . .
33.2(30) . . .
39.3(33) . . .
54(4) . . .
43(4) . . .
40.3(33) . . .
45(4) . . .
37.6(31) . . .
29.5(28) . . .
32.5(33) . . .
39(4) . . .
36.7(31) . . .
34.2(30) . . .
35.0(32) . . .
40(4) . . .
44(4) . . .
33.7(31) . . .
38.3(33) . . .
34.6(33) . . .
37.2(34) . . .
48(4) . . .
39.7(33) . . .
44.3(35) . . .
36.1(31) . . .
38.8(34) . . .
36.6(32) . . .
50(4) . . .
32.2(30) . . .
44(4) . . .
36.9(35) . . .
32.7(31) . . .
32.3(30) . . .
36.5(32) . . .
38.4(31) . . .
35.8(31) . . .
38.1(33) . . .
38.4(32) . . .
40.6(35) . . .
38.9(34) . . .
36.4(32) . . .
36.9(32) . . .
36.9(31) . . .
31.6(30) . . .
43(4) . . .
35.7(34) . . .
36.2(32) . . .
34.8(32) . . .
36.9(32) . . .
35.1(31) . . .
37.4(33) . . .
40.8(34) . . .
36.1(33) . . .
32.8(30) . . .
45(4) . . .
37.2(31) . . .
37.0(32) . . .
31.7(29) . . .
27.3(27) . . .
31.4(30) . . .
37.5(34) . . .
33.9(30) . . .
35.8(32) . . .
42(4) . . .
38.7(35) . . .
43(4) . . .
36.5(32) . . .
36.8(32) . . .
39(4) . . .
36.9(34) . . .
37.5(33) . . .
40.2(33) . . .
41.8(35) . . .
33.3(31) . . .
33.7(31) . . .
39.0(33) . . .
53(4) . . .
37.2(32) . . .
45(4) . . .
33.7(31) . . .
29.2(28) . . .
32.4(30) . . .
36.2(33) . . .
38(4) . . .
35.9(34) . . .
43(4) . . .
35.0(31) . . .
32.6(32) . . .
30.0(31) . . .
38.5(33) . . .
42(4) . . .
42.7(34) . . .
37.0(34) . . .
45(4) . . .
35.1(31) . . .
42.9(34) . . .
34.3(31) . . .
36.2(32) . . .
37(4) . . .
36.7(34) . . .
33.8(30) . . .
25.9(27) . . .
38.7(33) . . .
44(4) . . .
34.0(31) . . .
38.9(32) . . .
34.3(30) . . .
35.3(33) . . .
32.9(33) . . .
32.6(32) . . .
41.2(33) . . .
35.8(33) . . .
33.7(32) . . .
36.1(32) . . .
43(4) . . .
37.8(32) . . .
35.3(31) . . .
33.5(32) . . .
38.1(35) . . .
36.4(32) . . .
39.1(33) . . .
38.7(35) . . .
29.4(29) . . .
32.3(30) . . .
36.6(31) . . .
33.9(30) . . .
40.4(34) . . .
39.2(34) . . .
41(4) . . .
33.3(30) . . .
38.6(33) . . .
34.5(31) . . .
34.5(31) . . .
36.9(32) . . .
38.9(32) . . .
43.6(35) . . .
39.2(32) . . .
41.5(35) . . .
34.6(31) . . .
28.9(28) . . .
32.1(29) . . .
27.1(27) . . .
35.2(32) . . .
37.4(31) . . .
41.8(35) . . .
29.9(29) . . .
32.7(30) . . .
38.8(34) . . .
31.4(29) . . .
37.0(33) . . .
32.5(30) . . .
36.4(32) . . .
30.5(31) . . .
32.8(31) . . .
39.0(34) . . .
47(4) . . .
40.5(33) . . .
44(4) . . .
30.7(29) . . .
29.2(28) . . .
31.5(29) . . .
44(4) . . .
28.9(28) . . .
45(4) . . .
40.2(33) . . .
41.5(34) . . .
46(4) . . .
37(4) . . .
29.7(30) . . .
35.0(31) . . .
31.0(29) . . .
31.5(30) . . .
40(4) . . .
30.1(28) . . .
35.8(31) . . .
42(4) . . .
36.1(33) . . .
28.4(28) . . .
36.0(31) . . .
41.4(33) . . .
39.5(34) . . .
38.9(34) . . .
35.7(32) . . .
40.2(34) . . .
37.8(32) . . .
36.0(32) . . .
30.0(32) . . .
41(4) . . .
29.7(29) . . .
37.7(32) . . .
36.8(34) . . .
41(4) . . .
40(4) . . .
31.4(29) . . .
31.5(29) . . .
32.7(31) . . .
32.4(32) . . .
42(4) . . .
40.2(33) . . .
33.7(30) . . .
38.3(33) . . .
30.7(32) . . .
46(4) . . .
38.9(33) . . .
37.5(32) . . .
44(4) . . .
32.2(33) . . .
38(4) . . .
37.4(33) . . .
39.0(33) . . .
41.0(35) . . .
35.4(34) . . .
34.8(30) . . .
37.9(32) . . .
32.5(30) . . .
32.5(31) . . .
36.3(34) . . .
32.5(31) . . .
35.7(31) . . .
41.0(33) . . .
35.7(35) . . .
27.3(29) . . .
29.3(28) . . .
29.1(28) . . .
31.4(29) . . .
30.3(31) . . .
39(4) . . .
42.4(34) . . .
32.4(30) . . .
41.9(34) . . .
41(4) . . .
42(4) . . .
28.7(29) . . .
36.6(31) . . .
30.1(29) . . .
40(4) . . .
34.3(30) . . .
36.9(32) . . .
37.0(32) . . .
28.1(27) . . .
32.5(30) . . .
34.1(30) . . .
36.4(31) . . .
41.1(33) . . .
31.7(30) . . .
37.7(35) . . .
43(4) . . .
29.6(31) . . .
31.7(29) . . .
32.9(33) . . .
37.4(34) . . .
43(4) . . .
30.6(29) . . .
31.3(29) . . .
26.7(28) . . .
33.3(33) . . .
32.5(32) . . .
41.1(34) . . .
34.7(31) . . .
36.4(31) . . .
36.8(32) . . .
34.9(30) . . .
41.2(33) . . .
39.3(33) . . .
39.4(34) . . .
43(4) . . .
37.8(33) . . .
38.4(32) . . .
41.9(35) . . .
37.0(32) . . .
42(4) . . .
37.8(33) . . .
30.3(29) . . .
38.0(33) . . .
37.6(32) . . .
35.0(33) . . .
35.8(33) . . .
32.9(30) . . .
33.3(32) . . .
31.7(31) . . .
40.8(35) . . .
34.4(31) . . .
34.6(31) . . .
43(4) . . .
30.3(29) . . .
39.9(34) . . .
39.3(33) . . .
43.0(34) . . .
35.0(31) . . .
35.9(32) . . .
39.8(34) . . .
44.2(35) . . .
43.0(34) . . .
34.2(31) . . .
35.6(33) . . .
29.9(29) . . .
44.4(35) . . .
46(4) . . .
46(4) . . .
46(4) . . .
29.3(29) . . .
41.9(35) . . .
45(4) . . .
40.7(34) . . .
41(4) . . .
33.4(35) . . .
31.2(30) . . .
35.6(31) . . .
37.7(34) . . .
39.0(34) . . .
40.4(35) . . .
41.2(34) . . .
40.5(33) . . .
32.6(31) . . .
42(4) . . .
40.5(34) . . .
40.5(33) . . .
35.7(31) . . .
33.0(30) . . .
42(4) . . .
40.2(35) . . .
35.5(31) . . .
39.8(33) . . .
40.8(34) . . .
37.7(32) . . .
43.8(35) . . .
45.1(34) . . .
45(4) . . .
32.7(29) . . .
31.6(29) . . .
38.2(34) . . .
36.9(31) . . .
42(4) . . .
35.1(31) . . .
41(4) . . .
33.5(31) . . .
39.7(33) . . .
43(4) . . .
35.8(35) . . .
36.3(34) . . .
41.1(34) . . .
40.1(33) . . .
42.7(35) . . .
35.9(33) . . .
37.4(34) . . .
34.6(32) . . .
45(4) . . .
33.5(32) . . .
38(4) . . .
39.2(35) . . .
36.1(32) . . .
41.1(34) . . .
32.5(32) . . .
28.6(31) . . .
35.3(32) . . .
36.7(32) . . .
44(4) . . .
37.7(33) . . .
35.2(33) . . .
34.0(30) . . .
36.1(32) . . .
37.5(32) . . .
32.3(30) . . .
32.3(30) . . .
32.1(29) . . .
41.2(34) . . .
38.9(32) . . .
31.6(29) . . .
41(4) . . .
32.3(31) . . .
34.0(30) . . .
37.7(33) . . .
42.1(34) . . .
36.7(32) . . .
29.0(29) . . .
37.4(32) . . .
35.8(33) . . .
34.3(31) . . .
44(4) . . .
38.5(33) . . .
36.5(31) . . .
36.2(34) . . .
34.5(32) . . .
39(4) . . .
30.0(29) . . .
35.9(31) . . .
38.2(33) . . .
34.1(31) . . .
31.9(30) . . .
29.8(28) . . .
29.9(29) . . .
33.7(32) . . .
38.7(34) . . .
40.8(34) . . .
40.2(34) . . .
27.8(28) . . .
34.5(33) . . .
43(4) . . .
34.2(31) . . .
37.1(31) . . .
51(4) . . .
42.4(34) . . .
35.1(34) . . .
34.7(33) . . .
24.1(25) . . .
33.6(31) . . .
29.6(29) . . .
32.6(32) . . .
36.1(33) . . .
35.6(31) . . .
43(4) . . .
33.2(32) . . .
40(4) . . .
36.1(32) . . .
36.0(31) . . .
37.8(32) . . .
43.1(35) . . .
42(4) . . .
38.6(33) . . .
34.0(31) . . .
38.5(33) . . .
39.4(34) . . .
41(4) . . .
32.8(31) . . .
25.2(27) . . .
34.3(30) . . .
42(4) . . .
42(4) . . .
40.1(34) . . .
29.0(29) . . .
32.5(31) . . .
37(4) . . .
26.1(28) . . .
33.0(31) . . .
31.5(30) . . .
41.3(35) . . .
37.4(34) . . .
36.0(32) . . .
37.0(33) . . .
46(4) . . .
39.3(34) . . .
38.7(33) . . .
32.3(29) . . .
42.0(34) . . .
43.2(35) . . .
38.5(35) . . .
34.3(33) . . .
34.6(35) . . .
33.4(30) . . .
36.8(32) . . .
35.9(31) . . .
35.8(33) . . .
29.1(29) . . .
38.6(33) . . .
33.4(31) . . .
33.3(31) . . .
39(4) . . .
33.0(30) . . .
32.2(30) . . .
31.3(29) . . .
33.3(32) . . .
37.3(34) . . .
35.5(31) . . .
29.4(28) . . .
31.9(29) . . .
40.1(33) . . .
42(4) . . .
30.5(30) . . .
35.8(31) . . .
41(4) . . .
35.7(32) . . .
31.8(31) . . .
32.3(31) . . .
40.1(32) . . .
35.9(33) . . .
32.1(30) . . .
38.0(33) . . .
30.9(31) . . .
28.5(28) . . .
34.3(31) . . .
34.5(31) . . .
30.7(30) . . .
36.5(35) . . .
38.4(32) . . .
36.4(32) . . .
32.2(31) . . .
36.0(33) . . .
37.9(33) . . .
33.9(30) . . .
38.1(32) . . .
32.1(33) . . .
31.5(31) . . .
38.9(34) . . .
34.5(30) . . .
35.8(33) . . .
28.0(28) . . .
39(4) . . .
37.0(32) . . .
39.1(33) . . .
37.3(33) . . .
40(4) . . .
43(4) . . .
30.9(29) . . .
40.6(34) . . .
32.9(31) . . .
35.5(32) . . .
39.9(32) . . .
37.8(33) . . .
33.8(31) . . .
41(4) . . .
40(4) . . .
34.4(33) . . .
32.3(29) . . .
35.5(31) . . .
33.5(31) . . .
32.5(33) . . .
33.2(31) . . .
24.4(26) . . .
32.0(31) . . .
37.9(32) . . .
48(4) . . .
31.9(31) . . .
32.2(30) . . .
36.4(31) . . .
36.8(32) . . .
28.1(28) . . .
32.0(29) . . .
30.2(29) . . .
35.5(31) . . .
41(4) . . .
31.0(30) . . .
33.0(32) . . .
36.6(32) . . .
41(4) . . .
30.5(29) . . .
36.1(33) . . .
40.6(34) . . .
40.7(33) . . .
37.1(34) . . .
35.6(32) . . .
29.7(28) . . .
39.0(33) . . .
31.3(29) . . .
42(4) . . .
42(4) . . .
32.3(30) . . .
35.5(33) . . .
34.0(30) . . .
37.9(34) . . .
35.2(33) . . .
39.8(34) . . .
43.9(34) . . .
40.8(33) . . .
37.3(31) . . .
39.3(35) . . .
41.6(35) . . .
29.9(29) . . .
34.9(32) . . .
38.8(34) . . .
33.3(33) . . .
29.1(28) . . .
31.4(29) . . .
29.5(29) . . .
32.3(30) . . .
33.7(33) . . .
32.2(30) . . .
32.5(30) . . .
35.9(32) . . .
38.1(34) . . .
43(4) . . .
42(4) . . .
36.4(31) . . .
38.4(33) . . .
32.5(31) . . .
33.1(32) . . .
43(4) . . .
34.5(31) . . .
37.4(33) . . .
34.0(33) . . .
33.3(32) . . .
32.5(30) . . .
41.2(34) . . .
33.2(31) . . .
36.8(35) . . .
31.5(32) . . .
30.7(29) . . .
37.3(31) . . .
31.5(32) . . .
36(4) . . .
30.7(29) . . .
29.7(28) . . .
34.3(31) . . .
31.5(31) . . .
33.2(32) . . .
37.5(35) . . .
35.4(31) . . .
34.4(31) . . .
41.7(35) . . .
39.2(33) . . .
43.3(35) . . .
39.5(33) . . .
38.9(32) . . .
45(4) . . .
35.7(32) . . .
32.7(32) . . .
35.8(32) . . .
34.3(30) . . .
37.3(34) . . .
33.8(31) . . .
38.3(34) . . .
38.5(32) . . .
32.8(30) . . .
41.6(35) . . .
34.8(31) . . .
32.3(30) . . .
48(4) . . .
32.5(30) . . .
41.8(33) . . .
34.4(31) . . .
38.4(33) . . .
42.4(34) . . .
35.6(31) . . .
39.9(35) . . .
38.6(33) . . .
30.2(29) . . .
47(4) . . .
38.2(33) . . .
34.7(31) . . .
38.8(34) . . .
36.2(32) . . .
29.2(29) . . .
36.7(34) . . .
38.2(32) . . .
33.2(30) . . .
34.8(32) . . .
37.2(32) . . .
42.5(34) . . .
40.6(35) . . .
34.7(34) . . .
24.9(27) . . .
34.2(31) . . .
32.1(31) . . .
30.2(32) . . .
36.4(35) . . .
25.4(26) . . .
32.3(30) . . .
35.3(31) . . .
44(4) . . .
33.2(31) . . .
27.1(28) . . .
35.9(31) . . .
43(4) . . .
39.3(33) . . .
41.4(34) . . .
28.4(28) . . .
29.0(28) . . .
30.8(30) . . .
32.8(33) . . .
36.0(33) . . .
36.3(32) . . .
33.7(30) . . .
35.6(32) . . .
36(4) . . .
35.6(32) . . .
35.7(31) . . .
25.7(27) . . .
35.4(31) . . .
33.0(31) . . .
36(4) . . .
37.6(31) . . .
31.2(30) . . .
36.4(33) . . .
33.0(31) . . .
38.7(33) . . .
36.5(32) . . .
37.3(33) . . .
42(4) . . .
32.2(30) . . .
37.4(32) . . .
34.0(31) . . .
31.0(32) . . .
30.0(32) . . .
35.9(33) . . .
39.2(34) . . .
29.1(29) . . .
31.1(31) . . .
35.1(33) . . .
45(4) . . .
46(4) . . .
36.7(32) . . .
43(4) . . .
32.3(30) . . .
37(4) . . .
36.3(32) . . .
32.5(29) . . .
32.5(33) . . .
32.1(31) . . .
25.9(28) . . .
32.0(30) . . .
30.0(29) . . .
37.7(33) . . .
39.2(33) . . .
48(4) . . .
32.8(32) . . .
30.5(29) . . .
39.5(34) . . .
39(4) . . .
40.3(34) . . .
37.0(32) . . .
41.1(33) . . .
39(4) . . .
30.6(29) . . .
32.2(32) . . .
37.6(32) . . .
37.1(32) . . .
35.4(33) . . .
32.7(32) . . .
38.6(33) . . .
35.7(31) . . .
40.1(33) . . .
47(4) . . .
38.0(33) . . .
34.9(33) . . .
27.7(28) . . .
34.6(31) . . .
38.4(33) . . .
32.5(30) . . .
37.5(32) . . .
31.5(29) . . .
28.2(30) . . .
32.2(31) . . .
30.2(28) . . .
38.8(34) . . .
36.6(31) . . .
40.1(33) . . .
30.4(28) . . .
36.7(33) . . .
37.7(35) . . .
40.1(34) . . .
43(4) . . .
36.5(34) . . .
35.1(32) . . .
37.6(32) . . .
31.6(30) . . .
49(4) . . .
36.9(32) . . .
41.6(35) . . .
34.4(31) . . .
29.1(29) . . .
27.1(27) . . .
30.2(30) . . .
33.6(32) . . .
35.2(32) . . .
38.4(32) . . .
36.7(32) . . .
32.9(33) . . .
34.7(33) . . .
39.5(33) . . .
41.0(33) . . .
49(4) . . .
36.0(31) . . .
37.1(32) . . .
34.4(30) . . .
39.9(33) . . .
34.3(33) . . .
32.0(31) . . .
39.2(33) . . .
31.0(29) . . .
33.7(30) . . .
33.2(31) . . .
34.6(34) . . .
33.8(31) . . .
41.5(33) . . .
39.1(32) . . .
36.8(32) . . .
30.9(29) . . .
30.7(30) . . .
35.5(31) . . .
37.3(34) . . .
31.4(30) . . .
35.0(32) . . .
34.2(31) . . .
32.5(30) . . .
37.2(33) . . .
34.3(33) . . .
31.5(30) . . .
33.4(30) . . .
33.3(30) . . .
36(4) . . .
25.9(26) . . .
32.1(30) . . .
37.4(32) . . .
42.1(33) . . .
36.9(34) . . .
29.1(31) . . .
31.8(30) . . .
43.9(35) . . .
40.2(34) . . .
36.4(32) . . .
36.5(34) . . .
32.3(31) . . .
34.7(31) . . .
35.8(31) . . .
27.0(27) . . .
31.2(33) . . .
26.3(27) . . .
42.1(34) . . .
36.6(32) . . .
33.0(32) . . .
33.3(32) . . .
40.1(33) . . .
35.0(32) . . .
31.8(30) . . .
32.8(32) . . .
44(4) . . .
42.8(35) . . .
40.0(33) . . .
44.8(34) . . .
35.4(33) . . .
32.6(31) . . .
29.0(28) . . .
38.3(32) . . .
32.4(30) . . .
37.5(33) . . .
36.7(35) . . .
37.7(33) . . .
34.0(31) . . .
39.2(33) . . .
31.8(30) . . .
38.0(34) . . .
39.7(33) . . .
37.8(32) . . .
38.4(32) . . .
36.7(31) . . .
35.2(32) . . .
29.7(28) . . .
46(4) . . .
32.3(30) . . .
31.4(29) . . .
37.7(32) . . .
48(4) . . .
40.8(33) . . .
36.0(32) . . .
36.6(35) . . .
27.8(28) . . .
34.8(32) . . .
35.1(30) . . .
38.3(34) . . .
38.5(34) . . .
41(4) . . .
47(4) . . .
42.3(34) . . .
34.7(32) . . .
37.3(35) . . .
38.0(34) . . .
29.0(28) . . .
37.5(32) . . .
43(4) . . .
29.4(29) . . .
38(4) . . .
35.5(31) . . .
34.2(31) . . .
28.7(29) . . .
30.8(31) . . .
31.1(32) . . .
37.8(32) . . .
35.9(31) . . .
34.3(32) . . .
35.6(33) . . .
40.6(34) . . .
31.1(29) . . .
40.5(35) . . .
39.8(34) . . .
41(4) . . .
34.3(31) . . .
35.5(31) . . .
29.2(28) . . .
44(4) . . .
41(4) . . .
35.5(33) . . .
33.2(30) . . .
30.0(29) . . .
35.2(33) . . .
31.8(30) . . .
38.0(33) . . .
35.2(31) . . .
36.7(33) . . .
34.7(32) . . .
29.9(29) . . .
34.5(32) . . .
29.8(28) . . .
30.0(29) . . .
27.0(29) . . .
34.3(30) . . .
40.1(33) . . .
35.2(30) . . .
32.0(31) . . .
34.3(34) . . .
37.7(33) . . .
34.2(32) . . .
34.7(30) . . .
34.1(32) . . .
39(4) . . .
35.4(32) . . .
33.4(30) . . .
42.3(34) . . .
34.0(30) . . .
34.9(31) . . .
39.8(33) . . .
34.3(30) . . .
36.4(32) . . .
29.5(28) . . .
36.4(35) . . .
31.7(30) . . .
40.3(34) . . .
45.1(35) . . .
42(4) . . .
38(4) . . .
27.2(28) . . .
34.7(31) . . .
37.0(32) . . .
37.6(32) . . .
39.2(34) . . .
35.8(31) . . .
30.9(30) . . .
34.3(30) . . .
36.8(34) . . .
41.1(35) . . .
31.5(30) . . .
39.0(33) . . .
44(4) . . .
28.7(28) . . .
39(4) . . .
32.5(31) . . .
35.9(31) . . .
34.8(33) . . .
30.0(30) . . .
40(4) . . .
36.0(31) . . .
39.9(32) . . .
40.2(35) . . .
34.0(31) . . .
38.3(34) . . .
34.6(31) . . .
35.7(32) . . .
32.9(30) . . .
30.5(31) . . .
27.8(29) . . .
29.0(28) . . .
30.0(28) . . .
39.7(34) . . .
41(4) . . .
33.3(31) . . .
36.6(32) . . .
33.7(31) . . .
33.7(34) . . .
35.3(34) . . .
33.0(30) . . .
36.1(31) . . .
29.8(28) . . .
45(4) . . .
38.1(35) . . .
27.1(28) . . .
33.0(31) . . .
34.4(31) . . .
37(4) . . .
41(4) . . .
34.9(33) . . .
35.9(31) . . .
37.8(31) . . .
35.2(33) . . .
29.3(30) . . .
34.3(33) . . .
29.9(29) . . .
31.6(30) . . .
40(4) . . .
34.6(32) . . .
29.1(28) . . .
35.6(31) . . .
29.5(28) . . .
39.7(35) . . .
31.0(31) . . .
35.0(32) . . .
34.1(31) . . .
42.5(35) . . .
43(4) . . .
39.6(34) . . .
33.6(31) . . .
30.2(29) . . .
33.3(31) . . .
33.1(30) . . .
42(4) . . .
33.5(31) . . .
34.5(30) . . .
29.9(31) . . .
36(4) . . .
36.5(33) . . .
39.4(32) . . .
39.8(33) . . .
34.5(31) . . .
28.4(28) . . .
38.0(34) . . .
36.0(32) . . .
28.1(28) . . .
29.3(30) . . .
30.3(31) . . .
31.5(31) . . .
32.7(30) . . .
38.8(33) . . .
30.4(28) . . .
26.7(27) . . .
29.6(29) . . .
31.7(30) . . .
29.2(29) . . .
24.7(28) . . .
35.2(33) . . .
43.0(35) . . .
26.3(27) . . .
32.1(31) . . .
24.4(27) . . .
40(4) . . .
33.9(30) . . .
30.4(29) . . .
35.7(33) . . .
32.0(30) . . .
38.1(33) . . .
41.8(35) . . .
34.6(30) . . .
40.1(34) . . .
34.4(34) . . .
32.2(31) . . .
42.7(34) . . .
28.8(28) . . .
30.3(29) . . .
29.5(29) . . .
31.1(29) . . .
34.4(30) . . .
43.3(34) . . .
40.4(34) . . .
31.5(29) . . .
37.8(35) . . .
42(4) . . .
36.7(31) . . .
39.7(33) . . .
36.5(30) . . .
35.6(32) . . .
30.1(30) . . .
30.5(30) . . .
40.2(35) . . .
34.8(33) . . .
39.8(34) . . .
41.3(33) . . .
34.8(31) . . .
33.2(30) . . .
30.8(30) . . .
37.2(33) . . .
32.4(30) . . .
34.9(31) . . .
34.8(32) . . .
39(4) . . .
28.8(28) . . .
33.8(32) . . .
35.7(31) . . .
46(4) . . .
42(4) . . .
33.8(31) . . .
35.3(31) . . .
31.8(30) . . .
37.6(33) . . .
35.3(31) . . .
30.8(29) . . .
34.6(31) . . .
31.9(31) . . .
34.5(31) . . .
37.9(32) . . .
40.4(33) . . .
34.0(31) . . .
35.4(32) . . .
36.1(32) . . .
38.8(34) . . .
33.4(30) . . .
31.3(29) . . .
44(4) . . .
38.3(34) . . .
37.2(32) . . .
36.2(32) . . .
38.9(32) . . .
35.6(33) . . .
26.9(27) . . .
36.5(33) . . .
27.9(28) . . .
34.3(30) . . .
37.5(34) . . .
33.3(32) . . .
31.8(30) . . .
37.6(32) . . .
30.5(29) . . .
38(4) . . .
29.8(31) . . .
42(4) . . .
35.2(31) . . .
35.0(32) . . .
30.0(30) . . .
29.2(31) . . .
35.1(31) . . .
36.0(32) . . .
37.4(32) . . .
31.1(30) . . .
33.7(31) . . .
34.7(33) . . .
23.4(25) . . .
25.7(29) . . .
31.1(30) . . .
33.5(32) . . .
32.8(33) . . .
28.5(28) . . .
33.7(30) . . .
33.1(30) . . .
30.6(29) . . .
35.4(30) . . .
38.7(32) . . .
39.8(34) . . .
34.8(32) . . .
30.9(29) . . .
40.4(35) . . .
30.4(29) . . .
37.4(32) . . .
34.4(33) . . .
41(4) . . .
36.7(32) . . .
35.0(31) . . .
34.1(31) . . .
35.9(32) . . .
42.9(35) . . .
35.9(31) . . .
37.0(32) . . .
32.5(30) . . .
31.0(30) . . .
28.9(27) . . .
36.5(31) . . .
33.7(31) . . .
39.3(33) . . .
37.3(32) . . .
34.5(31) . . .
32.7(29) . . .
33.0(30) . . .
31.8(30) . . .
35.5(33) . . .
38.9(33) . . .
36.6(31) . . .
35.1(31) . . .
30.8(30) . . .
38(4) . . .
36.7(33) . . .
40.4(33) . . .
28.9(29) . . .
30.6(30) . . .
44(4) . . .
32.7(31) . . .
25.2(26) . . .
39.7(34) . . .
34.4(33) . . .
31.1(31) . . .
40.4(34) . . .
27.1(27) . . .
33.4(30) . . .
40.8(35) . . .
25.4(29) . . .
36.3(33) . . .
44.4(34) . . .
36.8(32) . . .
28.6(29) . . .
41(4) . . .
33.3(31) . . .
30.9(29) . . .
37.0(32) . . .
35.5(34) . . .
38.9(34) . . .
35.9(34) . . .
36.6(31) . . .
32.1(30) . . .
34.8(33) . . .
35(4) . . .
36.6(34) . . .
33.4(30) . . .
34.2(31) . . .
29.5(32) . . .
33.0(33) . . .
37.5(34) . . .
33.7(31) . . .
31.4(29) . . .
34.7(32) . . .
34.3(31) . . .
40.5(33) . . .
36.9(31) . . .
28.1(28) . . .
31.5(30) . . .
30.0(29) . . .
27.6(27) . . .
31.7(30) . . .
34.7(30) . . .
34.0(32) . . .
36.3(33) . . .
30.0(29) . . .
26.4(27) . . .
36(4) . . .
28.2(30) . . .
41.1(35) . . .
38.0(33) . . .
37.3(32) . . .
35.2(32) . . .
33.4(32) . . .
46(4) . . .
32.3(30) . . .
37.2(31) . . .
36.7(31) . . .
31.4(30) . . .
28.6(29) . . .
34.7(31) . . .
31.8(30) . . .
28.7(27) . . .
35.0(33) . . .
29.4(30) . . .
39.2(32) . . .
39.5(33) . . .
33.9(31) . . .
34.7(34) . . .
30.8(31) . . .
31.0(29) . . .
32.9(30) . . .
36.4(32) . . .
34.2(31) . . .
36.8(33) . . .
39.1(33) . . .
39.5(33) . . .
41.1(34) . . .
35.6(33) . . .
32.0(30) . . .
33.7(30) . . .
32.7(30) . . .
32.6(31) . . .
31.4(31) . . .
32.2(30) . . .
32.8(30) . . .
29.8(29) . . .
39.3(35) . . .
32.3(31) . . .
26.2(28) . . .
35.1(31) . . .
30.0(30) . . .
29.1(32) . . .
33.6(32) . . .
35.1(31) . . .
44(4) . . .
39(4) . . .
30.6(30) . . .
31.2(30) . . .
35.2(31) . . .
43.0(34) . . .
25.4(26) . . .
36.9(35) . . .
39.7(34) . . .
36.0(32) . . .
32.8(30) . . .
33.2(31) . . .
38.8(34) . . .
36.9(31) . . .
44.8(34) . . .
32.3(30) . . .
25.9(28) . . .
27.9(28) . . .
34.7(31) . . .
33.5(30) . . .
25.2(27) . . .
40.6(34) . . .
27.5(28) . . .
32.5(33) . . .
34.5(31) . . .
31.2(29) . . .
35.7(33) . . .
33.9(32) . . .
27.5(28) . . .
38.3(33) . . .
38.4(33) . . .
29.3(29) . . .
35.1(33) . . .
36.9(33) . . .
30.3(28) . . .
33.6(32) . . .
35.0(33) . . .
25.7(28) . . .
32.7(32) . . .
35.8(32) . . .
29.9(30) . . .
32.8(30) . . .
24.2(26) . . .
30.8(29) . . .
27.8(28) . . .
30.9(30) . . .
34.3(34) . . .
28.4(30) . . .
40.3(34) . . .
37.4(32) . . .
28.6(28) . . .
31.3(29) . . .
33.5(31) . . .
32.5(30) . . .
30.5(29) . . .
28.6(29) . . .
26.5(27) . . .
37.9(33) . . .
34.4(30) . . .
28.7(28) . . .
39.6(33) . . .
31.7(29) . . .
28.2(28) . . .
24.3(26) . . .
36.8(32) . . .
30.4(31) . . .
35.7(34) . . .
29.3(29) . . .
37.4(34) . . .
33.8(29) . . .
34.6(32) . . .
37.5(34) . . .
34.5(30) . . .
31.9(29) . . .
35.2(31) . . .
26.5(27) . . .
35.1(35) . . .
33.7(32) . . .
41.3(33) . . .
41.3(35) . . .
36.2(33) . . .
33.9(32) . . .
40.1(34) . . .
40.6(33) . . .
34.7(31) . . .
31.9(31) . . .
33.3(31) . . .
33.5(31) . . .
36.1(32) . . .
27.9(28) . . .
33.3(34) . . .
44(4) . . .
32.5(30) . . .
26.3(27) . . .
32.4(30) . . .
27.1(28) . . .
33.2(31) . . .
36.2(32) . . .
35.2(31) . . .
41.1(35) . . .
35.2(33) . . .
40.6(34) . . .
40.4(33) . . .
29.2(28) . . .
41(4) . . .
38.2(35) . . .
35.0(32) . . .
32.3(29) . . .
31.4(30) . . .
32.3(31) . . .
46(4) . . .
33.5(31) . . .
30.9(29) . . .
32.1(30) . . .
38.1(34) . . .
42(4) . . .
31.7(31) . . .
39.7(34) . . .
39.7(32) . . .
34.5(32) . . .
30.9(32) . . .
36.6(34) . . .
33.1(30) . . .
33.6(30) . . .
29.8(30) . . .
34.7(34) . . .
31.9(30) . . .
35.2(31) . . .
29.6(29) . . .
29.2(28) . . .
32.4(32) . . .
38(4) . . .
36.4(31) . . .
37.3(32) . . .
40.6(33) . . .
32.8(32) . . .
33.5(30) . . .
34.3(30) . . .
30.0(30) . . .
27.6(29) . . .
34.3(31) . . .
30.6(29) . . .
35.0(31) . . .
29.5(29) . . .
35.1(32) . . .
40.3(33) . . .
34.6(30) . . .
34.5(31) . . .
40.1(34) . . .
30.5(29) . . .
34.4(31) . . .
32.6(30) . . .
39.6(33) . . .
36.1(32) . . .
39(4) . . .
37.4(33) . . .
38.7(32) . . .
30.1(28) . . .
29.7(28) . . .
40(4) . . .
34.1(30) . . .
40.2(33) . . .
30.2(29) . . .
34.4(32) . . .
34.0(32) . . .
29.2(29) . . .
27.2(27) . . .
29.9(29) . . .
40.9(35) . . .
38.0(34) . . .
34.1(31) . . .
38.3(32) . . .
34.6(31) . . .
37.9(34) . . .
25.2(28) . . .
32.5(34) . . .
26.7(27) . . .
35.5(32) . . .
21.6(25) . . .
26.5(27) . . .
32.3(30) . . .
37.5(32) . . .
36.2(33) . . .
33.6(31) . . .
37.5(32) . . .
30.1(28) . . .
29.2(29) . . .
39.1(34) . . .
36.0(33) . . .
39(4) . . .
34.6(32) . . .
29.4(28) . . .
24.5(27) . . .
29.6(32) . . .
37.2(33) . . .
31.3(29) . . .
35.1(31) . . .
35.1(32) . . .
26.9(27) . . .
32.8(32) . . .
27.5(29) . . .
32.0(30) . . .
35.2(32) . . .
37.1(34) . . .
37.9(32) . . .
26.7(27) . . .
35.4(31) . . .
40.6(35) . . .
32.4(31) . . .
35.3(32) . . .
45(4) . . .
38.7(32) . . .
38.6(34) . . .
34.4(33) . . .
32.2(32) . . .
26.9(28) . . .
45(4) . . .
33.0(31) . . .
33.6(32) . . .
39(4) . . .
35.9(31) . . .
35.5(31) . . .
30.9(28) . . .
32.6(33) . . .
37.3(35) . . .
44.2(35) . . .
33.7(31) . . .
28.4(27) . . .
36.9(32) . . .
39.7(33) . . .
34.2(31) . . .
35.5(31) . . .
27.4(28) . . .
32.6(31) . . .
25.8(27) . . .
29.9(29) . . .
37.7(33) . . .
32.5(31) . . .
34.2(32) . . .
37.7(32) . . .
35.0(31) . . .
36.3(33) . . .
35.8(33) . . .
35.1(32) . . .
30.7(29) . . .
32.3(30) . . .
36.3(32) . . .
31.7(32) . . .
34.6(33) . . .
35.6(31) . . .
37.0(32) . . .
34.3(33) . . .
42(4) . . .
38.1(32) . . .
37.7(32) . . .
32.0(31) . . .
27.0(27) . . .
37(4) . . .
27.6(29) . . .
32.8(31) . . .
33.3(30) . . .
27.1(26) . . .
36.1(34) . . .
34.8(32) . . .
37.8(32) . . .
28.8(28) . . .
35.4(33) . . .
35.7(33) . . .
29.8(32) . . .
28.2(28) . . .
30.4(28) . . .
32.2(31) . . .
33.5(32) . . .
35.7(33) . . .
22.8(25) . . .
26.3(27) . . .
34.3(32) . . .
39.7(34) . . .
33.9(30) . . .
35.8(31) . . .
39.2(33) . . .
43(4) . . .
36.5(32) . . .
36.2(31) . . .
33.9(30) . . .
31.1(31) . . .
28.8(28) . . .
36.6(33) . . .
29.1(28) . . .
30.8(29) . . .
34.1(31) . . .
34.5(31) . . .
33.1(30) . . .
27.6(27) . . .
29.3(29) . . .
40.4(34) . . .
35.2(32) . . .
32.8(32) . . .
33.6(32) . . .
30.9(29) . . .
26.8(28) . . .
38.0(35) . . .
36.9(33) . . .
36.3(33) . . .
36.7(32) . . .
25.5(28) . . .
28.5(32) . . .
33.2(34) . . .
33.9(30) . . .
38.4(32) . . .
35.4(30) . . .
44(4) . . .
34.5(32) . . .
34.2(31) . . .
33.2(31) . . .
40(4) . . .
26.3(30) . . .
37.6(33) . . .
38.3(33) . . .
28.9(30) . . .
31.4(32) . . .
32.9(31) . . .
37.8(33) . . .
41.1(34) . . .
41.8(34) . . .
35.6(32) . . .
35.7(34) . . .
29.2(28) . . .
33.7(30) . . .
33.5(32) . . .
36.7(35) . . .
30.8(32) . . .
32.5(32) . . .
31.7(29) . . .
42.2(35) . . .
36.7(34) . . .
36.8(34) . . .
34.3(31) . . .
34.5(31) . . .
32.7(31) . . .
34.1(32) . . .
26.1(27) . . .
33.2(31) . . .
32.6(30) . . .
26.4(26) . . .
27.8(28) . . .
31.7(31) . . .
42.2(34) . . .
29.8(29) . . .
32.6(31) . . .
41(4) . . .
33.0(30) . . .
28.4(28) . . .
36.6(31) . . .
29.8(28) . . .
31.2(31) . . .
43(4) . . .
42.9(34) . . .
35.7(31) . . .
39.4(34) . . .
36.3(33) . . .
38.6(33) . . .
40.1(33) . . .
34.4(30) . . .
34.9(32) . . .
28.6(30) . . .
24.8(28) . . .
31.4(29) . . .
31.2(29) . . .
37.6(33) . . .
27.7(28) . . .
29.7(29) . . .
30.4(29) . . .
34.7(31) . . .
34.4(32) . . .
42.5(35) . . .
45(4) . . .
28.6(28) . . .
40.3(34) . . .
27.6(29) . . .
31.5(30) . . .
38.3(33) . . .
29.2(28) . . .
27.7(29) . . .
39(4) . . .
43(4) . . .
32.9(30) . . .
31.5(29) . . .
30.2(30) . . .
37.6(33) . . .
39.5(34) . . .
35.4(31) . . .
30.1(29) . . .
31.1(29) . . .
26.3(26) . . .
35.6(31) . . .
45(4) . . .
31.0(29) . . .
37.6(33) . . .
28.7(28) . . .
26.5(27) . . .
36.4(32) . . .
35.2(30) . . .
34.7(34) . . .
34.9(34) . . .
42(4) . . .
35.0(31) . . .
31.0(32) . . .
23.3(25) . . .
24.0(26) . . .
30.8(29) . . .
31.2(29) . . .
30.7(29) . . .
24.9(26) . . .
32.9(32) . . .
30.1(29) . . .
31.9(30) . . .
26.8(29) . . .
29.8(31) . . .
34.9(34) . . .
43.2(35) . . .
29.2(28) . . .
24.7(28) . . .
25.5(27) . . .
27.9(28) . . .
30.3(29) . . .
35.3(31) . . .
38.8(32) . . .
34.2(32) . . .
34.3(31) . . .
28.5(29) . . .
39.0(33) . . .
31.1(29) . . .
34.0(32) . . .
36.1(34) . . .
30.9(29) . . .
32.9(30) . . .
23.4(25) . . .
28.0(28) . . .
37.1(34) . . .
41.1(34) . . .
33.7(30) . . .
31.9(29) . . .
36.5(34) . . .
28.0(29) . . .
29.4(28) . . .
35.9(31) . . .
34.9(31) . . .
32.5(32) . . .
34.7(32) . . .
38.6(33) . . .
30.9(29) . . .
35.5(33) . . .
29.5(30) . . .
31.4(31) . . .
33.5(29) . . .
37.3(32) . . .
41.1(34) . . .
32.8(30) . . .
32.7(33) . . .
42(4) . . .
39.1(32) . . .
35.2(32) . . .
39.5(35) . . .
39(4) . . .
36.0(31) . . .
37.5(31) . . .
35.3(30) . . .
34.0(31) . . .
38.7(33) . . .
30.0(29) . . .
32.8(30) . . .
30.3(29) . . .
36.7(33) . . .
30.9(31) . . .
31.0(29) . . .
33.7(30) . . .
34.7(31) . . .
31.7(29) . . .
32.0(31) . . .
23.6(26) . . .
27.0(28) . . .
30.1(28) . . .
37.9(34) . . .
31.5(29) . . .
36.9(31) . . .
33.5(31) . . .
27.9(28) . . .
33.6(31) . . .
29.5(28) . . .
34.2(30) . . .
35.2(31) . . .
34.6(33) . . .
36.3(32) . . .
38.3(32) . . .
27.2(27) . . .
36.6(32) . . .
34.5(31) . . .
31.4(29) . . .
32.9(30) . . .
27.3(27) . . .
36.6(32) . . .
42(4) . . .
35.5(35) . . .
29.8(29) . . .
28.7(28) . . .
32.0(30) . . .
36.8(34) . . .
32.2(31) . . .
28.2(27) . . .
40.0(33) . . .
32.5(31) . . .
27.8(29) . . .
36.3(32) . . .
36.9(32) . . .
31.3(30) . . .
39.6(34) . . .
26.9(26) . . .
36.5(32) . . .
33.2(30) . . .
29.8(29) . . .
46(4) . . .
34.1(31) . . .
34.6(31) . . .
32.2(30) . . .
30.1(31) . . .
38(4) . . .
30.5(31) . . .
33.1(31) . . .
33.4(31) . . .
33.8(30) . . .
35.5(32) . . .
28.2(29) . . .
28.5(28) . . .
36.8(31) . . .
33.1(30) . . .
34.7(33) . . .
30.0(29) . . .
37.8(33) . . .
32.7(30) . . .
39(4) . . .
33.0(31) . . .
39.5(35) . . .
31.0(29) . . .
36.0(32) . . .
40.9(34) . . .
32.7(30) . . .
29.1(28) . . .
33.1(31) . . .
33.1(30) . . .
35.5(33) . . .
34.0(34) . . .
33.1(31) . . .
40.7(33) . . .
34.4(30) . . .
33.8(31) . . .
34.1(33) . . .
31.2(30) . . .
29.9(29) . . .
28.1(29) . . .
31.0(30) . . .
28.4(30) . . .
24.9(29) . . .
31.3(29) . . .
32.9(30) . . .
34.7(33) . . .
32.1(32) . . .
28.0(29) . . .
29.6(29) . . .
37.7(33) . . .
36.3(33) . . .
31.4(31) . . .
40.5(35) . . .
48(4) . . .
26.5(27) . . .
30.8(29) . . .
37.6(33) . . .
35.5(32) . . .
42.8(34) . . .
34.7(32) . . .
28.6(28) . . .
30.8(30) . . .
38.0(33) . . .
32.9(30) . . .
28.3(28) . . .
30.3(30) . . .
28.2(31) . . .
32.1(30) . . .
29.4(29) . . .
27.8(30) . . .
35.7(33) . . .
34.1(32) . . .
33.0(32) . . .
27.4(27) . . .
27.2(28) . . .
28.2(30) . . .
31.0(31) . . .
24.5(27) . . .
24.1(26) . . .
20.8(24) . . .
30.9(31) . . .
27.5(29) . . .
27.3(28) . . .
34.6(31) . . .
35.2(31) . . .
31.8(30) . . .
32.0(29) . . .
40.0(33) . . .
35.0(31) . . .
35.5(33) . . .
25.4(27) . . .
33.6(31) . . .
40.8(34) . . .
40.4(33) . . .
32.9(32) . . .
38(4) . . .
33.4(31) . . .
35.5(31) . . .
37.3(32) . . .
38.1(32) . . .
29.4(30) . . .
30.4(29) . . .
37.3(32) . . .
37.4(32) . . .
29.1(28) . . .
33.7(34) . . .
24.3(26) . . .
37.3(32) . . .
30.8(29) . . .
28.7(28) . . .
23.5(26) . . .
29.6(29) . . .
33.8(30) . . .
31.9(30) . . .
37.6(31) . . .
40.5(34) . . .
31.0(30) . . .
31.0(28) . . .
38.1(34) . . .
38.7(35) . . .
45(4) . . .
29.8(28) . . .
32.2(30) . . .
31.2(30) . . .
38(4) . . .
40(4) . . .
35.1(31) . . .
35.8(32) . . .
26.6(28) . . .
26.9(29) . . .
34.4(33) . . .
31.0(29) . . .
33.4(31) . . .
29.2(29) . . .
41.5(35) . . .
36.5(31) . . .
33.3(31) . . .
38.9(32) . . .
36.5(34) . . .
31.8(32) . . .
31.8(31) . . .
33.2(31) . . .
31.6(29) . . .
36.8(33) . . .
32.1(31) . . .
30.5(29) . . .
32.9(29) . . .
39.2(34) . . .
36.6(33) . . .
28.4(30) . . .
31.0(29) . . .
34.8(31) . . .
32.9(30) . . .
35.0(31) . . .
34.7(32) . . .
31.5(30) . . .
36.0(31) . . .
30.6(29) . . .
36.7(35) . . .
30.1(33) . . .
24.5(27) . . .
31.1(29) . . .
35.3(32) . . .
31.9(32) . . .
29.1(29) . . .
31.9(31) . . .
33.8(31) . . .
36.9(32) . . .
35.2(31) . . .
30.7(31) . . .
29.4(29) . . .
34.3(30) . . .
34.4(32) . . .
41(4) . . .
29.8(28) . . .
34.4(31) . . .
37.7(32) . . .
33.0(31) . . .
36.9(31) . . .
33.6(31) . . .
31.0(28) . . .
33.8(30) . . .
36.8(33) . . .
25.1(26) . . .
37(4) . . .
27.4(27) . . .
36.6(32) . . .
32.3(31) . . .
27.6(31) . . .
42(4) . . .
42.5(35) . . .
30.2(28) . . .
33.1(30) . . .
39(4) . . .
28.4(29) . . .
33.5(30) . . .
41.9(34) . . .
41.3(35) . . .
30.0(29) . . .
24.7(26) . . .
31.1(29) . . .
29.4(28) . . .
32.8(30) . . .
35.8(33) . . .
38.5(33) . . .
28.9(28) . . .
28.2(27) . . .
32.4(30) . . .
37.9(33) . . .
40.6(34) . . .
40.5(34) . . .
26.8(28) . . .
23.6(25) . . .
41(4) . . .
33.9(30) . . .
41.3(33) . . .
35.1(31) . . .
34.2(32) . . .
37.6(34) . . .
33.5(31) . . .
32.3(29) . . .
32.4(31) . . .
29.4(31) . . .
32.6(31) . . .
31.6(29) . . .
32.7(30) . . .
34.8(33) . . .
37(4) . . .
32.2(32) . . .
35.7(31) . . .
35.2(31) . . .
30.1(28) . . .
34.9(33) . . .
28.5(28) . . .
31.2(30) . . .
34.8(31) . . .
39.0(34) . . .
29.0(29) . . .
36.3(33) . . .
30.7(30) . . .
29.9(29) . . .
32.7(31) . . .
27.4(29) . . .
31.6(31) . . .
31.8(30) . . .
36.4(32) . . .
38.7(35) . . .
34.7(34) . . .
33.8(30) . . .
34.4(30) . . .
32.7(30) . . .
39.1(34) . . .
35.2(34) . . .
32.2(30) . . .
41.8(34) . . .
31.1(30) . . .
27.3(31) . . .
29.5(30) . . .
35.8(32) . . .
40.1(33) . . .
34.1(31) . . .
39.0(35) . . .
30.8(30) . . .
29.8(28) . . .
40.1(33) . . .
30.5(29) . . .
43(4) . . .
31.6(29) . . .
34.9(31) . . .
33.3(30) . . .
30.2(29) . . .
29.2(30) . . .
27.5(29) . . .
35.9(33) . . .
33.2(29) . . .
30.8(31) . . .
29.6(29) . . .
39.0(35) . . .
36.2(32) . . .
38.7(32) . . .
32.6(32) . . .
36.1(33) . . .
31.8(30) . . .
28.9(28) . . .
34.7(31) . . .
41.6(34) . . .
26.1(27) . . .
28.4(29) . . .
30.0(29) . . .
31.9(30) . . .
36.0(32) . . .
33.0(32) . . .
28.2(28) . . .
37.5(32) . . .
33.5(30) . . .
36.3(32) . . .
35.9(32) . . .
39(4) . . .
29.8(29) . . .
33.1(30) . . .
33.0(30) . . .
28.2(29) . . .
30.6(32) . . .
31.5(30) . . .
40.6(33) . . .
32.3(29) . . .
34.2(30) . . .
31.5(31) . . .
39.4(33) . . .
33.5(30) . . .
39.1(34) . . .
27.0(27) . . .
29.3(28) . . .
39.3(33) . . .
29.3(29) . . .
23.3(25) . . .
27.6(27) . . .
37.9(33) . . .
38.4(32) . . .
38(4) . . .
38.3(35) . . .
39.0(33) . . .
32.1(29) . . .
35.1(31) . . .
33.7(30) . . .
32.5(30) . . .
32.7(30) . . .
26.7(28) . . .
40.5(33) . . .
34.1(31) . . .
40.5(34) . . .
35.4(31) . . .
27.5(28) . . .
24.7(26) . . .
34.4(34) . . .
32.6(32) . . .
32.4(31) . . .
28.8(28) . . .
34.1(31) . . .
30.8(30) . . .
34.9(32) . . .
28.2(27) . . .
37.3(33) . . .
34.9(31) . . .
37.9(34) . . .
32.7(31) . . .
36.5(32) . . .
33.9(31) . . .
27.6(27) . . .
24.6(27) . . .
31.8(33) . . .
31.4(32) . . .
35.0(31) . . .
23.1(25) . . .
31.5(29) . . .
38(4) . . .
30.9(30) . . .
31.3(29) . . .
35.2(33) . . .
25.4(25) . . .
30.0(28) . . .
36.2(33) . . .
36.7(32) . . .
25.9(26) . . .
32.6(31) . . .
32.9(31) . . .
32.1(29) . . .
23.5(26) . . .
32.7(30) . . .
41(4) . . .
32.1(32) . . .
28.5(28) . . .
43.9(35) . . .
24.2(26) . . .
29.6(30) . . .
32.4(31) . . .
38.6(33) . . .
18.1(22) . . .
30.9(31) . . .
29.3(29) . . .
29.9(28) . . .
30.8(29) . . .
31.3(29) . . .
35.4(32) . . .
31.4(33) . . .
28.9(28) . . .
32.5(30) . . .
29.2(29) . . .
22.3(26) . . .
25.8(28) . . .
25.1(26) . . .
38.1(32) . . .
35.9(31) . . .
36.6(31) . . .
31.3(30) . . .
33.8(30) . . .
27.5(27) . . .
35.9(32) . . .
24.1(25) . . .
40(4) . . .
36.7(33) . . .
36.6(32) . . .
29.8(29) . . .
31.5(28) . . .
36.8(33) . . .
28.7(28) . . .
38.8(33) . . .
34.2(30) . . .
36.6(34) . . .
31.1(31) . . .
31.0(31) . . .
33.7(30) . . .
39(4) . . .
29.7(29) . . .
36.4(32) . . .
40.0(34) . . .
46(4) . . .
37.6(32) . . .
28.1(28) . . .
34.9(33) . . .
31.5(31) . . .
33.2(30) . . .
31.7(30) . . .
34.0(33) . . .
45(4) . . .
40.5(33) . . .
31.0(29) . . .
39.3(34) . . .
36.6(32) . . .
35.7(32) . . .
41.2(34) . . .
38.6(32) . . .
39.6(35) . . .
31.8(31) . . .
27.9(27) . . .
29.4(28) . . .
32.4(32) . . .
24.9(25) . . .
41(4) . . .
34.4(32) . . .
31.0(29) . . .
43.1(34) . . .
33.0(32) . . .
29.4(29) . . .
29.1(29) . . .
32.9(30) . . .
35.2(32) . . .
33.0(31) . . .
38.4(34) . . .
35.7(32) . . .
36.2(31) . . .
32.0(29) . . .
33.9(31) . . .
38.0(34) . . .
36.3(32) . . .
32.7(29) . . .
33.3(31) . . .
37(4) . . .
31.7(31) . . .
30.5(34) . . .
32.7(31) . . .
31.8(31) . . .
39.3(34) . . .
36.5(32) . . .
42.6(34) . . .
31.3(30) . . .
37.8(32) . . .
34.7(31) . . .
31.8(31) . . .
27.4(28) . . .
32.2(30) . . .
34.4(31) . . .
33.8(32) . . .
34.0(31) . . .
31.0(29) . . .
27.8(28) . . .
31.0(33) . . .
27.7(28) . . .
34.4(32) . . .
34.6(31) . . .
32.4(30) . . .
33.3(30) . . .
34.0(32) . . .
28.6(28) . . .
34.9(31) . . .
34.1(30) . . .
35.7(33) . . .
25.5(27) . . .
34.6(32) . . .
32.5(29) . . .
38.8(33) . . .
30.3(28) . . .
29.6(28) . . .
36.7(32) . . .
35.4(31) . . .
34.5(31) . . .
32.6(30) . . .
27.0(27) . . .
37.0(33) . . .
41.0(34) . . .
35.7(31) . . .
36.5(34) . . .
31.0(30) . . .
35.6(31) . . .
25.6(26) . . .
19.7(23) . . .
29.2(29) . . .
35.8(33) . . .
32.7(31) . . .
31.7(29) . . .
37.4(32) . . .
37.0(33) . . .
29.0(29) . . .
27.0(27) . . .
29.5(28) . . .
32.3(30) . . .
30.5(29) . . .
34.6(32) . . .
36.1(31) . . .
33.8(30) . . .
27.3(29) . . .
38.2(32) . . .
39.7(33) . . .
45(4) . . .
36.3(32) . . .
34.9(32) . . .
30.5(29) . . .
37.1(33) . . .
37.8(32) . . .
35.7(32) . . .
28.2(28) . . .
38(4) . . .
37.4(34) . . .
35.4(32) . . .
26.9(28) . . .
22.5(25) . . .
28.2(30) . . .
31.8(29) . . .
28.7(28) . . .
33.1(30) . . .
32.7(30) . . .
25.5(27) . . .
38(4) . . .
31.1(29) . . .
31.1(29) . . .
34.5(31) . . .
43(4) . . .
36.2(32) . . .
31.0(29) . . .
36.4(31) . . .
32.1(30) . . .
27.9(28) . . .
35.2(32) . . .
35.1(31) . . .
37.9(33) . . .
35.2(31) . . .
31.8(29) . . .
37.1(33) . . .
33.3(30) . . .
32.4(30) . . .
29.3(29) . . .
35.4(33) . . .
36.4(33) . . .
27.2(28) . . .
37.8(34) . . .
26.5(27) . . .
19.4(24) . . .
34.1(33) . . .
25.9(27) . . .
34.7(32) . . .
37.0(33) . . .
43(4) . . .
32.5(31) . . .
37.9(32) . . .
41(4) . . .
39(4) . . .
32.8(30) . . .
36.1(31) . . .
38.8(32) . . .
42.4(34) . . .
34.3(32) . . .
27.7(28) . . .
32.6(31) . . .
28.7(28) . . .
26.6(27) . . .
40(4) . . .
35.0(31) . . .
33.0(30) . . .
36.0(31) . . .
34.0(31) . . .
34.1(33) . . .
29.8(30) . . .
21.8(24) . . .
39(4) . . .
29.6(29) . . .
35.0(35) . . .
31.4(30) . . .
25.5(28) . . .
34.7(32) . . .
33.1(32) . . .
35.9(35) . . .
39.8(34) . . .
40.9(33) . . .
35.0(31) . . .
34.5(32) . . .
34.4(32) . . .
38.6(32) . . .
33.9(30) . . .
34.0(31) . . .
32.4(32) . . .
29.9(31) . . .
25.2(26) . . .
34.0(31) . . .
40.5(33) . . .
33.9(31) . . .
30.9(29) . . .
35.1(31) . . .
30.1(28) . . .
35.2(32) . . .
35.7(33) . . .
30.6(29) . . .
40.9(35) . . .
25.7(26) . . .
32.6(30) . . .
36.6(34) . . .
34.6(33) . . .
31.5(30) . . .
34.0(31) . . .
31.3(31) . . .
35.7(35) . . .
36(4) . . .
25.5(28) . . .
33.5(30) . . .
27.6(30) . . .
31.0(30) . . .
40.2(35) . . .
39.3(33) . . .
31.3(29) . . .
36.6(35) . . .
34.5(33) . . .
41(4) . . .
37.9(33) . . .
32.0(29) . . .
29.0(29) . . .
33.8(33) . . .
30.9(30) . . .
28.1(28) . . .
35.5(31) . . .
40.3(33) . . .
34.3(33) . . .
30.2(30) . . .
33.3(30) . . .
29.3(28) . . .
32.4(31) . . .
29.0(31) . . .
35.0(31) . . .
33.3(30) . . .
33.5(30) . . .
37.3(33) . . .
34.8(31) . . .
36.5(32) . . .
31.9(29) . . .
37.2(32) . . .
41(4) . . .
34.8(32) . . .
31.7(30) . . .
33.7(30) . . .
31.0(30) . . .
37.1(33) . . .
34.9(31) . . .
35.4(31) . . .
32.8(29) . . .
27.2(29) . . .
33.6(31) . . .
29.7(28) . . .
36.0(31) . . .
22.6(25) . . .
27.1(29) . . .
29.9(30) . . .
31.8(31) . . .
28.6(28) . . .
23.3(25) . . .
25.1(28) . . .
30.3(31) . . .
30.7(30) . . .
32.8(31) . . .
46(4) . . .
36.1(32) . . .
29.8(30) . . .
29.1(31) . . .
27.4(28) . . .
29.0(29) . . .
24.4(26) . . .
40(4) . . .
38.9(35) . . .
30.8(29) . . .
32.7(30) . . .
35.5(33) . . .
29.0(31) . . .
30.3(31) . . .
27.6(27) . . .
29.5(28) . . .
43(4) . . .
28.8(30) . . .
43(4) . . .
34.6(31) . . .
32.8(30) . . .
28.7(29) . . .
39(4) . . .
27.3(29) . . .
26.9(28) . . .
32.2(29) . . .
40.2(34) . . .
38.2(35) . . .
34.1(31) . . .
37.5(33) . . .
30.6(29) . . .
36.2(33) . . .
31.5(29) . . .
33.9(31) . . .
36.6(32) . . .
37.2(32) . . .
36.9(32) . . .
32.8(30) . . .
29.6(28) . . .
35.2(32) . . .
38.7(34) . . .
36.2(34) . . .
32.5(31) . . .
38.8(34) . . .
31.8(30) . . .
28.6(29) . . .
31.8(32) . . .
28.1(27) . . .
35.4(32) . . .
29.2(28) . . .
36.0(31) . . .
36.3(32) . . .
25.4(25) . . .
31.8(30) . . .
24.3(26) . . .
28.0(28) . . .
25.1(26) . . .
28.7(28) . . .
34.2(30) . . .
36.7(32) . . .
31.3(30) . . .
28.1(31) . . .
34.5(32) . . .
32.1(30) . . .
26.2(26) . . .
31.5(30) . . .
30.2(31) . . .
33.4(31) . . .
30.1(29) . . .
34.0(32) . . .
25.6(26) . . .
29.4(30) . . .
24.6(25) . . .
39.4(33) . . .
29.9(29) . . .
33.6(33) . . .
37.6(33) . . .
35.0(32) . . .
27.7(29) . . .
32.2(30) . . .
37.2(35) . . .
28.8(29) . . .
26.1(28) . . .
28.5(28) . . .
33.0(31) . . .
32.1(31) . . .
36.4(34) . . .
35.0(32) . . .
31.5(29) . . .
33.7(30) . . .
38.2(34) . . .
30.3(30) . . .
24.1(26) . . .
29.7(28) . . .
34.6(31) . . .
32.9(31) . . .
33.0(31) . . .
29.3(28) . . .
30.7(29) . . .
31.6(30) . . .
24.5(27) . . .
23.6(26) . . .
30.3(29) . . .
32.0(29) . . .
30.9(29) . . .
34.9(32) . . .
28.3(27) . . .
28.6(27) . . .
27.1(27) . . .
24.2(26) . . .
37.2(35) . . .
25.4(25) . . .
33.6(30) . . .
42.4(34) . . .
38.8(34) . . .
38(4) . . .
35.4(33) . . .
34.7(31) . . .
32.0(30) . . .
32.8(31) . . .
34.3(33) . . .
34.9(31) . . .
35.2(31) . . .
33.4(31) . . .
31.4(29) . . .
29.5(29) . . .
34.9(32) . . .
32.5(30) . . .
42.9(34) . . .
33.7(30) . . .
26.7(26) . . .
33.3(31) . . .
28.8(28) . . .
29.3(28) . . .
39(4) . . .
27.6(28) . . .
28.9(29) . . .
29.5(28) . . .
35.3(31) . . .
37.2(34) . . .
42(4) . . .
38.8(32) . . .
37.5(32) . . .
19.8(23) . . .
42(4) . . .
35.8(32) . . .
27.6(28) . . .
33.3(30) . . .
28.3(28) . . .
30.8(30) . . .
30.0(28) . . .
37.6(32) . . .
32.7(29) . . .
27.6(27) . . .
38.7(33) . . .
40.2(34) . . .
24.7(26) . . .
33.1(31) . . .
36.8(33) . . .
31.5(32) . . .
28.1(28) . . .
27.6(29) . . .
28.4(28) . . .
27.1(28) . . .
36(4) . . .
27.4(27) . . .
28.7(28) . . .
26.9(27) . . .
20.2(24) . . .
24.0(27) . . .
33.3(31) . . .
38.7(33) . . .
33.7(31) . . .
43(4) . . .
39.9(35) . . .
34.3(32) . . .
34.7(31) . . .
32.6(31) . . .
30.7(30) . . .
46(4) . . .
30.1(28) . . .
31.0(29) . . .
32.9(32) . . .
29.2(32) . . .
31.1(31) . . .
37.2(33) . . .
30.7(29) . . .
29.8(29) . . .
32.0(30) . . .
26.7(27) . . .
31.9(30) . . .
29.9(28) . . .
22.8(25) . . .
27.4(29) . . .
32.3(31) . . .
31.4(30) . . .
34.5(30) . . .
34.3(31) . . .
34.1(33) . . .
39.0(34) . . .
38.0(32) . . .
31.4(30) . . .
35.2(32) . . .
33.0(32) . . .
33.3(32) . . .
34.0(31) . . .
29.5(28) . . .
28.7(29) . . .
35.3(33) . . .
29.4(29) . . .
35.5(32) . . .
39.3(32) . . .
25.7(27) . . .
33.0(33) . . .
29.1(30) . . .
29.2(29) . . .
37.0(32) . . .
29.1(28) . . .
27.3(29) . . .
31.0(31) . . .
32.4(31) . . .
35.0(30) . . .
26.4(27) . . .
31.8(32) . . .
33.2(31) . . .
28.6(28) . . .
37.2(33) . . .
26.5(26) . . .
28.8(29) . . .
35.6(33) . . .
34.9(32) . . .
31.3(29) . . .
35.0(32) . . .
29.8(29) . . .
25.3(26) . . .
33.2(30) . . .
25.3(26) . . .
23.6(26) . . .
30.1(29) . . .
29.4(29) . . .
31.3(29) . . .
42.6(34) . . .
40.8(35) . . .
36.4(33) . . .
31.4(29) . . .
30.1(29) . . .
32.5(30) . . .
28.2(29) . . .
31.6(30) . . .
37.6(32) . . .
28.4(28) . . .
30.3(28) . . .
33.7(31) . . .
31.5(29) . . .
43.0(34) . . .
37.3(34) . . .
34.1(35) . . .
34.5(33) . . .
24.7(26) . . .
27.8(28) . . .
36.8(31) . . .
30.9(29) . . .
35.1(33) . . .
41(4) . . .
35.0(31) . . .
36.9(32) . . .
33.8(32) . . .
27.9(28) . . .
40.7(34) . . .
36.3(33) . . .
34.0(30) . . .
28.5(28) . . .
37.5(35) . . .
37.7(33) . . .
25.1(27) . . .
27.5(28) . . .
29.8(31) . . .
31.6(33) . . .
36.8(34) . . .
36.0(31) . . .
31.9(30) . . .
23.6(25) . . .
29.3(29) . . .
29.8(30) . . .
27.4(27) . . .
30.8(32) . . .
31.0(28) . . .
31.7(31) . . .
33.2(31) . . .
39.8(33) . . .
29.9(28) . . .
27.5(28) . . .
25.5(27) . . .
29.6(29) . . .
27.2(28) . . .
33.1(32) . . .
32.6(31) . . .
31.2(30) . . .
32.8(32) . . .
24.5(26) . . .
28.5(28) . . .
33.8(32) . . .
28.4(29) . . .
37.6(32) . . .
32.2(29) . . .
41.2(34) . . .
31.7(30) . . .
37.1(33) . . .
22.0(25) . . .
36.6(31) . . .
44(4) . . .
29.5(31) . . .
31.3(31) . . .
26.9(27) . . .
33.0(30) . . .
30.7(29) . . .
32.9(32) . . .
35.5(33) . . .
26.3(27) . . .
25.7(27) . . .
33.7(34) . . .
32.4(34) . . .
37.3(32) . . .
29.3(28) . . .
31.4(30) . . .
28.0(29) . . .
33.7(35) . . .
35.3(32) . . .
32.0(29) . . .
37.1(33) . . .
30.1(29) . . .
27.1(27) . . .
37(4) . . .
33.9(30) . . .
29.0(28) . . .
30.3(30) . . .
33.2(32) . . .
29.0(29) . . .
32.8(30) . . .
33.8(32) . . .
26.5(27) . . .
28.8(30) . . .
22.6(25) . . .
31.3(30) . . .
26.8(27) . . .
38(4) . . .
41(4) . . .
28.3(28) . . .
28.7(28) . . .
42(4) . . .
37.5(34) . . .
29.3(27) . . .
39.8(34) . . .
34.1(30) . . .
31.6(35) . . .
25.3(28) . . .
29.0(29) . . .
30.8(29) . . .
30.0(29) . . .
33.9(31) . . .
38.2(35) . . .
44(4) . . .
32.0(30) . . .
27.7(28) . . .
39(4) . . .
36(4) . . .
33.1(31) . . .
32.2(29) . . .
26.0(27) . . .
31.8(31) . . .
25.7(29) . . .
29.0(30) . . .
32.8(30) . . .
39.0(33) . . .
24.9(26) . . .
27.9(30) . . .
40(4) . . .
36.8(31) . . .
34.0(31) . . .
28.9(30) . . .
29.0(27) . . .
32.3(32) . . .
31.3(29) . . .
30.4(29) . . .
33.5(32) . . .
27.7(29) . . .
32.4(30) . . .
40.4(33) . . .
36.3(31) . . .
38.7(34) . . .
28.8(29) . . .
31.5(30) . . .
31.0(29) . . .
34.9(33) . . .
32.4(30) . . .
34.4(30) . . .
33.3(30) . . .
45(4) . . .
26.6(29) . . .
26.0(30) . . .
25.3(26) . . .
28.5(28) . . .
34.4(30) . . .
45(4) . . .
30.9(29) . . .
27.4(27) . . .
40.6(35) . . .
31.6(30) . . .
26.8(27) . . .
30.7(32) . . .
25.7(27) . . .
28.5(28) . . .
28.5(28) . . .
40.5(34) . . .
32.2(32) . . .
32.2(31) . . .
31.8(30) . . .
31.7(30) . . .
39.1(33) . . .
21.4(24) . . .
27.4(27) . . .
27.1(28) . . .
28.0(29) . . .
30.1(31) . . .
24.2(27) . . .
24.5(29) . . .
28.8(28) . . .
34.8(31) . . .
37.3(33) . . .
36.5(33) . . .
34.9(31) . . .
31.0(30) . . .
30.2(30) . . .
31.5(31) . . .
29.6(29) . . .
35.7(31) . . .
25.1(27) . . .
26.5(27) . . .
32.3(31) . . .
25.4(28) . . .
30.6(30) . . .
37.7(32) . . .
34.5(32) . . .
29.1(29) . . .
32.9(31) . . .
34.4(31) . . .
32.9(30) . . .
33.7(32) . . .
30.8(30) . . .
35.3(32) . . .
30.6(29) . . .
36.2(31) . . .
31.4(29) . . .
27.7(30) . . .
28.1(28) . . .
31.7(30) . . .
30.8(29) . . .
35.6(34) . . .
29.9(29) . . .
29.0(27) . . .
38.1(33) . . .
36.7(32) . . .
31.4(31) . . .
28.4(29) . . .
27.0(27) . . .
35.6(32) . . .
28.0(28) . . .
29.9(30) . . .
30.1(32) . . .
31.1(32) . . .
28.7(28) . . .
45(4) . . .
34.5(31) . . .
30.5(28) . . .
37.2(32) . . .
28.2(27) . . .
26.2(28) . . .
23.0(28) . . .
29.6(29) . . .
37.9(32) . . .
32.4(30) . . .
30.6(30) . . .
32.4(31) . . .
31.8(32) . . .
30.3(29) . . .
30.0(28) . . .
36.9(32) . . .
45(4) . . .
36.0(33) . . .
29.7(28) . . .
35.0(31) . . .
36.5(33) . . .
34.4(32) . . .
35.5(31) . . .
29.3(28) . . .
26.2(27) . . .
31.7(32) . . .
35.4(33) . . .
28.1(28) . . .
33.7(31) . . .
34.8(31) . . .
29.1(29) . . .
27.8(30) . . .
31.9(32) . . .
32.3(29) . . .
30.5(29) . . .
29.7(29) . . .
35.8(33) . . .
38.6(33) . . .
31.6(29) . . .
32.2(30) . . .
34.2(31) . . .
39(4) . . .
41(4) . . .
33.1(31) . . .
32.2(30) . . .
28.7(28) . . .
32.9(32) . . .
38.5(34) . . .
34.5(30) . . .
35.3(32) . . .
37.3(33) . . .
32.6(31) . . .
25.8(26) . . .
34.0(31) . . .
41.2(34) . . .
29.5(31) . . .
31.5(32) . . .
27.0(27) . . .
40.3(34) . . .
35.3(30) . . .
28.3(28) . . .
26.9(27) . . .
37.7(34) . . .
31.9(29) . . .
24.9(26) . . .
25.5(28) . . .
25.9(28) . . .
35.9(33) . . .
26.4(27) . . .
28.0(28) . . .
34.1(32) . . .
26.5(28) . . .
30.0(30) . . .
33.6(31) . . .
35.0(32) . . .
31.7(30) . . .
34.5(31) . . .
26.8(27) . . .
29.4(28) . . .
34.3(31) . . .
37.8(35) . . .
32.9(31) . . .
31.9(29) . . .
33.6(30) . . .
28.3(29) . . .
26.5(27) . . .
30.3(28) . . .
39.3(33) . . .
33.8(30) . . .
27.9(29) . . .
23.8(28) . . .
29.7(30) . . .
34.4(30) . . .
36.3(31) . . .
29.1(28) . . .
31.1(32) . . .
30.5(30) . . .
23.8(25) . . .
32.0(29) . . .
31.2(30) . . .
34.7(34) . . .
30.6(30) . . .
32.2(29) . . .
31.2(29) . . .
36.2(33) . . .
33.2(31) . . .
33.6(32) . . .
37.1(32) . . .
34.0(31) . . .
32.3(30) . . .
30.3(30) . . .
33.8(32) . . .
27.9(27) . . .
22.4(24) . . .
31.5(30) . . .
33.9(31) . . .
32.1(30) . . .
32.0(30) . . .
34.9(33) . . .
35.6(32) . . .
28.7(30) . . .
32.0(31) . . .
36.2(31) . . .
29.8(30) . . .
32.3(31) . . .
35.5(33) . . .
30.2(28) . . .
28.2(27) . . .
26.2(26) . . .
34.2(30) . . .
38.5(32) . . .
34.8(30) . . .
30.8(29) . . .
32.1(32) . . .
26.5(28) . . .
37.3(33) . . .
32.3(30) . . .
32.1(29) . . .
44(4) . . .
36.2(33) . . .
29.7(29) . . .
31.5(29) . . .
31.8(29) . . .
35.3(32) . . .
36.3(35) . . .
31.5(30) . . .
31.8(30) . . .
32.9(30) . . .
28.1(30) . . .
26.7(28) . . .
36.2(33) . . .
30.6(28) . . .
33.0(31) . . .
26.1(26) . . .
32.6(32) . . .
29.8(29) . . .
36.9(32) . . .
38.5(33) . . .
38.8(34) . . .
33.8(32) . . .
24.8(26) . . .
35.2(32) . . .
32.5(30) . . .
38.2(34) . . .
40.6(34) . . .
36.6(32) . . .
32.4(29) . . .
34.2(31) . . .
35.2(32) . . .
29.4(30) . . .
33.2(33) . . .
38.3(32) . . .
28.2(28) . . .
30.4(29) . . .
34.7(33) . . .
31.8(31) . . .
30.0(30) . . .
28.9(28) . . .
29.6(30) . . .
33.4(32) . . .
28.7(28) . . .
32.1(29) . . .
34.9(31) . . .
31.2(30) . . .
31.2(30) . . .
27.0(27) . . .
25.5(26) . . .
23.3(27) . . .
33.0(32) . . .
27.8(29) . . .
32.7(29) . . .
22.6(26) . . .
36.6(33) . . .
35.5(34) . . .
28.5(30) . . .
33.7(30) . . .
30.5(30) . . .
32.7(32) . . .
38.5(35) . . .
29.3(28) . . .
32.3(29) . . .
42.9(34) . . .
36.0(32) . . .
35.8(33) . . .
31.2(29) . . .
35.3(31) . . .
39.6(33) . . .
35.8(33) . . .
30.4(31) . . .
34.1(31) . . .
37.2(32) . . .
30.1(29) . . .
31.1(30) . . .
39(4) . . .
39.9(34) . . .
31.5(30) . . .
25.0(27) . . .
34.1(33) . . .
29.8(29) . . .
34.3(30) . . .
36.0(31) . . .
36.9(32) . . .
27.5(28) . . .
30.6(31) . . .
32.8(29) . . .
32.7(30) . . .
45(4) . . .
34.6(33) . . .
23.4(28) . . .
30.2(30) . . .
35.0(31) . . .
32.9(30) . . .
25.0(26) . . .
34.8(32) . . .
28.8(27) . . .
40.3(33) . . .
27.3(28) . . .
35.7(35) . . .
26.6(27) . . .
33.9(30) . . .
35.5(32) . . .
26.4(27) . . .
33.6(31) . . .
43(4) . . .
32.0(30) . . .
33.3(31) . . .
35.8(33) . . .
35.2(32) . . .
31.8(31) . . .
32.8(30) . . .
39.9(34) . . .
34.9(31) . . .
38.7(35) . . .
32.9(32) . . .
26.0(26) . . .
28.2(29) . . .
29.1(29) . . .
26.0(29) . . .
31.1(31) . . .
36.4(31) . . .
30.2(29) . . .
26.3(26) . . .
35.9(32) . . .
27.3(28) . . .
38.4(32) . . .
29.2(28) . . .
30.6(30) . . .
31.7(30) . . .
30.9(30) . . .
33.8(30) . . .
30.1(29) . . .
31.6(30) . . .
30.0(28) . . .
37.3(32) . . .
32.5(30) . . .
34.8(33) . . .
35.8(34) . . .
30.2(30) . . .
37.3(32) . . .
31.8(30) . . .
30.0(28) . . .
34.7(33) . . .
26.5(27) . . .
28.5(28) . . .
35.3(31) . . .
33.9(31) . . .
34.2(33) . . .
32.1(30) . . .
32.3(31) . . .
30.0(28) . . .
40.2(35) . . .
38(4) . . .
30.6(29) . . .
32.3(30) . . .
33.3(31) . . .
33.1(33) . . .
37(4) . . .
26.2(27) . . .
30.9(29) . . .
36.5(32) . . .
26.8(29) . . .
27.6(28) . . .
32.3(29) . . .
31.3(29) . . .
33.2(31) . . .
27.4(29) . . .
28.9(30) . . .
34.0(32) . . .
33.4(30) . . .
27.7(28) . . .
34.2(33) . . .
33.2(34) . . .
26.1(28) . . .
28.4(27) . . .
38.2(34) . . .
29.9(29) . . .
38.4(35) . . .
36.0(32) . . .
41.2(34) . . .
33.7(30) . . .
28.9(28) . . .
30.0(29) . . .
30.7(29) . . .
26.6(27) . . .
33.9(32) . . .
34.0(31) . . .
31.5(30) . . .
25.5(27) . . .
32.2(30) . . .
35.3(31) . . .
37.6(35) . . .
30.8(29) . . .
29.1(29) . . .
35.3(31) . . .
26.1(27) . . .
25.1(28) . . .
30.3(31) . . .
32.7(29) . . .
38.3(32) . . .
33.3(31) . . .
24.5(26) . . .
26.1(26) . . .
36.7(32) . . .
32.2(30) . . .
26.3(27) . . .
25.1(27) . . .
25.4(27) . . .
41.2(34) . . .
37.6(33) . . .
32.8(30) . . .
29.5(30) . . .
22.1(25) . . .
36.7(32) . . .
37.5(32) . . .
31.0(29) . . .
32.5(32) . . .
28.5(29) . . .
28.9(28) . . .
27.8(27) . . .
39.7(33) . . .
34.5(32) . . .
32.4(32) . . .
28.3(28) . . .
29.6(30) . . .
34.6(32) . . .
36.7(33) . . .
27.5(29) . . .
28.7(28) . . .
27.5(27) . . .
36.2(32) . . .
36.6(33) . . .
37.8(34) . . .
31.8(30) . . .
28.4(28) . . .
31.9(30) . . .
34.6(31) . . .
34.5(31) . . .
26.0(27) . . .
33.6(31) . . .
27.2(29) . . .
35.9(32) . . .
39.2(32) . . .
34.4(30) . . .
24.8(26) . . .
30.5(31) . . .
35.2(33) . . .
42.3(34) . . .
33.8(31) . . .
36.4(31) . . .
31.7(30) . . .
26.1(29) . . .
29.7(30) . . .
37.4(32) . . .
34.7(32) . . .
37(4) . . .
28.5(29) . . .
33.5(30) . . .
37.3(32) . . .
34.7(33) . . .
30.4(31) . . .
37.5(33) . . .
33.4(30) . . .
40.8(33) . . .
31.6(30) . . .
30.5(31) . . .
22.4(24) . . .
36.6(32) . . .
30.9(30) . . .
31.5(33) . . .
28.9(30) . . .
36.4(34) . . .
27.7(27) . . .
35.6(31) . . .
36.5(32) . . .
32.4(31) . . .
31.3(31) . . .
33.9(30) . . .
40.0(33) . . .
30.7(28) . . .
31.2(31) . . .
37.4(32) . . .
34.3(30) . . .
35.5(31) . . .
36(4) . . .
27.2(29) . . .
27.0(28) . . .
31.6(30) . . .
38.7(35) . . .
27.9(29) . . .
26.9(29) . . .
32.3(30) . . .
38.4(32) . . .
39.9(34) . . .
35.4(34) . . .
28.8(29) . . .
31.0(29) . . .
21.9(24) . . .
25.2(28) . . .
25.3(26) . . .
29.1(30) . . .
26.3(27) . . .
35.9(31) . . .
35.4(32) . . .
29.4(27) . . .
28.2(28) . . .
26.0(26) . . .
33.0(29) . . .
37.9(32) . . .
40(4) . . .
25.3(28) . . .
24.3(26) . . .
27.3(28) . . .
27.3(27) . . .
35.5(33) . . .
33.2(31) . . .
33.6(30) . . .
25.1(27) . . .
26.6(28) . . .
32.1(31) . . .
28.5(29) . . .
36.2(31) . . .
36.0(31) . . .
45(4) . . .
30.5(29) . . .
24.8(29) . . .
30.5(29) . . .
28.6(29) . . .
34.9(32) . . .
32.5(29) . . .
37.1(32) . . .
31.2(29) . . .
41.4(35) . . .
32.7(30) . . .
31.2(31) . . .
28.8(28) . . .
32.6(30) . . .
34.4(32) . . .
31.2(31) . . .
26.0(29) . . .
36.2(32) . . .
26.2(27) . . .
30.1(29) . . .
32.0(30) . . .
36.3(32) . . .
36.9(31) . . .
27.0(28) . . .
20.8(25) . . .
30.7(33) . . .
29.4(29) . . .
33.8(31) . . .
32.8(30) . . .
35.3(31) . . .
35.4(33) . . .
28.0(27) . . .
33.2(29) . . .
34.9(31) . . .
34.6(30) . . .
36.7(35) . . .
27.8(29) . . .
36.1(32) . . .
33.0(29) . . .
34.9(32) . . .
31.6(32) . . .
26.8(29) . . .
31.6(29) . . .
41.0(33) . . .
34.7(31) . . .
29.3(28) . . .
29.1(28) . . .
35.4(31) . . .
31.7(31) . . .
32.6(29) . . .
34.7(32) . . .
24.0(26) . . .
28.1(28) . . .
33.5(31) . . .
28.7(30) . . .
29.7(30) . . .
34.3(31) . . .
34.7(31) . . .
33.9(31) . . .
33.5(33) . . .
22.8(27) . . .
36.8(33) . . .
32.0(30) . . .
31.3(29) . . .
37.6(34) . . .
35.6(31) . . .
33.3(31) . . .
37.9(33) . . .
31.4(30) . . .
34.6(32) . . .
33.6(31) . . .
26.9(28) . . .
31.8(29) . . .
34.6(33) . . .
35.1(32) . . .
32.5(30) . . .
41.2(33) . . .
34.0(30) . . .
30.9(32) . . .
33.5(35) . . .
32.5(32) . . .
37.2(33) . . .
31.5(29) . . .
37.4(33) . . .
33.8(31) . . .
33.3(32) . . .
35.6(32) . . .
32.7(31) . . .
29.2(28) . . .
36.2(32) . . .
29.6(28) . . .
28.9(28) . . .
32.1(30) . . .
35.2(33) . . .
30.7(31) . . .
34.1(32) . . .
31.9(30) . . .
25.1(28) . . .
25.4(27) . . .
28.6(28) . . .
31.4(30) . . .
25.3(26) . . .
39(4) . . .
31.5(30) . . .
29.3(28) . . .
34.5(32) . . .
34.3(31) . . .
27.1(28) . . .
29.4(29) . . .
32.4(33) . . .
27.1(28) . . .
34.3(31) . . .
26.9(28) . . .
32.2(32) . . .
27.7(28) . . .
25.0(26) . . .
35.7(31) . . .
34.0(31) . . .
30.9(31) . . .
26.0(27) . . .
29.0(29) . . .
33.6(30) . . .
37.7(34) . . .
35.1(34) . . .
28.7(27) . . .
33.9(30) . . .
32.7(30) . . .
31.4(30) . . .
31.3(32) . . .
39.5(34) . . .
38.2(34) . . .
30.2(28) . . .
31.2(30) . . .
27.6(31) . . .
26.9(31) . . .
24.0(25) . . .
26.0(27) . . .
32.8(32) . . .
28.5(29) . . .
27.2(27) . . .
24.4(26) . . .
31.0(29) . . .
29.7(29) . . .
34.4(33) . . .
32.1(31) . . .
32.4(30) . . .
26.4(27) . . .
24.9(28) . . .
32.0(30) . . .
29.0(30) . . .
27.1(27) . . .
34.3(31) . . .
30.3(29) . . .
29.3(29) . . .
23.3(26) . . .
29.0(28) . . .
35.2(32) . . .
36.9(32) . . .
26.4(27) . . .
22.6(25) . . .
32.8(29) . . .
32.2(31) . . .
29.9(29) . . .
32.1(31) . . .
22.1(25) . . .
28.7(28) . . .
24.9(27) . . .
25.9(27) . . .
26.6(28) . . .
32.7(31) . . .
30.8(29) . . .
32.1(31) . . .
33.3(32) . . .
34.5(33) . . .
35.4(31) . . .
30.0(28) . . .
18.5(22) . . .
27.4(29) . . .
26.6(27) . . .
33.6(30) . . .
31.5(30) . . .
29.1(29) . . .
24.9(26) . . .
29.3(28) . . .
29.9(28) . . .
35.3(31) . . .
38(4) . . .
28.1(31) . . .
29.9(29) . . .
35.4(32) . . .
35.6(32) . . .
24.3(26) . . .
29.9(30) . . .
34.2(31) . . .
34.7(30) . . .
40.5(34) . . .
32.4(30) . . .
37.2(35) . . .
33.8(32) . . .
18.1(23) . . .
26.8(28) . . .
30.5(29) . . .
41(4) . . .
34.9(32) . . .
37.7(32) . . .
35.9(31) . . .
34.4(31) . . .
39(4) . . .
33.0(31) . . .
24.8(26) . . .
28.7(29) . . .
35.3(32) . . .
30.8(30) . . .
30.1(30) . . .
23.3(25) . . .
30.3(29) . . .
26.6(28) . . .
28.6(29) . . .
28.5(28) . . .
32.6(30) . . .
34.8(34) . . .
31.5(32) . . .
24.7(26) . . .
30.0(29) . . .
27.6(27) . . .
33.7(31) . . .
33.6(32) . . .
26.2(27) . . .
30.9(29) . . .
28.1(28) . . .
44(4) . . .
28.4(28) . . .
27.6(27) . . .
32.5(30) . . .
30.6(29) . . .
30.3(30) . . .
33.6(33) . . .
35.7(32) . . .
27.3(27) . . .
26.7(27) . . .
32.2(30) . . .
30.8(30) . . .
37.3(33) . . .
38.4(32) . . .
28.6(30) . . .
33.0(31) . . .
29.4(32) . . .
25.7(28) . . .
25.5(26) . . .
37.0(35) . . .
31.7(32) . . .
27.6(29) . . .
25.0(28) . . .
34.2(31) . . .
35.2(31) . . .
31.2(30) . . .
28.5(28) . . .
31.9(30) . . .
32.9(30) . . .
30.6(30) . . .
35.7(35) . . .
30.1(31) . . .
36.9(32) . . .
30.6(29) . . .
32.5(30) . . .
29.8(30) . . .
29.5(28) . . .
27.7(28) . . .
33.8(30) . . .
28.1(28) . . .
27.1(27) . . .
26.9(27) . . .
39.0(33) . . .
37.2(32) . . .
25.1(30) . . .
28.6(29) . . .
32.3(31) . . .
35.3(31) . . .
29.2(28) . . .
22.9(25) . . .
28.8(29) . . .
23.3(25) . . .
23.8(25) . . .
32.4(30) . . .
43(4) . . .
30.3(31) . . .
33.2(32) . . .
28.5(28) . . .
39.7(33) . . .
35.6(31) . . .
39(4) . . .
33.8(30) . . .
37.5(31) . . .
27.5(29) . . .
28.3(29) . . .
29.8(30) . . .
25.8(26) . . .
32.0(29) . . .
27.2(29) . . .
21.8(25) . . .
36.2(33) . . .
32.0(32) . . .
39.9(32) . . .
32.2(30) . . .
29.4(30) . . .
28.0(28) . . .
27.7(28) . . .
29.0(28) . . .
37.3(33) . . .
34.0(31) . . .
41(4) . . .
31.2(30) . . .
28.0(28) . . .
24.8(27) . . .
32.0(30) . . .
31.0(30) . . .
29.5(30) . . .
30.2(29) . . .
24.6(26) . . .
34.1(33) . . .
33.0(31) . . .
32.3(31) . . .
30.6(29) . . .
30.2(29) . . .
23.2(27) . . .
23.7(25) . . .
33.2(34) . . .
25.2(26) . . .
26.5(28) . . .
32.2(33) . . .
31.9(29) . . .
32.9(30) . . .
32.0(29) . . .
30.3(30) . . .
30.1(34) . . .
31.4(32) . . .
33.5(31) . . .
33.7(30) . . .
34.3(31) . . .
26.3(30) . . .
30.6(29) . . .
30.4(29) . . .
35.3(32) . . .
33.5(30) . . .
27.3(28) . . .
21.2(25) . . .
29.0(29) . . .
29.1(28) . . .
29.2(30) . . .
24.4(27) . . .
26.8(30) . . .
30.9(30) . . .
29.5(28) . . .
29.9(28) . . .
38.2(33) . . .
26.5(27) . . .
33.3(30) . . .
28.0(27) . . .
27.8(29) . . .
36.1(34) . . .
36.2(31) . . .
30.5(28) . . .
30.0(30) . . .
33.6(32) . . .
26.6(28) . . .
33.5(30) . . .
40.3(33) . . .
25.8(29) . . .
27.9(32) . . .
30.1(31) . . .
24.9(26) . . .
29.0(28) . . .
26.4(26) . . .
27.9(30) . . .
25.0(27) . . .
27.5(28) . . .
31.5(29) . . .
27.3(27) . . .
31.9(34) . . .
24.6(26) . . .
31.7(30) . . .
29.6(28) . . .
33.2(30) . . .
34.1(32) . . .
27.1(27) . . .
27.0(27) . . .
35.3(30) . . .
30.6(29) . . .
34.6(33) . . .
34.5(30) . . .
32.8(30) . . .
29.0(28) . . .
26.3(27) . . .
28.5(29) . . .
37.5(34) . . .
33.3(30) . . .
27.1(27) . . .
33.9(31) . . .
33.4(31) . . .
36.6(32) . . .
32.7(29) . . .
34.3(30) . . .
37.4(33) . . .
30.3(30) . . .
36.3(33) . . .
36.8(32) . . .
29.6(28) . . .
29.0(31) . . .
25.8(28) . . .
36.4(33) . . .
23.9(25) . . .
28.8(28) . . .
33.1(30) . . .
39.2(34) . . .
31.5(29) . . .
31.9(29) . . .
32.8(31) . . .
31.8(30) . . .
34.2(31) . . .
35.3(32) . . .
36.8(32) . . .
30.6(30) . . .
38.2(34) . . .
34.9(31) . . .
33.2(30) . . .
26.7(27) . . .
31.3(29) . . .
36.1(33) . . .
28.5(27) . . .
40.2(33) . . .
23.9(26) . . .
37.6(35) . . .
31.9(33) . . .
30.2(30) . . .
27.8(27) . . .
33.7(30) . . .
32.4(32) . . .
35.1(34) . . .
25.8(27) . . .
32.4(30) . . .
28.8(28) . . .
28.5(28) . . .
27.9(29) . . .
25.1(26) . . .
34.7(30) . . .
35.3(33) . . .
35.2(32) . . .
23.9(26) . . .
29.0(30) . . .
36.8(31) . . .
33.4(30) . . .
37.1(33) . . .
25.3(27) . . .
34.1(32) . . .
32.2(30) . . .
34.0(31) . . .
28.6(30) . . .
28.2(29) . . .
32.3(32) . . .
27.0(27) . . .
28.4(29) . . .
23.1(27) . . .
31.8(33) . . .
35.0(32) . . .
31.8(30) . . .
28.4(29) . . .
30.9(32) . . .
29.4(28) . . .
31.9(30) . . .
33.8(31) . . .
31.4(31) . . .
31.9(33) . . .
28.0(30) . . .
29.8(29) . . .
26.9(28) . . .
40(4) . . .
36.2(34) . . .
34.3(32) . . .
36.8(33) . . .
41.1(34) . . .
36.3(32) . . .
33.6(31) . . .
34.6(30) . . .
35.9(33) . . .
31.3(29) . . .
26.0(28) . . .
32.8(33) . . .
31.5(30) . . .
33.2(31) . . .
27.2(27) . . .
31.3(31) . . .
30.1(29) . . .
27.6(28) . . .
27.2(27) . . .
27.5(29) . . .
34.8(32) . . .
35.9(32) . . .
38.6(33) . . .
29.3(28) . . .
25.3(27) . . .
33.7(33) . . .
31.1(30) . . .
26.7(27) . . .
24.1(26) . . .
36.5(34) . . .
26.0(27) . . .
29.5(29) . . .
32.4(31) . . .
26.1(27) . . .
27.8(27) . . .
32.6(33) . . .
35.9(33) . . .
23.2(25) . . .
37.2(32) . . .
32.6(33) . . .
29.4(29) . . .
30.3(30) . . .
30.6(30) . . .
34.1(31) . . .
35.4(34) . . .
38(4) . . .
31.5(33) . . .
33.2(30) . . .
28.0(28) . . .
29.6(28) . . .
34.4(33) . . .
34.8(33) . . .
27.2(28) . . .
29.5(29) . . .
28.0(28) . . .
41(4) . . .
29.3(28) . . .
31.8(30) . . .
32.0(31) . . .
24.8(27) . . .
35.4(34) . . .
35.5(32) . . .
31.2(30) . . .
29.7(30) . . .
26.3(28) . . .
31.6(32) . . .
33.4(30) . . .
26.7(27) . . .
32.3(30) . . .
25.5(27) . . .
27.2(28) . . .
24.0(26) . . .
34.7(30) . . .
32.5(30) . . .
29.3(29) . . .
30.5(30) . . .
26.0(28) . . .
34.1(30) . . .
33.7(31) . . .
27.7(28) . . .
28.3(28) . . .
27.2(27) . . .
31.8(30) . . .
30.3(31) . . .
38(4) . . .
20.2(24) . . .
34.7(31) . . .
35.5(31) . . .
27.8(28) . . .
28.7(31) . . .
19.8(23) . . .
30.2(30) . . .
36.8(31) . . .
37.3(35) . . .
36.5(33) . . .
27.7(29) . . .
32.3(30) . . .
36.4(32) . . .
35.4(32) . . .
36.9(33) . . .
33.2(30) . . .
31.4(29) . . .
32.4(29) . . .
34.2(33) . . .
29.9(30) . . .
22.3(25) . . .
28.2(27) . . .
30.5(30) . . .
29.8(29) . . .
31.4(31) . . .
27.4(28) . . .
39.4(32) . . .
28.6(28) . . .
27.6(28) . . .
30.7(32) . . .
24.4(28) . . .
26.5(26) . . .
27.3(27) . . .
30.8(31) . . .
32.5(31) . . .
35.8(32) . . .
35.6(31) . . .
28.9(29) . . .
29.3(34) . . .
28.9(32) . . .
26.4(29) . . .
31.4(29) . . .
25.0(26) . . .
25.8(27) . . .
37.5(33) . . .
24.9(27) . . .
34.6(31) . . .
34.7(30) . . .
34.3(31) . . .
35.1(33) . . .
36.5(31) . . .
31.2(29) . . .
27.5(29) . . .
27.4(29) . . .
23.8(28) . . .
27.4(28) . . .
23.7(26) . . .
30.3(30) . . .
41(4) . . .
36.1(32) . . .
33.1(31) . . .
29.0(28) . . .
26.1(29) . . .
31.1(31) . . .
37.3(33) . . .
33.2(30) . . .
34.8(31) . . .
27.6(28) . . .
27.4(30) . . .
29.3(28) . . .
33.8(31) . . .
23.6(26) . . .
32.6(31) . . .
31.5(32) . . .
28.9(30) . . .
26.4(26) . . .
33.2(30) . . .
30.4(28) . . .
30.0(30) . . .
29.2(31) . . .
38.3(32) . . .
29.2(28) . . .
22.9(26) . . .
27.7(29) . . .
27.5(29) . . .
36.9(31) . . .
34.9(31) . . .
39.1(32) . . .
32.4(30) . . .
31.3(30) . . .
34.7(32) . . .
29.5(28) . . .
34.1(31) . . .
24.5(26) . . .
28.3(31) . . .
25.1(26) . . .
30.0(29) . . .
39(4) . . .
24.4(27) . . .
31.1(29) . . .
30.0(29) . . .
23.9(26) . . .
33.8(32) . . .
34.8(32) . . .
27.2(29) . . .
32.2(30) . . .
37.7(34) . . .
31.6(31) . . .
37.5(34) . . .
32.6(30) . . .
24.7(26) . . .
25.6(28) . . .
24.0(27) . . .
31.5(32) . . .
31.9(30) . . .
37.9(33) . . .
29.7(31) . . .
37.5(35) . . .
42(4) . . .
34.5(32) . . .
35.4(31) . . .
31.0(29) . . .
26.6(28) . . .
23.8(25) . . .
38.0(34) . . .
29.0(29) . . .
35.0(31) . . .
33.9(31) . . .
37(4) . . .
28.5(28) . . .
31.1(29) . . .
26.9(26) . . .
30.3(29) . . .
30.5(30) . . .
25.3(27) . . .
28.1(27) . . .
32.8(30) . . .
26.5(26) . . .
36.4(32) . . .
34.5(30) . . .
35.0(31) . . .
29.2(28) . . .
36.8(32) . . .
33.5(33) . . .
28.8(29) . . .
24.2(26) . . .
33.5(32) . . .
29.4(30) . . .
32.5(31) . . .
26.1(27) . . .
28.6(30) . . .
33.4(32) . . .
25.8(26) . . .
28.3(29) . . .
26.7(27) . . .
30.9(29) . . .
39(4) . . .
28.9(29) . . .
31.7(29) . . .
31.1(29) . . .
30.8(30) . . .
23.9(25) . . .
31.9(32) . . .
37.1(32) . . .
32.0(31) . . .
22.0(25) . . .
28.5(29) . . .
30.4(29) . . .
24.9(27) . . .
28.6(28) . . .
33.2(31) . . .
34.6(31) . . .
33.2(30) . . .
31.9(30) . . .
36.1(32) . . .
33.5(32) . . .
27.4(29) . . .
35.4(32) . . .
31.9(30) . . .
23.9(25) . . .
32.5(31) . . .
32.4(31) . . .
28.3(28) . . .
29.7(28) . . .
28.0(28) . . .
36.2(32) . . .
37(4) . . .
36.0(31) . . .
32.3(30) . . .
32.2(30) . . .
26.5(26) . . .
32.0(32) . . .
28.4(31) . . .
31.0(29) . . .
18.5(22) . . .
24.4(27) . . .
36.3(34) . . .
39.9(34) . . .
30.3(28) . . .
22.2(25) . . .
30.0(32) . . .
25.8(29) . . .
33.6(32) . . .
29.0(28) . . .
26.7(28) . . .
30.3(29) . . .
27.9(27) . . .
31.5(30) . . .
32.7(30) . . .
28.9(29) . . .
27.2(30) . . .
31.0(31) . . .
29.4(30) . . .
31.0(29) . . .
30.3(30) . . .
35.8(33) . . .
31.2(29) . . .
34.9(32) . . .
27.0(27) . . .
22.0(25) . . .
33.5(34) . . .
25.8(26) . . .
23.7(25) . . .
28.4(27) . . .
27.1(27) . . .
28.6(30) . . .
22.9(24) . . .
24.2(26) . . .
27.9(27) . . .
27.1(28) . . .
25.4(28) . . .
39.0(34) . . .
35.8(32) . . .
27.9(28) . . .
33.8(33) . . .
28.5(29) . . .
34.4(31) . . .
32.3(29) . . .
26.6(27) . . .
29.3(29) . . .
30.3(29) . . .
35.7(34) . . .
32.3(30) . . .
27.2(27) . . .
42(4) . . .
28.4(29) . . .
23.6(26) . . .
35.8(31) . . .
25.3(26) . . .
32.6(32) . . .
35.0(32) . . .
38.1(34) . . .
31.1(29) . . .
30.3(29) . . .
32.7(30) . . .
34.8(33) . . .
21.0(24) . . .
28.3(28) . . .
31.5(29) . . .
28.6(29) . . .
29.2(30) . . .
28.8(28) . . .
27.1(27) . . .
30.9(29) . . .
27.3(29) . . .
31.0(30) . . .
23.9(26) . . .
23.8(25) . . .
30.9(32) . . .
26.6(30) . . .
26.6(27) . . .
36.8(33) . . .
31.7(29) . . .
30.5(28) . . .
37(4) . . .
23.7(26) . . .
32.3(30) . . .
36.6(32) . . .
37.5(32) . . .
35.7(34) . . .
35.7(34) . . .
44.0(34) . . .
36.5(32) . . .
32.4(31) . . .
27.4(29) . . .
37.8(34) . . .
41.9(34) . . .
26.5(28) . . .
32.9(30) . . .
29.7(29) . . .
35.8(32) . . .
31.3(30) . . .
34.5(30) . . .
32.7(31) . . .
29.4(29) . . .
30.4(29) . . .
27.2(27) . . .
32.4(30) . . .
32.7(31) . . .
31.1(30) . . .
29.7(29) . . .
26.1(27) . . .
23.2(28) . . .
28.7(30) . . .
31.7(32) . . .
32.8(30) . . .
30.3(29) . . .
33.5(32) . . .
27.9(30) . . .
34.1(33) . . .
32.8(30) . . .
26.4(27) . . .
35.8(32) . . .
29.5(28) . . .
43(4) . . .
33.1(30) . . .
31.4(29) . . .
31.7(32) . . .
31.7(34) . . .
26.2(29) . . .
36.4(32) . . .
29.9(30) . . .
27.7(28) . . .
36.0(35) . . .
37.8(33) . . .
27.4(27) . . .
36.6(32) . . .
31.0(32) . . .
25.6(27) . . .
28.5(29) . . .
31.2(30) . . .
29.8(29) . . .
39(4) . . .
31.7(31) . . .
24.3(26) . . .
35.3(31) . . .
21.6(25) . . .
24.6(27) . . .
33.0(31) . . .
32.1(30) . . .
33.7(30) . . .
22.5(25) . . .
31.5(30) . . .
34.1(32) . . .
28.5(28) . . .
38.1(32) . . .
33.7(32) . . .
27.5(28) . . .
31.1(31) . . .
25.6(27) . . .
31.0(29) . . .
33.3(31) . . .
36.7(33) . . .
29.9(30) . . .
34.2(31) . . .
28.3(28) . . .
31.4(29) . . .
26.7(28) . . .
24.4(28) . . .
23.8(27) . . .
27.5(28) . . .
29.6(34) . . .
27.7(27) . . .
28.6(28) . . .
37.8(33) . . .
30.0(29) . . .
34.8(34) . . .
32.8(31) . . .
28.4(31) . . .
25.9(27) . . .
33.8(30) . . .
34.0(31) . . .
28.7(30) . . .
31.9(31) . . .
38.5(33) . . .
28.0(27) . . .
25.1(26) . . .
28.1(29) . . .
26.2(27) . . .
22.2(25) . . .
27.0(27) . . .
32.6(31) . . .
31.6(31) . . .
32.5(34) . . .
36.2(32) . . .
31.5(29) . . .
26.3(27) . . .
31.0(30) . . .
36.3(32) . . .
30.6(29) . . .
21.4(24) . . .
26.9(28) . . .
27.1(29) . . .
26.1(27) . . .
31.7(29) . . .
28.2(28) . . .
32.0(32) . . .
30.0(30) . . .
34.1(33) . . .
25.3(26) . . .
25.3(27) . . .
33.7(33) . . .
36.7(33) . . .
33.4(31) . . .
31.2(29) . . .
33.3(32) . . .
37.0(33) . . .
25.7(26) . . .
26.0(27) . . .
36.4(31) . . .
34.1(31) . . .
32.8(32) . . .
33.1(32) . . .
35.7(32) . . .
30.0(29) . . .
36.2(32) . . .
29.6(30) . . .
34.8(31) . . .
37.8(32) . . .
31.6(30) . . .
32.3(31) . . .
30.5(30) . . .
41.1(35) . . .
30.1(28) . . .
22.2(25) . . .
26.4(26) . . .
24.9(27) . . .
22.8(26) . . .
29.6(28) . . .
26.4(26) . . .
33.2(31) . . .
43(4) . . .
31.1(30) . . .
24.7(26) . . .
34.2(30) . . .
35.4(32) . . .
30.2(32) . . .
32.2(31) . . .
28.3(29) . . .
33.3(30) . . .
25.5(27) . . .
27.4(29) . . .
33.4(30) . . .
31.3(29) . . .
28.7(29) . . .
36.8(31) . . .
29.9(29) . . .
30.4(30) . . .
27.9(29) . . .
27.5(28) . . .
32.1(32) . . .
28.4(31) . . .
25.9(27) . . .
28.9(29) . . .
31.9(31) . . .
26.0(26) . . .
32.0(32) . . .
31.2(29) . . .
29.4(29) . . .
24.4(27) . . .
31.6(32) . . .
26.8(28) . . .
35.6(31) . . .
36.3(32) . . .
35.1(31) . . .
32.8(33) . . .
31.0(30) . . .
28.6(28) . . .
26.2(27) . . .
30.3(30) . . .
23.9(26) . . .
25.4(27) . . .
31.1(29) . . .
32.7(30) . . .
30.4(29) . . .
42(4) . . .
34.0(30) . . .
32.6(31) . . .
28.7(28) . . .
29.9(29) . . .
30.4(32) . . .
32.3(30) . . .
35.4(32) . . .
37.4(33) . . .
38.9(34) . . .
31.4(30) . . .
28.1(29) . . .
28.6(29) . . .
31.5(29) . . .
32.4(30) . . .
25.3(27) . . .
28.9(31) . . .
32.0(29) . . .
28.4(29) . . .
23.8(26) . . .
23.9(27) . . .
27.0(29) . . .
34.5(31) . . .
32.8(32) . . .
32.5(35) . . .
30.6(30) . . .
28.4(30) . . .
20.9(24) . . .
27.6(28) . . .
32.8(31) . . .
38.4(34) . . .
26.3(28) . . .
23.8(26) . . .
26.8(29) . . .
34.8(33) . . .
31.7(31) . . .
36.5(31) . . .
24.7(26) . . .
25.0(27) . . .
30.8(32) . . .
30.7(29) . . .
20.1(23) . . .
27.2(28) . . .
27.9(29) . . .
28.2(29) . . .
37.0(33) . . .
32.9(30) . . .
23.0(25) . . .
30.2(30) . . .
27.6(30) . . .
29.3(31) . . .
31.5(31) . . .
25.6(27) . . .
33.8(31) . . .
32.0(33) . . .
24.5(26) . . .
32.2(30) . . .
30.1(28) . . .
30.8(31) . . .
26.4(28) . . .
32.8(32) . . .
30.7(30) . . .
25.7(26) . . .
24.2(27) . . .
25.5(27) . . .
31.4(30) . . .
31.1(29) . . .
39.3(34) . . .
24.9(25) . . .
34.0(33) . . .
29.4(29) . . .
30.8(29) . . .
27.8(27) . . .
25.4(27) . . .
30.1(30) . . .
34.3(33) . . .
37.1(32) . . .
27.0(29) . . .
24.6(27) . . .
30.0(29) . . .
33.9(32) . . .
33.8(30) . . .
26.0(27) . . .
36.9(30) . . .
36.8(31) . . .
33.3(32) . . .
30.6(29) . . .
31.0(29) . . .
30.9(30) . . .
31.4(30) . . .
32.5(30) . . .
29.9(29) . . .
41(4) . . .
31.6(30) . . .
26.7(26) . . .
34.1(30) . . .
28.8(28) . . .
30.8(29) . . .
33.8(34) . . .
33.0(32) . . .
29.5(28) . . .
23.1(25) . . .
27.2(28) . . .
34.9(34) . . .
28.8(28) . . .
33.7(31) . . .
33.3(30) . . .
28.7(28) . . .
31.3(31) . . .
33.3(32) . . .
30.2(29) . . .
26.2(26) . . .
32.8(30) . . .
39(4) . . .
31.4(30) . . .
29.2(28) . . .
27.7(27) . . .
26.7(27) . . .
31.3(30) . . .
31.0(30) . . .
37.2(32) . . .
34.4(31) . . .
29.3(29) . . .
32.9(32) . . .
31.6(31) . . .
28.8(27) . . .
35.5(32) . . .
40(4) . . .
28.8(28) . . .
27.1(28) . . .
29.0(28) . . .
28.3(28) . . .
35(4) . . .
29.0(29) . . .
29.9(28) . . .
30.0(29) . . .
34.1(32) . . .
30.9(31) . . .
29.5(30) . . .
27.2(28) . . .
28.4(27) . . .
30.3(29) . . .
31.9(32) . . .
26.0(27) . . .
32.9(31) . . .
26.4(26) . . .
31.3(30) . . .
34.8(33) . . .
35.8(33) . . .
30.2(28) . . .
29.0(29) . . .
38.0(33) . . .
36.4(35) . . .
29.0(28) . . .
29.5(29) . . .
30.1(29) . . .
27.4(28) . . .
34.1(33) . . .
35.5(31) . . .
32.3(29) . . .
33.4(30) . . .
37.1(31) . . .
35.1(32) . . .
27.6(29) . . .
41.3(34) . . .
34.2(31) . . .
35.2(32) . . .
27.0(27) . . .
21.6(25) . . .
22.2(26) . . .
28.7(29) . . .
30.5(30) . . .
29.8(31) . . .
24.7(27) . . .
34.0(31) . . .
33.1(32) . . .
31.2(30) . . .
26.3(27) . . .
25.5(27) . . .
35.8(31) . . .
23.1(25) . . .
27.0(29) . . .
28.0(31) . . .
27.8(28) . . .
30.4(29) . . .
27.7(29) . . .
31.0(33) . . .
30.0(31) . . .
28.6(29) . . .
29.1(28) . . .
36.4(32) . . .
37.7(33) . . .
30.1(29) . . .
24.7(26) . . .
32.8(30) . . .
32.7(31) . . .
35.9(34) . . .
34.2(32) . . .
32.4(30) . . .
31.7(29) . . .
28.4(28) . . .
30.5(31) . . .
22.9(24) . . .
21.1(24) . . .
30.1(29) . . .
35.4(34) . . .
28.5(30) . . .
37.1(34) . . .
30.3(29) . . .
26.6(27) . . .
24.6(26) . . .
37(4) . . .
31.1(30) . . .
27.6(27) . . .
33.6(30) . . .
28.8(28) . . .
25.4(27) . . .
34.4(32) . . .
27.5(27) . . .
29.6(28) . . .
30.2(30) . . .
22.5(24) . . .
28.6(29) . . .
34.7(31) . . .
24.4(25) . . .
26.0(28) . . .
33.8(33) . . .
32.1(29) . . .
30.9(29) . . .
27.0(28) . . .
26.3(29) . . .
25.6(27) . . .
33.3(31) . . .
27.5(27) . . .
32.2(30) . . .
32.2(31) . . .
30.4(30) . . .
33.0(34) . . .
27.2(27) . . .
33.7(30) . . .
34.9(34) . . .
34.3(31) . . .
38.5(34) . . .
34.1(31) . . .
36.3(34) . . .
31.1(32) . . .
29.6(28) . . .
42.0(35) . . .
34.5(30) . . .
37.5(34) . . .
28.4(27) . . .
33.1(30) . . .
35.0(31) . . .
29.0(28) . . .
29.5(28) . . .
28.1(29) . . .
37.2(34) . . .
21.9(24) . . .
30.7(29) . . .
21.7(24) . . .
30.3(32) . . .
31.4(29) . . .
33.0(30) . . .
38.5(32) . . .
32.1(29) . . .
34.2(34) . . .
24.1(26) . . .
26.6(27) . . .
28.5(30) . . .
31.9(30) . . .
28.5(29) . . .
27.1(29) . . .
23.2(26) . . .
30.6(29) . . .
34.9(32) . . .
31.5(30) . . .
30.7(29) . . .
34.7(32) . . .
34.1(31) . . .
27.4(30) . . .
31.6(32) . . .
30.2(29) . . .
24.5(26) . . .
32.8(33) . . .
22.5(25) . . .
33.0(34) . . .
36.6(32) . . .
25.6(26) . . .
37.9(34) . . .
31.2(30) . . .
25.4(26) . . .
33.8(31) . . .
27.5(27) . . .
38.7(33) . . .
32.6(32) . . .
23.2(25) . . .
26.3(27) . . .
29.8(28) . . .
30.4(31) . . .
30.0(32) . . .
25.4(27) . . .
37.8(32) . . .
29.4(29) . . .
32.2(31) . . .
29.1(29) . . .
32.9(31) . . .
29.9(28) . . .
24.9(27) . . .
34.9(33) . . .
31.6(32) . . .
31.0(30) . . .
36.7(32) . . .
23.6(25) . . .
38.3(34) . . .
28.5(29) . . .
32.1(31) . . .
31.8(30) . . .
32.9(29) . . .
26.5(26) . . .
32.1(31) . . .
27.9(29) . . .
30.3(28) . . .
26.2(28) . . .
26.4(28) . . .
31.2(31) . . .
27.0(27) . . .
34.8(31) . . .
28.9(29) . . .
28.6(29) . . .
29.3(29) . . .
35.6(32) . . .
34.0(31) . . .
32.7(29) . . .
32.2(32) . . .
36.4(34) . . .
25.1(26) . . .
27.1(27) . . .
34.6(33) . . .
30.1(32) . . .
33.9(32) . . .
29.4(28) . . .
32.6(30) . . .
23.4(26) . . .
27.6(30) . . .
37.3(35) . . .
27.0(28) . . .
27.7(27) . . .
29.6(31) . . .
30.6(32) . . .
29.8(30) . . .
22.7(25) . . .
21.6(24) . . .
28.4(29) . . .
29.5(30) . . .
31.5(31) . . .
24.6(27) . . .
35.3(31) . . .
35.2(32) . . .
26.0(28) . . .
32.4(32) . . .
29.4(28) . . .
31.1(29) . . .
26.2(27) . . .
31.2(32) . . .
35.7(32) . . .
26.7(27) . . .
27.0(28) . . .
22.8(27) . . .
25.7(30) . . .
28.2(30) . . .
30.8(29) . . .
29.0(28) . . .
36.4(33) . . .
29.6(30) . . .
36.0(33) . . .
29.8(30) . . .
38.0(33) . . .
29.6(30) . . .
33.8(34) . . .
25.8(27) . . .
36.8(31) . . .
26.3(27) . . .
27.1(28) . . .
33.1(31) . . .
30.4(30) . . .
29.0(29) . . .
34.2(34) . . .
34.9(32) . . .
28.7(29) . . .
30.8(30) . . .
27.6(27) . . .
24.2(25) . . .
31.1(30) . . .
33.7(31) . . .
38.7(33) . . .
28.5(28) . . .
26.6(28) . . .
37.1(35) . . .
34.6(31) . . .
33.7(31) . . .
28.9(29) . . .
30.6(29) . . .
29.9(33) . . .
26.8(27) . . .
34.9(30) . . .
30.9(29) . . .
31.3(30) . . .
32.6(32) . . .
22.8(25) . . .
25.9(26) . . .
28.3(29) . . .
35.6(34) . . .
25.2(28) . . .
26.2(27) . . .
23.4(26) . . .
24.8(26) . . .
27.4(29) . . .
32.0(30) . . .
33.2(33) . . .
26.3(27) . . .
26.2(27) . . .
31.5(30) . . .
31.9(30) . . .
36.8(34) . . .
33.3(30) . . .
26.8(28) . . .
30.3(30) . . .
35.6(34) . . .
25.0(26) . . .
26.1(27) . . .
34.8(31) . . .
30.1(30) . . .
30.1(31) . . .
30.8(31) . . .
30.8(29) . . .
32.9(30) . . .
30.9(31) . . .
30.5(30) . . .
38.8(34) . . .
26.2(27) . . .
32.5(32) . . .
30.6(31) . . .
22.8(25) . . .
30.2(28) . . .
35.6(32) . . .
26.4(29) . . .
25.9(29) . . .
32.8(30) . . .
33.5(30) . . .
28.5(29) . . .
24.4(26) . . .
28.4(30) . . .
28.6(29) . . .
34.0(31) . . .
34.1(31) . . .
25.4(26) . . .
27.9(29) . . .
26.6(27) . . .
30.8(30) . . .
24.8(26) . . .
26.1(28) . . .
21.2(23) . . .
37.4(34) . . .
28.2(28) . . .
23.0(25) . . .
36.2(33) . . .
37.3(33) . . .
35.6(31) . . .
32.0(30) . . .
36.2(31) . . .
31.8(31) . . .
27.9(27) . . .
33.3(30) . . .
35.7(31) . . .
27.3(27) . . .
23.5(26) . . .
26.5(29) . . .
30.8(31) . . .
38.9(32) . . .
35.3(33) . . .
35.3(33) . . .
27.0(27) . . .
35.2(32) . . .
20.5(24) . . .
33.7(32) . . .
29.5(30) . . .
27.4(28) . . .
32.0(30) . . .
26.4(27) . . .
31.2(31) . . .
30.4(31) . . .
20.4(25) . . .
29.2(30) . . .
32.9(30) . . .
30.8(31) . . .
28.8(27) . . .
34.9(33) . . .
26.0(27) . . .
31.0(29) . . .
33.0(31) . . .
35.2(33) . . .
40(4) . . .
35.2(30) . . .
32.8(30) . . .
30.6(30) . . .
31.1(33) . . .
17.6(22) . . .
26.6(27) . . .
25.7(27) . . .
33.8(31) . . .
26.9(27) . . .
23.5(25) . . .
26.4(27) . . .
27.2(28) . . .
29.0(29) . . .
28.7(31) . . .
29.6(31) . . .
30.1(29) . . .
32.7(30) . . .
29.4(31) . . .
29.5(31) . . .
20.0(24) . . .
29.0(29) . . .
29.4(30) . . .
28.3(29) . . .
32.3(32) . . .
29.5(28) . . .
31.6(30) . . .
23.4(25) . . .
36.9(33) . . .
32.2(33) . . .
27.5(28) . . .
36.3(31) . . .
28.2(29) . . .
33.0(32) . . .
33.9(31) . . .
30.6(29) . . .
28.5(28) . . .
28.6(28) . . .
30.1(29) . . .
27.3(28) . . .
29.1(28) . . .
36.4(31) . . .
34.9(32) . . .
31.9(31) . . .
28.7(28) . . .
27.5(28) . . .
28.3(28) . . .
28.3(29) . . .
27.4(30) . . .
25.7(27) . . .
34.3(31) . . .
34.3(30) . . .
26.6(28) . . .
28.2(32) . . .
25.9(27) . . .
30.7(28) . . .
37.5(32) . . .
38(4) . . .
31.1(31) . . .
37.9(34) . . .
38.3(32) . . .
24.6(27) . . .
28.0(29) . . .
33.6(33) . . .
27.1(27) . . .
39.9(33) . . .
28.4(31) . . .
27.0(28) . . .
31.5(31) . . .
31.9(30) . . .
34.5(31) . . .
19.3(23) . . .
29.3(29) . . .
31.6(29) . . .
30.9(29) . . .
32.3(30) . . .
33.0(30) . . .
29.5(28) . . .
37.0(34) . . .
29.5(29) . . .
31.5(29) . . .
31.3(30) . . .
33.8(33) . . .
23.3(27) . . .
26.2(27) . . .
38.7(33) . . .
26.8(28) . . .
27.2(29) . . .
32.3(31) . . .
32.6(34) . . .
31.5(29) . . .
32.8(32) . . .
24.2(28) . . .
25.3(29) . . .
26.3(28) . . .
28.4(28) . . .
33.0(31) . . .
26.7(29) . . .
29.3(30) . . .
32.3(32) . . .
24.4(25) . . .
31.6(30) . . .
41(4) . . .
36.0(33) . . .
32.8(30) . . .
28.3(27) . . .
34.8(33) . . .
34.4(32) . . .
36.0(33) . . .
27.3(27) . . .
30.4(30) . . .
27.6(29) . . .
31.5(33) . . .
30.6(30) . . .
34.0(31) . . .
28.3(28) . . .
32.5(31) . . .
36(4) . . .
25.3(29) . . .
33.8(31) . . .
32.5(30) . . .
30.2(28) . . .
32.4(32) . . .
27.6(28) . . .
27.6(27) . . .
31.7(31) . . .
30.7(30) . . .
26.1(28) . . .
27.1(30) . . .
41.9(33) . . .
29.9(30) . . .
28.5(30) . . .
35.9(34) . . .
23.4(27) . . .
31.5(30) . . .
34.4(32) . . .
28.8(30) . . .
30.6(30) . . .
33.5(31) . . .
30.9(29) . . .
27.5(29) . . .
34.2(34) . . .
24.5(25) . . .
39.4(32) . . .
39.0(32) . . .
29.8(31) . . .
21.4(24) . . .
25.4(27) . . .
25.6(26) . . .
31.3(29) . . .
21.4(24) . . .
27.1(30) . . .
28.0(29) . . .
28.3(27) . . .
28.0(28) . . .
27.0(28) . . .
25.0(27) . . .
35.6(32) . . .
37.7(32) . . .
35.4(31) . . .
22.3(25) . . .
26.0(30) . . .
27.3(28) . . .
33.7(30) . . .
29.7(29) . . .
36.2(34) . . .
22.0(24) . . .
27.2(30) . . .
26.3(27) . . .
29.5(29) . . .
32.3(31) . . .
27.1(31) . . .
22.1(26) . . .
35.5(31) . . .
25.8(27) . . .
34.1(32) . . .
23.9(26) . . .
27.0(28) . . .
30.0(29) . . .
30.7(30) . . .
32.0(31) . . .
29.9(29) . . .
28.5(30) . . .
19.1(23) . . .
31.5(31) . . .
32.7(30) . . .
19.7(23) . . .
31.2(30) . . .
29.1(28) . . .
34.0(32) . . .
34.8(34) . . .
28.5(29) . . .
32.2(31) . . .
27.5(28) . . .
33.7(31) . . .
28.2(28) . . .
27.4(27) . . .
29.8(28) . . .
30.9(29) . . .
32.4(31) . . .
29.5(29) . . .
35.3(33) . . .
25.1(26) . . .
30.5(31) . . .
34.8(31) . . .
31.1(31) . . .
29.2(28) . . .
29.9(28) . . .
29.8(28) . . .
33.6(30) . . .
33.4(32) . . .
30.7(31) . . .
34.8(31) . . .
28.9(28) . . .
29.5(30) . . .
29.8(30) . . .
28.4(29) . . .
27.0(28) . . .
30.0(29) . . .
31.2(30) . . .
30.9(30) . . .
35.7(32) . . .
33.3(30) . . .
30.5(29) . . .
29.0(30) . . .
25.9(26) . . .
32.1(31) . . .
27.3(27) . . .
28.0(29) . . .
24.4(29) . . .
26.0(29) . . .
27.4(30) . . .
30.0(28) . . .
32.5(31) . . .
34.0(31) . . .
39.9(34) . . .
28.2(28) . . .
31.3(30) . . .
27.5(27) . . .
35.1(32) . . .
33.2(30) . . .
26.9(27) . . .
26.1(26) . . .
27.9(28) . . .
36.7(34) . . .
35.6(32) . . .
32.1(29) . . .
33.3(30) . . .
28.5(30) . . .
30.1(30) . . .
29.0(30) . . .
27.4(27) . . .
31.3(29) . . .
29.7(28) . . .
35(4) . . .
36.4(35) . . .
28.9(28) . . .
24.7(26) . . .
29.8(29) . . .
33.0(32) . . .
35.0(35) . . .
24.5(25) . . .
36.8(32) . . .
34.9(35) . . .
27.2(29) . . .
30.9(30) . . .
30.9(29) . . .
28.6(28) . . .
35.7(30) . . .
34.4(32) . . .
37.0(32) . . .
34.2(30) . . .
29.2(28) . . .
32.1(30) . . .
32.5(31) . . .
33.4(31) . . .
27.9(28) . . .
33.8(31) . . .
31.9(30) . . .
28.2(30) . . .
32.6(32) . . .
30.6(29) . . .
27.0(27) . . .
38.8(35) . . .
37.2(34) . . .
28.1(30) . . .
32.5(30) . . .
26.2(26) . . .
30.2(30) . . .
26.9(29) . . .
23.8(26) . . .
33.2(30) . . .
27.1(27) . . .
34.9(33) . . .
33.3(34) . . .
30.7(29) . . .
29.9(29) . . .
31.7(30) . . .
27.7(30) . . .
25.9(28) . . .
32.6(31) . . .
29.8(28) . . .
29.5(29) . . .
29.0(30) . . .
30.1(29) . . .
34.5(31) . . .
37.8(32) . . .
27.9(30) . . .
20.4(24) . . .
33.4(31) . . .
29.3(28) . . .
38.3(33) . . .
29.4(29) . . .
31.1(31) . . .
29.4(29) . . .
28.7(28) . . .
38.4(32) . . .
32.2(31) . . .
33.0(33) . . .
33.5(31) . . .
34.3(30) . . .
32.2(30) . . .
23.3(25) . . .
32.5(33) . . .
24.6(26) . . .
26.8(27) . . .
29.7(29) . . .
26.8(26) . . .
31.7(31) . . .
31.2(30) . . .
33.0(30) . . .
28.3(28) . . .
34.9(32) . . .
21.1(25) . . .
24.6(27) . . .
27.8(28) . . .
25.6(27) . . .
26.5(27) . . .
33.7(33) . . .
24.9(26) . . .
25.3(26) . . .
27.7(30) . . .
28.2(29) . . .
33.8(32) . . .
23.2(28) . . .
26.1(27) . . .
29.8(30) . . .
25.1(28) . . .
25.4(27) . . .
25.8(27) . . .
24.9(27) . . .
34.0(30) . . .
30.3(29) . . .
20.8(25) . . .
29.6(29) . . .
33.9(32) . . .
28.3(29) . . .
31.5(30) . . .
31.0(29) . . .
24.0(25) . . .
36.7(32) . . .
26.5(28) . . .
24.4(29) . . .
25.5(28) . . .
28.9(29) . . .
33.9(31) . . .
32.3(30) . . .
25.0(26) . . .
40.7(35) . . .
35.9(31) . . .
33.5(30) . . .
27.5(27) . . .
26.8(29) . . .
29.2(30) . . .
28.3(28) . . .
22.0(25) . . .
29.3(30) . . .
35.4(33) . . .
36.8(34) . . .
37.2(32) . . .
35.2(32) . . .
25.2(27) . . .
32.2(30) . . .
40.1(33) . . .
24.5(26) . . .
35.9(31) . . .
28.4(27) . . .
36.2(33) . . .
26.0(28) . . .
31.1(29) . . .
30.0(30) . . .
29.3(29) . . .
27.8(28) . . .
28.1(31) . . .
28.2(28) . . .
23.8(26) . . .
29.0(30) . . .
33.6(31) . . .
26.2(28) . . .
28.6(29) . . .
31.6(30) . . .
26.5(30) . . .
27.2(29) . . .
31.7(30) . . .
27.0(28) . . .
24.3(27) . . .
33.5(35) . . .
29.3(29) . . .
28.2(28) . . .
30.4(30) . . .
24.5(26) . . .
33.0(33) . . .
23.8(26) . . .
23.9(26) . . .
29.0(29) . . .
31.2(32) . . .
25.9(29) . . .
30.2(30) . . .
25.9(27) . . .
30.0(31) . . .
27.6(29) . . .
37.1(34) . . .
34.7(31) . . .
24.9(27) . . .
22.0(25) . . .
32.5(32) . . .
30.5(31) . . .
23.1(26) . . .
32.3(30) . . .
28.0(29) . . .
25.9(27) . . .
29.6(31) . . .
21.9(25) . . .
28.4(28) . . .
27.6(28) . . .
25.8(28) . . .
36.5(33) . . .
32.4(29) . . .
24.6(26) . . .
40(4) . . .
28.4(29) . . .
29.3(28) . . .
33.2(32) . . .
29.0(29) . . .
30.0(30) . . .
25.9(28) . . .
29.5(31) . . .
27.4(27) . . .
27.7(28) . . .
36(4) . . .
21.1(25) . . .
24.9(26) . . .
33.0(30) . . .
39.5(32) . . .
31.8(30) . . .
30.5(32) . . .
25.7(27) . . .
28.2(28) . . .
32.6(29) . . .
37.7(34) . . .
26.0(26) . . .
33.4(31) . . .
25.7(28) . . .
27.6(27) . . .
33.0(34) . . .
31.9(31) . . .
32.2(30) . . .
26.4(27) . . .
38.3(32) . . .
29.1(28) . . .
30.6(30) . . .
25.9(27) . . .
27.4(27) . . .
28.2(28) . . .
32.1(32) . . .
25.3(26) . . .
32.8(31) . . .
32.1(30) . . .
25.6(28) . . .
33.8(32) . . .
29.5(28) . . .
31.6(29) . . .
39.1(32) . . .
35.5(31) . . .
33.7(32) . . .
37.8(34) . . .
38.4(33) . . .
38.1(32) . . .
25.5(26) . . .
31.5(30) . . .
31.3(30) . . .
36.9(33) . . .
26.0(26) . . .
28.0(29) . . .
33.9(35) . . .
27.9(30) . . .
24.3(25) . . .
29.0(28) . . .
22.9(26) . . .
24.7(28) . . .
30.0(29) . . .
28.8(28) . . .
29.7(28) . . .
33.1(33) . . .
34.1(31) . . .
32.9(30) . . .
33.6(30) . . .
26.4(26) . . .
28.5(28) . . .
22.0(25) . . .
28.8(30) . . .
24.8(26) . . .
27.1(27) . . .
24.0(26) . . .
25.2(30) . . .
30.5(30) . . .
27.9(28) . . .
26.6(27) . . .
31.2(31) . . .
26.4(28) . . .
24.9(26) . . .
28.0(28) . . .
23.5(25) . . .
26.9(27) . . .
29.9(29) . . .
28.1(28) . . .
24.5(28) . . .
28.2(31) . . .
24.0(26) . . .
28.5(30) . . .
37.5(34) . . .
28.4(27) . . .
31.5(29) . . .
32.8(31) . . .
34.2(32) . . .
28.2(27) . . .
35.6(30) . . .
29.0(28) . . .
34.2(32) . . .
26.9(27) . . .
30.5(29) . . .
32.4(29) . . .
29.9(32) . . .
30.2(32) . . .
28.1(28) . . .
37.5(32) . . .
31.0(29) . . .
29.4(28) . . .
24.2(25) . . .
25.7(29) . . .
24.2(27) . . .
33.0(30) . . .
28.4(28) . . .
33.5(30) . . .
37.7(34) . . .
33.1(31) . . .
27.6(28) . . .
26.2(28) . . .
23.2(26) . . .
33.7(32) . . .
36.8(34) . . .
30.5(28) . . .
41.3(33) . . .
30.8(30) . . .
28.8(29) . . .
34.0(31) . . .
34.1(30) . . .
34.4(31) . . .
23.2(25) . . .
28.1(28) . . .
32.5(30) . . .
34.0(32) . . .
28.9(31) . . .
29.0(30) . . .
32.0(31) . . .
39.8(33) . . .
31.5(30) . . .
34.0(34) . . .
32.5(32) . . .
28.3(30) . . .
26.0(26) . . .
28.1(29) . . .
27.7(29) . . .
26.4(28) . . .
27.6(28) . . .
21.7(25) . . .
34.4(33) . . .
28.3(30) . . .
26.9(30) . . .
26.9(29) . . .
29.4(29) . . .
34.8(32) . . .
30.1(29) . . .
31.8(31) . . .
32.6(30) . . .
30.9(28) . . .
28.3(29) . . .
34.5(33) . . .
35.6(31) . . .
32.4(29) . . .
26.0(27) . . .
28.4(30) . . .
29.7(31) . . .
23.5(26) . . .
32.8(30) . . .
36.4(31) . . .
25.4(27) . . .
30.2(31) . . .
30.8(30) . . .
35.0(30) . . .
32.2(29) . . .
30.4(31) . . .
28.5(30) . . .
28.8(28) . . .
26.1(27) . . .
29.0(28) . . .
34.9(31) . . .
38.7(35) . . .
30.5(30) . . .
23.7(25) . . .
34.3(32) . . .
32.5(31) . . .
34.7(32) . . .
30.8(30) . . .
32.2(30) . . .
32.3(31) . . .
23.6(26) . . .
32.0(32) . . .
32.1(32) . . .
26.2(27) . . .
29.7(30) . . .
33.4(32) . . .
23.1(25) . . .
24.9(26) . . .
29.4(28) . . .
24.3(26) . . .
23.3(27) . . .
29.0(31) . . .
24.3(27) . . .
25.8(26) . . .
28.6(28) . . .
23.8(26) . . .
27.0(27) . . .
29.8(28) . . .
29.6(28) . . .
31.4(30) . . .
32.9(31) . . .
32.8(32) . . .
33.6(31) . . .
30.7(29) . . .
32.2(30) . . .
27.2(28) . . .
23.5(25) . . .
35.0(31) . . .
28.2(28) . . .
32.3(30) . . .
31.4(32) . . .
26.0(28) . . .
31.1(29) . . .
31.8(30) . . .
26.8(27) . . .
21.5(26) . . .
24.4(26) . . .
33.8(31) . . .
40.8(34) . . .
29.0(28) . . .
33.6(34) . . .
30.8(30) . . .
32.3(30) . . .
27.1(27) . . .
31.9(32) . . .
36.0(35) . . .
33.6(32) . . .
27.1(27) . . .
25.4(27) . . .
27.6(27) . . .
25.8(27) . . .
24.7(28) . . .
33.0(30) . . .
35.0(31) . . .
35.5(33) . . .
29.4(30) . . .
20.4(25) . . .
24.4(25) . . .
29.0(28) . . .
27.8(27) . . .
31.8(31) . . .
33.3(32) . . .
24.0(26) . . .
32.2(31) . . .
26.5(27) . . .
32.8(33) . . .
25.7(27) . . .
26.6(27) . . .
26.5(29) . . .
30.8(31) . . .
29.4(30) . . .
27.7(28) . . .
33.9(30) . . .
28.5(28) . . .
34.5(34) . . .
27.6(29) . . .
23.3(25) . . .
29.4(29) . . .
28.0(28) . . .
26.3(29) . . .
29.8(31) . . .
20.5(26) . . .
22.7(25) . . .
34.7(34) . . .
35.2(34) . . .
35.1(32) . . .
32.5(30) . . .
30.3(29) . . .
38.9(34) . . .
28.0(27) . . .
31.1(30) . . .
28.0(28) . . .
27.8(27) . . .
27.4(29) . . .
31.4(30) . . .
27.6(27) . . .
29.9(29) . . .
24.8(26) . . .
34.7(32) . . .
34.5(32) . . .
36.1(32) . . .
38.9(32) . . .
32.4(29) . . .
27.9(29) . . .
31.4(33) . . .
30.7(30) . . .
36.6(32) . . .
31.3(29) . . .
31.3(31) . . .
29.6(29) . . .
27.0(27) . . .
23.7(25) . . .
32.7(31) . . .
33.0(31) . . .
34.5(32) . . .
38.7(34) . . .
23.5(25) . . .
25.4(27) . . .
24.5(26) . . .
25.8(27) . . .
33.9(30) . . .
32.0(29) . . .
26.6(29) . . .
23.2(28) . . .
28.5(29) . . .
26.0(28) . . .
29.6(28) . . .
22.5(24) . . .
25.2(27) . . .
27.8(27) . . .
26.9(27) . . .
25.5(26) . . .
26.5(30) . . .
29.7(31) . . .
29.2(29) . . .
24.5(26) . . .
26.9(27) . . .
28.0(29) . . .
31.6(31) . . .
30.1(29) . . .
28.1(27) . . .
26.9(27) . . .
25.3(28) . . .
29.8(32) . . .
22.6(27) . . .
26.5(28) . . .
30.6(30) . . .
28.1(30) . . .
27.1(29) . . .
28.7(29) . . .
27.9(28) . . .
24.4(26) . . .
23.6(25) . . .
18.9(21) . . .
27.1(28) . . .
27.2(27) . . .
35.6(31) . . .
27.5(29) . . .
27.4(29) . . .
34.3(32) . . .
30.0(29) . . .
28.2(28) . . .
27.0(30) . . .
31.6(30) . . .
35.1(31) . . .
37.6(32) . . .
26.4(27) . . .
27.5(27) . . .
28.3(28) . . .
23.0(25) . . .
24.2(25) . . .
24.9(26) . . .
33.8(30) . . .
32.4(29) . . .
20.2(24) . . .
29.7(29) . . .
28.3(29) . . .
28.1(29) . . .
33.5(31) . . .
38.2(33) . . .
33.7(30) . . .
23.3(27) . . .
30.6(32) . . .
38.5(34) . . .
36.3(32) . . .
35.0(30) . . .
29.4(29) . . .
26.9(27) . . .
31.7(30) . . .
29.8(29) . . .
25.7(26) . . .
30.9(30) . . .
33.2(32) . . .
32.2(31) . . .
27.3(28) . . .
26.8(27) . . .
31.4(31) . . .
30.8(31) . . .
31.8(31) . . .
34.1(31) . . .
28.7(27) . . .
29.5(30) . . .
25.7(27) . . .
34.9(34) . . .
28.0(28) . . .
29.7(29) . . .
26.9(29) . . .
21.0(25) . . .
32.7(31) . . .
31.4(29) . . .
36.0(33) . . .
34.5(32) . . .
34.0(31) . . .
27.0(27) . . .
34.0(30) . . .
39(4) . . .
32.8(32) . . .
27.5(28) . . .
30.8(29) . . .
27.9(28) . . .
24.1(26) . . .
28.2(29) . . .
25.8(27) . . .
33.0(30) . . .
24.4(26) . . .
38.2(33) . . .
31.5(30) . . .
32.9(32) . . .
32.3(30) . . .
44(4) . . .
27.7(29) . . .
28.4(29) . . .
30.5(29) . . .
28.3(29) . . .
26.2(27) . . .
24.1(26) . . .
33(4) . . .
26.0(27) . . .
24.9(26) . . .
26.3(27) . . .
30.8(29) . . .
30.8(31) . . .
24.4(27) . . .
20.9(24) . . .
26.8(27) . . .
31.6(34) . . .
29.9(32) . . .
33.8(31) . . .
29.9(28) . . .
26.0(26) . . .
30.6(31) . . .
28.0(28) . . .
31.5(32) . . .
26.0(27) . . .
33.5(31) . . .
35.8(32) . . .
37.0(34) . . .
34.4(31) . . .
21.6(24) . . .
25.4(27) . . .
25.5(28) . . .
30.3(32) . . .
26.9(28) . . .
26.5(27) . . .
29.6(29) . . .
28.8(29) . . .
24.6(26) . . .
29.1(29) . . .
26.6(28) . . .
27.1(27) . . .
27.6(27) . . .
21.3(25) . . .
25.7(28) . . .
25.8(27) . . .
25.6(30) . . .
35.8(34) . . .
26.5(28) . . .
28.6(28) . . .
34.1(30) . . .
26.4(27) . . .
31.9(33) . . .
23.7(26) . . .
32.4(31) . . .
26.4(27) . . .
34.6(32) . . .
32.7(31) . . .
24.8(27) . . .
26.1(26) . . .
25.5(27) . . .
26.4(28) . . .
25.7(28) . . .
36.3(33) . . .
33.0(30) . . .
32.3(29) . . .
24.9(26) . . .
29.4(31) . . .
24.4(26) . . .
25.8(27) . . .
27.2(27) . . .
25.2(26) . . .
30.8(29) . . .
38(4) . . .
26.3(27) . . .
26.5(28) . . .
31.8(34) . . .
29.0(30) . . .
27.2(29) . . .
28.9(28) . . .
26.3(27) . . .
39.5(35) . . .
39(4) . . .
23.0(25) . . .
26.7(27) . . .
27.4(28) . . .
25.5(26) . . .
27.6(28) . . .
30.6(29) . . .
33.3(30) . . .
33.9(31) . . .
29.2(30) . . .
29.3(31) . . .
27.8(29) . . .
32.0(29) . . .
20.4(24) . . .
24.1(27) . . .
24.8(26) . . .
29.0(29) . . .
36.3(32) . . .
24.2(27) . . .
27.3(31) . . .
26.6(29) . . .
38.9(32) . . .
32.0(30) . . .
32.5(29) . . .
37.9(34) . . .
32.7(31) . . .
29.2(29) . . .
27.2(27) . . .
29.1(31) . . .
27.8(31) . . .
26.8(30) . . .
25.3(27) . . .
28.6(30) . . .
26.6(28) . . .
30.2(28) . . .
36.9(31) . . .
29.6(28) . . .
28.7(29) . . .
28.6(28) . . .
29.7(29) . . .
22.9(25) . . .
29.0(27) . . .
32.3(30) . . .
29.9(30) . . .
23.5(24) . . .
32.0(29) . . .
27.1(28) . . .
25.4(27) . . .
28.0(29) . . .
28.1(27) . . .
42.4(34) . . .
33.4(30) . . .
25.8(26) . . .
27.9(28) . . .
30.1(27) . . .
33.5(31) . . .
21.6(25) . . .
31.4(33) . . .
20.2(23) . . .
31.0(30) . . .
30.3(29) . . .
36.3(31) . . .
25.8(27) . . .
32.5(30) . . .
41.4(34) . . .
32.1(29) . . .
26.7(27) . . .
31.8(30) . . .
31.0(28) . . .
31.3(30) . . .
29.3(29) . . .
33.7(30) . . .
31.5(34) . . .
28.4(31) . . .
31.1(31) . . .
21.7(24) . . .
28.5(28) . . .
29.2(29) . . .
31.9(34) . . .
28.0(29) . . .
31.9(30) . . .
25.4(26) . . .
29.9(28) . . .
32.5(31) . . .
28.6(29) . . .
28.1(28) . . .
33.7(30) . . .
38(4) . . .
28.8(29) . . .
29.3(30) . . .
26.4(27) . . .
28.2(28) . . .
24.6(28) . . .
28.4(31) . . .
31.3(32) . . .
33.4(30) . . .
28.7(27) . . .
30.1(31) . . .
27.6(27) . . .
29.9(28) . . .
34.5(30) . . .
30.4(29) . . .
39(4) . . .
34.5(32) . . .
38.8(35) . . .
39.1(32) . . .
26.4(29) . . .
27.2(29) . . .
32.7(32) . . .
36.8(32) . . .
33.0(30) . . .
27.6(29) . . .
26.3(27) . . .
40.8(34) . . .
28.3(27) . . .
22.4(25) . . .
42(4) . . .
25.3(28) . . .
31.2(32) . . .
33.0(30) . . .
26.9(27) . . .
33.3(34) . . .
25.9(31) . . .
27.5(29) . . .
34.7(31) . . .
32.3(30) . . .
28.0(29) . . .
37(4) . . .
28.1(28) . . .
28.3(28) . . .
38.4(32) . . .
23.1(25) . . .
27.1(30) . . .
36.3(33) . . .
30.7(29) . . .
27.2(27) . . .
32.4(31) . . .
32.7(31) . . .
31.9(30) . . .
35.8(32) . . .
23.5(24) . . .
24.6(27) . . .
25.5(27) . . .
25.1(27) . . .
28.9(28) . . .
31.8(31) . . .
31.8(31) . . .
22.8(27) . . .
27.4(29) . . .
31.0(29) . . .
30.5(31) . . .
27.1(28) . . .
24.9(28) . . .
27.7(28) . . .
31.3(29) . . .
31.0(30) . . .
22.7(25) . . .
25.5(27) . . .
29.5(30) . . .
25.9(26) . . .
35.5(32) . . .
21.9(25) . . .
24.7(28) . . .
35.4(31) . . .
30.3(29) . . .
29.4(28) . . .
28.8(30) . . .
34.3(34) . . .
27.0(27) . . .
24.0(25) . . .
28.1(28) . . .
26.5(28) . . .
25.6(28) . . .
23.2(25) . . .
36.1(32) . . .
28.7(30) . . .
30.5(33) . . .
28.4(27) . . .
35.0(31) . . .
28.3(29) . . .
22.7(24) . . .
28.8(30) . . .
27.7(32) . . .
26.3(27) . . .
30.1(29) . . .
33.6(31) . . .
23.8(27) . . .
24.1(27) . . .
29.3(28) . . .
33.2(31) . . .
32.6(31) . . .
26.9(29) . . .
27.0(27) . . .
34.0(30) . . .
30.9(30) . . .
26.5(28) . . .
35.2(32) . . .
27.1(27) . . .
18.7(22) . . .
25.0(26) . . .
29.5(28) . . .
32.0(31) . . .
20.9(26) . . .
31.7(29) . . .
34.9(33) . . .
35.2(33) . . .
29.9(28) . . .
29.4(28) . . .
25.4(26) . . .
24.6(26) . . .
25.3(26) . . .
37.0(33) . . .
39.7(33) . . .
26.0(27) . . .
27.0(29) . . .
27.4(30) . . .
28.7(30) . . .
30.6(29) . . .
31.1(31) . . .
29.3(30) . . .
30.2(33) . . .
33.9(31) . . .
27.9(28) . . .
30.6(29) . . .
29.7(28) . . .
27.5(28) . . .
30.7(30) . . .
30.8(29) . . .
32.5(30) . . .
33.4(31) . . .
30.8(29) . . .
31.2(29) . . .
31.7(29) . . .
29.2(28) . . .
32.3(31) . . .
26.3(27) . . .
22.5(25) . . .
33.5(30) . . .
33.2(30) . . .
25.0(26) . . .
29.0(30) . . .
27.0(28) . . .
32.7(30) . . .
30.0(29) . . .
28.9(29) . . .
29.5(31) . . .
33.3(32) . . .
29.0(28) . . .
28.9(28) . . .
23.8(27) . . .
20.8(23) . . .
36.0(33) . . .
32.0(30) . . .
29.5(31) . . .
32.1(29) . . .
27.0(27) . . .
24.0(26) . . .
34.8(32) . . .
30.6(31) . . .
28.5(29) . . .
26.7(30) . . .
22.0(25) . . .
25.1(26) . . .
26.9(27) . . .
34.8(33) . . .
23.8(24) . . .
28.4(29) . . .
25.1(26) . . .
37.7(32) . . .
41(4) . . .
37.4(33) . . .
38.4(33) . . .
32.7(29) . . .
33.8(32) . . .
32.4(33) . . .
36.0(33) . . .
36.6(31) . . .
31.2(30) . . .
27.0(29) . . .
26.2(29) . . .
32.3(31) . . .
26.9(28) . . .
33.7(30) . . .
34.9(32) . . .
29.5(29) . . .
38.2(32) . . .
35.9(31) . . .
24.5(26) . . .
32.0(31) . . .
28.4(31) . . .
27.5(29) . . .
20.7(24) . . .
27.2(28) . . .
27.3(29) . . .
26.6(27) . . .
23.3(25) . . .
24.5(25) . . .
31.7(31) . . .
25.3(27) . . .
29.1(30) . . .
24.6(27) . . .
36.2(32) . . .
28.7(28) . . .
23.9(25) . . .
30.5(31) . . .
34.0(31) . . .
23.7(25) . . .
29.2(30) . . .
30.0(31) . . .
32.0(32) . . .
30.1(29) . . .
26.1(27) . . .
27.0(28) . . .
28.4(29) . . .
30.3(31) . . .
33.8(31) . . .
27.9(28) . . .
25.9(27) . . .
32.7(31) . . .
27.0(27) . . .
33.0(30) . . .
26.1(27) . . .
27.1(29) . . .
20.6(26) . . .
30.9(30) . . .
32.3(30) . . .
30.7(29) . . .
30.6(29) . . .
28.8(32) . . .
30.0(29) . . .
36.3(32) . . .
23.5(25) . . .
27.6(27) . . .
22.8(28) . . .
28.6(30) . . .
30.0(29) . . .
34.3(31) . . .
26.3(27) . . .
27.0(29) . . .
30.2(30) . . .
38.6(33) . . .
37.7(32) . . .
28.8(29) . . .
27.8(29) . . .
34.3(31) . . .
36.6(32) . . .
26.1(27) . . .
30.0(30) . . .
25.4(28) . . .
24.6(26) . . .
33.1(31) . . .
34.0(31) . . .
29.1(31) . . .
25.1(27) . . .
24.9(26) . . .
29.9(28) . . .
31.9(31) . . .
28.1(31) . . .
31.1(32) . . .
23.0(26) . . .
27.6(28) . . .
29.3(30) . . .
32.9(32) . . .
24.6(27) . . .
33.8(30) . . .
22.7(26) . . .
31.3(32) . . .
34.7(34) . . .
26.9(28) . . .
37.5(32) . . .
35.1(32) . . .
30.2(30) . . .
23.5(27) . . .
29.3(28) . . .
36.0(31) . . .
33.1(31) . . .
40(4) . . .
38.0(35) . . .
32.9(31) . . .
31.0(29) . . .
29.1(29) . . .
18.1(22) . . .
30.6(33) . . .
31.2(29) . . .
28.0(28) . . .
25.2(26) . . .
21.6(25) . . .
30.2(31) . . .
21.8(25) . . .
27.7(28) . . .
30.1(30) . . .
27.8(27) . . .
30.4(31) . . .
31.7(31) . . .
28.4(28) . . .
24.5(26) . . .
30.4(31) . . .
31.4(30) . . .
35.0(33) . . .
34.1(30) . . .
30.6(29) . . .
32.0(30) . . .
29.9(28) . . .
28.0(28) . . .
26.4(27) . . .
27.1(29) . . .
21.3(26) . . .
27.7(28) . . .
29.0(29) . . .
22.5(25) . . .
20.4(23) . . .
30.7(30) . . .
27.2(28) . . .
29.5(29) . . .
27.0(28) . . .
24.1(26) . . .
29.6(29) . . .
30.3(30) . . .
29.7(31) . . .
22.9(25) . . .
32.1(30) . . .
34.2(33) . . .
34.8(32) . . .
32.3(30) . . .
22.7(25) . . .
31.9(31) . . .
33.8(31) . . .
26.1(27) . . .
24.9(26) . . .
31.1(29) . . .
28.3(27) . . .
30.7(30) . . .
31.6(30) . . .
28.5(28) . . .
34.3(30) . . .
32.9(30) . . .
31.7(31) . . .
37.7(34) . . .
32.6(31) . . .
30.8(30) . . .
29.0(31) . . .
22.6(25) . . .
34.4(31) . . .
28.7(28) . . .
30.4(31) . . .
21.7(25) . . .
25.2(29) . . .
28.6(28) . . .
31.9(29) . . .
25.5(26) . . .
29.0(29) . . .
28.7(29) . . .
34.7(33) . . .
27.6(28) . . .
21.0(24) . . .
30.2(30) . . .
35.3(34) . . .
26.4(27) . . .
31.9(30) . . .
23.7(25) . . .
31.1(32) . . .
33.2(31) . . .
26.4(27) . . .
25.5(26) . . .
26.9(27) . . .
23.1(26) . . .
30.4(32) . . .
29.9(29) . . .
31.9(29) . . .
31.5(30) . . .
29.6(30) . . .
29.6(29) . . .
24.8(26) . . .
24.7(26) . . .
29.7(29) . . .
33.1(31) . . .
32.0(31) . . .
29.8(28) . . .
37.3(33) . . .
33.0(31) . . .
25.8(29) . . .
32.3(31) . . .
32.7(31) . . .
27.3(27) . . .
32.4(31) . . .
27.2(28) . . .
32.8(30) . . .
18.5(25) . . .
23.6(27) . . .
27.4(30) . . .
27.1(31) . . .
30.8(30) . . .
32.7(29) . . .
34.0(33) . . .
31.6(29) . . .
33.5(31) . . .
26.7(29) . . .
30.4(29) . . .
25.4(26) . . .
25.0(27) . . .
27.8(28) . . .
28.2(28) . . .
31.9(30) . . .
29.9(28) . . .
30.3(30) . . .
32.3(31) . . .
35.9(32) . . .
29.0(29) . . .
38.8(34) . . .
32.8(31) . . .
26.3(28) . . .
20.4(23) . . .
28.0(28) . . .
31.6(31) . . .
28.1(29) . . .
31.0(30) . . .
30.2(30) . . .
22.9(24) . . .
33.7(31) . . .
32.9(33) . . .
28.6(29) . . .
28.3(28) . . .
30.8(29) . . .
25.2(26) . . .
27.5(29) . . .
29.2(28) . . .
29.8(29) . . .
29.2(28) . . .
33.5(32) . . .
30.9(32) . . .
29.7(30) . . .
23.3(26) . . .
23.0(25) . . .
27.1(29) . . .
31.9(34) . . .
30.7(32) . . .
33.0(31) . . .
31.0(31) . . .
28.7(29) . . .
30.6(30) . . .
33.6(33) . . .
26.1(27) . . .
34.6(31) . . .
37(4) . . .
28.5(30) . . .
24.7(27) . . .
23.7(26) . . .
34.1(31) . . .
30.4(30) . . .
28.7(28) . . .
29.4(29) . . .
32.2(30) . . .
28.3(29) . . .
26.7(29) . . .
26.4(29) . . .
22.0(25) . . .
26.4(27) . . .
29.2(30) . . .
31.7(30) . . .
34.2(31) . . .
22.8(25) . . .
24.1(26) . . .
31.3(30) . . .
30.4(30) . . .
27.1(29) . . .
27.3(29) . . .
28.1(27) . . .
31.5(32) . . .
33.0(31) . . .
33.7(32) . . .
27.6(27) . . .
36.0(32) . . .
31.0(31) . . .
28.1(28) . . .
28.6(28) . . .
35.6(32) . . .
33.5(30) . . .
37(4) . . .
25.8(28) . . .
25.9(26) . . .
37.0(32) . . .
24.3(26) . . .
33.0(30) . . .
36.7(33) . . .
24.2(26) . . .
28.2(27) . . .
37.8(33) . . .
25.0(27) . . .
24.5(28) . . .
28.0(29) . . .
23.5(26) . . .
29.2(29) . . .
28.9(27) . . .
33.7(31) . . .
31.3(30) . . .
33.6(30) . . .
46(4) . . .
29.0(29) . . .
28.0(27) . . .
24.4(26) . . .
26.4(27) . . .
33.3(32) . . .
31.5(30) . . .
31.2(32) . . .
28.7(28) . . .
29.8(28) . . .
40(4) . . .
29.7(29) . . .
35.8(33) . . .
27.1(27) . . .
31.0(29) . . .
28.2(28) . . .
31.0(32) . . .
33.2(33) . . .
25.6(26) . . .
32.2(29) . . .
28.8(28) . . .
34.7(33) . . .
30.1(30) . . .
30.5(29) . . .
33.5(30) . . .
25.8(26) . . .
35.0(33) . . .
35.2(32) . . .
27.5(28) . . .
31.2(29) . . .
32.6(30) . . .
26.5(27) . . .
24.4(26) . . .
27.8(27) . . .
26.3(26) . . .
29.4(28) . . .
41(4) . . .
25.4(26) . . .
31.9(29) . . .
27.1(27) . . .
39(4) . . .
29.7(29) . . .
24.7(25) . . .
34.1(30) . . .
39.3(33) . . .
31.8(30) . . .
33.0(31) . . .
23.3(26) . . .
30.0(29) . . .
41.1(34) . . .
38.4(33) . . .
24.9(27) . . .
40(4) . . .
25.8(27) . . .
25.3(27) . . .
33.1(30) . . .
40.0(34) . . .
21.8(24) . . .
29.2(28) . . .
30.7(30) . . .
41(4) . . .
30.0(29) . . .
27.7(29) . . .
32.5(30) . . .
34.9(31) . . .
23.9(27) . . .
22.0(26) . . .
27.4(27) . . .
31.9(30) . . .
25.2(29) . . .
27.2(30) . . .
34.2(34) . . .
20.7(23) . . .
25.5(27) . . .
28.3(29) . . .
25.5(27) . . .
33.9(31) . . .
33.2(30) . . .
29.3(28) . . .
34.1(32) . . .
33.3(32) . . .
32.7(31) . . .
28.7(28) . . .
22.6(25) . . .
33.2(31) . . .
28.1(29) . . .
21.1(24) . . .
35.0(32) . . .
22.4(27) . . .
24.9(26) . . .
27.5(28) . . .
32.7(29) . . .
36.0(31) . . .
34.2(31) . . .
22.4(26) . . .
33.5(34) . . .
25.4(29) . . .
22.0(24) . . .
33.9(32) . . .
28.3(28) . . .
30.4(31) . . .
24.7(26) . . .
32.9(30) . . .
28.1(29) . . .
31.5(30) . . .
26.9(28) . . .
23.7(25) . . .
23.8(26) . . .
25.7(27) . . .
27.4(31) . . .
27.0(28) . . .
29.8(28) . . .
29.7(29) . . .
27.1(28) . . .
22.7(25) . . .
29.8(28) . . .
27.4(28) . . .
31.9(30) . . .
31.1(30) . . .
33.2(34) . . .
24.8(28) . . .
30.5(30) . . .
33.4(30) . . .
20.6(25) . . .
23.3(27) . . .
27.8(28) . . .
27.4(27) . . .
24.7(27) . . .
27.3(27) . . .
29.4(31) . . .
23.1(24) . . .
36.5(31) . . .
31.1(29) . . .
28.8(29) . . .
28.4(30) . . .
37(4) . . .
27.3(28) . . .
26.7(27) . . .
35.1(31) . . .
23.8(26) . . .
25.6(27) . . .
28.2(27) . . .
34.8(30) . . .
28.7(28) . . .
31.8(32) . . .
31.5(30) . . .
26.2(27) . . .
29.5(30) . . .
29.2(29) . . .
31.5(29) . . .
35.3(33) . . .
28.0(27) . . .
25.9(27) . . .
26.1(27) . . .
33.1(32) . . .
36.2(34) . . .
31.3(29) . . .
21.7(24) . . .
37.1(34) . . .
32.0(30) . . .
25.6(26) . . .
23.7(26) . . .
29.8(30) . . .
32.8(31) . . .
28.3(27) . . .
25.4(27) . . .
18.5(23) . . .
26.4(29) . . .
29.0(31) . . .
17.5(22) . . .
18.3(23) . . .
30.5(29) . . .
29.1(29) . . .
29.5(31) . . .
32.5(31) . . .
29.1(29) . . .
29.6(28) . . .
34.2(31) . . .
28.7(28) . . .
28.7(27) . . .
32.4(31) . . .
25.0(26) . . .
23.5(25) . . .
30.4(29) . . .
33.2(30) . . .
31.8(29) . . .
30.7(29) . . .
34.5(33) . . .
32.7(32) . . .
30.1(28) . . .
28.0(29) . . .
35.0(31) . . .
29.3(31) . . .
21.9(25) . . .
32.3(31) . . .
33.2(30) . . .
24.0(27) . . .
26.0(27) . . .
37.0(35) . . .
36.7(33) . . .
28.7(27) . . .
39.7(34) . . .
27.4(28) . . .
31.8(31) . . .
31.0(29) . . .
27.5(28) . . .
28.2(28) . . .
32.6(32) . . .
35(4) . . .
35.6(34) . . .
27.9(28) . . .
32.2(30) . . .
35.8(34) . . .
30.2(29) . . .
29.7(28) . . .
31.0(29) . . .
30.9(29) . . .
31.9(30) . . .
33.1(31) . . .
29.1(29) . . .
24.1(25) . . .
26.6(28) . . .
34.4(34) . . .
27.1(27) . . .
31.9(30) . . .
28.3(27) . . .
29.7(30) . . .
27.7(27) . . .
27.1(28) . . .
33.6(31) . . .
41.0(33) . . .
28.7(30) . . .
25.2(26) . . .
36.2(33) . . .
23.3(26) . . .
31.4(29) . . .
29.9(30) . . .
23.9(28) . . .
26.7(28) . . .
33.1(31) . . .
30.4(29) . . .
27.5(27) . . .
28.1(29) . . .
32.9(31) . . .
28.6(29) . . .
26.9(27) . . .
34.0(32) . . .
29.3(28) . . .
28.2(29) . . .
32.1(30) . . .
25.5(28) . . .
30.7(29) . . .
32.2(31) . . .
31.3(31) . . .
32.6(30) . . .
33.5(30) . . .
32.0(31) . . .
28.6(30) . . .
31.0(29) . . .
25.7(27) . . .
31.9(30) . . .
21.9(24) . . .
31.7(31) . . .
36.3(32) . . .
34.5(31) . . .
26.1(30) . . .
32.0(31) . . .
33.7(32) . . .
30.5(29) . . .
28.6(28) . . .
28.5(31) . . .
32.2(30) . . .
24.0(25) . . .
27.9(29) . . .
26.4(27) . . .
26.1(27) . . .
30.5(31) . . .
26.9(27) . . .
22.9(25) . . .
29.2(29) . . .
37.7(34) . . .
29.0(31) . . .
35.0(32) . . .
33.0(29) . . .
30.0(29) . . .
24.1(29) . . .
30.7(34) . . .
26.6(27) . . .
37.9(32) . . .
26.9(27) . . .
35.9(33) . . .
29.8(31) . . .
26.6(28) . . .
30.7(29) . . .
28.5(28) . . .
29.3(29) . . .
26.1(29) . . .
28.3(30) . . .
30.4(29) . . .
34.3(31) . . .
30.5(29) . . .
33.4(31) . . .
28.4(28) . . .
28.9(28) . . .
40.2(34) . . .
36.5(35) . . .
33.2(32) . . .
25.1(26) . . .
28.0(28) . . .
34.0(30) . . .
30.3(31) . . .
26.1(27) . . .
31.6(29) . . .
36.3(32) . . .
29.3(30) . . .
30.8(31) . . .
31.1(30) . . .
34.2(31) . . .
28.4(28) . . .
25.8(27) . . .
32.0(32) . . .
28.1(28) . . .
31.2(29) . . .
32.5(30) . . .
27.0(29) . . .
22.8(25) . . .
25.2(29) . . .
25.0(26) . . .
29.9(29) . . .
26.3(27) . . .
23.2(28) . . .
25.4(28) . . .
29.9(30) . . .
30.0(29) . . .
25.1(26) . . .
28.2(31) . . .
26.9(27) . . .
26.2(27) . . .
29.4(29) . . .
29.5(31) . . .
32.6(32) . . .
29.4(30) . . .
25.2(26) . . .
28.9(29) . . .
26.0(26) . . .
29.9(33) . . .
32.7(32) . . .
30.0(29) . . .
30.8(29) . . .
26.3(27) . . .
31.1(30) . . .
27.8(29) . . .
24.8(26) . . .
28.2(31) . . .
27.6(31) . . .
31.0(29) . . .
27.6(27) . . .
42.0(34) . . .
34.8(32) . . .
27.8(29) . . .
27.6(28) . . .
36.4(34) . . .
25.3(26) . . .
22.6(25) . . .
25.5(27) . . .
34.2(31) . . .
35.1(32) . . .
29.9(29) . . .
30.4(30) . . .
27.3(27) . . .
29.5(32) . . .
31.0(30) . . .
30.3(29) . . .
27.7(29) . . .
22.2(26) . . .
28.3(29) . . .
24.0(25) . . .
32.8(30) . . .
27.9(28) . . .
25.4(28) . . .
22.7(25) . . .
30.6(29) . . .
27.9(27) . . .
28.0(27) . . .
30.4(31) . . .
26.1(26) . . .
35.8(32) . . .
33.8(31) . . .
25.7(26) . . .
28.3(30) . . .
30.0(30) . . .
30.6(29) . . .
27.9(27) . . .
32.6(31) . . .
29.7(30) . . .
34.3(32) . . .
37.4(32) . . .
25.1(26) . . .
30.8(29) . . .
30.9(29) . . .
32.5(30) . . .
40.9(33) . . .
27.3(28) . . .
33.3(33) . . .
25.6(27) . . .
34.4(32) . . .
29.1(28) . . .
22.9(25) . . .
24.8(27) . . .
20.7(23) . . .
26.9(28) . . .
39.5(33) . . .
33.4(31) . . .
26.9(27) . . .
33.4(32) . . .
29.9(31) . . .
31.0(29) . . .
31.1(29) . . .
23.6(25) . . .
30.8(31) . . .
31.5(31) . . .
28.9(28) . . .
34.4(33) . . .
21.3(25) . . .
25.9(28) . . .
37.0(34) . . .
24.2(26) . . .
34.5(33) . . .
24.5(27) . . .
26.2(29) . . .
28.3(28) . . .
28.9(28) . . .
22.9(27) . . .
20.0(25) . . .
26.6(28) . . .
33.1(31) . . .
27.1(27) . . .
23.5(26) . . .
21.4(25) . . .
35.7(34) . . .
26.5(27) . . .
33.2(30) . . .
23.1(24) . . .
26.6(28) . . .
31.4(30) . . .
31.5(29) . . .
30.4(29) . . .
30.6(30) . . .
24.5(28) . . .
27.0(29) . . .
31.6(29) . . .
34.0(31) . . .
30.5(29) . . .
25.8(28) . . .
25.4(28) . . .
19.5(23) . . .
21.6(26) . . .
32.2(31) . . .
19.6(23) . . .
29.9(30) . . .
31.9(30) . . .
29.3(28) . . .
24.4(26) . . .
26.9(29) . . .
22.4(24) . . .
27.5(28) . . .
24.3(28) . . .
27.5(29) . . .
33.8(32) . . .
33.1(31) . . .
29.9(29) . . .
28.2(31) . . .
25.2(27) . . .
36.0(33) . . .
24.0(26) . . .
29.8(29) . . .
32.8(31) . . .
24.8(27) . . .
26.9(27) . . .
27.0(27) . . .
25.1(27) . . .
33.0(31) . . .
24.3(27) . . .
22.5(26) . . .
28.0(28) . . .
35.5(31) . . .
26.8(28) . . .
27.0(30) . . .
26.0(28) . . .
30.3(28) . . .
36.0(32) . . .
30.9(30) . . .
35.1(33) . . .
35.6(31) . . .
35.6(31) . . .
30.6(29) . . .
23.3(26) . . .
25.7(27) . . .
27.8(28) . . .
24.4(26) . . .
32.9(30) . . .
26.8(27) . . .
32.0(32) . . .
27.8(28) . . .
20.9(24) . . .
20.2(24) . . .
26.8(28) . . .
23.7(26) . . .
28.3(30) . . .
24.0(26) . . .
25.3(27) . . .
28.0(29) . . .
27.6(28) . . .
27.2(28) . . .
31.3(29) . . .
28.0(28) . . .
33.5(33) . . .
24.6(27) . . .
24.7(26) . . .
23.7(25) . . .
28.9(29) . . .
32.7(32) . . .
27.8(29) . . .
25.2(27) . . .
24.0(25) . . .
23.2(28) . . .
23.7(26) . . .
26.7(28) . . .
27.7(27) . . .
28.9(28) . . .
28.8(29) . . .
38(4) . . .
35.0(32) . . .
26.2(27) . . .
23.1(25) . . .
25.2(28) . . .
24.6(28) . . .
30.5(31) . . .
32.9(30) . . .
31.5(30) . . .
31.9(30) . . .
34.0(34) . . .
27.2(30) . . .
27.0(27) . . .
27.9(27) . . .
28.0(30) . . .
22.2(25) . . .
31.2(31) . . .
30.6(30) . . .
30.8(29) . . .
38.4(34) . . .
33.4(30) . . .
25.6(28) . . .
27.0(27) . . .
28.8(28) . . .
27.0(29) . . .
24.9(26) . . .
28.1(28) . . .
21.1(24) . . .
24.4(26) . . .
30.5(30) . . .
30.8(31) . . .
23.9(26) . . .
25.4(26) . . .
21.7(24) . . .
32.5(33) . . .
29.4(30) . . .
25.6(26) . . .
21.0(24) . . .
33.5(32) . . .
28.0(27) . . .
31.9(30) . . .
28.0(28) . . .
30.9(29) . . .
34.5(32) . . .
27.5(28) . . .
34.2(32) . . .
27.4(27) . . .
24.0(26) . . .
20.8(26) . . .
23.2(26) . . .
36.5(34) . . .
26.0(28) . . .
27.3(29) . . .
17.8(23) . . .
26.4(30) . . .
28.8(29) . . .
26.6(27) . . .
26.8(27) . . .
35.1(34) . . .
23.9(28) . . .
37.0(33) . . .
25.5(26) . . .
22.0(24) . . .
31.8(35) . . .
26.8(31) . . .
33.1(31) . . .
37.2(32) . . .
26.7(28) . . .
27.6(29) . . .
26.5(28) . . .
29.7(29) . . .
33.0(29) . . .
33.1(30) . . .
29.6(30) . . .
33.0(34) . . .
33.3(30) . . .
29.5(29) . . .
36.7(33) . . .
28.6(29) . . .
31.1(30) . . .
28.5(28) . . .
21.9(25) . . .
36.6(34) . . .
29.2(29) . . .
27.2(29) . . .
26.3(27) . . .
26.5(27) . . .
26.9(28) . . .
36.5(33) . . .
28.7(28) . . .
25.9(29) . . .
32.7(30) . . .
32.1(30) . . .
30.4(31) . . .
31.7(32) . . .
27.9(27) . . .
33.4(30) . . .
29.8(31) . . .
23.3(26) . . .
24.2(25) . . .
26.9(27) . . .
30.6(29) . . .
36.6(33) . . .
29.3(30) . . .
23.0(25) . . .
28.5(29) . . .
26.2(27) . . .
33.4(32) . . .
25.9(26) . . .
35.8(33) . . .
26.1(27) . . .
23.6(26) . . .
27.0(28) . . .
25.5(30) . . .
20.5(23) . . .
29.2(28) . . .
37.0(32) . . .
29.2(29) . . .
25.1(26) . . .
38.9(34) . . .
29.7(29) . . .
32.4(31) . . .
26.0(27) . . .
30.0(30) . . .
26.8(31) . . .
31.5(29) . . .
32.2(30) . . .
29.6(29) . . .
30.5(30) . . .
31.0(29) . . .
38.7(33) . . .
25.3(27) . . .
29.1(31) . . .
30.1(30) . . .
28.0(27) . . .
30.5(29) . . .
28.1(32) . . .
17.7(23) . . .
23.9(27) . . .
25.5(27) . . .
26.4(27) . . .
27.5(28) . . .
27.4(28) . . .
27.8(30) . . .
22.4(24) . . .
23.6(25) . . .
30.9(30) . . .
33.5(31) . . .
31.0(29) . . .
28.7(28) . . .
31.2(29) . . .
22.4(25) . . .
27.7(29) . . .
21.3(25) . . .
18.9(23) . . .
23.4(25) . . .
23.6(27) . . .
27.3(29) . . .
22.8(25) . . .
23.3(25) . . .
24.2(25) . . .
23.1(24) . . .
33.8(34) . . .
31.4(29) . . .
35.4(31) . . .
27.0(28) . . .
29.5(29) . . .
25.9(29) . . .
26.2(27) . . .
32.2(29) . . .
34.6(30) . . .
34.5(30) . . .
31.6(31) . . .
26.6(30) . . .
24.6(26) . . .
29.0(28) . . .
31.6(31) . . .
32.9(32) . . .
30.0(28) . . .
24.4(25) . . .
28.5(29) . . .
32.2(29) . . .
32.5(30) . . .
25.0(26) . . .
29.8(28) . . .
35.2(33) . . .
35.4(34) . . .
21.0(24) . . .
30.5(30) . . .
32.2(29) . . .
35.5(32) . . .
23.7(27) . . .
27.5(28) . . .
29.1(29) . . .
26.8(27) . . .
34(4) . . .
19.3(24) . . .
34.6(34) . . .
34.3(31) . . .
29.7(29) . . .
27.8(30) . . .
27.3(28) . . .
34.2(32) . . .
28.0(27) . . .
22.5(25) . . .
27.5(28) . . .
26.1(29) . . .
21.2(25) . . .
26.3(27) . . .
25.5(28) . . .
31.4(30) . . .
30.1(32) . . .
27.9(30) . . .
32.8(30) . . .
23.3(26) . . .
36.4(34) . . .
29.6(29) . . .
31.7(30) . . .
29.9(28) . . .
31.4(30) . . .
28.0(28) . . .
29.4(30) . . .
24.9(26) . . .
28.3(28) . . .
36.1(32) . . .
27.5(27) . . .
30.2(30) . . .
33.7(30) . . .
26.1(27) . . .
33.5(30) . . .
31.9(30) . . .
23.4(25) . . .
30.0(29) . . .
30.8(29) . . .
29.4(29) . . .
21.0(24) . . .
24.8(27) . . .
32.2(32) . . .
32.6(32) . . .
27.1(30) . . .
34.8(33) . . .
36.3(33) . . .
37.4(33) . . .
29.8(29) . . .
34.8(32) . . .
28.9(29) . . .
35.8(35) . . .
30.0(31) . . .
30.7(29) . . .
29.4(29) . . .
32.3(32) . . .
32.6(31) . . .
31.6(29) . . .
32.4(29) . . .
30.6(29) . . .
31.6(31) . . .
35.0(32) . . .
28.8(28) . . .
23.1(25) . . .
27.0(28) . . .
28.3(31) . . .
20.2(25) . . .
24.0(27) . . .
30.3(28) . . .
21.1(24) . . .
27.2(28) . . .
30.2(29) . . .
24.0(26) . . .
29.5(29) . . .
19.4(24) . . .
22.0(24) . . .
35.8(33) . . .
28.1(27) . . .
31.2(29) . . .
30.1(29) . . .
37(4) . . .
37.1(35) . . .
36.6(31) . . .
41.9(33) . . .
33.3(30) . . .
32.8(30) . . .
26.0(26) . . .
29.5(28) . . .
30.3(30) . . .
29.4(32) . . .
21.2(26) . . .
27.0(28) . . .
33.7(30) . . .
34.7(31) . . .
31.8(32) . . .
35.6(33) . . .
31.2(29) . . .
27.8(28) . . .
28.1(28) . . .
24.1(27) . . .
29.9(29) . . .
24.9(26) . . .
25.5(27) . . .
33.1(34) . . .
24.7(28) . . .
28.3(28) . . .
30.4(31) . . .
24.0(26) . . .
31.2(31) . . .
34.4(34) . . .
27.1(29) . . .
30.6(30) . . .
26.4(27) . . .
29.5(30) . . .
30.3(31) . . .
36.2(33) . . .
28.5(28) . . .
25.7(26) . . .
36.7(31) . . .
33.6(33) . . .
27.6(28) . . .
31.2(29) . . .
22.9(25) . . .
23.6(26) . . .
28.8(31) . . .
32.2(31) . . .
31.6(29) . . .
32.0(30) . . .
31.1(30) . . .
34.5(32) . . .
33.9(31) . . .
29.6(29) . . .
28.5(29) . . .
32.0(33) . . .
30.0(31) . . .
23.7(28) . . .
32.2(30) . . .
28.2(28) . . .
24.2(26) . . .
31.4(31) . . .
28.9(30) . . .
24.9(27) . . .
27.7(28) . . .
29.0(30) . . .
26.5(26) . . .
34.8(31) . . .
26.0(26) . . .
36.7(33) . . .
34.9(33) . . .
27.3(28) . . .
32.7(31) . . .
27.5(27) . . .
34.9(34) . . .
31.6(31) . . .
34.1(31) . . .
30.5(29) . . .
29.1(28) . . .
28.8(28) . . .
32(4) . . .
31.8(30) . . .
26.1(27) . . .
31.4(29) . . .
27.1(28) . . .
29.0(30) . . .
24.1(25) . . .
31.3(30) . . .
30.3(29) . . .
35.5(34) . . .
21.0(25) . . .
29.7(29) . . .
30.1(30) . . .
29.9(29) . . .
30.6(31) . . .
29.6(32) . . .
27.3(29) . . .
23.6(25) . . .
33.1(32) . . .
32.8(31) . . .
33.3(32) . . .
31.7(30) . . .
22.7(25) . . .
29.5(30) . . .
20.4(23) . . .
37.1(34) . . .
33.5(31) . . .
24.4(26) . . .
27.8(27) . . .
25.9(27) . . .
28.2(28) . . .
25.1(27) . . .
33.8(30) . . .
32.4(32) . . .
24.4(27) . . .
24.8(27) . . .
23.9(25) . . .
32.8(30) . . .
29.5(30) . . .
31.1(32) . . .
28.2(28) . . .
31.8(30) . . .
27.9(28) . . .
31.6(30) . . .
31.9(31) . . .
38.6(34) . . .
29.5(28) . . .
29.4(28) . . .
34.8(33) . . .
25.6(27) . . .
31.7(29) . . .
30.4(29) . . .
26.5(27) . . .
19.0(23) . . .
30.4(31) . . .
33.6(31) . . .
27.3(27) . . .
29.8(29) . . .
21.2(24) . . .
24.9(31) . . .
26.8(30) . . .
29.1(28) . . .
28.5(28) . . .
24.7(27) . . .
28.4(30) . . .
33.5(31) . . .
34.6(30) . . .
25.7(27) . . .
28.3(29) . . .
36.8(34) . . .
29.8(30) . . .
32.0(30) . . .
25.4(26) . . .
35.3(33) . . .
25.9(27) . . .
28.5(30) . . .
27.4(27) . . .
25.7(28) . . .
21.5(26) . . .
28.2(30) . . .
29.5(30) . . .
34.7(31) . . .
27.6(29) . . .
24.3(26) . . .
32.4(32) . . .
27.8(28) . . .
19.4(24) . . .
28.5(28) . . .
32.8(32) . . .
28.1(29) . . .
18.1(22) . . .
21.8(26) . . .
19.0(22) . . .
31.4(32) . . .
28.4(29) . . .
22.5(25) . . .
30.2(28) . . .
24.1(26) . . .
28.5(31) . . .
33.1(32) . . .
32.2(30) . . .
32.1(30) . . .
29.2(28) . . .
25.6(26) . . .
31.1(30) . . .
22.5(25) . . .
27.2(26) . . .
29.2(29) . . .
24.6(27) . . .
31.3(29) . . .
29.1(28) . . .
32.7(30) . . .
33.2(33) . . .
30.7(31) . . .
30.8(31) . . .
28.9(29) . . .
34.8(31) . . .
29.2(29) . . .
26.6(29) . . .
35.4(33) . . .
22.3(25) . . .
24.4(26) . . .
32.0(31) . . .
30.5(30) . . .
29.9(30) . . .
30.4(29) . . .
30.6(29) . . .
38(4) . . .
30.9(32) . . .
22.1(24) . . .
28.3(28) . . .
35.8(32) . . .
32.7(32) . . .
26.3(27) . . .
29.4(30) . . .
29.8(29) . . .
35.5(34) . . .
27.6(29) . . .
31.6(30) . . .
31.5(29) . . .
29.8(29) . . .
22.9(26) . . .
26.8(30) . . .
28.5(32) . . .
27.9(28) . . .
30.1(29) . . .
29.7(29) . . .
27.5(28) . . .
37.9(34) . . .
30.4(29) . . .
28.3(28) . . .
31.0(31) . . .
35.4(34) . . .
29.1(28) . . .
28.7(28) . . .
29.0(28) . . .
29.3(29) . . .
32.5(32) . . .
36.6(32) . . .
23.0(25) . . .
31.4(29) . . .
24.8(26) . . .
23.7(26) . . .
33.8(31) . . .
25.6(27) . . .
22.6(25) . . .
30.4(29) . . .
34.0(32) . . .
29.7(31) . . .
24.6(25) . . .
30.5(29) . . .
27.8(28) . . .
29.4(29) . . .
38(4) . . .
35.6(31) . . .
29.7(29) . . .
31.0(32) . . .
26.3(27) . . .
30.0(29) . . .
25.2(26) . . .
29.1(28) . . .
32.2(31) . . .
28.1(28) . . .
36.5(33) . . .
30.6(29) . . .
32.1(30) . . .
33.5(33) . . .
30.5(29) . . .
31.5(30) . . .
31.2(30) . . .
38.3(34) . . .
24.1(27) . . .
23.4(25) . . .
23.9(25) . . .
26.9(27) . . .
20.5(24) . . .
30.9(34) . . .
24.8(28) . . .
27.2(29) . . .
26.1(26) . . .
25.6(28) . . .
23.1(26) . . .
24.0(26) . . .
28.8(29) . . .
31.0(29) . . .
34.0(32) . . .
34.2(32) . . .
30.5(29) . . .
33.5(30) . . .
31.8(29) . . .
36.6(34) . . .
27.2(28) . . .
36.7(33) . . .
31.4(29) . . .
36.4(32) . . .
29.6(31) . . .
30.7(32) . . .
27.3(27) . . .
29.4(28) . . .
30.8(29) . . .
33.5(32) . . .
25.5(27) . . .
38.9(34) . . .
29.3(29) . . .
23.8(25) . . .
25.1(26) . . .
32.8(33) . . .
24.8(28) . . .
24.6(26) . . .
29.7(28) . . .
26.4(28) . . .
29.0(30) . . .
35.1(33) . . .
33.4(31) . . .
32.4(32) . . .
26.6(29) . . .
29.5(29) . . .
23.4(25) . . .
25.7(26) . . .
26.7(28) . . .
31.0(31) . . .
37.8(33) . . .
24.5(25) . . .
30.7(29) . . .
35.8(34) . . .
27.1(29) . . .
27.5(29) . . .
25.8(29) . . .
32.9(30) . . .
28.0(29) . . .
30.8(34) . . .
20.6(25) . . .
26.8(26) . . .
23.2(27) . . .
28.5(29) . . .
30.5(31) . . .
29.6(29) . . .
33.8(30) . . .
27.1(27) . . .
28.4(30) . . .
27.9(29) . . .
30.2(30) . . .
31.7(29) . . .
31.2(29) . . .
31.7(28) . . .
39(4) . . .
26.8(27) . . .
28.9(29) . . .
30.1(28) . . .
41(4) . . .
36(4) . . .
24.5(27) . . .
30.0(29) . . .
20.6(26) . . .
26.6(28) . . .
26.6(26) . . .
37.5(34) . . .
29.0(29) . . .
34.0(32) . . .
37.2(33) . . .
30.9(31) . . .
35.3(32) . . .
31.4(29) . . .
32.8(31) . . .
33.9(33) . . .
37.4(35) . . .
30.1(29) . . .
30.8(29) . . .
27.8(27) . . .
26.9(28) . . .
32.5(30) . . .
28.0(28) . . .
23.8(26) . . .
29.9(30) . . .
28.8(30) . . .
26.4(27) . . .
30.0(30) . . .
22.6(25) . . .
29.5(31) . . .
23.8(28) . . .
28.0(29) . . .
21.9(24) . . .
30.7(30) . . .
28.6(29) . . .
28.8(30) . . .
31.9(32) . . .
27.6(27) . . .
26.6(26) . . .
27.3(29) . . .
26.4(31) . . .
31.9(31) . . .
22.4(25) . . .
21.9(25) . . .
33.7(30) . . .
34.7(31) . . .
32.3(29) . . .
30.5(28) . . .
31.6(31) . . .
24.2(27) . . .
26.6(29) . . .
36.6(34) . . .
29.1(28) . . .
27.7(28) . . .
28.1(30) . . .
24.5(27) . . .
30.0(31) . . .
27.0(28) . . .
21.6(26) . . .
25.3(27) . . .
25.2(28) . . .
28.0(29) . . .
32.0(30) . . .
31.6(31) . . .
38.6(35) . . .
28.7(28) . . .
31.9(30) . . .
29.0(28) . . .
26.2(27) . . .
30.4(31) . . .
28.6(29) . . .
25.4(28) . . .
26.0(26) . . .
33.5(31) . . .
26.2(27) . . .
26.4(27) . . .
32.1(30) . . .
28.7(28) . . .
33.3(30) . . .
32.7(32) . . .
32.5(31) . . .
32.4(29) . . .
38.8(33) . . .
27.3(28) . . .
22.8(25) . . .
30.0(31) . . .
32.6(30) . . .
27.1(27) . . .
26.3(29) . . .
27.7(32) . . .
21.3(25) . . .
26.8(26) . . .
29.9(30) . . .
30.7(29) . . .
33.0(32) . . .
31.8(31) . . .
29.2(28) . . .
26.4(28) . . .
30.3(29) . . .
35.6(33) . . .
26.4(27) . . .
33.1(30) . . .
29.0(28) . . .
34.2(32) . . .
25.9(28) . . .
24.2(27) . . .
31.1(29) . . .
27.1(27) . . .
24.8(25) . . .
32.4(30) . . .
31.2(30) . . .
27.6(27) . . .
26.4(27) . . .
33.4(32) . . .
34.8(33) . . .
34.8(31) . . .
30.4(29) . . .
27.1(27) . . .
23.9(26) . . .
35.8(32) . . .
34.9(31) . . .
28.6(28) . . .
28.7(28) . . .
29.4(30) . . .
34.1(32) . . .
27.5(27) . . .
28.2(29) . . .
27.5(29) . . .
27.3(31) . . .
31.5(31) . . .
30.9(29) . . .
25.1(26) . . .
23.8(26) . . .
22.5(27) . . .
25.5(27) . . .
21.4(24) . . .
26.0(27) . . .
27.1(29) . . .
30.0(33) . . .
29.6(30) . . .
30.3(29) . . .
29.3(28) . . .
26.8(28) . . .
29.9(32) . . .
24.5(26) . . .
28.1(28) . . .
29.4(28) . . .
37.4(34) . . .
22.7(26) . . .
23.7(26) . . .
26.9(27) . . .
28.4(29) . . .
33.5(32) . . .
28.3(30) . . .
34.6(32) . . .
34.0(30) . . .
30.7(29) . . .
30.9(29) . . .
25.5(26) . . .
31.0(29) . . .
26.0(26) . . .
27.2(28) . . .
30.7(30) . . .
29.5(29) . . .
34.2(32) . . .
27.8(27) . . .
28.3(28) . . .
28.8(29) . . .
32.6(32) . . .
32.3(30) . . .
29.4(29) . . .
30.5(30) . . .
31.5(30) . . .
28.4(28) . . .
33.9(31) . . .
32.8(30) . . .
29.9(29) . . .
36.0(35) . . .
26.4(30) . . .
24.0(26) . . .
29.2(28) . . .
27.1(30) . . .
25.0(27) . . .
31.2(34) . . .
21.1(24) . . .
30.2(29) . . .
36.2(32) . . .
32.5(31) . . .
25.8(27) . . .
30.9(29) . . .
28.6(28) . . .
26.4(28) . . .
25.3(28) . . .
27.4(28) . . .
27.1(27) . . .
27.0(28) . . .
29.4(30) . . .
31.4(32) . . .
28.3(28) . . .
29.5(29) . . .
23.2(25) . . .
26.9(27) . . .
19.2(23) . . .
33.3(33) . . .
31.7(29) . . .
26.7(28) . . .
29.9(29) . . .
26.2(28) . . .
22.5(25) . . .
28.3(29) . . .
32.3(29) . . .
35.2(31) . . .
31.3(31) . . .
32.0(31) . . .
27.5(28) . . .
33.6(31) . . .
29.8(30) . . .
26.0(29) . . .
25.5(26) . . .
31.0(29) . . .
25.9(28) . . .
34.8(34) . . .
27.5(30) . . .
26.8(27) . . .
33.4(31) . . .
27.9(28) . . .
32.5(34) . . .
32.0(33) . . .
35.4(31) . . .
38.7(34) . . .
39.1(34) . . .
33.5(34) . . .
25.8(27) . . .
21.3(24) . . .
26.5(28) . . .
34.4(32) . . .
28.3(29) . . .
28.0(28) . . .
36.1(32) . . .
33.5(30) . . .
31.3(31) . . .
32.9(32) . . .
28.9(28) . . .
26.5(27) . . .
27.9(27) . . .
34.3(32) . . .
23.0(25) . . .
30.8(29) . . .
29.6(28) . . .
28.5(28) . . .
24.1(26) . . .
22.5(25) . . .
34.9(32) . . .
29.2(29) . . .
27.4(28) . . .
28.2(28) . . .
32.3(31) . . .
26.8(31) . . .
28.0(27) . . .
24.6(26) . . .
27.8(29) . . .
31.5(31) . . .
30.0(30) . . .
21.6(24) . . .
29.7(28) . . .
32.0(32) . . .
28.6(30) . . .
28.8(30) . . .
24.6(26) . . .
29.4(29) . . .
32.0(30) . . .
24.3(25) . . .
36.2(34) . . .
33.7(30) . . .
29.0(29) . . .
28.9(30) . . .
30.5(30) . . .
31.8(30) . . .
22.0(25) . . .
20.5(26) . . .
25.6(30) . . .
29.2(29) . . .
31.4(30) . . .
28.3(28) . . .
31.2(30) . . .
26.2(28) . . .
20.5(25) . . .
21.3(24) . . .
22.7(25) . . .
29.6(28) . . .
32.8(33) . . .
27.1(29) . . .
28.2(27) . . .
36.7(32) . . .
34.2(30) . . .
26.5(27) . . .
29.9(30) . . .
24.4(26) . . .
31.9(30) . . .
38.3(34) . . .
29.2(30) . . .
28.5(28) . . .
30.2(28) . . .
26.4(27) . . .
32.8(31) . . .
26.4(27) . . .
29.1(30) . . .
24.1(25) . . .
26.7(27) . . .
34.0(32) . . .
25.6(26) . . .
33.7(31) . . .
30.0(29) . . .
30.4(30) . . .
20.3(22) . . .
26.9(28) . . .
31.2(30) . . .
28.1(28) . . .
26.5(28) . . .
30.6(29) . . .
29.1(30) . . .
25.3(27) . . .
30.5(29) . . .
32.6(31) . . .
27.0(29) . . .
22.4(24) . . .
38.7(33) . . .
37.2(32) . . .
31.7(31) . . .
33.1(31) . . .
26.9(27) . . .
30.6(29) . . .
27.9(27) . . .
28.4(30) . . .
24.4(28) . . .
31.6(31) . . .
29.6(29) . . .
33.0(30) . . .
31.5(31) . . .
31.0(30) . . .
39(4) . . .
26.2(27) . . .
31.2(30) . . .
28.6(30) . . .
26.6(29) . . .
26.1(27) . . .
24.0(26) . . .
24.9(26) . . .
29.7(30) . . .
25.0(27) . . .
26.0(27) . . .
27.6(28) . . .
24.6(25) . . .
34.8(32) . . .
32.9(30) . . .
33.6(31) . . .
35.7(31) . . .
24.8(26) . . .
32.2(33) . . .
23.7(27) . . .
33.0(31) . . .
39.0(33) . . .
28.5(29) . . .
23.1(26) . . .
27.8(30) . . .
28.3(28) . . .
29.8(28) . . .
35.1(32) . . .
37(4) . . .
30.9(30) . . .
25.7(27) . . .
30.2(29) . . .
27.3(29) . . .
21.1(25) . . .
22.7(28) . . .
23.1(25) . . .
28.8(28) . . .
32.0(31) . . .
27.8(30) . . .
29.0(32) . . .
31.5(31) . . .
26.8(27) . . .
30.1(29) . . .
31.4(32) . . .
33.3(31) . . .
31.7(29) . . .
28.4(27) . . .
33.4(34) . . .
30.7(31) . . .
31.4(30) . . .
34.9(33) . . .
30.4(28) . . .
35.4(32) . . .
28.1(30) . . .
29.7(30) . . .
28.8(29) . . .
27.6(27) . . .
26.5(29) . . .
23.9(27) . . .
26.0(27) . . .
27.5(27) . . .
28.5(28) . . .
32.7(31) . . .
37.5(33) . . .
30.5(29) . . .
35.8(31) . . .
32.7(30) . . .
36.6(34) . . .
27.1(28) . . .
29.9(33) . . .
26.4(27) . . .
27.5(28) . . .
23.5(25) . . .
25.8(28) . . .
26.8(27) . . .
28.1(28) . . .
25.9(29) . . .
30.3(30) . . .
21.3(26) . . .
20.7(24) . . .
29.4(28) . . .
26.1(27) . . .
31.8(31) . . .
29.8(28) . . .
30.6(32) . . .
22.3(25) . . .
29.9(31) . . .
30.0(30) . . .
24.5(25) . . .
20.6(23) . . .
21.1(23) . . .
29.2(29) . . .
31.7(34) . . .
22.3(24) . . .
34.9(32) . . .
31.9(30) . . .
29.9(30) . . .
23.4(26) . . .
37(4) . . .
14.0(19) . . .
21.8(26) . . .
26.7(28) . . .
20.8(25) . . .
31.4(30) . . .
24.9(26) . . .
22.3(25) . . .
29.1(30) . . .
41(4) . . .
24.8(26) . . .
24.3(26) . . .
25.8(27) . . .
30.9(30) . . .
19.8(24) . . .
24.8(28) . . .
25.9(27) . . .
24.4(27) . . .
25.0(27) . . .
30.8(30) . . .
35.2(32) . . .
26.9(27) . . .
19.3(23) . . .
28.5(30) . . .
33.9(34) . . .
22.5(24) . . .
32.2(30) . . .
27.5(30) . . .
22.9(25) . . .
28.5(29) . . .
29.8(28) . . .
29.3(28) . . .
23.8(26) . . .
31.5(30) . . .
27.4(28) . . .
29.0(29) . . .
26.1(27) . . .
29.9(29) . . .
31.6(32) . . .
29.8(28) . . .
27.0(27) . . .
32.0(29) . . .
30.0(31) . . .
32.6(32) . . .
28.2(28) . . .
22.2(24) . . .
26.3(27) . . .
27.2(27) . . .
24.3(28) . . .
22.3(25) . . .
25.3(27) . . .
29.7(28) . . .
27.4(27) . . .
26.3(30) . . .
24.9(27) . . .
24.0(25) . . .
21.9(25) . . .
26.2(28) . . .
28.9(31) . . .
27.7(28) . . .
30.7(29) . . .
32.5(30) . . .
36.4(34) . . .
27.3(27) . . .
25.7(26) . . .
21.2(25) . . .
27.2(27) . . .
36.8(33) . . .
31.1(29) . . .
34.7(33) . . .
25.2(27) . . .
25.6(29) . . .
36.0(34) . . .
30.6(31) . . .
31.3(31) . . .
32.2(29) . . .
36.3(31) . . .
33.3(32) . . .
24.4(28) . . .
26.0(27) . . .
22.9(25) . . .
29.4(31) . . .
33.6(34) . . .
36(4) . . .
23.3(25) . . .
24.7(27) . . .
29.9(29) . . .
27.4(31) . . .
32.7(33) . . .
36.0(31) . . .
32.3(29) . . .
38(4) . . .
28.0(28) . . .
31.8(31) . . .
34.0(30) . . .
37.8(33) . . .
27.3(30) . . .
36(4) . . .
31.5(30) . . .
29.8(30) . . .
28.5(29) . . .
30.0(30) . . .
28.3(30) . . .
34.5(31) . . .
32.7(31) . . .
23.2(24) . . .
31.1(33) . . .
28.1(29) . . .
28.8(28) . . .
21.9(24) . . .
26.2(26) . . .
30.8(31) . . .
31.7(32) . . .
28.7(28) . . .
30.2(29) . . .
34.0(31) . . .
30.4(28) . . .
32.4(33) . . .
27.1(28) . . .
23.5(25) . . .
23.4(25) . . .
31.3(31) . . .
26.3(29) . . .
31.5(30) . . .
23.6(26) . . .
34.8(33) . . .
38.0(35) . . .
23.3(25) . . .
28.7(30) . . .
34.0(31) . . .
32.9(30) . . .
33.4(32) . . .
32.0(29) . . .
25.1(26) . . .
23.4(26) . . .
27.7(28) . . .
29.4(29) . . .
29.6(28) . . .
28.6(28) . . .
24.9(26) . . .
25.8(28) . . .
25.6(27) . . .
30.2(29) . . .
18.9(22) . . .
29.4(28) . . .
25.0(25) . . .
31.4(31) . . .
30.3(28) . . .
27.3(27) . . .
24.3(26) . . .
23.4(26) . . .
28.3(29) . . .
31.7(30) . . .
32.5(30) . . .
31.3(29) . . .
28.1(28) . . .
24.8(27) . . .
34.4(31) . . .
28.7(28) . . .
32.1(30) . . .
26.6(27) . . .
31.7(31) . . .
30.2(32) . . .
28.4(27) . . .
34.1(30) . . .
26.6(27) . . .
26.5(28) . . .
30.5(30) . . .
32.0(30) . . .
28.5(28) . . .
27.2(28) . . .
26.0(28) . . .
39.7(34) . . .
33.9(30) . . .
31.2(29) . . .
23.9(25) . . .
32.3(33) . . .
32.8(30) . . .
31.8(30) . . .
30.4(29) . . .
34.2(32) . . .
30.5(31) . . .
19.8(23) . . .
30.5(29) . . .
32.2(30) . . .
22.8(25) . . .
26.7(28) . . .
26.8(27) . . .
39.8(32) . . .
24.7(26) . . .
26.9(29) . . .
24.2(25) . . .
28.4(27) . . .
32.4(30) . . .
32.4(32) . . .
28.7(29) . . .
28.9(28) . . .
25.6(26) . . .
28.9(29) . . .
26.0(28) . . .
32.9(33) . . .
30.2(31) . . .
26.0(27) . . .
31.8(30) . . .
29.4(31) . . .
25.5(29) . . .
32.8(32) . . .
35.0(30) . . .
26.5(27) . . .
19.8(24) . . .
26.9(28) . . .
28.7(30) . . .
32.1(30) . . .
26.5(28) . . .
30.2(29) . . .
26.7(29) . . .
12.7(19) . . .
23.7(25) . . .
30.5(28) . . .
35.4(32) . . .
30.8(28) . . .
32.4(32) . . .
24.8(26) . . .
33.1(31) . . .
34.4(31) . . .
28.5(30) . . .
30.9(30) . . .
27.0(27) . . .
25.8(27) . . .
30.2(30) . . .
28.3(29) . . .
24.8(26) . . .
25.0(26) . . .
30.7(32) . . .
33.7(34) . . .
27.3(30) . . .
30.2(29) . . .
26.6(27) . . .
30.3(29) . . .
25.2(27) . . .
32.3(31) . . .
30.9(29) . . .
28.8(28) . . .
25.3(27) . . .
28.6(29) . . .
25.5(27) . . .
27.8(27) . . .
24.5(26) . . .
26.1(28) . . .
28.2(29) . . .
33.8(32) . . .
35.1(31) . . .
30.3(30) . . .
28.0(29) . . .
26.4(27) . . .
32.5(31) . . .
26.1(28) . . .
23.4(25) . . .
33.4(32) . . .
24.8(28) . . .
24.0(26) . . .
26.6(26) . . .
27.0(27) . . .
25.3(26) . . .
29.5(31) . . .
27.4(28) . . .
24.1(26) . . .
26.8(27) . . .
30.3(30) . . .
26.9(27) . . .
23.6(26) . . .
34.7(31) . . .
28.7(28) . . .
26.3(28) . . .
31.0(30) . . .
35.0(33) . . .
26.7(27) . . .
35.0(32) . . .
27.3(29) . . .
21.6(25) . . .
31.0(30) . . .
30.7(29) . . .
28.4(29) . . .
29.4(31) . . .
26.5(28) . . .
22.1(26) . . .
36.9(32) . . .
29.9(30) . . .
29.2(30) . . .
31.1(30) . . .
30.6(29) . . .
35.6(32) . . .
30.6(29) . . .
30.5(30) . . .
29.0(30) . . .
27.5(27) . . .
20.9(24) . . .
30.6(31) . . .
27.7(29) . . .
23.0(26) . . .
29.7(29) . . .
26.3(27) . . .
27.3(28) . . .
28.4(28) . . .
28.3(28) . . .
28.4(27) . . .
24.5(27) . . .
25.9(29) . . .
32.0(34) . . .
27.9(28) . . .
30.7(30) . . .
26.7(26) . . .
30.2(30) . . .
25.8(27) . . .
29.0(29) . . .
33.7(30) . . .
28.1(27) . . .
24.0(27) . . .
23.3(27) . . .
27.0(31) . . .
36.0(32) . . .
24.4(25) . . .
25.4(26) . . .
30.9(30) . . .
24.5(26) . . .
25.5(27) . . .
31.3(30) . . .
36.7(34) . . .
20.4(25) . . .
25.8(27) . . .
27.2(28) . . .
35.2(31) . . .
25.9(26) . . .
32.3(32) . . .
30.0(30) . . .
20.0(24) . . .
25.7(28) . . .
28.4(30) . . .
27.3(29) . . .
23.5(25) . . .
29.8(29) . . .
30.5(29) . . .
30.8(30) . . .
30.3(28) . . .
26.6(27) . . .
30.5(28) . . .
34.9(32) . . .
23.2(25) . . .
26.4(27) . . .
28.6(27) . . .
30.0(28) . . .
28.6(28) . . .
25.6(27) . . .
32.3(30) . . .
42.5(35) . . .
31.0(31) . . .
30.2(31) . . .
32.0(33) . . .
26.3(28) . . .
23.7(25) . . .
36.6(32) . . .
34.9(34) . . .
24.1(29) . . .
21.7(26) . . .
30.2(29) . . .
36.8(31) . . .
30.7(29) . . .
24.4(27) . . .
33.3(32) . . .
25.9(28) . . .
25.9(29) . . .
29.0(30) . . .
27.0(29) . . .
34.1(32) . . .
31.2(30) . . .
30.3(29) . . .
29.8(31) . . .
29.3(30) . . .
29.1(29) . . .
26.1(27) . . .
30.9(32) . . .
27.6(28) . . .
32.9(32) . . .
28.0(29) . . .
28.1(28) . . .
27.1(29) . . .
28.6(30) . . .
26.2(28) . . .
30.1(29) . . .
29.6(28) . . .
28.0(30) . . .
23.0(26) . . .
26.4(29) . . .
22.1(27) . . .
24.5(26) . . .
24.2(26) . . .
26.8(29) . . .
26.1(28) . . .
26.3(28) . . .
29.5(28) . . .
29.3(31) . . .
22.9(28) . . .
29.7(31) . . .
30.0(29) . . .
26.2(27) . . .
30.0(32) . . .
24.4(29) . . .
26.1(29) . . .
31.8(30) . . .
28.8(28) . . .
27.4(29) . . .
26.9(29) . . .
24.0(25) . . .
32.3(30) . . .
31.7(29) . . .
30.1(30) . . .
24.1(26) . . .
29.9(30) . . .
27.7(29) . . .
25.7(27) . . .
31.8(31) . . .
24.6(25) . . .
28.8(29) . . .
23.3(25) . . .
23.1(26) . . .
30.4(31) . . .
26.0(27) . . .
33.7(31) . . .
35.4(31) . . .
38.6(35) . . .
26.3(28) . . .
34.9(31) . . .
35.3(31) . . .
27.0(28) . . .
28.2(29) . . .
29.3(30) . . .
24.9(28) . . .
29.0(29) . . .
26.9(28) . . .
22.5(26) . . .
20.4(25) . . .
23.6(26) . . .
26.9(26) . . .
29.1(29) . . .
25.5(27) . . .
28.0(28) . . .
34.3(30) . . .
30.4(29) . . .
31.9(30) . . .
32.7(31) . . .
36.0(34) . . .
26.8(27) . . .
22.4(25) . . .
27.6(28) . . .
26.9(27) . . .
23.6(26) . . .
33.7(32) . . .
34.5(31) . . .
34.7(30) . . .
26.6(28) . . .
25.5(28) . . .
32.5(31) . . .
27.8(28) . . .
26.9(27) . . .
31.0(30) . . .
32.7(32) . . .
26.3(28) . . .
23.4(26) . . .
32.0(30) . . .
28.1(29) . . .
34.7(34) . . .
31.6(30) . . .
24.1(26) . . .
20.4(23) . . .
28.7(28) . . .
29.1(29) . . .
20.1(24) . . .
31.8(30) . . .
28.8(28) . . .
24.3(28) . . .
31.6(32) . . .
27.6(28) . . .
24.6(26) . . .
30.6(30) . . .
31.1(29) . . .
28.2(27) . . .
32.1(30) . . .
24.5(26) . . .
22.4(25) . . .
28.4(29) . . .
27.5(30) . . .
25.8(26) . . .
29.0(29) . . .
23.9(26) . . .
20.5(25) . . .
24.3(26) . . .
29.1(28) . . .
23.3(25) . . .
30.2(28) . . .
32.5(30) . . .
27.6(28) . . .
30.3(29) . . .
27.9(27) . . .
27.2(28) . . .
26.9(29) . . .
27.6(29) . . .
30.3(29) . . .
27.3(27) . . .
32.4(32) . . .
29.3(30) . . .
30.5(31) . . .
28.1(28) . . .
25.8(27) . . .
34.2(30) . . .
31.1(30) . . .
27.1(28) . . .
27.3(27) . . .
29.7(28) . . .
24.3(26) . . .
27.6(27) . . .
28.8(28) . . .
33.7(31) . . .
28.8(28) . . .
27.3(27) . . .
32.6(33) . . .
25.0(28) . . .
26.3(28) . . .
31.6(29) . . .
28.2(28) . . .
35.2(32) . . .
39.8(34) . . .
27.0(28) . . .
30.6(29) . . .
31.7(31) . . .
29.6(30) . . .
25.6(27) . . .
27.8(27) . . .
31.4(30) . . .
28.4(30) . . .
29.9(30) . . .
37.2(32) . . .
26.6(26) . . .
20.1(23) . . .
27.1(30) . . .
29.7(31) . . .
32.4(30) . . .
31.7(29) . . .
23.4(26) . . .
25.7(28) . . .
31.8(31) . . .
25.3(27) . . .
24.5(28) . . .
24.8(29) . . .
31.9(33) . . .
38.7(35) . . .
23.3(25) . . .
24.1(25) . . .
26.4(28) . . .
27.6(30) . . .
28.7(28) . . .
23.0(25) . . .
20.6(24) . . .
32.3(32) . . .
27.0(28) . . .
24.8(25) . . .
26.5(28) . . .
24.8(27) . . .
28.0(28) . . .
29.3(30) . . .
28.1(27) . . .
28.8(28) . . .
35.5(32) . . .
31.6(31) . . .
30.5(31) . . .
31.9(31) . . .
23.3(25) . . .
32.3(30) . . .
27.5(28) . . .
27.5(29) . . .
25.4(28) . . .
28.7(28) . . .
28.7(28) . . .
26.4(28) . . .
30.4(29) . . .
34.5(32) . . .
21.4(24) . . .
27.0(29) . . .
29.9(32) . . .
33.3(32) . . .
38.3(33) . . .
28.0(28) . . .
32.3(30) . . .
34.1(32) . . .
27.6(29) . . .
21.8(25) . . .
32.0(29) . . .
41.3(35) . . .
32.2(33) . . .
25.8(28) . . .
24.6(26) . . .
21.4(24) . . .
23.1(27) . . .
24.8(28) . . .
20.4(24) . . .
18.6(22) . . .
29.3(29) . . .
26.0(28) . . .
24.7(27) . . .
27.3(27) . . .
32.1(29) . . .
31.3(30) . . .
24.1(27) . . .
21.6(29) . . .
22.9(25) . . .
34.3(30) . . .
34.8(32) . . .
21.2(23) . . .
29.4(33) . . .
30.2(29) . . .
29.3(29) . . .
26.9(27) . . .
33.9(31) . . .
33.8(32) . . .
32.3(32) . . .
23.3(25) . . .
30.4(30) . . .
33.8(34) . . .
30.2(32) . . .
35.3(32) . . .
34.7(30) . . .
28.9(28) . . .
24.6(27) . . .
30.6(29) . . .
36.6(32) . . .
30.3(29) . . .
25.9(28) . . .
31.2(31) . . .
23.9(25) . . .
25.7(27) . . .
27.9(27) . . .
34.6(31) . . .
40.6(34) . . .
25.9(27) . . .
29.6(28) . . .
30.5(29) . . .
21.8(27) . . .
26.6(29) . . .
26.4(27) . . .
35.3(33) . . .
31.7(30) . . .
27.2(28) . . .
25.9(26) . . .
26.7(27) . . .
26.8(29) . . .
25.1(26) . . .
32.1(31) . . .
17.9(21) . . .
29.4(30) . . .
24.0(26) . . .
25.3(26) . . .
31.7(30) . . .
29.7(30) . . .
30.3(29) . . .
25.4(26) . . .
26.1(27) . . .
29.2(30) . . .
36(4) . . .
28.1(29) . . .
32.2(30) . . .
31.9(30) . . .
30.5(30) . . .
21.7(25) . . .
28.5(32) . . .
23.8(26) . . .
37.3(34) . . .
30.6(30) . . .
30.6(31) . . .
29.5(28) . . .
30.2(29) . . .
30.2(29) . . .
25.7(28) . . .
27.6(28) . . .
22.4(25) . . .
26.4(28) . . .
27.9(28) . . .
24.3(26) . . .
28.3(29) . . .
27.0(27) . . .
27.0(27) . . .
25.0(27) . . .
18.7(24) . . .
21.5(24) . . .
27.0(27) . . .
26.1(27) . . .
32.9(32) . . .
30.5(32) . . .
36.1(34) . . .
28.6(29) . . .
30.4(29) . . .
27.2(27) . . .
37.2(33) . . .
29.4(29) . . .
23.4(25) . . .
24.5(26) . . .
29.5(29) . . .
29.7(31) . . .
23.4(24) . . .
32.3(29) . . .
32.3(29) . . .
33.8(31) . . .
30.0(30) . . .
32.3(30) . . .
35.4(31) . . .
33.6(30) . . .
27.3(28) . . .
29.4(30) . . .
29.5(30) . . .
33.5(31) . . .
27.2(27) . . .
27.6(28) . . .
24.3(28) . . .
21.8(25) . . .
27.8(27) . . .
26.7(27) . . .
27.8(29) . . .
24.7(28) . . .
33.6(33) . . .
37.5(32) . . .
42(4) . . .
30.9(29) . . .
29.1(30) . . .
28.1(27) . . .
26.6(27) . . .
25.9(27) . . .
33.0(31) . . .
26.5(28) . . .
30.9(30) . . .
23.7(27) . . .
33.3(32) . . .
28.5(28) . . .
29.8(29) . . .
30.4(30) . . .
24.5(26) . . .
29.7(29) . . .
21.1(29) . . .
27.6(31) . . .
24.7(26) . . .
32.4(30) . . .
20.7(24) . . .
27.4(28) . . .
22.9(28) . . .
27.0(27) . . .
27.2(27) . . .
34.5(33) . . .
26.5(30) . . .
25.0(27) . . .
24.9(27) . . .
21.6(24) . . .
25.3(28) . . .
33.3(33) . . .
24.0(26) . . .
25.6(27) . . .
23.1(25) . . .
30.0(30) . . .
27.8(27) . . .
32.8(31) . . .
28.3(27) . . .
28.6(30) . . .
32.0(31) . . .
31.0(31) . . .
25.9(29) . . .
29.8(29) . . .
26.5(27) . . .
26.4(30) . . .
33.3(31) . . .
31.3(30) . . .
25.7(27) . . .
25.5(26) . . .
26.0(26) . . .
36.1(32) . . .
27.1(27) . . .
26.5(27) . . .
35.0(31) . . .
25.0(28) . . .
26.7(30) . . .
22.6(26) . . .
34.7(31) . . .
27.4(30) . . .
28.0(29) . . .
28.2(27) . . .
34.3(31) . . .
29.9(29) . . .
30.0(30) . . .
29.2(30) . . .
31.4(30) . . .
26.2(26) . . .
29.1(28) . . .
34.7(31) . . .
30.6(30) . . .
33.8(32) . . .
29.6(28) . . .
31.4(29) . . .
35.4(33) . . .
28.3(27) . . .
34.4(32) . . .
30.8(30) . . .
34.3(30) . . .
27.6(28) . . .
22.1(28) . . .
24.0(26) . . .
32.5(30) . . .
32.4(30) . . .
32.4(29) . . .
35.3(33) . . .
30.4(31) . . .
36.2(32) . . .
31.2(29) . . .
25.7(27) . . .
27.3(28) . . .
32.1(31) . . .
29.5(29) . . .
26.9(29) . . .
25.5(27) . . .
24.8(29) . . .
34.7(34) . . .
28.5(28) . . .
15.0(20) . . .
30.1(32) . . .
31.4(31) . . .
21.9(25) . . .
25.0(26) . . .
22.2(25) . . .
30.1(30) . . .
23.1(25) . . .
31.2(30) . . .
36.8(32) . . .
35.6(33) . . .
33.1(31) . . .
36.5(33) . . .
29.0(28) . . .
28.7(28) . . .
31.9(31) . . .
38(4) . . .
29.2(28) . . .
29.0(29) . . .
33.6(31) . . .
30.5(30) . . .
15.4(20) . . .
29.9(29) . . .
38.5(32) . . .
29.9(28) . . .
25.9(27) . . .
31.0(31) . . .
28.6(30) . . .
23.9(26) . . .
26.6(27) . . .
30.3(29) . . .
33.0(31) . . .
29.2(29) . . .
23.9(26) . . .
29.7(29) . . .
29.0(30) . . .
25.2(27) . . .
30.7(31) . . .
35.3(31) . . .
21.4(26) . . .
26.1(29) . . .
31.0(31) . . .
26.5(28) . . .
22.3(25) . . .
30.9(29) . . .
33.4(31) . . .
29.2(27) . . .
28.9(29) . . .
22.8(26) . . .
26.6(27) . . .
28.5(28) . . .
38.0(34) . . .
25.4(26) . . .
30.3(29) . . .
28.8(28) . . .
40(4) . . .
29.3(30) . . .
26.9(28) . . .
25.2(26) . . .
23.2(26) . . .
29.8(29) . . .
31.3(30) . . .
33.4(33) . . .
33.4(31) . . .
22.3(24) . . .
34.1(33) . . .
31.5(31) . . .
32.5(32) . . .
26.4(27) . . .
22.8(26) . . .
25.0(31) . . .
21.1(25) . . .
31.9(30) . . .
34.3(30) . . .
22.9(25) . . .
28.9(30) . . .
31.4(31) . . .
21.0(24) . . .
29.2(28) . . .
34.1(32) . . .
25.5(29) . . .
23.1(25) . . .
23.0(25) . . .
29.9(28) . . .
32.0(31) . . .
28.0(31) . . .
28.0(29) . . .
26.3(27) . . .
24.7(26) . . .
31.3(29) . . .
26.9(29) . . .
29.4(29) . . .
21.0(26) . . .
24.9(26) . . .
26.3(27) . . .
25.8(28) . . .
19.6(23) . . .
25.9(27) . . .
24.0(25) . . .
24.7(26) . . .
29.2(29) . . .
22.2(27) . . .
24.6(26) . . .
34.1(33) . . .
35.1(32) . . .
31.5(30) . . .
24.2(26) . . .
29.2(28) . . .
27.1(27) . . .
37.6(34) . . .
34.3(32) . . .
27.5(28) . . .
35.7(31) . . .
24.2(25) . . .
23.2(26) . . .
29.9(29) . . .
37.1(34) . . .
26.3(26) . . .
33.2(31) . . .
25.2(27) . . .
25.4(27) . . .
32.9(30) . . .
40.1(33) . . .
31.7(30) . . .
24.4(25) . . .
30.4(31) . . .
29.4(28) . . .
35.6(32) . . .
24.7(26) . . .
30.8(31) . . .
29.3(30) . . .
27.3(27) . . .
28.2(28) . . .
31.1(29) . . .
27.8(30) . . .
28.4(29) . . .
24.0(26) . . .
29.0(28) . . .
28.4(27) . . .
25.6(25) . . .
28.2(28) . . .
27.5(27) . . .
26.2(27) . . .
25.3(28) . . .
32.3(32) . . .
32.3(30) . . .
24.5(26) . . .
29.7(28) . . .
37.0(34) . . .
25.9(28) . . .
32.5(33) . . .
31.2(29) . . .
25.6(27) . . .
29.4(28) . . .
31.7(31) . . .
22.8(27) . . .
22.4(25) . . .
26.4(26) . . .
32.3(32) . . .
30.1(30) . . .
26.9(28) . . .
30.3(29) . . .
30.3(31) . . .
25.0(28) . . .
30.8(32) . . .
30.8(30) . . .
19.5(24) . . .
28.7(28) . . .
30.9(30) . . .
27.6(28) . . .
30.0(28) . . .
35.3(31) . . .
29.8(29) . . .
38(4) . . .
22.1(25) . . .
28.4(28) . . .
33.2(30) . . .
29.0(29) . . .
28.9(29) . . .
33.3(32) . . .
31.1(30) . . .
35.2(31) . . .
32.0(31) . . .
21.8(27) . . .
29.0(29) . . .
30.8(29) . . .
25.2(26) . . .
35.2(31) . . .
28.1(27) . . .
34.0(31) . . .
29.9(28) . . .
30.8(30) . . .
27.4(28) . . .
21.4(26) . . .
25.0(28) . . .
27.7(28) . . .
34.7(31) . . .
29.4(29) . . .
24.9(27) . . .
27.3(27) . . .
30.5(29) . . .
31.4(30) . . .
30.9(30) . . .
26.5(28) . . .
26.8(27) . . .
36.7(32) . . .
32.3(30) . . .
31.3(30) . . .
33.3(34) . . .
27.7(29) . . .
28.5(28) . . .
27.4(29) . . .
33.3(32) . . .
36.5(33) . . .
31.8(30) . . .
31.8(30) . . .
27.7(27) . . .
24.6(27) . . .
28.8(29) . . .
28.0(27) . . .
23.2(25) . . .
27.6(28) . . .
34.3(32) . . .
36.0(33) . . .
32.5(30) . . .
35.4(31) . . .
31.4(33) . . .
27.5(29) . . .
22.6(26) . . .
23.7(27) . . .
20.1(23) . . .
35.0(32) . . .
30.6(29) . . .
26.3(29) . . .
30.9(29) . . .
31.8(29) . . .
29.5(28) . . .
29.2(31) . . .
23.7(27) . . .
20.0(24) . . .
23.6(25) . . .
20.3(23) . . .
31.5(31) . . .
26.9(28) . . .
24.9(26) . . .
34.4(32) . . .
36.9(32) . . .
29.5(29) . . .
35.3(33) . . .
31.4(30) . . .
29.3(28) . . .
28.9(29) . . .
25.0(26) . . .
32.1(30) . . .
29.5(28) . . .
23.3(28) . . .
23.1(27) . . .
28.9(29) . . .
27.7(27) . . .
24.1(26) . . .
25.9(26) . . .
28.1(28) . . .
32.5(31) . . .
33.6(32) . . .
21.2(25) . . .
18.1(23) . . .
25.2(28) . . .
30.8(30) . . .
23.4(25) . . .
23.9(26) . . .
25.8(27) . . .
26.8(29) . . .
31.0(30) . . .
24.7(26) . . .
30.9(29) . . .
32.6(32) . . .
28.5(29) . . .
24.5(26) . . .
25.9(27) . . .
26.1(27) . . .
36.9(35) . . .
26.1(27) . . .
27.0(27) . . .
32.7(30) . . .
23.8(26) . . .
27.1(29) . . .
30.6(33) . . .
30.9(29) . . .
30.1(28) . . .
35.0(31) . . .
24.5(26) . . .
30.8(32) . . .
24.1(26) . . .
35.3(31) . . .
32.3(30) . . .
26.0(27) . . .
25.5(29) . . .
29.5(28) . . .
23.2(25) . . .
28.4(29) . . .
28.2(28) . . .
26.4(30) . . .
26.1(29) . . .
24.9(26) . . .
24.4(26) . . .
35.8(32) . . .
27.4(26) . . .
27.5(27) . . .
26.1(27) . . .
30.9(30) . . .
26.7(27) . . .
34.9(33) . . .
32.0(29) . . .
31.9(29) . . .
23.8(27) . . .
21.1(27) . . .
23.3(26) . . .
29.8(28) . . .
36.9(32) . . .
30.7(30) . . .
26.7(29) . . .
29.7(30) . . .
32.8(31) . . .
35.1(31) . . .
29.5(29) . . .
31.8(29) . . .
29.8(29) . . .
27.7(27) . . .
35.2(30) . . .
28.9(27) . . .
33.5(33) . . .
30.3(29) . . .
29.1(28) . . .
26.7(27) . . .
27.4(28) . . .
24.3(29) . . .
30.1(30) . . .
30.3(29) . . .
26.5(27) . . .
29.6(29) . . .
28.4(28) . . .
35.3(33) . . .
33.3(31) . . .
26.6(28) . . .
27.0(28) . . .
28.4(28) . . .
36.6(32) . . .
26.6(27) . . .
31.6(30) . . .
34.3(33) . . .
35.3(32) . . .
28.7(28) . . .
31.0(29) . . .
22.5(24) . . .
23.8(25) . . .
26.0(27) . . .
28.4(28) . . .
32.7(31) . . .
30.0(29) . . .
25.4(27) . . .
28.1(29) . . .
31.6(32) . . .
30.2(29) . . .
19.5(23) . . .
27.8(32) . . .
22.6(27) . . .
25.3(26) . . .
28.7(28) . . .
31.9(30) . . .
27.3(28) . . .
27.7(28) . . .
26.4(28) . . .
28.5(29) . . .
33.9(32) . . .
28.5(30) . . .
30.7(29) . . .
30.8(28) . . .
26.6(27) . . .
30.3(29) . . .
29.4(31) . . .
25.8(27) . . .
32.0(29) . . .
29.7(29) . . .
32.7(32) . . .
28.5(30) . . .
32.1(30) . . .
30.8(29) . . .
30.5(29) . . .
29.3(31) . . .
26.8(30) . . .
30.0(30) . . .
29.1(28) . . .
28.6(28) . . .
31.6(31) . . .
29.3(31) . . .
35.1(33) . . .
28.5(28) . . .
25.7(28) . . .
29.4(30) . . .
28.9(28) . . .
24.4(26) . . .
23.2(25) . . .
27.6(27) . . .
36.2(33) . . .
25.5(27) . . .
31.9(30) . . .
30.7(29) . . .
35.2(33) . . .
36.5(35) . . .
26.6(26) . . .
30.2(31) . . .
26.5(27) . . .
29.9(30) . . .
34.5(32) . . .
33.9(31) . . .
33.1(30) . . .
29.1(29) . . .
32.5(30) . . .
35.4(34) . . .
32.4(32) . . .
25.2(26) . . .
29.4(29) . . .
30.3(31) . . .
30.1(29) . . .
32.6(32) . . .
27.4(27) . . .
28.8(28) . . .
33.1(31) . . .
30.4(31) . . .
29.7(29) . . .
37.2(32) . . .
31.4(29) . . .
21.5(26) . . .
27.3(30) . . .
24.3(25) . . .
33.3(30) . . .
26.8(27) . . .
20.2(23) . . .
27.5(29) . . .
25.5(27) . . .
26.7(28) . . .
28.0(27) . . .
30.0(31) . . .
27.2(30) . . .
27.5(28) . . .
24.8(26) . . .
28.7(28) . . .
27.4(28) . . .
23.8(27) . . .
30.5(29) . . .
32.5(30) . . .
25.4(26) . . .
25.3(26) . . .
24.0(27) . . .
26.4(27) . . .
29.4(28) . . .
23.0(27) . . .
20.2(23) . . .
22.6(25) . . .
29.7(31) . . .
27.5(28) . . .
24.4(26) . . .
25.8(28) . . .
19.0(22) . . .
29.5(30) . . .
26.4(27) . . .
28.4(29) . . .
30.1(31) . . .
28.2(27) . . .
34.2(30) . . .
29.5(28) . . .
21.2(25) . . .
26.1(28) . . .
30.4(30) . . .
33.3(33) . . .
35.4(31) . . .
30.1(30) . . .
24.6(28) . . .
30.9(31) . . .
26.4(27) . . .
27.6(27) . . .
28.9(27) . . .
29.5(31) . . .
30.1(33) . . .
27.4(28) . . .
30.2(29) . . .
30.2(31) . . .
24.1(29) . . .
24.8(27) . . .
26.4(27) . . .
27.6(28) . . .
31.1(30) . . .
24.9(25) . . .
34.6(32) . . .
30.9(29) . . .
29.7(28) . . .
32.9(32) . . .
24.1(25) . . .
23.7(25) . . .
22.7(25) . . .
32.5(30) . . .
24.7(27) . . .
31.2(33) . . .
26.4(28) . . .
32.8(30) . . .
29.7(29) . . .
28.9(29) . . .
26.6(28) . . .
29.0(28) . . .
29.7(29) . . .
36.6(34) . . .
29.5(29) . . .
33.3(32) . . .
22.2(25) . . .
25.9(27) . . .
33.1(31) . . .
25.4(27) . . .
27.5(28) . . .
24.6(28) . . .
30.2(28) . . .
26.8(27) . . .
31.3(30) . . .
27.5(29) . . .
29.4(30) . . .
23.6(26) . . .
26.2(27) . . .
34.2(32) . . .
35.2(32) . . .
23.1(26) . . .
20.1(23) . . .
28.0(29) . . .
36.9(34) . . .
24.5(26) . . .
29.2(29) . . .
24.6(26) . . .
34.5(32) . . .
21.9(24) . . .
30.2(29) . . .
35.1(31) . . .
27.4(27) . . .
27.9(32) . . .
30.4(31) . . .
26.9(27) . . .
23.9(26) . . .
30.4(28) . . .
24.4(26) . . .
29.8(29) . . .
37.9(35) . . .
27.5(27) . . .
30.4(30) . . .
30.6(31) . . .
26.2(28) . . .
31.7(31) . . .
26.4(27) . . .
22.2(24) . . .
26.0(28) . . .
33.8(33) . . .
31.5(29) . . .
32.3(30) . . .
29.2(29) . . .
23.9(27) . . .
27.2(28) . . .
30.7(31) . . .
19.3(24) . . .
26.9(28) . . .
22.3(26) . . .
23.8(27) . . .
28.4(28) . . .
29.6(28) . . .
31.5(30) . . .
28.9(30) . . .
23.7(27) . . .
32.2(31) . . .
24.2(25) . . .
30.4(32) . . .
27.4(28) . . .
29.1(29) . . .
25.9(27) . . .
19.1(23) . . .
28.7(28) . . .
33.8(33) . . .
28.3(29) . . .
27.5(29) . . .
29.9(28) . . .
34.5(31) . . .
28.2(30) . . .
36.9(33) . . .
33.7(31) . . .
32.9(30) . . .
30.7(30) . . .
38(4) . . .
31.6(30) . . .
31.1(29) . . .
25.4(26) . . .
22.9(25) . . .
26.7(29) . . .
29.8(30) . . .
28.0(27) . . .
30.6(28) . . .
20.9(23) . . .
33.3(31) . . .
42.0(34) . . .
23.9(26) . . .
25.4(26) . . .
30.6(30) . . .
32.3(33) . . .
28.6(28) . . .
28.2(28) . . .
30.7(29) . . .
29.1(28) . . .
31.8(32) . . .
25.4(27) . . .
27.8(27) . . .
31.0(29) . . .
26.6(27) . . .
15.0(20) . . .
25.2(27) . . .
32.7(30) . . .
30.5(30) . . .
31.1(31) . . .
32.5(32) . . .
31.9(29) . . .
30.7(30) . . .
25.1(28) . . .
27.5(31) . . .
28.8(30) . . .
28.6(28) . . .
26.7(27) . . .
21.5(24) . . .
31.5(31) . . .
30.6(30) . . .
26.9(27) . . .
32.3(29) . . .
35.3(31) . . .
23.8(25) . . .
28.5(32) . . .
22.4(25) . . .
35.9(31) . . .
29.9(30) . . .
27.5(29) . . .
28.4(27) . . .
30.7(29) . . .
26.8(27) . . .
29.6(28) . . .
31.8(30) . . .
33.4(31) . . .
27.4(27) . . .
34.7(32) . . .
25.8(27) . . .
26.2(28) . . .
22.6(25) . . .
29.1(28) . . .
29.7(29) . . .
29.0(29) . . .
29.2(30) . . .
36(4) . . .
40.4(33) . . .
30.0(29) . . .
27.3(28) . . .
31.4(29) . . .
27.1(28) . . .
28.4(28) . . .
25.0(26) . . .
23.5(25) . . .
23.1(26) . . .
22.5(26) . . .
30.4(30) . . .
27.4(28) . . .
29.7(30) . . .
25.4(29) . . .
28.2(27) . . .
27.2(27) . . .
29.1(28) . . .
27.9(28) . . .
28.0(29) . . .
34.1(31) . . .
24.6(27) . . .
34(4) . . .
29.7(32) . . .
23.9(27) . . .
27.7(28) . . .
21.4(24) . . .
30.3(33) . . .
27.8(30) . . .
30.0(28) . . .
29.9(28) . . .
27.3(27) . . .
29.6(29) . . .
33.5(33) . . .
25.4(26) . . .
27.5(27) . . .
29.3(29) . . .
25.1(28) . . .
24.6(28) . . .
20.5(23) . . .
28.1(27) . . .
24.9(26) . . .
25.5(28) . . .
27.6(29) . . .
31.4(31) . . .
26.0(27) . . .
21.5(25) . . .
26.4(28) . . .
28.0(31) . . .
23.5(26) . . .
29.0(28) . . .
31.7(30) . . .
25.7(26) . . .
28.3(30) . . .
26.3(27) . . .
31.3(30) . . .
35.8(32) . . .
31.7(33) . . .
20.4(24) . . .
33.9(32) . . .
27.2(27) . . .
29.8(30) . . .
31.1(31) . . .
24.6(26) . . .
28.7(29) . . .
23.6(26) . . .
28.1(29) . . .
23.0(26) . . .
26.9(28) . . .
31.3(29) . . .
21.7(25) . . .
33.8(34) . . .
31.4(32) . . .
26.0(27) . . .
25.8(27) . . .
32.6(30) . . .
28.7(28) . . .
22.5(26) . . .
24.2(27) . . .
26.9(27) . . .
36.5(32) . . .
30.8(29) . . .
31.4(34) . . .
23.7(27) . . .
30.8(29) . . .
30.5(29) . . .
24.1(25) . . .
30.9(31) . . .
32.5(30) . . .
30.7(29) . . .
24.5(26) . . .
28.8(29) . . .
30.2(29) . . .
31.1(31) . . .
27.8(28) . . .
27.3(28) . . .
24.5(26) . . .
26.5(28) . . .
30.3(31) . . .
29.6(29) . . .
33.1(31) . . .
20.5(24) . . .
24.4(27) . . .
32.2(31) . . .
35.0(31) . . .
32.8(30) . . .
30.0(30) . . .
31.1(31) . . .
26.0(27) . . .
29.5(29) . . .
28.1(29) . . .
28.5(30) . . .
34.2(33) . . .
27.2(28) . . .
37.6(31) . . .
30.9(30) . . .
24.9(27) . . .
32.0(32) . . .
27.1(28) . . .
34.7(31) . . .
37.8(34) . . .
31.1(28) . . .
36.1(32) . . .
27.7(27) . . .
29.2(29) . . .
27.0(27) . . .
27.5(30) . . .
30.9(30) . . .
22.6(25) . . .
24.7(27) . . .
30.9(31) . . .
22.7(25) . . .
25.6(27) . . .
27.9(28) . . .
27.5(28) . . .
29.7(29) . . .
30.1(31) . . .
30.0(29) . . .
24.6(26) . . .
28.3(28) . . .
32.4(31) . . .
36.0(35) . . .
30.0(30) . . .
28.5(28) . . .
35.6(33) . . .
32.3(29) . . .
29.8(30) . . .
31.8(34) . . .
22.8(25) . . .
24.2(27) . . .
28.4(28) . . .
31.6(31) . . .
29.3(30) . . .
26.0(27) . . .
25.3(27) . . .
29.5(30) . . .
25.8(28) . . .
30.0(29) . . .
29.0(28) . . .
26.7(30) . . .
25.9(28) . . .
23.3(26) . . .
34.8(31) . . .
27.1(27) . . .
26.7(27) . . .
34.7(33) . . .
33.6(30) . . .
30.0(29) . . .
31.7(29) . . .
32.4(31) . . .
26.6(28) . . .
36.9(32) . . .
26.1(26) . . .
27.6(27) . . .
29.3(29) . . .
29.3(31) . . .
26.5(27) . . .
29.5(28) . . .
27.7(27) . . .
30.4(31) . . .
26.1(30) . . .
27.6(29) . . .
35.0(31) . . .
26.7(27) . . .
27.1(28) . . .
27.7(29) . . .
30.9(29) . . .
27.5(27) . . .
26.3(28) . . .
30.5(31) . . .
27.8(30) . . .
31.7(31) . . .
31.5(29) . . .
31.3(30) . . .
30.9(29) . . .
30.7(30) . . .
21.9(24) . . .
30.1(29) . . .
24.8(26) . . .
28.5(29) . . .
24.9(28) . . .
22.8(25) . . .
27.6(28) . . .
22.2(26) . . .
28.3(31) . . .
28.8(30) . . .
27.4(29) . . .
24.8(26) . . .
21.5(25) . . .
28.3(28) . . .
35.6(31) . . .
28.8(29) . . .
26.6(27) . . .
33.6(30) . . .
35.7(32) . . .
26.3(28) . . .
26.2(27) . . .
23.2(25) . . .
33.3(35) . . .
35.0(33) . . .
24.2(26) . . .
34.2(31) . . .
34.1(30) . . .
22.6(26) . . .
32.9(32) . . .
22.8(27) . . .
26.6(29) . . .
22.4(24) . . .
25.4(27) . . .
29.3(32) . . .
29.2(31) . . .
25.7(27) . . .
28.8(28) . . .
26.7(27) . . .
28.6(30) . . .
25.0(26) . . .
26.0(27) . . .
22.4(25) . . .
23.4(25) . . .
25.8(28) . . .
29.3(30) . . .
22.7(25) . . .
32.4(30) . . .
36.3(34) . . .
29.3(29) . . .
30.9(31) . . .
26.2(28) . . .
29.0(29) . . .
33.6(30) . . .
27.7(26) . . .
30.3(31) . . .
22.5(25) . . .
26.2(30) . . .
32.2(32) . . .
24.6(26) . . .
31.8(30) . . .
26.7(27) . . .
36.1(32) . . .
32.3(30) . . .
29.1(28) . . .
36.3(32) . . .
26.7(26) . . .
27.6(28) . . .
29.5(33) . . .
25.7(29) . . .
29.9(30) . . .
35.2(31) . . .
36.8(32) . . .
31.5(32) . . .
26.9(29) . . .
32.8(31) . . .
25.1(26) . . .
21.6(24) . . .
34.0(35) . . .
29.7(30) . . .
28.8(29) . . .
25.1(27) . . .
18.4(23) . . .
26.0(29) . . .
30.2(28) . . .
36.1(32) . . .
34.3(31) . . .
24.5(27) . . .
28.4(31) . . .
26.8(27) . . .
31.7(30) . . .
24.0(25) . . .
28.3(30) . . .
29.0(32) . . .
26.7(29) . . .
26.4(28) . . .
24.5(26) . . .
37(4) . . .
27.2(28) . . .
37.1(32) . . .
28.6(28) . . .
33.4(32) . . .
32.8(30) . . .
27.1(28) . . .
26.0(27) . . .
27.7(28) . . .
21.6(24) . . .
27.2(28) . . .
29.1(30) . . .
29.8(31) . . .
28.4(28) . . .
28.4(29) . . .
31.9(31) . . .
34.1(31) . . .
26.8(27) . . .
29.0(28) . . .
29.1(28) . . .
33.4(31) . . .
27.8(28) . . .
29.8(29) . . .
20.8(24) . . .
27.3(27) . . .
27.2(29) . . .
22.3(26) . . .
30.8(30) . . .
23.1(25) . . .
32.2(31) . . .
35.1(33) . . .
23.0(25) . . .
24.1(26) . . .
19.8(23) . . .
27.1(28) . . .
27.7(28) . . .
34.0(33) . . .
26.6(28) . . .
27.3(27) . . .
32.7(31) . . .
29.0(30) . . .
23.5(25) . . .
24.1(27) . . .
34.6(30) . . .
24.9(26) . . .
29.9(31) . . .
27.1(28) . . .
23.5(25) . . .
31.2(30) . . .
22.0(25) . . .
28.3(30) . . .
26.0(29) . . .
26.5(28) . . .
32.2(30) . . .
30.7(30) . . .
29.4(30) . . .
35.5(32) . . .
32.0(30) . . .
30.5(29) . . .
32.5(31) . . .
24.9(27) . . .
20.9(24) . . .
26.0(27) . . .
32.6(30) . . .
25.9(30) . . .
28.3(29) . . .
27.0(27) . . .
22.8(25) . . .
26.4(28) . . .
26.5(30) . . .
33.7(33) . . .
24.4(25) . . .
25.7(26) . . .
27.0(29) . . .
25.3(27) . . .
35.1(33) . . .
34.1(31) . . .
29.1(28) . . .
18.8(22) . . .
23.1(26) . . .
26.7(28) . . .
27.1(27) . . .
31.6(30) . . .
27.9(28) . . .
27.2(28) . . .
26.9(28) . . .
32.1(29) . . .
26.0(27) . . .
27.3(28) . . .
29.3(32) . . .
26.9(27) . . .
30.0(29) . . .
24.3(26) . . .
26.6(28) . . .
23.4(25) . . .
33.5(30) . . .
29.8(28) . . .
31.5(29) . . .
28.0(29) . . .
28.1(30) . . .
35.3(32) . . .
34.4(31) . . .
25.9(26) . . .
26.0(26) . . .
33.9(33) . . .
23.6(27) . . .
26.4(26) . . .
24.0(25) . . .
24.4(26) . . .
29.3(31) . . .
26.6(28) . . .
29.4(29) . . .
31.1(29) . . .
35.5(33) . . .
32.3(31) . . .
23.1(25) . . .
34.4(30) . . .
25.5(26) . . .
28.5(30) . . .
29.7(30) . . .
28.3(30) . . .
19.4(23) . . .
26.3(27) . . .
27.6(29) . . .
31.4(34) . . .
24.6(26) . . .
30.5(29) . . .
27.2(28) . . .
35.1(34) . . .
28.7(29) . . .
23.9(26) . . .
27.2(27) . . .
24.9(26) . . .
21.0(24) . . .
35.7(33) . . .
31.5(30) . . .
19.9(23) . . .
21.6(24) . . .
32.2(31) . . .
32.6(29) . . .
28.6(28) . . .
25.9(26) . . .
27.6(27) . . .
24.7(27) . . .
27.1(28) . . .
31.8(29) . . .
30.4(28) . . .
31.5(31) . . .
28.6(30) . . .
30.3(30) . . .
34.9(31) . . .
25.7(27) . . .
29.5(29) . . .
22.5(26) . . .
20.8(25) . . .
27.6(28) . . .
25.0(27) . . .
28.4(28) . . .
29.1(30) . . .
28.3(28) . . .
33.7(31) . . .
25.8(26) . . .
34.7(32) . . .
24.2(26) . . .
24.6(27) . . .
25.5(27) . . .
25.8(27) . . .
30.0(30) . . .
30.4(29) . . .
32.3(30) . . .
27.0(27) . . .
34.3(32) . . .
28.2(28) . . .
26.0(26) . . .
25.3(27) . . .
29.1(28) . . .
26.1(26) . . .
35.0(33) . . .
24.6(27) . . .
36.4(32) . . .
26.6(27) . . .
34.1(30) . . .
37.7(33) . . .
26.6(27) . . .
26.8(27) . . .
26.4(26) . . .
35.8(33) . . .
33.4(32) . . .
37.7(32) . . .
33.3(30) . . .
37.3(32) . . .
33.7(31) . . .
25.0(28) . . .
23.1(25) . . .
27.3(28) . . .
29.6(28) . . .
30.2(30) . . .
29.3(31) . . .
22.9(26) . . .
26.7(26) . . .
28.3(28) . . .
27.2(28) . . .
25.9(27) . . .
30.3(29) . . .
38.7(33) . . .
25.6(26) . . .
24.6(28) . . .
23.3(27) . . .
21.5(25) . . .
31.3(29) . . .
26.5(27) . . .
25.4(26) . . .
19.1(23) . . .
21.6(25) . . .
26.1(27) . . .
30.1(29) . . .
27.5(27) . . .
22.6(24) . . .
20.6(24) . . .
24.5(26) . . .
27.6(28) . . .
26.9(28) . . .
28.9(31) . . .
29.2(29) . . .
24.2(26) . . .
31.3(30) . . .
26.3(26) . . .
24.5(28) . . .
33.7(32) . . .
31.5(30) . . .
26.1(27) . . .
24.5(28) . . .
24.8(27) . . .
25.3(29) . . .
27.1(27) . . .
28.0(28) . . .
26.9(29) . . .
35.0(35) . . .
32.9(30) . . .
32.8(29) . . .
30.8(29) . . .
36.3(33) . . .
23.2(26) . . .
28.4(28) . . .
21.8(25) . . .
22.0(24) . . .
29.5(30) . . .
32.2(31) . . .
24.2(26) . . .
31.0(29) . . .
28.9(30) . . .
27.4(31) . . .
25.7(27) . . .
27.6(28) . . .
25.2(27) . . .
34.5(33) . . .
27.5(28) . . .
33.4(32) . . .
32.6(30) . . .
28.9(28) . . .
19.8(23) . . .
31.5(34) . . .
25.7(28) . . .
25.2(27) . . .
27.1(29) . . .
23.5(28) . . .
21.5(26) . . .
26.3(28) . . .
23.3(26) . . .
27.6(31) . . .
19.8(25) . . .
29.3(32) . . .
24.8(25) . . .
28.0(28) . . .
23.9(27) . . .
26.5(28) . . .
30.9(32) . . .
22.1(24) . . .
21.9(25) . . .
29.7(29) . . .
28.7(30) . . .
29.9(29) . . .
33.5(30) . . .
31.4(29) . . .
29.5(29) . . .
29.9(32) . . .
25.5(27) . . .
28.6(28) . . .
36.0(31) . . .
30.2(29) . . .
33.4(32) . . .
26.2(28) . . .
28.8(28) . . .
29.0(29) . . .
32.2(30) . . .
loop_
_refln_index_h
_refln_index_k
_refln_index_l
_refln_observed_status
_refln_F_squared_meas
_refln_F_squared_calc
_refln_phase_calc
_refln_d_spacing
_gsas_i100_meas
0 0 2 o 139.825 420.540 180.00 6.58216 0.11
0 2 0 o 1322.739 1492.829 180.00 8.20129 1.62
0 1 3 o 107.634 37.008 180.00 4.23904 0.07
0 0 4 o 152.571 333.728 180.00 3.29108 0.03
1 0 1 o 12894.610 13380.684 0.00 5.87677 16.22
0 2 2 o 32502.131 33005.086 0.00 5.13335 31.21
0 3 1 o 1415.648 1664.782 180.00 5.04934 1.32
0 4 0 o 4655.994 2110.592 0.00 4.10064 1.43
1 1 2 o 4725.631 3977.646 0.00 4.47290 6.89
1 0 3 o 243.183 286.945 180.00 3.64862 0.12
0 1 5 o 1527.464 1667.222 180.00 2.59959 0.38
1 2 1 o 1784.703 1777.274 0.00 4.77697 2.97
0 2 4 o 549.041 592.209 0.00 3.05433 0.19
0 0 6 o 1571.846 1944.299 0.00 2.19405 0.14
1 1 4 o 94.335 45.060 0.00 2.89609 0.06
1 2 3 o 648.038 944.434 0.00 3.33361 0.53
1 0 5 o 364.217 606.212 180.00 2.44380 0.08
0 5 1 o 6.486 3.462 180.00 3.18317 0.00
1 4 1 o 740.878 777.026 180.00 3.36289 0.61
0 2 6 o 906.031 960.722 180.00 2.11952 0.15
0 3 3 o 12160.127 13038.228 0.00 3.42223 5.20
0 6 0 o 2199.130 2340.304 0.00 2.73376 0.30
1 1 6 o 1098.579 1041.021 180.00 2.06445 0.34
0 1 7 o 133.851 868.503 0.00 1.86838 0.02
1 2 5 o 148.605 429.919 0.00 2.34204 0.06
0 3 5 o 0.000 99.704 0.00 2.37216 0.00
0 4 2 o 1.266 9.573 0.00 3.48047 0.00
1 3 2 o 3533.514 3748.240 0.00 3.54179 3.24
1 0 7 o 956.538 1177.680 0.00 1.80795 0.12
0 0 8 o 249.178 359.720 180.00 1.64554 0.01
1 3 4 o 30.319 31.026 0.00 2.59097 0.01
2 0 0 o 1870.623 2009.555 180.00 3.28375 0.37
0 7 1 o 0.000 241.959 0.00 2.30696 0.00
1 2 7 o 1133.586 1475.350 180.00 1.76556 0.26
2 0 2 o 387.353 394.167 0.00 2.93839 0.12
0 2 8 o 1131.335 1419.279 180.00 1.61339 0.11
2 2 0 o 45.574 60.855 0.00 3.04847 0.02
1 6 1 o 431.925 877.977 0.00 2.47870 0.19
2 1 1 o 902.141 825.840 180.00 3.12767 0.65
2 0 4 o 1100.623 1278.561 180.00 2.32455 0.22
1 3 6 o 1130.289 997.640 0.00 1.94489 0.32
1 1 8 o 1226.061 1341.277 0.00 1.58869 0.23
0 1 9 o 1796.199 1617.171 0.00 1.45692 0.14
0 3 7 o 1050.760 1291.305 0.00 1.77836 0.12
2 1 3 o 1170.126 1151.533 0.00 2.59597 0.58
0 6 2 o 87.318 654.082 0.00 2.52467 0.02
0 4 4 o 9927.074 11192.675 0.00 2.56667 2.40
1 5 2 o 3067.242 2820.824 180.00 2.68040 1.61
1 0 9 o 1196.517 1310.401 180.00 1.42772 0.09
0 8 0 o 328.596 302.091 0.00 2.05032 0.03
2 2 2 o 2224.132 1979.582 180.00 2.76620 1.25
2 1 5 o 323.059 270.558 180.00 2.03821 0.10
2 3 1 o 744.596 712.465 0.00 2.75282 0.41
1 4 3 o 5194.907 5490.711 0.00 2.72582 2.83
2 4 0 o 2043.437 2355.675 180.00 2.56319 0.49
0 4 6 o 3821.497 3498.402 180.00 1.93455 0.53
2 0 6 o 87.727 152.935 0.00 1.82431 0.01
2 2 4 o 19.691 123.396 0.00 2.23645 0.01
0 0 10 o 4504.203 7403.466 180.00 1.31643 0.15
1 4 5 o 228.258 199.864 180.00 2.09928 0.07
1 3 8 o 66.102 63.724 0.00 1.53224 0.01
0 3 9 o 20.477 20.611 0.00 1.41301 0.00
0 2 10 o 0.519 0.606 0.00 1.29979 0.00
1 2 9 o 46.764 44.215 180.00 1.40657 0.01
2 2 6 o 486.676 592.922 180.00 1.78078 0.11
1 1 10 o 10.375 10.125 0.00 1.28678 0.00
0 5 3 o 486.736 484.274 180.00 2.62745 0.12
2 5 1 o 0.000 0.012 0.00 2.28557 0.00
2 1 7 o 330.410 432.912 0.00 1.62392 0.06
2 3 3 o 0.000 77.631 180.00 2.36941 0.00
1 8 1 o 566.790 511.695 180.00 1.93588 0.16
0 4 8 o 180.979 176.990 180.00 1.52717 0.02
2 6 0 o 3215.991 2799.238 180.00 2.10098 0.52
0 8 2 o 1577.651 1522.686 180.00 1.95755 0.22
1 7 2 o 2837.547 2566.721 0.00 2.09247 0.91
2 4 2 o 49.585 257.625 180.00 2.38848 0.02
0 9 1 o 3332.109 3837.903 0.00 1.80529 0.40
2 0 8 o 501.782 425.141 180.00 1.47116 0.04
2 3 5 o 939.656 847.075 0.00 1.92290 0.26
1 4 7 o 128.709 260.807 180.00 1.65430 0.03
0 5 5 o 23778.047 22809.830 0.00 2.05334 3.69
2 1 9 o 945.865 1338.158 180.00 1.33173 0.13
1 3 10 o 1.311 1.027 0.00 1.25623 0.00
2 7 1 o 419.211 598.122 180.00 1.88768 0.11
2 3 7 o 1658.126 1791.630 180.00 1.56376 0.30
0 10 0 o 6752.854 8125.017 180.00 1.64026 0.34
1 5 4 o 6389.037 6580.026 0.00 2.19037 2.25
2 2 8 o 2072.490 1737.352 0.00 1.44805 0.32
1 6 3 o 4764.575 4882.232 180.00 2.18779 1.68
0 5 7 o 33.376 40.249 180.00 1.63154 0.00
0 7 3 o 7454.616 6951.500 0.00 2.06698 1.17
1 5 6 o 661.013 888.615 0.00 1.75726 0.15
2 4 4 o 1089.726 872.372 180.00 2.02223 0.33
1 4 9 o 0.015 0.013 0.00 1.34833 0.00
0 4 10 o 105.069 82.265 180.00 1.25343 0.01
2 8 0 o 0.359 0.607 180.00 1.73915 0.00
2 6 2 o 657.802 754.942 180.00 2.00150 0.19
2 0 10 o 1490.452 2408.036 0.00 1.22190 0.08
1 9 2 o 5.172 7.014 0.00 1.69679 0.00
1 10 1 o 241.110 263.507 180.00 1.57987 0.04
2 2 10 o 507.933 1041.243 180.00 1.20856 0.06
2 4 6 o 1743.755 2552.175 0.00 1.66680 0.36
0 10 2 o 1483.078 1568.282 0.00 1.59158 0.14
3 0 1 o 2760.081 2492.393 180.00 2.15951 0.47
0 11 1 o 6453.905 4868.761 180.00 1.48167 0.53
3 0 3 o 3733.589 3670.085 0.00 1.95892 0.53
2 5 3 o 122.212 122.432 0.00 2.05155 0.04
1 5 8 o 64.661 59.192 180.00 1.43531 0.01
3 1 4 o 3622.756 3833.352 0.00 1.81160 0.88
0 5 9 o 2.472 2.815 180.00 1.33592 0.00
3 2 1 o 46.723 45.033 0.00 2.08833 0.02
3 1 2 o 2956.168 2981.710 180.00 2.06083 0.92
2 3 9 o 1478.980 1672.833 0.00 1.29795 0.19
1 8 3 o 178.711 235.644 0.00 1.78743 0.04
2 4 8 o 1832.291 1660.497 180.00 1.38474 0.26
3 0 5 o 2190.422 2322.302 180.00 1.68330 0.23
0 6 4 o 8586.330 7628.518 180.00 2.10290 1.40
3 1 6 o 139.374 126.743 180.00 1.54283 0.02
3 0 7 o 126.443 155.451 180.00 1.42652 0.01
3 2 3 o 5037.361 4094.045 180.00 1.90533 1.35
0 9 3 o 80.305 84.482 180.00 1.68311 0.01
3 2 5 o 291.850 582.958 0.00 1.64893 0.06
2 8 2 o 136.395 148.705 180.00 1.68145 0.03
2 9 1 o 34.522 38.456 180.00 1.58198 0.01
0 6 6 o 3804.909 6309.475 0.00 1.71112 0.41
3 4 1 o 1138.062 895.666 180.00 1.91075 0.31
3 3 2 o 1118.473 857.041 0.00 1.94186 0.31
3 1 8 o 555.028 868.441 180.00 1.31117 0.07
2 5 5 o 1608.981 2314.804 180.00 1.74099 0.36
0 12 0 o 4597.774 4282.350 0.00 1.36688 0.16
1 6 5 o 473.909 670.924 0.00 1.82195 0.12
0 6 8 o 258.680 238.954 180.00 1.40984 0.02
2 10 0 o 16.248 14.743 0.00 1.46738 0.00
3 2 7 o 149.791 138.526 0.00 1.40542 0.02
3 3 4 o 32.613 396.113 180.00 1.72919 0.01
2 5 7 o 3100.023 2884.009 0.00 1.46113 0.49
3 6 1 o 1760.958 2281.148 180.00 1.69458 0.37
2 7 3 o 1392.861 1689.248 180.00 1.74928 0.32
1 6 7 o 472.220 350.670 0.00 1.50800 0.08
1 11 2 o 72.922 89.832 180.00 1.41990 0.01
1 12 1 o 0.260 0.399 180.00 1.33134 0.00
3 0 9 o 1295.626 2043.414 0.00 1.21621 0.07
3 3 6 o 51.680 36.552 0.00 1.49097 0.01
1 7 4 o 338.239 620.160 180.00 1.83298 0.08
3 5 2 o 185.654 226.989 0.00 1.75502 0.04
0 12 2 o 3416.842 3437.087 180.00 1.33833 0.23
0 13 1 o 4525.273 3558.566 0.00 1.25598 0.27
3 4 3 o 161.274 179.679 180.00 1.76759 0.04
0 8 4 o 1082.600 1551.547 0.00 1.74024 0.12
3 3 8 o 0.749 0.584 180.00 1.27889 0.00
1 10 3 o 12.058 9.525 180.00 1.49603 0.00
0 11 3 o 1409.354 1326.837 0.00 1.41185 0.11
2 6 4 o 993.151 911.460 0.00 1.77089 0.23
2 11 1 o 335.530 287.493 0.00 1.35055 0.05
2 10 2 o 507.609 503.022 180.00 1.43222 0.08
1 6 9 o 228.077 164.640 180.00 1.26553 0.03
2 5 9 o 2195.054 1649.782 180.00 1.23744 0.25
0 7 5 o 1285.316 1395.547 180.00 1.75039 0.15
3 8 1 o 0.058 0.040 180.00 1.48690 0.00
3 4 5 o 12.036 13.380 180.00 1.55721 0.00
2 9 3 o 41.196 35.109 0.00 1.49782 0.01
2 12 0 o 1143.005 845.871 180.00 1.26192 0.07
0 7 7 o 5431.867 5148.440 0.00 1.46667 0.44
2 6 6 o 2694.514 2826.806 180.00 1.51746 0.46
3 7 2 o 1972.891 2282.436 180.00 1.55442 0.35
1 9 4 o 376.754 372.975 0.00 1.54936 0.07
3 4 7 o 458.876 403.786 0.00 1.34732 0.06
2 6 8 o 2997.025 3305.069 0.00 1.29548 0.38
1 13 2 o 11.605 18.210 180.00 1.21769 0.00
0 7 9 o 198.579 129.868 0.00 1.24080 0.01
1 7 6 o 554.327 647.848 0.00 1.55597 0.10
3 5 4 o 432.251 415.312 180.00 1.59332 0.08
3 6 3 o 339.170 333.759 0.00 1.59232 0.06
0 10 4 o 129.766 121.305 180.00 1.46803 0.01
1 7 8 o 227.834 470.128 0.00 1.31920 0.03
2 12 2 o 1241.400 815.581 0.00 1.23935 0.14
2 8 4 o 2783.313 2845.930 180.00 1.53766 0.49
3 5 6 o 279.614 261.634 180.00 1.40122 0.04
1 12 3 o 18.597 15.157 180.00 1.28001 0.00
4 0 0 o 2887.966 3043.808 0.00 1.64188 0.14
4 0 2 o 210.214 193.164 180.00 1.59306 0.02
4 1 1 o 1055.950 1221.394 0.00 1.62128 0.21
4 1 3 o 682.036 646.509 180.00 1.53104 0.12
4 0 4 o 1375.890 1277.581 0.00 1.46919 0.11
2 7 5 o 2063.522 1719.444 0.00 1.54465 0.37
4 2 0 o 334.728 301.002 180.00 1.60993 0.03
3 10 1 o 3.869 5.501 0.00 1.30619 0.00
3 9 2 o 46.373 46.830 180.00 1.36998 0.01
0 13 3 o 302.831 534.451 180.00 1.21260 0.02
4 1 5 o 1577.731 1432.293 0.00 1.38818 0.23
4 2 2 o 1958.221 2144.353 0.00 1.56383 0.36
2 11 3 o 1259.753 1380.006 180.00 1.29705 0.16
4 3 1 o 826.909 942.360 180.00 1.56140 0.15
4 4 0 o 1658.228 1876.964 0.00 1.52424 0.14
4 0 6 o 791.862 1445.211 180.00 1.31455 0.05
1 8 5 o 601.368 747.632 180.00 1.57072 0.11
3 8 3 o 1006.352 1210.281 180.00 1.41638 0.15
3 5 8 o 376.448 677.680 0.00 1.22089 0.04
1 11 4 o 9.476 18.972 180.00 1.33009 0.00
4 2 4 o 1128.579 872.741 180.00 1.44617 0.18
4 1 7 o 529.625 553.938 180.00 1.23333 0.06
4 2 6 o 473.459 517.587 0.00 1.29799 0.06
0 8 6 o 1643.673 1634.274 180.00 1.49803 0.14
2 7 7 o 3777.859 3466.001 180.00 1.33916 0.51
0 9 5 o 1471.132 1530.261 0.00 1.49852 0.12
4 3 3 o 3276.107 2562.250 0.00 1.48032 0.54
0 12 4 o 14.922 10.756 0.00 1.26233 0.00
0 8 8 o 966.144 887.531 0.00 1.28334 0.06
4 5 1 o 2771.216 2747.883 0.00 1.45920 0.44
2 10 4 o 616.895 537.870 0.00 1.34020 0.08
3 6 5 o 15.790 14.551 180.00 1.43337 0.00
4 4 2 o 2307.571 1515.487 180.00 1.48494 0.38
4 3 5 o 262.352 207.237 180.00 1.35004 0.04
4 6 0 o 4575.060 4135.489 180.00 1.40753 0.34
3 7 4 o 19.405 14.115 0.00 1.43872 0.00
3 6 7 o 735.337 514.933 180.00 1.26469 0.09
1 8 7 o 241.936 207.686 0.00 1.35605 0.03
3 11 2 o 160.155 322.899 0.00 1.21136 0.02
4 7 1 o 2877.540 2828.990 180.00 1.33768 0.39
3 10 3 o 619.255 498.612 180.00 1.25761 0.07
4 4 4 o 1254.420 1116.976 0.00 1.38310 0.18
1 10 5 o 280.715 246.070 0.00 1.36193 0.04
4 6 2 o 1706.786 1467.478 0.00 1.37641 0.24
4 8 0 o 2441.726 2179.470 0.00 1.28160 0.15
4 5 3 o 744.345 603.155 180.00 1.39237 0.11
4 4 6 o 150.804 112.484 180.00 1.25180 0.02
2 9 5 o 4910.062 4234.872 180.00 1.36328 0.68
0 11 5 o 413.146 445.044 0.00 1.29750 0.03
2 8 6 o 3191.453 2767.418 0.00 1.36291 0.44
3 9 4 o 242.042 282.219 180.00 1.28879 0.03
4 9 1 o 1195.683 1753.232 0.00 1.21465 0.13
3 7 6 o 68.656 82.212 0.00 1.29259 0.01
4 8 2 o 2560.150 2089.403 180.00 1.25797 0.31
1 9 6 o 336.789 398.241 180.00 1.37104 0.05
4 5 5 o 752.566 694.750 0.00 1.28233 0.09
0 9 7 o 19.867 30.741 180.00 1.30877 0.00
4 7 3 o 987.907 922.268 0.00 1.28564 0.12
3 8 5 o 106.946 116.463 180.00 1.30101 0.01
4 6 4 o 314.090 344.440 180.00 1.29414 0.04
0 10 6 o 2.812 6.348 0.00 1.31372 0.00
5 0 1 o 1706.559 2308.858 0.00 1.30701 0.11
5 0 3 o 5.966 5.116 0.00 1.25834 0.00
5 2 1 o 468.094 645.853 0.00 1.29072 0.06
5 1 2 o 498.940 464.769 0.00 1.28415 0.06
5 2 3 o 446.270 335.375 0.00 1.24378 0.05
5 1 4 o 16.181 19.857 0.00 1.21657 0.00
2 9 7 o 79.140 97.287 0.00 1.21576 0.01
5 4 1 o 0.154 0.153 180.00 1.24529 0.00
5 3 2 o 797.755 625.089 0.00 1.25378 0.09
1 11 6 o 60.109 119.113 0.00 1.21209 0.01
2 10 6 o 223.925 451.328 180.00 1.21973 0.03
1 10 7 o 139.044 185.683 180.00 1.21481 0.02
